drugbank_target|Q5S007 Leucine-rich repeat serine/threonine-protein kinase 2 (DB12010)
 OpenBabel12092121163D

  0  0  0     0  0            999 V3000
M  V30 BEGIN CTAB
M  V30 COUNTS 40505 40879 0 0 0
M  V30 BEGIN ATOM
M  V30 1 H -0.908 1.98254 -0.117106 0
M  V30 2 N 0 1.576 0 0
M  V30 3 C 0.933 2.03868 1.02534 0
M  V30 4 C 1.911 0.928543 1.3348 0
M  V30 5 O 3.095 1.19667 1.45644 0
M  V30 6 C 0.222 2.43627 2.35294 0
M  V30 7 C -0.732 3.65373 2.2001 0
M  V30 8 S 0.101 5.13292 1.52614 0
M  V30 9 C 1.257 5.56322 2.86805 0
M  V30 10 H 1.49 2.90518 0.631377 0
M  V30 11 H -0.977 1.52953 0.210867 0
M  V30 12 H 0.981 2.67203 3.11629 0
M  V30 13 H -0.358 1.57376 2.7183 0
M  V30 14 H -1.165 3.90944 3.18086 0
M  V30 15 H -1.563 3.418 1.51819 0
M  V30 16 H 0.729 5.58782 3.83104 0
M  V30 17 H 1.672 6.56266 2.65933 0
M  V30 18 H 2.08 4.83886 2.90714 0
M  V30 19 N 1.4781 -0.272755 1.55222 0
M  V30 20 C 2.4411 -1.32041 1.87344 0
M  V30 21 C 3.4411 -1.42342 0.74803 0
M  V30 22 O 4.6311 -1.41488 1.0162 0
M  V30 23 C 1.7631 -2.70173 2.07893 0
M  V30 24 H 2.9561 -1.04789 2.80997 0
M  V30 25 H 0.5091 -0.51083 1.47717 0
M  V30 26 H 1.2441 -3.02605 1.16622 0
M  V30 27 H 1.0291 -2.64082 2.89833 0
M  V30 28 H 2.5191 -3.45869 2.34017 0
M  V30 29 N 2.9562 -1.48159 -0.537278 0
M  V30 30 C 4.1812 -1.59707 -1.32319 0
M  V30 31 C 4.6062 -0.254859 -1.86365 0
M  V30 32 O 3.9642 0.772378 -1.64024 0
M  V30 33 C 4.0122 -2.6412 -2.45505 0
M  V30 34 O 3.1162 -2.20774 -3.48328 0
M  V30 35 H 2.4572 -0.535791 -0.392204 0
M  V30 36 H 4.9872 -1.94092 -0.647268 0
M  V30 37 H 4.9972 -2.85166 -2.91795 0
M  V30 38 H 3.6722 -3.61567 -2.05528 0
M  V30 39 H 2.2492 -2.09911 -3.08207 0
M  V30 40 N 4.4343 0.785586 -1.36625 0
M  V30 41 C 5.6823 1.54057 -1.30808 0
M  V30 42 C 6.0033 1.94683 0.111157 0
M  V30 43 O 5.2733 1.65241 1.05224 0
M  V30 44 H 3.8533 0.571354 -0.481211 0
M  V30 45 H 6.5153 0.935821 -1.70963 0
M  V30 46 H 5.6113 2.44637 -1.93801 0
M  V30 47 N 5.9124 1.20967 1.01018 0
M  V30 48 C 7.1374 1.0503 1.78839 0
M  V30 49 C 7.5624 -0.395752 1.8389 0
M  V30 50 O 6.9204 -1.28529 1.27867 0
M  V30 51 C 6.9684 1.64602 3.2084 0
M  V30 52 O 6.0724 0.887988 4.02726 0
M  V30 53 H 5.4134 0.369987 0.551367 0
M  V30 54 H 7.9434 1.60399 1.27018 0
M  V30 55 H 7.9534 1.68607 3.71532 0
M  V30 56 H 6.6284 2.69841 3.16479 0
M  V30 57 H 5.2054 0.922648 3.61305 0
M  V30 58 N 7.3905 -1.2043 1.01659 0
M  V30 59 C 8.6305 -1.91507 0.714456 0
M  V30 60 C 8.9945 -1.77073 -0.742237 0
M  V30 61 O 10.1955 -2.42631 -1.15688 0
M  V30 62 C 8.4665 -3.38795 1.13809 0
M  V30 63 S 10.0255 -4.28216 0.957925 0
M  V30 64 H 6.8435 -0.661571 0.260471 0
M  V30 65 H 9.4455 -1.45671 1.30384 0
M  V30 66 H 8.1495 -3.46822 2.19415 0
M  V30 67 H 7.6805 -3.89656 0.541474 0
M  V30 68 H 9.6955 -4.96007 -0.138531 0
M  V30 69 N 8.8686 -0.792821 -1.36206 0
M  V30 70 C 9.8006 -0.151469 -2.28699 0
M  V30 71 C 10.8136 0.641262 -1.49638 0
M  V30 72 O 12.0026 0.475885 -1.72039 0
M  V30 73 C 9.1026 0.808424 -3.29117 0
M  V30 74 C 8.2756 0.0650202 -4.37352 0
M  V30 75 C 7.3346 0.941358 -5.17711 0
M  V30 76 O 6.3606 0.397352 -5.67811 0
M  V30 77 N 7.5626 2.2652 -5.3448 0
M  V30 78 H 10.3276 -0.945982 -2.84379 0
M  V30 79 H 7.8886 -0.647032 -1.48409 0
M  V30 80 H 9.8806 1.3986 -3.79765 0
M  V30 81 H 8.4506 1.5038 -2.74052 0
M  V30 82 H 7.6706 -0.706255 -3.87822 0
M  V30 83 H 8.9586 -0.447847 -5.06825 0
M  V30 84 H 8.3566 2.73128 -4.95396 0
M  V30 85 H 6.9136 2.80493 -5.88359 0
M  V30 86 N 10.3467 1.47872 -0.545128 0
M  V30 87 C 11.5947 2.02093 -0.016553 0
M  V30 88 C 11.9157 1.42305 1.3332 0
M  V30 89 O 11.1857 0.593853 1.86682 0
M  V30 90 H 9.7657 0.746993 -0.00313038 0
M  V30 91 H 12.4277 1.81414 -0.712397 0
M  V30 92 H 11.5237 3.11996 0.0805422 0
M  V30 93 N 11.8248 0.280983 1.55075 0
M  V30 94 C 13.0648 -0.335234 2.01632 0
M  V30 95 C 13.4288 -1.5261 1.16508 0
M  V30 96 O 14.6298 -2.21235 1.52672 0
M  V30 97 C 12.9008 -0.702172 3.50434 0
M  V30 98 S 14.4598 -1.30409 4.18974 0
M  V30 99 H 11.2778 -0.103967 0.703358 0
M  V30 100 H 13.8798 0.404187 1.91276 0
M  V30 101 H 12.5838 0.17333 4.10034 0
M  V30 102 H 12.1148 -1.4729 3.64786 0
M  V30 103 H 14.1298 -2.59253 4.23087 0
M  V30 104 N 13.3029 -1.57598 0.00835791 0
M  V30 105 C 14.2129 -2.12385 -0.996487 0
M  V30 106 C 15.2289 -1.07108 -1.37127 0
M  V30 107 O 16.4049 -1.39055 -1.4569 0
M  V30 108 C 13.4699 -2.62314 -2.26699 0
M  V30 109 C 12.5309 -3.82225 -1.95456 0
M  V30 110 C 11.7639 -4.29763 -3.16449 0
M  V30 111 O 11.9869 -3.76584 -4.28416 0
M  V30 112 O 10.9209 -5.21832 -2.99958 0
M  V30 113 H 14.7469 -2.98479 -0.560725 0
M  V30 114 H 12.3319 -1.47903 -0.210987 0
M  V30 115 H 14.2139 -2.94589 -3.01322 0
M  V30 116 H 12.8889 -1.79313 -2.69497 0
M  V30 117 H 11.7959 -3.54909 -1.18282 0
M  V30 118 H 13.1289 -4.66324 -1.57489 0
M  V30 119 N 14.781 0.264519 -1.55364 0
M  V30 120 C 15.691 1.34902 -1.91934 0
M  V30 121 C 16.707 1.53595 -0.817593 0
M  V30 122 O 17.883 1.67558 -1.11742 0
M  V30 123 C 14.948 2.68676 -2.19121 0
M  V30 124 C 14.009 2.58657 -3.4263 0
M  V30 125 C 13.242 3.86051 -3.68511 0
M  V30 126 O 13.465 4.87126 -2.96757 0
M  V30 127 O 12.399 3.85744 -4.62045 0
M  V30 128 H 16.225 1.06883 -2.8427 0
M  V30 129 H 13.81 0.463775 -1.42019 0
M  V30 130 H 15.692 3.47759 -2.37995 0
M  V30 131 H 14.367 2.96463 -1.29966 0
M  V30 132 H 13.274 1.7792 -3.29082 0
M  V30 133 H 14.607 2.35818 -4.32031 0
M  V30 134 N 16.2591 1.48442 0.529413 0
M  V30 135 C 17.5361 1.46978 1.29062 0
M  V30 136 C 17.9161 0.181769 2.10316 0
M  V30 137 O 17.2641 -0.836481 2.12639 0
M  V30 138 C 17.4741 2.7321 2.17157 0
M  V30 139 C 18.8221 3.21562 2.77278 0
M  V30 140 O 19.8461 2.74131 2.27444 0
M  V30 141 O 18.7051 4.04094 3.67927 0
M  V30 142 H 15.7991 0.587003 0.582543 0
M  V30 143 H 18.3451 1.60676 0.546021 0
M  V30 144 H 17.1171 3.58465 1.56903 0
M  V30 145 H 16.7401 2.62235 2.98862 0
M  V30 146 N 17.7372 -0.778329 1.37039 0
M  V30 147 C 18.6472 -1.92253 1.34446 0
M  V30 148 C 19.6632 -1.72267 0.244991 0
M  V30 149 O 20.8392 -1.95615 0.479258 0
M  V30 150 C 17.9042 -3.27282 1.144 0
M  V30 151 C 16.9652 -3.59969 2.33925 0
M  V30 152 C 16.1982 -4.88555 2.14825 0
M  V30 153 O 16.4212 -5.59113 1.12912 0
M  V30 154 O 15.3552 -5.20153 3.02861 0
M  V30 155 H 19.1812 -1.97392 2.30803 0
M  V30 156 H 16.7662 -0.920154 1.17701 0
M  V30 157 H 18.6482 -4.08062 1.05182 0
M  V30 158 H 17.3232 -3.23011 0.211124 0
M  V30 159 H 16.2302 -2.7945 2.48714 0
M  V30 160 H 17.5632 -3.68976 3.25757 0
M  V30 161 N 19.2153 -1.21501 -1.00376 0
M  V30 162 C 20.1253 -0.991447 -2.12621 0
M  V30 163 C 21.1413 0.0568446 -1.73907 0
M  V30 164 O 22.3173 -0.13348 -2.00957 0
M  V30 165 C 19.3823 -0.560312 -3.42142 0
M  V30 166 C 18.4433 -1.68096 -3.95022 0
M  V30 167 C 17.6763 -1.2703 -5.18362 0
M  V30 168 O 17.8993 -0.144438 -5.70217 0
M  V30 169 O 16.8333 -2.08269 -5.64719 0
M  V30 170 H 20.6593 -1.93158 -2.34358 0
M  V30 171 H 18.2443 -0.999999 -1.10997 0
M  V30 172 H 20.1263 -0.329724 -4.20108 0
M  V30 173 H 18.8013 0.351089 -3.2179 0
M  V30 174 H 17.7083 -1.96597 -3.18278 0
M  V30 175 H 19.0413 -2.56983 -4.19786 0
M  V30 176 N 20.6934 1.19889 -1.02296 0
M  V30 177 C 21.9214 1.9339 -0.735399 0
M  V30 178 C 22.3364 1.75148 0.704887 0
M  V30 179 O 21.6934 1.06954 1.47875 0
M  V30 180 C 21.7444 3.45313 -1.06962 0
M  V30 181 O 21.4654 3.62964 -2.45334 0
M  V30 182 C 22.9664 4.35948 -0.804021 0
M  V30 183 H 20.1864 0.61448 -0.269546 0
M  V30 184 H 22.7304 1.522 -1.36585 0
M  V30 185 H 20.8854 3.84359 -0.484455 0
M  V30 186 H 21.2994 4.56886 -2.57595 0
M  V30 187 H 22.7734 5.41174 -1.0879 0
M  V30 188 H 23.2504 4.3842 0.261691 0
M  V30 189 H 23.8564 4.02574 -1.37164 0
M  V30 190 N 22.1715 0.800033 1.35784 0
M  V30 191 C 23.1015 0.220184 2.3246 0
M  V30 192 C 24.0825 -0.65073 1.57161 0
M  V30 193 O 25.2675 -0.582359 1.85263 0
M  V30 194 C 22.3975 -0.637353 3.41402 0
M  V30 195 C 21.3515 0.134531 4.27789 0
M  V30 196 C 20.6775 -0.844285 5.27992 0
M  V30 197 C 21.9775 1.32979 5.05088 0
M  V30 198 H 23.6715 1.02787 2.81203 0
M  V30 199 H 21.2175 0.495717 1.35199 0
M  V30 200 H 23.1705 -1.05302 4.08031 0
M  V30 201 H 21.8945 -1.47785 2.91251 0
M  V30 202 H 20.5535 0.531296 3.6273 0
M  V30 203 H 20.2015 -1.68011 4.74111 0
M  V30 204 H 19.9015 -0.332184 5.8666 0
M  V30 205 H 21.4255 -1.2583 5.97494 0
M  V30 206 H 22.8395 0.98934 5.64699 0
M  V30 207 H 21.2365 1.77593 5.7322 0
M  V30 208 H 22.3065 2.11978 4.36111 0
M  V30 209 N 23.6496 -1.47581 0.552962 0
M  V30 210 C 24.5966 -2.29957 -0.197108 0
M  V30 211 C 25.5666 -1.38799 -0.912359 0
M  V30 212 O 26.7516 -1.67761 -0.908888 0
M  V30 213 C 23.8916 -3.22672 -1.22379 0
M  V30 214 C 23.0046 -4.28919 -0.515038 0
M  V30 215 C 22.1396 -5.0879 -1.52664 0
M  V30 216 C 21.1786 -6.06815 -0.802631 0
M  V30 217 N 20.3156 -6.7966 -1.76086 0
M  V30 218 H 25.1556 -2.93578 0.511486 0
M  V30 219 H 22.6926 -1.4471 0.264067 0
M  V30 220 H 24.6506 -3.74845 -1.83159 0
M  V30 221 H 23.2806 -2.60925 -1.90047 0
M  V30 222 H 22.3326 -3.79835 0.207192 0
M  V30 223 H 23.6446 -4.98773 0.0523425 0
M  V30 224 H 22.7986 -5.65091 -2.20809 0
M  V30 225 H 21.5376 -4.38828 -2.12794 0
M  V30 226 H 20.5426 -5.49695 -0.107238 0
M  V30 227 H 21.7676 -6.78784 -0.207135 0
M  V30 228 H 19.7136 -6.12432 -2.35081 0
M  V30 229 H 19.6306 -7.45669 -1.24552 0
M  V30 230 H 20.8986 -7.40538 -2.43359 0
M  V30 231 N 25.1277 -0.289203 -1.54924 0
M  V30 232 C 26.0747 0.592115 -2.23075 0
M  V30 233 C 27.0447 1.13881 -1.20915 0
M  V30 234 O 28.2297 1.18551 -1.495 0
M  V30 235 C 25.3697 1.76376 -2.96623 0
M  V30 236 C 24.4827 1.24959 -4.13533 0
M  V30 237 C 23.6177 2.38416 -4.74691 0
M  V30 238 C 22.6567 1.84072 -5.83767 0
M  V30 239 N 21.7937 2.91057 -6.38929 0
M  V30 240 H 26.6337 0.00432038 -2.98 0
M  V30 241 H 24.1707 -0.00963529 -1.47097 0
M  V30 242 H 26.1287 2.45268 -3.3749 0
M  V30 243 H 24.7587 2.32337 -2.24097 0
M  V30 244 H 23.8107 0.453307 -3.77689 0
M  V30 245 H 25.1227 0.811662 -4.92152 0
M  V30 246 H 24.2767 3.15276 -5.18349 0
M  V30 247 H 23.0157 2.8553 -3.95378 0
M  V30 248 H 22.0207 1.05697 -5.39545 0
M  V30 249 H 23.2457 1.37877 -6.64956 0
M  V30 250 H 21.1917 3.37526 -5.62505 0
M  V30 251 H 21.1087 2.51724 -7.12861 0
M  V30 252 H 22.3767 3.6785 -6.87246 0
M  V30 253 N 26.6058 1.57591 -0.0167156 0
M  V30 254 C 27.5358 2.12496 0.967858 0
M  V30 255 C 28.5168 1.03807 1.34752 0
M  V30 256 O 29.7018 1.31577 1.42833 0
M  V30 257 C 26.8318 2.64194 2.25431 0
M  V30 258 C 25.7858 3.77559 2.01576 0
M  V30 259 C 25.1118 4.15636 3.36379 0
M  V30 260 C 26.4118 5.04151 1.36489 0
M  V30 261 H 28.1058 2.95013 0.510643 0
M  V30 262 H 25.6518 1.41915 0.244181 0
M  V30 263 H 27.6048 3.01236 2.94678 0
M  V30 264 H 26.3288 1.78821 2.73296 0
M  V30 265 H 24.9878 3.40937 1.34751 0
M  V30 266 H 24.6358 3.27263 3.81979 0
M  V30 267 H 24.3358 4.92022 3.21229 0
M  V30 268 H 25.8598 4.5525 4.06915 0
M  V30 269 H 27.2738 5.38857 1.95718 0
M  V30 270 H 25.6708 5.85453 1.31776 0
M  V30 271 H 26.7408 4.83733 0.336219 0
M  V30 272 N 28.0839 -0.256276 1.55502 0
M  V30 273 C 29.3329 -0.983486 1.76098 0
M  V30 274 C 29.6459 -1.86837 0.578896 0
M  V30 275 O 30.8519 -2.63163 0.667648 0
M  V30 276 C 29.3079 -1.79868 3.1173 0
M  V30 277 C 28.9159 -0.961648 4.37557 0
M  V30 278 C 30.6599 -2.51919 3.41668 0
M  V30 279 C 28.5669 -1.77219 5.64223 0
M  V30 280 H 27.4969 -0.370936 0.656447 0
M  V30 281 H 30.1479 -0.238492 1.81944 0
M  V30 282 H 28.5299 -2.58527 2.99966 0
M  V30 283 H 29.7039 -0.218048 4.60284 0
M  V30 284 H 28.0189 -0.354913 4.14885 0
M  V30 285 H 30.6159 -3.12998 4.33516 0
M  V30 286 H 30.9589 -3.23059 2.62562 0
M  V30 287 H 31.4919 -1.80278 3.54605 0
M  V30 288 H 28.2309 -1.10471 6.46124 0
M  V30 289 H 27.7509 -2.49132 5.45613 0
M  V30 290 H 29.4299 -2.34169 6.03137 0
M  V30 291 N 29.562 -1.4872 -0.521534 0
M  V30 292 C 30.808 -1.574 -1.27879 0
M  V30 293 C 31.141 -0.250817 -1.92573 0
M  V30 294 O 30.416 0.743934 -1.79711 0
M  V30 295 C 30.699 -2.71843 -2.36164 0
M  V30 296 C 30.552 -4.13893 -1.76105 0
M  V30 297 C 31.871 -2.82008 -3.37875 0
M  V30 298 H 28.99 -0.572941 -0.463581 0
M  V30 299 H 31.632 -1.80927 -0.580119 0
M  V30 300 H 29.782 -2.51914 -2.95756 0
M  V30 301 H 31.454 -4.45284 -1.20499 0
M  V30 302 H 29.697 -4.20498 -1.06601 0
M  V30 303 H 30.368 -4.89804 -2.5455 0
M  V30 304 H 32.844 -3.00086 -2.88249 0
M  V30 305 H 31.72 -3.63796 -4.11028 0
M  V30 306 H 31.981 -1.90511 -3.98946 0
M  V30 307 N 31.0401 0.771051 -1.3745 0
M  V30 308 C 32.4561 1.07171 -1.18265 0
M  V30 309 C 32.6561 2.01491 -0.019287 0
M  V30 310 O 31.7121 2.44244 0.640408 0
M  V30 311 C 33.0251 1.66854 -2.50161 0
M  V30 312 C 34.5731 1.79109 -2.56689 0
M  V30 313 C 35.0481 2.42205 -3.88717 0
M  V30 314 N 36.5391 2.49655 -3.90162 0
M  V30 315 C 37.2741 2.9933 -4.8907 0
M  V30 316 N 36.7701 3.49172 -5.98374 0
M  V30 317 N 38.5631 2.9821 -4.76474 0
M  V30 318 H 30.7141 0.144796 -2.11906 0
M  V30 319 H 32.9771 0.126863 -0.939473 0
M  V30 320 H 32.6831 1.05017 -3.35655 0
M  V30 321 H 32.5571 2.6614 -2.673 0
M  V30 322 H 34.9441 2.40077 -1.71601 0
M  V30 323 H 35.0251 0.785757 -2.43433 0
M  V30 324 H 34.6691 1.81875 -4.74219 0
M  V30 325 H 34.5991 3.43345 -3.99276 0
M  V30 326 H 37.0901 2.14383 -3.11205 0
M  V30 327 H 37.4031 3.8548 -6.69795 0
M  V30 328 H 35.7481 3.47275 -6.02018 0
M  V30 329 H 38.9391 2.58572 -3.90203 0
M  V30 330 H 39.1121 3.36613 -5.53711 0
M  V30 331 N 32.5182 1.22032 0.997298 0
M  V30 332 C 33.4482 1.01065 2.10495 0
M  V30 333 C 34.4292 -0.0669542 1.69968 0
M  V30 334 O 35.6142 0.0943987 1.9397 0
M  V30 335 C 32.7442 0.582874 3.42374 0
M  V30 336 C 31.6982 1.60592 3.96729 0
M  V30 337 C 31.0242 1.03412 5.24605 0
M  V30 338 C 32.3242 2.99478 4.27914 0
M  V30 339 H 34.0182 1.93708 2.28292 0
M  V30 340 H 31.5642 0.932761 1.09707 0
M  V30 341 H 33.5172 0.423332 4.19268 0
M  V30 342 H 32.2412 -0.379213 3.24391 0
M  V30 343 H 30.9002 1.75316 3.21963 0
M  V30 344 H 30.5482 0.063518 5.0296 0
M  V30 345 H 30.2482 1.71754 5.61938 0
M  V30 346 H 31.7722 0.886066 6.04137 0
M  V30 347 H 33.1862 2.88153 4.95622 0
M  V30 348 H 31.5832 3.64903 4.76409 0
M  V30 349 H 32.6532 3.49742 3.3587 0
M  V30 350 N 33.9963 -1.19345 1.0293 0
M  V30 351 C 34.9443 -2.24621 0.604001 0
M  V30 352 C 35.9383 -1.65452 -0.363587 0
M  V30 353 O 37.1443 -1.78497 -0.23212 0
M  V30 354 H 33.5193 -0.730858 0.177061 0
M  V30 355 H 35.4903 -2.5781 1.50255 0
M  V30 356 C 34.2393 -3.47688 -0.0289127 0
M  V30 357 H 33.5623 -3.93505 0.706651 0
M  V30 358 H 35.0023 -4.23011 -0.289432 0
M  V30 359 C 33.4613 -3.11817 -1.2756 0
M  V30 360 O 33.9913 -3.2451 -2.36762 0
M  V30 361 N 32.1973 -2.66246 -1.16453 0
M  V30 362 H 31.7443 -2.56118 -0.275914 0
M  V30 363 H 31.7023 -2.42617 -1.99961 0
M  V30 364 N 35.4744 -0.807222 -1.35358 0
M  V30 365 C 36.4224 -0.20614 -2.31685 0
M  V30 366 C 37.4164 0.644445 -1.56663 0
M  V30 367 O 38.6224 0.537538 -1.71786 0
M  V30 368 H 34.9974 -0.0479006 -0.750473 0
M  V30 369 H 36.9684 -1.03369 -2.79924 0
M  V30 370 C 35.7174 0.630212 -3.41941 0
M  V30 371 H 35.0404 -0.0149558 -3.99797 0
M  V30 372 H 36.4804 1.01716 -4.11619 0
M  V30 373 C 34.9394 1.79601 -2.85035 0
M  V30 374 O 35.4694 2.89351 -2.78637 0
M  V30 375 N 33.6754 1.60774 -2.42074 0
M  V30 376 H 33.2224 0.715009 -2.47478 0
M  V30 377 H 33.1804 2.38933 -2.04349 0
M  V30 378 N 36.9525 1.47285 -0.560781 0
M  V30 379 C 38.1985 2.02764 -0.0381184 0
M  V30 380 C 38.5315 1.43384 1.30976 0
M  V30 381 O 37.8065 0.590733 1.85312 0
M  V30 382 C 38.0895 3.60064 0.0511427 0
M  V30 383 C 37.9425 4.2987 -1.32408 0
M  V30 384 C 39.2615 4.33439 0.762795 0
M  V30 385 H 36.3805 0.736841 -0.0153264 0
M  V30 386 H 39.0225 1.75675 -0.723759 0
M  V30 387 H 37.1725 3.83274 0.635065 0
M  V30 388 H 38.8445 4.17989 -1.95148 0
M  V30 389 H 37.0875 3.90085 -1.8978 0
M  V30 390 H 37.7585 5.38478 -1.21431 0
M  V30 391 H 40.2345 4.15243 0.266965 0
M  V30 392 H 39.1105 5.43124 0.794221 0
M  V30 393 H 39.3715 4.02915 1.81966 0
M  V30 394 N 38.4306 0.297415 1.54768 0
M  V30 395 C 39.3626 -0.613881 2.20826 0
M  V30 396 C 40.3756 -1.10032 1.19987 0
M  V30 397 O 41.5646 -1.01839 1.46598 0
M  V30 398 C 38.6646 -1.852 2.83821 0
M  V30 399 C 37.8376 -1.50865 4.10559 0
M  V30 400 C 36.8966 -2.60154 4.57391 0
M  V30 401 O 35.9226 -2.25398 5.2267 0
M  V30 402 N 37.1246 -3.90629 4.29406 0
M  V30 403 H 39.8896 -0.048389 2.99661 0
M  V30 404 H 37.4506 0.11946 1.61459 0
M  V30 405 H 39.4426 -2.57652 3.12086 0
M  V30 406 H 38.0126 -2.32597 2.08847 0
M  V30 407 H 37.2326 -0.616925 3.89343 0
M  V30 408 H 38.5206 -1.25458 4.9309 0
M  V30 409 H 37.9186 -4.21677 3.77101 0
M  V30 410 H 36.4756 -4.59391 4.62388 0
M  V30 411 N 39.9087 -1.5758 0.0250728 0
M  V30 412 C 40.8187 -2.1343 -0.973905 0
M  V30 413 C 41.8347 -1.08556 -1.35984 0
M  V30 414 O 43.0107 -1.40592 -1.44207 0
M  V30 415 C 40.0757 -2.64703 -2.23904 0
M  V30 416 C 39.1367 -3.84276 -1.91391 0
M  V30 417 C 38.3697 -4.33095 -3.11873 0
M  V30 418 O 38.5927 -3.81107 -4.24398 0
M  V30 419 O 37.5267 -5.24984 -2.94406 0
M  V30 420 H 41.3527 -2.99057 -0.529036 0
M  V30 421 H 38.9377 -1.48118 -0.195288 0
M  V30 422 H 40.8197 -2.97769 -2.98181 0
M  V30 423 H 39.4947 -1.82161 -2.6758 0
M  V30 424 H 38.4017 -3.56143 -1.14511 0
M  V30 425 H 39.7347 -4.67968 -1.52534 0
M  V30 426 N 41.3868 0.248026 -1.55636 0
M  V30 427 C 42.6348 0.974295 -1.77065 0
M  V30 428 C 42.9558 1.85897 -0.588849 0
M  V30 429 O 42.2258 1.91868 0.395407 0
M  V30 430 H 40.8058 0.362733 -0.653019 0
M  V30 431 H 43.4678 0.266244 -1.93073 0
M  V30 432 H 42.5638 1.59667 -2.68166 0
M  V30 433 N 42.8649 1.48995 0.513639 0
M  V30 434 C 43.8119 1.6473 1.61656 0
M  V30 435 C 44.7819 0.488984 1.58739 0
M  V30 436 O 45.9669 0.714478 1.76918 0
M  V30 437 C 43.1069 1.7082 2.99858 0
M  V30 438 C 42.2199 2.9787 3.12885 0
M  V30 439 C 41.3549 2.95017 4.41744 0
M  V30 440 C 40.3939 4.16702 4.48359 0
M  V30 441 N 39.5309 4.11832 5.68629 0
M  V30 442 H 44.3709 2.58909 1.47547 0
M  V30 443 H 41.9079 1.28382 0.71808 0
M  V30 444 H 43.8659 1.72331 3.79944 0
M  V30 445 H 42.4959 0.801181 3.12699 0
M  V30 446 H 41.5479 3.06029 2.25944 0
M  V30 447 H 42.8599 3.8786 3.13633 0
M  V30 448 H 42.0139 2.95021 5.30139 0
M  V30 449 H 40.7529 2.02784 4.43542 0
M  V30 450 H 39.7579 4.16955 3.58369 0
M  V30 451 H 40.9829 5.10113 4.48287 0
M  V30 452 H 38.9289 3.22428 5.71293 0
M  V30 453 H 38.8459 4.95543 5.7094 0
M  V30 454 H 40.1139 4.1592 6.59266 0
M  V30 455 N 44.343 -0.763751 1.37857 0
M  V30 456 C 45.275 -1.88664 1.30148 0
M  V30 457 C 46.288 -1.61365 0.215685 0
M  V30 458 O 47.477 -1.72134 0.472459 0
M  V30 459 C 44.577 -3.24075 0.991396 0
M  V30 460 C 43.75 -3.78958 2.18426 0
M  V30 461 C 42.809 -4.92862 1.8432 0
M  V30 462 O 41.835 -5.08027 2.56704 0
M  V30 463 N 43.037 -5.75071 0.792081 0
M  V30 464 H 45.802 -1.95791 2.26905 0
M  V30 465 H 43.363 -0.943226 1.31586 0
M  V30 466 H 45.355 -3.97804 0.743935 0
M  V30 467 H 43.925 -3.12399 0.112122 0
M  V30 468 H 43.145 -2.96913 2.59299 0
M  V30 469 H 44.433 -4.12357 2.98058 0
M  V30 470 H 43.831 -5.65375 0.191595 0
M  V30 471 H 42.388 -6.48991 0.60449 0
M  V30 472 N 45.8211 -1.22559 -0.990812 0
M  V30 473 C 47.0701 -1.04553 -1.72486 0
M  V30 474 C 47.3831 0.419349 -1.91052 0
M  V30 475 O 48.5891 0.719121 -2.61803 0
M  V30 476 C 47.0451 -1.82231 -3.10355 0
M  V30 477 C 46.6531 -3.32981 -2.99713 0
M  V30 478 C 48.3971 -1.7268 -3.87791 0
M  V30 479 C 46.3041 -4.03091 -4.32748 0
M  V30 480 H 45.2341 -0.387614 -0.646739 0
M  V30 481 H 47.8851 -1.46429 -1.10593 0
M  V30 482 H 46.2671 -1.33155 -3.72942 0
M  V30 483 H 47.4411 -3.89466 -2.46278 0
M  V30 484 H 45.7561 -3.43231 -2.35758 0
M  V30 485 H 48.3531 -2.22381 -4.86262 0
M  V30 486 H 48.6961 -0.687607 -4.10582 0
M  V30 487 H 49.2291 -2.1931 -3.31885 0
M  V30 488 H 45.9681 -5.07273 -4.15156 0
M  V30 489 H 45.4881 -3.51394 -4.86089 0
M  V30 490 H 47.1671 -4.08804 -5.01486 0
M  V30 491 N 47.2992 1.18797 -1.03562 0
M  V30 492 C 48.2092 2.25913 -0.632505 0
M  V30 493 C 49.2252 1.70668 0.338882 0
M  V30 494 O 50.4012 2.00453 0.195076 0
M  V30 495 C 47.4662 3.467 0.00350942 0
M  V30 496 C 46.5272 4.17098 -1.01624 0
M  V30 497 C 45.7602 5.32119 -0.410478 0
M  V30 498 O 45.9832 5.64976 0.784725 0
M  V30 499 O 44.9172 5.9107 -1.13667 0
M  V30 500 H 48.7432 2.62648 -1.52478 0
M  V30 501 H 46.3282 1.25781 -0.806195 0
M  V30 502 H 48.2102 4.19878 0.35781 0
M  V30 503 H 46.8852 3.11798 0.869686 0
M  V30 504 H 45.7922 3.4601 -1.42224 0
M  V30 505 H 47.1252 4.55987 -1.85301 0
M  V30 506 N 48.7773 0.814389 1.34928 0
M  V30 507 C 50.0053 0.411136 2.02774 0
M  V30 508 C 50.4203 -0.980316 1.61354 0
M  V30 509 O 49.7773 -1.63299 0.814847 0
M  V30 510 C 49.8283 0.493865 3.58111 0
M  V30 511 O 49.5493 1.83047 3.98027 0
M  V30 512 C 51.0503 0.0844174 4.4322 0
M  V30 513 H 48.2703 0.166037 0.650133 0
M  V30 514 H 50.8143 1.10018 1.72384 0
M  V30 515 H 48.9693 -0.147006 3.87121 0
M  V30 516 H 49.3833 1.79872 4.92693 0
M  V30 517 H 50.8573 0.193404 5.51661 0
M  V30 518 H 51.3343 -0.97113 4.28329 0
M  V30 519 H 51.9403 0.69875 4.19521 0
M  V30 520 N 50.2554 -1.46986 0.568584 0
M  V30 521 C 51.1854 -2.32946 -0.160753 0
M  V30 522 C 52.1664 -1.44487 -0.897631 0
M  V30 523 O 53.3514 -1.73327 -0.875867 0
M  V30 524 C 50.4814 -3.26494 -1.18403 0
M  V30 525 C 49.4354 -4.24282 -0.562895 0
M  V30 526 C 48.7614 -5.07236 -1.69163 0
M  V30 527 C 50.0614 -5.19989 0.490761 0
M  V30 528 H 51.7554 -2.94175 0.556916 0
M  V30 529 H 49.3014 -1.4146 0.26927 0
M  V30 530 H 51.2544 -3.85477 -1.70251 0
M  V30 531 H 49.9784 -2.63343 -1.93179 0
M  V30 532 H 48.6374 -3.66541 -0.0656164 0
M  V30 533 H 48.2854 -4.4048 -2.42871 0
M  V30 534 H 47.9854 -5.7345 -1.28174 0
M  V30 535 H 49.5094 -5.6908 -2.21314 0
M  V30 536 H 50.9234 -5.73271 0.0579047 0
M  V30 537 H 49.3204 -5.94469 0.820165 0
M  V30 538 H 50.3904 -4.64777 1.3824 0
M  V30 539 N 51.7335 -0.305618 -1.54608 0
M  V30 540 C 52.9795 0.302746 -2.00528 0
M  V30 541 C 53.3125 1.53184 -1.19367 0
M  V30 542 O 52.5875 1.92598 -0.271321 0
M  V30 543 C 52.8705 0.654756 -3.54097 0
M  V30 544 C 52.7235 -0.583793 -4.45995 0
M  V30 545 C 54.0425 1.47947 -4.14487 0
M  V30 546 H 51.1615 0.108564 -0.72896 0
M  V30 547 H 53.8035 -0.418634 -1.85331 0
M  V30 548 H 51.9535 1.26935 -3.67178 0
M  V30 549 H 53.6255 -1.22224 -4.44814 0
M  V30 550 H 51.8685 -1.21615 -4.16404 0
M  V30 551 H 52.5395 -0.293287 -5.5122 0
M  V30 552 H 55.0155 0.96013 -4.04871 0
M  V30 553 H 53.8915 1.69454 -5.22088 0
M  V30 554 H 54.1525 2.47011 -3.66658 0
M  V30 555 N 53.2116 1.57565 -0.0334293 0
M  V30 556 C 54.1436 2.0739 0.975811 0
M  V30 557 C 55.1566 0.998166 1.2861 0
M  V30 558 O 56.3456 1.27426 1.25 0
M  V30 559 C 53.4456 2.4871 2.30209 0
M  V30 560 C 52.6186 3.79413 2.17634 0
M  V30 561 C 51.6776 4.07237 3.33233 0
M  V30 562 O 50.7036 4.77425 3.09927 0
M  V30 563 N 51.9056 3.5775 4.5716 0
M  V30 564 H 54.6706 2.94598 0.55066 0
M  V30 565 H 52.2316 1.61173 0.15323 0
M  V30 566 H 54.2236 2.64413 3.06378 0
M  V30 567 H 52.7936 1.66845 2.64351 0
M  V30 568 H 52.0136 3.73465 1.26165 0
M  V30 569 H 53.3016 4.65038 2.0644 0
M  V30 570 H 52.6996 3.00976 4.78989 0
M  V30 571 H 51.2566 3.78724 5.30482 0
M  V30 572 N 54.6897 -0.239769 1.55765 0
M  V30 573 C 55.9387 -0.964754 1.77131 0
M  V30 574 C 56.2517 -1.86213 0.59868 0
M  V30 575 O 57.4577 -2.6244 0.695522 0
M  V30 576 C 55.9137 -1.76552 3.1362 0
M  V30 577 C 55.5217 -0.915185 4.38553 0
M  V30 578 C 57.2657 -2.48281 3.44321 0
M  V30 579 C 55.1727 -1.71225 5.66071 0
M  V30 580 H 54.1027 -0.363953 0.660344 0
M  V30 581 H 56.7537 -0.219181 1.82186 0
M  V30 582 H 55.1357 -2.55331 3.02691 0
M  V30 583 H 56.3097 -0.169217 4.60489 0
M  V30 584 H 54.6247 -0.310889 4.15238 0
M  V30 585 H 57.2217 -3.08382 4.36812 0
M  V30 586 H 57.5647 -3.20256 2.65973 0
M  V30 587 H 58.0977 -1.76507 3.56497 0
M  V30 588 H 54.8367 -1.03612 6.4726 0
M  V30 589 H 54.3567 -2.43331 5.48224 0
M  V30 590 H 56.0357 -2.27758 6.05587 0
M  V30 591 N 56.1678 -1.49265 -0.50573 0
M  V30 592 C 57.0978 -1.68495 -1.61653 0
M  V30 593 C 58.0788 -0.53366 -1.61512 0
M  V30 594 O 59.2638 -0.76897 -1.78327 0
M  V30 595 C 56.3938 -1.74709 -3.00157 0
M  V30 596 C 55.3478 -2.89581 -3.15162 0
M  V30 597 C 54.6738 -2.80903 -4.5497 0
M  V30 598 C 55.9738 -4.30578 -2.95634 0
M  V30 599 H 57.6678 -2.61493 -1.45814 0
M  V30 600 H 55.2138 -1.25838 -0.70005 0
M  V30 601 H 57.1668 -1.86748 -3.77761 0
M  V30 602 H 55.8908 -0.783067 -3.17074 0
M  V30 603 H 54.5498 -2.77136 -2.39982 0
M  V30 604 H 54.1978 -1.82419 -4.68756 0
M  V30 605 H 53.8978 -3.57999 -4.65951 0
M  V30 606 H 55.4218 -2.94944 -5.34641 0
M  V30 607 H 56.8358 -4.4373 -3.63011 0
M  V30 608 H 55.2328 -5.0886 -3.18091 0
M  V30 609 H 56.3028 -4.45352 -1.91806 0
M  V30 610 N 57.6459 0.756429 -1.3826 0
M  V30 611 C 58.5559 1.9009 -1.37488 0
M  V30 612 C 59.5719 1.71855 -0.272366 0
M  V30 613 O 60.7479 1.94827 -0.510318 0
M  V30 614 C 57.8129 3.25421 -1.19592 0
M  V30 615 C 56.8739 3.56202 -2.39622 0
M  V30 616 C 56.1069 4.85075 -2.2257 0
M  V30 617 O 56.3299 5.57246 -1.21793 0
M  V30 618 O 55.2639 5.15269 -3.11098 0
M  V30 619 H 59.0899 1.93695 -2.33914 0
M  V30 620 H 56.6749 0.901313 -1.1915 0
M  V30 621 H 58.5569 4.06337 -1.11661 0
M  V30 622 H 57.2319 3.22634 -0.262486 0
M  V30 623 H 56.1389 2.75458 -2.53128 0
M  V30 624 H 57.4719 3.63747 -3.31586 0
M  V30 625 N 59.124 1.23083 0.984299 0
M  V30 626 C 60.401 0.9689 1.69917 0
M  V30 627 C 60.781 -0.513604 2.04757 0
M  V30 628 O 60.129 -1.48383 1.73767 0
M  V30 629 C 60.339 1.87518 2.94343 0
M  V30 630 C 61.687 2.13636 3.6694 0
M  V30 631 O 62.711 1.85036 3.04368 0
M  V30 632 O 61.57 2.62119 4.79537 0
M  V30 633 H 58.664 0.365095 0.742048 0
M  V30 634 H 61.21 1.34107 1.03987 0
M  V30 635 H 59.982 2.87756 2.65164 0
M  V30 636 H 59.605 1.50514 3.6801 0
M  V30 637 N 60.6021 -1.18246 1.0419 0
M  V30 638 C 61.5321 -2.24127 0.654914 0
M  V30 639 C 62.5131 -1.66617 -0.342451 0
M  V30 640 O 63.6981 -1.92924 -0.222277 0
M  V30 641 C 60.8281 -3.47295 0.0183757 0
M  V30 642 C 59.7821 -4.17563 0.939414 0
M  V30 643 C 59.1081 -5.34438 0.167286 0
M  V30 644 C 60.4081 -4.70917 2.25908 0
M  V30 645 H 62.1021 -2.56753 1.54007 0
M  V30 646 H 59.6481 -1.23414 0.74195 0
M  V30 647 H 61.6011 -4.20572 -0.264082 0
M  V30 648 H 60.3251 -3.13907 -0.901664 0
M  V30 649 H 58.9841 -3.46186 1.20628 0
M  V30 650 H 58.6321 -4.97298 -0.7552 0
M  V30 651 H 58.3321 -5.82388 0.780901 0
M  V30 652 H 59.8561 -6.10504 -0.108125 0
M  V30 653 H 61.2701 -5.35882 2.03724 0
M  V30 654 H 59.6671 -5.29406 2.82577 0
M  V30 655 H 60.7371 -3.88272 2.9047 0
M  V30 656 N 62.0802 -0.821533 -1.34494 0
M  V30 657 C 63.0102 -0.257138 -2.3208 0
M  V30 658 C 63.9912 0.625645 -1.58176 0
M  V30 659 O 65.1762 0.552811 -1.86166 0
M  V30 660 C 62.3062 0.582958 -3.42372 0
M  V30 661 C 61.2602 -0.202571 -4.2752 0
M  V30 662 C 60.5862 0.760179 -5.29269 0
M  V30 663 C 61.8862 -1.40998 -5.02908 0
M  V30 664 H 63.5802 -1.07247 -2.79532 0
M  V30 665 H 61.1262 -0.517163 -1.34393 0
M  V30 666 H 63.0792 0.987972 -4.09655 0
M  V30 667 H 61.8032 1.43133 -2.93565 0
M  V30 668 H 60.4622 -0.588936 -3.61838 0
M  V30 669 H 60.1102 1.60447 -4.76724 0
M  V30 670 H 59.8102 0.238809 -5.87115 0
M  V30 671 H 61.3342 1.16308 -5.9942 0
M  V30 672 H 62.7482 -1.07905 -5.63054 0
M  V30 673 H 61.1452 -1.86689 -5.70322 0
M  V30 674 H 62.2152 -2.1889 -4.32684 0
M  V30 675 N 63.5583 1.46682 -0.576371 0
M  V30 676 C 64.8043 2.02712 -0.0596221 0
M  V30 677 C 65.1373 1.44765 1.29448 0
M  V30 678 O 64.4123 0.610355 1.84675 0
M  V30 679 C 64.6953 3.60098 0.0129503 0
M  V30 680 C 64.5483 4.28441 -1.3696 0
M  V30 681 C 65.8673 4.34224 0.71678 0
M  V30 682 H 62.9863 0.736637 -0.0231407 0
M  V30 683 H 65.6283 1.74898 -0.742351 0
M  V30 684 H 63.7783 3.83926 0.594378 0
M  V30 685 H 65.4503 4.15896 -1.9957 0
M  V30 686 H 63.6933 3.8805 -1.93907 0
M  V30 687 H 64.3643 5.3716 -1.27135 0
M  V30 688 H 66.8403 4.15503 0.222908 0
M  V30 689 H 65.7163 5.43936 0.73657 0
M  V30 690 H 65.9773 4.04823 1.77682 0
M  V30 691 N 65.0364 0.313813 1.54444 0
M  V30 692 C 66.2834 -0.291675 2.00388 0
M  V30 693 C 66.6114 -1.52904 1.2021 0
M  V30 694 O 65.8664 -1.93833 0.269707 0
M  V30 695 C 66.1654 -0.680386 3.50864 0
M  V30 696 C 65.8314 0.456699 4.48581 0
M  V30 697 C 64.4934 0.768824 4.75018 0
M  V30 698 C 66.8454 1.22098 5.06697 0
M  V30 699 C 64.1734 1.84812 5.56831 0
M  V30 700 C 66.5254 2.29029 5.89685 0
M  V30 701 C 65.1894 2.60834 6.14428 0
M  V30 702 H 64.4594 -0.106732 0.733273 0
M  V30 703 H 67.1064 0.43557 1.86481 0
M  V30 704 H 65.4114 -1.48791 3.62448 0
M  V30 705 H 67.1084 -1.16026 3.83847 0
M  V30 706 H 63.6984 0.203337 4.28117 0
M  V30 707 H 67.8824 0.993096 4.86263 0
M  V30 708 H 63.1384 2.09912 5.74236 0
M  V30 709 H 67.3124 2.887 6.33739 0
M  V30 710 H 64.9394 3.44596 6.77612 0
M  V30 711 N 66.5145 -1.57545 0.0417849 0
M  V30 712 C 67.7425 -1.96624 -0.643928 0
M  V30 713 C 68.1575 -0.918897 -1.64929 0
M  V30 714 O 67.5145 0.0979323 -1.82237 0
M  V30 715 C 67.5655 -3.35781 -1.33914 0
M  V30 716 O 67.2865 -4.365 -0.374048 0
M  V30 717 C 68.7875 -3.89566 -2.1155 0
M  V30 718 H 66.0075 -0.647316 -0.176702 0
M  V30 719 H 68.5515 -2.04229 0.105304 0
M  V30 720 H 66.7065 -3.29357 -2.03968 0
M  V30 721 H 67.1205 -5.17248 -0.869179 0
M  V30 722 H 68.5945 -4.89242 -2.55628 0
M  V30 723 H 69.0715 -3.24488 -2.9598 0
M  V30 724 H 69.6775 -3.99298 -1.46427 0
M  V30 725 N 67.9926 0.231505 -1.5589 0
M  V30 726 C 69.2226 0.973092 -1.82248 0
M  V30 727 C 69.6306 1.78845 -0.617328 0
M  V30 728 O 68.9736 1.78752 0.423499 0
M  V30 729 C 69.0356 1.94732 -3.02192 0
M  V30 730 C 68.6996 1.31743 -4.37599 0
M  V30 731 C 69.6966 0.712238 -5.14998 0
M  V30 732 C 67.3816 1.33218 -4.84312 0
M  V30 733 C 69.3756 0.130195 -6.37267 0
M  V30 734 C 67.0626 0.746286 -6.06526 0
M  V30 735 C 68.0606 0.146337 -6.82843 0
M  V30 736 O 67.7486 -0.430465 -8.02747 0
M  V30 737 H 67.4806 0.29125 -0.61004 0
M  V30 738 H 70.0346 0.254915 -2.03812 0
M  V30 739 H 68.2646 2.70422 -2.76422 0
M  V30 740 H 69.9536 2.55362 -3.15508 0
M  V30 741 H 70.7196 0.69324 -4.8002 0
M  V30 742 H 66.5986 1.78854 -4.24891 0
M  V30 743 H 70.1426 -0.33871 -6.96777 0
M  V30 744 H 66.0396 0.762663 -6.40979 0
M  V30 745 H 66.8076 -0.323818 -8.17859 0
M  V30 746 N 69.4707 1.49531 0.497807 0
M  V30 747 C 70.6957 1.63159 1.28039 0
M  V30 748 C 71.1207 0.30418 1.85624 0
M  V30 749 O 70.4787 -0.728618 1.66015 0
M  V30 750 C 70.5267 2.70537 2.38416 0
M  V30 751 O 69.6307 2.29931 3.42353 0
M  V30 752 H 68.9717 0.546001 0.377861 0
M  V30 753 H 71.5017 1.9574 0.59558 0
M  V30 754 H 71.5117 2.92802 2.84132 0
M  V30 755 H 70.1867 3.6689 1.95869 0
M  V30 756 H 68.7637 2.18009 3.02533 0
M  V30 757 N 70.9488 -0.749086 1.3866 0
M  V30 758 C 71.8588 -1.89358 1.38494 0
M  V30 759 C 72.8748 -1.71708 0.281476 0
M  V30 760 O 74.0508 -1.94554 0.520643 0
M  V30 761 C 71.1158 -3.24782 1.21316 0
M  V30 762 C 70.1768 -3.54926 2.41508 0
M  V30 763 C 69.4098 -4.83888 2.2514 0
M  V30 764 O 69.6328 -5.56592 1.24746 0
M  V30 765 O 68.5668 -5.13612 3.13826 0
M  V30 766 H 72.3928 -1.92452 2.34938 0
M  V30 767 H 69.9778 -0.894981 1.19626 0
M  V30 768 H 71.8598 -4.05739 1.13814 0
M  V30 769 H 70.5348 -3.2249 0.279592 0
M  V30 770 H 69.4418 -2.74112 2.54585 0
M  V30 771 H 70.7748 -3.61983 3.3351 0
M  V30 772 N 72.4269 -1.23603 -0.977757 0
M  V30 773 C 73.8429 -0.999251 -1.24447 0
M  V30 774 C 74.0429 0.298053 -1.99283 0
M  V30 775 O 73.0989 1.01681 -2.31122 0
M  V30 776 C 74.4119 -2.20784 -2.04144 0
M  V30 777 C 75.9599 -2.25303 -2.17273 0
M  V30 778 C 76.4349 -3.45755 -3.00362 0
M  V30 779 N 77.9259 -3.4601 -3.07947 0
M  V30 780 C 78.6609 -4.35868 -3.72568 0
M  V30 781 N 78.1569 -5.35966 -4.38991 0
M  V30 782 N 79.9499 -4.23605 -3.6948 0
M  V30 783 H 72.1009 -2.06986 -0.476483 0
M  V30 784 H 74.3639 -0.907801 -0.273134 0
M  V30 785 H 74.0699 -3.14945 -1.56533 0
M  V30 786 H 73.9439 -2.22085 -3.04891 0
M  V30 787 H 76.3309 -1.3168 -2.64092 0
M  V30 788 H 76.4119 -2.28033 -1.15907 0
M  V30 789 H 76.0559 -4.39687 -2.5424 0
M  V30 790 H 75.9859 -3.40266 -4.01904 0
M  V30 791 H 78.4769 -2.73588 -2.60688 0
M  V30 792 H 78.7899 -6.00783 -4.86086 0
M  V30 793 H 77.1349 -5.39863 -4.37691 0
M  V30 794 H 80.3259 -3.44647 -3.16759 0
M  V30 795 H 80.4989 -4.93836 -4.1956 0
M  V30 796 N 73.905 1.17692 -1.04816 0
M  V30 797 C 74.868 2.19787 -0.650117 0
M  V30 798 C 75.868 1.58044 0.296427 0
M  V30 799 O 77.058 1.74012 0.0808097 0
M  V30 800 C 74.19 3.40869 0.0456987 0
M  V30 801 H 75.383 2.56516 -1.5537 0
M  V30 802 H 72.936 1.31708 -0.841594 0
M  V30 803 H 73.671 3.09681 0.962726 0
M  V30 804 H 73.456 3.86928 -0.634727 0
M  V30 805 H 74.946 4.16445 0.310432 0
M  V30 806 N 75.3831 0.828654 1.34056 0
M  V30 807 C 76.6081 0.431637 2.02859 0
M  V30 808 C 77.0331 -0.956339 1.61975 0
M  V30 809 O 76.3911 -1.62338 0.807228 0
M  V30 810 C 76.4391 0.548323 3.56407 0
M  V30 811 O 75.5431 -0.429556 4.10157 0
M  V30 812 H 74.8841 0.176886 0.640006 0
M  V30 813 H 77.4141 1.12066 1.71179 0
M  V30 814 H 77.4241 0.426196 4.05768 0
M  V30 815 H 76.0991 1.5606 3.8551 0
M  V30 816 H 74.6761 -0.265836 3.71951 0
M  V30 817 N 76.8612 -1.46375 0.584142 0
M  V30 818 C 77.8082 -2.30323 -0.148286 0
M  V30 819 C 78.7782 -1.40703 -0.882713 0
M  V30 820 O 79.9632 -1.69651 -0.873099 0
M  V30 821 C 77.1032 -3.25196 -1.15507 0
M  V30 822 C 76.2162 -4.29915 -0.423943 0
M  V30 823 C 75.3512 -5.11914 -1.41838 0
M  V30 824 C 74.3902 -6.08381 -0.673736 0
M  V30 825 N 73.5272 -6.83242 -1.6163 0
M  V30 826 H 78.3672 -2.92427 0.573644 0
M  V30 827 H 75.9042 -1.44118 0.294703 0
M  V30 828 H 77.8622 -3.78646 -1.75166 0
M  V30 829 H 76.4922 -2.64898 -1.8447 0
M  V30 830 H 75.5442 -3.7931 0.287714 0
M  V30 831 H 76.8562 -4.98549 0.158128 0
M  V30 832 H 76.0102 -5.69648 -2.08773 0
M  V30 833 H 74.7492 -4.43243 -2.03438 0
M  V30 834 H 73.7542 -5.49799 0.00938483 0
M  V30 835 H 74.9792 -6.79071 -0.0631082 0
M  V30 836 H 72.9252 -6.1728 -2.22038 0
M  V30 837 H 72.8422 -7.48144 -1.08707 0
M  V30 838 H 74.1102 -7.45534 -2.27596 0
M  V30 839 N 78.3393 -0.321999 -1.54275 0
M  V30 840 C 79.2693 0.537411 -2.27231 0
M  V30 841 C 80.2503 1.12064 -1.27968 0
M  V30 842 O 81.4353 1.14606 -1.56777 0
M  V30 843 C 78.5653 1.69919 -3.02894 0
M  V30 844 C 77.5193 1.24534 -4.09482 0
M  V30 845 C 76.8453 2.49394 -4.72977 0
M  V30 846 C 78.1453 0.361335 -5.21049 0
M  V30 847 H 79.8393 -0.0711406 -2.99315 0
M  V30 848 H 77.3853 -0.0356555 -1.43956 0
M  V30 849 H 79.3383 2.30668 -3.52662 0
M  V30 850 H 78.0623 2.33431 -2.28424 0
M  V30 851 H 76.7213 0.660782 -3.60596 0
M  V30 852 H 76.3693 3.11265 -3.95124 0
M  V30 853 H 76.0693 2.19718 -5.44975 0
M  V30 854 H 77.5933 3.10908 -5.25517 0
M  V30 855 H 79.0073 0.875072 -5.66582 0
M  V30 856 H 77.4043 0.157428 -5.99893 0
M  V30 857 H 78.4743 -0.60822 -4.8107 0
M  V30 858 N 79.8174 1.5752 -0.0501392 0
M  V30 859 C 81.0644 1.9265 0.623874 0
M  V30 860 C 81.3924 0.928411 1.70912 0
M  V30 861 O 80.6474 -0.0594525 1.9561 0
M  V30 862 C 80.9464 3.34467 1.25963 0
M  V30 863 C 80.6124 4.49883 0.302689 0
M  V30 864 C 79.2744 4.81184 0.0393636 0
M  V30 865 C 81.6264 5.20002 -0.353205 0
M  V30 866 C 78.9544 5.79951 -0.887308 0
M  V30 867 C 81.3064 6.1976 -1.26806 0
M  V30 868 C 79.9704 6.49491 -1.54007 0
M  V30 869 H 79.2404 0.704957 0.228292 0
M  V30 870 H 81.8874 1.91146 -0.116398 0
M  V30 871 H 80.1924 3.32333 2.07514 0
M  V30 872 H 81.8894 3.58928 1.78806 0
M  V30 873 H 78.4794 4.25457 0.518109 0
M  V30 874 H 82.6634 4.96033 -0.162854 0
M  V30 875 H 77.9194 6.01322 -1.10553 0
M  V30 876 H 82.0934 6.73205 -1.78236 0
M  V30 877 H 79.7204 7.25837 -2.25976 0
M  V30 878 N 81.2955 -0.223234 1.56011 0
M  V30 879 C 82.2275 -1.30006 1.88762 0
M  V30 880 C 83.2405 -1.43129 0.775746 0
M  V30 881 O 84.4295 -1.44057 1.05403 0
M  V30 882 C 81.5295 -2.67589 2.07965 0
M  V30 883 C 80.7025 -2.76434 3.38973 0
M  V30 884 C 79.7615 -3.95019 3.47629 0
M  V30 885 O 78.7875 -3.83436 4.20672 0
M  V30 886 N 79.9895 -5.09249 2.78649 0
M  V30 887 H 82.7545 -1.02238 2.81722 0
M  V30 888 H 80.3155 -0.413278 1.56536 0
M  V30 889 H 82.3075 -3.45297 2.11073 0
M  V30 890 H 80.8775 -2.87964 1.21638 0
M  V30 891 H 80.0975 -1.85216 3.47978 0
M  V30 892 H 81.3855 -2.79313 4.25278 0
M  V30 893 H 80.7835 -5.21556 2.19081 0
M  V30 894 H 79.3405 -5.85007 2.8742 0
M  V30 895 N 82.7736 -1.49793 -0.48987 0
M  V30 896 C 84.0216 -1.59525 -1.24081 0
M  V30 897 C 84.3426 -0.288953 -1.92847 0
M  V30 898 O 83.6126 0.692436 -1.83254 0
M  V30 899 H 82.1926 -0.587796 -0.460983 0
M  V30 900 H 84.8546 -1.86477 -0.566778 0
M  V30 901 H 83.9506 -2.39696 -1.99881 0
M  V30 902 N 84.2517 0.741722 -1.39055 0
M  V30 903 C 85.1987 1.85566 -1.37237 0
M  V30 904 C 86.1687 1.64457 -0.233072 0
M  V30 905 O 87.3537 1.85957 -0.427147 0
M  V30 906 C 84.4937 3.23004 -1.215 0
M  V30 907 C 83.6067 3.55864 -2.44918 0
M  V30 908 C 82.7417 4.82669 -2.21821 0
M  V30 909 C 81.7807 5.08351 -3.40948 0
M  V30 910 N 80.9177 6.26356 -3.17211 0
M  V30 911 H 85.7577 1.86455 -2.32462 0
M  V30 912 H 83.2947 0.911176 -1.15482 0
M  V30 913 H 85.2527 4.02331 -1.10389 0
M  V30 914 H 83.8827 3.21411 -0.29908 0
M  V30 915 H 82.9347 2.7129 -2.66657 0
M  V30 916 H 84.2467 3.70765 -3.33668 0
M  V30 917 H 83.4007 5.69962 -2.07914 0
M  V30 918 H 82.1397 4.69929 -1.30454 0
M  V30 919 H 81.1447 4.19522 -3.55361 0
M  V30 920 H 82.3697 5.22981 -4.33207 0
M  V30 921 H 80.3157 6.14917 -2.28502 0
M  V30 922 H 80.2327 6.41813 -3.99515 0
M  V30 923 H 81.5007 7.16506 -3.06984 0
M  V30 924 N 85.7298 1.2412 0.971189 0
M  V30 925 C 86.6778 1.02812 2.08644 0
M  V30 926 C 87.6718 -0.0358403 1.69362 0
M  V30 927 O 88.8778 0.118429 1.7961 0
M  V30 928 H 85.2528 0.315428 0.682649 0
M  V30 929 H 87.2238 1.97397 2.23779 0
M  V30 930 C 85.9728 0.645874 3.41649 0
M  V30 931 H 85.2958 1.45632 3.72332 0
M  V30 932 H 86.7358 0.536366 4.20594 0
M  V30 933 C 85.1948 -0.646713 3.30635 0
M  V30 934 O 85.7248 -1.69338 3.64263 0
M  V30 935 N 83.9308 -0.626115 2.83775 0
M  V30 936 H 83.4778 0.225988 2.56607 0
M  V30 937 H 83.4358 -1.49117 2.76788 0
M  V30 938 N 87.2079 -1.17134 1.05439 0
M  V30 939 C 88.4569 -1.86791 0.761049 0
M  V30 940 C 88.7699 -1.82072 -0.714795 0
M  V30 941 O 89.9759 -2.47223 -1.12218 0
M  V30 942 C 88.4319 -3.35166 1.31117 0
M  V30 943 C 88.0399 -3.48381 2.81664 0
M  V30 944 C 89.7839 -4.10134 1.09499 0
M  V30 945 C 87.6909 -4.90793 3.29964 0
M  V30 946 H 86.6209 -0.699681 0.281002 0
M  V30 947 H 89.2719 -1.3226 1.27199 0
M  V30 948 H 87.6539 -3.8925 0.72803 0
M  V30 949 H 88.8279 -3.04502 3.45855 0
M  V30 950 H 87.1429 -2.86836 3.01851 0
M  V30 951 H 89.7399 -5.152 1.43084 0
M  V30 952 H 90.0829 -4.16287 0.0328772 0
M  V30 953 H 90.6159 -3.62264 1.64346 0
M  V30 954 H 87.3549 -4.89816 4.35616 0
M  V30 955 H 86.8749 -5.35333 2.70516 0
M  V30 956 H 88.5539 -5.59573 3.24787 0
M  V30 957 N 88.686 -0.835752 -1.33615 0
M  V30 958 C 89.636 -0.238856 -2.26745 0
M  V30 959 C 90.62 0.604343 -1.49119 0
M  V30 960 O 91.812 0.456822 -1.71003 0
M  V30 961 C 88.941 0.587725 -3.38232 0
M  V30 962 C 88.027 -0.266811 -4.2326 0
M  V30 963 N 88.418 -1.34403 -4.87616 0
M  V30 964 C 86.716 -0.0533131 -4.45968 0
M  V30 965 C 87.417 -1.86819 -5.50884 0
M  V30 966 N 86.393 -1.17013 -5.30857 0
M  V30 967 H 90.195 -1.06266 -2.74016 0
M  V30 968 H 87.709 -0.679881 -1.47483 0
M  V30 969 H 89.706 1.03161 -4.03935 0
M  V30 970 H 88.366 1.40954 -2.9251 0
M  V30 971 H 89.377 -1.7269 -4.88261 0
M  V30 972 H 86.054 0.735312 -4.10974 0
M  V30 973 H 87.444 -2.7701 -6.1214 0
M  V30 974 N 90.1641 1.46063 -0.591896 0
M  V30 975 C 91.4101 2.02638 -0.0811191 0
M  V30 976 C 91.7431 1.4613 1.27905 0
M  V30 977 O 91.0181 0.629908 1.84017 0
M  V30 978 C 91.3011 3.60091 -0.0252436 0
M  V30 979 C 91.1541 4.26965 -1.41496 0
M  V30 980 C 92.4731 4.3496 0.670685 0
M  V30 981 H 89.5921 0.73635 -0.0309524 0
M  V30 982 H 92.2341 1.741 -0.760859 0
M  V30 983 H 90.3841 3.84535 0.553624 0
M  V30 984 H 92.0561 4.13756 -2.0397 0
M  V30 985 H 90.2991 3.85971 -1.98011 0
M  V30 986 H 90.9701 5.35781 -1.32825 0
M  V30 987 H 93.4461 4.15716 0.178825 0
M  V30 988 H 92.3221 5.44686 0.678837 0
M  V30 989 H 92.5831 4.06685 1.73379 0
M  V30 990 N 91.6422 0.330177 1.54103 0
M  V30 991 C 93.0532 -0.15652 1.86043 0
M  V30 992 C 93.4042 -1.51086 1.2517 0
M  V30 993 O 92.5292 -2.09023 0.560217 0
M  V30 994 C 93.1242 -0.290784 3.3755 0
M  V30 995 C 91.6832 -0.721705 3.69416 0
M  V30 996 C 90.8302 0.152622 2.7688 0
M  V30 997 H 93.7812 0.550237 1.48856 0
M  V30 998 H 93.8022 -1.12058 3.63625 0
M  V30 999 H 93.3142 0.695068 3.81825 0
M  V30 1000 H 91.4152 -1.71706 3.30678 0
M  V30 1001 H 91.5282 -0.520869 4.7626 0
M  V30 1002 H 89.8922 -0.372894 2.51956 0
M  V30 1003 H 90.6752 1.13536 3.23982 0
M  V30 1004 N 93.1203 -1.57491 0.0584922 0
M  V30 1005 C 94.0503 -2.14988 -0.911178 0
M  V30 1006 C 95.0313 -1.07343 -1.31952 0
M  V30 1007 O 96.2163 -1.35318 -1.39294 0
M  V30 1008 C 93.3463 -2.70078 -2.18347 0
M  V30 1009 C 92.3003 -3.82771 -1.91495 0
M  V30 1010 C 91.6263 -4.24408 -3.25241 0
M  V30 1011 C 92.9263 -5.07592 -1.23075 0
M  V30 1012 H 94.6203 -2.96263 -0.432246 0
M  V30 1013 H 92.1663 -1.42512 -0.206469 0
M  V30 1014 H 94.1193 -3.08943 -2.86587 0
M  V30 1015 H 92.8433 -1.86005 -2.68458 0
M  V30 1016 H 91.5023 -3.44389 -1.25664 0
M  V30 1017 H 91.1503 -3.37275 -3.73168 0
M  V30 1018 H 90.8503 -5.00366 -3.08071 0
M  V30 1019 H 92.3743 -4.65879 -3.94701 0
M  V30 1020 H 93.7883 -5.43857 -1.81362 0
M  V30 1021 H 92.1853 -5.88741 -1.16207 0
M  V30 1022 H 93.2553 -4.84454 -0.207847 0
M  V30 1023 N 94.5984 0.214957 -1.56127 0
M  V30 1024 C 95.5284 1.2695 -1.95974 0
M  V30 1025 C 96.5094 1.48539 -0.828868 0
M  V30 1026 O 97.6944 1.60611 -1.09168 0
M  V30 1027 C 94.8244 2.61794 -2.28214 0
M  V30 1028 C 93.7784 2.54851 -3.43853 0
M  V30 1029 C 93.1044 3.93785 -3.61715 0
M  V30 1030 C 94.4044 2.09065 -4.78632 0
M  V30 1031 H 96.0984 0.93846 -2.84312 0
M  V30 1032 H 93.6444 0.449996 -1.36788 0
M  V30 1033 H 95.5974 3.35731 -2.54682 0
M  V30 1034 H 94.3214 2.96599 -1.36736 0
M  V30 1035 H 92.9804 1.8337 -3.17444 0
M  V30 1036 H 92.6284 4.25908 -2.67602 0
M  V30 1037 H 92.3284 3.90019 -4.39498 0
M  V30 1038 H 93.8524 4.69374 -3.90539 0
M  V30 1039 H 95.2664 2.7275 -5.04262 0
M  V30 1040 H 93.6634 2.16346 -5.59745 0
M  V30 1041 H 94.7334 1.04315 -4.73547 0
M  V30 1042 N 96.0765 1.50051 0.48192 0
M  V30 1043 C 97.3255 1.59741 1.23149 0
M  V30 1044 C 97.6385 0.298163 1.93314 0
M  V30 1045 O 98.8445 0.273835 2.70116 0
M  V30 1046 C 97.3005 2.81926 2.23708 0
M  V30 1047 C 96.9085 4.18685 1.59396 0
M  V30 1048 C 98.6525 3.00956 2.99375 0
M  V30 1049 C 96.5595 5.3207 2.58178 0
M  V30 1050 H 95.4895 0.594838 0.46334 0
M  V30 1051 H 98.1405 1.76467 0.503169 0
M  V30 1052 H 96.5225 2.58736 2.99786 0
M  V30 1053 H 97.6965 4.52088 0.891811 0
M  V30 1054 H 96.0115 4.05171 0.960503 0
M  V30 1055 H 98.6085 3.82836 3.73283 0
M  V30 1056 H 98.9515 2.12258 3.58123 0
M  V30 1057 H 99.4845 3.24277 2.30411 0
M  V30 1058 H 96.2235 6.22888 2.04184 0
M  V30 1059 H 95.7435 5.03098 3.26577 0
M  V30 1060 H 97.4225 5.62196 3.20225 0
M  V30 1061 N 97.5546 -0.734337 1.39446 0
M  V30 1062 C 98.8006 -1.49613 1.36908 0
M  V30 1063 C 99.1336 -1.94169 -0.0347829 0
M  V30 1064 O 98.4086 -1.66833 -0.999847 0
M  V30 1065 C 98.6916 -2.73534 2.34203 0
M  V30 1066 C 98.5446 -2.34993 3.83534 0
M  V30 1067 C 99.8636 -3.75635 2.29317 0
M  V30 1068 H 96.9826 -0.542714 0.498629 0
M  V30 1069 H 99.6246 -0.839597 1.70443 0
M  V30 1070 H 97.7746 -3.29553 2.05736 0
M  V30 1071 H 99.4466 -1.84601 4.22753 0
M  V30 1072 H 97.6896 -1.67213 4.00278 0
M  V30 1073 H 98.3606 -3.23738 4.47099 0
M  V30 1074 H 100.837 -3.29203 2.54489 0
M  V30 1075 H 99.7126 -4.60008 2.99472 0
M  V30 1076 H 99.9736 -4.22603 1.29842 0
M  V30 1077 N 99.0327 -1.24633 -0.964593 0
M  V30 1078 C 99.9627 -1.06611 -2.07741 0
M  V30 1079 C 100.944 0.0218666 -1.70086 0
M  V30 1080 O 102.129 -0.145793 -1.93652 0
M  V30 1081 C 99.2587 -0.673444 -3.40708 0
M  V30 1082 C 98.2127 -1.71054 -3.92332 0
M  V30 1083 C 97.5387 -1.17285 -5.21678 0
M  V30 1084 C 98.8387 -3.10718 -4.19824 0
M  V30 1085 H 100.533 -1.99693 -2.23076 0
M  V30 1086 H 98.0787 -0.96152 -1.07195 0
M  V30 1087 H 100.032 -0.534345 -4.17998 0
M  V30 1088 H 98.7557 0.293073 -3.25282 0
M  V30 1089 H 97.4147 -1.83791 -3.17201 0
M  V30 1090 H 97.0627 -0.196847 -5.02615 0
M  V30 1091 H 96.7627 -1.86592 -5.57187 0
M  V30 1092 H 98.2867 -1.04593 -6.01575 0
M  V30 1093 H 99.7007 -3.01192 -4.87808 0
M  V30 1094 H 98.0977 -3.77406 -4.66567 0
M  V30 1095 H 99.1677 -3.58524 -3.26479 0
M  V30 1096 N 100.511 1.16574 -1.06058 0
M  V30 1097 C 101.788 1.83048 -0.689416 0
M  V30 1098 C 102.168 1.94122 0.829443 0
M  V30 1099 O 101.516 1.48249 1.7388 0
M  V30 1100 C 101.726 3.20186 -1.38859 0
M  V30 1101 C 103.074 3.95989 -1.53226 0
M  V30 1102 O 104.098 3.29696 -1.3483 0
M  V30 1103 O 102.957 5.14813 -1.83384 0
M  V30 1104 H 100.051 0.790258 -0.243764 0
M  V30 1105 H 102.597 1.23797 -1.16071 0
M  V30 1106 H 101.369 3.07146 -2.4244 0
M  V30 1107 H 100.992 3.87112 -0.907216 0
M  V30 1108 N 101.989 0.842826 1.3317 0
M  V30 1109 C 103.214 0.453129 2.02389 0
M  V30 1110 C 103.639 -0.939105 1.6298 0
M  V30 1111 O 102.997 -1.61472 0.8244 0
M  V30 1112 C 103.045 0.586094 3.55805 0
M  V30 1113 O 102.149 -0.386029 4.10589 0
M  V30 1114 H 101.49 0.183664 0.638094 0
M  V30 1115 H 104.02 1.13875 1.69981 0
M  V30 1116 H 104.03 0.469209 4.05293 0
M  V30 1117 H 102.705 1.6014 3.83833 0
M  V30 1118 H 101.282 -0.226371 3.72212 0
M  V30 1119 N 103.467 -1.45747 0.599634 0
M  V30 1120 C 104.697 -2.06369 0.0977132 0
M  V30 1121 C 105.105 -1.44624 -1.21985 0
M  V30 1122 O 104.448 -0.551831 -1.75216 0
M  V30 1123 C 104.51 -3.59284 -0.124673 0
M  V30 1124 C 104.174 -4.43318 1.10987 0
M  V30 1125 C 105.171 -4.78796 2.02609 0
M  V30 1126 C 102.856 -4.84194 1.33647 0
M  V30 1127 C 104.85 -5.53997 3.15224 0
M  V30 1128 C 102.537 -5.5915 2.46565 0
M  V30 1129 C 103.535 -5.93968 3.37182 0
M  V30 1130 O 103.223 -6.67405 4.48136 0
M  V30 1131 H 102.955 -0.673122 0.0623153 0
M  V30 1132 H 105.509 -1.88104 0.824981 0
M  V30 1133 H 103.739 -3.75919 -0.906745 0
M  V30 1134 H 105.428 -4.01775 -0.577201 0
M  V30 1135 H 106.194 -4.47781 1.86325 0
M  V30 1136 H 102.073 -4.56534 0.64016 0
M  V30 1137 H 105.617 -5.81091 3.85978 0
M  V30 1138 H 101.514 -5.89579 2.62805 0
M  V30 1139 H 102.282 -6.85847 4.46717 0
M  V30 1140 N 104.945 -0.338344 -1.53925 0
M  V30 1141 C 105.878 0.563758 -2.21127 0
M  V30 1142 C 106.856 1.10433 -1.19345 0
M  V30 1143 O 108.04 1.16557 -1.48144 0
M  V30 1144 C 105.167 1.77505 -2.88461 0
M  V30 1145 C 104.213 1.3644 -4.04087 0
M  V30 1146 S 105.046 0.388593 -5.34088 0
M  V30 1147 C 106.202 1.60683 -6.04923 0
M  V30 1148 H 106.435 -0.00704546 -2.97299 0
M  V30 1149 H 103.968 -0.122418 -1.53914 0
M  V30 1150 H 105.926 2.46999 -3.27875 0
M  V30 1151 H 104.587 2.31706 -2.12064 0
M  V30 1152 H 103.78 2.26739 -4.50117 0
M  V30 1153 H 103.382 0.748998 -3.66423 0
M  V30 1154 H 105.674 2.54209 -6.28 0
M  V30 1155 H 106.617 1.18842 -6.98056 0
M  V30 1156 H 107.025 1.80052 -5.35015 0
M  V30 1157 N 106.423 1.57458 -0.0668435 0
M  V30 1158 C 107.839 1.56947 0.289772 0
M  V30 1159 C 108.039 1.07584 1.70376 0
M  V30 1160 O 107.095 0.739486 2.41429 0
M  V30 1161 C 108.408 3.0052 0.103943 0
M  V30 1162 C 109.956 3.12517 0.173857 0
M  V30 1163 C 110.431 4.57997 0.0163682 0
M  V30 1164 N 111.922 4.63144 0.0721352 0
M  V30 1165 C 112.657 5.73394 -0.0253794 0
M  V30 1166 N 112.153 6.92576 -0.176133 0
M  V30 1167 N 113.946 5.62091 0.0313305 0
M  V30 1168 H 106.097 1.87863 -0.991027 0
M  V30 1169 H 108.36 0.86583 -0.38606 0
M  V30 1170 H 108.066 3.40729 -0.871572 0
M  V30 1171 H 107.94 3.67304 0.858366 0
M  V30 1172 H 110.327 2.72197 1.13985 0
M  V30 1173 H 110.408 2.48381 -0.611586 0
M  V30 1174 H 110.052 4.99005 -0.946374 0
M  V30 1175 H 109.982 5.20158 0.821153 0
M  V30 1176 H 112.473 3.77436 0.187263 0
M  V30 1177 H 112.786 7.72418 -0.242821 0
M  V30 1178 H 111.131 6.94678 -0.211429 0
M  V30 1179 H 114.322 4.67867 0.147773 0
M  V30 1180 H 114.495 6.47982 -0.048121 0
M  V30 1181 N 107.901 -0.206675 1.56239 0
M  V30 1182 C 109.147 -0.930218 1.80208 0
M  V30 1183 C 109.48 -1.83387 0.638981 0
M  V30 1184 O 108.755 -1.91119 -0.361066 0
M  V30 1185 C 109.038 -1.75641 3.1436 0
M  V30 1186 C 108.891 -0.878257 4.41142 0
M  V30 1187 C 110.21 -2.73129 3.45092 0
M  V30 1188 H 107.329 -0.336742 0.655571 0
M  V30 1189 H 109.971 -0.198222 1.88963 0
M  V30 1190 H 108.121 -2.38048 3.07027 0
M  V30 1191 H 109.793 -0.269787 4.6051 0
M  V30 1192 H 108.036 -0.184385 4.33408 0
M  V30 1193 H 108.707 -1.49106 5.3148 0
M  V30 1194 H 111.183 -2.20856 3.52649 0
M  V30 1195 H 110.059 -3.28028 4.40101 0
M  V30 1196 H 110.32 -3.51606 2.68003 0
M  V30 1197 N 109.379 -1.50304 -0.473955 0
M  V30 1198 C 110.342 -1.6841 -1.55469 0
M  V30 1199 C 111.342 -0.554905 -1.50922 0
M  V30 1200 O 112.532 -0.821882 -1.53593 0
M  V30 1201 C 109.664 -1.70667 -2.95102 0
M  V30 1202 H 110.857 -2.64828 -1.40733 0
M  V30 1203 H 108.41 -1.39742 -0.700132 0
M  V30 1204 H 109.145 -0.75932 -3.15285 0
M  V30 1205 H 108.93 -2.52698 -2.9981 0
M  V30 1206 H 110.42 -1.8664 -3.73571 0
M  V30 1207 N 110.857 0.726932 -1.39834 0
M  V30 1208 C 112.082 1.52121 -1.40976 0
M  V30 1209 C 112.507 1.88098 -0.00826029 0
M  V30 1210 O 111.865 1.52479 0.980807 0
M  V30 1211 C 111.913 2.78021 -2.29644 0
M  V30 1212 O 111.017 3.74272 -1.73188 0
M  V30 1213 H 110.358 0.45908 -0.479731 0
M  V30 1214 H 112.888 0.896207 -1.83927 0
M  V30 1215 H 112.898 3.26671 -2.44438 0
M  V30 1216 H 111.573 2.51169 -3.31492 0
M  V30 1217 H 110.15 3.33073 -1.6768 0
M  V30 1218 N 112.336 1.25143 0.95797 0
M  V30 1219 C 113.582 1.09855 1.70469 0
M  V30 1220 C 113.915 -0.360187 1.90831 0
M  V30 1221 O 113.19 -1.26568 1.47685 0
M  V30 1222 C 113.473 1.8497 3.08963 0
M  V30 1223 C 113.326 3.38652 2.96032 0
M  V30 1224 C 114.645 1.63016 4.08795 0
M  V30 1225 H 111.764 0.400465 0.618706 0
M  V30 1226 H 114.406 1.53933 1.11376 0
M  V30 1227 H 112.556 1.47505 3.59409 0
M  V30 1228 H 114.228 3.85772 2.52938 0
M  V30 1229 H 112.471 3.66534 2.32025 0
M  V30 1230 H 113.142 3.8642 3.94187 0
M  V30 1231 H 115.618 1.95625 3.67247 0
M  V30 1232 H 114.494 2.18015 5.03747 0
M  V30 1233 H 114.755 0.570692 4.38401 0
M  V30 1234 N 113.814 -1.1601 1.06675 0
M  V30 1235 C 114.746 -2.20115 0.638921 0
M  V30 1236 C 115.759 -1.59916 -0.305057 0
M  V30 1237 O 116.948 -1.78245 -0.0954446 0
M  V30 1238 C 114.048 -3.38798 -0.0830083 0
M  V30 1239 C 113.221 -4.2855 0.875426 0
M  V30 1240 C 112.28 -5.25849 0.192042 0
M  V30 1241 O 111.306 -5.63102 0.830921 0
M  V30 1242 N 112.508 -5.70648 -1.06493 0
M  V30 1243 H 115.273 -2.57439 1.53444 0
M  V30 1244 H 112.834 -1.31057 0.950557 0
M  V30 1245 H 114.826 -4.00936 -0.550685 0
M  V30 1246 H 113.396 -2.99947 -0.880386 0
M  V30 1247 H 112.616 -3.63617 1.52238 0
M  V30 1248 H 113.904 -4.85393 1.52548 0
M  V30 1249 H 113.302 -5.42482 -1.60405 0
M  V30 1250 H 111.859 -6.34859 -1.47641 0
M  V30 1251 N 115.292 -0.849877 -1.32721 0
M  V30 1252 C 116.224 -0.248332 -2.27851 0
M  V30 1253 C 117.237 0.577218 -1.52224 0
M  V30 1254 O 118.426 0.402489 -1.73903 0
M  V30 1255 C 115.526 0.668107 -3.32249 0
M  V30 1256 C 114.699 -0.120534 -4.37234 0
M  V30 1257 C 113.758 0.720932 -5.21238 0
M  V30 1258 O 112.784 0.156166 -5.68986 0
M  V30 1259 N 113.986 2.03647 -5.43607 0
M  V30 1260 H 116.751 -1.06575 -2.80111 0
M  V30 1261 H 114.312 -0.709395 -1.45531 0
M  V30 1262 H 116.304 1.23627 -3.85355 0
M  V30 1263 H 114.874 1.38621 -2.80184 0
M  V30 1264 H 114.094 -0.870108 -3.84477 0
M  V30 1265 H 115.382 -0.662406 -5.0447 0
M  V30 1266 H 114.78 2.51871 -5.06535 0
M  V30 1267 H 113.337 2.55287 -5.99727 0
M  V30 1268 N 116.77 1.45427 -0.607355 0
M  V30 1269 C 118.016 2.0254 -0.102607 0
M  V30 1270 C 118.349 1.47478 1.26348 0
M  V30 1271 O 117.624 0.64939 1.83339 0
M  V30 1272 C 117.907 3.60044 -0.0634347 0
M  V30 1273 C 117.76 4.2544 -1.46017 0
M  V30 1274 C 119.079 4.35646 0.624514 0
M  V30 1275 H 116.198 0.73598 -0.0387607 0
M  V30 1276 H 118.84 1.73284 -0.779282 0
M  V30 1277 H 116.99 3.85101 0.512808 0
M  V30 1278 H 118.662 4.11569 -2.08347 0
M  V30 1279 H 116.905 3.83849 -2.02094 0
M  V30 1280 H 117.576 5.34342 -1.385 0
M  V30 1281 H 120.052 4.15882 0.134723 0
M  V30 1282 H 118.928 5.45376 0.621028 0
M  V30 1283 H 119.189 4.08501 1.69055 0
M  V30 1284 N 118.248 0.346503 1.53744 0
M  V30 1285 C 119.496 -0.248612 2.00565 0
M  V30 1286 C 119.817 -1.5083 1.23593 0
M  V30 1287 O 119.087 -1.92858 0.343912 0
M  V30 1288 H 117.667 -0.0948564 0.740953 0
M  V30 1289 H 120.329 0.468341 1.89189 0
M  V30 1290 H 119.425 -0.488994 3.08245 0
M  V30 1291 N 119.726 -1.57421 0.075193 0
M  V30 1292 C 120.972 -1.94716 -0.587998 0
M  V30 1293 C 121.327 -0.955205 -1.67014 0
M  V30 1294 O 120.62 0.0219842 -1.91587 0
M  V30 1295 C 120.814 -3.36428 -1.20626 0
M  V30 1296 C 120.643 -4.49317 -0.185541 0
M  V30 1297 C 119.413 -5.04772 0.23099 0
M  V30 1298 C 121.611 -5.11036 0.57854 0
M  V30 1299 N 119.593 -6.01204 1.24206 0
M  V30 1300 C 120.964 -6.02998 1.44199 0
M  V30 1301 C 123.019 -4.93844 0.634237 0
M  V30 1302 C 121.722 -6.79614 2.3562 0
M  V30 1303 C 123.748 -5.71106 1.53597 0
M  V30 1304 C 123.11 -6.6272 2.38709 0
M  V30 1305 H 119.209 -0.759536 -0.186089 0
M  V30 1306 H 121.793 -1.94097 0.153128 0
M  V30 1307 H 119.964 -3.37778 -1.9173 0
M  V30 1308 H 121.696 -3.60951 -1.8302 0
M  V30 1309 H 118.451 -4.73353 -0.152807 0
M  V30 1310 H 118.875 -6.54119 1.74521 0
M  V30 1311 H 123.517 -4.22799 -0.00960004 0
M  V30 1312 H 121.235 -7.49934 3.01038 0
M  V30 1313 H 124.821 -5.59824 1.58394 0
M  V30 1314 H 123.701 -7.2146 3.07352 0
M  V30 1315 N 121.204 0.198386 -1.56346 0
M  V30 1316 C 122.429 0.939682 -1.84891 0
M  V30 1317 C 122.854 1.76202 -0.658369 0
M  V30 1318 O 122.212 1.76993 0.392851 0
M  V30 1319 C 122.26 1.81428 -3.11635 0
M  V30 1320 O 121.364 2.91265 -2.91956 0
M  V30 1321 H 120.705 0.264807 -0.608912 0
M  V30 1322 H 123.235 0.204695 -2.03573 0
M  V30 1323 H 123.245 2.21958 -3.42343 0
M  V30 1324 H 121.92 1.21004 -3.97908 0
M  V30 1325 H 120.497 2.54514 -2.72538 0
M  V30 1326 N 122.682 1.50554 0.465978 0
M  V30 1327 C 123.612 1.72722 1.57128 0
M  V30 1328 C 124.593 0.576294 1.6004 0
M  V30 1329 O 125.778 0.81598 1.76225 0
M  V30 1330 C 122.908 1.82605 2.95419 0
M  V30 1331 C 121.862 2.97835 3.07373 0
M  V30 1332 C 121.188 2.92867 4.47363 0
M  V30 1333 C 122.488 4.38265 2.84114 0
M  V30 1334 H 124.182 2.65267 1.38829 0
M  V30 1335 H 121.728 1.2765 0.666441 0
M  V30 1336 H 123.681 1.96698 3.72677 0
M  V30 1337 H 122.405 0.866858 3.14886 0
M  V30 1338 H 121.064 2.83401 2.3255 0
M  V30 1339 H 120.712 1.94783 4.63755 0
M  V30 1340 H 120.412 3.70227 4.56296 0
M  V30 1341 H 121.936 3.09015 5.26633 0
M  V30 1342 H 123.35 4.53198 3.51118 0
M  V30 1343 H 121.747 5.17115 3.04487 0
M  V30 1344 H 122.817 4.50281 1.7993 0
M  V30 1345 N 124.16 -0.719506 1.40217 0
M  V30 1346 C 125.09 -1.8465 1.42922 0
M  V30 1347 C 126.071 -1.67599 0.29062 0
M  V30 1348 O 127.256 -1.87688 0.498677 0
M  V30 1349 C 124.386 -3.22565 1.28722 0
M  V30 1350 C 123.34 -3.54281 2.40144 0
M  V30 1351 C 122.666 -4.91298 2.11023 0
M  V30 1352 C 123.966 -3.55676 3.82481 0
M  V30 1353 H 125.66 -1.82644 2.37237 0
M  V30 1354 H 123.206 -0.877305 1.1419 0
M  V30 1355 H 125.159 -4.01095 1.29232 0
M  V30 1356 H 123.883 -3.25137 0.308811 0
M  V30 1357 H 122.542 -2.78088 2.38877 0
M  V30 1358 H 122.19 -4.90468 1.11582 0
M  V30 1359 H 121.89 -5.13485 2.8567 0
M  V30 1360 H 123.414 -5.72166 2.13209 0
M  V30 1361 H 124.828 -4.24254 3.85592 0
M  V30 1362 H 123.225 -3.89388 4.56614 0
M  V30 1363 H 124.295 -2.55144 4.12346 0
M  V30 1364 N 125.638 -1.25649 -0.95132 0
M  V30 1365 C 126.878 -1.11802 -1.71113 0
M  V30 1366 C 127.242 0.334758 -1.89059 0
M  V30 1367 O 128.443 0.595121 -2.62129 0
M  V30 1368 C 126.714 -1.85512 -3.05483 0
M  V30 1369 S 128.273 -1.87597 -3.96677 0
M  V30 1370 H 125.091 -0.399552 -0.588115 0
M  V30 1371 H 127.693 -1.59222 -1.1344 0
M  V30 1372 H 126.397 -2.90299 -2.90094 0
M  V30 1373 H 125.928 -1.38493 -3.68216 0
M  V30 1374 H 127.943 -0.955389 -4.86916 0
M  V30 1375 N 127.117 1.15442 -1.07289 0
M  V30 1376 C 128.064 2.20161 -0.692653 0
M  V30 1377 C 129.034 1.63073 0.31564 0
M  V30 1378 O 130.219 1.89725 0.202235 0
M  V30 1379 C 127.359 3.44967 -0.0959509 0
M  V30 1380 C 126.472 4.16256 -1.15564 0
M  V30 1381 C 125.607 5.28609 -0.524011 0
M  V30 1382 C 124.646 5.91715 -1.56653 0
M  V30 1383 N 123.783 6.9554 -0.957531 0
M  V30 1384 H 128.623 2.52037 -1.59002 0
M  V30 1385 H 126.16 1.2378 -0.794798 0
M  V30 1386 H 128.118 4.16341 0.267628 0
M  V30 1387 H 126.748 3.1361 0.764772 0
M  V30 1388 H 125.8 3.43385 -1.6368 0
M  V30 1389 H 127.112 4.59268 -1.94613 0
M  V30 1390 H 126.266 6.06604 -0.108032 0
M  V30 1391 H 125.005 4.86787 0.29825 0
M  V30 1392 H 124.01 5.12433 -1.9923 0
M  V30 1393 H 125.235 6.35614 -2.39107 0
M  V30 1394 H 123.181 6.55814 -0.156162 0
M  V30 1395 H 123.098 7.36977 -1.68526 0
M  V30 1396 H 124.366 7.77435 -0.567032 0
M  V30 1397 N 128.595 0.856903 1.32268 0
M  V30 1398 C 129.525 0.31858 2.31316 0
M  V30 1399 C 130.506 -0.583487 1.59779 0
M  V30 1400 O 131.691 -0.503259 1.87566 0
M  V30 1401 C 128.821 -0.491979 3.43798 0
M  V30 1402 C 127.775 0.315849 4.26833 0
M  V30 1403 C 127.101 -0.619586 5.31098 0
M  V30 1404 C 128.401 1.54282 4.98993 0
M  V30 1405 H 130.095 1.14621 2.76591 0
M  V30 1406 H 127.641 0.552613 1.32974 0
M  V30 1407 H 129.594 -0.879012 4.1213 0
M  V30 1408 H 128.318 -1.35299 2.97257 0
M  V30 1409 H 126.977 0.684664 3.6015 0
M  V30 1410 H 126.625 -1.47751 4.8081 0
M  V30 1411 H 126.325 -0.0830621 5.87541 0
M  V30 1412 H 127.849 -1.00375 6.02293 0
M  V30 1413 H 129.263 1.22796 5.59995 0
M  V30 1414 H 127.66 2.01745 5.65172 0
M  V30 1415 H 128.73 2.30285 4.26728 0
M  V30 1416 N 130.073 -1.45103 0.615059 0
M  V30 1417 C 131.322 -2.01396 0.110718 0
M  V30 1418 C 131.635 -1.48834 -1.26916 0
M  V30 1419 O 132.841 -1.97152 -1.86664 0
M  V30 1420 C 131.297 -3.59599 0.14723 0
M  V30 1421 C 130.905 -4.21158 1.52743 0
M  V30 1422 C 132.649 -4.23428 -0.30148 0
M  V30 1423 C 130.556 -5.71535 1.51992 0
M  V30 1424 H 129.486 -0.753061 0.0376241 0
M  V30 1425 H 132.137 -1.66494 0.77149 0
M  V30 1426 H 130.519 -3.91724 -0.580339 0
M  V30 1427 H 131.693 -4.00594 2.2773 0
M  V30 1428 H 130.008 -3.69552 1.91886 0
M  V30 1429 H 132.605 -5.33703 -0.326392 0
M  V30 1430 H 132.948 -3.94629 -1.32565 0
M  V30 1431 H 133.481 -3.96047 0.373065 0
M  V30 1432 H 130.22 -6.05044 2.52193 0
M  V30 1433 H 129.74 -5.94268 0.81274 0
M  V30 1434 H 131.419 -6.34873 1.24681 0
M  V30 1435 N 131.551 -0.354651 -1.53558 0
M  V30 1436 C 132.461 0.50515 -2.29097 0
M  V30 1437 C 133.477 1.10223 -1.34636 0
M  V30 1438 O 134.653 1.11553 -1.67684 0
M  V30 1439 C 131.718 1.63479 -3.05738 0
M  V30 1440 C 130.779 1.06636 -4.15845 0
M  V30 1441 C 130.012 2.14217 -4.88822 0
M  V30 1442 O 130.235 3.35137 -4.61562 0
M  V30 1443 O 129.169 1.77887 -5.75013 0
M  V30 1444 H 132.995 -0.109237 -3.03503 0
M  V30 1445 H 130.58 -0.119357 -1.48922 0
M  V30 1446 H 132.462 2.2918 -3.5363 0
M  V30 1447 H 131.137 2.23478 -2.34178 0
M  V30 1448 H 130.044 0.373565 -3.7223 0
M  V30 1449 H 131.377 0.511081 -4.89539 0
M  V30 1450 N 133.029 1.57378 -0.0835403 0
M  V30 1451 C 134.275 1.94217 0.583733 0
M  V30 1452 C 134.608 0.964653 1.68547 0
M  V30 1453 O 133.883 -0.00422258 1.945 0
M  V30 1454 C 134.166 3.41253 1.14972 0
M  V30 1455 C 134.019 4.49768 0.0538277 0
M  V30 1456 C 135.338 3.89352 2.05166 0
M  V30 1457 H 132.457 0.706233 0.210724 0
M  V30 1458 H 135.099 1.89392 -0.1519 0
M  V30 1459 H 133.249 3.45496 1.77665 0
M  V30 1460 H 134.921 4.57641 -0.579851 0
M  V30 1461 H 133.164 4.29432 -0.614068 0
M  V30 1462 H 133.835 5.49817 0.490452 0
M  V30 1463 H 136.311 3.87189 1.52393 0
M  V30 1464 H 135.187 4.92822 2.41698 0
M  V30 1465 H 135.448 3.27973 2.96456 0
M  V30 1466 N 134.507 -0.190092 1.56449 0
M  V30 1467 C 135.747 -0.916414 1.82705 0
M  V30 1468 C 136.111 -1.80235 0.661763 0
M  V30 1469 O 137.312 -2.56484 0.80433 0
M  V30 1470 C 135.583 -1.70691 3.14005 0
M  V30 1471 S 137.142 -2.48457 3.61683 0
M  V30 1472 H 133.96 -0.307281 0.64117 0
M  V30 1473 H 136.562 -0.179433 1.94675 0
M  V30 1474 H 135.266 -1.04677 3.96826 0
M  V30 1475 H 134.797 -2.48562 3.04927 0
M  V30 1476 H 136.812 -3.72756 3.27517 0
M  V30 1477 N 135.985 -1.50799 -0.457987 0
M  V30 1478 C 137.396 -1.55152 -1.0385 0
M  V30 1479 C 137.747 -0.362719 -1.92818 0
M  V30 1480 O 136.872 0.522915 -2.09987 0
M  V30 1481 C 137.467 -2.81173 -1.89017 0
M  V30 1482 C 136.026 -2.88164 -2.42154 0
M  V30 1483 C 135.173 -2.49591 -1.20829 0
M  V30 1484 H 138.124 -1.56874 -0.240068 0
M  V30 1485 H 138.145 -2.63769 -2.74238 0
M  V30 1486 H 137.657 -3.67677 -1.24238 0
M  V30 1487 H 135.758 -2.06042 -3.10447 0
M  V30 1488 H 135.871 -3.91356 -2.76364 0
M  V30 1489 H 134.235 -2.02322 -1.54719 0
M  V30 1490 H 135.018 -3.38418 -0.576927 0
M  V30 1491 N 137.463 0.71206 -1.40597 0
M  V30 1492 C 138.711 1.46907 -1.38791 0
M  V30 1493 C 139.032 1.94998 0.00780391 0
M  V30 1494 O 138.302 1.70587 0.963174 0
M  V30 1495 H 136.882 0.545043 -0.51082 0
M  V30 1496 H 139.544 0.843882 -1.75683 0
M  V30 1497 H 138.64 2.34021 -2.06496 0
M  V30 1498 N 138.941 1.26152 0.944643 0
M  V30 1499 C 140.169 1.14259 1.72489 0
M  V30 1500 C 140.584 -0.302555 1.8636 0
M  V30 1501 O 139.941 -1.20741 1.36849 0
M  V30 1502 C 139.992 1.80266 3.13347 0
M  V30 1503 O 139.713 3.19133 3.00143 0
M  V30 1504 C 141.214 1.74283 4.07603 0
M  V30 1505 H 138.434 0.398051 0.540181 0
M  V30 1506 H 140.978 1.66706 1.18446 0
M  V30 1507 H 139.133 1.31766 3.64303 0
M  V30 1508 H 139.547 3.51744 3.89071 0
M  V30 1509 H 141.021 2.25111 5.04013 0
M  V30 1510 H 141.498 0.708631 4.33446 0
M  V30 1511 H 142.104 2.22319 3.62567 0
M  V30 1512 N 140.419 -1.14872 1.07899 0
M  V30 1513 C 141.352 -2.18794 0.64841 0
M  V30 1514 C 142.33 -1.59065 -0.337189 0
M  V30 1515 O 143.514 -1.86936 -0.242284 0
M  V30 1516 C 140.641 -3.38667 -0.0470417 0
M  V30 1517 C 139.687 -4.16942 0.897884 0
M  V30 1518 S 140.52 -4.78615 2.40183 0
M  V30 1519 C 141.676 -6.0185 1.71834 0
M  V30 1520 H 141.909 -2.5498 1.52881 0
M  V30 1521 H 139.442 -1.25922 0.893484 0
M  V30 1522 H 141.4 -4.08113 -0.442027 0
M  V30 1523 H 140.061 -3.00814 -0.903861 0
M  V30 1524 H 139.254 -5.02726 0.358096 0
M  V30 1525 H 138.856 -3.53073 1.23352 0
M  V30 1526 H 141.148 -6.69574 1.03328 0
M  V30 1527 H 142.091 -6.60408 2.55473 0
M  V30 1528 H 142.499 -5.5173 1.19392 0
M  V30 1529 N 141.898 -0.863906 -1.31812 0
M  V30 1530 C 142.83 -0.272485 -2.27575 0
M  V30 1531 C 143.843 0.56104 -1.52827 0
M  V30 1532 O 145.032 0.384021 -1.7432 0
M  V30 1533 C 142.132 0.63283 -3.32939 0
M  V30 1534 C 141.305 -0.166902 -4.37081 0
M  V30 1535 C 140.364 0.665608 -5.21973 0
M  V30 1536 O 139.39 0.0958091 -5.69119 0
M  V30 1537 N 140.592 1.9787 -5.45736 0
M  V30 1538 H 143.357 -1.0954 -2.78964 0
M  V30 1539 H 140.918 -0.724791 -1.4477 0
M  V30 1540 H 142.91 1.19532 -3.86645 0
M  V30 1541 H 141.48 1.35642 -2.81638 0
M  V30 1542 H 140.7 -0.910838 -3.83533 0
M  V30 1543 H 141.988 -0.715874 -5.03739 0
M  V30 1544 H 141.386 2.46484 -5.09178 0
M  V30 1545 H 139.943 2.48911 -6.024 0
M  V30 1546 N 143.376 1.44774 -0.622745 0
M  V30 1547 C 144.601 2.06999 -0.128968 0
M  V30 1548 C 145.026 1.4617 1.1839 0
M  V30 1549 O 144.384 0.560007 1.72434 0
M  V30 1550 C 144.432 3.60595 -0.0188351 0
M  V30 1551 O 143.536 3.99398 1.02739 0
M  V30 1552 H 142.877 0.659047 -0.0809544 0
M  V30 1553 H 145.407 1.85784 -0.85705 0
M  V30 1554 H 145.417 4.07627 0.174476 0
M  V30 1555 H 144.092 4.04252 -0.977384 0
M  V30 1556 H 142.669 3.64011 0.809326 0
M  V30 1557 N 144.854 0.36279 1.53368 0
M  V30 1558 C 145.784 -0.476976 2.28576 0
M  V30 1559 C 146.765 -1.08631 1.30894 0
M  V30 1560 O 147.95 -1.10409 1.59761 0
M  V30 1561 C 145.08 -1.61828 3.07293 0
M  V30 1562 C 144.034 -1.13633 4.1264 0
M  V30 1563 C 143.36 -2.36766 4.79423 0
M  V30 1564 C 144.66 -0.223061 5.21823 0
M  V30 1565 H 146.354 0.150474 2.99022 0
M  V30 1566 H 143.9 0.0738103 1.43811 0
M  V30 1567 H 145.853 -2.21237 3.58653 0
M  V30 1568 H 144.577 -2.27292 2.34533 0
M  V30 1569 H 143.236 -0.564945 3.62221 0
M  V30 1570 H 142.884 -3.0068 4.03238 0
M  V30 1571 H 142.584 -2.05192 5.50609 0
M  V30 1572 H 144.108 -2.96865 5.33576 0
M  V30 1573 H 145.522 -0.724545 5.68703 0
M  V30 1574 H 143.919 0.001678 6.001 0
M  V30 1575 H 144.989 0.735553 4.79289 0
M  V30 1576 N 146.332 -1.57332 0.0918853 0
M  V30 1577 C 147.265 -2.09499 -0.904735 0
M  V30 1578 C 148.243 -1.00479 -1.27839 0
M  V30 1579 O 149.427 -1.27954 -1.38419 0
M  V30 1580 C 146.554 -2.56931 -2.2069 0
M  V30 1581 C 145.6 -3.77579 -1.98334 0
M  V30 1582 S 146.433 -5.21317 -1.22428 0
M  V30 1583 C 147.589 -5.72097 -2.53882 0
M  V30 1584 H 147.822 -2.93705 -0.460922 0
M  V30 1585 H 145.355 -1.53923 -0.121332 0
M  V30 1586 H 147.313 -2.84917 -2.95521 0
M  V30 1587 H 145.974 -1.72956 -2.62192 0
M  V30 1588 H 145.167 -4.08824 -2.94752 0
M  V30 1589 H 144.769 -3.5007 -1.31633 0
M  V30 1590 H 147.061 -5.80168 -3.49874 0
M  V30 1591 H 148.004 -6.70654 -2.27219 0
M  V30 1592 H 148.412 -5.00012 -2.62007 0
M  V30 1593 N 147.81 0.181792 -1.56548 0
M  V30 1594 C 149.058 0.89832 -1.81038 0
M  V30 1595 C 149.379 1.83232 -0.667164 0
M  V30 1596 O 148.649 1.93372 0.313673 0
M  V30 1597 H 147.229 0.33471 -0.667816 0
M  V30 1598 H 149.891 0.184116 -1.94028 0
M  V30 1599 H 148.987 1.4815 -2.74696 0
M  V30 1600 N 149.288 1.51039 0.449983 0
M  V30 1601 C 150.699 1.557 1.03026 0
M  V30 1602 C 151.05 0.372939 1.92623 0
M  V30 1603 O 150.175 -0.511771 2.10261 0
M  V30 1604 C 150.77 2.82171 1.87523 0
M  V30 1605 C 149.329 2.89444 2.40622 0
M  V30 1606 C 148.476 2.50228 1.19504 0
M  V30 1607 H 151.427 1.56999 0.231745 0
M  V30 1608 H 151.448 2.65219 2.72835 0
M  V30 1609 H 150.96 3.68331 1.22286 0
M  V30 1610 H 149.061 2.07685 3.0935 0
M  V30 1611 H 149.174 3.92816 2.74285 0
M  V30 1612 H 147.538 2.03139 1.53644 0
M  V30 1613 H 148.321 3.38719 0.558972 0
M  V30 1614 N 150.766 -0.704594 1.40972 0
M  V30 1615 C 151.698 -1.82974 1.38033 0
M  V30 1616 C 152.711 -1.60305 0.283931 0
M  V30 1617 O 153.9 -1.69975 0.545042 0
M  V30 1618 C 151 -3.19578 1.12795 0
M  V30 1619 C 150.173 -3.69352 2.34302 0
M  V30 1620 C 149.232 -4.84601 2.05058 0
M  V30 1621 O 148.258 -4.96682 2.7802 0
M  V30 1622 N 149.46 -5.71194 1.03528 0
M  V30 1623 H 152.225 -1.85991 2.35005 0
M  V30 1624 H 149.786 -0.886567 1.35468 0
M  V30 1625 H 151.778 -3.9429 0.911987 0
M  V30 1626 H 150.348 -3.11642 0.24452 0
M  V30 1627 H 149.568 -2.85649 2.71659 0
M  V30 1628 H 150.856 -3.99345 3.1528 0
M  V30 1629 H 150.254 -5.64054 0.431217 0
M  V30 1630 H 148.811 -6.45843 0.879205 0
M  V30 1631 N 152.244 -1.26651 -0.937939 0
M  V30 1632 C 153.521 -1.0313 -1.66204 0
M  V30 1633 C 153.901 0.437256 -2.06522 0
M  V30 1634 O 153.249 1.41831 -1.79154 0
M  V30 1635 C 153.459 -1.98314 -2.87181 0
M  V30 1636 C 154.807 -2.27107 -3.58758 0
M  V30 1637 O 155.831 -1.96205 -2.97291 0
M  V30 1638 O 154.69 -2.79736 -4.69479 0
M  V30 1639 H 151.784 -0.392384 -0.727986 0
M  V30 1640 H 154.33 -1.37874 -0.989382 0
M  V30 1641 H 153.102 -2.97399 -2.54302 0
M  V30 1642 H 152.725 -1.64068 -3.6217 0
M  V30 1643 N 153.722 1.14298 -1.08507 0
M  V30 1644 C 154.968 1.85633 -0.816581 0
M  V30 1645 C 155.301 1.82784 0.656021 0
M  V30 1646 O 154.576 1.25926 1.48233 0
M  V30 1647 C 154.859 3.34223 -1.34041 0
M  V30 1648 C 154.712 3.45639 -2.87843 0
M  V30 1649 C 156.031 4.29356 -0.9665 0
M  V30 1650 H 153.15 0.67402 -0.298104 0
M  V30 1651 H 155.792 1.34214 -1.34487 0
M  V30 1652 H 153.942 3.78144 -0.89104 0
M  V30 1653 H 155.614 3.10498 -3.41158 0
M  V30 1654 H 153.857 2.86817 -3.25451 0
M  V30 1655 H 154.528 4.50089 -3.19569 0
M  V30 1656 H 157.004 3.93457 -1.35391 0
M  V30 1657 H 155.88 5.3178 -1.3602 0
M  V30 1658 H 156.141 4.41919 0.126362 0
M  V30 1659 N 155.201 0.870884 1.31352 0
M  V30 1660 C 156.449 0.48132 1.96285 0
M  V30 1661 C 156.77 -0.969813 1.69173 0
M  V30 1662 O 156.04 -1.67998 1.00764 0
M  V30 1663 H 154.62 0.175002 0.726212 0
M  V30 1664 H 157.282 1.11087 1.60143 0
M  V30 1665 H 156.378 0.639825 3.05471 0
M  V30 1666 N 156.679 -1.44442 0.630414 0
M  V30 1667 C 157.627 -2.32437 -0.0871428 0
M  V30 1668 C 158.621 -1.47304 -0.836525 0
M  V30 1669 O 159.827 -1.63653 -0.749506 0
M  V30 1670 H 156.202 -0.750533 -0.0469495 0
M  V30 1671 H 158.173 -2.90709 0.673096 0
M  V30 1672 C 156.922 -3.31288 -1.05563 0
M  V30 1673 H 156.245 -3.96805 -0.488426 0
M  V30 1674 H 157.685 -3.9554 -1.52721 0
M  V30 1675 C 156.144 -2.6016 -2.14052 0
M  V30 1676 O 156.674 -2.39997 -3.22124 0
M  V30 1677 N 154.88 -2.19911 -1.89967 0
M  V30 1678 H 154.427 -2.36509 -1.02085 0
M  V30 1679 H 154.385 -1.72646 -2.62756 0
M  V30 1680 N 158.157 -0.370918 -1.53173 0
M  V30 1681 C 159.434 0.273754 -1.93675 0
M  V30 1682 C 159.814 1.65938 -1.3049 0
M  V30 1683 O 159.162 2.23698 -0.465999 0
M  V30 1684 C 159.372 0.318602 -3.47543 0
M  V30 1685 C 160.72 0.556392 -4.20939 0
M  V30 1686 O 161.744 0.399587 -3.53952 0
M  V30 1687 O 160.603 0.862133 -5.39657 0
M  V30 1688 H 157.697 0.165448 -0.810281 0
M  V30 1689 H 160.243 -0.42409 -1.64315 0
M  V30 1690 H 159.015 -0.652687 -3.85818 0
M  V30 1691 H 158.638 1.06212 -3.83151 0
M  V30 1692 N 159.635 1.57281 -0.100228 0
M  V30 1693 C 160.881 1.95626 0.556946 0
M  V30 1694 C 161.236 0.981655 1.65473 0
M  V30 1695 O 160.529 0.00849847 1.91598 0
M  V30 1696 C 160.723 3.38305 1.15259 0
M  V30 1697 C 160.552 4.49555 0.114035 0
M  V30 1698 C 159.322 5.0434 -0.311266 0
M  V30 1699 C 161.52 5.10051 -0.659768 0
M  V30 1700 N 159.502 5.99152 -1.33755 0
M  V30 1701 C 160.873 6.00628 -1.53774 0
M  V30 1702 C 162.928 4.92772 -0.712723 0
M  V30 1703 C 161.631 6.7578 -2.46403 0
M  V30 1704 C 163.657 5.6859 -1.62663 0
M  V30 1705 C 163.019 6.58838 -2.49222 0
M  V30 1706 H 159.118 0.7624 0.173982 0
M  V30 1707 H 161.702 1.93829 -0.183988 0
M  V30 1708 H 159.873 3.40786 1.86332 0
M  V30 1709 H 161.605 3.63817 1.77254 0
M  V30 1710 H 158.36 4.73537 0.0774812 0
M  V30 1711 H 158.784 6.5126 -1.84905 0
M  V30 1712 H 163.426 4.22761 -0.0576648 0
M  V30 1713 H 161.144 7.4505 -3.12931 0
M  V30 1714 H 164.73 5.57233 -1.67281 0
M  V30 1715 H 163.61 7.16479 -3.18791 0
M  V30 1716 N 161.113 -0.173488 1.56642 0
M  V30 1717 C 162.023 -1.23482 1.99473 0
M  V30 1718 C 163.039 -1.48567 0.905752 0
M  V30 1719 O 164.215 -1.60758 1.21321 0
M  V30 1720 C 161.28 -2.55444 2.34413 0
M  V30 1721 C 160.341 -2.38241 3.57127 0
M  V30 1722 C 159.574 -3.63909 3.90392 0
M  V30 1723 O 159.797 -4.68996 3.24653 0
M  V30 1724 O 158.731 -3.58149 4.83749 0
M  V30 1725 H 162.557 -0.901279 2.90018 0
M  V30 1726 H 160.142 -0.380185 1.44482 0
M  V30 1727 H 162.024 -3.33292 2.57865 0
M  V30 1728 H 160.699 -2.88382 1.4703 0
M  V30 1729 H 159.606 -1.58431 3.38896 0
M  V30 1730 H 160.939 -2.10228 4.45045 0
M  V30 1731 N 162.591 -1.51276 -0.441967 0
M  V30 1732 C 163.837 -1.63958 -1.19355 0
M  V30 1733 C 164.17 -0.352543 -1.90973 0
M  V30 1734 O 163.445 0.647627 -1.83401 0
M  V30 1735 C 163.728 -2.83979 -2.21422 0
M  V30 1736 C 163.581 -4.22646 -1.53918 0
M  V30 1737 C 164.9 -2.99521 -3.22451 0
M  V30 1738 H 162.019 -0.596709 -0.432559 0
M  V30 1739 H 164.661 -1.83748 -0.483398 0
M  V30 1740 H 162.811 -2.67237 -2.81987 0
M  V30 1741 H 164.483 -4.51045 -0.967256 0
M  V30 1742 H 162.726 -4.25558 -0.841615 0
M  V30 1743 H 163.397 -5.02609 -2.28229 0
M  V30 1744 H 165.873 -3.14944 -2.71937 0
M  V30 1745 H 164.749 -3.85072 -3.91166 0
M  V30 1746 H 165.01 -2.11391 -3.88287 0
M  V30 1747 N 164.069 0.697108 -1.41344 0
M  V30 1748 C 164.999 1.82353 -1.45841 0
M  V30 1749 C 165.98 1.67115 -0.317247 0
M  V30 1750 O 167.165 1.86871 -0.528474 0
M  V30 1751 C 164.295 3.20476 -1.33838 0
M  V30 1752 C 163.249 3.50415 -2.4575 0
M  V30 1753 C 162.575 4.87878 -2.18813 0
M  V30 1754 C 163.875 3.49546 -3.88091 0
M  V30 1755 H 165.569 1.78846 -2.40113 0
M  V30 1756 H 163.115 0.859028 -1.15571 0
M  V30 1757 H 165.068 3.98988 -1.35596 0
M  V30 1758 H 163.792 3.24604 -0.360498 0
M  V30 1759 H 162.451 2.74253 -2.43271 0
M  V30 1760 H 162.099 4.8863 -1.19371 0
M  V30 1761 H 161.799 5.08875 -2.93803 0
M  V30 1762 H 163.323 5.68702 -2.22284 0
M  V30 1763 H 164.737 4.18066 -3.92293 0
M  V30 1764 H 163.134 3.82075 -4.62751 0
M  V30 1765 H 164.204 2.48552 -4.16353 0
M  V30 1766 N 165.547 1.27147 0.931209 0
M  V30 1767 C 166.795 1.13055 1.6752 0
M  V30 1768 C 167.116 -0.324791 1.92276 0
M  V30 1769 O 166.386 -1.22775 1.52654 0
M  V30 1770 H 164.966 0.415391 0.620854 0
M  V30 1771 H 167.628 1.59623 1.11833 0
M  V30 1772 H 166.724 1.65694 2.64485 0
M  V30 1773 N 167.025 -1.13721 1.09112 0
M  V30 1774 C 168.271 -1.85198 0.826414 0
M  V30 1775 C 168.604 -1.83129 -0.646319 0
M  V30 1776 O 167.879 -1.2671 -1.47563 0
M  V30 1777 C 168.162 -3.33507 1.35812 0
M  V30 1778 C 168.015 -3.44108 2.89672 0
M  V30 1779 C 169.334 -4.28838 0.989256 0
M  V30 1780 H 166.453 -0.67243 0.301675 0
M  V30 1781 H 169.095 -1.33499 1.35197 0
M  V30 1782 H 167.245 -3.77666 0.911082 0
M  V30 1783 H 168.917 -3.08684 3.428 0
M  V30 1784 H 167.16 -2.85087 3.26967 0
M  V30 1785 H 167.831 -4.48388 3.21951 0
M  V30 1786 H 170.307 -3.92734 1.37475 0
M  V30 1787 H 169.183 -5.31051 1.38838 0
M  V30 1788 H 169.444 -4.4198 -0.102924 0
M  V30 1789 N 168.503 -0.877838 -1.30888 0
M  V30 1790 C 169.453 -0.310872 -2.25871 0
M  V30 1791 C 170.437 0.556596 -1.50966 0
M  V30 1792 O 171.629 0.402187 -1.7237 0
M  V30 1793 C 168.758 0.479821 -3.3993 0
M  V30 1794 C 167.844 -0.401333 -4.22197 0
M  V30 1795 N 168.235 -1.49848 -4.83093 0
M  V30 1796 C 166.533 -0.195167 -4.45573 0
M  V30 1797 C 167.234 -2.0425 -5.44662 0
M  V30 1798 N 166.21 -1.33843 -5.26865 0
M  V30 1799 H 170.012 -1.1493 -2.70496 0
M  V30 1800 H 167.526 -0.726458 -1.45246 0
M  V30 1801 H 169.523 0.902582 -4.07012 0
M  V30 1802 H 168.183 1.31577 -2.96846 0
M  V30 1803 H 169.194 -1.88137 -4.82519 0
M  V30 1804 H 165.871 0.604192 -4.13105 0
M  V30 1805 H 167.261 -2.96345 -6.03017 0
M  V30 1806 N 169.982 1.44106 -0.638065 0
M  V30 1807 C 170.914 2.28976 0.101205 0
M  V30 1808 C 171.927 1.4167 0.802088 0
M  V30 1809 O 173.116 1.65755 0.662375 0
M  V30 1810 C 170.216 3.18217 1.16581 0
M  V30 1811 C 169.389 4.33978 0.546066 0
M  V30 1812 C 168.448 5.04202 1.50554 0
M  V30 1813 O 167.474 5.59986 1.01999 0
M  V30 1814 N 168.676 5.06296 2.8398 0
M  V30 1815 H 171.441 2.93064 -0.627186 0
M  V30 1816 H 169.002 1.54629 -0.479731 0
M  V30 1817 H 170.994 3.62061 1.80815 0
M  V30 1818 H 169.564 2.55833 1.79634 0
M  V30 1819 H 168.784 3.93239 -0.275046 0
M  V30 1820 H 170.072 5.08675 0.112793 0
M  V30 1821 H 169.47 4.62319 3.26002 0
M  V30 1822 H 168.027 5.53907 3.43556 0
M  V30 1823 N 171.46 0.379036 1.52974 0
M  V30 1824 C 172.39 -0.452706 2.29069 0
M  V30 1825 C 173.371 -1.07237 1.32039 0
M  V30 1826 O 174.556 -1.08708 1.60923 0
M  V30 1827 C 171.686 -1.5856 3.08992 0
M  V30 1828 C 170.64 -1.0925 4.13822 0
M  V30 1829 C 169.966 -2.31668 4.81907 0
M  V30 1830 C 171.266 -0.167702 5.22031 0
M  V30 1831 H 172.96 0.182181 2.98845 0
M  V30 1832 H 170.506 0.0890592 1.43724 0
M  V30 1833 H 172.459 -2.1742 3.6098 0
M  V30 1834 H 171.183 -2.24792 2.36931 0
M  V30 1835 H 169.842 -0.526494 3.628 0
M  V30 1836 H 169.49 -2.96386 4.06404 0
M  V30 1837 H 169.19 -1.9934 5.52754 0
M  V30 1838 H 170.714 -2.91189 5.36695 0
M  V30 1839 H 172.128 -0.664186 5.6944 0
M  V30 1840 H 170.525 0.0653265 6.00064 0
M  V30 1841 H 171.595 0.786347 4.78482 0
M  V30 1842 N 172.938 -1.57226 0.108567 0
M  V30 1843 C 174.187 -1.94008 -0.551703 0
M  V30 1844 C 174.5 -0.993442 -1.68494 0
M  V30 1845 O 175.706 -1.25551 -2.40726 0
M  V30 1846 C 174.162 -3.44763 -1.03279 0
M  V30 1847 C 173.77 -4.47943 0.0714193 0
M  V30 1848 C 175.514 -3.90483 -1.66503 0
M  V30 1849 C 173.421 -5.89865 -0.425779 0
M  V30 1850 H 172.351 -0.724206 -0.209863 0
M  V30 1851 H 175.002 -1.82547 0.186741 0
M  V30 1852 H 173.384 -3.51422 -1.82533 0
M  V30 1853 H 174.558 -4.52942 0.847365 0
M  V30 1854 H 172.873 -4.11913 0.609669 0
M  V30 1855 H 175.47 -4.93925 -2.04798 0
M  V30 1856 H 175.813 -3.29877 -2.53942 0
M  V30 1857 H 176.346 -3.86581 -0.938074 0
M  V30 1858 H 173.085 -6.54202 0.412316 0
M  V30 1859 H 172.605 -5.88309 -1.16843 0
M  V30 1860 H 174.284 -6.40844 -0.890397 0
M  V30 1861 N 174.416 0.165178 -1.56732 0
M  V30 1862 C 175.346 1.20651 -1.99914 0
M  V30 1863 C 176.327 1.45827 -0.875705 0
M  V30 1864 O 177.512 1.57057 -1.14223 0
M  V30 1865 C 174.642 2.54401 -2.36427 0
M  V30 1866 C 173.596 2.43782 -3.51787 0
M  V30 1867 C 172.922 3.82078 -3.7406 0
M  V30 1868 C 174.222 1.93732 -4.85041 0
M  V30 1869 H 175.916 0.847534 -2.87154 0
M  V30 1870 H 173.462 0.40625 -1.38151 0
M  V30 1871 H 175.415 3.27458 -2.65234 0
M  V30 1872 H 174.139 2.92098 -1.46103 0
M  V30 1873 H 172.798 1.73178 -3.23117 0
M  V30 1874 H 172.446 4.17179 -2.81017 0
M  V30 1875 H 172.146 3.7584 -4.51684 0
M  V30 1876 H 173.67 4.56712 -4.05274 0
M  V30 1877 H 175.084 2.56569 -5.12684 0
M  V30 1878 H 173.481 1.98428 -5.66345 0
M  V30 1879 H 174.551 0.891962 -4.76626 0
M  V30 1880 N 175.894 1.51508 0.433938 0
M  V30 1881 C 176.841 1.73068 1.52696 0
M  V30 1882 C 177.811 0.572441 1.55924 0
M  V30 1883 O 178.996 0.807253 1.72882 0
M  V30 1884 C 176.136 1.86474 2.90381 0
M  V30 1885 C 175.249 3.14037 2.96656 0
M  V30 1886 C 174.384 3.18019 4.25485 0
M  V30 1887 C 173.423 4.39882 4.2564 0
M  V30 1888 N 172.56 4.41394 5.45999 0
M  V30 1889 H 177.4 2.66366 1.33615 0
M  V30 1890 H 174.937 1.32008 0.649018 0
M  V30 1891 H 176.895 1.92229 3.70275 0
M  V30 1892 H 175.525 0.965809 3.08013 0
M  V30 1893 H 174.577 3.17575 2.09404 0
M  V30 1894 H 175.889 4.0394 2.92633 0
M  V30 1895 H 175.043 3.22708 5.13755 0
M  V30 1896 H 173.782 2.2601 4.3217 0
M  V30 1897 H 172.787 4.35366 3.35763 0
M  V30 1898 H 174.012 5.33159 4.20617 0
M  V30 1899 H 171.958 3.52258 5.53399 0
M  V30 1900 H 171.875 5.25111 5.4387 0
M  V30 1901 H 173.143 4.50281 6.36292 0
M  V30 1902 N 177.372 -0.689602 1.41712 0
M  V30 1903 C 178.305 -1.81403 1.3845 0
M  V30 1904 C 179.283 -1.60653 0.250874 0
M  V30 1905 O 180.467 -1.83323 0.43874 0
M  V30 1906 C 177.594 -3.18176 1.1611 0
M  V30 1907 C 176.64 -3.57705 2.3227 0
M  V30 1908 S 177.473 -3.61827 3.94767 0
M  V30 1909 C 178.629 -5.01318 3.74742 0
M  V30 1910 H 178.862 -1.83893 2.33603 0
M  V30 1911 H 176.395 -0.858878 1.28307 0
M  V30 1912 H 178.353 -3.97132 1.03907 0
M  V30 1913 H 177.014 -3.13288 0.225668 0
M  V30 1914 H 176.207 -4.57082 2.12349 0
M  V30 1915 H 175.809 -2.86073 2.40911 0
M  V30 1916 H 178.101 -5.88986 3.34817 0
M  V30 1917 H 179.044 -5.26283 4.73743 0
M  V30 1918 H 179.452 -4.73138 3.07898 0
M  V30 1919 N 178.85 -1.27639 -0.924453 0
M  V30 1920 C 179.78 -1.13166 -2.04244 0
M  V30 1921 C 180.761 -0.032256 -1.70069 0
M  V30 1922 O 181.946 -0.207328 -1.9309 0
M  V30 1923 C 179.076 -0.781496 -3.38393 0
M  V30 1924 C 178.03 -1.83449 -3.86692 0
M  V30 1925 C 177.356 -1.33822 -5.17683 0
M  V30 1926 C 178.656 -3.23917 -4.09726 0
M  V30 1927 H 180.35 -2.06689 -2.1661 0
M  V30 1928 H 177.896 -0.995136 -1.04082 0
M  V30 1929 H 179.849 -0.667057 -4.16087 0
M  V30 1930 H 178.573 0.189439 -3.2605 0
M  V30 1931 H 177.232 -1.93789 -3.11193 0
M  V30 1932 H 176.88 -0.35665 -5.01734 0
M  V30 1933 H 176.58 -2.04224 -5.50968 0
M  V30 1934 H 178.104 -1.23679 -5.97943 0
M  V30 1935 H 179.518 -3.16559 -4.77978 0
M  V30 1936 H 177.915 -3.92059 -4.54324 0
M  V30 1937 H 178.985 -3.68729 -3.14908 0
M  V30 1938 N 180.328 1.1314 -1.09713 0
M  V30 1939 C 181.556 1.88321 -0.856898 0
M  V30 1940 C 181.971 1.79276 0.592073 0
M  V30 1941 O 181.328 1.16142 1.40774 0
M  V30 1942 C 181.379 3.37812 -1.28706 0
M  V30 1943 O 181.1 3.46627 -2.67921 0
M  V30 1944 C 182.601 4.29952 -1.07964 0
M  V30 1945 H 179.821 0.596094 -0.308079 0
M  V30 1946 H 182.365 1.43205 -1.45988 0
M  V30 1947 H 180.52 3.805 -0.727912 0
M  V30 1948 H 180.934 4.39579 -2.8613 0
M  V30 1949 H 182.408 5.33159 -1.42986 0
M  V30 1950 H 182.885 4.39196 -0.0176577 0
M  V30 1951 H 183.491 3.93036 -1.62489 0
M  V30 1952 N 181.806 0.884767 1.30421 0
M  V30 1953 C 183.052 0.503851 1.96441 0
M  V30 1954 C 183.385 -0.944518 1.69684 0
M  V30 1955 O 182.66 -1.66737 1.00145 0
M  V30 1956 C 182.943 0.779085 3.51571 0
M  V30 1957 C 182.796 2.27807 3.87846 0
M  V30 1958 C 184.115 0.255452 4.39358 0
M  V30 1959 H 181.234 0.184533 0.713524 0
M  V30 1960 H 183.876 1.10872 1.54297 0
M  V30 1961 H 182.026 0.264274 3.876 0
M  V30 1962 H 183.698 2.86127 3.61841 0
M  V30 1963 H 181.941 2.74479 3.35922 0
M  V30 1964 H 182.612 2.42125 4.96064 0
M  V30 1965 H 185.088 0.696079 4.10236 0
M  V30 1966 H 183.964 0.477361 5.4682 0
M  V30 1967 H 184.225 -0.843293 4.33983 0
M  V30 1968 N 183.284 -1.43765 0.645699 0
M  V30 1969 C 184.234 -2.27884 -0.0726442 0
M  V30 1970 C 185.218 -1.39483 -0.802086 0
M  V30 1971 O 186.41 -1.63174 -0.685791 0
M  V30 1972 C 183.539 -3.27055 -1.04356 0
M  V30 1973 C 182.625 -4.22944 -0.312985 0
M  V30 1974 N 183.016 -5.01391 0.666386 0
M  V30 1975 C 181.314 -4.42528 -0.55546 0
M  V30 1976 C 182.015 -5.71217 1.09935 0
M  V30 1977 N 180.991 -5.41856 0.435137 0
M  V30 1978 H 184.793 -2.85949 0.678988 0
M  V30 1979 H 182.307 -1.55378 0.472368 0
M  V30 1980 H 184.304 -3.86089 -1.57292 0
M  V30 1981 H 182.964 -2.70551 -1.79534 0
M  V30 1982 H 183.975 -5.07252 1.04481 0
M  V30 1983 H 180.652 -3.97104 -1.28899 0
M  V30 1984 H 182.042 -6.44202 1.90929 0
M  V30 1985 N 184.763 -0.387143 -1.52771 0
M  V30 1986 C 185.711 0.463953 -2.27926 0
M  V30 1987 C 186.705 1.06493 -1.31741 0
M  V30 1988 O 187.911 1.00565 -1.49287 0
M  V30 1989 H 184.286 0.16837 -0.732909 0
M  V30 1990 H 186.257 -0.19141 -2.97785 0
M  V30 1991 C 185.006 1.5803 -3.09713 0
M  V30 1992 H 184.329 1.12718 -3.83581 0
M  V30 1993 H 185.769 2.15008 -3.65442 0
M  V30 1994 C 184.228 2.53509 -2.2189 0
M  V30 1995 O 184.758 3.56863 -1.84422 0
M  V30 1996 N 182.964 2.23199 -1.86093 0
M  V30 1997 H 182.511 1.39185 -2.16761 0
M  V30 1998 H 182.469 2.87333 -1.27621 0
M  V30 1999 N 186.241 1.57166 -0.116904 0
M  V30 2000 C 187.204 2.14039 0.819742 0
M  V30 2001 C 188.204 1.07477 1.19605 0
M  V30 2002 O 189.394 1.33263 1.1219 0
M  V30 2003 C 186.526 2.67891 2.10826 0
M  V30 2004 H 187.719 2.98128 0.325511 0
M  V30 2005 H 185.272 1.55739 0.132312 0
M  V30 2006 H 186.007 1.87384 2.64685 0
M  V30 2007 H 185.792 3.45823 1.84793 0
M  V30 2008 H 187.282 3.11809 2.77785 0
M  V30 2009 N 187.719 -0.156864 1.56817 0
M  V30 2010 C 188.944 -0.890331 1.87318 0
M  V30 2011 C 189.369 -1.74394 0.704855 0
M  V30 2012 O 188.727 -1.77972 -0.345786 0
M  V30 2013 C 188.775 -1.73102 3.16336 0
M  V30 2014 O 187.879 -2.83422 2.99576 0
M  V30 2015 H 187.22 -0.24857 0.615718 0
M  V30 2016 H 189.75 -0.150649 2.04045 0
M  V30 2017 H 189.76 -2.12803 3.48107 0
M  V30 2018 H 188.435 -1.10412 4.00976 0
M  V30 2019 H 187.012 -2.47199 2.7919 0
M  V30 2020 N 189.197 -1.51736 -0.425897 0
M  V30 2021 C 190.443 -1.65214 -1.1761 0
M  V30 2022 C 190.776 -0.372778 -1.90589 0
M  V30 2023 O 190.051 0.628139 -1.84078 0
M  V30 2024 C 190.334 -2.86312 -2.18398 0
M  V30 2025 C 190.187 -4.24254 -1.49426 0
M  V30 2026 C 191.506 -3.02925 -3.19256 0
M  V30 2027 H 188.625 -0.601263 -0.426206 0
M  V30 2028 H 191.267 -1.8425 -0.463882 0
M  V30 2029 H 189.417 -2.70213 -2.79137 0
M  V30 2030 H 191.089 -4.52046 -0.919362 0
M  V30 2031 H 189.332 -4.26426 -0.796432 0
M  V30 2032 H 190.003 -5.05001 -2.22885 0
M  V30 2033 H 192.479 -3.1781 -2.68581 0
M  V30 2034 H 191.355 -3.89199 -3.8706 0
M  V30 2035 H 191.616 -2.15497 -3.86023 0
M  V30 2036 N 190.675 0.682077 -1.42076 0
M  V30 2037 C 191.623 1.81707 -1.45208 0
M  V30 2038 C 192.617 1.66183 -0.328591 0
M  V30 2039 O 193.823 1.7288 -0.501264 0
M  V30 2040 H 190.198 0.599014 -0.454628 0
M  V30 2041 H 192.169 1.76183 -2.40836 0
M  V30 2042 C 190.918 3.19816 -1.36428 0
M  V30 2043 H 190.241 3.32385 -2.22171 0
M  V30 2044 H 191.681 3.99272 -1.42681 0
M  V30 2045 C 190.14 3.36809 -0.078191 0
M  V30 2046 O 190.67 3.92124 0.87188 0
M  V30 2047 N 188.876 2.906 0.00229266 0
M  V30 2048 H 188.423 2.45772 -0.771616 0
M  V30 2049 H 188.381 3.02347 0.862179 0
M  V30 2050 N 192.153 1.28127 0.917671 0
M  V30 2051 C 193.083 1.14248 2.03641 0
M  V30 2052 C 194.064 0.0412748 1.7005 0
M  V30 2053 O 195.249 0.217566 1.92977 0
M  V30 2054 C 192.379 0.799431 3.37974 0
M  V30 2055 C 191.333 1.85497 3.85713 0
M  V30 2056 C 190.659 1.36565 5.16966 0
M  V30 2057 C 191.959 3.26085 4.08002 0
M  V30 2058 H 193.653 2.07835 2.15511 0
M  V30 2059 H 191.199 1.00064 1.03553 0
M  V30 2060 H 193.152 0.689114 4.15727 0
M  V30 2061 H 191.876 -0.172145 3.26146 0
M  V30 2062 H 190.535 1.95437 3.10161 0
M  V30 2063 H 190.183 0.383253 5.01538 0
M  V30 2064 H 189.883 2.07143 5.49878 0
M  V30 2065 H 191.407 1.26848 5.97279 0
M  V30 2066 H 192.821 3.19089 4.76293 0
M  V30 2067 H 191.218 3.94462 4.52238 0
M  V30 2068 H 192.288 3.70394 3.12948 0
M  V30 2069 N 193.631 -1.12557 1.10312 0
M  V30 2070 C 194.856 -1.88405 0.867085 0
M  V30 2071 C 195.281 -1.79038 -0.576817 0
M  V30 2072 O 194.639 -1.14439 -1.40618 0
M  V30 2073 C 194.687 -3.3563 1.31851 0
M  V30 2074 O 193.791 -4.09565 0.482734 0
M  V30 2075 H 193.132 -0.585455 0.313271 0
M  V30 2076 H 195.662 -1.42352 1.4696 0
M  V30 2077 H 195.672 -3.86469 1.3079 0
M  V30 2078 H 194.347 -3.41765 2.37001 0
M  V30 2079 H 192.924 -3.68695 0.558448 0
M  V30 2080 N 195.109 -0.891671 -1.2995 0
M  V30 2081 C 196.355 -0.514261 -1.96171 0
M  V30 2082 C 196.688 0.935506 -1.70182 0
M  V30 2083 O 195.963 1.66204 -1.01028 0
M  V30 2084 C 196.246 -0.797719 -3.51153 0
M  V30 2085 C 196.099 -2.2986 -3.86632 0
M  V30 2086 C 197.418 -0.278749 -4.39216 0
M  V30 2087 H 194.537 -0.188314 -0.712535 0
M  V30 2088 H 197.179 -1.11689 -1.53706 0
M  V30 2089 H 195.329 -0.284826 -3.87455 0
M  V30 2090 H 197.001 -2.88042 -3.60319 0
M  V30 2091 H 195.244 -2.76257 -3.34462 0
M  V30 2092 H 195.915 -2.44753 -4.94773 0
M  V30 2093 H 198.391 -0.717825 -4.09862 0
M  V30 2094 H 197.267 -0.506353 -5.46559 0
M  V30 2095 H 197.528 0.820266 -4.34424 0
M  V30 2096 N 196.587 1.43421 -0.653314 0
M  V30 2097 C 197.836 2.01032 -0.164076 0
M  V30 2098 C 198.149 1.52147 1.22926 0
M  V30 2099 O 199.355 2.02031 1.81371 0
M  V30 2100 C 197.811 3.59082 -0.24252 0
M  V30 2101 C 197.419 4.1696 -1.63855 0
M  V30 2102 C 199.163 4.24079 0.18911 0
M  V30 2103 C 197.07 5.67304 -1.67092 0
M  V30 2104 H 196 0.751798 -0.0575769 0
M  V30 2105 H 198.651 1.6439 -0.815362 0
M  V30 2106 H 197.033 3.93125 0.476276 0
M  V30 2107 H 198.207 3.94416 -2.38271 0
M  V30 2108 H 196.522 3.64335 -2.01616 0
M  V30 2109 H 199.119 5.34381 0.184775 0
M  V30 2110 H 199.462 3.98005 1.22056 0
M  V30 2111 H 199.995 3.94918 -0.477938 0
M  V30 2112 H 196.734 5.98145 -2.68146 0
M  V30 2113 H 196.254 5.91904 -0.970014 0
M  V30 2114 H 197.933 6.31344 -1.4147 0
M  V30 2115 N 198.065 0.39524 1.52563 0
M  V30 2116 C 199.313 -0.184678 2.01254 0
M  V30 2117 C 199.634 -1.46822 1.28329 0
M  V30 2118 O 198.904 -1.91666 0.405094 0
M  V30 2119 H 197.484 -0.0712355 0.743596 0
M  V30 2120 H 200.146 0.528293 1.87603 0
M  V30 2121 H 199.242 -0.390681 3.09645 0
M  V30 2122 N 199.544 -1.57102 0.125237 0
M  V30 2123 C 200.474 -2.18659 -0.819174 0
M  V30 2124 C 201.455 -1.12843 -1.27281 0
M  V30 2125 O 202.64 -1.41104 -1.33429 0
M  V30 2126 C 199.77 -2.79096 -2.06695 0
M  V30 2127 C 198.724 -3.90548 -1.75088 0
M  V30 2128 C 198.05 -4.37821 -3.06948 0
M  V30 2129 C 199.35 -5.12356 -1.01435 0
M  V30 2130 H 201.044 -2.9783 -0.306202 0
M  V30 2131 H 198.59 -1.4326 -0.145839 0
M  V30 2132 H 200.543 -3.2082 -2.73226 0
M  V30 2133 H 199.267 -1.97223 -2.60328 0
M  V30 2134 H 197.926 -3.49409 -1.10944 0
M  V30 2135 H 197.574 -3.52799 -3.58527 0
M  V30 2136 H 197.274 -5.12982 -2.86571 0
M  V30 2137 H 198.798 -4.822 -3.74587 0
M  V30 2138 H 200.212 -5.5106 -1.58132 0
M  V30 2139 H 198.609 -5.9314 -0.911319 0
M  V30 2140 H 199.679 -4.849 -0.00218681 0
M  V30 2141 N 201.022 0.148545 -1.56898 0
M  V30 2142 C 201.969 1.18345 -1.98149 0
M  V30 2143 C 202.939 1.42772 -0.848848 0
M  V30 2144 O 204.124 1.55132 -1.11079 0
M  V30 2145 C 201.264 2.51231 -2.36594 0
M  V30 2146 C 200.377 2.33991 -3.63142 0
M  V30 2147 C 199.512 3.59902 -3.90697 0
M  V30 2148 C 198.551 3.37692 -5.1052 0
M  V30 2149 N 197.688 4.5573 -5.34092 0
M  V30 2150 H 202.528 0.82467 -2.86362 0
M  V30 2151 H 200.065 0.395756 -1.41676 0
M  V30 2152 H 202.023 3.28713 -2.56912 0
M  V30 2153 H 200.653 2.85059 -1.51463 0
M  V30 2154 H 199.705 1.47572 -3.50609 0
M  V30 2155 H 201.017 2.13539 -4.5078 0
M  V30 2156 H 200.171 4.45813 -4.11505 0
M  V30 2157 H 198.91 3.83357 -3.01477 0
M  V30 2158 H 197.915 2.5017 -4.89587 0
M  V30 2159 H 199.14 3.15637 -6.0129 0
M  V30 2160 H 197.086 4.79361 -4.47827 0
M  V30 2161 H 197.003 4.38274 -6.15996 0
M  V30 2162 H 198.271 5.42858 -5.59397 0
M  V30 2163 N 202.5 1.5196 0.417844 0
M  V30 2164 C 203.728 1.69426 1.18753 0
M  V30 2165 C 204.143 0.399955 1.84515 0
M  V30 2166 O 203.5 -0.623288 1.71527 0
M  V30 2167 C 203.551 2.82375 2.25714 0
M  V30 2168 O 203.272 4.06793 1.62638 0
M  V30 2169 C 204.773 3.11277 3.15628 0
M  V30 2170 H 201.993 0.568031 0.357186 0
M  V30 2171 H 204.537 1.98475 0.49273 0
M  V30 2172 H 202.692 2.5587 2.90877 0
M  V30 2173 H 203.106 4.69667 2.3348 0
M  V30 2174 H 204.58 3.93843 3.86771 0
M  V30 2175 H 205.057 2.24473 3.77503 0
M  V30 2176 H 205.663 3.39515 2.56144 0
M  V30 2177 N 203.978 -0.674533 1.42435 0
M  V30 2178 C 204.908 -1.80009 1.48724 0
M  V30 2179 C 205.889 -1.6659 0.343793 0
M  V30 2180 O 207.074 -1.86007 0.558137 0
M  V30 2181 C 204.204 -3.18306 1.38919 0
M  V30 2182 C 203.158 -3.46461 2.51294 0
M  V30 2183 C 202.484 -4.84335 2.26547 0
M  V30 2184 C 203.784 -3.43328 3.93603 0
M  V30 2185 H 205.478 -1.75004 2.42928 0
M  V30 2186 H 203.024 -0.840533 1.16923 0
M  V30 2187 H 204.977 -3.9678 1.41927 0
M  V30 2188 H 203.701 -3.2399 0.412094 0
M  V30 2189 H 202.36 -2.70348 2.47604 0
M  V30 2190 H 202.008 -4.86669 1.2713 0
M  V30 2191 H 201.708 -5.04136 3.01861 0
M  V30 2192 H 203.232 -5.65094 2.31304 0
M  V30 2193 H 204.646 -4.11772 3.98894 0
M  V30 2194 H 203.043 -3.74664 4.68771 0
M  V30 2195 H 204.113 -2.41897 4.20255 0
M  V30 2196 N 205.456 -1.28612 -0.910864 0
M  V30 2197 C 206.733 -1.06632 -1.63979 0
M  V30 2198 C 207.113 0.393351 -2.07403 0
M  V30 2199 O 206.461 1.37999 -1.82122 0
M  V30 2200 C 206.671 -2.0436 -2.8291 0
M  V30 2201 C 208.019 -2.34666 -3.5386 0
M  V30 2202 O 209.043 -2.02467 -2.93062 0
M  V30 2203 O 207.902 -2.89631 -4.63439 0
M  V30 2204 H 204.996 -0.407737 -0.7195 0
M  V30 2205 H 207.542 -1.39942 -0.959914 0
M  V30 2206 H 206.314 -3.02727 -2.47936 0
M  V30 2207 H 205.937 -1.71714 -3.58609 0
M  V30 2208 N 206.934 1.1197 -1.10907 0
M  V30 2209 C 207.864 2.19928 -0.784473 0
M  V30 2210 C 208.845 1.6833 0.244726 0
M  V30 2211 O 210.03 1.93892 0.109418 0
M  V30 2212 C 207.16 3.46597 -0.220827 0
M  V30 2213 C 206.114 4.11376 -1.18127 0
M  V30 2214 C 205.44 5.32554 -0.478594 0
M  V30 2215 C 206.74 4.56945 -2.52979 0
M  V30 2216 H 208.434 2.47337 -1.68715 0
M  V30 2217 H 205.98 1.18879 -0.812642 0
M  V30 2218 H 207.933 4.21396 0.0184278 0
M  V30 2219 H 206.657 3.1863 0.717113 0
M  V30 2220 H 205.316 3.38564 -1.40606 0
M  V30 2221 H 204.964 5.00856 0.463976 0
M  V30 2222 H 204.664 5.76844 -1.11912 0
M  V30 2223 H 206.188 6.10096 -0.248 0
M  V30 2224 H 207.602 5.23093 -2.3462 0
M  V30 2225 H 205.999 5.1203 -3.12962 0
M  V30 2226 H 207.069 3.70676 -3.12614 0
M  V30 2227 N 208.412 0.89855 1.29475 0
M  V30 2228 C 209.342 0.39201 2.30186 0
M  V30 2229 C 210.323 -0.532359 1.61555 0
M  V30 2230 O 211.508 -0.443331 1.89072 0
M  V30 2231 C 208.638 -0.382353 3.45189 0
M  V30 2232 C 207.592 0.451483 4.25612 0
M  V30 2233 C 206.918 -0.450307 5.328 0
M  V30 2234 C 208.218 1.70079 4.93832 0
M  V30 2235 H 209.912 1.23362 2.72804 0
M  V30 2236 H 207.458 0.594638 1.31149 0
M  V30 2237 H 209.411 -0.747451 4.14718 0
M  V30 2238 H 208.135 -1.25774 3.01411 0
M  V30 2239 H 206.794 0.798897 3.57789 0
M  V30 2240 H 206.442 -1.32379 4.85268 0
M  V30 2241 H 206.142 0.103902 5.87508 0
M  V30 2242 H 207.666 -0.811623 6.05182 0
M  V30 2243 H 209.08 1.40549 5.55805 0
M  V30 2244 H 207.477 2.19623 5.58467 0
M  V30 2245 H 208.547 2.43744 4.19186 0
M  V30 2246 N 209.89 -1.43072 0.660911 0
M  V30 2247 C 210.82 -2.33497 -0.0122829 0
M  V30 2248 C 211.801 -1.49903 -0.803925 0
M  V30 2249 O 212.986 -1.78546 -0.763864 0
M  V30 2250 C 210.116 -3.33363 -0.973994 0
M  V30 2251 C 209.07 -4.27003 -0.291928 0
M  V30 2252 C 208.396 -5.16967 -1.36562 0
M  V30 2253 C 209.696 -5.15816 0.820462 0
M  V30 2254 H 211.39 -2.90038 0.742873 0
M  V30 2255 H 208.936 -1.39461 0.358688 0
M  V30 2256 H 210.889 -3.95524 -1.45392 0
M  V30 2257 H 209.613 -2.75095 -1.7604 0
M  V30 2258 H 208.272 -3.66217 0.167623 0
M  V30 2259 H 207.92 -4.55034 -2.14366 0
M  V30 2260 H 207.62 -5.80441 -0.914454 0
M  V30 2261 H 209.144 -5.82003 -1.84675 0
M  V30 2262 H 210.558 -5.71742 0.422366 0
M  V30 2263 H 208.955 -5.8805 1.19656 0
M  V30 2264 H 210.025 -4.55045 1.67518 0
M  V30 2265 N 211.368 -0.403325 -1.52352 0
M  V30 2266 C 212.596 0.174012 -2.06167 0
M  V30 2267 C 213.011 1.39347 -1.27388 0
M  V30 2268 O 212.368 1.79597 -0.324201 0
M  V30 2269 C 212.419 0.530223 -3.5759 0
M  V30 2270 O 212.14 -0.640806 -4.33388 0
M  V30 2271 C 213.641 1.16192 -4.27802 0
M  V30 2272 H 210.861 0.0229464 -0.670608 0
M  V30 2273 H 213.405 -0.572604 -1.9632 0
M  V30 2274 H 211.56 1.22673 -3.67464 0
M  V30 2275 H 211.974 -0.344851 -5.23365 0
M  V30 2276 H 213.448 1.36141 -5.34948 0
M  V30 2277 H 213.925 2.13335 -3.83907 0
M  V30 2278 H 214.531 0.505775 -4.22282 0
M  V30 2279 N 212.846 1.57033 -0.133567 0
M  V30 2280 C 214.071 2.00475 0.531477 0
M  V30 2281 C 214.496 1.01291 1.58499 0
M  V30 2282 O 213.854 -0.0133279 1.81295 0
M  V30 2283 C 213.902 3.42729 1.12113 0
M  V30 2284 O 213.006 3.46498 2.23636 0
M  V30 2285 H 212.347 0.650876 0.131362 0
M  V30 2286 H 214.877 2.03344 -0.22634 0
M  V30 2287 H 214.887 3.81246 1.4531 0
M  V30 2288 H 213.562 4.14428 0.349557 0
M  V30 2289 H 212.139 3.19811 1.91769 0
M  V30 2290 N 214.325 -0.140222 1.56975 0
M  V30 2291 C 215.573 -0.850005 1.83356 0
M  V30 2292 C 215.894 -1.81399 0.71551 0
M  V30 2293 O 215.164 -1.94136 -0.262294 0
M  V30 2294 H 213.744 -0.316886 0.676456 0
M  V30 2295 H 216.406 -0.132608 1.94448 0
M  V30 2296 H 215.502 -1.40814 2.78528 0
M  V30 2297 N 215.803 -1.52179 -0.40978 0
M  V30 2298 C 216.75 -1.75475 -1.49924 0
M  V30 2299 C 217.72 -0.597175 -1.54994 0
M  V30 2300 O 218.905 -0.834655 -1.71575 0
M  V30 2301 C 216.045 -1.9107 -2.87378 0
M  V30 2302 C 215.158 -3.18717 -2.91622 0
M  V30 2303 C 214.293 -3.24747 -4.20372 0
M  V30 2304 C 213.332 -4.46598 -4.18588 0
M  V30 2305 N 212.469 -4.50025 -5.38908 0
M  V30 2306 H 217.309 -2.68458 -1.29361 0
M  V30 2307 H 214.846 -1.33024 -0.627934 0
M  V30 2308 H 216.804 -1.98096 -3.6717 0
M  V30 2309 H 215.434 -1.01469 -3.06437 0
M  V30 2310 H 214.486 -3.20866 -2.04326 0
M  V30 2311 H 215.798 -4.08544 -2.86169 0
M  V30 2312 H 214.952 -3.30841 -5.08556 0
M  V30 2313 H 213.691 -2.32857 -4.28519 0
M  V30 2314 H 212.696 -4.40652 -3.28794 0
M  V30 2315 H 213.921 -5.39783 -4.12081 0
M  V30 2316 H 211.867 -3.61017 -5.47725 0
M  V30 2317 H 211.784 -5.33697 -5.35447 0
M  V30 2318 H 213.052 -4.60347 -6.29048 0
M  V30 2319 N 217.281 0.66697 -1.42791 0
M  V30 2320 C 218.53 1.42278 -1.42968 0
M  V30 2321 C 218.843 1.9553 -0.0524489 0
M  V30 2322 O 220.049 2.71414 0.068363 0
M  V30 2323 C 218.505 2.57418 -2.51524 0
M  V30 2324 C 218.113 2.10832 -3.9529 0
M  V30 2325 C 219.857 3.34878 -2.60877 0
M  V30 2326 C 217.764 3.23101 -4.95338 0
M  V30 2327 H 216.694 0.534533 -0.531781 0
M  V30 2328 H 219.345 0.721302 -1.68729 0
M  V30 2329 H 217.727 3.29971 -2.18941 0
M  V30 2330 H 218.901 1.4538 -4.37266 0
M  V30 2331 H 217.216 1.46289 -3.89857 0
M  V30 2332 H 219.813 4.18505 -3.32802 0
M  V30 2333 H 220.156 3.81993 -1.6549 0
M  V30 2334 H 220.689 2.69398 -2.92693 0
M  V30 2335 H 217.428 2.80969 -5.9223 0
M  V30 2336 H 216.948 3.87309 -4.57987 0
M  V30 2337 H 218.627 3.88447 -5.17415 0
M  V30 2338 N 218.759 1.29093 0.90403 0
M  V30 2339 C 219.987 1.19689 1.68766 0
M  V30 2340 C 220.402 -0.243113 1.87228 0
M  V30 2341 O 219.759 -1.16326 1.40621 0
M  V30 2342 C 219.81 1.90144 3.07453 0
M  V30 2343 O 219.531 3.2852 2.89838 0
M  V30 2344 C 221.032 1.87162 4.01852 0
M  V30 2345 H 218.252 0.415035 0.527244 0
M  V30 2346 H 220.796 1.7039 1.13082 0
M  V30 2347 H 218.951 1.43289 3.59926 0
M  V30 2348 H 219.365 3.63944 3.77684 0
M  V30 2349 H 220.839 2.41032 4.96596 0
M  V30 2350 H 221.316 0.84617 4.30972 0
M  V30 2351 H 221.922 2.33741 3.5531 0
M  V30 2352 N 220.237 -1.11381 1.11499 0
M  V30 2353 C 221.167 -2.19509 0.796125 0
M  V30 2354 C 222.148 -1.68458 -0.235796 0
M  V30 2355 O 223.333 -1.93947 -0.0991344 0
M  V30 2356 C 220.463 -3.46475 0.239205 0
M  V30 2357 C 219.417 -4.10744 1.20307 0
M  V30 2358 C 218.743 -5.32293 0.50683 0
M  V30 2359 C 220.043 -4.55597 2.55399 0
M  V30 2360 H 221.737 -2.46439 1.70024 0
M  V30 2361 H 219.283 -1.18446 0.818935 0
M  V30 2362 H 221.236 -4.214 0.00392006 0
M  V30 2363 H 219.96 -3.19006 -0.700206 0
M  V30 2364 H 218.619 -3.37813 1.42399 0
M  V30 2365 H 218.267 -5.01095 -0.437408 0
M  V30 2366 H 217.967 -5.76243 1.1497 0
M  V30 2367 H 219.491 -6.09956 0.280351 0
M  V30 2368 H 220.905 -5.21841 2.37391 0
M  V30 2369 H 219.302 -5.10363 3.15673 0
M  V30 2370 H 220.372 -3.69013 3.14575 0
M  V30 2371 N 221.715 -0.905404 -1.28997 0
M  V30 2372 C 222.645 -0.404212 -2.29975 0
M  V30 2373 C 223.626 0.523784 -1.61835 0
M  V30 2374 O 224.811 0.433298 -1.89304 0
M  V30 2375 C 221.941 0.364042 -3.45387 0
M  V30 2376 C 220.895 -0.474048 -4.25367 0
M  V30 2377 C 220.221 0.422045 -5.33032 0
M  V30 2378 C 221.521 -1.72696 -4.92923 0
M  V30 2379 H 223.215 -1.24807 -2.72146 0
M  V30 2380 H 220.761 -0.601585 -1.30832 0
M  V30 2381 H 222.714 0.725447 -4.15109 0
M  V30 2382 H 221.438 1.24174 -3.02074 0
M  V30 2383 H 220.097 -0.81786 -3.57361 0
M  V30 2384 H 219.745 1.29804 -4.85963 0
M  V30 2385 H 219.445 -0.135057 -5.87445 0
M  V30 2386 H 220.969 0.779517 -6.05604 0
M  V30 2387 H 222.383 -1.43495 -5.55051 0
M  V30 2388 H 220.78 -2.22582 -5.57295 0
M  V30 2389 H 221.85 -2.45964 -4.17887 0
M  V30 2390 N 223.193 1.4272 -0.668489 0
M  V30 2391 C 224.442 2.00846 -0.185389 0
M  V30 2392 C 224.755 1.53442 1.21305 0
M  V30 2393 O 225.961 2.03944 1.79218 0
M  V30 2394 C 224.417 3.58805 -0.280591 0
M  V30 2395 C 224.025 4.15198 -1.68268 0
M  V30 2396 C 225.769 4.24255 0.14412 0
M  V30 2397 C 223.676 5.655 -1.73099 0
M  V30 2398 H 222.606 0.751145 -0.0655475 0
M  V30 2399 H 225.257 1.63516 -0.832752 0
M  V30 2400 H 223.639 3.93608 0.434553 0
M  V30 2401 H 224.813 3.91866 -2.42441 0
M  V30 2402 H 223.128 3.62176 -2.05469 0
M  V30 2403 H 225.725 5.34547 0.128086 0
M  V30 2404 H 226.068 3.99277 1.17827 0
M  V30 2405 H 226.601 3.94389 -0.519798 0
M  V30 2406 H 223.34 5.95268 -2.74475 0
M  V30 2407 H 222.86 5.90842 -1.03274 0
M  V30 2408 H 224.539 6.29808 -1.48158 0
M  V30 2409 N 224.671 0.411399 1.52136 0
M  V30 2410 C 225.601 -0.404015 2.29978 0
M  V30 2411 C 226.582 -1.04412 1.34284 0
M  V30 2412 O 227.767 -1.0527 1.63192 0
M  V30 2413 C 224.897 -1.5197 3.12286 0
M  V30 2414 C 223.851 -1.00448 4.16046 0
M  V30 2415 C 223.177 -2.21393 4.86712 0
M  V30 2416 C 224.477 -0.0569336 5.22269 0
M  V30 2417 H 226.171 0.245529 2.98392 0
M  V30 2418 H 223.717 0.119525 1.43503 0
M  V30 2419 H 225.67 -2.09715 3.6551 0
M  V30 2420 H 224.394 -2.19716 2.41646 0
M  V30 2421 H 223.053 -0.449421 3.63835 0
M  V30 2422 H 222.701 -2.87699 4.12599 0
M  V30 2423 H 222.401 -1.87571 5.56858 0
M  V30 2424 H 223.925 -2.7974 5.4275 0
M  V30 2425 H 225.339 -0.54325 5.7072 0
M  V30 2426 H 223.736 0.192594 5.99791 0
M  V30 2427 H 224.806 0.887663 4.76706 0
M  V30 2428 N 226.149 -1.5696 0.141893 0
M  V30 2429 C 227.426 -1.87553 -0.555281 0
M  V30 2430 C 227.806 -1.04699 -1.83306 0
M  V30 2431 O 227.154 -0.132346 -2.28116 0
M  V30 2432 C 227.364 -3.39093 -0.825664 0
M  V30 2433 C 228.712 -4.08199 -1.16869 0
M  V30 2434 O 229.736 -3.44242 -0.915185 0
M  V30 2435 O 228.595 -5.21139 -1.6455 0
M  V30 2436 H 225.689 -0.777188 -0.282679 0
M  V30 2437 H 228.235 -1.68763 0.17812 0
M  V30 2438 H 227.007 -3.91221 0.0788633 0
M  V30 2439 H 226.63 -3.63393 -1.61343 0
M  V30 2440 N 227.627 0.131896 -1.57047 0
M  V30 2441 C 228.537 1.1815 -2.02676 0
M  V30 2442 C 229.553 1.46113 -0.944824 0
M  V30 2443 O 230.729 1.57485 -1.25541 0
M  V30 2444 C 227.794 2.49139 -2.41103 0
M  V30 2445 C 226.855 2.28688 -3.63318 0
M  V30 2446 C 226.088 3.53431 -3.99903 0
M  V30 2447 O 226.311 4.60223 -3.36973 0
M  V30 2448 O 225.245 3.45198 -4.93074 0
M  V30 2449 H 229.071 0.824069 -2.92306 0
M  V30 2450 H 226.656 0.341745 -1.45439 0
M  V30 2451 H 228.538 3.26338 -2.66611 0
M  V30 2452 H 227.213 2.84382 -1.54624 0
M  V30 2453 H 226.12 1.4939 -3.42977 0
M  V30 2454 H 227.453 1.98355 -4.50462 0
M  V30 2455 N 229.106 1.52395 0.401703 0
M  V30 2456 C 230.016 1.7917 1.51444 0
M  V30 2457 C 231.032 0.677691 1.6026 0
M  V30 2458 O 232.208 0.963909 1.76835 0
M  V30 2459 C 229.273 1.94347 2.87107 0
M  V30 2460 C 228.334 3.18257 2.88116 0
M  V30 2461 C 227.567 3.32701 4.17308 0
M  V30 2462 O 227.79 2.52238 5.11598 0
M  V30 2463 O 226.724 4.25891 4.25324 0
M  V30 2464 H 230.55 2.73633 1.31752 0
M  V30 2465 H 228.135 1.3733 0.588296 0
M  V30 2466 H 230.017 2.06109 3.67555 0
M  V30 2467 H 228.692 1.03073 3.06851 0
M  V30 2468 H 227.599 3.11947 2.06494 0
M  V30 2469 H 228.932 4.09336 2.73322 0
M  V30 2470 N 230.584 -0.659388 1.43143 0
M  V30 2471 C 231.809 -1.45221 1.48073 0
M  V30 2472 C 232.234 -1.87845 0.097995 0
M  V30 2473 O 231.592 -1.56985 -0.90694 0
M  V30 2474 C 231.64 -2.66748 2.42647 0
M  V30 2475 O 230.744 -3.65583 1.90848 0
M  V30 2476 H 230.085 -0.435669 0.501088 0
M  V30 2477 H 232.615 -0.807432 1.87994 0
M  V30 2478 H 232.625 -3.14637 2.59745 0
M  V30 2479 H 231.3 -2.35067 3.43098 0
M  V30 2480 H 229.877 -3.24693 1.83381 0
M  V30 2481 N 232.062 -1.29571 -0.897171 0
M  V30 2482 C 233.339 -1.08365 -1.62839 0
M  V30 2483 C 233.719 0.371331 -2.07808 0
M  V30 2484 O 233.067 1.3606 -1.83576 0
M  V30 2485 C 233.277 -2.0735 -2.80726 0
M  V30 2486 C 234.625 -2.38406 -3.51351 0
M  V30 2487 O 235.649 -2.05564 -2.90898 0
M  V30 2488 O 234.508 -2.9453 -4.60341 0
M  V30 2489 H 231.602 -0.415345 -0.715134 0
M  V30 2490 H 234.148 -1.40952 -0.945018 0
M  V30 2491 H 232.92 -3.05339 -2.44711 0
M  V30 2492 H 232.543 -1.75507 -3.56767 0
M  V30 2493 N 233.54 1.10788 -1.12088 0
M  V30 2494 C 234.789 1.82036 -0.868659 0
M  V30 2495 C 235.102 1.85929 0.607426 0
M  V30 2496 O 236.308 2.53346 0.97613 0
M  V30 2497 C 234.764 3.26951 -1.50435 0
M  V30 2498 C 234.372 3.31367 -3.01496 0
M  V30 2499 C 236.116 4.03053 -1.33225 0
M  V30 2500 C 234.023 4.7072 -3.58017 0
M  V30 2501 H 232.953 0.682108 -0.321318 0
M  V30 2502 H 235.604 1.24618 -1.34694 0
M  V30 2503 H 233.986 3.84343 -0.953735 0
M  V30 2504 H 235.16 2.83819 -3.6302 0
M  V30 2505 H 233.475 2.6875 -3.18061 0
M  V30 2506 H 236.072 5.05981 -1.72878 0
M  V30 2507 H 236.415 4.15387 -0.275529 0
M  V30 2508 H 236.948 3.52066 -1.85188 0
M  V30 2509 H 233.687 4.63585 -4.63432 0
M  V30 2510 H 233.207 5.1865 -3.01268 0
M  V30 2511 H 234.886 5.39685 -3.56859 0
M  V30 2512 N 235.018 0.912232 1.28515 0
M  V30 2513 C 236.265 0.544599 1.95039 0
M  V30 2514 C 236.593 -0.911435 1.71823 0
M  V30 2515 O 235.848 -1.66317 1.03137 0
M  V30 2516 C 236.147 0.798392 3.48368 0
M  V30 2517 C 235.813 2.23374 3.91682 0
M  V30 2518 C 234.475 2.62617 4.03219 0
M  V30 2519 C 236.827 3.16786 4.13879 0
M  V30 2520 C 234.155 3.94429 4.3433 0
M  V30 2521 C 236.507 4.48161 4.46469 0
M  V30 2522 C 235.171 4.8726 4.56217 0
M  V30 2523 H 234.441 0.199283 0.7137 0
M  V30 2524 H 237.088 1.15327 1.52879 0
M  V30 2525 H 235.393 0.106908 3.91654 0
M  V30 2526 H 237.09 0.493141 3.97956 0
M  V30 2527 H 233.68 1.91922 3.83228 0
M  V30 2528 H 237.864 2.87677 4.0442 0
M  V30 2529 H 233.12 4.24426 4.40082 0
M  V30 2530 H 237.294 5.20559 4.62592 0
M  V30 2531 H 234.921 5.89431 4.80078 0
M  V30 2532 N 236.496 -1.42363 0.676048 0
M  V30 2533 C 237.429 -2.28141 -0.0516916 0
M  V30 2534 C 238.407 -1.41135 -0.807439 0
M  V30 2535 O 239.591 -1.70573 -0.802305 0
M  V30 2536 C 236.718 -3.21007 -1.08039 0
M  V30 2537 C 235.764 -4.24426 -0.420076 0
M  V30 2538 S 236.597 -5.29134 0.823246 0
M  V30 2539 C 237.753 -6.25566 -0.204344 0
M  V30 2540 H 237.986 -2.89515 0.675884 0
M  V30 2541 H 235.519 -1.47211 0.465635 0
M  V30 2542 H 237.477 -3.75048 -1.66881 0
M  V30 2543 H 236.138 -2.58766 -1.78042 0
M  V30 2544 H 235.331 -4.89596 -1.19633 0
M  V30 2545 H 234.933 -3.7388 0.0947845 0
M  V30 2546 H 237.225 -6.69098 -1.06369 0
M  V30 2547 H 238.168 -7.06895 0.412915 0
M  V30 2548 H 238.576 -5.61811 -0.55038 0
M  V30 2549 N 237.974 -0.419461 -1.51915 0
M  V30 2550 C 238.904 0.391813 -2.30189 0
M  V30 2551 C 239.885 1.03699 -1.34836 0
M  V30 2552 O 241.07 1.04403 -1.63748 0
M  V30 2553 C 238.2 1.50312 -3.13087 0
M  V30 2554 C 237.154 0.9824 -4.16573 0
M  V30 2555 C 236.48 2.18809 -4.8788 0
M  V30 2556 C 237.78 0.0292356 -5.22292 0
M  V30 2557 H 239.474 -0.26135 -2.98257 0
M  V30 2558 H 237.02 -0.127134 -1.43438 0
M  V30 2559 H 238.973 2.07773 -3.66617 0
M  V30 2560 H 237.697 2.18431 -2.42807 0
M  V30 2561 H 236.356 0.430119 -3.64068 0
M  V30 2562 H 236.004 2.85507 -4.14119 0
M  V30 2563 H 235.704 1.84615 -5.57845 0
M  V30 2564 H 237.228 2.76858 -5.44226 0
M  V30 2565 H 238.642 0.512976 -5.71 0
M  V30 2566 H 237.039 -0.2244 -5.9968 0
M  V30 2567 H 238.109 -0.912931 -4.76228 0
M  V30 2568 N 239.452 1.56882 -0.150215 0
M  V30 2569 C 240.701 1.95403 0.500071 0
M  V30 2570 C 241.014 1.03777 1.658 0
M  V30 2571 O 242.22 1.31889 2.37313 0
M  V30 2572 C 240.676 3.4738 0.941018 0
M  V30 2573 C 240.284 4.47596 -0.190158 0
M  V30 2574 C 242.028 3.9476 1.56091 0
M  V30 2575 C 239.935 5.90787 0.269237 0
M  V30 2576 H 238.865 0.729515 0.190588 0
M  V30 2577 H 241.516 1.81988 -0.235074 0
M  V30 2578 H 239.898 3.56138 1.73152 0
M  V30 2579 H 241.072 4.50536 -0.967157 0
M  V30 2580 H 239.387 4.10151 -0.718666 0
M  V30 2581 H 241.984 4.99181 1.9163 0
M  V30 2582 H 242.327 3.36494 2.45107 0
M  V30 2583 H 242.86 3.88932 0.835249 0
M  V30 2584 H 239.599 6.52879 -0.585621 0
M  V30 2585 H 239.119 5.912 1.01204 0
M  V30 2586 H 240.798 6.42979 0.720176 0
M  V30 2587 N 240.93 -0.123565 1.57115 0
M  V30 2588 C 242.177 -0.832153 1.84612 0
M  V30 2589 C 242.505 -1.80093 0.734627 0
M  V30 2590 O 241.76 -1.93766 -0.27442 0
M  V30 2591 C 242.059 -1.62016 3.18568 0
M  V30 2592 C 241.725 -0.796084 4.43817 0
M  V30 2593 C 240.387 -0.568816 4.77826 0
M  V30 2594 C 242.739 -0.221364 5.2073 0
M  V30 2595 C 240.067 0.243499 5.86194 0
M  V30 2596 C 242.419 0.578117 6.29953 0
M  V30 2597 C 241.083 0.815744 6.62497 0
M  V30 2598 H 240.353 -0.304507 0.675542 0
M  V30 2599 H 243 -0.0947248 1.91266 0
M  V30 2600 H 241.305 -2.42837 3.0747 0
M  V30 2601 H 243.002 -2.17231 3.37064 0
M  V30 2602 H 239.592 -0.983307 4.17168 0
M  V30 2603 H 243.776 -0.384173 4.94811 0
M  V30 2604 H 239.032 0.436871 6.09837 0
M  V30 2605 H 243.206 1.03046 6.88734 0
M  V30 2606 H 240.833 1.44701 7.46301 0
M  V30 2607 N 242.408 -1.52605 -0.393616 0
M  V30 2608 C 243.685 -1.58001 -1.15304 0
M  V30 2609 C 244.065 -0.370385 -2.07825 0
M  V30 2610 O 243.413 0.641638 -2.19306 0
M  V30 2611 C 243.623 -2.91652 -1.91677 0
M  V30 2612 C 244.971 -3.4522 -2.47201 0
M  V30 2613 O 245.995 -2.93495 -2.01839 0
M  V30 2614 O 244.854 -4.35579 -3.3005 0
M  V30 2615 H 241.948 -0.637068 -0.527327 0
M  V30 2616 H 244.494 -1.64939 -0.399141 0
M  V30 2617 H 243.266 -3.71136 -1.23992 0
M  V30 2618 H 242.889 -2.88077 -2.74039 0
M  V30 2619 N 243.887 0.651787 -1.4349 0
M  V30 2620 C 244.85 1.74647 -1.48429 0
M  V30 2621 C 245.85 1.56513 -0.368817 0
M  V30 2622 O 247.04 1.62385 -0.630623 0
M  V30 2623 C 244.172 3.13533 -1.33827 0
M  V30 2624 H 245.365 1.71649 -2.4592 0
M  V30 2625 H 242.918 0.863573 -1.30277 0
M  V30 2626 H 243.653 3.22142 -0.37349 0
M  V30 2627 H 243.438 3.28101 -2.14691 0
M  V30 2628 H 244.928 3.93356 -1.40218 0
M  V30 2629 N 245.365 1.30045 0.890287 0
M  V30 2630 C 246.298 1.10301 1.99772 0
M  V30 2631 C 247.276 0.0121631 1.62595 0
M  V30 2632 O 248.46 0.16469 1.87779 0
M  V30 2633 C 245.587 0.681125 3.31781 0
M  V30 2634 C 244.633 1.77206 3.87944 0
M  V30 2635 S 245.466 3.37335 4.15891 0
M  V30 2636 C 246.622 2.97036 5.50927 0
M  V30 2637 H 246.855 2.04057 2.16213 0
M  V30 2638 H 244.388 1.14299 1.03804 0
M  V30 2639 H 246.346 0.444439 4.08087 0
M  V30 2640 H 245.007 -0.236981 3.13205 0
M  V30 2641 H 244.2 1.42903 4.83316 0
M  V30 2642 H 243.802 1.96275 3.18358 0
M  V30 2643 H 246.094 2.44666 6.31779 0
M  V30 2644 H 247.037 3.91296 5.90164 0
M  V30 2645 H 247.445 2.35057 5.13233 0
M  V30 2646 N 246.843 -1.10192 1.12674 0
M  V30 2647 C 247.793 -2.14754 0.765801 0
M  V30 2648 C 248.777 -1.59154 -0.236409 0
M  V30 2649 O 249.969 -1.76951 -0.0415261 0
M  V30 2650 C 247.098 -3.42563 0.224827 0
M  V30 2651 C 246.184 -4.05091 1.25548 0
M  V30 2652 N 246.575 -4.42287 2.4539 0
M  V30 2653 C 244.873 -4.32186 1.10142 0
M  V30 2654 C 245.574 -4.91441 3.11224 0
M  V30 2655 N 244.55 -4.88405 2.38666 0
M  V30 2656 H 248.352 -2.41309 1.67772 0
M  V30 2657 H 245.866 -1.27339 1.00789 0
M  V30 2658 H 247.863 -4.16868 -0.0519578 0
M  V30 2659 H 246.523 -3.17467 -0.681515 0
M  V30 2660 H 247.534 -4.33902 2.82754 0
M  V30 2661 H 244.211 -4.16735 0.252587 0
M  V30 2662 H 245.601 -5.29749 4.13298 0
M  V30 2663 N 248.321 -0.919034 -1.28029 0
M  V30 2664 C 249.546 -0.570357 -1.99403 0
M  V30 2665 C 249.971 0.842486 -1.68178 0
M  V30 2666 O 249.329 1.56391 -0.917141 0
M  V30 2667 C 249.377 -0.792541 -3.51783 0
M  V30 2668 O 248.481 0.145988 -4.12142 0
M  V30 2669 H 247.822 -0.220555 -0.6263 0
M  V30 2670 H 250.352 -1.23592 -1.63053 0
M  V30 2671 H 250.362 -0.704708 -4.01868 0
M  V30 2672 H 249.037 -1.82247 -3.73844 0
M  V30 2673 H 247.614 0.00897528 -3.72899 0
M  V30 2674 N 249.799 1.42003 -0.683588 0
M  V30 2675 C 251.046 2.01413 -0.209514 0
M  V30 2676 C 251.374 1.54088 1.1869 0
M  V30 2677 O 250.629 0.737591 1.81268 0
M  V30 2678 C 250.928 3.56827 -0.202357 0
M  V30 2679 C 250.594 4.23617 -1.54464 0
M  V30 2680 C 249.256 4.41577 -1.91215 0
M  V30 2681 C 251.608 4.61178 -2.42826 0
M  V30 2682 C 248.936 4.9437 -3.15935 0
M  V30 2683 C 251.288 5.15355 -3.66867 0
M  V30 2684 C 249.952 5.31528 -4.03776 0
M  V30 2685 H 249.222 0.737023 -0.0766668 0
M  V30 2686 H 251.869 1.70067 -0.880312 0
M  V30 2687 H 250.174 3.87892 0.551969 0
M  V30 2688 H 251.871 4.00588 0.181793 0
M  V30 2689 H 248.461 4.10004 -1.24877 0
M  V30 2690 H 252.645 4.46968 -2.15717 0
M  V30 2691 H 247.901 5.05076 -3.44541 0
M  V30 2692 H 252.075 5.43402 -4.35531 0
M  V30 2693 H 249.702 5.72199 -5.00492 0
M  V30 2694 N 251.277 0.427512 1.51691 0
M  V30 2695 C 252.688 -0.0378867 1.86662 0
M  V30 2696 C 253.039 -1.42819 1.34525 0
M  V30 2697 O 252.164 -2.05037 0.692014 0
M  V30 2698 C 252.759 -0.0755266 3.38716 0
M  V30 2699 C 251.318 -0.485309 3.73258 0
M  V30 2700 C 250.465 0.328399 2.75349 0
M  V30 2701 H 253.416 0.64379 1.45055 0
M  V30 2702 H 253.437 -0.887056 3.70016 0
M  V30 2703 H 252.949 0.936487 3.76632 0
M  V30 2704 H 251.05 -1.50329 3.40928 0
M  V30 2705 H 251.163 -0.21693 4.78609 0
M  V30 2706 H 249.527 -0.211905 2.53817 0
M  V30 2707 H 250.31 1.3391 3.16106 0
M  V30 2708 N 252.755 -1.56801 0.158532 0
M  V30 2709 C 253.718 -2.16138 -0.762705 0
M  V30 2710 C 254.718 -1.1061 -1.16713 0
M  V30 2711 O 255.908 -1.36191 -1.08617 0
M  V30 2712 C 253.04 -2.73386 -2.03649 0
M  V30 2713 H 254.233 -2.98886 -0.246354 0
M  V30 2714 H 251.786 -1.56035 -0.0909744 0
M  V30 2715 H 252.521 -1.94335 -2.59623 0
M  V30 2716 H 252.306 -3.50601 -1.75559 0
M  V30 2717 H 253.796 -3.19065 -2.6942 0
M  V30 2718 N 254.233 0.115231 -1.57178 0
M  V30 2719 C 255.181 1.16014 -2.01602 0
M  V30 2720 C 256.175 1.42653 -0.913587 0
M  V30 2721 O 257.381 1.42571 -1.09879 0
M  V30 2722 H 253.756 0.391252 -0.642204 0
M  V30 2723 H 255.727 0.758998 -2.88586 0
M  V30 2724 C 254.476 2.47767 -2.4394 0
M  V30 2725 H 253.799 2.28108 -3.28339 0
M  V30 2726 H 255.239 3.19432 -2.78818 0
M  V30 2727 C 253.698 3.10617 -1.30455 0
M  V30 2728 O 254.228 3.96846 -0.622585 0
M  V30 2729 N 252.434 2.70553 -1.06064 0
M  V30 2730 H 251.981 2.00527 -1.61699 0
M  V30 2731 H 251.939 3.12934 -0.303284 0
M  V30 2732 N 255.711 1.52812 0.385517 0
M  V30 2733 C 256.988 1.5861 1.14465 0
M  V30 2734 C 257.368 0.381402 2.07626 0
M  V30 2735 O 256.716 -0.629999 2.19643 0
M  V30 2736 C 256.926 2.92664 1.90128 0
M  V30 2737 C 258.274 3.46526 2.45367 0
M  V30 2738 O 259.298 2.94562 2.0028 0
M  V30 2739 O 258.157 4.37323 3.27736 0
M  V30 2740 H 255.251 0.639855 0.523941 0
M  V30 2741 H 257.797 1.65149 0.390389 0
M  V30 2742 H 256.569 3.71788 1.22022 0
M  V30 2743 H 256.192 2.89527 2.72507 0
M  V30 2744 N 257.189 -0.644168 1.43834 0
M  V30 2745 C 258.099 -1.78563 1.52159 0
M  V30 2746 C 259.115 -1.69147 0.408069 0
M  V30 2747 O 260.291 -1.90156 0.663524 0
M  V30 2748 C 257.356 -3.14888 1.45073 0
M  V30 2749 C 256.417 -3.36034 2.6717 0
M  V30 2750 C 255.65 -4.65855 2.60413 0
M  V30 2751 O 255.873 -5.45805 1.65689 0
M  V30 2752 O 254.807 -4.88918 3.5106 0
M  V30 2753 H 258.633 -1.74494 2.48567 0
M  V30 2754 H 256.218 -0.80378 1.25935 0
M  V30 2755 H 258.1 -3.96179 1.43597 0
M  V30 2756 H 256.775 -3.19528 0.518037 0
M  V30 2757 H 255.682 -2.54472 2.74217 0
M  V30 2758 H 257.015 -3.36247 3.59442 0
M  V30 2759 N 258.668 -1.30515 -0.883378 0
M  V30 2760 C 259.914 -1.19607 -1.63774 0
M  V30 2761 C 260.247 0.248314 -1.92606 0
M  V30 2762 O 259.522 1.17742 -1.54813 0
M  V30 2763 C 259.805 -2.02669 -2.97653 0
M  V30 2764 C 259.658 -3.55335 -2.75784 0
M  V30 2765 C 260.977 -1.86573 -3.98596 0
M  V30 2766 H 258.096 -0.435856 -0.594305 0
M  V30 2767 H 260.738 -1.60165 -1.02212 0
M  V30 2768 H 258.888 -1.68208 -3.50197 0
M  V30 2769 H 260.56 -3.99863 -2.30016 0
M  V30 2770 H 258.803 -3.79438 -2.1026 0
M  V30 2771 H 259.474 -4.08745 -3.70988 0
M  V30 2772 H 261.95 -2.16703 -3.55217 0
M  V30 2773 H 260.826 -2.47014 -4.90179 0
M  V30 2774 H 261.087 -0.825321 -4.34328 0
M  V30 2775 N 260.146 1.09593 -1.13257 0
M  V30 2776 C 261.078 2.16015 -0.766167 0
M  V30 2777 C 262.091 1.61423 0.211303 0
M  V30 2778 O 263.28 1.78498 -0.00863946 0
M  V30 2779 C 260.38 3.38706 -0.114662 0
M  V30 2780 C 259.553 4.22717 -1.12379 0
M  V30 2781 C 258.612 5.23835 -0.498301 0
M  V30 2782 O 257.638 5.573 -1.15781 0
M  V30 2783 N 258.84 5.75886 0.730417 0
M  V30 2784 H 261.605 2.48055 -1.68193 0
M  V30 2785 H 259.166 1.25292 -1.02535 0
M  V30 2786 H 261.158 4.03464 0.315991 0
M  V30 2787 H 259.728 3.04569 0.704011 0
M  V30 2788 H 258.948 3.54122 -1.73179 0
M  V30 2789 H 260.236 4.75673 -1.80589 0
M  V30 2790 H 259.634 5.50911 1.28504 0
M  V30 2791 H 258.191 6.42387 1.10376 0
M  V30 2792 N 261.624 0.925811 1.2754 0
M  V30 2793 C 262.571 0.422045 2.26908 0
M  V30 2794 C 263.541 -0.510029 1.58076 0
M  V30 2795 O 264.726 -0.429599 1.85901 0
M  V30 2796 C 261.866 -0.320837 3.43605 0
M  V30 2797 C 260.979 0.64513 4.27156 0
M  V30 2798 C 260.114 -0.117405 5.3107 0
M  V30 2799 C 259.153 0.841391 6.0629 0
M  V30 2800 N 258.29 0.111604 7.02011 0
M  V30 2801 H 263.13 1.27441 2.69375 0
M  V30 2802 H 260.667 0.639697 1.32462 0
M  V30 2803 H 262.625 -0.76785 4.10073 0
M  V30 2804 H 261.255 -1.13745 3.02096 0
M  V30 2805 H 260.307 1.21067 3.6062 0
M  V30 2806 H 261.619 1.37797 4.79389 0
M  V30 2807 H 260.773 -0.624422 6.03478 0
M  V30 2808 H 259.512 -0.883219 4.79636 0
M  V30 2809 H 258.517 1.35967 5.32722 0
M  V30 2810 H 259.742 1.60696 6.59813 0
M  V30 2811 H 257.688 -0.635999 6.5291 0
M  V30 2812 H 257.605 0.784044 7.51923 0
M  V30 2813 H 258.873 -0.374823 7.78598 0
M  V30 2814 N 263.102 -1.41638 0.69111 0
M  V30 2815 C 264.032 -2.3347 0.037248 0
M  V30 2816 C 265.013 -1.51575 -0.771947 0
M  V30 2817 O 266.198 -1.80126 -0.72582 0
M  V30 2818 C 263.328 -3.35354 -0.903064 0
M  V30 2819 C 262.282 -4.27526 -0.201288 0
M  V30 2820 C 261.608 -5.19747 -1.25565 0
M  V30 2821 C 262.908 -5.13959 0.929689 0
M  V30 2822 H 264.602 -2.88397 0.804227 0
M  V30 2823 H 262.148 -1.38669 0.388189 0
M  V30 2824 H 264.101 -3.98519 -1.36969 0
M  V30 2825 H 262.825 -2.78767 -1.70166 0
M  V30 2826 H 261.484 -3.65779 0.245265 0
M  V30 2827 H 261.132 -4.59479 -2.04666 0
M  V30 2828 H 260.832 -5.8225 -0.791128 0
M  V30 2829 H 262.356 -5.85789 -1.72288 0
M  V30 2830 H 263.77 -5.70718 0.543546 0
M  V30 2831 H 262.167 -5.85379 1.32103 0
M  V30 2832 H 263.237 -4.51389 1.77133 0
M  V30 2833 N 264.58 -0.43555 -1.51462 0
M  V30 2834 C 265.828 0.131254 -2.01673 0
M  V30 2835 C 266.149 1.43368 -1.32177 0
M  V30 2836 O 265.419 1.90524 -0.455769 0
M  V30 2837 H 263.999 0.0514954 -0.745223 0
M  V30 2838 H 266.661 -0.577847 -1.86137 0
M  V30 2839 H 265.757 0.308446 -3.10572 0
M  V30 2840 N 266.058 1.56714 -0.166846 0
M  V30 2841 C 267.298 1.98641 0.481763 0
M  V30 2842 C 267.662 1.05038 1.6072 0
M  V30 2843 O 268.863 1.36087 2.31805 0
M  V30 2844 C 267.134 3.44362 0.956517 0
M  V30 2845 S 268.693 4.08317 1.60694 0
M  V30 2846 H 265.511 0.693873 0.155116 0
M  V30 2847 H 268.113 1.93719 -0.263251 0
M  V30 2848 H 266.817 4.10204 0.126936 0
M  V30 2849 H 266.348 3.53041 1.73568 0
M  V30 2850 H 268.363 4.02999 2.89494 0
M  V30 2851 N 267.536 -0.106894 1.57237 0
M  V30 2852 C 268.483 -1.13049 2.01217 0
M  V30 2853 C 269.453 -1.40471 0.886403 0
M  V30 2854 O 270.638 -1.52133 1.15153 0
M  V30 2855 C 267.778 -2.4487 2.43172 0
M  V30 2856 C 266.891 -2.24281 3.69218 0
M  V30 2857 C 266.026 -3.49417 4.00101 0
M  V30 2858 C 265.065 -3.24038 5.19294 0
M  V30 2859 N 264.202 -4.41409 5.45988 0
M  V30 2860 H 269.042 -0.748456 2.88448 0
M  V30 2861 H 266.579 -0.358054 1.42676 0
M  V30 2862 H 268.537 -3.21786 2.65537 0
M  V30 2863 H 267.167 -2.80944 1.58967 0
M  V30 2864 H 266.219 -1.38224 3.54398 0
M  V30 2865 H 267.531 -2.01512 4.56283 0
M  V30 2866 H 266.685 -4.34746 4.2318 0
M  V30 2867 H 265.424 -3.75229 3.11535 0
M  V30 2868 H 264.429 -2.37102 4.96047 0
M  V30 2869 H 265.654 -2.99584 6.09447 0
M  V30 2870 H 263.6 -4.67319 4.60379 0
M  V30 2871 H 263.517 -4.21788 6.274 0
M  V30 2872 H 264.785 -5.27836 5.73593 0
M  V30 2873 N 269.014 -1.53014 -0.377408 0
M  V30 2874 C 269.977 -1.77957 -1.44444 0
M  V30 2875 C 270.977 -0.649763 -1.47087 0
M  V30 2876 O 272.167 -0.917897 -1.48055 0
M  V30 2877 C 269.299 -1.89089 -2.83651 0
M  V30 2878 H 270.492 -2.73243 -1.23606 0
M  V30 2879 H 268.045 -1.43912 -0.609844 0
M  V30 2880 H 268.78 -0.958293 -3.09818 0
M  V30 2881 H 268.565 -2.71254 -2.83132 0
M  V30 2882 H 270.055 -2.1002 -3.60945 0
M  V30 2883 N 270.492 0.636531 -1.44174 0
M  V30 2884 C 271.422 1.76003 -1.53444 0
M  V30 2885 C 272.403 1.65619 -0.387841 0
M  V30 2886 O 273.588 1.84461 -0.607257 0
M  V30 2887 C 270.718 3.14511 -1.4731 0
M  V30 2888 C 269.672 3.39677 -2.60391 0
M  V30 2889 C 268.998 4.78159 -2.39308 0
M  V30 2890 C 270.298 3.32772 -4.02567 0
M  V30 2891 H 271.992 1.68501 -2.47483 0
M  V30 2892 H 269.538 0.809237 -1.19111 0
M  V30 2893 H 271.491 3.92878 -1.52397 0
M  V30 2894 H 270.215 3.22783 -0.49785 0
M  V30 2895 H 268.874 2.63688 -2.54684 0
M  V30 2896 H 268.522 4.83128 -1.39988 0
M  V30 2897 H 268.222 4.95956 -3.15122 0
M  V30 2898 H 269.746 5.58762 -2.46205 0
M  V30 2899 H 271.16 4.01051 -4.09672 0
M  V30 2900 H 269.557 3.62104 -4.7854 0
M  V30 2901 H 270.627 2.30669 -4.2652 0
M  V30 2902 N 271.97 1.30982 0.876444 0
M  V30 2903 C 272.92 1.14688 1.97055 0
M  V30 2904 C 273.904 0.0596593 1.60789 0
M  V30 2905 O 275.096 0.283892 1.74708 0
M  V30 2906 C 272.225 0.849627 3.3262 0
M  V30 2907 C 271.311 1.97752 3.75173 0
M  V30 2908 N 271.702 3.22384 3.89746 0
M  V30 2909 C 270 1.8758 4.04635 0
M  V30 2910 C 270.701 3.96121 4.25985 0
M  V30 2911 N 269.677 3.24237 4.36315 0
M  V30 2912 H 273.479 2.09204 2.06424 0
M  V30 2913 H 270.993 1.22445 1.06682 0
M  V30 2914 H 272.99 0.713895 4.10742 0
M  V30 2915 H 271.65 -0.087376 3.24582 0
M  V30 2916 H 272.661 3.57575 3.74647 0
M  V30 2917 H 269.338 1.01303 4.05024 0
M  V30 2918 H 270.728 5.03491 4.44911 0
M  V30 2919 N 273.449 -1.08991 1.13837 0
M  V30 2920 C 274.695 -1.81526 0.90422 0
M  V30 2921 C 275.028 -1.85706 -0.568066 0
M  V30 2922 O 274.303 -1.32855 -1.42056 0
M  V30 2923 C 274.586 -3.27447 1.49835 0
M  V30 2924 C 274.439 -3.31512 3.04006 0
M  V30 2925 C 275.758 -4.24256 1.17025 0
M  V30 2926 H 272.877 -0.659029 0.329923 0
M  V30 2927 H 275.519 -1.27644 1.40737 0
M  V30 2928 H 273.669 -3.73462 1.07044 0
M  V30 2929 H 275.341 -2.93867 3.55584 0
M  V30 2930 H 273.584 -2.70963 3.38765 0
M  V30 2931 H 274.255 -4.34329 3.40679 0
M  V30 2932 H 276.731 -3.86549 1.54009 0
M  V30 2933 H 275.607 -5.24684 1.61237 0
M  V30 2934 H 275.868 -4.42019 0.0846274 0
M  V30 2935 N 274.927 -0.932562 -1.27047 0
M  V30 2936 C 275.857 -0.452902 -2.29066 0
M  V30 2937 C 276.838 0.489338 -1.62909 0
M  V30 2938 O 278.023 0.393046 -1.90181 0
M  V30 2939 C 275.153 0.290698 -3.46081 0
M  V30 2940 C 274.107 -0.564168 -4.24265 0
M  V30 2941 C 273.433 0.308886 -5.33807 0
M  V30 2942 C 274.733 -1.83112 -4.89149 0
M  V30 2943 H 276.427 -1.30552 -2.69437 0
M  V30 2944 H 273.973 -0.629201 -1.29526 0
M  V30 2945 H 275.926 0.637233 -4.16554 0
M  V30 2946 H 274.65 1.17738 -3.0464 0
M  V30 2947 H 273.309 -0.893477 -3.55545 0
M  V30 2948 H 272.957 1.19467 -4.88607 0
M  V30 2949 H 272.657 -0.259633 -5.87026 0
M  V30 2950 H 274.181 0.650884 -6.07121 0
M  V30 2951 H 275.595 -1.55236 -5.51883 0
M  V30 2952 H 273.992 -2.34353 -5.52448 0
M  V30 2953 H 275.062 -2.54772 -4.12576 0
M  V30 2954 N 276.405 1.4127 -0.698611 0
M  V30 2955 C 277.652 2.0118 -0.230865 0
M  V30 2956 C 277.98 1.55338 1.17049 0
M  V30 2957 O 277.235 0.756775 1.80475 0
M  V30 2958 C 277.534 3.56592 -0.240192 0
M  V30 2959 C 277.2 4.21955 -1.58948 0
M  V30 2960 C 275.862 4.39524 -1.95887 0
M  V30 2961 C 278.214 4.58576 -2.47704 0
M  V30 2962 C 275.542 4.90992 -3.2116 0
M  V30 2963 C 277.894 5.11435 -3.72313 0
M  V30 2964 C 276.558 5.27215 -4.0939 0
M  V30 2965 H 275.828 0.736169 -0.0844796 0
M  V30 2966 H 278.475 1.69124 -0.8983 0
M  V30 2967 H 276.78 3.88456 0.510797 0
M  V30 2968 H 278.477 4.00758 0.139296 0
M  V30 2969 H 275.067 4.08657 -1.29219 0
M  V30 2970 H 279.251 4.44654 -2.20445 0
M  V30 2971 H 274.507 5.01393 -3.49878 0
M  V30 2972 H 278.681 5.38752 -4.4127 0
M  V30 2973 H 276.308 5.66859 -5.06533 0
M  V30 2974 N 277.883 0.443576 1.51229 0
M  V30 2975 C 278.793 -0.370721 2.31652 0
M  V30 2976 C 279.809 -1.02186 1.40833 0
M  V30 2977 O 280.985 -1.01586 1.73903 0
M  V30 2978 C 278.05 -1.45376 3.14749 0
M  V30 2979 C 277.111 -0.822099 4.21355 0
M  V30 2980 C 276.344 -1.85353 5.0048 0
M  V30 2981 O 276.567 -3.07656 4.80316 0
M  V30 2982 O 275.501 -1.4406 5.84406 0
M  V30 2983 H 279.327 0.286002 3.0235 0
M  V30 2984 H 276.912 0.20598 1.47973 0
M  V30 2985 H 278.794 -2.08173 3.66391 0
M  V30 2986 H 277.469 -2.09445 2.46809 0
M  V30 2987 H 276.376 -0.155909 3.73775 0
M  V30 2988 H 277.709 -0.224797 4.91686 0
M  V30 2989 N 279.361 -1.56624 0.175154 0
M  V30 2990 C 280.777 -1.58571 -0.180966 0
M  V30 2991 C 280.977 -1.19065 -1.6256 0
M  V30 2992 O 280.033 -0.904044 -2.35761 0
M  V30 2993 C 281.346 -3.00522 0.103326 0
M  V30 2994 C 282.894 -3.12972 0.0418426 0
M  V30 2995 C 283.369 -4.57022 0.299175 0
M  V30 2996 N 284.86 -4.62541 0.247086 0
M  V30 2997 C 285.595 -5.71857 0.420318 0
M  V30 2998 N 285.091 -6.89717 0.652816 0
M  V30 2999 N 286.884 -5.60972 0.355957 0
M  V30 3000 H 279.035 -1.80589 1.11809 0
M  V30 3001 H 281.298 -0.837178 0.444788 0
M  V30 3002 H 281.004 -3.33916 1.10422 0
M  V30 3003 H 280.878 -3.72344 -0.603299 0
M  V30 3004 H 283.265 -2.79403 -0.949636 0
M  V30 3005 H 283.346 -2.43578 0.781238 0
M  V30 3006 H 282.99 -4.913 1.28788 0
M  V30 3007 H 282.92 -5.24579 -0.460876 0
M  V30 3008 H 285.411 -3.77829 0.0731895 0
M  V30 3009 H 285.724 -7.68911 0.774347 0
M  V30 3010 H 284.069 -6.91572 0.689476 0
M  V30 3011 H 287.26 -4.67773 0.174882 0
M  V30 3012 H 287.433 -6.46111 0.494388 0
M  V30 3013 N 280.839 0.0985539 -1.57292 0
M  V30 3014 C 282.085 0.803867 -1.86188 0
M  V30 3015 C 282.418 1.78549 -0.763794 0
M  V30 3016 O 281.693 1.93153 0.22855 0
M  V30 3017 C 281.976 1.53568 -3.25713 0
M  V30 3018 C 281.829 0.572277 -4.46145 0
M  V30 3019 C 283.148 2.48708 -3.63087 0
M  V30 3020 H 280.267 0.290781 -0.677211 0
M  V30 3021 H 282.909 0.0675783 -1.8988 0
M  V30 3022 H 281.059 2.16332 -3.22696 0
M  V30 3023 H 282.731 -0.0480894 -4.61275 0
M  V30 3024 H 280.974 -0.114618 -4.33649 0
M  V30 3025 H 281.645 1.12139 -5.40489 0
M  V30 3026 H 284.121 1.96039 -3.67026 0
M  V30 3027 H 282.997 2.96932 -4.61652 0
M  V30 3028 H 283.258 3.32309 -2.91588 0
M  V30 3029 N 282.317 1.53212 0.369288 0
M  V30 3030 C 283.542 1.73423 1.1375 0
M  V30 3031 C 283.967 0.460404 1.82378 0
M  V30 3032 O 283.325 -0.585298 1.71592 0
M  V30 3033 C 283.373 2.89769 2.1463 0
M  V30 3034 O 282.477 2.58119 3.21634 0
M  V30 3035 H 281.818 0.576061 0.330227 0
M  V30 3036 H 284.348 2.00083 0.427547 0
M  V30 3037 H 284.358 3.15829 2.58294 0
M  V30 3038 H 283.033 3.8217 1.64071 0
M  V30 3039 H 281.61 2.42864 2.82969 0
M  V30 3040 N 283.795 -0.628877 1.44509 0
M  V30 3041 C 284.705 -1.7694 1.54044 0
M  V30 3042 C 285.721 -1.68705 0.425987 0
M  V30 3043 O 286.897 -1.89442 0.683656 0
M  V30 3044 C 283.962 -3.13332 1.48405 0
M  V30 3045 C 283.023 -3.33181 2.70719 0
M  V30 3046 C 282.256 -4.63067 2.6534 0
M  V30 3047 O 282.479 -5.44017 1.71469 0
M  V30 3048 O 281.413 -4.85167 3.56226 0
M  V30 3049 H 285.239 -1.71848 2.50403 0
M  V30 3050 H 282.824 -0.790378 1.26781 0
M  V30 3051 H 284.706 -3.94634 1.47791 0
M  V30 3052 H 283.381 -3.1896 0.551898 0
M  V30 3053 H 282.288 -2.51549 2.769 0
M  V30 3054 H 283.621 -3.32416 3.62988 0
M  V30 3055 N 285.273 -1.31445 -0.869486 0
M  V30 3056 C 286.183 -1.21097 -2.0093 0
M  V30 3057 C 287.199 -0.127584 -1.73532 0
M  V30 3058 O 288.375 -0.345477 -1.98415 0
M  V30 3059 C 285.44 -0.919378 -3.34288 0
M  V30 3060 C 284.501 -2.08971 -3.75006 0
M  V30 3061 C 283.734 -1.81194 -5.02001 0
M  V30 3062 O 283.957 -0.747296 -5.65484 0
M  V30 3063 O 282.891 -2.66883 -5.39497 0
M  V30 3064 H 286.717 -2.16883 -2.12592 0
M  V30 3065 H 284.302 -1.11189 -0.997868 0
M  V30 3066 H 286.184 -0.772625 -4.14257 0
M  V30 3067 H 284.859 0.00844772 -3.23699 0
M  V30 3068 H 283.766 -2.29187 -2.95676 0
M  V30 3069 H 285.099 -2.9998 -3.90221 0
M  V30 3070 N 286.751 1.08385 -1.14413 0
M  V30 3071 C 287.683 2.1519 -0.789036 0
M  V30 3072 C 288.696 1.61638 0.19417 0
M  V30 3073 O 289.885 1.78479 -0.0275711 0
M  V30 3074 C 286.985 3.38565 -0.15058 0
M  V30 3075 C 286.158 4.21501 -1.16857 0
M  V30 3076 C 285.217 5.23277 -0.553832 0
M  V30 3077 O 284.243 5.56041 -1.21686 0
M  V30 3078 N 285.445 5.76629 0.669296 0
M  V30 3079 H 288.21 2.46257 -1.70814 0
M  V30 3080 H 285.771 1.24198 -1.03858 0
M  V30 3081 H 287.763 4.03777 0.273181 0
M  V30 3082 H 286.333 3.05299 0.671667 0
M  V30 3083 H 285.553 3.52265 -1.76926 0
M  V30 3084 H 286.841 4.73731 -1.85624 0
M  V30 3085 H 286.239 5.52243 1.22654 0
M  V30 3086 H 284.796 6.43521 1.03556 0
M  V30 3087 N 288.23 0.939286 1.26551 0
M  V30 3088 C 289.16 0.465044 2.28822 0
M  V30 3089 C 290.141 -0.480692 1.63167 0
M  V30 3090 O 291.326 -0.382955 1.90387 0
M  V30 3091 C 288.456 -0.27234 3.46231 0
M  V30 3092 C 287.41 0.58666 4.2396 0
M  V30 3093 C 286.736 -0.280573 5.33963 0
M  V30 3094 C 288.036 1.85704 4.88171 0
M  V30 3095 H 289.73 1.31979 2.68741 0
M  V30 3096 H 287.276 0.636061 1.29191 0
M  V30 3097 H 289.229 -0.615133 4.16886 0
M  V30 3098 H 287.953 -1.16121 3.0526 0
M  V30 3099 H 286.612 0.91232 3.55067 0
M  V30 3100 H 286.26 -1.16874 4.89234 0
M  V30 3101 H 285.96 0.29076 5.8688 0
M  V30 3102 H 287.484 -0.618678 6.07458 0
M  V30 3103 H 288.898 1.58161 5.51052 0
M  V30 3104 H 287.295 2.37279 5.51197 0
M  V30 3105 H 288.365 2.56957 4.11219 0
M  V30 3106 N 289.708 -1.40897 0.706093 0
M  V30 3107 C 290.936 -2.05373 0.250887 0
M  V30 3108 C 291.351 -1.53172 -1.10381 0
M  V30 3109 O 290.708 -0.684305 -1.69185 0
M  V30 3110 C 290.759 -3.6088 0.211571 0
M  V30 3111 O 290.48 -4.11153 1.51276 0
M  V30 3112 C 291.981 -4.42517 -0.263346 0
M  V30 3113 H 289.201 -0.66115 0.114552 0
M  V30 3114 H 291.745 -1.80479 0.961635 0
M  V30 3115 H 289.9 -3.84777 -0.450073 0
M  V30 3116 H 290.314 -5.05279 1.40689 0
M  V30 3117 H 291.788 -5.51479 -0.239718 0
M  V30 3118 H 292.265 -4.19396 -1.30397 0
M  V30 3119 H 292.871 -4.23708 0.367677 0
M  V30 3120 N 291.186 -0.45159 -1.50991 0
M  V30 3121 C 292.096 0.358431 -2.31846 0
M  V30 3122 C 293.112 1.01438 -1.41373 0
M  V30 3123 O 294.288 1.00663 -1.74439 0
M  V30 3124 C 291.353 1.43704 -3.15515 0
M  V30 3125 C 290.414 0.799742 -4.21785 0
M  V30 3126 C 289.647 1.82696 -5.01456 0
M  V30 3127 O 289.87 3.05105 -4.81941 0
M  V30 3128 O 288.804 1.40958 -5.85162 0
M  V30 3129 H 292.63 -0.302032 -3.02194 0
M  V30 3130 H 290.215 -0.213825 -1.47862 0
M  V30 3131 H 292.097 2.06227 -3.67489 0
M  V30 3132 H 290.772 2.08133 -2.47916 0
M  V30 3133 H 289.679 0.136084 -3.73852 0
M  V30 3134 H 291.012 0.198718 -4.91799 0
M  V30 3135 N 292.664 1.56529 -0.183458 0
M  V30 3136 C 293.911 1.97244 0.458357 0
M  V30 3137 C 294.239 1.06992 1.62428 0
M  V30 3138 O 293.494 0.106542 1.9541 0
M  V30 3139 C 293.793 3.43939 0.971637 0
M  V30 3140 C 293.459 4.5083 -0.0796784 0
M  V30 3141 C 292.121 4.79786 -0.368584 0
M  V30 3142 C 294.473 5.15138 -0.792638 0
M  V30 3143 C 291.801 5.70345 -1.37563 0
M  V30 3144 C 294.153 6.06784 -1.78875 0
M  V30 3145 C 292.817 6.34102 -2.08497 0
M  V30 3146 H 292.087 0.721768 0.167725 0
M  V30 3147 H 294.734 1.89472 -0.277976 0
M  V30 3148 H 293.039 3.48724 1.78602 0
M  V30 3149 H 294.736 3.72791 1.47744 0
M  V30 3150 H 291.326 4.28317 0.155668 0
M  V30 3151 H 295.51 4.92868 -0.582659 0
M  V30 3152 H 290.766 5.89789 -1.61118 0
M  V30 3153 H 294.94 6.55677 -2.3465 0
M  V30 3154 H 292.567 7.04074 -2.86678 0
M  V30 3155 N 294.142 -0.090211 1.57342 0
M  V30 3156 C 295.388 -0.793982 1.86611 0
M  V30 3157 C 295.721 -1.78142 0.773252 0
M  V30 3158 O 294.996 -1.93271 -0.218304 0
M  V30 3159 C 295.279 -1.51839 3.26523 0
M  V30 3160 C 295.132 -0.548609 4.46442 0
M  V30 3161 C 296.451 -2.46779 3.64401 0
M  V30 3162 H 293.57 -0.287186 0.678744 0
M  V30 3163 H 296.212 -0.0575076 1.89913 0
M  V30 3164 H 294.362 -2.14617 3.23839 0
M  V30 3165 H 296.034 0.0725513 4.61243 0
M  V30 3166 H 294.277 0.137614 4.33582 0
M  V30 3167 H 294.948 -1.09271 5.41076 0
M  V30 3168 H 297.424 -1.94089 3.68061 0
M  V30 3169 H 296.3 -2.94479 4.63221 0
M  V30 3170 H 296.561 -3.30758 2.93346 0
M  V30 3171 N 295.62 -1.53406 -0.361157 0
M  V30 3172 C 296.53 -1.83122 -1.4664 0
M  V30 3173 C 297.546 -0.719943 -1.58407 0
M  V30 3174 O 298.722 -1.01046 -1.74218 0
M  V30 3175 C 295.787 -2.01891 -2.81853 0
M  V30 3176 C 294.848 -3.25784 -2.79577 0
M  V30 3177 C 294.081 -3.43648 -4.0834 0
M  V30 3178 O 294.304 -2.65714 -5.0473 0
M  V30 3179 O 293.238 -4.37018 -4.13883 0
M  V30 3180 H 297.064 -2.7703 -1.24451 0
M  V30 3181 H 294.649 -1.38841 -0.551678 0
M  V30 3182 H 296.531 -2.15782 -3.61962 0
M  V30 3183 H 295.206 -1.11173 -3.0401 0
M  V30 3184 H 294.113 -3.17312 -1.98151 0
M  V30 3185 H 295.446 -4.16439 -2.62373 0
M  V30 3186 N 297.098 0.621204 -1.44841 0
M  V30 3187 C 298.046 1.75385 -1.52784 0
M  V30 3188 C 299.04 1.64639 -0.398779 0
M  V30 3189 O 300.246 1.70598 -0.574137 0
M  V30 3190 H 296.621 0.579193 -0.479625 0
M  V30 3191 H 298.592 1.6581 -2.48092 0
M  V30 3192 C 297.341 3.13742 -1.4987 0
M  V30 3193 H 296.664 3.22663 -2.36069 0
M  V30 3194 H 298.104 3.92861 -1.59487 0
M  V30 3195 C 296.563 3.36175 -0.220973 0
M  V30 3196 O 297.093 3.95469 0.704782 0
M  V30 3197 N 295.299 2.90348 -0.120963 0
M  V30 3198 H 294.846 2.42278 -0.875162 0
M  V30 3199 H 294.804 3.05732 0.733168 0
M  V30 3200 N 298.576 1.31904 0.862503 0
M  V30 3201 C 299.523 1.20182 1.9704 0
M  V30 3202 C 300.493 0.0858247 1.65878 0
M  V30 3203 O 301.678 0.26 1.8902 0
M  V30 3204 C 298.818 0.922797 3.32533 0
M  V30 3205 C 297.931 2.12284 3.76244 0
M  V30 3206 C 297.066 1.77996 5.00491 0
M  V30 3207 C 296.105 2.94366 5.36671 0
M  V30 3208 N 295.242 2.60223 6.52095 0
M  V30 3209 H 300.082 2.14951 2.06398 0
M  V30 3210 H 297.619 1.06917 1.01031 0
M  V30 3211 H 299.577 0.741548 4.10557 0
M  V30 3212 H 298.207 0.0119227 3.22798 0
M  V30 3213 H 297.259 2.41461 2.9394 0
M  V30 3214 H 298.571 2.99357 3.98982 0
M  V30 3215 H 297.725 1.56377 5.862 0
M  V30 3216 H 296.464 0.881252 4.79672 0
M  V30 3217 H 295.469 3.16625 4.49476 0
M  V30 3218 H 296.694 3.84957 5.59451 0
M  V30 3219 H 294.64 1.72884 6.32809 0
M  V30 3220 H 294.557 3.40827 6.74814 0
M  V30 3221 H 295.825 2.42016 7.40978 0
M  V30 3222 N 300.054 -1.07777 1.14986 0
M  V30 3223 C 301.331 -1.7699 0.832695 0
M  V30 3224 C 301.711 -2.001 -0.672561 0
M  V30 3225 O 301.059 -1.61598 -1.6155 0
M  V30 3226 C 301.269 -3.08139 1.63863 0
M  V30 3227 C 302.617 -3.8256 1.84208 0
M  V30 3228 O 303.641 -3.17939 1.60603 0
M  V30 3229 O 302.5 -4.98612 2.23714 0
M  V30 3230 H 299.594 -0.768389 0.305791 0
M  V30 3231 H 302.14 -1.14182 1.25541 0
M  V30 3232 H 300.912 -2.86909 2.6608 0
M  V30 3233 H 300.535 -3.78678 1.21197 0
M  V30 3234 N 301.532 -0.945985 -1.26051 0
M  V30 3235 C 302.762 -0.612136 -1.97323 0
M  V30 3236 C 303.17 0.818171 -1.70595 0
M  V30 3237 O 302.513 1.55777 -0.973613 0
M  V30 3238 C 302.575 -0.780347 -3.50929 0
M  V30 3239 C 302.239 -2.18619 -4.01317 0
M  V30 3240 C 303.236 -3.16209 -4.12683 0
M  V30 3241 C 300.921 -2.50805 -4.35203 0
M  V30 3242 C 302.915 -4.44085 -4.57238 0
M  V30 3243 C 300.602 -3.78912 -4.79446 0
M  V30 3244 C 301.6 -4.75365 -4.90425 0
M  V30 3245 O 301.288 -6.01191 -5.3369 0
M  V30 3246 H 301.02 -0.229134 -0.635982 0
M  V30 3247 H 303.574 -1.27036 -1.61404 0
M  V30 3248 H 301.804 -0.0649864 -3.86645 0
M  V30 3249 H 303.493 -0.448842 -4.03411 0
M  V30 3250 H 304.259 -2.92668 -3.86744 0
M  V30 3251 H 300.138 -1.76463 -4.2589 0
M  V30 3252 H 303.682 -5.19373 -4.65723 0
M  V30 3253 H 299.579 -4.02265 -5.0483 0
M  V30 3254 H 300.347 -6.04442 -5.51899 0
M  V30 3255 N 303.011 1.40521 -0.713556 0
M  V30 3256 C 303.944 2.28198 -0.00881422 0
M  V30 3257 C 304.922 1.43227 0.769735 0
M  V30 3258 O 306.106 1.72641 0.756799 0
M  V30 3259 C 303.233 3.23758 0.994899 0
M  V30 3260 C 302.279 4.25391 0.3074 0
M  V30 3261 S 303.112 5.26765 -0.963247 0
M  V30 3262 C 304.268 6.25888 0.0384143 0
M  V30 3263 H 304.501 2.87622 -0.752407 0
M  V30 3264 H 302.034 1.45925 -0.504502 0
M  V30 3265 H 303.992 3.79341 1.56879 0
M  V30 3266 H 302.653 2.63396 1.71118 0
M  V30 3267 H 301.846 4.92596 1.0661 0
M  V30 3268 H 301.448 3.73497 -0.193879 0
M  V30 3269 H 303.74 6.71683 0.885912 0
M  V30 3270 H 304.683 7.05552 -0.60019 0
M  V30 3271 H 305.091 5.63072 0.401233 0
M  V30 3272 N 304.489 0.459591 1.5075 0
M  V30 3273 C 305.738 -0.100971 2.01447 0
M  V30 3274 C 306.051 -1.41816 1.34713 0
M  V30 3275 O 307.257 -2.06299 1.76502 0
M  V30 3276 C 305.713 -0.23047 3.59161 0
M  V30 3277 C 305.321 1.0776 4.34847 0
M  V30 3278 C 307.065 -0.743608 4.17936 0
M  V30 3279 C 304.972 0.91253 5.84317 0
M  V30 3280 H 303.902 -0.0415102 0.752856 0
M  V30 3281 H 306.553 0.592742 1.73663 0
M  V30 3282 H 304.935 -0.987703 3.83485 0
M  V30 3283 H 306.109 1.8449 4.22256 0
M  V30 3284 H 304.424 1.52097 3.87628 0
M  V30 3285 H 307.021 -0.883959 5.27343 0
M  V30 3286 H 307.364 -1.73196 3.78562 0
M  V30 3287 H 307.897 -0.04408 3.97776 0
M  V30 3288 H 304.636 1.87391 6.28144 0
M  V30 3289 H 304.156 0.185422 5.99513 0
M  V30 3290 H 305.835 0.574547 6.44444 0
M  V30 3291 N 305.967 -1.56429 0.191757 0
M  V30 3292 C 306.897 -2.21937 -0.725696 0
M  V30 3293 C 307.878 -1.1814 -1.2238 0
M  V30 3294 O 309.063 -1.46636 -1.27325 0
M  V30 3295 C 306.193 -2.87611 -1.94672 0
M  V30 3296 C 305.147 -3.97623 -1.58366 0
M  V30 3297 C 304.473 -4.50446 -2.88102 0
M  V30 3298 C 305.773 -5.16197 -0.796133 0
M  V30 3299 H 307.467 -2.98861 -0.179606 0
M  V30 3300 H 305.013 -1.43749 -0.0849464 0
M  V30 3301 H 306.966 -3.3212 -2.59373 0
M  V30 3302 H 305.69 -2.08087 -2.51728 0
M  V30 3303 H 304.349 -3.53801 -0.960247 0
M  V30 3304 H 303.997 -3.67688 -3.43241 0
M  V30 3305 H 303.697 -5.24675 -2.64556 0
M  V30 3306 H 305.221 -4.97654 -3.53798 0
M  V30 3307 H 306.635 -5.57271 -1.34618 0
M  V30 3308 H 305.032 -5.96471 -0.658928 0
M  V30 3309 H 306.102 -4.84473 0.203478 0
M  V30 3310 N 307.445 0.0818655 -1.57387 0
M  V30 3311 C 308.375 1.09885 -2.06028 0
M  V30 3312 C 309.356 1.4098 -0.951774 0
M  V30 3313 O 310.541 1.50781 -1.22387 0
M  V30 3314 C 307.671 2.4151 -2.4958 0
M  V30 3315 C 306.625 2.24792 -3.64215 0
M  V30 3316 C 305.951 3.61712 -3.93787 0
M  V30 3317 C 307.251 1.67749 -4.94629 0
M  V30 3318 H 308.945 0.694128 -2.91243 0
M  V30 3319 H 306.491 0.332448 -1.4011 0
M  V30 3320 H 308.444 3.12939 -2.82219 0
M  V30 3321 H 307.168 2.83943 -1.61381 0
M  V30 3322 H 305.827 1.55807 -3.31843 0
M  V30 3323 H 305.475 4.01697 -3.02735 0
M  V30 3324 H 305.175 3.51368 -4.70971 0
M  V30 3325 H 306.699 4.34587 -4.28913 0
M  V30 3326 H 308.113 2.29032 -5.25564 0
M  V30 3327 H 306.51 1.68128 -5.76067 0
M  V30 3328 H 307.58 0.638059 -4.80684 0
M  V30 3329 N 308.923 1.53595 0.353017 0
M  V30 3330 C 310.148 1.7462 1.11904 0
M  V30 3331 C 310.573 0.479721 1.8188 0
M  V30 3332 O 309.931 -0.567066 1.72204 0
M  V30 3333 C 309.979 2.92029 2.11545 0
M  V30 3334 O 309.083 2.61516 3.18878 0
M  V30 3335 H 308.424 0.579531 0.324099 0
M  V30 3336 H 310.954 2.00525 0.406301 0
M  V30 3337 H 310.964 3.18551 2.5493 0
M  V30 3338 H 309.639 3.83888 1.60008 0
M  V30 3339 H 308.216 2.45852 2.80377 0
M  V30 3340 N 310.401 -0.613514 1.45168 0
M  V30 3341 C 311.364 -1.7065 1.53007 0
M  V30 3342 C 312.364 -1.5548 0.410184 0
M  V30 3343 O 313.554 -1.60656 0.673455 0
M  V30 3344 C 310.686 -3.09875 1.42093 0
M  V30 3345 H 311.879 -1.65068 2.50385 0
M  V30 3346 H 309.432 -0.828728 1.32521 0
M  V30 3347 H 310.167 -3.21039 0.458769 0
M  V30 3348 H 309.952 -3.22293 2.23315 0
M  V30 3349 H 311.442 -3.895 1.50598 0
M  V30 3350 N 311.879 -1.3236 -0.855495 0
M  V30 3351 C 312.809 -1.23833 -1.97958 0
M  V30 3352 C 313.79 -0.122361 -1.69659 0
M  V30 3353 O 314.975 -0.30939 -1.9172 0
M  V30 3354 C 312.105 -0.959772 -3.33775 0
M  V30 3355 C 311.059 -2.03689 -3.76424 0
M  V30 3356 C 310.385 -1.61075 -5.09862 0
M  V30 3357 C 311.685 -3.4518 -3.9198 0
M  V30 3358 H 313.379 -2.1788 -2.0535 0
M  V30 3359 H 310.925 -1.04891 -0.986605 0
M  V30 3360 H 312.878 -0.886678 -4.11966 0
M  V30 3361 H 311.602 0.0163404 -3.26596 0
M  V30 3362 H 310.261 -2.10012 -3.00484 0
M  V30 3363 H 309.909 -0.622107 -4.99138 0
M  V30 3364 H 309.609 -2.33143 -5.39368 0
M  V30 3365 H 311.133 -1.55201 -5.90546 0
M  V30 3366 H 312.547 -3.4145 -4.60526 0
M  V30 3367 H 310.944 -4.1559 -4.32903 0
M  V30 3368 H 312.014 -3.84903 -2.94919 0
M  V30 3369 N 313.357 1.07166 -1.15556 0
M  V30 3370 C 314.585 1.83514 -0.955519 0
M  V30 3371 C 315 1.82163 0.49621 0
M  V30 3372 O 314.357 1.23441 1.34419 0
M  V30 3373 C 314.408 3.30515 -1.46432 0
M  V30 3374 O 314.129 3.31937 -2.85918 0
M  V30 3375 C 315.63 4.23625 -1.30603 0
M  V30 3376 H 312.85 0.578926 -0.339244 0
M  V30 3377 H 315.394 1.35265 -1.53374 0
M  V30 3378 H 313.549 3.76106 -0.928584 0
M  V30 3379 H 313.963 4.23794 -3.09029 0
M  V30 3380 H 315.437 5.24831 -1.71047 0
M  V30 3381 H 315.914 4.38485 -0.250441 0
M  V30 3382 H 316.52 3.83871 -1.83094 0
M  V30 3383 N 314.835 0.952656 1.25548 0
M  V30 3384 C 315.783 0.462354 2.27958 0
M  V30 3385 C 316.777 -0.46634 1.62855 0
M  V30 3386 O 317.983 -0.343287 1.76696 0
M  V30 3387 H 314.358 0.13101 0.7405 0
M  V30 3388 H 316.329 1.33839 2.66702 0
M  V30 3389 C 315.078 -0.24628 3.46827 0
M  V30 3390 H 314.401 0.459192 3.97154 0
M  V30 3391 H 315.841 -0.553393 4.20373 0
M  V30 3392 C 314.3 -1.4681 3.0323 0
M  V30 3393 O 314.83 -2.56591 3.09069 0
M  V30 3394 N 313.036 -1.32874 2.58443 0
M  V30 3395 H 312.583 -0.435536 2.53891 0
M  V30 3396 H 312.541 -2.14742 2.29637 0
M  V30 3397 N 316.313 -1.40141 0.720998 0
M  V30 3398 C 317.56 -2.00787 0.262842 0
M  V30 3399 C 317.888 -1.5718 -1.14563 0
M  V30 3400 O 317.143 -0.785391 -1.79249 0
M  V30 3401 C 317.442 -3.56165 0.296892 0
M  V30 3402 C 317.108 -4.19373 1.65641 0
M  V30 3403 C 315.77 -4.36352 2.02855 0
M  V30 3404 C 318.122 -4.54578 2.54968 0
M  V30 3405 C 315.45 -4.8582 3.28931 0
M  V30 3406 C 317.802 -5.05447 3.80402 0
M  V30 3407 C 316.466 -5.20635 4.17726 0
M  V30 3408 H 315.736 -0.734731 0.0961807 0
M  V30 3409 H 318.383 -1.67673 0.925093 0
M  V30 3410 H 316.688 -3.8922 -0.448932 0
M  V30 3411 H 318.385 -4.00929 -0.0755208 0
M  V30 3412 H 314.975 -4.06549 1.35704 0
M  V30 3413 H 319.159 -4.41091 2.27491 0
M  V30 3414 H 314.415 -4.95764 3.57811 0
M  V30 3415 H 318.589 -5.31663 4.49786 0
M  V30 3416 H 316.216 -5.58728 5.15487 0
M  V30 3417 N 317.792 -0.46758 -1.50504 0
M  V30 3418 C 318.739 0.328413 -2.28452 0
M  V30 3419 C 319.709 0.990313 -1.33349 0
M  V30 3420 O 320.894 1.00343 -1.62284 0
M  V30 3421 C 318.034 1.40648 -3.15138 0
M  V30 3422 C 317.147 0.759709 -4.25267 0
M  V30 3423 C 316.282 1.81537 -4.99217 0
M  V30 3424 C 315.321 1.14866 -6.01226 0
M  V30 3425 N 314.458 2.14702 -6.68467 0
M  V30 3426 H 319.298 -0.342603 -2.96024 0
M  V30 3427 H 316.835 -0.180801 -1.45985 0
M  V30 3428 H 318.793 2.04315 -3.63746 0
M  V30 3429 H 317.423 2.04671 -2.49619 0
M  V30 3430 H 316.475 0.0105671 -3.80399 0
M  V30 3431 H 317.787 0.233243 -4.98254 0
M  V30 3432 H 316.941 2.52793 -5.51526 0
M  V30 3433 H 315.68 2.37564 -4.25928 0
M  V30 3434 H 314.685 0.42171 -5.4818 0
M  V30 3435 H 315.91 0.595334 -6.76485 0
M  V30 3436 H 313.856 2.69752 -5.97972 0
M  V30 3437 H 313.773 1.6703 -7.37317 0
M  V30 3438 H 315.041 2.85348 -7.25394 0
M  V30 3439 N 319.27 1.56325 -0.20005 0
M  V30 3440 C 320.547 1.89484 0.48529 0
M  V30 3441 C 320.927 1.1143 1.79294 0
M  V30 3442 O 320.275 0.216919 2.27468 0
M  V30 3443 C 320.485 3.41923 0.699243 0
M  V30 3444 C 321.833 4.12256 1.01638 0
M  V30 3445 O 322.857 3.47402 0.786792 0
M  V30 3446 O 321.716 5.26887 1.45095 0
M  V30 3447 H 318.81 0.787144 0.253639 0
M  V30 3448 H 321.356 1.67985 -0.240633 0
M  V30 3449 H 320.128 3.90658 -0.224008 0
M  V30 3450 H 319.751 3.69131 1.47744 0
M  V30 3451 N 320.748 -0.0735177 1.57428 0
M  V30 3452 C 321.658 -1.10547 2.06922 0
M  V30 3453 C 322.674 -1.42506 0.998402 0
M  V30 3454 O 323.85 -1.52717 1.31299 0
M  V30 3455 C 320.915 -2.40019 2.50184 0
M  V30 3456 C 319.976 -2.15046 3.71556 0
M  V30 3457 C 319.209 -3.38345 4.12745 0
M  V30 3458 O 319.432 -4.47399 3.53822 0
M  V30 3459 O 318.366 -3.2666 5.05546 0
M  V30 3460 H 322.192 -0.715013 2.95163 0
M  V30 3461 H 319.777 -0.287531 1.46607 0
M  V30 3462 H 321.659 -3.16218 2.78539 0
M  V30 3463 H 320.334 -2.78447 1.65072 0
M  V30 3464 H 319.241 -1.36558 3.48285 0
M  V30 3465 H 320.574 -1.81499 4.57514 0
M  V30 3466 N 322.226 -1.5378 -0.344866 0
M  V30 3467 C 323.136 -1.84667 -1.4469 0
M  V30 3468 C 324.152 -0.736704 -1.57635 0
M  V30 3469 O 325.328 -1.02888 -1.73136 0
M  V30 3470 C 322.393 -2.04869 -2.79696 0
M  V30 3471 C 321.454 -3.28731 -2.76106 0
M  V30 3472 C 320.687 -3.4796 -4.04673 0
M  V30 3473 O 320.91 -2.71052 -5.01883 0
M  V30 3474 O 319.844 -4.41383 -4.09224 0
M  V30 3475 H 323.67 -2.78334 -1.21506 0
M  V30 3476 H 321.255 -1.39418 -0.536921 0
M  V30 3477 H 323.137 -2.19609 -3.59652 0
M  V30 3478 H 321.812 -1.14391 -3.02814 0
M  V30 3479 H 320.719 -3.19396 -1.94774 0
M  V30 3480 H 322.052 -4.19198 -2.57941 0
M  V30 3481 N 323.704 0.605807 -1.45491 0
M  V30 3482 C 324.614 1.74466 -1.56839 0
M  V30 3483 C 325.63 1.68006 -0.452772 0
M  V30 3484 O 326.806 1.8833 -0.713708 0
M  V30 3485 C 323.871 3.10931 -1.53371 0
M  V30 3486 C 322.932 3.28832 -2.75986 0
M  V30 3487 C 322.165 4.58787 -2.72673 0
M  V30 3488 O 322.388 5.4122 -1.80102 0
M  V30 3489 O 321.322 4.79438 -3.63899 0
M  V30 3490 H 325.148 1.67843 -2.53106 0
M  V30 3491 H 322.733 0.770108 -1.28022 0
M  V30 3492 H 324.615 3.92233 -1.54051 0
M  V30 3493 H 323.29 3.18042 -0.602572 0
M  V30 3494 H 322.197 2.47112 -2.80867 0
M  V30 3495 H 323.53 3.26599 -3.68231 0
M  V30 3496 N 325.182 1.32811 0.848464 0
M  V30 3497 C 326.431 1.23075 1.59798 0
M  V30 3498 C 326.744 -0.204419 1.94529 0
M  V30 3499 O 327.95 -0.423701 2.68173 0
M  V30 3500 C 326.406 2.15594 2.88179 0
M  V30 3501 C 326.014 3.64228 2.60849 0
M  V30 3502 C 327.758 2.14709 3.66197 0
M  V30 3503 C 325.665 4.48689 3.85269 0
M  V30 3504 H 324.595 0.457091 0.599653 0
M  V30 3505 H 327.246 1.57813 0.936342 0
M  V30 3506 H 325.628 1.73778 3.55833 0
M  V30 3507 H 326.802 4.14424 2.01467 0
M  V30 3508 H 325.117 3.67306 1.96151 0
M  V30 3509 H 327.714 2.75046 4.58534 0
M  V30 3510 H 328.057 1.13966 4.00397 0
M  V30 3511 H 328.59 2.54837 3.05455 0
M  V30 3512 H 325.329 5.5027 3.56207 0
M  V30 3513 H 324.849 4.03241 4.44024 0
M  V30 3514 H 326.528 4.62006 4.52946 0
M  V30 3515 N 326.66 -1.06551 1.16123 0
M  V30 3516 C 327.906 -1.79567 0.94252 0
M  V30 3517 C 328.239 -1.86869 -0.528547 0
M  V30 3518 O 327.514 -1.35838 -1.39206 0
M  V30 3519 C 327.797 -3.24195 1.56747 0
M  V30 3520 C 327.65 -3.24989 3.10969 0
M  V30 3521 C 328.969 -4.21678 1.25998 0
M  V30 3522 H 326.088 -0.651883 0.343828 0
M  V30 3523 H 328.73 -1.2463 1.43413 0
M  V30 3524 H 326.88 -3.71107 1.14942 0
M  V30 3525 H 328.552 -2.86258 3.61737 0
M  V30 3526 H 326.795 -2.63716 3.44436 0
M  V30 3527 H 327.466 -4.27005 3.49815 0
M  V30 3528 H 329.942 -3.83196 1.62174 0
M  V30 3529 H 328.818 -5.21146 1.7233 0
M  V30 3530 H 329.079 -4.4174 0.178367 0
M  V30 3531 N 328.138 -0.959301 -1.25041 0
M  V30 3532 C 329.068 -0.501388 -2.28053 0
M  V30 3533 C 330.049 0.454673 -1.63911 0
M  V30 3534 O 331.234 0.352618 -1.90972 0
M  V30 3535 C 328.364 0.217224 -3.4662 0
M  V30 3536 C 327.318 -0.654034 -4.22973 0
M  V30 3537 C 326.644 0.195589 -5.34342 0
M  V30 3538 C 327.944 -1.93447 -4.85155 0
M  V30 3539 H 329.638 -1.36238 -2.66608 0
M  V30 3540 H 327.184 -0.656534 -1.28163 0
M  V30 3541 H 329.137 0.548732 -4.17812 0
M  V30 3542 H 327.861 1.1125 -3.07068 0
M  V30 3543 H 326.52 -0.968693 -3.5357 0
M  V30 3544 H 326.168 1.09076 -4.91031 0
M  V30 3545 H 325.868 -0.384091 -5.86343 0
M  V30 3546 H 327.392 0.521958 -6.08365 0
M  V30 3547 H 328.806 -1.66908 -5.48466 0
M  V30 3548 H 327.203 -2.46018 -5.47353 0
M  V30 3549 H 328.273 -2.63466 -4.07079 0
M  V30 3550 N 329.616 1.39756 -0.72842 0
M  V30 3551 C 330.566 2.2792 -0.0603424 0
M  V30 3552 C 331.55 1.43922 0.719399 0
M  V30 3553 O 332.742 1.66895 0.589489 0
M  V30 3554 C 329.871 3.32582 0.851104 0
M  V30 3555 C 328.957 4.24049 0.0658641 0
M  V30 3556 N 329.348 4.96653 -0.957578 0
M  V30 3557 C 327.646 4.45013 0.296509 0
M  V30 3558 C 328.347 5.63836 -1.43052 0
M  V30 3559 N 327.323 5.38397 -0.750315 0
M  V30 3560 H 331.125 2.81504 -0.84455 0
M  V30 3561 H 328.639 1.5236 -0.562155 0
M  V30 3562 H 330.636 3.94603 1.34514 0
M  V30 3563 H 329.296 2.80558 1.63454 0
M  V30 3564 H 330.307 5.00297 -1.33877 0
M  V30 3565 H 326.984 4.03943 1.05527 0
M  V30 3566 H 328.374 6.31974 -2.28163 0
M  V30 3567 N 331.094 0.475555 1.50254 0
M  V30 3568 C 332.34 -0.0780073 2.0265 0
M  V30 3569 C 332.673 -1.38968 1.35652 0
M  V30 3570 O 331.948 -1.8839 0.483691 0
M  V30 3571 C 332.231 -0.257161 3.59181 0
M  V30 3572 C 332.084 1.07585 4.36744 0
M  V30 3573 C 333.403 -1.00965 4.28362 0
M  V30 3574 H 330.522 -0.0268758 0.73651 0
M  V30 3575 H 333.164 0.622015 1.7953 0
M  V30 3576 H 331.314 -0.853412 3.79011 0
M  V30 3577 H 332.986 1.70902 4.28474 0
M  V30 3578 H 331.229 1.6714 4.00308 0
M  V30 3579 H 331.9 0.904088 5.44546 0
M  V30 3580 H 334.376 -0.504214 4.13034 0
M  V30 3581 H 333.252 -1.10381 5.37687 0
M  V30 3582 H 333.513 -2.04731 3.91839 0
M  V30 3583 N 332.573 -1.56217 0.208337 0
M  V30 3584 C 333.503 -2.22694 -0.702116 0
M  V30 3585 C 334.484 -1.19432 -1.2112 0
M  V30 3586 O 335.669 -1.47978 -1.25762 0
M  V30 3587 C 332.799 -2.8966 -1.9161 0
M  V30 3588 C 331.753 -3.9928 -1.5414 0
M  V30 3589 C 331.079 -4.53476 -2.83308 0
M  V30 3590 C 332.379 -5.17012 -0.741339 0
M  V30 3591 H 334.073 -2.99034 -0.147898 0
M  V30 3592 H 331.619 -1.43831 -0.0696951 0
M  V30 3593 H 333.572 -3.34852 -2.55836 0
M  V30 3594 H 332.296 -2.10746 -2.49507 0
M  V30 3595 H 330.955 -3.54799 -0.922668 0
M  V30 3596 H 330.603 -3.71308 -3.39322 0
M  V30 3597 H 330.303 -5.27451 -2.58976 0
M  V30 3598 H 331.827 -5.01378 -3.485 0
M  V30 3599 H 333.241 -5.58667 -1.28699 0
M  V30 3600 H 331.638 -5.97137 -0.595627 0
M  V30 3601 H 332.708 -4.8423 0.254851 0
M  V30 3602 N 334.051 0.0651679 -1.57465 0
M  V30 3603 C 335.001 1.0838 -2.00594 0
M  V30 3604 C 335.985 1.34106 -0.889071 0
M  V30 3605 O 337.177 1.34295 -1.15299 0
M  V30 3606 C 334.306 2.39565 -2.45894 0
M  V30 3607 C 333.392 2.17085 -3.64328 0
M  V30 3608 N 333.783 1.64553 -4.78285 0
M  V30 3609 C 332.081 2.4753 -3.71006 0
M  V30 3610 C 332.782 1.57042 -5.60101 0
M  V30 3611 N 331.758 2.03328 -5.04141 0
M  V30 3612 H 335.56 0.671062 -2.86136 0
M  V30 3613 H 333.074 0.27213 -1.60104 0
M  V30 3614 H 335.071 3.13308 -2.75034 0
M  V30 3615 H 333.731 2.81549 -1.61741 0
M  V30 3616 H 334.742 1.33323 -5.00445 0
M  V30 3617 H 331.419 2.92835 -2.9758 0
M  V30 3618 H 332.809 1.17223 -6.61595 0
M  V30 3619 N 335.529 1.53961 0.336706 0
M  V30 3620 C 336.769 1.73254 1.08454 0
M  V30 3621 C 337.133 0.488937 1.8567 0
M  V30 3622 O 338.334 0.559001 2.62923 0
M  V30 3623 C 336.605 2.96519 1.99528 0
M  V30 3624 S 338.164 3.36655 2.81441 0
M  V30 3625 H 334.982 0.609353 0.366347 0
M  V30 3626 H 337.584 1.92117 0.362124 0
M  V30 3627 H 336.288 3.85193 1.41614 0
M  V30 3628 H 335.819 2.80142 2.76196 0
M  V30 3629 H 337.834 2.90925 4.01967 0
M  V30 3630 N 337.007 -0.598083 1.45811 0
M  V30 3631 C 337.937 -1.71873 1.58057 0
M  V30 3632 C 338.918 -1.64533 0.431615 0
M  V30 3633 O 340.103 -1.82787 0.65595 0
M  V30 3634 C 337.233 -3.10495 1.55597 0
M  V30 3635 C 336.187 -3.32654 2.69305 0
M  V30 3636 C 335.513 -4.71646 2.51902 0
M  V30 3637 C 336.813 -3.21981 4.11248 0
M  V30 3638 H 338.507 -1.61881 2.51863 0
M  V30 3639 H 336.053 -0.777372 1.21214 0
M  V30 3640 H 338.006 -3.88699 1.6276 0
M  V30 3641 H 336.73 -3.2135 0.583255 0
M  V30 3642 H 335.389 -2.56843 2.61586 0
M  V30 3643 H 335.037 -4.79246 1.52748 0
M  V30 3644 H 334.737 -4.87426 3.2816 0
M  V30 3645 H 336.261 -5.52038 2.60933 0
M  V30 3646 H 337.675 -3.90049 4.20161 0
M  V30 3647 H 336.072 -3.49289 4.87972 0
M  V30 3648 H 337.142 -2.1928 4.32486 0
M  V30 3649 N 338.485 -1.33259 -0.841409 0
M  V30 3650 C 339.435 -1.19872 -1.93945 0
M  V30 3651 C 340.419 -0.102269 -1.60575 0
M  V30 3652 O 341.611 -0.330114 -1.73894 0
M  V30 3653 C 338.74 -0.937517 -3.30251 0
M  V30 3654 C 337.826 -2.07629 -3.69799 0
M  V30 3655 N 338.217 -3.32604 -3.81062 0
M  V30 3656 C 336.515 -1.98242 -3.9952 0
M  V30 3657 C 337.216 -4.07275 -4.15333 0
M  V30 3658 N 336.192 -3.35691 -4.27566 0
M  V30 3659 H 339.994 -2.14604 -2.00805 0
M  V30 3660 H 337.508 -1.2523 -1.03398 0
M  V30 3661 H 339.505 -0.822545 -4.08705 0
M  V30 3662 H 338.165 0.00128798 -3.247 0
M  V30 3663 H 339.176 -3.67382 -3.65035 0
M  V30 3664 H 335.853 -1.12005 -4.02195 0
M  V30 3665 H 337.243 -5.1511 -4.31406 0
M  V30 3666 N 339.963 1.05934 -1.16686 0
M  V30 3667 C 341.188 1.83029 -0.975455 0
M  V30 3668 C 341.613 1.82096 0.471452 0
M  V30 3669 O 340.971 1.22443 1.33706 0
M  V30 3670 C 341.019 3.27372 -1.51195 0
M  V30 3671 O 340.123 4.06054 -0.720701 0
M  V30 3672 H 339.464 0.566194 -0.346872 0
M  V30 3673 H 341.994 1.33541 -1.55009 0
M  V30 3674 H 342.004 3.78186 -1.53099 0
M  V30 3675 H 340.679 3.27366 -2.56523 0
M  V30 3676 H 339.256 3.64812 -0.772458 0
M  V30 3677 N 341.441 0.965919 1.2453 0
M  V30 3678 C 342.371 0.513476 2.27784 0
M  V30 3679 C 343.352 -0.445974 1.6415 0
M  V30 3680 O 344.537 -0.342485 1.91156 0
M  V30 3681 C 341.667 -0.198839 3.4673 0
M  V30 3682 C 340.621 0.676456 4.2262 0
M  V30 3683 C 339.947 -0.167248 5.34438 0
M  V30 3684 C 341.247 1.96017 4.84123 0
M  V30 3685 H 342.941 1.3765 2.65881 0
M  V30 3686 H 340.487 0.663321 1.27813 0
M  V30 3687 H 342.44 -0.526567 4.18097 0
M  V30 3688 H 341.164 -1.0962 3.07654 0
M  V30 3689 H 339.823 0.98743 3.53052 0
M  V30 3690 H 339.471 -1.0647 4.91603 0
M  V30 3691 H 339.171 0.415181 5.86131 0
M  V30 3692 H 340.695 -0.489688 6.08633 0
M  V30 3693 H 342.109 1.69814 5.47573 0
M  V30 3694 H 340.506 2.48918 5.4604 0
M  V30 3695 H 341.576 2.65622 4.05676 0
M  V30 3696 N 342.919 -1.39368 0.735821 0
M  V30 3697 C 343.882 -2.2896 0.104874 0
M  V30 3698 C 344.882 -1.46347 -0.666274 0
M  V30 3699 O 346.072 -1.67014 -0.49517 0
M  V30 3700 C 343.204 -3.29857 -0.860656 0
M  V30 3701 H 344.397 -2.86259 0.894205 0
M  V30 3702 H 341.95 -1.48029 0.501704 0
M  V30 3703 H 342.685 -2.77615 -1.67631 0
M  V30 3704 H 342.47 -3.9087 -0.310327 0
M  V30 3705 H 343.96 -3.96893 -1.29867 0
M  V30 3706 N 344.397 -0.483516 -1.5 0
M  V30 3707 C 345.646 0.0689102 -2.01582 0
M  V30 3708 C 345.959 1.39655 -1.36952 0
M  V30 3709 O 347.165 2.03465 -1.79762 0
M  V30 3710 C 345.621 0.173302 -3.59483 0
M  V30 3711 C 345.229 -1.14665 -4.33077 0
M  V30 3712 C 346.973 0.677024 -4.19066 0
M  V30 3713 C 344.88 -1.00537 -5.82792 0
M  V30 3714 H 343.81 0.0295277 -0.753422 0
M  V30 3715 H 346.461 -0.620295 -1.72698 0
M  V30 3716 H 344.843 0.926569 -3.85007 0
M  V30 3717 H 346.017 -1.91184 -4.19268 0
M  V30 3718 H 344.332 -1.58244 -3.85159 0
M  V30 3719 H 346.929 0.799952 -5.28682 0
M  V30 3720 H 347.272 1.67151 -3.81269 0
M  V30 3721 H 347.805 -0.0192083 -3.97795 0
M  V30 3722 H 344.544 -1.9736 -6.25083 0
M  V30 3723 H 344.064 -0.280776 -5.99142 0
M  V30 3724 H 345.743 -0.677 -6.43448 0
M  V30 3725 N 345.875 1.56104 -0.216619 0
M  V30 3726 C 347.286 1.844 0.292128 0
M  V30 3727 C 347.637 1.13788 1.59833 0
M  V30 3728 O 346.762 0.405888 2.12559 0
M  V30 3729 C 347.357 3.3452 0.53681 0
M  V30 3730 C 345.916 3.63151 0.989876 0
M  V30 3731 C 345.063 2.77255 0.0502302 0
M  V30 3732 H 348.014 1.52481 -0.439926 0
M  V30 3733 H 348.035 3.54459 1.38345 0
M  V30 3734 H 347.547 3.85885 -0.414031 0
M  V30 3735 H 345.648 3.17238 1.95425 0
M  V30 3736 H 345.761 4.71177 0.867698 0
M  V30 3737 H 344.125 2.48555 0.556117 0
M  V30 3738 H 344.908 3.31416 -0.89544 0
M  V30 3739 N 347.353 -0.0568162 1.57498 0
M  V30 3740 C 348.593 -0.758273 1.89815 0
M  V30 3741 C 348.957 -1.73978 0.812132 0
M  V30 3742 O 350.158 -2.48744 1.01881 0
M  V30 3743 C 348.429 -1.43465 3.27342 0
M  V30 3744 S 349.988 -2.1691 3.81439 0
M  V30 3745 H 346.806 -0.251836 0.664906 0
M  V30 3746 H 349.408 -0.0137997 1.95495 0
M  V30 3747 H 348.112 -0.706693 4.0427 0
M  V30 3748 H 347.643 -2.21825 3.24896 0
M  V30 3749 H 349.658 -3.43658 3.5793 0
M  V30 3750 N 348.832 -1.54138 -0.328536 0
M  V30 3751 C 349.78 -1.83894 -1.42428 0
M  V30 3752 C 350.774 -0.710478 -1.53781 0
M  V30 3753 O 351.98 -0.894062 -1.56226 0
M  V30 3754 H 348.355 -0.582837 -0.475189 0
M  V30 3755 H 350.326 -2.75537 -1.14552 0
M  V30 3756 C 349.075 -2.07866 -2.78724 0
M  V30 3757 H 348.398 -2.94158 -2.7076 0
M  V30 3758 H 349.838 -2.32644 -3.54476 0
M  V30 3759 C 348.297 -0.868689 -3.25508 0
M  V30 3760 O 348.827 -0.0754908 -4.01629 0
M  V30 3761 N 347.033 -0.681711 -2.82491 0
M  V30 3762 H 346.58 -1.32838 -2.20708 0
M  V30 3763 H 346.538 0.126374 -3.14146 0
M  V30 3764 N 350.31 0.590341 -1.46126 0
M  V30 3765 C 351.258 1.72105 -1.5647 0
M  V30 3766 C 352.252 1.63756 -0.433612 0
M  V30 3767 O 353.458 1.69342 -0.610194 0
M  V30 3768 H 349.833 0.568889 -0.491802 0
M  V30 3769 H 351.804 1.6051 -2.51553 0
M  V30 3770 C 350.553 3.10493 -1.56491 0
M  V30 3771 H 349.876 3.17583 -2.4286 0
M  V30 3772 H 351.316 3.8939 -1.67785 0
M  V30 3773 C 349.775 3.3563 -0.292231 0
M  V30 3774 O 350.305 3.96875 0.620739 0
M  V30 3775 N 348.511 2.90026 -0.182523 0
M  V30 3776 H 348.058 2.40367 -0.926356 0
M  V30 3777 H 348.016 3.07218 0.668152 0
M  V30 3778 N 351.788 1.33704 0.83433 0
M  V30 3779 C 353.034 1.25603 1.59222 0
M  V30 3780 C 353.367 -0.176659 1.93395 0
M  V30 3781 O 352.642 -1.11915 1.59076 0
M  V30 3782 C 352.925 2.13576 2.89926 0
M  V30 3783 C 352.778 3.65326 2.62406 0
M  V30 3784 C 354.097 2.01238 3.91397 0
M  V30 3785 H 351.216 0.457613 0.577719 0
M  V30 3786 H 353.858 1.63848 0.961972 0
M  V30 3787 H 352.008 1.8109 3.43713 0
M  V30 3788 H 353.68 4.08124 2.15017 0
M  V30 3789 H 351.923 3.8698 1.96033 0
M  V30 3790 H 352.594 4.22232 3.55562 0
M  V30 3791 H 355.07 2.29738 3.46929 0
M  V30 3792 H 353.946 2.65036 4.80673 0
M  V30 3793 H 354.207 0.985951 4.30966 0
M  V30 3794 N 353.266 -1.05314 1.17247 0
M  V30 3795 C 354.176 -2.16538 0.90268 0
M  V30 3796 C 355.192 -1.73523 -0.128707 0
M  V30 3797 O 356.368 -2.01337 0.0502701 0
M  V30 3798 C 353.433 -3.44167 0.418356 0
M  V30 3799 C 352.494 -4.01635 1.51618 0
M  V30 3800 C 351.727 -5.23171 1.05487 0
M  V30 3801 O 351.95 -5.70327 -0.0914715 0
M  V30 3802 O 350.884 -5.72848 1.8474 0
M  V30 3803 H 354.71 -2.42145 1.83302 0
M  V30 3804 H 352.295 -1.15037 0.953246 0
M  V30 3805 H 354.177 -4.21112 0.155726 0
M  V30 3806 H 352.852 -3.20063 -0.48385 0
M  V30 3807 H 351.759 -3.26135 1.83268 0
M  V30 3808 H 353.092 -4.30053 2.39405 0
M  V30 3809 N 354.744 -0.972509 -1.24016 0
M  V30 3810 C 355.99 -0.637978 -1.92504 0
M  V30 3811 C 356.323 0.825383 -1.75787 0
M  V30 3812 O 355.598 1.59442 -1.11393 0
M  V30 3813 C 355.881 -1.01942 -3.45369 0
M  V30 3814 C 355.734 -2.53983 -3.71231 0
M  V30 3815 C 357.053 -0.55751 -4.36555 0
M  V30 3816 H 354.172 -0.233248 -0.699117 0
M  V30 3817 H 356.814 -1.21238 -1.46292 0
M  V30 3818 H 354.964 -0.530656 -3.84859 0
M  V30 3819 H 356.636 -3.10374 -3.41271 0
M  V30 3820 H 354.879 -2.96968 -3.16216 0
M  V30 3821 H 355.55 -2.75723 -4.78206 0
M  V30 3822 H 358.026 -0.977029 -4.04467 0
M  V30 3823 H 356.902 -0.85292 -5.42233 0
M  V30 3824 H 357.163 0.542328 -4.38761 0
M  V30 3825 N 356.222 1.38976 -0.743202 0
M  V30 3826 C 357.152 2.33171 -0.123873 0
M  V30 3827 C 358.133 1.54336 0.71516 0
M  V30 3828 O 359.318 1.82696 0.658467 0
M  V30 3829 C 356.448 3.38474 0.777978 0
M  V30 3830 C 355.402 4.27979 0.0424758 0
M  V30 3831 C 354.728 5.2405 1.06189 0
M  V30 3832 C 356.028 5.10155 -1.1198 0
M  V30 3833 H 357.722 2.85213 -0.910709 0
M  V30 3834 H 355.268 1.37133 -0.439388 0
M  V30 3835 H 357.221 4.03328 1.22084 0
M  V30 3836 H 355.945 2.84891 1.59702 0
M  V30 3837 H 354.604 3.64616 -0.380853 0
M  V30 3838 H 354.252 4.66758 1.87472 0
M  V30 3839 H 353.952 5.84785 0.574485 0
M  V30 3840 H 355.476 5.9178 1.50428 0
M  V30 3841 H 356.89 5.68307 -0.75499 0
M  V30 3842 H 355.287 5.80073 -1.53738 0
M  V30 3843 H 356.357 4.44504 -1.93764 0
M  V30 3844 N 357.7 0.491464 1.49741 0
M  V30 3845 C 358.633 -0.338464 2.25676 0
M  V30 3846 C 359.611 -0.978676 1.29849 0
M  V30 3847 O 360.795 -1.01064 1.59117 0
M  V30 3848 C 357.922 -1.47588 3.04853 0
M  V30 3849 C 356.968 -0.951 4.15762 0
M  V30 3850 S 357.801 0.150626 5.35288 0
M  V30 3851 C 358.957 -0.990178 6.18018 0
M  V30 3852 H 359.19 0.306068 2.9572 0
M  V30 3853 H 356.723 0.276622 1.51902 0
M  V30 3854 H 358.681 -2.12764 3.51058 0
M  V30 3855 H 357.342 -2.09199 2.34296 0
M  V30 3856 H 356.535 -1.80311 4.70642 0
M  V30 3857 H 356.137 -0.376607 3.72099 0
M  V30 3858 H 358.429 -1.89748 6.50386 0
M  V30 3859 H 359.372 -0.480205 7.0647 0
M  V30 3860 H 359.78 -1.25321 5.50413 0
M  V30 3861 N 359.178 -1.55987 0.224894 0
M  V30 3862 C 360.403 -2.03232 -0.41369 0
M  V30 3863 C 360.828 -1.10359 -1.52323 0
M  V30 3864 O 360.186 -0.092395 -1.81064 0
M  V30 3865 C 360.234 -3.48682 -0.919405 0
M  V30 3866 O 359.338 -3.58947 -2.03054 0
M  V30 3867 H 358.679 -0.657428 -0.0931903 0
M  V30 3868 H 361.209 -2.01679 0.34451 0
M  V30 3869 H 361.219 -3.8907 -1.22835 0
M  V30 3870 H 359.894 -4.15761 -0.107339 0
M  V30 3871 H 358.471 -3.30448 -1.72796 0
M  V30 3872 N 360.656 0.0484629 -1.57525 0
M  V30 3873 C 361.904 0.741657 -1.88 0
M  V30 3874 C 362.225 1.76918 -0.820054 0
M  V30 3875 O 361.495 1.95335 0.148661 0
M  V30 3876 H 360.075 0.276908 -0.69378 0
M  V30 3877 H 362.737 0.019013 -1.94891 0
M  V30 3878 H 361.833 1.24336 -2.86264 0
M  V30 3879 N 362.134 1.5431 0.320358 0
M  V30 3880 C 363.082 1.84647 1.4145 0
M  V30 3881 C 364.076 0.718624 1.53402 0
M  V30 3882 O 365.282 0.902335 1.5575 0
M  V30 3883 H 361.657 0.585349 0.472091 0
M  V30 3884 H 363.628 2.7614 1.13089 0
M  V30 3885 C 362.377 2.09341 2.77617 0
M  V30 3886 H 361.7 2.9559 2.69196 0
M  V30 3887 H 363.14 2.3452 3.53237 0
M  V30 3888 C 361.599 0.885939 3.25043 0
M  V30 3889 O 362.129 0.0967891 4.01583 0
M  V30 3890 N 360.335 0.696682 2.82125 0
M  V30 3891 H 359.882 1.34006 2.2 0
M  V30 3892 H 359.84 -0.109712 3.14209 0
M  V30 3893 N 363.613 -0.582584 1.46437 0
M  V30 3894 C 364.859 -1.34278 1.51978 0
M  V30 3895 C 365.192 -1.93446 0.170973 0
M  V30 3896 O 364.467 -1.76481 -0.817608 0
M  V30 3897 C 364.75 -2.47203 2.61845 0
M  V30 3898 C 364.603 -1.93069 4.06257 0
M  V30 3899 C 365.922 -3.49247 2.67795 0
M  V30 3900 H 363.041 -0.486876 0.553282 0
M  V30 3901 H 365.683 -0.654437 1.78374 0
M  V30 3902 H 363.833 -3.0592 2.39469 0
M  V30 3903 H 365.505 -1.38808 4.3992 0
M  V30 3904 H 363.748 -1.23898 4.1573 0
M  V30 3905 H 364.419 -2.74586 4.7886 0
M  V30 3906 H 366.895 -3.00411 2.8791 0
M  V30 3907 H 365.771 -4.25719 3.46489 0
M  V30 3908 H 366.032 -4.06482 1.73852 0
M  V30 3909 N 365.091 -1.34144 -0.827227 0
M  V30 3910 C 366.507 -1.13732 -1.11969 0
M  V30 3911 C 366.707 0.0640463 -2.01398 0
M  V30 3912 O 365.763 0.740856 -2.41387 0
M  V30 3913 C 367.076 -2.43047 -1.77055 0
M  V30 3914 C 368.624 -2.49063 -1.89569 0
M  V30 3915 C 369.099 -3.78369 -2.58072 0
M  V30 3916 N 370.59 -3.79505 -2.65575 0
M  V30 3917 C 371.325 -4.76274 -3.19297 0
M  V30 3918 N 370.821 -5.83424 -3.73616 0
M  V30 3919 N 372.614 -4.63735 -3.17658 0
M  V30 3920 H 364.765 -2.11126 -0.232296 0
M  V30 3921 H 367.028 -0.933424 -0.165602 0
M  V30 3922 H 366.734 -3.31025 -1.18807 0
M  V30 3923 H 366.608 -2.56066 -2.76966 0
M  V30 3924 H 368.995 -1.61527 -2.46968 0
M  V30 3925 H 369.076 -2.39975 -0.885745 0
M  V30 3926 H 368.72 -4.66293 -2.01329 0
M  V30 3927 H 368.65 -3.84737 -3.59562 0
M  V30 3928 H 371.141 -3.02074 -2.27068 0
M  V30 3929 H 371.454 -6.53282 -4.12846 0
M  V30 3930 H 369.799 -5.87143 -3.71871 0
M  V30 3931 H 372.99 -3.79177 -2.74486 0
M  V30 3932 H 373.163 -5.39318 -3.59221 0
M  V30 3933 N 366.569 1.04691 -1.17803 0
M  V30 3934 C 367.809 1.79352 -0.980423 0
M  V30 3935 C 368.173 1.85853 0.481958 0
M  V30 3936 O 369.374 2.56656 0.798809 0
M  V30 3937 C 367.645 3.19088 -1.6099 0
M  V30 3938 S 369.204 4.10164 -1.55918 0
M  V30 3939 H 366.022 0.617631 -0.352211 0
M  V30 3940 H 368.624 1.25575 -1.49837 0
M  V30 3941 H 367.328 3.11962 -2.66661 0
M  V30 3942 H 366.859 3.77941 -1.09197 0
M  V30 3943 H 368.874 4.92907 -0.570685 0
M  V30 3944 N 368.047 0.979072 1.23499 0
M  V30 3945 C 369.277 0.664237 1.95631 0
M  V30 3946 C 369.685 -0.772653 1.72704 0
M  V30 3947 O 369.028 -1.53141 1.01457 0
M  V30 3948 C 369.09 0.873115 3.48736 0
M  V30 3949 C 368.754 2.29182 3.95379 0
M  V30 3950 C 369.751 3.2704 4.04155 0
M  V30 3951 C 367.436 2.62256 4.28401 0
M  V30 3952 C 369.43 4.56052 4.45304 0
M  V30 3953 C 367.117 3.91491 4.69231 0
M  V30 3954 C 368.115 4.88201 4.77649 0
M  V30 3955 O 367.803 6.15129 5.17563 0
M  V30 3956 H 367.535 0.245915 0.629684 0
M  V30 3957 H 370.089 1.3127 1.57979 0
M  V30 3958 H 368.319 0.167476 3.86337 0
M  V30 3959 H 370.008 0.555642 4.02079 0
M  V30 3960 H 370.774 3.02819 3.78848 0
M  V30 3961 H 366.653 1.87692 4.21061 0
M  V30 3962 H 370.197 5.31538 4.51789 0
M  V30 3963 H 366.094 4.15508 4.93987 0
M  V30 3964 H 366.862 6.18862 5.35679 0
M  V30 3965 N 369.525 -1.3858 0.750561 0
M  V30 3966 C 370.473 -2.32339 0.110162 0
M  V30 3967 C 371.467 -1.53864 -0.708674 0
M  V30 3968 O 372.673 -1.69417 -0.608112 0
M  V30 3969 H 369.048 -0.751812 0.0168275 0
M  V30 3970 H 371.019 -2.83959 0.917053 0
M  V30 3971 C 369.768 -3.39043 -0.771067 0
M  V30 3972 H 369.091 -3.99517 -0.150374 0
M  V30 3973 H 370.531 -4.07061 -1.1865 0
M  V30 3974 C 368.99 -2.77365 -1.91234 0
M  V30 3975 O 369.52 -2.66434 -3.00626 0
M  V30 3976 N 367.726 -2.35219 -1.70646 0
M  V30 3977 H 367.273 -2.4431 -0.81673 0
M  V30 3978 H 367.231 -1.94294 -2.47178 0
M  V30 3979 N 371.003 -0.499398 -1.49478 0
M  V30 3980 C 372.252 0.0475259 -2.01644 0
M  V30 3981 C 372.565 1.38195 -1.38425 0
M  V30 3982 O 373.771 2.01547 -1.8191 0
M  V30 3983 C 372.227 0.135164 -3.59646 0
M  V30 3984 C 371.835 -1.19252 -4.31837 0
M  V30 3985 C 373.579 0.632538 -4.19761 0
M  V30 3986 C 371.486 -1.06713 -5.81693 0
M  V30 3987 H 370.416 0.0215349 -0.753692 0
M  V30 3988 H 373.067 -0.638577 -1.7203 0
M  V30 3989 H 371.449 0.885681 -3.85969 0
M  V30 3990 H 372.623 -1.9562 -4.17216 0
M  V30 3991 H 370.938 -1.62321 -3.83459 0
M  V30 3992 H 373.535 0.743833 -5.29501 0
M  V30 3993 H 373.878 1.63098 -3.83021 0
M  V30 3994 H 374.411 -0.0613987 -3.97753 0
M  V30 3995 H 371.15 -2.03979 -6.22955 0
M  V30 3996 H 370.67 -0.344307 -5.98811 0
M  V30 3997 H 372.349 -0.745208 -6.42694 0
M  V30 3998 N 372.481 1.55866 -0.233164 0
M  V30 3999 C 373.727 1.98897 0.395959 0
M  V30 4000 C 374.06 1.12091 1.58585 0
M  V30 4001 O 373.335 0.181182 1.93654 0
M  V30 4002 C 373.618 3.50658 0.819224 0
M  V30 4003 C 373.471 4.48233 -0.375109 0
M  V30 4004 C 374.79 4.07135 1.67121 0
M  V30 4005 H 371.909 0.723102 0.142451 0
M  V30 4006 H 374.551 1.87082 -0.331725 0
M  V30 4007 H 372.701 3.60857 1.43925 0
M  V30 4008 H 374.373 4.50031 -1.01341 0
M  V30 4009 H 372.616 4.21624 -1.02058 0
M  V30 4010 H 373.287 5.51988 -0.0358328 0
M  V30 4011 H 375.763 3.99952 1.14795 0
M  V30 4012 H 374.639 5.13615 1.93625 0
M  V30 4013 H 374.9 3.54736 2.63846 0
M  V30 4014 N 373.959 -0.0401083 1.57549 0
M  V30 4015 C 375.205 -0.734211 1.89043 0
M  V30 4016 C 375.538 -1.75591 0.829535 0
M  V30 4017 O 374.813 -1.93868 -0.156706 0
M  V30 4018 C 375.096 -1.41374 3.31188 0
M  V30 4019 C 374.949 -0.406299 4.47961 0
M  V30 4020 C 376.268 -2.35061 3.72068 0
M  V30 4021 H 373.387 -0.265447 0.687537 0
M  V30 4022 H 376.029 0.00294087 1.9 0
M  V30 4023 H 374.179 -2.04206 3.30503 0
M  V30 4024 H 375.851 0.219255 4.60779 0
M  V30 4025 H 374.094 0.275485 4.32924 0
M  V30 4026 H 374.765 -0.920022 5.44279 0
M  V30 4027 H 377.241 -1.82282 3.74049 0
M  V30 4028 H 376.117 -2.79593 4.72355 0
M  V30 4029 H 376.378 -3.21258 3.0372 0
M  V30 4030 N 375.437 -1.54477 -0.31217 0
M  V30 4031 C 376.347 -1.87695 -1.4074 0
M  V30 4032 C 377.363 -0.769975 -1.56036 0
M  V30 4033 O 378.539 -1.06537 -1.70915 0
M  V30 4034 C 375.604 -2.10755 -2.75287 0
M  V30 4035 C 374.665 -3.34514 -2.69071 0
M  V30 4036 C 373.898 -3.56465 -3.97201 0
M  V30 4037 O 374.121 -2.81637 -4.96021 0
M  V30 4038 O 373.055 -4.49964 -3.9977 0
M  V30 4039 H 376.881 -2.80849 -1.15574 0
M  V30 4040 H 374.466 -1.40526 -0.507228 0
M  V30 4041 H 376.348 -2.27188 -3.54913 0
M  V30 4042 H 375.023 -1.20788 -3.0032 0
M  V30 4043 H 373.93 -3.23456 -1.87955 0
M  V30 4044 H 375.263 -4.24575 -2.48992 0
M  V30 4045 N 376.915 0.57481 -1.46744 0
M  V30 4046 C 377.878 1.66533 -1.57478 0
M  V30 4047 C 378.878 1.54338 -0.451263 0
M  V30 4048 O 380.068 1.58814 -0.715813 0
M  V30 4049 C 377.2 3.05999 -1.50259 0
M  V30 4050 H 378.393 1.58372 -2.54673 0
M  V30 4051 H 375.946 0.793301 -1.34672 0
M  V30 4052 H 376.681 3.19709 -0.543725 0
M  V30 4053 H 376.466 3.16259 -2.31781 0
M  V30 4054 H 377.956 3.8537 -1.60872 0
M  V30 4055 N 378.394 1.34581 0.820102 0
M  V30 4056 C 379.327 1.20735 1.93644 0
M  V30 4057 C 380.305 0.0983343 1.62302 0
M  V30 4058 O 381.489 0.263997 1.86642 0
M  V30 4059 C 378.616 0.856037 3.27704 0
M  V30 4060 C 377.662 1.97521 3.78005 0
M  V30 4061 S 378.495 3.58906 3.97425 0
M  V30 4062 C 379.651 3.25822 5.34407 0
M  V30 4063 H 379.884 2.15231 2.05093 0
M  V30 4064 H 377.417 1.1964 0.97599 0
M  V30 4065 H 379.375 0.660133 4.05157 0
M  V30 4066 H 378.036 -0.0706253 3.14021 0
M  V30 4067 H 377.229 1.68321 4.75062 0
M  V30 4068 H 376.831 2.12875 3.07507 0
M  V30 4069 H 379.123 2.77812 6.17922 0
M  V30 4070 H 380.066 4.22029 5.68592 0
M  V30 4071 H 380.474 2.61932 5.00052 0
M  V30 4072 N 379.872 -1.04064 1.18357 0
M  V30 4073 C 380.819 -2.12077 0.910603 0
M  V30 4074 C 381.789 -1.65421 -0.15 0
M  V30 4075 O 382.974 -1.90797 -0.0103614 0
M  V30 4076 C 380.114 -3.42252 0.442472 0
M  V30 4077 C 379.227 -4.0252 1.5685 0
M  V30 4078 C 378.362 -5.20657 1.05309 0
M  V30 4079 C 377.401 -5.72955 2.1538 0
M  V30 4080 N 376.538 -6.8238 1.65233 0
M  V30 4081 H 381.378 -2.34764 1.83548 0
M  V30 4082 H 378.915 -1.15157 0.915279 0
M  V30 4083 H 380.873 -4.16921 0.152534 0
M  V30 4084 H 379.503 -3.19712 -0.445428 0
M  V30 4085 H 378.555 -3.25178 1.97391 0
M  V30 4086 H 379.867 -4.37362 2.39824 0
M  V30 4087 H 379.021 -6.0244 0.717677 0
M  V30 4088 H 377.76 -4.87318 0.19293 0
M  V30 4089 H 376.765 -4.89793 2.49766 0
M  V30 4090 H 377.99 -6.08337 3.01832 0
M  V30 4091 H 375.936 -6.50917 0.815064 0
M  V30 4092 H 375.853 -7.16286 2.41805 0
M  V30 4093 H 377.121 -7.67788 1.34619 0
M  V30 4094 N 381.35 -0.985608 -1.22978 0
M  V30 4095 C 382.313 -0.535071 -2.22867 0
M  V30 4096 C 383.313 0.378123 -1.56291 0
M  V30 4097 O 384.503 0.171092 -1.73358 0
M  V30 4098 C 381.635 0.222702 -3.40172 0
M  V30 4099 H 382.828 -1.41835 -2.6424 0
M  V30 4100 H 380.381 -0.772042 -1.35901 0
M  V30 4101 H 381.116 1.12229 -3.04262 0
M  V30 4102 H 380.901 -0.43288 -3.89703 0
M  V30 4103 H 382.391 0.526335 -4.1427 0
M  V30 4104 N 382.828 1.3818 -0.7579 0
M  V30 4105 C 384.075 2.00019 -0.315985 0
M  V30 4106 C 384.403 1.60163 1.10355 0
M  V30 4107 O 383.658 0.83264 1.77103 0
M  V30 4108 C 383.957 3.55252 -0.391218 0
M  V30 4109 C 383.623 4.14834 -1.76702 0
M  V30 4110 C 382.285 4.30821 -2.14353 0
M  V30 4111 C 384.637 4.47658 -2.66931 0
M  V30 4112 C 381.965 4.76928 -3.41696 0
M  V30 4113 C 384.317 4.95184 -3.93669 0
M  V30 4114 C 382.981 5.09377 -4.31383 0
M  V30 4115 H 382.251 0.731923 -0.115627 0
M  V30 4116 H 384.898 1.65161 -0.969223 0
M  V30 4117 H 383.203 3.90273 0.34558 0
M  V30 4118 H 384.9 4.00988 -0.030805 0
M  V30 4119 H 381.49 4.02808 -1.46435 0
M  V30 4120 H 385.674 4.34904 -2.39106 0
M  V30 4121 H 380.93 4.86103 -3.70829 0
M  V30 4122 H 385.104 5.19551 -4.63724 0
M  V30 4123 H 382.731 5.44865 -5.30119 0
M  V30 4124 N 384.306 0.507319 1.49211 0
M  V30 4125 C 385.717 0.0611118 1.866 0
M  V30 4126 C 386.068 -1.35488 1.41907 0
M  V30 4127 O 385.193 -2.0108 0.799726 0
M  V30 4128 C 385.788 0.104125 3.3864 0
M  V30 4129 C 384.347 -0.28677 3.75306 0
M  V30 4130 C 383.494 0.473893 2.73221 0
M  V30 4131 H 386.445 0.719775 1.41439 0
M  V30 4132 H 386.466 -0.689672 3.74198 0
M  V30 4133 H 385.978 1.13482 3.71138 0
M  V30 4134 H 384.079 -1.32046 3.48417 0
M  V30 4135 H 384.192 0.0370745 4.79086 0
M  V30 4136 H 382.556 -0.0770644 2.54583 0
M  V30 4137 H 383.339 1.50478 3.08563 0
M  V30 4138 N 385.784 -1.5574 0.241426 0
M  V30 4139 C 386.717 -2.17168 -0.700935 0
M  V30 4140 C 387.695 -1.12206 -1.1768 0
M  V30 4141 O 388.879 -1.40565 -1.25593 0
M  V30 4142 C 386.006 -2.76796 -1.95196 0
M  V30 4143 C 385.052 -3.94764 -1.61442 0
M  V30 4144 S 385.885 -5.30613 -0.72182 0
M  V30 4145 C 387.041 -5.93691 -1.98197 0
M  V30 4146 H 387.274 -2.96761 -0.178882 0
M  V30 4147 H 384.807 -1.54378 0.0259299 0
M  V30 4148 H 386.765 -3.11787 -2.67019 0
M  V30 4149 H 385.426 -1.9716 -2.44514 0
M  V30 4150 H 384.619 -4.35057 -2.54443 0
M  V30 4151 H 384.221 -3.61022 -0.976672 0
M  V30 4152 H 386.513 -6.10874 -2.92983 0
M  V30 4153 H 387.456 -6.89258 -1.62262 0
M  V30 4154 H 387.864 -5.22709 -2.13156 0
M  V30 4155 N 387.262 0.0317525 -1.57568 0
M  V30 4156 C 388.487 0.738664 -1.938 0
M  V30 4157 C 388.912 1.68242 -0.841208 0
M  V30 4158 O 388.27 1.80157 0.203267 0
M  V30 4159 C 388.318 1.47417 -3.29091 0
M  V30 4160 O 387.422 2.5872 -3.2115 0
M  V30 4161 H 386.763 0.198856 -0.633524 0
M  V30 4162 H 389.293 -0.0119713 -2.04596 0
M  V30 4163 H 389.303 1.84468 -3.63917 0
M  V30 4164 H 387.978 0.781988 -4.08482 0
M  V30 4165 H 386.555 2.24231 -2.97951 0
M  V30 4166 N 388.74 1.54641 0.303973 0
M  V30 4167 C 389.65 1.88439 1.39743 0
M  V30 4168 C 390.666 0.778239 1.55626 0
M  V30 4169 O 391.842 1.07442 1.70347 0
M  V30 4170 C 388.907 2.12212 2.74166 0
M  V30 4171 C 387.968 3.35936 2.67293 0
M  V30 4172 C 387.201 3.58566 3.95305 0
M  V30 4173 O 387.424 2.84263 4.9452 0
M  V30 4174 O 386.358 4.52078 3.97378 0
M  V30 4175 H 390.184 2.81458 1.14083 0
M  V30 4176 H 387.769 1.40793 0.499768 0
M  V30 4177 H 389.651 2.29067 3.53704 0
M  V30 4178 H 388.326 1.22379 2.99675 0
M  V30 4179 H 387.233 3.24448 1.86237 0
M  V30 4180 H 388.566 4.2589 2.46736 0
M  V30 4181 N 390.218 -0.567019 1.47046 0
M  V30 4182 C 391.634 -0.891975 1.32348 0
M  V30 4183 C 391.834 -1.99154 0.306616 0
M  V30 4184 O 390.89 -2.50883 -0.28532 0
M  V30 4185 C 392.203 -1.29449 2.7141 0
M  V30 4186 C 393.751 -1.40646 2.79621 0
M  V30 4187 C 394.226 -1.84257 4.19301 0
M  V30 4188 N 395.717 -1.91424 4.21795 0
M  V30 4189 C 396.452 -2.26476 5.26779 0
M  V30 4190 N 395.948 -2.60211 6.42077 0
M  V30 4191 N 397.741 -2.27166 5.14152 0
M  V30 4192 H 389.892 0.159074 2.11803 0
M  V30 4193 H 392.155 0.00849752 0.947962 0
M  V30 4194 H 391.861 -0.560448 3.47206 0
M  V30 4195 H 391.735 -2.25273 3.02542 0
M  V30 4196 H 394.122 -2.13133 2.04104 0
M  V30 4197 H 394.203 -0.430339 2.52154 0
M  V30 4198 H 393.847 -1.12343 4.95319 0
M  V30 4199 H 393.777 -2.82855 4.44185 0
M  V30 4200 H 396.268 -1.6778 3.38612 0
M  V30 4201 H 396.581 -2.85956 7.17948 0
M  V30 4202 H 394.926 -2.57813 6.45413 0
M  V30 4203 H 398.117 -2.00244 4.23107 0
M  V30 4204 H 398.29 -2.54154 5.96079 0
M  V30 4205 N 391.696 -1.35014 -0.812953 0
M  V30 4206 C 392.945 -1.27269 -1.56479 0
M  V30 4207 C 393.258 0.152771 -1.95002 0
M  V30 4208 O 394.464 0.352451 -2.69203 0
M  V30 4209 C 392.92 -2.23159 -2.82362 0
M  V30 4210 C 392.528 -3.71016 -2.511 0
M  V30 4211 C 394.272 -2.24342 -3.60376 0
M  V30 4212 C 392.179 -4.58746 -3.73237 0
M  V30 4213 H 391.109 -0.472829 -0.587324 0
M  V30 4214 H 393.76 -1.6024 -0.894171 0
M  V30 4215 H 392.142 -1.83151 -3.51101 0
M  V30 4216 H 393.316 -4.1962 -1.90409 0
M  V30 4217 H 391.631 -3.72378 -1.86343 0
M  V30 4218 H 394.228 -2.87107 -4.51081 0
M  V30 4219 H 394.571 -1.24542 -3.97234 0
M  V30 4220 H 395.104 -2.62846 -2.98591 0
M  V30 4221 H 391.843 -5.59521 -3.41492 0
M  V30 4222 H 391.363 -4.14871 -4.33176 0
M  V30 4223 H 393.042 -4.73852 -4.40537 0
M  V30 4224 N 393.175 1.03435 -1.18907 0
M  V30 4225 C 394.107 2.1165 -0.879595 0
M  V30 4226 C 395.12 1.62316 0.125439 0
M  V30 4227 O 396.309 1.78201 -0.103245 0
M  V30 4228 C 393.409 3.37622 -0.294042 0
M  V30 4229 C 392.582 4.16166 -1.34629 0
M  V30 4230 C 391.641 5.20457 -0.775274 0
M  V30 4231 O 390.667 5.50379 -1.4516 0
M  V30 4232 N 391.869 5.78949 0.424126 0
M  V30 4233 H 394.634 2.38791 -1.81105 0
M  V30 4234 H 392.195 1.19681 -1.09032 0
M  V30 4235 H 394.187 4.04572 0.101679 0
M  V30 4236 H 392.757 3.07873 0.541575 0
M  V30 4237 H 391.977 3.44444 -1.91707 0
M  V30 4238 H 393.265 4.65432 -2.05549 0
M  V30 4239 H 392.663 5.56948 0.991209 0
M  V30 4240 H 391.22 6.47334 0.761691 0
M  V30 4241 N 394.653 0.992116 1.22453 0
M  V30 4242 C 395.563 0.55065 2.28046 0
M  V30 4243 C 396.579 -0.400189 1.69335 0
M  V30 4244 O 397.755 -0.267215 1.99619 0
M  V30 4245 C 394.82 -0.128496 3.46462 0
M  V30 4246 C 393.881 0.865208 4.20491 0
M  V30 4247 C 393.114 0.218377 5.33253 0
M  V30 4248 O 393.337 -0.987894 5.6178 0
M  V30 4249 O 392.271 0.922845 5.94783 0
M  V30 4250 H 396.097 1.4291 2.67975 0
M  V30 4251 H 393.682 0.760326 1.28606 0
M  V30 4252 H 395.564 -0.508947 4.18315 0
M  V30 4253 H 394.239 -0.981526 3.0846 0
M  V30 4254 H 393.146 1.29658 3.50913 0
M  V30 4255 H 394.479 1.68741 4.62371 0
M  V30 4256 N 396.131 -1.37776 0.765217 0
M  V30 4257 C 397.377 -2.00145 0.327072 0
M  V30 4258 C 397.71 -1.60607 -1.09175 0
M  V30 4259 O 396.985 -0.849127 -1.74986 0
M  V30 4260 C 397.268 -3.57109 0.46319 0
M  V30 4261 C 397.121 -4.06576 1.92395 0
M  V30 4262 C 398.44 -4.39888 -0.136473 0
M  V30 4263 H 395.559 -0.727113 0.120316 0
M  V30 4264 H 398.201 -1.63549 0.967039 0
M  V30 4265 H 396.351 -3.88414 -0.0816358 0
M  V30 4266 H 398.023 -3.85864 2.52798 0
M  V30 4267 H 396.266 -3.59011 2.43503 0
M  V30 4268 H 396.937 -5.15639 1.97028 0
M  V30 4269 H 399.413 -4.14803 0.328317 0
M  V30 4270 H 398.289 -5.48899 -0.0110582 0
M  V30 4271 H 398.55 -4.24758 -1.22608 0
M  V30 4272 N 397.609 -0.515225 -1.4894 0
M  V30 4273 C 398.834 0.022727 -2.07388 0
M  V30 4274 C 399.259 1.2876 -1.37122 0
M  V30 4275 O 398.617 1.76067 -0.432431 0
M  V30 4276 C 398.665 0.244869 -3.59768 0
M  V30 4277 O 397.769 1.31667 -3.90817 0
M  V30 4278 H 397.11 -0.0325506 -0.663202 0
M  V30 4279 H 399.64 -0.718918 -1.91553 0
M  V30 4280 H 399.65 0.47205 -4.0526 0
M  V30 4281 H 398.325 -0.679194 -4.10317 0
M  V30 4282 H 396.902 1.07331 -3.5712 0
M  V30 4283 N 399.087 1.5561 -0.249682 0
M  V30 4284 C 400.327 2.00916 0.37579 0
M  V30 4285 C 400.691 1.13409 1.54927 0
M  V30 4286 O 401.892 1.48183 2.24266 0
M  V30 4287 C 400.163 3.48949 0.772633 0
M  V30 4288 S 401.722 4.16261 1.38824 0
M  V30 4289 H 398.54 0.70112 0.118117 0
M  V30 4290 H 401.142 1.92052 -0.365567 0
M  V30 4291 H 399.846 4.103 -0.090683 0
M  V30 4292 H 399.377 3.61745 1.5461 0
M  V30 4293 H 401.392 4.17778 2.67724 0
M  V30 4294 N 400.565 -0.0233959 1.57583 0
M  V30 4295 C 401.805 -0.71784 1.9138 0
M  V30 4296 C 402.169 -1.72216 0.848853 0
M  V30 4297 O 403.37 -2.46527 1.07134 0
M  V30 4298 C 401.641 -1.36489 3.30311 0
M  V30 4299 S 403.2 -2.0877 3.85954 0
M  V30 4300 H 400.018 -0.237676 0.670098 0
M  V30 4301 H 402.62 0.0276709 1.9548 0
M  V30 4302 H 401.324 -0.620782 4.05678 0
M  V30 4303 H 400.855 -2.14883 3.29528 0
M  V30 4304 H 402.87 -3.35988 3.65139 0
M  V30 4305 N 402.043 -1.548 -0.295768 0
M  V30 4306 C 402.973 -1.89115 -1.36959 0
M  V30 4307 C 403.954 -0.75059 -1.52644 0
M  V30 4308 O 405.139 -1.00678 -1.66065 0
M  V30 4309 C 402.269 -2.14307 -2.73295 0
M  V30 4310 C 401.223 -3.30151 -2.72368 0
M  V30 4311 C 400.549 -3.40772 -4.12042 0
M  V30 4312 C 401.849 -4.67126 -2.33646 0
M  V30 4313 H 403.543 -2.79053 -1.08488 0
M  V30 4314 H 401.089 -1.34266 -0.520443 0
M  V30 4315 H 403.042 -2.36898 -3.48507 0
M  V30 4316 H 401.766 -1.21145 -3.03301 0
M  V30 4317 H 400.425 -3.0749 -1.99613 0
M  V30 4318 H 400.073 -2.45117 -4.39234 0
M  V30 4319 H 399.773 -4.18645 -4.12322 0
M  V30 4320 H 401.297 -3.6563 -4.89027 0
M  V30 4321 H 402.711 -4.89414 -2.98575 0
M  V30 4322 H 401.108 -5.47751 -2.45129 0
M  V30 4323 H 402.178 -4.67489 -1.28772 0
M  V30 4324 N 403.521 0.559213 -1.47345 0
M  V30 4325 C 404.451 1.67622 -1.62558 0
M  V30 4326 C 405.432 1.63331 -0.475087 0
M  V30 4327 O 406.617 1.80983 -0.704182 0
M  V30 4328 C 403.747 3.0626 -1.63774 0
M  V30 4329 C 402.701 3.25397 -2.7803 0
M  V30 4330 C 402.027 4.64801 -2.64318 0
M  V30 4331 C 403.327 3.10965 -4.19641 0
M  V30 4332 H 405.021 1.55146 -2.56067 0
M  V30 4333 H 402.567 0.744961 -1.23233 0
M  V30 4334 H 404.52 3.84247 -1.73008 0
M  V30 4335 H 403.244 3.1969 -0.66825 0
M  V30 4336 H 401.903 2.49817 -2.68304 0
M  V30 4337 H 401.551 4.75028 -1.65401 0
M  V30 4338 H 401.251 4.78555 -3.40968 0
M  V30 4339 H 402.775 5.44926 -2.75478 0
M  V30 4340 H 404.189 3.78772 -4.30354 0
M  V30 4341 H 402.586 3.36229 -4.97062 0
M  V30 4342 H 403.656 2.07736 -4.38148 0
M  V30 4343 N 404.999 1.35443 0.805782 0
M  V30 4344 C 405.949 1.24972 1.90699 0
M  V30 4345 C 406.933 0.144806 1.60247 0
M  V30 4346 O 408.125 0.376102 1.72958 0
M  V30 4347 C 405.254 1.02475 3.27649 0
M  V30 4348 C 404.34 2.17361 3.64164 0
M  V30 4349 N 404.731 3.42591 3.72109 0
M  V30 4350 C 403.029 2.08765 3.94123 0
M  V30 4351 C 403.73 4.18144 4.04389 0
M  V30 4352 N 402.706 3.4691 4.18515 0
M  V30 4353 H 406.508 2.19852 1.95044 0
M  V30 4354 H 404.022 1.27928 1.00041 0
M  V30 4355 H 406.019 0.930617 4.06381 0
M  V30 4356 H 404.679 0.0848009 3.24589 0
M  V30 4357 H 405.69 3.76932 3.55166 0
M  V30 4358 H 402.367 1.22629 3.99084 0
M  V30 4359 H 403.757 5.26367 4.17597 0
M  V30 4360 N 406.477 -1.02803 1.19454 0
M  V30 4361 C 407.893 -1.28473 0.946937 0
M  V30 4362 C 408.093 -1.97881 -0.380202 0
M  V30 4363 O 407.149 -2.26719 -1.11151 0
M  V30 4364 C 408.462 -2.13099 2.12154 0
M  V30 4365 C 410.01 -2.26404 2.16126 0
M  V30 4366 C 410.485 -3.14402 3.33039 0
M  V30 4367 N 411.976 -3.21991 3.32981 0
M  V30 4368 C 412.711 -3.90272 4.20089 0
M  V30 4369 N 412.207 -4.60777 5.17355 0
M  V30 4370 N 414 -3.8668 4.07964 0
M  V30 4371 H 406.151 -0.561665 2.04839 0
M  V30 4372 H 408.414 -0.310438 0.89573 0
M  V30 4373 H 408.12 -1.69422 3.08203 0
M  V30 4374 H 407.994 -3.13813 2.09287 0
M  V30 4375 H 410.381 -2.69311 1.20647 0
M  V30 4376 H 410.462 -1.25237 2.23045 0
M  V30 4377 H 410.106 -2.72204 4.28798 0
M  V30 4378 H 410.036 -4.1563 3.23356 0
M  V30 4379 H 412.527 -2.71778 2.62574 0
M  V30 4380 H 412.84 -5.10513 5.80169 0
M  V30 4381 H 411.185 -4.5964 5.21302 0
M  V30 4382 H 414.376 -3.30739 3.31254 0
M  V30 4383 H 414.549 -4.39621 4.76064 0
M  V30 4384 N 407.956 -0.998596 -1.21925 0
M  V30 4385 C 408.886 -0.573688 -2.26343 0
M  V30 4386 C 409.867 0.402296 -1.65274 0
M  V30 4387 O 411.052 0.291683 -1.91997 0
M  V30 4388 C 408.182 0.106839 -3.47136 0
M  V30 4389 C 407.136 -0.788269 -4.20678 0
M  V30 4390 C 406.462 0.0254927 -5.34694 0
M  V30 4391 C 407.762 -2.08784 -4.78755 0
M  V30 4392 H 409.456 -1.44651 -2.62138 0
M  V30 4393 H 407.002 -0.696975 -1.26009 0
M  V30 4394 H 408.955 0.415531 -4.19346 0
M  V30 4395 H 407.679 1.01424 -3.10452 0
M  V30 4396 H 406.338 -1.08069 -3.50309 0
M  V30 4397 H 405.986 0.933989 -4.94253 0
M  V30 4398 H 405.686 -0.570437 -5.84825 0
M  V30 4399 H 407.21 0.328147 -6.09718 0
M  V30 4400 H 408.624 -1.84272 -5.42878 0
M  V30 4401 H 407.021 -2.63307 -5.39249 0
M  V30 4402 H 408.091 -2.76284 -3.98491 0
M  V30 4403 N 409.434 1.37368 -0.772513 0
M  V30 4404 C 410.662 2.03942 -0.348588 0
M  V30 4405 C 411.077 1.58264 1.02947 0
M  V30 4406 O 410.434 0.764246 1.65727 0
M  V30 4407 C 410.485 3.5946 -0.38351 0
M  V30 4408 O 410.206 4.03468 -1.70721 0
M  V30 4409 C 411.707 4.4327 0.0519152 0
M  V30 4410 H 408.927 0.654931 -0.145966 0
M  V30 4411 H 411.471 1.75686 -1.04665 0
M  V30 4412 H 409.626 3.86486 0.265978 0
M  V30 4413 H 410.04 4.97991 -1.64636 0
M  V30 4414 H 411.514 5.51995 -0.0236733 0
M  V30 4415 H 411.991 4.2514 1.10238 0
M  V30 4416 H 412.597 4.21471 -0.569415 0
M  V30 4417 N 410.912 0.523116 1.48665 0
M  V30 4418 C 411.842 -0.23231 2.32342 0
M  V30 4419 C 412.823 -0.941637 1.41659 0
M  V30 4420 O 414.008 -0.928751 1.70552 0
M  V30 4421 C 411.138 -1.28387 3.22698 0
M  V30 4422 C 410.092 -0.693098 4.22351 0
M  V30 4423 C 409.418 -1.8468 5.01794 0
M  V30 4424 C 410.718 0.33063 5.21252 0
M  V30 4425 H 412.412 0.466192 2.95748 0
M  V30 4426 H 409.958 0.225643 1.42221 0
M  V30 4427 H 411.911 -1.82024 3.80059 0
M  V30 4428 H 410.635 -2.01186 2.57278 0
M  V30 4429 H 409.294 -0.178299 3.66166 0
M  V30 4430 H 408.942 -2.56301 4.32804 0
M  V30 4431 H 408.642 -1.45747 5.69238 0
M  V30 4432 H 410.166 -2.38709 5.62006 0
M  V30 4433 H 411.58 -0.118407 5.73178 0
M  V30 4434 H 409.977 0.636974 5.9671 0
M  V30 4435 H 411.047 1.23883 4.68808 0
M  V30 4436 N 412.39 -1.55475 0.257931 0
M  V30 4437 C 413.638 -1.98813 -0.363009 0
M  V30 4438 C 413.959 -1.14757 -1.57657 0
M  V30 4439 O 413.229 -0.232956 -1.9451 0
M  V30 4440 H 411.809 -0.734308 -0.137113 0
M  V30 4441 H 414.471 -1.9156 0.359281 0
M  V30 4442 H 413.567 -3.04941 -0.664634 0
M  V30 4443 N 413.868 0.0150385 -1.57593 0
M  V30 4444 C 414.816 1.02958 -2.08572 0
M  V30 4445 C 415.81 1.36554 -1.00246 0
M  V30 4446 O 417.016 1.35295 -1.18724 0
M  V30 4447 H 413.391 0.349619 -0.665786 0
M  V30 4448 H 415.362 0.573932 -2.92829 0
M  V30 4449 C 414.111 2.31752 -2.59203 0
M  V30 4450 H 413.434 2.06765 -3.42182 0
M  V30 4451 H 414.874 3.01053 -2.98568 0
M  V30 4452 C 413.333 3.01692 -1.49945 0
M  V30 4453 O 413.863 3.92083 -0.873704 0
M  V30 4454 N 412.069 2.6326 -1.23056 0
M  V30 4455 H 411.616 1.89838 -1.74125 0
M  V30 4456 H 411.574 3.10372 -0.501685 0
M  V30 4457 N 415.346 1.54954 0.287554 0
M  V30 4458 C 416.593 1.74873 1.02106 0
M  V30 4459 C 416.921 0.541829 1.86801 0
M  V30 4460 O 416.176 -0.475992 1.89823 0
M  V30 4461 C 416.475 2.99833 1.94512 0
M  V30 4462 C 416.141 4.33029 1.25686 0
M  V30 4463 C 414.803 4.69233 1.06649 0
M  V30 4464 C 417.155 5.15542 0.765913 0
M  V30 4465 C 414.483 5.85518 0.372222 0
M  V30 4466 C 416.835 6.32542 0.0853101 0
M  V30 4467 C 415.499 6.67398 -0.1169 0
M  V30 4468 H 414.769 0.639906 0.373632 0
M  V30 4469 H 417.416 1.89219 0.294665 0
M  V30 4470 H 415.721 2.80325 2.73725 0
M  V30 4471 H 417.418 3.1244 2.51361 0
M  V30 4472 H 414.008 4.04564 1.41512 0
M  V30 4473 H 418.192 4.88059 0.90066 0
M  V30 4474 H 413.448 6.11057 0.204695 0
M  V30 4475 H 417.622 6.95741 -0.302936 0
M  V30 4476 H 415.249 7.57357 -0.656859 0
M  V30 4477 N 416.824 -0.551391 1.4764 0
M  V30 4478 C 418.071 -1.3083 1.54563 0
M  V30 4479 C 418.399 -1.93359 0.210361 0
M  V30 4480 O 417.654 -1.78721 -0.797332 0
M  V30 4481 C 417.953 -2.43469 2.61644 0
M  V30 4482 C 417.619 -1.98732 4.04742 0
M  V30 4483 C 416.281 -1.86248 4.43695 0
M  V30 4484 C 418.633 -1.64659 4.94507 0
M  V30 4485 C 415.961 -1.37995 5.70241 0
M  V30 4486 C 418.313 -1.17875 6.21521 0
M  V30 4487 C 416.977 -1.03992 6.5935 0
M  V30 4488 H 416.247 -0.478741 0.565587 0
M  V30 4489 H 418.894 -0.617697 1.81264 0
M  V30 4490 H 417.199 -3.18109 2.28722 0
M  V30 4491 H 418.896 -3.01642 2.64222 0
M  V30 4492 H 415.486 -2.09393 3.73968 0
M  V30 4493 H 419.67 -1.73174 4.65107 0
M  V30 4494 H 414.926 -1.25915 5.98294 0
M  V30 4495 H 419.1 -0.905739 6.90485 0
M  V30 4496 H 416.727 -0.663794 7.57296 0
M  V30 4497 N 418.302 -1.35869 -0.798587 0
M  V30 4498 C 419.25 -1.29491 -1.93222 0
M  V30 4499 C 420.244 -0.18836 -1.6835 0
M  V30 4500 O 421.45 -0.354822 -1.76468 0
M  V30 4501 H 417.825 -0.402901 -0.63496 0
M  V30 4502 H 419.796 -2.25247 -1.9572 0
M  V30 4503 C 418.545 -1.09184 -3.30112 0
M  V30 4504 H 417.868 -1.93574 -3.49813 0
M  V30 4505 H 419.308 -1.08766 -4.09812 0
M  V30 4506 C 417.767 0.203959 -3.36282 0
M  V30 4507 O 418.297 1.19699 -3.83451 0
M  V30 4508 N 416.503 0.245488 -2.89561 0
M  V30 4509 H 416.05 -0.563223 -2.51367 0
M  V30 4510 H 416.008 1.11219 -2.94071 0
M  V30 4511 N 419.78 1.02168 -1.19998 0
M  V30 4512 C 421.029 1.75091 -1.0013 0
M  V30 4513 C 421.342 1.89923 0.467835 0
M  V30 4514 O 422.548 2.59888 0.785515 0
M  V30 4515 C 421.004 3.14892 -1.74273 0
M  V30 4516 C 420.612 3.0809 -3.25245 0
M  V30 4517 C 422.356 3.9206 -1.62755 0
M  V30 4518 C 420.263 4.42867 -3.91948 0
M  V30 4519 H 419.193 0.656394 -0.37103 0
M  V30 4520 H 421.844 1.14284 -1.43567 0
M  V30 4521 H 420.226 3.7621 -1.2362 0
M  V30 4522 H 421.4 2.5611 -3.83072 0
M  V30 4523 H 419.715 2.44416 -3.3712 0
M  V30 4524 H 422.312 4.91764 -2.09934 0
M  V30 4525 H 422.655 4.12199 -0.582894 0
M  V30 4526 H 423.188 3.37359 -2.10793 0
M  V30 4527 H 419.927 4.27931 -4.96543 0
M  V30 4528 H 419.447 4.94874 -3.3891 0
M  V30 4529 H 421.126 5.11728 -3.95909 0
M  V30 4530 N 421.258 1.00505 1.21394 0
M  V30 4531 C 422.188 0.585684 2.26035 0
M  V30 4532 C 423.169 -0.393525 1.65485 0
M  V30 4533 O 424.354 -0.281497 1.92149 0
M  V30 4534 C 421.484 -0.0884283 3.47187 0
M  V30 4535 C 420.438 0.810567 4.20254 0
M  V30 4536 C 419.764 0.00286382 5.347 0
M  V30 4537 C 421.064 2.1132 4.77641 0
M  V30 4538 H 422.758 1.46039 2.61368 0
M  V30 4539 H 420.304 0.703648 1.25638 0
M  V30 4540 H 422.257 -0.393286 4.19561 0
M  V30 4541 H 420.981 -0.997766 3.10986 0
M  V30 4542 H 419.64 1.09925 3.49731 0
M  V30 4543 H 419.288 -0.907765 4.94741 0
M  V30 4544 H 418.988 0.601444 5.84514 0
M  V30 4545 H 420.512 -0.295808 6.09883 0
M  V30 4546 H 421.926 1.87148 5.41893 0
M  V30 4547 H 420.323 2.66164 5.37845 0
M  V30 4548 H 421.393 2.78393 3.9702 0
M  V30 4549 N 422.737 -1.36956 0.779787 0
M  V30 4550 C 423.983 -1.99787 0.348281 0
M  V30 4551 C 424.316 -1.61756 -1.07465 0
M  V30 4552 O 423.591 -0.867639 -1.74075 0
M  V30 4553 C 423.874 -3.56597 0.50104 0
M  V30 4554 C 423.727 -4.04513 1.96697 0
M  V30 4555 C 425.046 -4.40008 -0.0898097 0
M  V30 4556 H 422.165 -0.725796 0.128022 0
M  V30 4557 H 424.807 -1.62514 0.984331 0
M  V30 4558 H 422.957 -3.88479 -0.0404347 0
M  V30 4559 H 424.629 -3.83161 2.56876 0
M  V30 4560 H 422.872 -3.56408 2.47297 0
M  V30 4561 H 423.543 -5.1352 2.02486 0
M  V30 4562 H 426.019 -4.14431 0.372293 0
M  V30 4563 H 424.895 -5.4888 0.0471605 0
M  V30 4564 H 425.156 -4.26035 -1.18096 0
M  V30 4565 N 424.215 -0.530993 -1.48385 0
M  V30 4566 C 425.145 0.219985 -2.32461 0
M  V30 4567 C 426.126 0.934111 -1.42156 0
M  V30 4568 O 427.311 0.919694 -1.71042 0
M  V30 4569 C 424.441 1.26674 -3.23375 0
M  V30 4570 C 423.395 0.67069 -4.22712 0
M  V30 4571 C 422.721 1.82017 -5.02766 0
M  V30 4572 C 424.021 -0.358268 -5.2107 0
M  V30 4573 H 425.715 -0.48187 -2.95497 0
M  V30 4574 H 423.261 -0.233182 -1.42099 0
M  V30 4575 H 425.214 1.80006 -3.81019 0
M  V30 4576 H 423.938 1.99818 -2.58341 0
M  V30 4577 H 422.597 0.158878 -3.66256 0
M  V30 4578 H 422.245 2.54002 -4.34157 0
M  V30 4579 H 421.945 1.42727 -5.70003 0
M  V30 4580 H 423.469 2.35725 -5.63264 0
M  V30 4581 H 424.883 0.0880081 -5.73232 0
M  V30 4582 H 423.28 -0.66861 -5.96364 0
M  V30 4583 H 424.35 -1.26367 -4.68145 0
M  V30 4584 N 425.693 1.55336 -0.266172 0
M  V30 4585 C 426.641 2.23587 0.641228 0
M  V30 4586 C 427.635 1.22986 1.16494 0
M  V30 4587 O 428.841 1.40943 1.1196 0
M  V30 4588 H 425.216 0.717452 0.225315 0
M  V30 4589 H 427.187 2.9837 0.0426561 0
M  V30 4590 C 425.936 2.96369 1.81826 0
M  V30 4591 H 425.259 3.73563 1.42445 0
M  V30 4592 H 426.699 3.47459 2.42998 0
M  V30 4593 C 425.158 2.0133 2.70125 0
M  V30 4594 O 425.688 1.55875 3.70224 0
M  V30 4595 N 423.894 1.6802 2.37102 0
M  V30 4596 H 423.441 2.05181 1.55751 0
M  V30 4597 H 423.399 1.047 2.96454 0
M  V30 4598 N 427.171 -0.0066808 1.57599 0
M  V30 4599 C 428.081 -1.01671 2.11424 0
M  V30 4600 C 429.097 -1.38143 1.05795 0
M  V30 4601 O 430.273 -1.47011 1.37658 0
M  V30 4602 C 427.338 -2.29192 2.60139 0
M  V30 4603 C 426.399 -1.99094 3.80342 0
M  V30 4604 C 425.632 -3.20535 4.26724 0
M  V30 4605 O 425.855 -4.3199 3.72479 0
M  V30 4606 O 424.789 -3.04924 5.18946 0
M  V30 4607 H 428.615 -0.589181 2.9793 0
M  V30 4608 H 426.2 -0.225091 1.47695 0
M  V30 4609 H 428.082 -3.0412 2.917 0
M  V30 4610 H 426.757 -2.71195 1.76733 0
M  V30 4611 H 425.664 -1.21663 3.53764 0
M  V30 4612 H 426.997 -1.61931 4.648 0
M  V30 4613 N 428.649 -1.55105 -0.279332 0
M  V30 4614 C 429.895 -1.75672 -1.01327 0
M  V30 4615 C 430.228 -0.552739 -1.86168 0
M  V30 4616 O 429.503 0.449827 -1.89227 0
M  V30 4617 C 429.786 -3.05825 -1.90114 0
M  V30 4618 C 429.639 -4.36565 -1.08309 0
M  V30 4619 C 430.958 -3.31975 -2.8893 0
M  V30 4620 H 428.077 -0.639149 -0.366957 0
M  V30 4621 H 430.719 -1.87833 -0.286154 0
M  V30 4622 H 428.869 -2.95588 -2.52111 0
M  V30 4623 H 430.541 -4.58751 -0.484314 0
M  V30 4624 H 428.784 -4.32076 -0.386362 0
M  V30 4625 H 429.455 -5.23946 -1.73737 0
M  V30 4626 H 431.931 -3.41963 -2.37067 0
M  V30 4627 H 430.807 -4.2432 -3.48201 0
M  V30 4628 H 431.068 -2.51309 -3.63725 0
M  V30 4629 N 430.127 0.543554 -1.4793 0
M  V30 4630 C 431.077 1.64527 -1.57844 0
M  V30 4631 C 432.061 1.54869 -0.436408 0
M  V30 4632 O 433.253 1.63119 -0.687101 0
M  V30 4633 C 430.382 3.03281 -1.6086 0
M  V30 4634 C 429.468 3.18093 -2.80495 0
M  V30 4635 N 429.859 3.02923 -4.05057 0
M  V30 4636 C 428.157 3.49121 -2.77543 0
M  V30 4637 C 428.858 3.20791 -4.85251 0
M  V30 4638 N 427.834 3.47749 -4.17818 0
M  V30 4639 H 431.636 1.51388 -2.5191 0
M  V30 4640 H 429.15 0.748671 -1.44113 0
M  V30 4641 H 431.147 3.82403 -1.66054 0
M  V30 4642 H 429.807 3.17521 -0.678996 0
M  V30 4643 H 430.818 2.79966 -4.35705 0
M  V30 4644 H 427.495 3.69804 -1.93781 0
M  V30 4645 H 428.885 3.13915 -5.9406 0
M  V30 4646 N 431.605 1.3629 0.791371 0
M  V30 4647 C 432.515 1.32606 1.93527 0
M  V30 4648 C 433.531 0.228541 1.72493 0
M  V30 4649 O 434.707 0.460571 1.96063 0
M  V30 4650 C 431.772 1.11271 3.28359 0
M  V30 4651 C 430.833 2.3048 3.62185 0
M  V30 4652 C 430.066 2.10154 4.90583 0
M  V30 4653 O 430.289 1.07572 5.60165 0
M  V30 4654 O 429.223 2.97884 5.23019 0
M  V30 4655 H 433.049 2.28909 1.99585 0
M  V30 4656 H 430.634 1.16818 0.931344 0
M  V30 4657 H 432.516 1.01283 4.09047 0
M  V30 4658 H 431.191 0.180292 3.23198 0
M  V30 4659 H 430.098 2.46036 2.81811 0
M  V30 4660 H 431.431 3.22221 3.72068 0
M  V30 4661 N 433.083 -1.0153 1.20538 0
M  V30 4662 C 434.33 -1.75149 1.01633 0
M  V30 4663 C 434.658 -1.89189 -0.451399 0
M  V30 4664 O 433.913 -1.41551 -1.35136 0
M  V30 4665 C 434.212 -3.17213 1.64654 0
M  V30 4666 C 433.878 -3.23146 3.14464 0
M  V30 4667 C 432.54 -3.24472 3.55347 0
M  V30 4668 C 434.892 -3.21207 4.10458 0
M  V30 4669 C 432.22 -3.21532 4.90748 0
M  V30 4670 C 434.572 -3.19808 5.45807 0
M  V30 4671 C 433.236 -3.19439 5.86102 0
M  V30 4672 H 432.506 -0.640914 0.3719 0
M  V30 4673 H 435.153 -1.19071 1.49981 0
M  V30 4674 H 433.458 -3.76457 1.08571 0
M  V30 4675 H 435.155 -3.72871 1.4754 0
M  V30 4676 H 431.745 -3.2285 2.81897 0
M  V30 4677 H 435.929 -3.19351 3.79906 0
M  V30 4678 H 431.185 -3.19578 5.21229 0
M  V30 4679 H 435.359 -3.1726 6.19935 0
M  V30 4680 H 432.986 -3.16915 6.90991 0
M  V30 4681 N 434.561 -1.01147 -1.20859 0
M  V30 4682 C 435.807 -0.698899 -1.90377 0
M  V30 4683 C 436.14 0.76904 -1.78324 0
M  V30 4684 O 435.415 1.55817 -1.16409 0
M  V30 4685 C 435.698 -1.12878 -3.41951 0
M  V30 4686 C 435.551 -2.65665 -3.62963 0
M  V30 4687 C 436.87 -0.696114 -4.3456 0
M  V30 4688 H 433.989 -0.255372 -0.691342 0
M  V30 4689 H 436.631 -1.25831 -1.42361 0
M  V30 4690 H 434.781 -0.652827 -3.82976 0
M  V30 4691 H 436.453 -3.21074 -3.31224 0
M  V30 4692 H 434.696 -3.06878 -3.06608 0
M  V30 4693 H 435.367 -2.90797 -4.69192 0
M  V30 4694 H 437.843 -1.10521 -4.01154 0
M  V30 4695 H 436.719 -1.025 -5.39245 0
M  V30 4696 H 436.98 0.402465 -4.40264 0
M  V30 4697 N 436.039 1.36541 -0.78704 0
M  V30 4698 C 437.285 1.99599 -0.358872 0
M  V30 4699 C 437.618 1.62323 1.06606 0
M  V30 4700 O 436.893 0.876858 1.73613 0
M  V30 4701 C 437.176 3.56327 -0.519944 0
M  V30 4702 C 437.029 4.03464 -1.98839 0
M  V30 4703 C 438.348 4.4005 0.0664737 0
M  V30 4704 H 435.467 0.725107 -0.131869 0
M  V30 4705 H 438.109 1.6199 -0.992936 0
M  V30 4706 H 436.259 3.88495 0.0198321 0
M  V30 4707 H 437.931 3.81793 -2.58905 0
M  V30 4708 H 436.174 3.55092 -2.49183 0
M  V30 4709 H 436.845 5.12439 -2.05207 0
M  V30 4710 H 439.321 4.14228 -0.394267 0
M  V30 4711 H 438.197 5.48847 -0.0762682 0
M  V30 4712 H 438.458 4.26655 1.15835 0
M  V30 4713 N 437.518 0.538854 1.48102 0
M  V30 4714 C 438.465 -0.219042 2.29758 0
M  V30 4715 C 439.435 -0.925562 1.37922 0
M  V30 4716 O 440.62 -0.924855 1.66886 0
M  V30 4717 C 437.76 -1.25452 3.2149 0
M  V30 4718 C 436.873 -0.555943 4.28408 0
M  V30 4719 C 436.008 -1.57512 5.0731 0
M  V30 4720 C 435.047 -0.860498 6.06021 0
M  V30 4721 N 434.184 -1.82564 6.77949 0
M  V30 4722 H 439.024 0.483449 2.94052 0
M  V30 4723 H 436.561 0.250247 1.44956 0
M  V30 4724 H 438.519 -1.86727 3.7308 0
M  V30 4725 H 437.149 -1.92528 2.591 0
M  V30 4726 H 436.201 0.170938 3.80016 0
M  V30 4727 H 437.513 0.00474616 4.988 0
M  V30 4728 H 436.667 -2.26191 5.62959 0
M  V30 4729 H 435.406 -2.16972 4.36778 0
M  V30 4730 H 434.411 -0.159686 5.49568 0
M  V30 4731 H 435.636 -0.271897 6.78555 0
M  V30 4732 H 433.582 -2.40915 6.10161 0
M  V30 4733 H 433.499 -1.31662 7.44447 0
M  V30 4734 H 434.767 -2.50414 7.38182 0
M  V30 4735 N 438.996 -1.55193 0.274407 0
M  V30 4736 C 439.959 -2.212 -0.600279 0
M  V30 4737 C 440.959 -1.18963 -1.08187 0
M  V30 4738 O 442.149 -1.43873 -0.982158 0
M  V30 4739 C 439.281 -2.87739 -1.82809 0
M  V30 4740 H 440.474 -2.9989 -0.0239682 0
M  V30 4741 H 438.027 -1.5628 0.0250192 0
M  V30 4742 H 438.762 -2.13058 -2.44493 0
M  V30 4743 H 438.547 -3.62658 -1.49069 0
M  V30 4744 H 440.037 -3.38171 -2.45011 0
M  V30 4745 N 440.474 -0.00167713 -1.576 0
M  V30 4746 C 441.72 0.683832 -1.90923 0
M  V30 4747 C 442.053 1.7333 -0.875799 0
M  V30 4748 O 441.328 1.94215 0.10525 0
M  V30 4749 C 441.611 1.32543 -3.3482 0
M  V30 4750 C 441.464 0.287387 -4.48881 0
M  V30 4751 C 442.783 2.25114 -3.78169 0
M  V30 4752 H 439.902 0.247125 -0.694333 0
M  V30 4753 H 442.544 -0.0533149 -1.89925 0
M  V30 4754 H 440.694 1.95372 -3.35801 0
M  V30 4755 H 442.366 -0.341346 -4.60035 0
M  V30 4756 H 440.609 -0.39017 -4.32042 0
M  V30 4757 H 441.28 0.775393 -5.46527 0
M  V30 4758 H 443.756 1.723 -3.7875 0
M  V30 4759 H 442.632 2.66971 -4.79602 0
M  V30 4760 H 442.893 3.13092 -3.12131 0
M  V30 4761 N 441.952 1.55251 0.271103 0
M  V30 4762 C 442.884 1.84675 1.35749 0
M  V30 4763 C 443.897 0.731366 1.45447 0
M  V30 4764 O 445.086 1.00924 1.4723 0
M  V30 4765 C 442.186 1.99638 2.73857 0
M  V30 4766 C 441.359 3.30312 2.86727 0
M  V30 4767 C 440.418 3.35318 4.05522 0
M  V30 4768 O 439.444 4.08682 3.96191 0
M  V30 4769 N 440.646 2.62857 5.17577 0
M  V30 4770 H 443.411 2.78445 1.10853 0
M  V30 4771 H 440.972 1.55191 0.461218 0
M  V30 4772 H 442.964 2.00355 3.51625 0
M  V30 4773 H 441.534 1.12725 2.91568 0
M  V30 4774 H 440.754 3.42118 1.95829 0
M  V30 4775 H 442.042 4.16488 2.92258 0
M  V30 4776 H 441.44 2.02939 5.28046 0
M  V30 4777 H 439.997 2.69295 5.93568 0
M  V30 4778 N 443.43 -0.535701 1.48216 0
M  V30 4779 C 444.362 -1.65662 1.58394 0
M  V30 4780 C 445.375 -1.5591 0.468607 0
M  V30 4781 O 446.564 -1.62475 0.7392 0
M  V30 4782 C 443.664 -3.04276 1.4923 0
M  V30 4783 C 442.837 -3.39567 2.75705 0
M  V30 4784 C 441.896 -4.57436 2.60075 0
M  V30 4785 O 440.922 -4.60942 3.33948 0
M  V30 4786 N 442.124 -5.55259 1.69315 0
M  V30 4787 H 444.889 -1.5737 2.55058 0
M  V30 4788 H 442.45 -0.722845 1.44867 0
M  V30 4789 H 444.442 -3.80994 1.36477 0
M  V30 4790 H 443.012 -3.06677 0.605632 0
M  V30 4791 H 442.232 -2.52083 3.03064 0
M  V30 4792 H 443.52 -3.59929 3.59623 0
M  V30 4793 H 442.918 -5.552 1.08489 0
M  V30 4794 H 441.475 -6.31218 1.62504 0
M  V30 4795 N 444.908 -1.36708 -0.784132 0
M  V30 4796 C 446.138 -1.34203 -1.57077 0
M  V30 4797 C 446.546 0.0774945 -1.89041 0
M  V30 4798 O 445.889 1.04628 -1.50992 0
M  V30 4799 C 445.951 -2.10351 -2.91535 0
M  V30 4800 C 445.615 -3.59405 -2.82272 0
M  V30 4801 C 446.612 -4.53545 -2.54151 0
M  V30 4802 C 444.297 -4.02362 -3.00683 0
M  V30 4803 C 446.291 -5.8862 -2.44551 0
M  V30 4804 C 443.978 -5.37526 -2.90704 0
M  V30 4805 C 444.976 -6.30468 -2.62677 0
M  V30 4806 O 444.664 -7.63149 -2.52702 0
M  V30 4807 H 444.396 -0.461791 -0.493685 0
M  V30 4808 H 446.95 -1.80475 -0.980712 0
M  V30 4809 H 445.18 -1.5875 -3.52612 0
M  V30 4810 H 446.869 -2.00636 -3.52845 0
M  V30 4811 H 447.635 -4.21669 -2.39625 0
M  V30 4812 H 443.514 -3.30389 -3.21503 0
M  V30 4813 H 447.058 -6.61133 -2.22596 0
M  V30 4814 H 442.955 -5.69008 -3.04795 0
M  V30 4815 H 443.723 -7.73331 -2.68144 0
M  V30 4816 N 446.386 1.0089 -1.21074 0
M  V30 4817 C 447.797 1.56056 -1.02486 0
M  V30 4818 C 448.148 1.91728 0.416506 0
M  V30 4819 O 447.273 1.73066 1.29912 0
M  V30 4820 C 447.868 2.83563 -1.85411 0
M  V30 4821 C 446.427 3.3523 -1.71166 0
M  V30 4822 C 445.574 2.0846 -1.82865 0
M  V30 4823 H 448.525 0.831818 -1.35154 0
M  V30 4824 H 448.546 3.55286 -1.36205 0
M  V30 4825 H 448.058 2.57569 -2.9031 0
M  V30 4826 H 446.159 3.66167 -0.689361 0
M  V30 4827 H 446.272 4.06913 -2.52901 0
M  V30 4828 H 444.636 2.21275 -1.26132 0
M  V30 4829 H 445.419 1.84883 -2.89263 0
M  V30 4830 N 447.864 1.01787 1.20321 0
M  V30 4831 C 448.774 0.598898 2.26827 0
M  V30 4832 C 449.79 -0.36418 1.70146 0
M  V30 4833 O 450.966 -0.224812 2.00141 0
M  V30 4834 C 448.031 -0.0549769 3.46656 0
M  V30 4835 C 447.092 0.954205 4.18561 0
M  V30 4836 C 446.325 0.331439 5.3267 0
M  V30 4837 O 446.548 -0.86851 5.63749 0
M  V30 4838 O 445.482 1.0488 5.92692 0
M  V30 4839 H 449.308 1.48562 2.64883 0
M  V30 4840 H 446.893 0.787434 1.26964 0
M  V30 4841 H 448.775 -0.420102 4.19301 0
M  V30 4842 H 447.45 -0.915876 3.10473 0
M  V30 4843 H 446.357 1.37072 3.48083 0
M  V30 4844 H 447.69 1.78511 4.58688 0
M  V30 4845 N 449.342 -1.36122 0.79427 0
M  V30 4846 C 450.29 -2.31871 0.184023 0
M  V30 4847 C 451.284 -1.56041 -0.659365 0
M  V30 4848 O 452.49 -1.71266 -0.553906 0
M  V30 4849 H 448.865 -0.750896 0.0407373 0
M  V30 4850 H 450.836 -2.80898 1.00693 0
M  V30 4851 C 449.585 -3.41324 -0.662813 0
M  V30 4852 H 448.908 -3.99793 -0.0231944 0
M  V30 4853 H 450.348 -4.10629 -1.05639 0
M  V30 4854 C 448.807 -2.83308 -1.82313 0
M  V30 4855 O 449.337 -2.75863 -2.91997 0
M  V30 4856 N 447.543 -2.40529 -1.63077 0
M  V30 4857 H 447.09 -2.46785 -0.738591 0
M  V30 4858 H 447.048 -2.02059 -2.40872 0
M  V30 4859 N 450.82 -0.546701 -1.47814 0
M  V30 4860 C 451.783 0.196287 -2.28358 0
M  V30 4861 C 452.783 0.852437 -1.36346 0
M  V30 4862 O 453.973 0.709913 -1.59078 0
M  V30 4863 C 451.105 1.28579 -3.15722 0
M  V30 4864 H 452.298 -0.511086 -2.95513 0
M  V30 4865 H 449.851 -0.303248 -1.5333 0
M  V30 4866 H 450.586 2.0259 -2.53235 0
M  V30 4867 H 450.371 0.820229 -3.83425 0
M  V30 4868 H 451.861 1.80793 -3.76435 0
M  V30 4869 N 452.299 1.55045 -0.282633 0
M  V30 4870 C 453.262 2.21515 0.588539 0
M  V30 4871 C 454.262 1.19535 1.07554 0
M  V30 4872 O 455.452 1.44391 0.974514 0
M  V30 4873 C 452.584 2.88704 1.8128 0
M  V30 4874 H 453.777 2.99899 0.00806397 0
M  V30 4875 H 451.33 1.56265 -0.0333067 0
M  V30 4876 H 452.065 2.14352 2.43359 0
M  V30 4877 H 451.85 3.63443 1.47144 0
M  V30 4878 H 453.34 3.39465 2.43214 0
M  V30 4879 N 453.777 0.010035 1.57597 0
M  V30 4880 C 454.707 -0.976857 2.12084 0
M  V30 4881 C 455.688 -1.35191 1.03235 0
M  V30 4882 O 456.873 -1.43389 1.3097 0
M  V30 4883 C 454.003 -2.26548 2.63236 0
M  V30 4884 C 452.957 -2.03175 3.76701 0
M  V30 4885 C 452.283 -3.38138 4.14206 0
M  V30 4886 C 453.583 -1.38625 5.03568 0
M  V30 4887 H 455.277 -0.523145 2.94794 0
M  V30 4888 H 452.823 -0.250195 1.4181 0
M  V30 4889 H 454.776 -2.95952 2.99984 0
M  V30 4890 H 453.5 -2.74051 1.77661 0
M  V30 4891 H 452.159 -1.36195 3.40362 0
M  V30 4892 H 451.807 -3.83363 3.25641 0
M  V30 4893 H 451.507 -3.23312 4.90656 0
M  V30 4894 H 453.031 -4.08841 4.53521 0
M  V30 4895 H 454.445 -1.98 5.38023 0
M  V30 4896 H 452.842 -1.34256 5.84889 0
M  V30 4897 H 453.912 -0.356722 4.83586 0
M  V30 4898 N 455.255 -1.55392 -0.262866 0
M  V30 4899 C 456.187 -1.85392 -1.34768 0
M  V30 4900 C 457.2 -0.739069 -1.45057 0
M  V30 4901 O 458.389 -1.01703 -1.46693 0
M  V30 4902 C 455.489 -2.01088 -2.72795 0
M  V30 4903 C 454.662 -3.31828 -2.84972 0
M  V30 4904 C 453.721 -3.37464 -4.03738 0
M  V30 4905 O 452.747 -4.10778 -3.94018 0
M  V30 4906 N 453.949 -2.65599 -5.16176 0
M  V30 4907 H 456.714 -2.79029 -1.09375 0
M  V30 4908 H 454.275 -1.55434 -0.452981 0
M  V30 4909 H 456.267 -2.02217 -3.50557 0
M  V30 4910 H 454.837 -1.1427 -2.90966 0
M  V30 4911 H 454.057 -3.43152 -1.94012 0
M  V30 4912 H 455.345 -4.18032 -2.90045 0
M  V30 4913 H 454.743 -2.05736 -5.26962 0
M  V30 4914 H 453.3 -2.72439 -5.92132 0
M  V30 4915 N 456.733 0.527833 -1.48498 0
M  V30 4916 C 457.982 1.28003 -1.55878 0
M  V30 4917 C 458.295 1.9414 -0.238577 0
M  V30 4918 O 459.501 2.7083 -0.190643 0
M  V30 4919 C 457.957 2.32272 -2.74914 0
M  V30 4920 C 457.565 1.72196 -4.13585 0
M  V30 4921 C 459.309 3.08488 -2.91608 0
M  V30 4922 C 457.216 2.74417 -5.23879 0
M  V30 4923 H 456.146 0.481413 -0.580308 0
M  V30 4924 H 458.797 0.557195 -1.74836 0
M  V30 4925 H 457.179 3.07601 -2.49395 0
M  V30 4926 H 458.353 1.03041 -4.49132 0
M  V30 4927 H 456.668 1.08464 -4.02025 0
M  V30 4928 H 459.265 3.84879 -3.71177 0
M  V30 4929 H 459.608 3.64481 -2.01145 0
M  V30 4930 H 460.141 2.40274 -3.17038 0
M  V30 4931 H 456.88 2.23242 -6.16314 0
M  V30 4932 H 456.4 3.41893 -4.92818 0
M  V30 4933 H 458.079 3.37362 -5.52083 0
M  V30 4934 N 458.211 1.37122 0.776871 0
M  V30 4935 C 459.436 1.354 1.57104 0
M  V30 4936 C 459.861 -0.0595562 1.88006 0
M  V30 4937 O 459.219 -1.03514 1.48844 0
M  V30 4938 C 459.267 2.19472 2.8612 0
M  V30 4939 O 458.371 1.59582 3.80273 0
M  V30 4940 H 457.712 0.462869 0.476076 0
M  V30 4941 H 460.242 1.80577 0.961932 0
M  V30 4942 H 460.252 2.32502 3.35271 0
M  V30 4943 H 458.927 3.22222 2.62956 0
M  V30 4944 H 457.504 1.55564 3.38902 0
M  V30 4945 N 459.689 -1.00246 1.21608 0
M  V30 4946 C 460.652 -2.07233 0.979133 0
M  V30 4947 C 461.652 -1.6072 -0.0508219 0
M  V30 4948 O 462.842 -1.73196 0.186712 0
M  V30 4949 C 459.974 -3.37546 0.477016 0
M  V30 4950 H 461.167 -2.29687 1.92831 0
M  V30 4951 H 458.72 -1.17261 1.03342 0
M  V30 4952 H 459.455 -3.20773 -0.476966 0
M  V30 4953 H 459.24 -3.72638 1.21997 0
M  V30 4954 H 460.73 -4.16285 0.331181 0
M  V30 4955 N 461.167 -1.02423 -1.1978 0
M  V30 4956 C 462.097 -0.62157 -2.25075 0
M  V30 4957 C 463.078 0.367148 -1.6609 0
M  V30 4958 O 464.263 0.250892 -1.92573 0
M  V30 4959 C 461.393 0.0331826 -3.47284 0
M  V30 4960 C 460.347 -0.877323 -4.18912 0
M  V30 4961 C 459.673 -0.0879296 -5.34628 0
M  V30 4962 C 460.973 -2.18892 -4.74219 0
M  V30 4963 H 462.667 -1.50179 -2.59011 0
M  V30 4964 H 460.213 -0.723547 -1.24502 0
M  V30 4965 H 462.166 0.326488 -4.20133 0
M  V30 4966 H 460.89 0.948164 -3.12534 0
M  V30 4967 H 459.549 -1.15475 -3.47938 0
M  V30 4968 H 459.197 0.828941 -4.96123 0
M  V30 4969 H 458.897 -0.694359 -5.83483 0
M  V30 4970 H 460.421 0.198743 -6.10276 0
M  V30 4971 H 461.835 -1.95746 -5.38847 0
M  V30 4972 H 460.232 -2.74686 -5.33542 0
M  V30 4973 H 461.302 -2.84674 -3.92541 0
M  V30 4974 N 462.645 1.35699 -0.801477 0
M  V30 4975 C 463.87 2.03687 -0.390678 0
M  V30 4976 C 464.295 1.60015 0.988778 0
M  V30 4977 O 463.653 0.774357 1.63931 0
M  V30 4978 C 463.701 3.57439 -0.476404 0
M  V30 4979 O 462.805 4.09208 0.512106 0
M  V30 4980 H 462.146 0.64344 -0.163956 0
M  V30 4981 H 464.676 1.73403 -1.08594 0
M  V30 4982 H 464.686 4.06544 -0.344357 0
M  V30 4983 H 463.361 3.88576 -1.48262 0
M  V30 4984 H 461.938 3.7134 0.340721 0
M  V30 4985 N 464.123 0.554532 1.47522 0
M  V30 4986 C 465.363 0.0317994 2.04375 0
M  V30 4987 C 465.727 -1.29242 1.41988 0
M  V30 4988 O 466.928 -1.90269 1.89872 0
M  V30 4989 C 465.199 -0.0623344 3.57346 0
M  V30 4990 S 466.758 -0.531578 4.35568 0
M  V30 4991 H 463.576 0.0238553 0.7106 0
M  V30 4992 H 466.178 0.74066 1.80927 0
M  V30 4993 H 464.882 0.905857 4.00278 0
M  V30 4994 H 464.413 -0.794831 3.85287 0
M  V30 4995 H 466.428 -1.79175 4.62721 0
M  V30 4996 N 465.601 -1.54893 0.290851 0
M  V30 4997 C 466.531 -2.26103 -0.583084 0
M  V30 4998 C 467.512 -1.25684 -1.14619 0
M  V30 4999 O 468.697 -1.54436 -1.17741 0
M  V30 5000 C 465.827 -2.99409 -1.75987 0
M  V30 5001 C 464.781 -4.0689 -1.32758 0
M  V30 5002 C 464.107 -4.67856 -2.58872 0
M  V30 5003 C 465.407 -5.20215 -0.46624 0
M  V30 5004 H 467.101 -2.99398 0.0108214 0
M  V30 5005 H 464.647 -1.43998 0.00664468 0
M  V30 5006 H 466.6 -3.47943 -2.37727 0
M  V30 5007 H 465.324 -2.23675 -2.37985 0
M  V30 5008 H 463.983 -3.59191 -0.733299 0
M  V30 5009 H 463.631 -3.88772 -3.19163 0
M  V30 5010 H 463.331 -5.40438 -2.30653 0
M  V30 5011 H 464.855 -5.19147 -3.21433 0
M  V30 5012 H 466.269 -5.64704 -0.989047 0
M  V30 5013 H 464.666 -5.99455 -0.27826 0
M  V30 5014 H 465.736 -4.82198 0.511173 0
M  V30 5015 N 467.08 -0.0183926 -1.57589 0
M  V30 5016 C 468.043 0.951986 -2.08494 0
M  V30 5017 C 469.043 1.26092 -0.997874 0
M  V30 5018 O 470.233 1.20304 -1.25987 0
M  V30 5019 C 467.365 2.27165 -2.54182 0
M  V30 5020 H 468.558 0.511307 -2.95509 0
M  V30 5021 H 466.111 0.229444 -1.54607 0
M  V30 5022 H 466.846 2.75884 -1.70465 0
M  V30 5023 H 466.631 2.06057 -3.33591 0
M  V30 5024 H 468.121 2.9674 -2.93828 0
M  V30 5025 N 468.558 1.5553 0.254621 0
M  V30 5026 C 469.488 1.9268 1.31897 0
M  V30 5027 C 470.469 0.790797 1.506 0
M  V30 5028 O 471.654 1.05045 1.63337 0
M  V30 5029 C 468.784 2.21477 2.67517 0
M  V30 5030 C 467.738 3.37256 2.63519 0
M  V30 5031 C 467.064 3.51576 4.02862 0
M  V30 5032 C 468.364 4.73157 2.21179 0
M  V30 5033 H 470.058 2.81832 1.01051 0
M  V30 5034 H 467.604 1.35599 0.484662 0
M  V30 5035 H 469.557 2.46055 3.42104 0
M  V30 5036 H 468.281 1.29144 2.99982 0
M  V30 5037 H 466.94 3.12675 1.9139 0
M  V30 5038 H 466.588 2.56676 4.32581 0
M  V30 5039 H 466.288 4.2943 4.01078 0
M  V30 5040 H 467.812 3.78467 4.79161 0
M  V30 5041 H 469.226 4.97158 2.85494 0
M  V30 5042 H 467.623 5.54058 2.30521 0
M  V30 5043 H 468.693 4.70739 1.16332 0
M  V30 5044 N 470.036 -0.519951 1.48776 0
M  V30 5045 C 470.966 -1.63253 1.66945 0
M  V30 5046 C 471.947 -1.62014 0.518224 0
M  V30 5047 O 473.132 -1.79053 0.751919 0
M  V30 5048 C 470.262 -3.0181 1.71836 0
M  V30 5049 C 469.216 -3.17911 2.8656 0
M  V30 5050 C 468.542 -4.5763 2.76548 0
M  V30 5051 C 469.842 -2.99729 4.27738 0
M  V30 5052 H 471.536 -1.48302 2.6009 0
M  V30 5053 H 469.082 -0.712026 1.25165 0
M  V30 5054 H 471.035 -3.79525 1.83135 0
M  V30 5055 H 469.759 -3.17806 0.752775 0
M  V30 5056 H 468.418 -2.42616 2.74833 0
M  V30 5057 H 468.066 -4.70476 1.77937 0
M  V30 5058 H 467.766 -4.69346 3.53536 0
M  V30 5059 H 469.29 -5.37431 2.89828 0
M  V30 5060 H 470.704 -3.67228 4.40246 0
M  V30 5061 H 469.101 -3.22932 5.05801 0
M  V30 5062 H 470.171 -1.96047 4.43502 0
M  V30 5063 N 471.514 -1.37532 -0.769588 0
M  V30 5064 C 472.742 -1.36059 -1.55871 0
M  V30 5065 C 473.157 0.053544 -1.88724 0
M  V30 5066 O 472.514 1.01591 -1.5161 0
M  V30 5067 C 472.565 -2.20107 -2.86767 0
M  V30 5068 O 472.286 -3.56009 -2.55321 0
M  V30 5069 C 473.787 -2.26636 -3.80987 0
M  V30 5070 H 471.007 -0.465967 -0.482821 0
M  V30 5071 H 473.551 -1.80901 -0.953686 0
M  V30 5072 H 471.706 -1.78768 -3.43687 0
M  V30 5073 H 472.12 -4.0009 -3.39158 0
M  V30 5074 H 473.594 -2.89763 -4.69831 0
M  V30 5075 H 474.071 -1.2754 -4.20274 0
M  V30 5076 H 474.677 -2.68296 -3.29996 0
M  V30 5077 N 472.992 0.995999 -1.22138 0
M  V30 5078 C 473.902 2.11985 -1.00496 0
M  V30 5079 C 474.918 1.7394 0.0457701 0
M  V30 5080 O 476.094 2.00868 -0.146273 0
M  V30 5081 C 473.159 3.41779 -0.582086 0
M  V30 5082 C 472.22 3.93943 -1.70608 0
M  V30 5083 C 471.453 5.17542 -1.30328 0
M  V30 5084 O 471.676 5.70114 -0.180743 0
M  V30 5085 O 470.61 5.63382 -2.11861 0
M  V30 5086 H 474.436 2.33123 -1.94647 0
M  V30 5087 H 472.021 1.10358 -1.00705 0
M  V30 5088 H 473.903 4.1989 -0.356467 0
M  V30 5089 H 472.578 3.22007 0.330592 0
M  V30 5090 H 471.485 3.17019 -1.98619 0
M  V30 5091 H 472.818 4.18141 -2.59651 0
M  V30 5092 N 474.47 1.03057 1.19235 0
M  V30 5093 C 475.698 0.747697 1.92917 0
M  V30 5094 C 476.113 -0.69372 1.75593 0
M  V30 5095 O 475.47 -1.47191 1.07894 0
M  V30 5096 C 475.521 1.09159 3.44625 0
M  V30 5097 O 475.242 2.47641 3.61394 0
M  V30 5098 C 476.743 0.831763 4.35427 0
M  V30 5099 H 473.963 0.273453 0.612751 0
M  V30 5100 H 476.507 1.37552 1.51327 0
M  V30 5101 H 474.662 0.508919 3.84043 0
M  V30 5102 H 475.076 2.60499 4.55237 0
M  V30 5103 H 476.55 1.12233 5.4047 0
M  V30 5104 H 477.027 -0.233769 4.38577 0
M  V30 5105 H 477.633 1.39725 4.01693 0
M  V30 5106 N 475.948 -1.35272 0.808662 0
M  V30 5107 C 477.197 -1.97963 0.386483 0
M  V30 5108 C 477.51 -1.64866 -1.05255 0
M  V30 5109 O 478.716 -2.20937 -1.57794 0
M  V30 5110 C 477.172 -3.54162 0.640096 0
M  V30 5111 C 476.78 -3.96166 2.0918 0
M  V30 5112 C 478.524 -4.23553 0.283376 0
M  V30 5113 C 476.431 -5.4522 2.29106 0
M  V30 5114 H 475.361 -0.740742 0.140774 0
M  V30 5115 H 478.012 -1.5431 0.993012 0
M  V30 5116 H 476.394 -3.95983 -0.0364117 0
M  V30 5117 H 477.568 -3.65491 2.80629 0
M  V30 5118 H 475.883 -3.3967 2.40859 0
M  V30 5119 H 478.48 -5.33124 0.410273 0
M  V30 5120 H 478.823 -4.09105 -0.770659 0
M  V30 5121 H 479.356 -3.8716 0.913884 0
M  V30 5122 H 476.095 -5.64638 3.32962 0
M  V30 5123 H 475.615 -5.77457 1.62184 0
M  V30 5124 H 477.294 -6.1171 2.1076 0
M  V30 5125 N 477.426 -0.562348 -1.47226 0
M  V30 5126 C 478.673 -0.0402165 -2.0246 0
M  V30 5127 C 479.001 1.31169 -1.43614 0
M  V30 5128 O 478.256 1.86805 -0.5833 0
M  V30 5129 C 478.555 0.0969817 -3.57268 0
M  V30 5130 C 478.221 -1.1847 -4.35058 0
M  V30 5131 C 476.883 -1.53588 -4.56031 0
M  V30 5132 C 479.235 -2.03378 -4.79882 0
M  V30 5133 C 476.563 -2.73452 -5.19077 0
M  V30 5134 C 478.915 -3.2245 -5.44251 0
M  V30 5135 C 477.579 -3.57876 -5.63455 0
M  V30 5136 H 476.849 -0.0147163 -0.740854 0
M  V30 5137 H 479.496 -0.734895 -1.76838 0
M  V30 5138 H 477.801 0.87466 -3.81912 0
M  V30 5139 H 479.498 0.516408 -3.97661 0
M  V30 5140 H 476.088 -0.90126 -4.19017 0
M  V30 5141 H 480.272 -1.77553 -4.63453 0
M  V30 5142 H 475.528 -3.01062 -5.32139 0
M  V30 5143 H 479.702 -3.88526 -5.77945 0
M  V30 5144 H 477.329 -4.50849 -6.12078 0
M  V30 5145 N 478.904 1.54736 -0.299062 0
M  V30 5146 C 479.834 2.26409 0.571085 0
M  V30 5147 C 480.815 1.2629 1.13951 0
M  V30 5148 O 482 1.55059 1.16921 0
M  V30 5149 C 479.13 3.00338 1.74396 0
M  V30 5150 C 478.084 4.07588 1.30599 0
M  V30 5151 C 477.41 4.69222 2.56387 0
M  V30 5152 C 478.71 5.20455 0.438645 0
M  V30 5153 H 480.404 2.99388 -0.0266991 0
M  V30 5154 H 477.95 1.43993 -0.0142812 0
M  V30 5155 H 479.903 3.49198 2.35878 0
M  V30 5156 H 478.627 2.24934 2.36796 0
M  V30 5157 H 477.286 3.59575 0.71424 0
M  V30 5158 H 476.934 3.9046 3.17097 0
M  V30 5159 H 476.634 5.41653 2.27784 0
M  V30 5160 H 478.158 5.20844 3.18675 0
M  V30 5161 H 479.572 5.65221 0.959085 0
M  V30 5162 H 477.969 5.99594 0.246466 0
M  V30 5163 H 479.039 4.8192 -0.536738 0
M  V30 5164 N 480.382 0.0267497 1.57577 0
M  V30 5165 C 481.33 -0.973923 2.11229 0
M  V30 5166 C 482.324 -1.33849 1.03831 0
M  V30 5167 O 483.53 -1.321 1.22269 0
M  V30 5168 H 479.905 -0.331844 0.674821 0
M  V30 5169 H 481.876 -0.496092 2.94247 0
M  V30 5170 C 480.625 -2.24798 2.65257 0
M  V30 5171 H 479.948 -1.9762 3.47543 0
M  V30 5172 H 481.388 -2.93031 3.06445 0
M  V30 5173 C 479.847 -2.97611 1.57891 0
M  V30 5174 O 480.377 -3.89629 0.97735 0
M  V30 5175 N 478.583 -2.59905 1.29992 0
M  V30 5176 H 478.13 -1.85154 1.79097 0
M  V30 5177 H 478.088 -3.08932 0.583798 0
M  V30 5178 N 481.861 -1.55662 -0.24637 0
M  V30 5179 C 482.793 -1.86811 -1.32794 0
M  V30 5180 C 483.806 -0.754413 -1.44265 0
M  V30 5181 O 484.995 -1.03253 -1.45606 0
M  V30 5182 C 482.095 -2.0397 -2.70646 0
M  V30 5183 C 481.268 -3.34832 -2.81436 0
M  V30 5184 C 480.327 -3.41727 -4.00136 0
M  V30 5185 O 479.353 -4.14934 -3.89639 0
M  V30 5186 N 480.555 -2.71058 -5.1333 0
M  V30 5187 H 483.32 -2.80174 -1.06409 0
M  V30 5188 H 480.881 -1.55906 -0.43647 0
M  V30 5189 H 482.873 -2.05924 -3.48393 0
M  V30 5190 H 481.443 -1.1735 -2.89738 0
M  V30 5191 H 480.663 -3.4519 -1.90361 0
M  V30 5192 H 481.951 -4.21085 -2.85595 0
M  V30 5193 H 481.349 -2.11314 -5.2475 0
M  V30 5194 H 479.906 -2.78704 -5.89209 0
M  V30 5195 N 483.339 0.512053 -1.4905 0
M  V30 5196 C 484.616 1.27337 -1.48474 0
M  V30 5197 C 484.996 2.1009 -0.206301 0
M  V30 5198 O 484.344 2.136 0.811609 0
M  V30 5199 C 484.554 2.13954 -2.75726 0
M  V30 5200 C 485.902 2.73507 -3.24776 0
M  V30 5201 O 486.926 2.24229 -2.76767 0
M  V30 5202 O 485.785 3.63186 -4.08361 0
M  V30 5203 H 482.879 0.575652 -0.593762 0
M  V30 5204 H 485.425 0.527232 -1.61302 0
M  V30 5205 H 484.197 1.52709 -3.60272 0
M  V30 5206 H 483.82 2.95782 -2.65705 0
M  V30 5207 N 484.817 1.37938 0.762283 0
M  V30 5208 C 485.747 1.37176 1.88958 0
M  V30 5209 C 486.728 0.238945 1.68413 0
M  V30 5210 O 487.913 0.440726 1.89133 0
M  V30 5211 C 485.043 1.18742 3.2637 0
M  V30 5212 C 483.997 2.29136 3.61498 0
M  V30 5213 C 483.323 1.95816 4.97554 0
M  V30 5214 C 484.623 3.71363 3.6727 0
M  V30 5215 H 486.317 2.31509 1.89853 0
M  V30 5216 H 483.863 1.11438 0.912005 0
M  V30 5217 H 485.816 1.16837 4.04879 0
M  V30 5218 H 484.54 0.208683 3.25933 0
M  V30 5219 H 483.199 2.30213 2.85303 0
M  V30 5220 H 482.847 0.964475 4.93667 0
M  V30 5221 H 482.547 2.69745 5.22026 0
M  V30 5222 H 484.071 1.95513 5.78452 0
M  V30 5223 H 485.485 3.72364 4.35911 0
M  V30 5224 H 483.882 4.44425 4.03245 0
M  V30 5225 H 484.952 4.04305 2.67704 0
M  V30 5226 N 486.295 -0.989507 1.22664 0
M  V30 5227 C 487.205 -2.11449 1.01619 0
M  V30 5228 C 488.221 -1.73962 -0.036545 0
M  V30 5229 O 489.397 -2.00788 0.156924 0
M  V30 5230 C 486.462 -3.41465 0.600204 0
M  V30 5231 C 485.523 -3.93033 1.72695 0
M  V30 5232 C 484.756 -5.16844 1.33071 0
M  V30 5233 O 484.979 -5.7001 0.210975 0
M  V30 5234 O 483.913 -5.6225 2.14845 0
M  V30 5235 H 487.739 -2.32088 1.9588 0
M  V30 5236 H 485.324 -1.09823 1.01289 0
M  V30 5237 H 487.206 -4.19695 0.37873 0
M  V30 5238 H 485.881 -3.22178 -0.313511 0
M  V30 5239 H 484.788 -3.15961 2.00298 0
M  V30 5240 H 486.121 -4.16758 2.61865 0
M  V30 5241 N 487.773 -1.03688 -1.18687 0
M  V30 5242 C 488.683 -0.634908 -2.25845 0
M  V30 5243 C 489.699 0.337065 -1.70704 0
M  V30 5244 O 490.875 0.192943 -2.00474 0
M  V30 5245 C 487.94 -0.000180054 -3.467 0
M  V30 5246 C 487.001 -1.02067 -4.1699 0
M  V30 5247 C 486.234 -0.41614 -5.32075 0
M  V30 5248 O 486.457 0.778712 -5.65059 0
M  V30 5249 O 485.391 -1.14296 -5.90948 0
M  V30 5250 H 489.217 -1.52757 -2.62486 0
M  V30 5251 H 486.802 -0.807533 -1.25695 0
M  V30 5252 H 488.684 0.353342 -4.19916 0
M  V30 5253 H 487.359 0.866367 -3.11891 0
M  V30 5254 H 486.266 -1.42592 -3.45859 0
M  V30 5255 H 487.599 -1.85786 -4.5579 0
M  V30 5256 N 489.251 1.34841 -0.815825 0
M  V30 5257 C 490.198 2.29644 -0.230664 0
M  V30 5258 C 491.168 1.53253 0.640533 0
M  V30 5259 O 492.353 1.81653 0.583672 0
M  V30 5260 C 489.493 3.39715 0.607275 0
M  V30 5261 C 488.606 4.31056 -0.28538 0
M  V30 5262 C 487.741 5.28225 0.561446 0
M  V30 5263 C 486.78 6.11204 -0.331035 0
M  V30 5264 N 485.917 7.00483 0.476302 0
M  V30 5265 H 490.757 2.79095 -1.0445 0
M  V30 5266 H 488.294 1.37351 -0.526595 0
M  V30 5267 H 490.252 4.02208 1.10835 0
M  V30 5268 H 488.882 2.91517 1.38629 0
M  V30 5269 H 487.934 3.69487 -0.904621 0
M  V30 5270 H 489.246 4.89239 -0.97193 0
M  V30 5271 H 488.4 5.96135 1.12728 0
M  V30 5272 H 487.139 4.70562 1.28153 0
M  V30 5273 H 486.144 5.42232 -0.909069 0
M  V30 5274 H 487.369 6.70947 -1.04912 0
M  V30 5275 H 485.315 6.45296 1.18019 0
M  V30 5276 H 485.232 7.55847 -0.152008 0
M  V30 5277 H 486.5 7.7273 1.02512 0
M  V30 5278 N 490.729 0.570148 1.46925 0
M  V30 5279 C 491.677 -0.183181 2.31878 0
M  V30 5280 C 492.671 -0.896721 1.43719 0
M  V30 5281 O 493.877 -0.816536 1.60414 0
M  V30 5282 H 490.252 -0.077944 0.74795 0
M  V30 5283 H 492.223 0.552312 2.93244 0
M  V30 5284 C 490.972 -1.19172 3.2664 0
M  V30 5285 H 490.295 -0.652088 3.94446 0
M  V30 5286 H 491.735 -1.68946 3.88887 0
M  V30 5287 C 490.194 -2.24627 2.51086 0
M  V30 5288 O 490.724 -3.31773 2.26472 0
M  V30 5289 N 488.93 -1.98898 2.11867 0
M  V30 5290 H 488.477 -1.11777 2.32086 0
M  V30 5291 H 488.435 -2.6967 1.61634 0
M  V30 5292 N 492.207 -1.54576 0.307264 0
M  V30 5293 C 493.117 -2.27435 -0.57536 0
M  V30 5294 C 494.133 -1.31183 -1.14311 0
M  V30 5295 O 495.309 -1.64175 -1.16656 0
M  V30 5296 C 492.374 -3.00566 -1.72803 0
M  V30 5297 C 491.435 -4.12369 -1.19373 0
M  V30 5298 C 490.668 -4.82003 -2.29147 0
M  V30 5299 O 490.891 -4.51038 -3.49171 0
M  V30 5300 O 489.825 -5.69271 -1.95485 0
M  V30 5301 H 493.651 -3.03696 0.0158558 0
M  V30 5302 H 491.236 -1.49219 0.0735064 0
M  V30 5303 H 493.118 -3.46416 -2.39946 0
M  V30 5304 H 491.793 -2.27195 -2.30574 0
M  V30 5305 H 490.7 -3.70905 -0.487851 0
M  V30 5306 H 492.033 -4.87736 -0.661376 0
M  V30 5307 N 493.685 -0.035106 -1.57561 0
M  V30 5308 C 494.633 0.962707 -2.11742 0
M  V30 5309 C 495.627 1.33296 -1.0454 0
M  V30 5310 O 496.833 1.31449 -1.22968 0
M  V30 5311 H 493.208 0.32826 -0.676572 0
M  V30 5312 H 495.179 0.48048 -2.94506 0
M  V30 5313 C 493.928 2.23388 -2.66445 0
M  V30 5314 H 493.251 1.95774 -3.48587 0
M  V30 5315 H 494.691 2.91402 -3.07995 0
M  V30 5316 C 493.15 2.96769 -1.59467 0
M  V30 5317 O 493.68 3.89105 -0.998 0
M  V30 5318 N 491.886 2.59212 -1.31369 0
M  V30 5319 H 491.433 1.84202 -1.80076 0
M  V30 5320 H 491.391 3.08618 -0.600173 0
M  V30 5321 N 495.163 1.55791 0.238111 0
M  V30 5322 C 496.095 1.87513 1.31802 0
M  V30 5323 C 497.108 0.762053 1.43863 0
M  V30 5324 O 498.297 1.04024 1.45056 0
M  V30 5325 C 495.397 2.05402 2.69561 0
M  V30 5326 C 494.57 3.3632 2.79656 0
M  V30 5327 C 493.629 3.43844 3.98319 0
M  V30 5328 O 492.655 4.16994 3.87433 0
M  V30 5329 N 493.857 2.73777 5.11885 0
M  V30 5330 H 496.622 2.80734 1.04922 0
M  V30 5331 H 494.183 1.56135 0.428196 0
M  V30 5332 H 496.175 2.07769 3.47296 0
M  V30 5333 H 494.745 1.18884 2.89111 0
M  V30 5334 H 493.965 3.46195 1.88528 0
M  V30 5335 H 495.253 4.22594 2.83358 0
M  V30 5336 H 494.651 2.14094 5.23622 0
M  V30 5337 H 493.208 2.81825 5.87723 0
M  V30 5338 N 496.642 -0.504142 1.49319 0
M  V30 5339 C 497.552 -1.63248 1.68486 0
M  V30 5340 C 498.568 -1.64488 0.567432 0
M  V30 5341 O 499.744 -1.82966 0.841749 0
M  V30 5342 C 496.809 -2.99627 1.74426 0
M  V30 5343 C 495.87 -3.09039 2.97982 0
M  V30 5344 C 495.103 -4.38913 3.0363 0
M  V30 5345 O 495.326 -5.27528 2.16958 0
M  V30 5346 O 494.26 -4.53231 3.96062 0
M  V30 5347 H 498.086 -1.50008 2.64067 0
M  V30 5348 H 495.671 -0.680086 1.33023 0
M  V30 5349 H 497.553 -3.80689 1.80705 0
M  V30 5350 H 496.228 -3.13136 0.820233 0
M  V30 5351 H 495.135 -2.27177 2.97223 0
M  V30 5352 H 496.468 -3.00456 3.89855 0
M  V30 5353 N 498.12 -1.38341 -0.754957 0
M  V30 5354 C 499.068 -1.35573 -1.89005 0
M  V30 5355 C 500.062 -0.241824 -1.67665 0
M  V30 5356 O 501.268 -0.410785 -1.7525 0
M  V30 5357 H 497.643 -0.422898 -0.621821 0
M  V30 5358 H 499.614 -2.31359 -1.88455 0
M  V30 5359 C 498.363 -1.19631 -3.26471 0
M  V30 5360 H 497.686 -2.04605 -3.43477 0
M  V30 5361 H 499.126 -1.21748 -4.06144 0
M  V30 5362 C 497.585 0.0968705 -3.36761 0
M  V30 5363 O 498.115 1.07439 -3.87066 0
M  V30 5364 N 496.321 0.153242 -2.90196 0
M  V30 5365 H 495.868 -0.642908 -2.49448 0
M  V30 5366 H 495.826 1.01807 -2.9746 0
M  V30 5367 N 499.598 0.982988 -1.23187 0
M  V30 5368 C 500.875 1.69814 -0.970707 0
M  V30 5369 C 501.255 2.04811 0.511424 0
M  V30 5370 O 500.603 1.73924 1.48198 0
M  V30 5371 C 500.813 2.94143 -1.87831 0
M  V30 5372 C 502.161 3.66712 -2.14026 0
M  V30 5373 O 503.185 3.04171 -1.8536 0
M  V30 5374 O 502.044 4.79258 -2.62629 0
M  V30 5375 H 499.138 0.741659 -0.365884 0
M  V30 5376 H 501.684 1.03844 -1.34218 0
M  V30 5377 H 500.456 2.64858 -2.88038 0
M  V30 5378 H 500.079 3.6785 -1.50905 0
M  V30 5379 N 501.076 1.04316 1.18135 0
M  V30 5380 C 502.353 0.662166 1.84051 0
M  V30 5381 C 502.733 -0.858169 1.9287 0
M  V30 5382 O 502.081 -1.76062 1.45652 0
M  V30 5383 C 502.291 1.3409 3.22212 0
M  V30 5384 C 503.639 1.4733 3.9822 0
M  V30 5385 O 504.663 1.29921 3.31661 0
M  V30 5386 O 503.522 1.75722 5.17479 0
M  V30 5387 H 500.616 0.232005 0.79379 0
M  V30 5388 H 503.162 1.1422 1.25506 0
M  V30 5389 H 501.934 2.37853 3.10711 0
M  V30 5390 H 501.557 0.849649 3.88416 0
M  V30 5391 N 502.554 -1.34406 0.822964 0
M  V30 5392 C 503.464 -2.33298 0.246838 0
M  V30 5393 C 504.48 -1.62625 -0.618797 0
M  V30 5394 O 505.656 -1.94391 -0.526685 0
M  V30 5395 C 502.721 -3.41785 -0.581731 0
M  V30 5396 C 501.782 -4.28206 0.306309 0
M  V30 5397 C 501.015 -5.31512 -0.48281 0
M  V30 5398 O 501.238 -5.43973 -1.71607 0
M  V30 5399 O 500.172 -6.01749 0.134884 0
M  V30 5400 H 503.998 -2.84401 1.06534 0
M  V30 5401 H 501.583 -1.37466 0.585108 0
M  V30 5402 H 503.465 -4.08028 -1.05313 0
M  V30 5403 H 502.14 -2.92925 -1.37756 0
M  V30 5404 H 501.047 -3.64885 0.825199 0
M  V30 5405 H 502.38 -4.80507 1.06649 0
M  V30 5406 N 504.032 -0.577932 -1.46621 0
M  V30 5407 C 505.28 -0.061566 -2.02006 0
M  V30 5408 C 505.601 1.30117 -1.4524 0
M  V30 5409 O 504.871 1.85313 -0.63529 0
M  V30 5410 H 503.451 -0.0197692 -0.746738 0
M  V30 5411 H 506.113 -0.752631 -1.79782 0
M  V30 5412 H 505.209 0.0110238 -3.12098 0
M  V30 5413 N 505.51 1.54411 -0.315457 0
M  V30 5414 C 506.42 2.27737 0.56329 0
M  V30 5415 C 507.436 1.31787 1.13614 0
M  V30 5416 O 508.612 1.64791 1.15784 0
M  V30 5417 C 505.677 3.01478 1.71207 0
M  V30 5418 C 504.738 4.12997 1.17185 0
M  V30 5419 C 503.971 4.83212 2.26588 0
M  V30 5420 O 504.194 4.52884 3.46775 0
M  V30 5421 O 503.128 5.70299 1.92463 0
M  V30 5422 H 506.954 3.03683 -0.0319614 0
M  V30 5423 H 504.539 1.49178 -0.0814188 0
M  V30 5424 H 506.421 3.47683 2.38106 0
M  V30 5425 H 505.096 2.28414 2.29366 0
M  V30 5426 H 504.003 3.71159 0.468174 0
M  V30 5427 H 505.336 4.8808 0.635501 0
M  V30 5428 N 506.988 0.0434614 1.5754 0
M  V30 5429 C 507.898 -0.94893 2.14552 0
M  V30 5430 C 508.914 -1.34707 1.10136 0
M  V30 5431 O 510.09 -1.42557 1.42266 0
M  V30 5432 C 507.155 -2.208 2.67298 0
M  V30 5433 C 506.216 -1.86893 3.86484 0
M  V30 5434 C 505.449 -3.06797 4.36705 0
M  V30 5435 O 505.672 -4.19921 3.86034 0
M  V30 5436 O 504.606 -2.8826 5.28384 0
M  V30 5437 H 508.432 -0.494099 2.99654 0
M  V30 5438 H 506.017 -0.177989 1.48336 0
M  V30 5439 H 507.899 -2.94686 3.01228 0
M  V30 5440 H 506.574 -2.65436 1.85272 0
M  V30 5441 H 505.481 -1.10347 3.57455 0
M  V30 5442 H 506.814 -1.47062 4.69716 0
M  V30 5443 N 508.466 -1.55915 -0.229846 0
M  V30 5444 C 509.743 -1.6932 -0.979295 0
M  V30 5445 C 510.123 -0.588321 -2.02736 0
M  V30 5446 O 509.471 0.40586 -2.24867 0
M  V30 5447 C 509.681 -3.10305 -1.59724 0
M  V30 5448 C 511.029 -3.6945 -2.09264 0
M  V30 5449 O 512.053 -3.13214 -1.69633 0
M  V30 5450 O 510.912 -4.68072 -2.82082 0
M  V30 5451 H 508.006 -0.689314 -0.456919 0
M  V30 5452 H 510.552 -1.68238 -0.222283 0
M  V30 5453 H 509.324 -3.82177 -0.840039 0
M  V30 5454 H 508.947 -3.1547 -2.42001 0
M  V30 5455 N 509.944 0.496216 -1.49584 0
M  V30 5456 C 510.891 1.59722 -1.66606 0
M  V30 5457 C 511.861 1.58158 -0.507477 0
M  V30 5458 O 513.046 1.76072 -0.735076 0
M  V30 5459 C 510.186 2.97844 -1.74308 0
M  V30 5460 C 509.299 3.09388 -3.01502 0
M  V30 5461 C 508.434 4.38271 -3.00153 0
M  V30 5462 C 507.473 4.43466 -4.21906 0
M  V30 5463 N 506.61 5.63784 -4.1844 0
M  V30 5464 H 511.45 1.44515 -2.60613 0
M  V30 5465 H 508.987 0.703048 -1.29212 0
M  V30 5466 H 510.945 3.77907 -1.76754 0
M  V30 5467 H 509.575 3.11743 -0.837619 0
M  V30 5468 H 508.627 2.22357 -3.08645 0
M  V30 5469 H 509.939 3.09085 -3.91494 0
M  V30 5470 H 509.093 5.2666 -3.01188 0
M  V30 5471 H 507.832 4.41146 -2.07947 0
M  V30 5472 H 506.837 3.53478 -4.21109 0
M  V30 5473 H 508.062 4.42303 -5.1531 0
M  V30 5474 H 506.008 5.67491 -3.29074 0
M  V30 5475 H 505.925 5.65118 -5.02173 0
M  V30 5476 H 507.193 6.54367 -4.23585 0
M  V30 5477 N 511.423 1.38739 0.74761 0
M  V30 5478 C 512.353 1.39173 1.87492 0
M  V30 5479 C 513.334 0.256794 1.6815 0
M  V30 5480 O 514.519 0.460762 1.88655 0
M  V30 5481 C 511.649 1.22197 3.25093 0
M  V30 5482 C 510.603 2.32957 3.59047 0
M  V30 5483 C 509.929 2.01082 4.95449 0
M  V30 5484 C 511.229 3.75237 3.6331 0
M  V30 5485 H 512.923 2.3351 1.87386 0
M  V30 5486 H 510.469 1.12399 0.900134 0
M  V30 5487 H 512.422 1.21124 4.03617 0
M  V30 5488 H 511.146 0.243241 3.25693 0
M  V30 5489 H 509.805 2.33226 2.82845 0
M  V30 5490 H 509.453 1.01678 4.92616 0
M  V30 5491 H 509.153 2.75267 5.19136 0
M  V30 5492 H 510.677 2.01638 5.76346 0
M  V30 5493 H 512.091 3.76966 4.31937 0
M  V30 5494 H 510.488 4.48677 3.98509 0
M  V30 5495 H 511.558 4.07122 2.634 0
M  V30 5496 N 512.901 -0.976442 1.23707 0
M  V30 5497 C 514.148 -1.71827 1.07153 0
M  V30 5498 C 514.476 -1.9053 -0.390982 0
M  V30 5499 O 513.731 -1.45779 -1.30564 0
M  V30 5500 C 514.03 -3.11814 1.74662 0
M  V30 5501 C 513.696 -3.12978 3.24585 0
M  V30 5502 C 512.358 -3.13003 3.6549 0
M  V30 5503 C 514.71 -3.07986 4.20469 0
M  V30 5504 C 512.038 -3.05757 5.00729 0
M  V30 5505 C 514.39 -3.02282 5.55705 0
M  V30 5506 C 513.054 -3.00631 5.95968 0
M  V30 5507 H 512.324 -0.628758 0.392102 0
M  V30 5508 H 514.971 -1.14239 1.53693 0
M  V30 5509 H 513.276 -3.72812 1.20492 0
M  V30 5510 H 514.973 -3.67989 1.59328 0
M  V30 5511 H 511.563 -3.13718 2.92026 0
M  V30 5512 H 515.747 -3.07103 3.89874 0
M  V30 5513 H 511.003 -3.02834 5.31132 0
M  V30 5514 H 515.177 -2.97376 6.29714 0
M  V30 5515 H 512.804 -2.94771 7.00724 0
M  V30 5516 N 514.379 -1.04941 -1.1758 0
M  V30 5517 C 515.625 -0.768896 -1.88307 0
M  V30 5518 C 515.98 0.696361 -1.79356 0
M  V30 5519 O 515.273 1.50245 -1.18899 0
M  V30 5520 C 515.467 -1.18062 -3.37337 0
M  V30 5521 C 515.296 -2.68436 -3.60794 0
M  V30 5522 C 514.066 -3.35709 -3.77661 0
M  V30 5523 C 516.264 -3.66657 -3.60649 0
M  V30 5524 N 514.246 -4.74974 -3.88939 0
M  V30 5525 C 515.617 -4.91638 -3.77747 0
M  V30 5526 C 517.672 -3.60162 -3.43785 0
M  V30 5527 C 516.375 -6.10902 -3.79726 0
M  V30 5528 C 518.401 -4.78863 -3.47051 0
M  V30 5529 C 517.763 -6.02666 -3.64654 0
M  V30 5530 H 513.862 -0.33355 -0.707296 0
M  V30 5531 H 516.446 -1.34085 -1.41171 0
M  V30 5532 H 514.617 -0.636648 -3.83147 0
M  V30 5533 H 516.349 -0.8502 -3.95669 0
M  V30 5534 H 513.104 -2.8611 -3.77409 0
M  V30 5535 H 513.528 -5.47378 -3.98379 0
M  V30 5536 H 518.17 -2.65412 -3.29114 0
M  V30 5537 H 515.888 -7.05998 -3.93182 0
M  V30 5538 H 519.474 -4.75488 -3.35265 0
M  V30 5539 H 518.354 -6.92979 -3.67083 0
M  V30 5540 N 515.857 1.33968 -0.830081 0
M  V30 5541 C 516.787 2.31911 -0.271911 0
M  V30 5542 C 517.768 1.58571 0.61556 0
M  V30 5543 O 518.953 1.86514 0.540946 0
M  V30 5544 C 516.083 3.42737 0.561146 0
M  V30 5545 C 515.037 4.27383 -0.229789 0
M  V30 5546 C 514.363 5.29742 0.726463 0
M  V30 5547 C 515.663 5.02 -1.44197 0
M  V30 5548 H 517.357 2.78844 -1.09025 0
M  V30 5549 H 514.903 1.34061 -0.52571 0
M  V30 5550 H 516.856 4.10276 0.961867 0
M  V30 5551 H 515.58 2.94471 1.41261 0
M  V30 5552 H 514.239 3.61456 -0.611964 0
M  V30 5553 H 513.887 4.77736 1.57408 0
M  V30 5554 H 513.587 5.87255 0.20142 0
M  V30 5555 H 515.111 6.00149 1.12489 0
M  V30 5556 H 516.525 5.62355 -1.11488 0
M  V30 5557 H 514.922 5.69122 -1.90317 0
M  V30 5558 H 515.992 4.31281 -2.2164 0
M  V30 5559 N 517.335 0.585699 1.46312 0
M  V30 5560 C 518.245 -0.148236 2.34131 0
M  V30 5561 C 519.261 -0.882972 1.49932 0
M  V30 5562 O 520.437 -0.845484 1.82794 0
M  V30 5563 C 517.502 -1.14714 3.27172 0
M  V30 5564 C 516.563 -0.416746 4.27272 0
M  V30 5565 C 515.796 -1.36806 5.15868 0
M  V30 5566 O 516.019 -2.60475 5.07454 0
M  V30 5567 O 514.953 -0.877018 5.95476 0
M  V30 5568 H 518.779 0.572882 2.98248 0
M  V30 5569 H 516.364 0.346082 1.45336 0
M  V30 5570 H 518.246 -1.72303 3.84564 0
M  V30 5571 H 516.921 -1.84967 2.65648 0
M  V30 5572 H 515.828 0.201061 3.73559 0
M  V30 5573 H 517.161 0.244872 4.9159 0
M  V30 5574 N 518.813 -1.54241 0.323641 0
M  V30 5575 C 519.776 -2.22997 -0.529602 0
M  V30 5576 C 520.776 -1.22345 -1.04347 0
M  V30 5577 O 521.966 -1.46924 -0.935889 0
M  V30 5578 C 519.098 -2.93409 -1.73562 0
M  V30 5579 H 520.291 -2.99815 0.0714518 0
M  V30 5580 H 517.844 -1.56121 0.0747258 0
M  V30 5581 H 518.579 -2.20729 -2.37591 0
M  V30 5582 H 518.364 -3.67217 -1.37456 0
M  V30 5583 H 519.854 -3.45794 -2.34128 0
M  V30 5584 N 520.291 -0.0518155 -1.57515 0
M  V30 5585 C 521.531 0.625712 -1.94587 0
M  V30 5586 C 521.895 1.6797 -0.930053 0
M  V30 5587 O 523.096 2.41135 -1.18774 0
M  V30 5588 C 521.367 1.20574 -3.36447 0
M  V30 5589 S 522.926 1.90118 -3.95475 0
M  V30 5590 H 519.744 0.205434 -0.680675 0
M  V30 5591 H 522.346 -0.120906 -1.95126 0
M  V30 5592 H 521.05 0.426521 -4.08178 0
M  V30 5593 H 520.581 1.98916 -3.39405 0
M  V30 5594 H 522.596 3.18184 -3.80753 0
M  V30 5595 N 521.769 1.56035 0.221574 0
M  V30 5596 C 522.999 1.82864 0.961468 0
M  V30 5597 C 523.407 0.628703 1.78449 0
M  V30 5598 O 522.75 -0.412109 1.79018 0
M  V30 5599 C 522.812 3.03425 1.92804 0
M  V30 5600 C 522.476 4.38429 1.28954 0
M  V30 5601 C 523.473 5.15441 0.679431 0
M  V30 5602 C 521.158 4.85151 1.30131 0
M  V30 5603 C 523.152 6.37337 0.0896148 0
M  V30 5604 C 520.839 6.06989 0.707651 0
M  V30 5605 C 521.837 6.82923 0.102855 0
M  V30 5606 O 521.525 8.02456 -0.48157 0
M  V30 5607 H 521.257 0.611883 0.28736 0
M  V30 5608 H 523.811 2.0397 0.241932 0
M  V30 5609 H 522.041 2.78138 2.68656 0
M  V30 5610 H 523.73 3.17127 2.53348 0
M  V30 5611 H 524.496 4.80452 0.662661 0
M  V30 5612 H 520.375 4.26021 1.76145 0
M  V30 5613 H 523.919 6.96547 -0.383069 0
M  V30 5614 H 519.816 6.41451 0.721834 0
M  V30 5615 H 520.584 8.17636 -0.375887 0
M  V30 5616 N 523.247 -0.488276 1.49845 0
M  V30 5617 C 524.194 -1.58836 1.67451 0
M  V30 5618 C 525.164 -1.57886 0.515857 0
M  V30 5619 O 526.349 -1.75679 0.744403 0
M  V30 5620 C 523.489 -2.96915 1.75885 0
M  V30 5621 C 522.602 -3.07784 3.03138 0
M  V30 5622 C 521.737 -4.36673 3.02473 0
M  V30 5623 C 520.776 -4.41222 4.24252 0
M  V30 5624 N 519.913 -5.61557 4.21424 0
M  V30 5625 H 524.753 -1.43131 2.61376 0
M  V30 5626 H 522.29 -0.696186 1.29583 0
M  V30 5627 H 524.248 -3.76965 1.78755 0
M  V30 5628 H 522.878 -3.11295 0.85414 0
M  V30 5629 H 521.93 -2.20717 3.09819 0
M  V30 5630 H 523.242 -3.07005 3.93128 0
M  V30 5631 H 522.396 -5.25055 3.03977 0
M  V30 5632 H 521.135 -4.40037 2.10283 0
M  V30 5633 H 520.14 -3.5124 4.22978 0
M  V30 5634 H 521.365 -4.39564 5.17649 0
M  V30 5635 H 519.311 -5.65738 3.32078 0
M  V30 5636 H 519.228 -5.62447 5.05163 0
M  V30 5637 H 520.496 -6.52111 4.2705 0
M  V30 5638 N 524.725 -1.39134 -0.740242 0
M  V30 5639 C 525.688 -1.37217 -1.83587 0
M  V30 5640 C 526.688 -0.270221 -1.58513 0
M  V30 5641 O 527.878 -0.527843 -1.6601 0
M  V30 5642 C 525.01 -1.13959 -3.21288 0
M  V30 5643 H 526.203 -2.34705 -1.86691 0
M  V30 5644 H 523.756 -1.24622 -0.94335 0
M  V30 5645 H 524.491 -0.17131 -3.23847 0
M  V30 5646 H 524.276 -1.93754 -3.40884 0
M  V30 5647 H 525.766 -1.15346 -4.01354 0
M  V30 5648 N 526.204 0.969867 -1.24223 0
M  V30 5649 C 527.134 2.08191 -1.05729 0
M  V30 5650 C 528.115 1.70075 0.0290765 0
M  V30 5651 O 529.3 1.93712 -0.137583 0
M  V30 5652 C 526.43 3.40991 -0.658995 0
M  V30 5653 C 525.384 3.93054 -1.69389 0
M  V30 5654 C 524.71 5.22171 -1.15072 0
M  V30 5655 C 526.01 4.21137 -3.08935 0
M  V30 5656 H 527.704 2.23921 -1.98746 0
M  V30 5657 H 525.25 1.07602 -0.956967 0
M  V30 5658 H 527.203 4.18221 -0.51662 0
M  V30 5659 H 525.927 3.25155 0.30686 0
M  V30 5660 H 524.586 3.17977 -1.82444 0
M  V30 5661 H 524.234 5.02694 -0.175539 0
M  V30 5662 H 523.934 5.57973 -1.84229 0
M  V30 5663 H 525.458 6.02013 -1.02042 0
M  V30 5664 H 526.872 4.8908 -2.99121 0
M  V30 5665 H 525.269 4.68163 -3.75425 0
M  V30 5666 H 526.339 3.27996 -3.57137 0
M  V30 5667 N 527.682 1.05563 1.17022 0
M  V30 5668 C 528.91 0.78845 1.91288 0
M  V30 5669 C 529.325 -0.656318 1.77025 0
M  V30 5670 O 528.682 -1.44869 1.10992 0
M  V30 5671 C 528.733 1.16444 3.42232 0
M  V30 5672 O 528.454 2.5525 3.5606 0
M  V30 5673 C 529.955 0.923937 4.33565 0
M  V30 5674 H 527.175 0.286389 0.606813 0
M  V30 5675 H 529.719 1.4073 1.48375 0
M  V30 5676 H 527.874 0.590266 3.82877 0
M  V30 5677 H 528.288 2.70097 4.49609 0
M  V30 5678 H 529.762 1.23672 5.37968 0
M  V30 5679 H 530.239 -0.140688 4.38975 0
M  V30 5680 H 530.845 1.48214 3.98639 0
M  V30 5681 N 529.16 -1.33526 0.837174 0
M  V30 5682 C 530.406 -1.98541 0.44193 0
M  V30 5683 C 530.761 -1.65124 -0.987517 0
M  V30 5684 O 530.054 -0.919948 -1.6807 0
M  V30 5685 C 530.248 -3.52367 0.597675 0
M  V30 5686 C 530.077 -4.00731 2.04071 0
M  V30 5687 C 528.847 -4.28649 2.67559 0
M  V30 5688 C 531.045 -4.17073 3.00923 0
M  V30 5689 N 529.027 -4.63142 4.02955 0
M  V30 5690 C 530.398 -4.54905 4.21261 0
M  V30 5691 C 532.453 -3.99358 2.97351 0
M  V30 5692 C 531.156 -4.76874 5.38501 0
M  V30 5693 C 533.182 -4.22501 4.1382 0
M  V30 5694 C 532.544 -4.60634 5.32912 0
M  V30 5695 H 528.643 -0.753246 0.210105 0
M  V30 5696 H 531.227 -1.61674 1.08488 0
M  V30 5697 H 529.398 -3.88397 -0.0154658 0
M  V30 5698 H 531.13 -4.04326 0.17404 0
M  V30 5699 H 527.885 -4.20077 2.18706 0
M  V30 5700 H 528.309 -4.84601 4.72748 0
M  V30 5701 H 532.951 -3.68993 2.06408 0
M  V30 5702 H 530.669 -5.06101 6.2999 0
M  V30 5703 H 534.255 -4.10316 4.12471 0
M  V30 5704 H 533.135 -4.78187 6.21536 0
M  V30 5705 N 530.638 -0.59345 -1.46 0
M  V30 5706 C 531.588 0.154751 -2.27474 0
M  V30 5707 C 532.572 0.851849 -1.365 0
M  V30 5708 O 533.764 0.744171 -1.60596 0
M  V30 5709 C 530.893 1.16079 -3.2308 0
M  V30 5710 C 529.979 0.465256 -4.2154 0
M  V30 5711 N 530.37 -0.485197 -5.03467 0
M  V30 5712 C 528.668 0.714634 -4.40237 0
M  V30 5713 C 529.369 -0.892709 -5.74809 0
M  V30 5714 N 528.345 -0.239511 -5.43072 0
M  V30 5715 H 532.147 -0.57546 -2.88211 0
M  V30 5716 H 529.661 -0.416046 -1.5698 0
M  V30 5717 H 531.658 1.71108 -3.80168 0
M  V30 5718 H 530.318 1.89171 -2.63903 0
M  V30 5719 H 531.329 -0.861258 -5.10689 0
M  V30 5720 H 528.006 1.43131 -3.92199 0
M  V30 5721 H 529.396 -1.67581 -6.50666 0
M  V30 5722 N 532.116 1.54067 -0.331816 0
M  V30 5723 C 533.532 1.59587 0.0205388 0
M  V30 5724 C 533.732 1.34813 1.49759 0
M  V30 5725 O 532.788 1.13661 2.25471 0
M  V30 5726 C 534.101 2.97959 -0.405103 0
M  V30 5727 C 535.649 3.10964 -0.356454 0
M  V30 5728 C 536.124 4.51694 -0.757384 0
M  V30 5729 N 537.615 4.57709 -0.71111 0
M  V30 5730 C 538.35 5.64729 -0.993427 0
M  V30 5731 N 537.846 6.79652 -1.3433 0
M  V30 5732 N 539.639 5.54546 -0.918442 0
M  V30 5733 H 531.79 1.68426 -1.29407 0
M  V30 5734 H 534.053 0.78819 -0.526745 0
M  V30 5735 H 533.759 3.21115 -1.43451 0
M  V30 5736 H 533.633 3.76524 0.225692 0
M  V30 5737 H 536.02 2.87538 0.663763 0
M  V30 5738 H 536.101 2.34484 -1.02229 0
M  V30 5739 H 535.745 4.75853 -1.77555 0
M  V30 5740 H 535.675 5.26555 -0.0691444 0
M  V30 5741 H 538.166 3.75176 -0.452883 0
M  V30 5742 H 538.479 7.57221 -1.54388 0
M  V30 5743 H 536.824 6.81128 -1.38164 0
M  V30 5744 H 540.015 4.63641 -0.644536 0
M  V30 5745 H 540.188 6.37861 -1.14181 0
M  V30 5746 N 533.594 0.0601682 1.57485 0
M  V30 5747 C 534.541 -0.91112 2.12055 0
M  V30 5748 C 535.511 -1.30298 1.03013 0
M  V30 5749 O 536.696 -1.39087 1.30612 0
M  V30 5750 C 533.836 -2.1775 2.67729 0
M  V30 5751 C 532.949 -1.83933 3.90887 0
M  V30 5752 C 532.084 -3.05096 4.34845 0
M  V30 5753 C 531.123 -2.67241 5.5068 0
M  V30 5754 N 530.26 -3.81127 5.8965 0
M  V30 5755 H 535.1 -0.43888 2.9475 0
M  V30 5756 H 532.637 -0.204995 1.45665 0
M  V30 5757 H 534.595 -2.91866 2.98111 0
M  V30 5758 H 533.225 -2.62535 1.87816 0
M  V30 5759 H 532.277 -0.999287 3.6704 0
M  V30 5760 H 533.589 -1.52074 4.75052 0
M  V30 5761 H 532.743 -3.87502 4.66827 0
M  V30 5762 H 531.482 -3.40139 3.49509 0
M  V30 5763 H 530.487 -1.83254 5.18361 0
M  V30 5764 H 531.712 -2.3338 6.37738 0
M  V30 5765 H 529.658 -4.15954 5.07266 0
M  V30 5766 H 529.575 -3.52997 6.68528 0
M  V30 5767 H 530.843 -4.64145 6.2625 0
M  V30 5768 N 535.072 -1.5615 -0.213296 0
M  V30 5769 C 536.02 -1.93953 -1.28394 0
M  V30 5770 C 537.014 -0.822592 -1.48087 0
M  V30 5771 O 538.22 -1.00748 -1.49164 0
M  V30 5772 H 534.595 -0.61648 -0.430646 0
M  V30 5773 H 536.566 -2.83275 -0.937977 0
M  V30 5774 C 535.315 -2.27969 -2.62537 0
M  V30 5775 H 534.638 -3.13432 -2.48194 0
M  V30 5776 H 536.078 -2.58297 -3.36242 0
M  V30 5777 C 534.537 -1.10775 -3.18167 0
M  V30 5778 O 535.067 -0.373201 -3.99963 0
M  V30 5779 N 533.273 -0.889377 -2.76656 0
M  V30 5780 H 532.82 -1.48843 -2.10246 0
M  V30 5781 H 532.778 -0.107 -3.14218 0
M  V30 5782 N 536.55 0.480323 -1.50102 0
M  V30 5783 C 537.497 1.57946 -1.6829 0
M  V30 5784 C 538.467 1.57611 -0.524223 0
M  V30 5785 O 539.652 1.75282 -0.753709 0
M  V30 5786 C 536.792 2.95978 -1.77457 0
M  V30 5787 C 535.905 3.06173 -3.04766 0
M  V30 5788 C 535.04 4.35063 -3.04784 0
M  V30 5789 C 534.079 4.38966 -4.26586 0
M  V30 5790 N 533.216 5.59314 -4.24396 0
M  V30 5791 H 538.056 1.41743 -2.62131 0
M  V30 5792 H 535.593 0.689304 -1.2995 0
M  V30 5793 H 537.551 3.76011 -1.80752 0
M  V30 5794 H 536.181 3.10837 -0.870637 0
M  V30 5795 H 535.233 2.19071 -3.10986 0
M  V30 5796 H 536.545 3.04916 -3.9475 0
M  V30 5797 H 535.699 5.23436 -3.06757 0
M  V30 5798 H 534.438 4.38915 -2.12614 0
M  V30 5799 H 533.443 3.48992 -4.24835 0
M  V30 5800 H 534.668 4.36813 -5.19972 0
M  V30 5801 H 532.614 5.63969 -3.35074 0
M  V30 5802 H 532.531 5.5976 -5.08138 0
M  V30 5803 H 533.799 6.49837 -4.30502 0
M  V30 5804 N 538.028 1.39524 0.732853 0
M  V30 5805 C 538.978 1.34905 1.83806 0
M  V30 5806 C 539.962 0.229546 1.59254 0
M  V30 5807 O 541.154 0.467255 1.70721 0
M  V30 5808 C 538.283 1.19699 3.21756 0
M  V30 5809 C 537.369 2.36359 3.5213 0
M  V30 5810 N 537.76 3.61834 3.53426 0
M  V30 5811 C 536.058 2.29363 3.82503 0
M  V30 5812 C 536.759 4.38992 3.81655 0
M  V30 5813 N 535.735 3.68606 3.99538 0
M  V30 5814 H 539.537 2.29882 1.83116 0
M  V30 5815 H 537.051 1.33051 0.931194 0
M  V30 5816 H 539.048 1.14472 4.00876 0
M  V30 5817 H 537.708 0.256739 3.23683 0
M  V30 5818 H 538.719 3.95228 3.34686 0
M  V30 5819 H 535.396 1.43612 3.92023 0
M  V30 5820 H 536.786 5.47763 3.89108 0
M  V30 5821 N 539.506 -0.963266 1.24736 0
M  V30 5822 C 540.752 -1.70933 1.09131 0
M  V30 5823 C 541.085 -1.90676 -0.368273 0
M  V30 5824 O 540.36 -1.47147 -1.27193 0
M  V30 5825 C 540.643 -3.09744 1.83658 0
M  V30 5826 C 540.496 -2.97465 3.37394 0
M  V30 5827 C 541.815 -4.09483 1.61282 0
M  V30 5828 H 538.934 -0.620398 0.397838 0
M  V30 5829 H 541.576 -1.12028 1.53459 0
M  V30 5830 H 539.726 -3.60031 1.4598 0
M  V30 5831 H 541.398 -2.54571 3.84696 0
M  V30 5832 H 539.641 -2.33576 3.65547 0
M  V30 5833 H 540.312 -3.95822 3.84745 0
M  V30 5834 H 542.788 -3.68073 1.94066 0
M  V30 5835 H 541.664 -5.04666 2.15878 0
M  V30 5836 H 541.925 -4.38639 0.552102 0
M  V30 5837 N 540.985 -1.06182 -1.16461 0
M  V30 5838 C 541.917 -0.629584 -2.20383 0
M  V30 5839 C 542.93 0.311834 -1.59786 0
M  V30 5840 O 544.119 0.103 -1.78203 0
M  V30 5841 C 541.219 0.0973695 -3.3876 0
M  V30 5842 C 540.392 -0.857252 -4.28917 0
M  V30 5843 C 539.451 -0.169749 -5.25926 0
M  V30 5844 O 538.477 -0.807044 -5.6345 0
M  V30 5845 N 539.679 1.08911 -5.70192 0
M  V30 5846 H 542.444 -1.52352 -2.58087 0
M  V30 5847 H 540.005 -0.944993 -1.31459 0
M  V30 5848 H 541.997 0.567676 -4.00699 0
M  V30 5849 H 540.567 0.893093 -2.99571 0
M  V30 5850 H 539.787 -1.50696 -3.64259 0
M  V30 5851 H 541.075 -1.50489 -4.86035 0
M  V30 5852 H 540.473 1.62703 -5.41797 0
M  V30 5853 H 539.03 1.50331 -6.34227 0
M  V30 5854 N 542.463 1.3308 -0.844243 0
M  V30 5855 C 543.373 2.32876 -0.283922 0
M  V30 5856 C 544.389 1.63589 0.592846 0
M  V30 5857 O 545.565 1.95205 0.495693 0
M  V30 5858 C 542.63 3.42667 0.527283 0
M  V30 5859 C 541.691 4.27664 -0.374394 0
M  V30 5860 C 540.924 5.32212 0.39819 0
M  V30 5861 O 541.147 5.46635 1.62932 0
M  V30 5862 O 540.081 6.01458 -0.2306 0
M  V30 5863 H 543.907 2.82671 -1.11045 0
M  V30 5864 H 541.492 1.36518 -0.606903 0
M  V30 5865 H 543.374 4.09652 0.988078 0
M  V30 5866 H 542.049 2.95079 1.33078 0
M  V30 5867 H 540.956 3.63526 -0.883144 0
M  V30 5868 H 542.289 4.78749 -1.1428 0
M  V30 5869 N 543.941 0.601185 1.45683 0
M  V30 5870 C 544.904 -0.111398 2.28929 0
M  V30 5871 C 545.904 -0.801246 1.39416 0
M  V30 5872 O 547.094 -0.650383 1.61603 0
M  V30 5873 C 544.226 -1.16773 3.20276 0
M  V30 5874 H 545.419 0.620412 2.93413 0
M  V30 5875 H 542.972 0.359946 1.52099 0
M  V30 5876 H 543.707 -1.93051 2.60579 0
M  V30 5877 H 543.492 -0.677358 3.86205 0
M  V30 5878 H 544.982 -1.66698 3.82886 0
M  V30 5879 N 545.419 -1.53889 0.339982 0
M  V30 5880 C 546.382 -2.23547 -0.50592 0
M  V30 5881 C 547.382 -1.23445 -1.03044 0
M  V30 5882 O 548.572 -1.47909 -0.920253 0
M  V30 5883 C 545.704 -2.95234 -1.7044 0
M  V30 5884 H 546.897 -2.99722 0.103247 0
M  V30 5885 H 544.45 -1.56033 0.0912804 0
M  V30 5886 H 545.185 -2.23236 -2.35236 0
M  V30 5887 H 544.97 -3.68654 -1.33553 0
M  V30 5888 H 546.46 -3.48258 -2.30447 0
M  V30 5889 N 546.897 -0.0685191 -1.57451 0
M  V30 5890 C 548.137 0.605038 -1.9524 0
M  V30 5891 C 548.501 1.66974 -0.947816 0
M  V30 5892 O 549.702 2.39862 -1.21325 0
M  V30 5893 C 547.973 1.16999 -3.37707 0
M  V30 5894 S 549.532 1.85913 -3.97469 0
M  V30 5895 H 546.35 0.198203 -0.682815 0
M  V30 5896 H 548.952 -0.141594 -1.94987 0
M  V30 5897 H 547.656 0.383205 -4.08607 0
M  V30 5898 H 547.187 1.95305 -3.41496 0
M  V30 5899 H 549.202 3.14128 -3.84107 0
M  V30 5900 N 548.375 1.56261 0.205012 0
M  V30 5901 C 549.621 1.81211 0.923805 0
M  V30 5902 C 549.976 0.644065 1.813 0
M  V30 5903 O 549.269 -0.361208 1.88164 0
M  V30 5904 C 549.463 3.09722 1.78345 0
M  V30 5905 C 549.292 4.38915 0.978979 0
M  V30 5906 C 548.062 5.00874 0.667332 0
M  V30 5907 C 550.26 5.13199 0.336386 0
M  V30 5908 N 548.242 6.137 -0.156814 0
M  V30 5909 C 549.613 6.19009 -0.350402 0
M  V30 5910 C 551.668 4.97266 0.251101 0
M  V30 5911 C 550.371 7.10616 -1.11434 0
M  V30 5912 C 552.397 5.89288 -0.499413 0
M  V30 5913 C 551.759 6.94536 -1.17468 0
M  V30 5914 H 547.858 0.714528 0.317764 0
M  V30 5915 H 550.442 1.93738 0.193317 0
M  V30 5916 H 548.613 2.98448 2.48563 0
M  V30 5917 H 550.345 3.22798 2.44098 0
M  V30 5918 H 547.1 4.63151 0.989366 0
M  V30 5919 H 547.524 6.74695 -0.558206 0
M  V30 5920 H 552.166 4.15935 0.758823 0
M  V30 5921 H 549.884 7.91417 -1.63353 0
M  V30 5922 H 553.47 5.79034 -0.566627 0
M  V30 5923 H 552.35 7.64513 -1.74613 0
M  V30 5924 N 549.853 -0.472356 1.50355 0
M  V30 5925 C 550.816 -1.5529 1.68576 0
M  V30 5926 C 551.816 -1.50863 0.556511 0
M  V30 5927 O 553.006 -1.53505 0.823516 0
M  V30 5928 C 550.138 -2.94921 1.70981 0
M  V30 5929 H 551.331 -1.40451 2.64978 0
M  V30 5930 H 548.884 -0.698645 1.39816 0
M  V30 5931 H 549.619 -3.15204 0.762675 0
M  V30 5932 H 549.404 -2.99541 2.53017 0
M  V30 5933 H 550.894 -3.73372 1.87037 0
M  V30 5934 N 551.331 -1.39911 -0.725443 0
M  V30 5935 C 552.261 -1.42138 -1.85254 0
M  V30 5936 C 553.242 -0.283513 -1.67721 0
M  V30 5937 O 554.427 -0.490717 -1.87898 0
M  V30 5938 C 551.557 -1.27354 -3.23107 0
M  V30 5939 C 550.511 -2.3864 -3.55296 0
M  V30 5940 C 549.837 -2.08939 -4.92188 0
M  V30 5941 C 551.137 -3.8097 -3.57295 0
M  V30 5942 H 552.831 -2.36461 -1.83648 0
M  V30 5943 H 550.377 -1.13817 -0.882138 0
M  V30 5944 H 552.33 -1.2753 -4.01639 0
M  V30 5945 H 551.054 -0.295025 -3.25265 0
M  V30 5946 H 549.713 -2.37696 -2.79099 0
M  V30 5947 H 549.361 -1.09502 -4.90936 0
M  V30 5948 H 549.061 -2.83491 -5.14691 0
M  V30 5949 H 550.585 -2.10781 -5.73065 0
M  V30 5950 H 551.999 -3.8379 -4.25885 0
M  V30 5951 H 550.396 -4.5496 -3.9132 0
M  V30 5952 H 551.466 -4.11261 -2.5689 0
M  V30 5953 N 552.809 0.956637 -1.25245 0
M  V30 5954 C 553.757 2.0743 -1.0524 0
M  V30 5955 C 554.751 1.69392 0.0160725 0
M  V30 5956 O 555.957 1.7946 -0.139382 0
M  V30 5957 H 552.332 0.678921 -0.323373 0
M  V30 5958 H 554.303 2.2146 -1.99995 0
M  V30 5959 C 553.052 3.40872 -0.685702 0
M  V30 5960 H 552.375 3.70607 -1.49968 0
M  V30 5961 H 553.815 4.19939 -0.585415 0
M  V30 5962 C 552.274 3.31367 0.608082 0
M  V30 5963 O 552.804 3.66214 1.65076 0
M  V30 5964 N 551.01 2.84486 0.592955 0
M  V30 5965 H 550.557 2.56326 -0.25592 0
M  V30 5966 H 550.515 2.78509 1.45877 0
M  V30 5967 N 554.287 1.06798 1.15896 0
M  V30 5968 C 555.235 0.677525 2.22514 0
M  V30 5969 C 556.229 -0.308994 1.66558 0
M  V30 5970 O 557.435 -0.173308 1.79164 0
M  V30 5971 H 553.81 0.200994 0.724642 0
M  V30 5972 H 555.781 1.5865 2.52731 0
M  V30 5973 C 554.53 0.0854153 3.47595 0
M  V30 5974 H 553.853 0.835645 3.90969 0
M  V30 5975 H 555.293 -0.150199 4.23734 0
M  V30 5976 C 553.752 -1.1724 3.15843 0
M  V30 5977 O 554.282 -2.25965 3.32119 0
M  V30 5978 N 552.488 -1.07636 2.69931 0
M  V30 5979 H 552.035 -0.191559 2.56887 0
M  V30 5980 H 551.993 -1.91876 2.4906 0
M  V30 5981 N 555.766 -1.3263 0.851289 0
M  V30 5982 C 556.696 -2.31449 0.308771 0
M  V30 5983 C 557.677 -1.59531 -0.590255 0
M  V30 5984 O 558.862 -1.87351 -0.511205 0
M  V30 5985 C 555.992 -3.43586 -0.506548 0
M  V30 5986 C 554.946 -4.26963 0.297753 0
M  V30 5987 C 554.272 -5.30831 -0.642094 0
M  V30 5988 C 555.572 -4.99643 1.52166 0
M  V30 5989 H 557.266 -2.77074 1.13447 0
M  V30 5990 H 554.812 -1.33207 0.546971 0
M  V30 5991 H 556.765 -4.11754 -0.896474 0
M  V30 5992 H 555.489 -2.96681 -1.36558 0
M  V30 5993 H 554.148 -3.60437 0.669391 0
M  V30 5994 H 553.796 -4.8018 -1.49788 0
M  V30 5995 H 553.496 -5.87501 -0.107968 0
M  V30 5996 H 555.02 -6.01862 -1.02927 0
M  V30 5997 H 556.434 -5.6051 1.20421 0
M  V30 5998 H 554.831 -5.66022 1.99347 0
M  V30 5999 H 555.901 -4.27701 2.28474 0
M  V30 6000 N 557.244 -0.608902 -1.45362 0
M  V30 6001 C 558.174 0.0964526 -2.33301 0
M  V30 6002 C 559.155 0.857444 -1.46908 0
M  V30 6003 O 560.34 0.827735 -1.75676 0
M  V30 6004 C 557.47 1.09354 -3.29635 0
M  V30 6005 C 556.424 0.445676 -4.25673 0
M  V30 6006 C 555.75 1.5511 -5.11708 0
M  V30 6007 C 557.05 -0.633972 -5.18438 0
M  V30 6008 H 558.744 -0.637829 -2.92527 0
M  V30 6009 H 556.29 -0.308178 -1.40664 0
M  V30 6010 H 558.243 1.59556 -3.90025 0
M  V30 6011 H 556.967 1.85843 -2.6857 0
M  V30 6012 H 555.626 -0.0354897 -3.66583 0
M  V30 6013 H 555.274 2.30631 -4.4701 0
M  V30 6014 H 554.974 1.12311 -5.76767 0
M  V30 6015 H 556.498 2.05537 -5.74967 0
M  V30 6016 H 557.912 -0.215974 -5.72893 0
M  V30 6017 H 556.309 -0.983789 -5.91981 0
M  V30 6018 H 557.379 -1.51005 -4.60788 0
M  V30 6019 N 558.722 1.53707 -0.348139 0
M  V30 6020 C 559.655 2.21481 0.549667 0
M  V30 6021 C 560.633 1.20046 1.09671 0
M  V30 6022 O 561.817 1.48883 1.15612 0
M  V30 6023 C 558.944 2.89585 1.75664 0
M  V30 6024 C 557.99 4.04948 1.33864 0
M  V30 6025 S 558.823 5.34325 0.354577 0
M  V30 6026 C 559.979 6.05934 1.56828 0
M  V30 6027 H 560.212 2.97289 -0.0259755 0
M  V30 6028 H 557.745 1.53833 -0.132216 0
M  V30 6029 H 559.703 3.29441 2.44906 0
M  V30 6030 H 558.364 2.13535 2.30351 0
M  V30 6031 H 557.557 4.51552 2.23868 0
M  V30 6032 H 557.159 3.66893 0.725651 0
M  V30 6033 H 559.451 6.29606 2.50205 0
M  V30 6034 H 560.394 6.98799 1.14395 0
M  V30 6035 H 560.802 5.36151 1.76642 0
M  V30 6036 N 560.2 0.0768682 1.57412 0
M  V30 6037 C 561.43 -0.5991 1.97723 0
M  V30 6038 C 561.838 -1.63378 0.954166 0
M  V30 6039 O 561.181 -1.83578 -0.0668706 0
M  V30 6040 C 561.243 -1.32078 3.34358 0
M  V30 6041 C 560.907 -0.438985 4.54887 0
M  V30 6042 C 561.904 0.305492 5.19002 0
M  V30 6043 C 559.589 -0.362378 5.00991 0
M  V30 6044 C 561.583 1.11475 6.27576 0
M  V30 6045 C 559.27 0.450543 6.09437 0
M  V30 6046 C 560.268 1.18777 6.72593 0
M  V30 6047 O 559.956 1.98727 7.7895 0
M  V30 6048 H 559.688 -0.166725 0.655117 0
M  V30 6049 H 562.242 0.147337 2.04871 0
M  V30 6050 H 560.472 -2.1134 3.2384 0
M  V30 6051 H 562.161 -1.88949 3.5924 0
M  V30 6052 H 562.927 0.25593 4.84324 0
M  V30 6053 H 558.806 -0.925832 4.51608 0
M  V30 6054 H 562.35 1.69068 6.76803 0
M  V30 6055 H 558.247 0.501651 6.43548 0
M  V30 6056 H 559.015 1.91214 7.95851 0
M  V30 6057 N 561.678 -1.56367 -0.196722 0
M  V30 6058 C 562.61 -1.90941 -1.26784 0
M  V30 6059 C 563.623 -0.799928 -1.41792 0
M  V30 6060 O 564.812 -1.07833 -1.42247 0
M  V30 6061 C 561.912 -2.12477 -2.6402 0
M  V30 6062 C 561.085 -3.43616 -2.70641 0
M  V30 6063 C 560.144 -3.54284 -3.89062 0
M  V30 6064 O 559.17 -4.2712 -3.76241 0
M  V30 6065 N 560.372 -2.87252 -5.04447 0
M  V30 6066 H 563.137 -2.83417 -0.974417 0
M  V30 6067 H 560.698 -1.57215 -0.386649 0
M  V30 6068 H 562.69 -2.16904 -3.41665 0
M  V30 6069 H 561.26 -1.26508 -2.85857 0
M  V30 6070 H 560.48 -3.51072 -1.79283 0
M  V30 6071 H 561.768 -4.29958 -2.72054 0
M  V30 6072 H 561.166 -2.27901 -5.17762 0
M  V30 6073 H 559.723 -2.97308 -5.80044 0
M  V30 6074 N 563.156 0.464375 -1.50603 0
M  V30 6075 C 564.104 1.58224 -1.70493 0
M  V30 6076 C 565.098 1.59492 -0.570836 0
M  V30 6077 O 566.304 1.63561 -0.751517 0
M  V30 6078 H 562.679 0.525161 -0.538247 0
M  V30 6079 H 564.65 1.38613 -2.64252 0
M  V30 6080 C 563.399 2.96113 -1.82243 0
M  V30 6081 H 562.722 2.95858 -2.68901 0
M  V30 6082 H 564.162 3.73769 -2.00182 0
M  V30 6083 C 562.621 3.31946 -0.575628 0
M  V30 6084 O 563.151 4.00708 0.282152 0
M  V30 6085 N 561.357 2.87436 -0.427665 0
M  V30 6086 H 560.904 2.31652 -1.12674 0
M  V30 6087 H 560.862 3.11776 0.405379 0
M  V30 6088 N 564.634 1.40294 0.718013 0
M  V30 6089 C 565.859 1.41941 1.5122 0
M  V30 6090 C 566.284 0.0202371 1.88089 0
M  V30 6091 O 565.642 -0.971078 1.53101 0
M  V30 6092 C 565.69 2.3141 2.76554 0
M  V30 6093 O 564.794 1.75567 3.73162 0
M  V30 6094 H 564.135 0.482644 0.456016 0
M  V30 6095 H 566.665 1.84494 0.884478 0
M  V30 6096 H 566.675 2.46513 3.25108 0
M  V30 6097 H 565.35 3.33085 2.49053 0
M  V30 6098 H 563.927 1.69798 3.31999 0
M  V30 6099 N 566.112 -0.949982 1.2575 0
M  V30 6100 C 567.042 -2.06483 1.09028 0
M  V30 6101 C 568.023 -1.701 -0.00201532 0
M  V30 6102 O 569.208 -1.93469 0.168383 0
M  V30 6103 C 566.338 -3.39899 0.71316 0
M  V30 6104 C 565.292 -3.90309 1.75621 0
M  V30 6105 C 564.618 -5.20274 1.23365 0
M  V30 6106 C 565.918 -4.16169 3.15596 0
M  V30 6107 H 567.612 -2.20731 2.02283 0
M  V30 6108 H 565.158 -1.06066 0.973964 0
M  V30 6109 H 567.111 -4.17346 0.58309 0
M  V30 6110 H 565.835 -3.25602 -0.255091 0
M  V30 6111 H 564.494 -3.15035 1.8748 0
M  V30 6112 H 564.142 -5.02351 0.255491 0
M  V30 6113 H 563.842 -5.54971 1.93082 0
M  V30 6114 H 565.366 -6.00314 1.11607 0
M  V30 6115 H 566.78 -4.84259 3.06864 0
M  V30 6116 H 565.177 -4.62131 3.82825 0
M  V30 6117 H 566.247 -3.22273 3.6231 0
M  V30 6118 N 567.59 -1.07411 -1.15328 0
M  V30 6119 C 568.54 -0.664788 -2.18093 0
M  V30 6120 C 569.524 0.310395 -1.57878 0
M  V30 6121 O 570.716 0.124026 -1.76565 0
M  V30 6122 C 567.845 -0.0647822 -3.43239 0
M  V30 6123 C 566.931 -1.06514 -4.10506 0
M  V30 6124 N 567.322 -2.24491 -4.53252 0
M  V30 6125 C 565.62 -0.898613 -4.36853 0
M  V30 6126 C 566.321 -2.8796 -5.05424 0
M  V30 6127 N 565.297 -2.15622 -4.99007 0
M  V30 6128 H 569.099 -1.56333 -2.48872 0
M  V30 6129 H 566.613 -0.947393 -1.31902 0
M  V30 6130 H 568.61 0.246363 -4.16171 0
M  V30 6131 H 567.27 0.828866 -3.13943 0
M  V30 6132 H 568.281 -2.62205 -4.46619 0
M  V30 6133 H 564.958 -0.0579118 -4.1746 0
M  V30 6134 H 566.348 -3.88137 -5.48452 0
M  V30 6135 N 569.068 1.32177 -0.85831 0
M  V30 6136 C 569.978 2.32561 -0.308606 0
M  V30 6137 C 570.994 1.64209 0.575462 0
M  V30 6138 O 572.17 1.95719 0.474961 0
M  V30 6139 C 569.235 3.43207 0.490909 0
M  V30 6140 C 568.296 4.27243 -0.419733 0
M  V30 6141 C 567.529 5.32605 0.341719 0
M  V30 6142 O 567.752 5.48332 1.57125 0
M  V30 6143 O 566.686 6.0118 -0.294379 0
M  V30 6144 H 570.512 2.81477 -1.14037 0
M  V30 6145 H 568.097 1.35866 -0.621349 0
M  V30 6146 H 569.979 4.10677 0.944574 0
M  V30 6147 H 568.654 2.96474 1.29941 0
M  V30 6148 H 567.561 3.62569 -0.921652 0
M  V30 6149 H 568.894 4.7751 -1.19352 0
M  V30 6150 N 570.547 0.616602 1.45037 0
M  V30 6151 C 571.494 -0.0969439 2.30596 0
M  V30 6152 C 572.464 -0.851151 1.42635 0
M  V30 6153 O 573.649 -0.835092 1.71554 0
M  V30 6154 C 570.789 -1.08234 3.27688 0
M  V30 6155 C 569.902 -0.328072 4.30752 0
M  V30 6156 C 569.037 -1.30399 5.14946 0
M  V30 6157 C 568.076 -0.538049 6.09731 0
M  V30 6158 N 567.213 -1.46371 6.86673 0
M  V30 6159 H 572.053 0.63864 2.91076 0
M  V30 6160 H 569.59 0.326733 1.43425 0
M  V30 6161 H 571.548 -1.66688 3.82454 0
M  V30 6162 H 570.178 -1.78523 2.68941 0
M  V30 6163 H 569.23 0.372136 3.78575 0
M  V30 6164 H 570.542 0.269142 4.98073 0
M  V30 6165 H 569.696 -1.96032 5.74157 0
M  V30 6166 H 568.435 -1.93514 4.47665 0
M  V30 6167 H 567.44 0.131852 5.49642 0
M  V30 6168 H 568.665 0.0881732 6.79043 0
M  V30 6169 H 566.611 -2.08233 6.22073 0
M  V30 6170 H 566.528 -0.920152 7.50379 0
M  V30 6171 H 567.796 -2.10932 7.50418 0
M  V30 6172 N 572.025 -1.5352 0.356285 0
M  V30 6173 C 573.274 -2.00298 -0.237373 0
M  V30 6174 C 573.587 -1.24784 -1.50627 0
M  V30 6175 O 574.793 -1.62103 -2.17795 0
M  V30 6176 C 573.249 -3.56771 -0.473545 0
M  V30 6177 C 572.857 -4.41154 0.780183 0
M  V30 6178 C 574.601 -4.1193 -1.02537 0
M  V30 6179 C 572.508 -5.89161 0.514108 0
M  V30 6180 H 571.438 -0.748307 -0.092478 0
M  V30 6181 H 574.089 -1.77283 0.473588 0
M  V30 6182 H 572.471 -3.75902 -1.24553 0
M  V30 6183 H 573.645 -4.33797 1.55425 0
M  V30 6184 H 571.96 -3.97052 1.25455 0
M  V30 6185 H 574.557 -5.20133 -1.2396 0
M  V30 6186 H 574.9 -3.65943 -1.98473 0
M  V30 6187 H 575.433 -3.96561 -0.313775 0
M  V30 6188 H 572.172 -6.39408 1.44355 0
M  V30 6189 H 571.692 -5.9939 -0.221632 0
M  V30 6190 H 573.371 -6.46857 0.136122 0
M  V30 6191 N 573.503 -0.0852151 -1.57369 0
M  V30 6192 C 574.751 0.579658 -1.93609 0
M  V30 6193 C 575.072 1.69332 -0.967043 0
M  V30 6194 O 574.342 1.95892 -0.0174215 0
M  V30 6195 H 572.922 0.217113 -0.714752 0
M  V30 6196 H 575.584 -0.146226 -1.94351 0
M  V30 6197 H 574.68 0.996276 -2.95771 0
M  V30 6198 N 574.981 1.5647 0.188427 0
M  V30 6199 C 576.258 1.71857 0.934058 0
M  V30 6200 C 576.638 0.641867 2.01105 0
M  V30 6201 O 575.986 -0.346098 2.25864 0
M  V30 6202 C 576.196 3.14431 1.5144 0
M  V30 6203 C 577.544 3.74869 1.99396 0
M  V30 6204 O 578.568 3.17601 1.61269 0
M  V30 6205 O 577.427 4.75387 2.69573 0
M  V30 6206 H 574.521 0.701186 0.438483 0
M  V30 6207 H 577.067 1.68768 0.177599 0
M  V30 6208 H 575.839 3.8427 0.738416 0
M  V30 6209 H 575.462 3.21775 2.33552 0
M  V30 6210 N 576.459 -0.456382 1.50847 0
M  V30 6211 C 577.369 -1.57805 1.73594 0
M  V30 6212 C 578.385 -1.62599 0.619476 0
M  V30 6213 O 579.561 -1.80195 0.899532 0
M  V30 6214 C 576.626 -2.93926 1.8387 0
M  V30 6215 C 575.687 -2.99402 3.07663 0
M  V30 6216 C 574.92 -4.29031 3.1744 0
M  V30 6217 O 575.143 -5.20358 2.33631 0
M  V30 6218 O 574.077 -4.40401 4.10281 0
M  V30 6219 H 577.903 -1.41531 2.68705 0
M  V30 6220 H 575.488 -0.637422 1.3512 0
M  V30 6221 H 577.37 -3.74747 1.92725 0
M  V30 6222 H 576.045 -3.10368 0.91944 0
M  V30 6223 H 574.952 -2.17606 3.043 0
M  V30 6224 H 576.285 -2.87901 3.99216 0
M  V30 6225 N 577.937 -1.40673 -0.710563 0
M  V30 6226 C 579.214 -1.29718 -1.46398 0
M  V30 6227 C 579.594 0.082177 -2.1094 0
M  V30 6228 O 578.942 1.09536 -2.00534 0
M  V30 6229 C 579.152 -2.43967 -2.49562 0
M  V30 6230 C 580.5 -2.84436 -3.15248 0
M  V30 6231 O 581.524 -2.43597 -2.59883 0
M  V30 6232 O 580.383 -3.55008 -4.1549 0
M  V30 6233 H 577.477 -0.509697 -0.651258 0
M  V30 6234 H 580.023 -1.52603 -0.742312 0
M  V30 6235 H 578.795 -3.36076 -2.0042 0
M  V30 6236 H 578.418 -2.22879 -3.29258 0
M  V30 6237 N 579.415 0.9433 -1.26252 0
M  V30 6238 C 580.663 1.68592 -1.11451 0
M  V30 6239 C 580.984 1.91957 0.343123 0
M  V30 6240 O 580.254 1.51475 1.24226 0
M  V30 6241 H 578.834 0.624789 -0.409448 0
M  V30 6242 H 581.496 1.13351 -1.58548 0
M  V30 6243 H 580.592 2.66054 -1.63162 0
M  V30 6244 N 580.893 1.08022 1.14757 0
M  V30 6245 C 581.843 0.676345 2.17737 0
M  V30 6246 C 582.827 -0.302018 1.5804 0
M  V30 6247 O 584.019 -0.11466 1.76628 0
M  V30 6248 C 581.148 0.082984 3.432 0
M  V30 6249 C 580.234 1.0869 4.09936 0
M  V30 6250 N 580.625 2.26891 4.52055 0
M  V30 6251 C 578.923 0.921768 4.36371 0
M  V30 6252 C 579.624 2.90636 5.0389 0
M  V30 6253 N 578.6 2.18266 4.97856 0
M  V30 6254 H 582.402 1.5765 2.4804 0
M  V30 6255 H 579.916 0.954374 1.31398 0
M  V30 6256 H 581.913 -0.224289 4.16296 0
M  V30 6257 H 580.573 -0.812206 3.14378 0
M  V30 6258 H 581.584 2.6457 4.45223 0
M  V30 6259 H 578.261 0.0800499 4.17423 0
M  V30 6260 H 579.651 3.9104 5.46386 0
M  V30 6261 N 582.371 -1.3172 0.865308 0
M  V30 6262 C 583.618 -1.96876 0.473931 0
M  V30 6263 C 583.946 -1.68425 -0.972786 0
M  V30 6264 O 583.201 -0.970742 -1.69927 0
M  V30 6265 C 583.5 -3.5102 0.672283 0
M  V30 6266 C 583.166 -3.9948 2.09108 0
M  V30 6267 C 581.828 -4.12425 2.4791 0
M  V30 6268 C 584.18 -4.2503 3.0166 0
M  V30 6269 C 581.508 -4.48267 3.78515 0
M  V30 6270 C 583.86 -4.62335 4.31774 0
M  V30 6271 C 582.524 -4.73486 4.70497 0
M  V30 6272 H 581.794 -0.72042 0.173424 0
M  V30 6273 H 584.441 -1.56937 1.0974 0
M  V30 6274 H 582.746 -3.91785 -0.034356 0
M  V30 6275 H 584.443 -3.99475 0.349353 0
M  V30 6276 H 581.033 -3.89898 1.77981 0
M  V30 6277 H 585.217 -4.14529 2.7291 0
M  V30 6278 H 580.473 -4.55097 4.08285 0
M  V30 6279 H 584.647 -4.81058 5.03543 0
M  V30 6280 H 582.274 -5.01016 5.71741 0
M  V30 6281 N 583.85 -0.624285 -1.44708 0
M  V30 6282 C 585.26 -0.2092 -1.85524 0
M  V30 6283 C 585.611 1.23783 -1.52225 0
M  V30 6284 O 584.736 1.94089 -0.956986 0
M  V30 6285 C 585.332 -0.372897 -3.36742 0
M  V30 6286 C 583.891 -0.012374 -3.76398 0
M  V30 6287 C 583.038 -0.68951 -2.68591 0
M  V30 6288 H 585.989 -0.829894 -1.35272 0
M  V30 6289 H 586.01 0.390134 -3.78495 0
M  V30 6290 H 585.522 -1.42615 -3.60947 0
M  V30 6291 H 583.623 1.03941 -3.57809 0
M  V30 6292 H 583.736 -0.417663 -4.77276 0
M  V30 6293 H 582.1 -0.125484 -2.54391 0
M  V30 6294 H 582.883 -1.74522 -2.9563 0
M  V30 6295 N 585.328 1.53329 -0.364422 0
M  V30 6296 C 586.291 2.24323 0.470292 0
M  V30 6297 C 587.291 1.25068 1.01067 0
M  V30 6298 O 588.481 1.49354 0.896605 0
M  V30 6299 C 585.613 2.97908 1.65722 0
M  V30 6300 H 586.806 2.9952 -0.150917 0
M  V30 6301 H 584.359 1.55868 -0.116092 0
M  V30 6302 H 585.094 2.2695 2.31655 0
M  V30 6303 H 584.879 3.70732 1.27671 0
M  V30 6304 H 586.369 3.5188 2.24878 0
M  V30 6305 N 586.806 0.0935595 1.57322 0
M  V30 6306 C 587.756 -0.876521 2.10478 0
M  V30 6307 C 588.74 -1.24482 1.01946 0
M  V30 6308 O 589.932 -1.22016 1.28223 0
M  V30 6309 C 587.061 -2.13615 2.68745 0
M  V30 6310 C 586.147 -1.79335 3.84317 0
M  V30 6311 N 586.538 -1.15606 4.92411 0
M  V30 6312 C 584.836 -2.08954 3.94023 0
M  V30 6313 C 585.537 -0.999036 5.73057 0
M  V30 6314 N 584.513 -1.51585 5.22037 0
M  V30 6315 H 588.315 -0.379829 2.91435 0
M  V30 6316 H 585.829 -0.109699 1.62029 0
M  V30 6317 H 587.826 -2.84053 3.05155 0
M  V30 6318 H 586.486 -2.63851 1.89242 0
M  V30 6319 H 587.497 -0.823063 5.11318 0
M  V30 6320 H 584.174 -2.61416 3.25527 0
M  V30 6321 H 585.564 -0.500772 6.70031 0
M  V30 6322 N 588.284 -1.56567 -0.180126 0
M  V30 6323 C 589.7 -1.50488 -0.531559 0
M  V30 6324 C 589.9 -0.796267 -1.851 0
M  V30 6325 O 588.956 -0.352978 -2.50021 0
M  V30 6326 C 590.269 -2.95201 -0.572456 0
M  V30 6327 C 591.817 -3.05957 -0.660264 0
M  V30 6328 C 592.292 -4.5211 -0.732135 0
M  V30 6329 N 593.783 -4.56322 -0.795262 0
M  V30 6330 C 594.518 -5.66742 -0.871296 0
M  V30 6331 N 594.014 -6.86815 -0.908708 0
M  V30 6332 N 595.807 -5.54691 -0.909639 0
M  V30 6333 H 587.958 -2.01045 0.685165 0
M  V30 6334 H 590.221 -0.915536 0.245962 0
M  V30 6335 H 589.927 -3.50165 0.328208 0
M  V30 6336 H 589.801 -3.49369 -1.422 0
M  V30 6337 H 592.188 -2.51032 -1.55136 0
M  V30 6338 H 592.269 -2.54888 0.215783 0
M  V30 6339 H 591.913 -5.07664 0.154664 0
M  V30 6340 H 591.843 -5.00926 -1.6242 0
M  V30 6341 H 594.334 -3.69868 -0.77499 0
M  V30 6342 H 594.647 -7.66718 -0.967654 0
M  V30 6343 H 592.992 -6.89443 -0.877132 0
M  V30 6344 H 596.183 -4.59804 -0.877353 0
M  V30 6345 H 596.356 -6.40768 -0.965434 0
M  V30 6346 N 589.762 0.448376 -1.51087 0
M  V30 6347 C 590.672 1.56882 -1.74428 0
M  V30 6348 C 591.688 1.62268 -0.62809 0
M  V30 6349 O 592.864 1.79716 -0.909075 0
M  V30 6350 C 589.929 2.92947 -1.85426 0
M  V30 6351 C 588.99 2.97766 -3.09247 0
M  V30 6352 C 588.223 4.27341 -3.19711 0
M  V30 6353 O 588.446 5.19112 -2.36387 0
M  V30 6354 O 587.38 4.38219 -4.12611 0
M  V30 6355 H 591.206 1.40104 -2.69452 0
M  V30 6356 H 588.791 0.630247 -1.35456 0
M  V30 6357 H 590.673 3.73719 -1.94709 0
M  V30 6358 H 589.348 3.09876 -0.935887 0
M  V30 6359 H 588.255 2.15989 -3.0545 0
M  V30 6360 H 589.588 2.8578 -4.00738 0
M  V30 6361 N 591.24 1.41047 0.703093 0
M  V30 6362 C 592.486 1.40207 1.46526 0
M  V30 6363 C 592.819 0.00847763 1.94198 0
M  V30 6364 O 592.094 -0.962437 1.69019 0
M  V30 6365 C 592.377 2.40238 2.6825 0
M  V30 6366 C 592.23 3.88674 2.26391 0
M  V30 6367 C 593.549 2.37627 3.70434 0
M  V30 6368 H 590.668 0.510594 0.531472 0
M  V30 6369 H 593.31 1.72271 0.801422 0
M  V30 6370 H 591.46 2.13026 3.24888 0
M  V30 6371 H 593.132 4.2676 1.75138 0
M  V30 6372 H 591.375 4.03903 1.58255 0
M  V30 6373 H 592.046 4.542 3.13698 0
M  V30 6374 H 594.522 2.61759 3.23452 0
M  V30 6375 H 593.398 3.09645 4.53223 0
M  V30 6376 H 593.659 1.39223 4.19606 0
M  V30 6377 N 592.718 -0.936591 1.26751 0
M  V30 6378 C 593.651 -2.03619 1.03027 0
M  V30 6379 C 594.629 -1.62534 -0.0464619 0
M  V30 6380 O 595.813 -1.88251 0.0968873 0
M  V30 6381 C 592.94 -3.3402 0.561072 0
M  V30 6382 C 591.986 -3.9408 1.63105 0
M  V30 6383 S 592.819 -4.27782 3.22122 0
M  V30 6384 C 593.975 -5.61277 2.76982 0
M  V30 6385 H 594.208 -2.23429 1.96129 0
M  V30 6386 H 591.741 -1.07857 1.10482 0
M  V30 6387 H 593.699 -4.09424 0.297031 0
M  V30 6388 H 592.36 -3.12147 -0.349741 0
M  V30 6389 H 591.553 -4.88154 1.25386 0
M  V30 6390 H 591.155 -3.25227 1.84671 0
M  V30 6391 H 593.447 -6.40189 2.21731 0
M  V30 6392 H 594.39 -6.03887 3.69766 0
M  V30 6393 H 594.798 -5.21374 2.16402 0
M  V30 6394 N 594.196 -1.08629 -1.14182 0
M  V30 6395 C 595.126 -0.740003 -2.21464 0
M  V30 6396 C 596.107 0.278591 -1.67803 0
M  V30 6397 O 597.292 0.148461 -1.93632 0
M  V30 6398 C 594.422 -0.150952 -3.46972 0
M  V30 6399 C 593.376 -1.09815 -4.13672 0
M  V30 6400 C 592.702 -0.3712 -5.3341 0
M  V30 6401 C 594.002 -2.43722 -4.61949 0
M  V30 6402 H 595.696 -1.63697 -2.50686 0
M  V30 6403 H 593.242 -0.788526 -1.20492 0
M  V30 6404 H 595.195 0.103325 -4.21273 0
M  V30 6405 H 593.919 0.781164 -3.1712 0
M  V30 6406 H 592.578 -1.33756 -3.41328 0
M  V30 6407 H 592.226 0.564792 -4.99819 0
M  V30 6408 H 591.926 -1.00267 -5.78982 0
M  V30 6409 H 593.45 -0.12503 -6.10472 0
M  V30 6410 H 594.864 -2.24034 -5.27714 0
M  V30 6411 H 593.261 -3.02582 -5.18232 0
M  V30 6412 H 594.331 -3.05082 -3.76899 0
M  V30 6413 N 595.674 1.31259 -0.872281 0
M  V30 6414 C 596.899 2.0133 -0.498099 0
M  V30 6415 C 597.324 1.65031 0.902568 0
M  V30 6416 O 596.682 0.860164 1.59596 0
M  V30 6417 C 596.73 3.54411 -0.665205 0
M  V30 6418 O 595.834 4.11347 0.294473 0
M  V30 6419 H 595.175 0.633844 -0.197832 0
M  V30 6420 H 597.705 1.67402 -1.17633 0
M  V30 6421 H 597.715 4.04147 -0.559373 0
M  V30 6422 H 596.39 3.80171 -1.68651 0
M  V30 6423 H 594.967 3.72624 0.143403 0
M  V30 6424 N 597.152 0.631951 1.44375 0
M  V30 6425 C 598.085 -0.121822 2.27875 0
M  V30 6426 C 599.063 -0.850457 1.38586 0
M  V30 6427 O 600.247 -0.854378 1.68026 0
M  V30 6428 C 597.374 -1.17859 3.17533 0
M  V30 6429 C 596.42 -0.550391 4.22934 0
M  V30 6430 S 597.253 0.660145 5.31415 0
M  V30 6431 C 598.409 -0.396613 6.24642 0
M  V30 6432 H 598.642 0.586537 2.91457 0
M  V30 6433 H 596.175 0.420146 1.48574 0
M  V30 6434 H 598.133 -1.78335 3.69739 0
M  V30 6435 H 596.794 -1.85915 2.53169 0
M  V30 6436 H 595.987 -1.34631 4.85685 0
M  V30 6437 H 595.589 -0.0202306 3.73995 0
M  V30 6438 H 597.881 -1.26893 6.65511 0
M  V30 6439 H 598.824 0.195345 7.0783 0
M  V30 6440 H 599.232 -0.72288 5.59852 0
M  V30 6441 N 598.631 -1.53133 0.372548 0
M  V30 6442 C 599.561 -2.28876 -0.462412 0
M  V30 6443 C 600.542 -1.31583 -1.07796 0
M  V30 6444 O 601.727 -1.60461 -1.09389 0
M  V30 6445 C 598.857 -3.08317 -1.59868 0
M  V30 6446 C 597.811 -4.13355 -1.11003 0
M  V30 6447 C 597.137 -4.8092 -2.33708 0
M  V30 6448 C 598.437 -5.21955 -0.18983 0
M  V30 6449 H 600.131 -2.9892 0.169511 0
M  V30 6450 H 597.677 -1.43761 0.0829658 0
M  V30 6451 H 599.63 -3.60055 -2.18949 0
M  V30 6452 H 598.354 -2.35976 -2.25794 0
M  V30 6453 H 597.013 -3.62573 -0.541869 0
M  V30 6454 H 596.661 -4.05144 -2.98106 0
M  V30 6455 H 596.361 -5.51904 -2.01682 0
M  V30 6456 H 597.885 -5.35455 -2.93462 0
M  V30 6457 H 599.299 -5.69153 -0.688319 0
M  V30 6458 H 597.696 -6.00087 0.0398887 0
M  V30 6459 H 598.766 -4.78811 0.766057 0
M  V30 6460 N 600.109 -0.101901 -1.5727 0
M  V30 6461 C 601.042 0.891377 -2.10071 0
M  V30 6462 C 602.02 1.27197 -1.01291 0
M  V30 6463 O 603.204 1.37602 -1.28833 0
M  V30 6464 C 600.331 2.19049 -2.58331 0
M  V30 6465 C 599.377 1.95925 -3.78834 0
M  V30 6466 S 600.21 1.19106 -5.22086 0
M  V30 6467 C 601.366 2.50234 -5.73702 0
M  V30 6468 H 601.599 0.442212 -2.93993 0
M  V30 6469 H 599.132 0.111529 -1.53997 0
M  V30 6470 H 601.09 2.937 -2.86793 0
M  V30 6471 H 599.751 2.61086 -1.74622 0
M  V30 6472 H 598.944 2.92143 -4.10693 0
M  V30 6473 H 598.546 1.29401 -3.50901 0
M  V30 6474 H 600.838 3.46173 -5.82384 0
M  V30 6475 H 601.781 2.22944 -6.72088 0
M  V30 6476 H 602.189 2.58818 -5.01671 0
M  V30 6477 N 601.587 1.56661 0.17182 0
M  V30 6478 C 602.537 1.92781 1.21736 0
M  V30 6479 C 603.521 0.796065 1.39827 0
M  V30 6480 O 604.713 1.05924 1.41806 0
M  V30 6481 C 601.842 2.29079 2.55691 0
M  V30 6482 C 600.928 3.48765 2.41296 0
M  V30 6483 N 601.319 4.66022 1.96614 0
M  V30 6484 C 599.617 3.53362 2.72124 0
M  V30 6485 C 600.318 5.48159 1.94669 0
M  V30 6486 N 599.294 4.89189 2.37054 0
M  V30 6487 H 603.096 2.80926 0.863592 0
M  V30 6488 H 600.61 1.57889 0.380096 0
M  V30 6489 H 602.607 2.5315 3.31241 0
M  V30 6490 H 601.267 1.42272 2.91871 0
M  V30 6491 H 602.278 4.9025 1.66959 0
M  V30 6492 H 598.955 2.77033 3.12345 0
M  V30 6493 H 600.345 6.52121 1.61826 0
M  V30 6494 N 603.065 -0.440357 1.51323 0
M  V30 6495 C 604.29 -1.21716 1.67928 0
M  V30 6496 C 604.715 -1.84328 0.374826 0
M  V30 6497 O 604.073 -1.68675 -0.664706 0
M  V30 6498 C 604.121 -2.27914 2.79442 0
M  V30 6499 O 603.225 -3.33325 2.42834 0
M  V30 6500 H 602.566 -0.35674 0.560029 0
M  V30 6501 H 605.096 -0.520417 1.97871 0
M  V30 6502 H 605.106 -2.72746 3.03436 0
M  V30 6503 H 603.781 -1.8172 3.741 0
M  V30 6504 H 602.358 -2.9399 2.294 0
M  V30 6505 N 604.543 -1.41418 -0.695603 0
M  V30 6506 C 605.768 -1.44329 -1.48942 0
M  V30 6507 C 606.193 -0.0501579 -1.88033 0
M  V30 6508 O 605.551 0.946598 -1.54626 0
M  V30 6509 C 605.599 -2.3578 -2.72837 0
M  V30 6510 O 604.703 -1.81482 -3.70322 0
M  V30 6511 H 604.044 -0.489838 -0.44828 0
M  V30 6512 H 606.574 -1.85878 -0.855014 0
M  V30 6513 H 606.584 -2.51654 -3.21145 0
M  V30 6514 H 605.259 -3.37005 -2.43722 0
M  V30 6515 H 603.836 -1.75058 -3.29255 0
M  V30 6516 N 606.021 0.929856 -1.27246 0
M  V30 6517 C 607.246 1.71674 -1.16374 0
M  V30 6518 C 607.671 1.86064 0.276024 0
M  V30 6519 O 607.029 1.3591 1.19992 0
M  V30 6520 C 607.077 3.09526 -1.85003 0
M  V30 6521 O 606.181 3.96142 -1.14653 0
M  V30 6522 H 605.522 0.52629 -0.404863 0
M  V30 6523 H 608.052 1.16381 -1.68276 0
M  V30 6524 H 608.062 3.59852 -1.92276 0
M  V30 6525 H 606.737 2.98369 -2.89739 0
M  V30 6526 H 605.314 3.54584 -1.15433 0
M  V30 6527 N 607.499 1.09233 1.13605 0
M  V30 6528 C 608.446 0.729921 2.18954 0
M  V30 6529 C 609.416 -0.287916 1.63586 0
M  V30 6530 O 610.601 -0.170003 1.90041 0
M  V30 6531 C 607.741 0.154489 3.44754 0
M  V30 6532 C 606.854 1.22613 4.14234 0
M  V30 6533 C 605.989 0.613657 5.27644 0
M  V30 6534 C 605.028 1.66674 5.8897 0
M  V30 6535 N 604.165 1.07545 6.93814 0
M  V30 6536 H 609.005 1.63257 2.49302 0
M  V30 6537 H 606.542 0.815693 1.22413 0
M  V30 6538 H 608.5 -0.196923 4.16735 0
M  V30 6539 H 607.13 -0.711433 3.14863 0
M  V30 6540 H 606.182 1.69485 3.40557 0
M  V30 6541 H 607.494 2.0238 4.55899 0
M  V30 6542 H 606.648 0.210976 6.06333 0
M  V30 6543 H 605.387 -0.215584 4.87223 0
M  V30 6544 H 604.392 2.07899 5.08978 0
M  V30 6545 H 605.617 2.49861 6.31464 0
M  V30 6546 H 603.563 0.267451 6.55455 0
M  V30 6547 H 603.48 1.81011 7.3401 0
M  V30 6548 H 604.748 0.698906 7.7636 0
M  V30 6549 N 608.977 -1.30795 0.87923 0
M  V30 6550 C 609.887 -2.32041 0.345565 0
M  V30 6551 C 610.903 -1.65103 -0.549265 0
M  V30 6552 O 612.079 -1.9645 -0.443763 0
M  V30 6553 C 609.144 -3.43944 -0.436245 0
M  V30 6554 C 608.205 -4.26521 0.48765 0
M  V30 6555 C 607.438 -5.33081 -0.256943 0
M  V30 6556 O 607.661 -5.50762 -1.48381 0
M  V30 6557 O 606.595 -6.00635 0.389985 0
M  V30 6558 H 610.421 -2.79627 1.18501 0
M  V30 6559 H 608.006 -1.3486 0.642885 0
M  V30 6560 H 609.888 -4.12128 -0.879119 0
M  V30 6561 H 608.563 -2.98504 -1.25208 0
M  V30 6562 H 607.47 -3.61057 0.979216 0
M  V30 6563 H 608.803 -4.75551 1.26933 0
M  V30 6564 N 610.455 -0.639598 -1.44038 0
M  V30 6565 C 611.701 -0.147698 -2.02261 0
M  V30 6566 C 612.034 1.23031 -1.50256 0
M  V30 6567 O 611.309 1.81847 -0.690068 0
M  V30 6568 C 611.592 -0.14362 -3.59813 0
M  V30 6569 C 611.445 -1.55458 -4.22082 0
M  V30 6570 C 612.764 0.527317 -4.36929 0
M  V30 6571 H 609.883 -0.0551453 -0.734934 0
M  V30 6572 H 612.525 -0.817688 -1.71505 0
M  V30 6573 H 610.675 0.426898 -3.86147 0
M  V30 6574 H 612.347 -2.17464 -4.06826 0
M  V30 6575 H 610.59 -2.10594 -3.79253 0
M  V30 6576 H 611.261 -1.50369 -5.31124 0
M  V30 6577 H 613.737 0.0420504 -4.16079 0
M  V30 6578 H 612.613 0.499389 -5.46624 0
M  V30 6579 H 612.874 1.59914 -4.12165 0
M  V30 6580 N 611.933 1.52934 -0.380664 0
M  V30 6581 C 613.18 2.01467 0.204278 0
M  V30 6582 C 613.508 1.26744 1.47533 0
M  V30 6583 O 612.763 0.353723 1.92477 0
M  V30 6584 C 613.062 3.5349 0.527199 0
M  V30 6585 C 612.728 4.46171 -0.651295 0
M  V30 6586 C 611.39 4.71227 -0.974619 0
M  V30 6587 C 613.742 5.00909 -1.44012 0
M  V30 6588 C 611.07 5.4827 -2.08847 0
M  V30 6589 C 613.422 5.7917 -2.5445 0
M  V30 6590 C 612.086 6.02507 -2.87301 0
M  V30 6591 H 611.356 0.73722 0.0747504 0
M  V30 6592 H 614.003 1.84411 -0.516234 0
M  V30 6593 H 612.308 3.68574 1.32892 0
M  V30 6594 H 614.005 3.88529 0.992283 0
M  V30 6595 H 610.595 4.26829 -0.389276 0
M  V30 6596 H 614.779 4.81485 -1.20357 0
M  V30 6597 H 610.035 5.64567 -2.34679 0
M  V30 6598 H 614.209 6.20588 -3.1598 0
M  V30 6599 H 611.836 6.61989 -3.7373 0
M  V30 6600 N 613.412 0.11024 1.57214 0
M  V30 6601 C 614.344 -0.873497 2.11902 0
M  V30 6602 C 615.357 -1.23588 1.05971 0
M  V30 6603 O 616.546 -1.18636 1.33371 0
M  V30 6604 C 613.646 -2.17805 2.59643 0
M  V30 6605 C 612.819 -1.98869 3.89576 0
M  V30 6606 C 611.878 -3.12974 4.23006 0
M  V30 6607 O 610.904 -2.86272 4.91973 0
M  V30 6608 N 612.106 -4.39167 3.79622 0
M  V30 6609 H 614.871 -0.406317 2.96933 0
M  V30 6610 H 612.432 -0.074437 1.61729 0
M  V30 6611 H 614.424 -2.93117 2.79042 0
M  V30 6612 H 612.994 -2.55899 1.7954 0
M  V30 6613 H 612.214 -1.078 3.79174 0
M  V30 6614 H 613.502 -1.83512 4.74553 0
M  V30 6615 H 612.9 -4.63739 3.2398 0
M  V30 6616 H 611.457 -5.11379 4.04147 0
M  V30 6617 N 614.89 -1.56749 -0.16351 0
M  V30 6618 C 615.853 -1.96121 -1.18613 0
M  V30 6619 C 616.853 -0.845765 -1.36761 0
M  V30 6620 O 618.043 -1.11268 -1.34033 0
M  V30 6621 C 615.175 -2.26282 -2.54969 0
M  V30 6622 H 616.368 -2.87639 -0.848764 0
M  V30 6623 H 613.921 -1.50928 -0.406251 0
M  V30 6624 H 614.656 -1.37504 -2.93706 0
M  V30 6625 H 614.441 -3.07595 -2.43162 0
M  V30 6626 H 615.931 -2.57638 -3.28653 0
M  V30 6627 N 616.368 0.432326 -1.51554 0
M  V30 6628 C 617.593 1.20824 -1.68571 0
M  V30 6629 C 618.018 1.84126 -0.384596 0
M  V30 6630 O 617.376 1.69025 0.655751 0
M  V30 6631 C 617.424 2.26429 -2.80646 0
M  V30 6632 O 616.528 3.32032 -2.44598 0
M  V30 6633 H 615.869 0.353765 -0.561913 0
M  V30 6634 H 618.399 0.509916 -1.98144 0
M  V30 6635 H 618.409 2.71133 -3.04878 0
M  V30 6636 H 617.084 1.79733 -3.75058 0
M  V30 6637 H 615.661 2.92769 -2.30956 0
M  V30 6638 N 617.846 1.41785 0.688094 0
M  V30 6639 C 618.809 1.43936 1.78368 0
M  V30 6640 C 619.809 0.328866 1.57401 0
M  V30 6641 O 620.999 0.589093 1.63937 0
M  V30 6642 C 618.131 1.25804 3.16838 0
M  V30 6643 H 619.324 2.41472 1.77852 0
M  V30 6644 H 616.877 1.28037 0.896448 0
M  V30 6645 H 617.612 0.291386 3.22988 0
M  V30 6646 H 617.397 2.06272 3.33458 0
M  V30 6647 H 618.887 1.30162 3.96797 0
M  V30 6648 N 619.324 -0.923095 1.27737 0
M  V30 6649 C 620.272 -2.04567 1.10703 0
M  V30 6650 C 621.266 -1.69375 0.0288445 0
M  V30 6651 O 622.472 -1.79027 0.186913 0
M  V30 6652 H 618.847 -0.670109 0.34126 0
M  V30 6653 H 620.818 -2.1608 2.05796 0
M  V30 6654 C 619.567 -3.38934 0.775837 0
M  V30 6655 H 618.89 -3.66501 1.59741 0
M  V30 6656 H 620.33 -4.18239 0.696548 0
M  V30 6657 C 618.789 -3.32863 -0.520012 0
M  V30 6658 O 619.319 -3.70462 -1.55308 0
M  V30 6659 N 617.525 -2.85958 -0.51732 0
M  V30 6660 H 617.072 -2.55557 0.32379 0
M  V30 6661 H 617.03 -2.82279 -1.38441 0
M  V30 6662 N 620.802 -1.09834 -1.13024 0
M  V30 6663 C 621.765 -0.745058 -2.16752 0
M  V30 6664 C 622.765 0.227435 -1.59183 0
M  V30 6665 O 623.955 0.0050786 -1.74199 0
M  V30 6666 C 621.087 -0.102543 -3.40746 0
M  V30 6667 H 622.28 -1.66375 -2.49518 0
M  V30 6668 H 619.833 -0.898061 -1.27924 0
M  V30 6669 H 620.568 0.827177 -3.13573 0
M  V30 6670 H 620.353 -0.80235 -3.83803 0
M  V30 6671 H 621.843 0.129082 -4.174 0
M  V30 6672 N 622.28 1.30327 -0.886154 0
M  V30 6673 C 623.21 2.30549 -0.370028 0
M  V30 6674 C 624.191 1.61039 0.547751 0
M  V30 6675 O 625.376 1.8864 0.461353 0
M  V30 6676 C 622.506 3.44808 0.415275 0
M  V30 6677 C 621.46 4.26024 -0.41085 0
M  V30 6678 C 620.786 5.32347 0.501128 0
M  V30 6679 C 622.086 4.95433 -1.65359 0
M  V30 6680 H 623.78 2.73969 -1.20754 0
M  V30 6681 H 621.326 1.3171 -0.582097 0
M  V30 6682 H 623.279 4.13986 0.78699 0
M  V30 6683 H 622.003 3.00197 1.28644 0
M  V30 6684 H 620.662 3.58535 -0.764719 0
M  V30 6685 H 620.31 4.83982 1.37004 0
M  V30 6686 H 620.01 5.87581 -0.0478356 0
M  V30 6687 H 621.534 6.0438 0.869333 0
M  V30 6688 H 622.948 5.5712 -1.35239 0
M  V30 6689 H 621.345 5.60537 -2.14284 0
M  V30 6690 H 622.415 4.21493 -2.39733 0
M  V30 6691 N 623.758 0.647228 1.43697 0
M  V30 6692 C 624.983 0.164083 2.0675 0
M  V30 6693 C 625.408 -1.15892 1.48158 0
M  V30 6694 O 624.766 -1.71459 0.589194 0
M  V30 6695 C 624.814 0.0800368 3.60511 0
M  V30 6696 O 623.918 -0.959453 4.01084 0
M  V30 6697 H 623.259 0.0921288 0.657578 0
M  V30 6698 H 625.789 0.88846 1.84303 0
M  V30 6699 H 625.799 -0.105263 4.07864 0
M  V30 6700 H 624.474 1.04586 4.02535 0
M  V30 6701 H 623.051 -0.747425 3.65333 0
M  V30 6702 N 625.236 -1.5273 0.388769 0
M  V30 6703 C 626.464 -2.05992 -0.193677 0
M  V30 6704 C 626.879 -1.26053 -1.40557 0
M  V30 6705 O 626.236 -0.307049 -1.79898 0
M  V30 6706 C 626.287 -3.57068 -0.564321 0
M  V30 6707 O 626.008 -4.3398 0.599422 0
M  V30 6708 C 627.509 -4.26674 -1.20269 0
M  V30 6709 H 624.729 -0.670358 -0.0293445 0
M  V30 6710 H 627.273 -1.96857 0.553844 0
M  V30 6711 H 625.428 -3.66277 -1.26174 0
M  V30 6712 H 625.842 -5.2367 0.294895 0
M  V30 6713 H 627.316 -5.33625 -1.4124 0
M  V30 6714 H 627.793 -3.81854 -2.16989 0
M  V30 6715 H 628.399 -4.2178 -0.546047 0
M  V30 6716 N 626.714 -0.118576 -1.57153 0
M  V30 6717 C 627.644 0.828436 -2.1831 0
M  V30 6718 C 628.625 1.27758 -1.12303 0
M  V30 6719 O 629.81 1.34026 -1.40537 0
M  V30 6720 C 626.94 2.07876 -2.78217 0
M  V30 6721 C 625.894 1.76742 -3.89803 0
M  V30 6722 C 625.22 3.08801 -4.36516 0
M  V30 6723 C 626.52 1.03606 -5.11921 0
M  V30 6724 H 628.214 0.318824 -2.97698 0
M  V30 6725 H 625.76 0.151911 -1.43196 0
M  V30 6726 H 627.713 2.74584 -3.19659 0
M  V30 6727 H 626.437 2.61161 -1.96118 0
M  V30 6728 H 625.096 1.12424 -3.48936 0
M  V30 6729 H 624.744 3.6002 -3.51276 0
M  V30 6730 H 624.444 2.88743 -5.11763 0
M  V30 6731 H 625.968 3.76627 -4.80608 0
M  V30 6732 H 627.382 1.60467 -5.50385 0
M  V30 6733 H 625.779 0.936454 -5.92748 0
M  V30 6734 H 626.849 0.0227421 -4.84895 0
M  V30 6735 N 628.193 1.56834 0.155195 0
M  V30 6736 C 629.123 2.00678 1.19376 0
M  V30 6737 C 630.104 0.884973 1.45266 0
M  V30 6738 O 631.289 1.1522 1.56326 0
M  V30 6739 C 628.419 2.38042 2.5289 0
M  V30 6740 C 627.373 3.53332 2.41538 0
M  V30 6741 C 626.699 3.76485 3.79688 0
M  V30 6742 C 627.999 4.86265 1.9064 0
M  V30 6743 H 629.693 2.87688 0.829232 0
M  V30 6744 H 627.239 1.38407 0.397445 0
M  V30 6745 H 629.192 2.67314 3.25763 0
M  V30 6746 H 627.916 1.4796 2.91162 0
M  V30 6747 H 626.575 3.24213 1.71117 0
M  V30 6748 H 626.223 2.83667 4.15382 0
M  V30 6749 H 625.923 4.54068 3.72956 0
M  V30 6750 H 627.447 4.08174 4.54122 0
M  V30 6751 H 628.861 5.14308 2.53299 0
M  V30 6752 H 627.258 5.67597 1.94818 0
M  V30 6753 H 628.328 4.77184 0.861596 0
M  V30 6754 N 629.671 -0.424282 1.51781 0
M  V30 6755 C 630.581 -1.54087 1.76902 0
M  V30 6756 C 631.597 -1.61249 0.653826 0
M  V30 6757 O 632.773 -1.78247 0.937552 0
M  V30 6758 C 629.838 -2.8996 1.90063 0
M  V30 6759 C 628.899 -2.92809 3.13945 0
M  V30 6760 C 628.132 -4.22201 3.26469 0
M  V30 6761 O 628.355 -5.15286 2.44616 0
M  V30 6762 O 627.289 -4.31599 4.1953 0
M  V30 6763 H 631.115 -1.358 2.71647 0
M  V30 6764 H 628.7 -0.608618 1.36441 0
M  V30 6765 H 630.582 -3.70575 2.0063 0
M  V30 6766 H 629.257 -3.08347 0.985067 0
M  V30 6767 H 628.164 -2.11102 3.08847 0
M  V30 6768 H 629.497 -2.79369 4.05233 0
M  V30 6769 N 631.149 -1.42148 -0.680565 0
M  V30 6770 C 632.081 -1.41119 -1.80605 0
M  V30 6771 C 633.094 -0.311099 -1.598 0
M  V30 6772 O 634.283 -0.573813 -1.69026 0
M  V30 6773 C 631.383 -1.18204 -3.17618 0
M  V30 6774 C 630.556 -2.40537 -3.65322 0
M  V30 6775 C 629.615 -2.13254 -4.8105 0
M  V30 6776 O 628.641 -2.8641 -4.91892 0
M  V30 6777 N 629.843 -1.13208 -5.69354 0
M  V30 6778 H 632.608 -2.38128 -1.81975 0
M  V30 6779 H 630.169 -1.36953 -0.863446 0
M  V30 6780 H 632.161 -0.97878 -3.92686 0
M  V30 6781 H 630.731 -0.29738 -3.11182 0
M  V30 6782 H 629.951 -2.76468 -2.80996 0
M  V30 6783 H 631.239 -3.22012 -3.93936 0
M  V30 6784 H 630.637 -0.526893 -5.63241 0
M  V30 6785 H 629.194 -0.988699 -6.44258 0
M  V30 6786 N 632.627 0.916307 -1.28225 0
M  V30 6787 C 633.575 2.03977 -1.11786 0
M  V30 6788 C 634.569 1.69358 -0.0378265 0
M  V30 6789 O 635.775 1.78925 -0.196405 0
M  V30 6790 H 632.15 0.66829 -0.344809 0
M  V30 6791 H 634.121 2.14985 -2.06939 0
M  V30 6792 C 632.87 3.38518 -0.7938 0
M  V30 6793 H 632.193 3.65649 -1.61682 0
M  V30 6794 H 633.633 4.17864 -0.718719 0
M  V30 6795 C 632.092 3.33134 0.502353 0
M  V30 6796 O 632.622 3.71281 1.53341 0
M  V30 6797 N 630.828 2.86229 0.502147 0
M  V30 6798 H 630.375 2.55382 -0.337338 0
M  V30 6799 H 630.333 2.83009 1.36942 0
M  V30 6800 N 634.105 1.10431 1.1244 0
M  V30 6801 C 635.351 0.847972 1.84221 0
M  V30 6802 C 635.684 -0.624903 1.83871 0
M  V30 6803 O 634.959 -1.46074 1.28423 0
M  V30 6804 C 635.242 1.39695 3.319 0
M  V30 6805 C 635.095 2.93668 3.40704 0
M  V30 6806 C 636.414 1.03924 4.27654 0
M  V30 6807 H 633.533 0.309502 0.668863 0
M  V30 6808 H 636.175 1.36745 1.31912 0
M  V30 6809 H 634.325 0.955095 3.76577 0
M  V30 6810 H 635.997 3.46379 3.04662 0
M  V30 6811 H 634.24 3.30272 2.81252 0
M  V30 6812 H 634.911 3.27162 4.446 0
M  V30 6813 H 637.387 1.42049 3.91102 0
M  V30 6814 H 636.263 1.45027 5.29394 0
M  V30 6815 H 636.524 -0.051336 4.4207 0
M  V30 6816 N 635.583 -1.29855 0.893053 0
M  V30 6817 C 636.531 -2.29867 0.355512 0
M  V30 6818 C 637.525 -1.60502 -0.541801 0
M  V30 6819 O 638.731 -1.74902 -0.425339 0
M  V30 6820 H 635.106 -0.745805 0.0963247 0
M  V30 6821 H 637.077 -2.72655 1.21252 0
M  V30 6822 C 635.826 -3.453 -0.407801 0
M  V30 6823 H 635.149 -3.98864 0.273426 0
M  V30 6824 H 636.589 -4.17334 -0.748887 0
M  V30 6825 C 635.048 -2.96051 -1.60795 0
M  V30 6826 O 635.578 -2.96763 -2.7073 0
M  V30 6827 N 633.784 -2.51963 -1.44786 0
M  V30 6828 H 633.331 -2.51583 -0.553498 0
M  V30 6829 H 633.289 -2.1937 -2.2522 0
M  V30 6830 N 637.061 -0.65484 -1.43351 0
M  V30 6831 C 638.308 -0.168892 -2.01794 0
M  V30 6832 C 638.636 1.2177 -1.51665 0
M  V30 6833 O 637.891 1.82717 -0.70092 0
M  V30 6834 C 638.19 -0.130424 -3.57162 0
M  V30 6835 C 637.856 -1.45898 -4.26643 0
M  V30 6836 C 636.518 -1.82279 -4.4534 0
M  V30 6837 C 638.87 -2.33485 -4.65976 0
M  V30 6838 C 636.198 -3.0591 -5.00635 0
M  V30 6839 C 638.55 -3.5641 -5.22642 0
M  V30 6840 C 637.214 -3.92985 -5.39555 0
M  V30 6841 H 636.484 -0.061802 -0.738418 0
M  V30 6842 H 639.131 -0.845869 -1.71806 0
M  V30 6843 H 637.436 0.630008 -3.86702 0
M  V30 6844 H 639.133 0.262465 -4.0014 0
M  V30 6845 H 635.723 -1.16591 -4.12437 0
M  V30 6846 H 639.907 -2.06668 -4.51223 0
M  V30 6847 H 635.163 -3.34295 -5.11915 0
M  V30 6848 H 639.337 -4.24495 -5.52066 0
M  V30 6849 H 636.964 -4.88862 -5.82167 0
M  V30 6850 N 638.539 1.52521 -0.396863 0
M  V30 6851 C 639.955 1.5953 -0.0471659 0
M  V30 6852 C 640.155 1.41044 1.43906 0
M  V30 6853 O 639.211 1.23122 2.20448 0
M  V30 6854 C 640.524 2.95972 -0.531113 0
M  V30 6855 C 642.072 3.09172 -0.488024 0
M  V30 6856 C 642.547 4.48075 -0.948281 0
M  V30 6857 N 644.038 4.54281 -0.9046 0
M  V30 6858 C 644.773 5.60007 -1.23205 0
M  V30 6859 N 644.269 6.73343 -1.63036 0
M  V30 6860 N 646.062 5.50151 -1.15282 0
M  V30 6861 H 638.213 1.62786 -1.36435 0
M  V30 6862 H 640.476 0.76514 -0.559701 0
M  V30 6863 H 640.182 3.14741 -1.56942 0
M  V30 6864 H 640.056 3.77143 0.0657922 0
M  V30 6865 H 642.443 2.90095 0.541211 0
M  V30 6866 H 642.524 2.29937 -1.12083 0
M  V30 6867 H 642.168 4.67894 -1.97578 0
M  V30 6868 H 642.098 5.25788 -0.292412 0
M  V30 6869 H 644.589 3.72918 -0.6116 0
M  V30 6870 H 644.902 7.49992 -1.86365 0
M  V30 6871 H 643.247 6.74655 -1.66929 0
M  V30 6872 H 646.438 4.6049 -0.840602 0
M  V30 6873 H 646.611 6.32444 -1.41133 0
M  V30 6874 N 640.017 0.126909 1.57088 0
M  V30 6875 C 640.964 -0.82036 2.15728 0
M  V30 6876 C 641.934 -1.25811 1.08447 0
M  V30 6877 O 643.119 -1.33422 1.36393 0
M  V30 6878 C 640.259 -2.06199 2.76724 0
M  V30 6879 C 639.372 -1.67188 3.98337 0
M  V30 6880 C 638.507 -2.86378 4.47393 0
M  V30 6881 C 637.546 -2.43644 5.61519 0
M  V30 6882 N 636.683 -3.55775 6.05284 0
M  V30 6883 H 641.523 -0.313472 2.96347 0
M  V30 6884 H 639.06 -0.14303 1.46403 0
M  V30 6885 H 641.018 -2.78959 3.10222 0
M  V30 6886 H 639.648 -2.54333 1.98782 0
M  V30 6887 H 638.7 -0.842714 3.70948 0
M  V30 6888 H 640.012 -1.31789 4.81075 0
M  V30 6889 H 639.166 -3.67353 4.82842 0
M  V30 6890 H 637.905 -3.25009 3.63621 0
M  V30 6891 H 636.91 -1.61104 5.25667 0
M  V30 6892 H 638.135 -2.06122 6.47063 0
M  V30 6893 H 636.081 -3.94065 5.24451 0
M  V30 6894 H 635.998 -3.24325 6.82898 0
M  V30 6895 H 637.266 -4.37166 6.45373 0
M  V30 6896 N 641.495 -1.56914 -0.146875 0
M  V30 6897 C 642.744 -1.82546 -0.857898 0
M  V30 6898 C 643.057 -0.708169 -1.8233 0
M  V30 6899 O 644.263 -0.850093 -2.57848 0
M  V30 6900 C 642.719 -3.23548 -1.57623 0
M  V30 6901 C 642.327 -4.43212 -0.653224 0
M  V30 6902 C 644.071 -3.58453 -2.27402 0
M  V30 6903 C 641.978 -5.75237 -1.37318 0
M  V30 6904 H 640.908 -0.680786 -0.32411 0
M  V30 6905 H 643.559 -1.83166 -0.110639 0
M  V30 6906 H 641.941 -3.17315 -2.36912 0
M  V30 6907 H 643.115 -4.60682 0.104452 0
M  V30 6908 H 641.43 -4.16351 -0.0638336 0
M  V30 6909 H 644.027 -4.54349 -2.81907 0
M  V30 6910 H 644.37 -2.84516 -3.03901 0
M  V30 6911 H 644.903 -3.66347 -1.55032 0
M  V30 6912 H 641.642 -6.52269 -0.650041 0
M  V30 6913 H 641.162 -5.61703 -2.10357 0
M  V30 6914 H 642.841 -6.18039 -1.91406 0
M  V30 6915 N 642.974 0.416227 -1.52004 0
M  V30 6916 C 643.904 1.51365 -1.77795 0
M  V30 6917 C 644.885 1.58059 -0.628601 0
M  V30 6918 O 646.07 1.73447 -0.873478 0
M  V30 6919 C 643.2 2.89256 -1.92219 0
M  V30 6920 C 642.154 2.97415 -3.0778 0
M  V30 6921 C 641.48 4.37492 -3.07417 0
M  V30 6922 C 642.78 2.69551 -4.47369 0
M  V30 6923 H 644.474 1.30033 -2.69688 0
M  V30 6924 H 642.02 0.624112 -1.29772 0
M  V30 6925 H 643.973 3.66008 -2.08845 0
M  V30 6926 H 642.697 3.11866 -0.969917 0
M  V30 6927 H 641.356 2.23107 -2.90893 0
M  V30 6928 H 641.004 4.571 -2.09925 0
M  V30 6929 H 640.704 4.43877 -3.85029 0
M  V30 6930 H 642.228 5.16188 -3.26162 0
M  V30 6931 H 643.642 3.36028 -4.64497 0
M  V30 6932 H 642.039 2.87321 -5.26846 0
M  V30 6933 H 643.109 1.65029 -4.55953 0
M  V30 6934 N 644.452 1.42507 0.673017 0
M  V30 6935 C 645.382 1.48916 1.79851 0
M  V30 6936 C 646.363 0.345566 1.66553 0
M  V30 6937 O 647.548 0.560116 1.85947 0
M  V30 6938 C 644.678 1.39258 3.18158 0
M  V30 6939 C 643.632 2.51662 3.46194 0
M  V30 6940 C 642.958 2.27062 4.84094 0
M  V30 6941 C 644.258 3.93968 3.42909 0
M  V30 6942 H 645.952 2.43114 1.74745 0
M  V30 6943 H 643.498 1.17013 0.839288 0
M  V30 6944 H 645.451 1.42349 3.96629 0
M  V30 6945 H 644.175 0.415542 3.23946 0
M  V30 6946 H 642.834 2.47891 2.70084 0
M  V30 6947 H 642.482 1.27648 4.86534 0
M  V30 6948 H 642.182 3.02398 5.03815 0
M  V30 6949 H 643.706 2.31905 5.64847 0
M  V30 6950 H 645.12 3.99332 4.11347 0
M  V30 6951 H 643.517 4.6917 3.74165 0
M  V30 6952 H 644.587 4.20512 2.41449 0
M  V30 6953 N 645.93 -0.909495 1.28709 0
M  V30 6954 C 647.155 -1.69801 1.1909 0
M  V30 6955 C 647.58 -1.86479 -0.246388 0
M  V30 6956 O 646.938 -1.37802 -1.17815 0
M  V30 6957 C 646.986 -3.06543 1.89904 0
M  V30 6958 O 646.09 -3.94268 1.2094 0
M  V30 6959 H 645.431 -0.519783 0.413185 0
M  V30 6960 H 647.961 -1.13689 1.70106 0
M  V30 6961 H 647.971 -3.56748 1.97977 0
M  V30 6962 H 646.646 -2.93722 2.94449 0
M  V30 6963 H 645.223 -3.52702 1.2106 0
M  V30 6964 N 647.408 -1.11026 -1.11852 0
M  V30 6965 C 648.355 -0.764662 -2.17765 0
M  V30 6966 C 649.325 0.261854 -1.64023 0
M  V30 6967 O 650.51 0.139748 -1.90288 0
M  V30 6968 C 647.65 -0.209317 -3.44465 0
M  V30 6969 C 646.763 -1.29187 -4.12231 0
M  V30 6970 C 645.898 -0.697523 -5.266 0
M  V30 6971 C 644.937 -1.76023 -5.86244 0
M  V30 6972 N 644.074 -1.18569 -6.92016 0
M  V30 6973 H 648.914 -1.67202 -2.46673 0
M  V30 6974 H 646.451 -0.835065 -1.21099 0
M  V30 6975 H 648.409 0.130599 -4.16996 0
M  V30 6976 H 647.039 0.661251 -3.15955 0
M  V30 6977 H 646.091 -1.74881 -3.37818 0
M  V30 6978 H 647.403 -2.09607 -4.52622 0
M  V30 6979 H 646.557 -0.307412 -6.05921 0
M  V30 6980 H 645.296 0.138044 -4.87505 0
M  V30 6981 H 644.301 -2.1597 -5.05606 0
M  V30 6982 H 645.526 -2.59875 -6.27409 0
M  V30 6983 H 643.472 -0.371695 -6.54946 0
M  V30 6984 H 643.389 -1.92666 -7.31038 0
M  V30 6985 H 644.657 -0.82233 -7.7515 0
M  V30 6986 N 648.886 1.2938 -0.899927 0
M  V30 6987 C 650.134 1.95164 -0.524924 0
M  V30 6988 C 650.455 1.71292 0.931888 0
M  V30 6989 O 649.725 1.04481 1.65712 0
M  V30 6990 H 648.305 0.722133 -0.191135 0
M  V30 6991 H 650.967 1.57628 -1.14627 0
M  V30 6992 H 650.063 3.0397 -0.707711 0
M  V30 6993 N 650.364 0.662433 1.43002 0
M  V30 6994 C 651.613 0.176873 2.00923 0
M  V30 6995 C 651.926 -1.21954 1.52927 0
M  V30 6996 O 653.132 -1.80081 2.03182 0
M  V30 6997 C 651.588 0.265379 3.5892 0
M  V30 6998 C 651.196 1.66507 4.15908 0
M  V30 6999 C 652.94 -0.162103 4.2419 0
M  V30 7000 C 650.847 1.707 5.66229 0
M  V30 7001 H 649.777 0.0623627 0.751417 0
M  V30 7002 H 652.428 0.825813 1.63868 0
M  V30 7003 H 650.81 -0.451235 3.93421 0
M  V30 7004 H 651.984 2.40777 3.92891 0
M  V30 7005 H 650.299 2.03932 3.63044 0
M  V30 7006 H 652.896 -0.150745 5.34487 0
M  V30 7007 H 653.239 -1.19519 3.98774 0
M  V30 7008 H 653.772 0.503075 3.94606 0
M  V30 7009 H 650.511 2.7195 5.96426 0
M  V30 7010 H 650.031 1.00768 5.91275 0
M  V30 7011 H 651.71 1.45487 6.3043 0
M  V30 7012 N 651.842 -1.52309 0.404946 0
M  V30 7013 C 652.792 -2.23717 -0.439864 0
M  V30 7014 C 653.776 -1.24692 -1.0169 0
M  V30 7015 O 654.968 -1.49951 -0.940409 0
M  V30 7016 C 652.097 -3.05898 -1.55825 0
M  V30 7017 C 651.183 -4.12331 -0.992188 0
M  V30 7018 N 651.574 -5.0557 -0.152424 0
M  V30 7019 C 649.872 -4.2774 -1.26312 0
M  V30 7020 C 650.573 -5.81474 0.162041 0
M  V30 7021 N 649.549 -5.41767 -0.44601 0
M  V30 7022 H 653.351 -2.93162 0.208084 0
M  V30 7023 H 650.865 -1.60969 0.215131 0
M  V30 7024 H 652.862 -3.55605 -2.17603 0
M  V30 7025 H 651.522 -2.37991 -2.20886 0
M  V30 7026 H 652.533 -5.17468 0.211556 0
M  V30 7027 H 649.21 -3.71062 -1.91362 0
M  V30 7028 H 650.6 -6.66585 0.843423 0
M  V30 7029 N 653.32 -0.135238 -1.57019 0
M  V30 7030 C 654.25 0.805235 -2.19176 0
M  V30 7031 C 655.231 1.2656 -1.13651 0
M  V30 7032 O 656.416 1.32528 -1.4195 0
M  V30 7033 C 653.546 2.04914 -2.80406 0
M  V30 7034 C 652.5 1.72598 -3.91655 0
M  V30 7035 C 651.826 3.04154 -4.39766 0
M  V30 7036 C 653.126 0.981709 -5.12991 0
M  V30 7037 H 654.82 0.287232 -2.98019 0
M  V30 7038 H 652.366 0.136714 -1.4335 0
M  V30 7039 H 654.319 2.71178 -3.22553 0
M  V30 7040 H 653.043 2.59067 -1.98877 0
M  V30 7041 H 651.702 1.08717 -3.50109 0
M  V30 7042 H 651.35 3.56274 -3.55075 0
M  V30 7043 H 651.05 2.83299 -5.14796 0
M  V30 7044 H 652.574 3.71509 -4.84576 0
M  V30 7045 H 653.988 1.5462 -5.52056 0
M  V30 7046 H 652.385 0.873533 -5.93708 0
M  V30 7047 H 653.455 -0.0286887 -4.84892 0
M  V30 7048 N 654.798 1.5699 0.138552 0
M  V30 7049 C 655.746 1.99858 1.18994 0
M  V30 7050 C 656.74 0.89231 1.43994 0
M  V30 7051 O 657.946 1.0775 1.44187 0
M  V30 7052 H 654.321 0.636325 0.400743 0
M  V30 7053 H 656.292 2.87427 0.801755 0
M  V30 7054 C 655.041 2.40235 2.51361 0
M  V30 7055 H 654.364 3.24917 2.32957 0
M  V30 7056 H 655.804 2.74045 3.23535 0
M  V30 7057 C 654.263 1.25829 3.1252 0
M  V30 7058 O 654.793 0.563604 3.97727 0
M  V30 7059 N 652.999 1.02036 2.72097 0
M  V30 7060 H 652.546 1.58705 2.02905 0
M  V30 7061 H 652.504 0.256796 3.1335 0
M  V30 7062 N 656.276 -0.40816 1.52223 0
M  V30 7063 C 657.522 -1.15673 1.66576 0
M  V30 7064 C 657.855 -1.90141 0.394996 0
M  V30 7065 O 657.13 -1.84798 -0.606613 0
M  V30 7066 C 657.413 -2.15042 2.88841 0
M  V30 7067 C 657.266 -1.44465 4.25969 0
M  V30 7068 C 658.585 -3.15699 3.0663 0
M  V30 7069 H 655.704 -0.41916 0.606196 0
M  V30 7070 H 658.346 -0.442348 1.84779 0
M  V30 7071 H 656.496 -2.75964 2.73452 0
M  V30 7072 H 658.168 -0.866544 4.53088 0
M  V30 7073 H 656.411 -0.746612 4.27327 0
M  V30 7074 H 657.082 -2.16976 5.07568 0
M  V30 7075 H 659.558 -2.64854 3.20923 0
M  V30 7076 H 658.434 -3.82491 3.9369 0
M  V30 7077 H 658.695 -3.83481 2.19987 0
M  V30 7078 N 657.755 -1.42862 -0.66545 0
M  V30 7079 C 658.685 -1.49867 -1.79059 0
M  V30 7080 C 659.666 -0.354394 -1.66367 0
M  V30 7081 O 660.851 -0.569969 -1.85647 0
M  V30 7082 C 657.981 -1.40943 -3.17415 0
M  V30 7083 C 656.935 -2.53495 -3.44854 0
M  V30 7084 C 656.261 -2.29626 -4.82883 0
M  V30 7085 C 657.561 -3.95781 -3.40815 0
M  V30 7086 H 659.255 -2.44037 -1.73453 0
M  V30 7087 H 656.801 -1.17456 -0.833071 0
M  V30 7088 H 658.754 -1.4445 -3.95869 0
M  V30 7089 H 657.478 -0.432716 -3.23721 0
M  V30 7090 H 656.137 -2.4932 -2.68766 0
M  V30 7091 H 655.785 -1.30226 -4.8585 0
M  V30 7092 H 655.485 -3.05065 -5.02204 0
M  V30 7093 H 657.009 -2.34897 -5.63609 0
M  V30 7094 H 658.423 -4.01508 -4.09224 0
M  V30 7095 H 656.82 -4.71148 -3.71672 0
M  V30 7096 H 657.89 -4.21786 -2.39216 0
M  V30 7097 N 659.233 0.902656 -1.29189 0
M  V30 7098 C 660.143 2.03946 -1.15944 0
M  V30 7099 C 661.159 1.738 -0.0833803 0
M  V30 7100 O 662.335 1.9923 -0.29487 0
M  V30 7101 C 659.4 3.36519 -0.834006 0
M  V30 7102 C 658.461 3.80203 -1.9936 0
M  V30 7103 C 657.694 5.06449 -1.68359 0
M  V30 7104 O 657.917 5.67202 -0.603141 0
M  V30 7105 O 656.851 5.46114 -2.53067 0
M  V30 7106 H 660.677 2.18043 -2.11403 0
M  V30 7107 H 658.262 1.02584 -1.08613 0
M  V30 7108 H 660.144 4.16089 -0.666949 0
M  V30 7109 H 658.819 3.23573 0.0908245 0
M  V30 7110 H 657.726 3.01413 -2.21588 0
M  V30 7111 H 659.059 3.97729 -2.89952 0
M  V30 7112 N 660.711 1.11618 1.11262 0
M  V30 7113 C 661.641 0.79846 2.19424 0
M  V30 7114 C 662.622 -0.234003 1.68483 0
M  V30 7115 O 663.807 -0.0970704 1.93957 0
M  V30 7116 C 660.937 0.242892 3.4645 0
M  V30 7117 C 659.891 1.20744 4.10615 0
M  V30 7118 C 659.217 0.512494 5.32238 0
M  V30 7119 C 660.517 2.55884 4.55325 0
M  V30 7120 H 662.211 1.70286 2.46258 0
M  V30 7121 H 659.757 0.820195 1.18359 0
M  V30 7122 H 661.71 0.00840447 4.21399 0
M  V30 7123 H 660.434 -0.696811 3.1908 0
M  V30 7124 H 659.093 1.42759 3.37662 0
M  V30 7125 H 658.741 -0.432075 5.01141 0
M  V30 7126 H 658.441 1.15583 5.7612 0
M  V30 7127 H 659.965 0.286842 6.09926 0
M  V30 7128 H 661.379 2.37946 5.21588 0
M  V30 7129 H 659.776 3.16216 5.10027 0
M  V30 7130 H 660.846 3.14968 3.68678 0
M  V30 7131 N 662.189 -1.289 0.906776 0
M  V30 7132 C 663.122 -2.25737 0.334362 0
M  V30 7133 C 664.1 -1.52745 -0.557474 0
M  V30 7134 O 665.284 -1.81673 -0.502697 0
M  V30 7135 C 662.411 -3.34642 -0.522716 0
M  V30 7136 C 661.457 -4.25424 0.302777 0
M  V30 7137 S 662.29 -5.07629 1.70508 0
M  V30 7138 C 663.446 -6.20031 0.855118 0
M  V30 7139 H 663.679 -2.73941 1.15514 0
M  V30 7140 H 661.212 -1.37233 0.707573 0
M  V30 7141 H 663.17 -3.97845 -1.01141 0
M  V30 7142 H 661.831 -2.85119 -1.31781 0
M  V30 7143 H 661.024 -5.02767 -0.352257 0
M  V30 7144 H 660.626 -3.66908 0.724873 0
M  V30 7145 H 662.918 -6.77451 0.0816418 0
M  V30 7146 H 663.861 -6.89767 1.60087 0
M  V30 7147 H 664.269 -5.63035 0.406375 0
M  V30 7148 N 663.667 -0.670007 -1.42649 0
M  V30 7149 C 664.599 0.0501746 -2.29145 0
M  V30 7150 C 665.612 0.770331 -1.43422 0
M  V30 7151 O 666.801 0.625288 -1.6719 0
M  V30 7152 C 663.901 1.09463 -3.20735 0
M  V30 7153 C 663.074 0.44926 -4.35087 0
M  V30 7154 C 662.133 1.39285 -5.07431 0
M  V30 7155 O 661.159 0.894997 -5.6212 0
M  V30 7156 N 662.361 2.72631 -5.12496 0
M  V30 7157 H 665.126 -0.692312 -2.91594 0
M  V30 7158 H 662.687 -0.514056 -1.53522 0
M  V30 7159 H 664.679 1.72705 -3.65999 0
M  V30 7160 H 663.249 1.73891 -2.59771 0
M  V30 7161 H 662.469 -0.362573 -3.92529 0
M  V30 7162 H 663.757 -0.000544776 -5.088 0
M  V30 7163 H 663.155 3.15623 -4.69467 0
M  V30 7164 H 661.712 3.31132 -5.61422 0
M  V30 7165 N 665.145 1.52092 -0.413018 0
M  V30 7166 C 666.092 2.27119 0.410558 0
M  V30 7167 C 667.062 1.29692 1.03774 0
M  V30 7168 O 668.247 1.58561 1.06128 0
M  V30 7169 C 665.387 3.09863 1.51918 0
M  V30 7170 C 664.5 4.22252 0.912528 0
M  V30 7171 C 663.635 4.92348 1.99417 0
M  V30 7172 C 662.674 5.96694 1.36466 0
M  V30 7173 N 661.811 6.60292 2.38661 0
M  V30 7174 H 666.651 2.97067 -0.235661 0
M  V30 7175 H 664.188 1.46542 -0.128055 0
M  V30 7176 H 666.146 3.56144 2.17295 0
M  V30 7177 H 664.776 2.42078 2.13537 0
M  V30 7178 H 663.828 3.80113 0.147697 0
M  V30 7179 H 665.14 4.9709 0.412717 0
M  V30 7180 H 664.294 5.42054 2.72512 0
M  V30 7181 H 663.033 4.17087 2.52764 0
M  V30 7182 H 662.038 5.46304 0.61906 0
M  V30 7183 H 663.263 6.73899 0.838827 0
M  V30 7184 H 661.209 5.87858 2.91134 0
M  V30 7185 H 661.126 7.30816 1.93503 0
M  V30 7186 H 662.394 7.14635 3.11314 0
M  V30 7187 N 666.623 0.143563 1.56945 0
M  V30 7188 C 667.573 -0.809115 2.1316 0
M  V30 7189 C 668.557 -1.21176 1.05855 0
M  V30 7190 O 669.749 -1.17875 1.3204 0
M  V30 7191 C 666.878 -2.04957 2.75405 0
M  V30 7192 C 665.964 -1.67018 3.89828 0
M  V30 7193 N 666.355 -0.998822 4.9584 0
M  V30 7194 C 664.653 -1.96313 4.00471 0
M  V30 7195 C 665.354 -0.816217 5.75945 0
M  V30 7196 N 664.33 -1.349 5.26596 0
M  V30 7197 H 668.132 -0.286919 2.92496 0
M  V30 7198 H 665.646 -0.0580948 1.62296 0
M  V30 7199 H 667.643 -2.74201 3.14037 0
M  V30 7200 H 666.303 -2.57697 1.97541 0
M  V30 7201 H 667.314 -0.659975 5.13678 0
M  V30 7202 H 663.991 -2.50927 3.33679 0
M  V30 7203 H 665.381 -0.287353 6.71285 0
M  V30 7204 N 668.101 -1.57061 -0.130224 0
M  V30 7205 C 669.35 -1.83446 -0.838488 0
M  V30 7206 C 669.663 -0.727468 -1.81569 0
M  V30 7207 O 670.869 -0.877394 -2.56932 0
M  V30 7208 C 669.325 -3.25201 -1.54182 0
M  V30 7209 C 668.933 -4.4388 -0.606178 0
M  V30 7210 C 670.677 -3.60844 -2.23588 0
M  V30 7211 C 668.584 -5.76661 -1.31209 0
M  V30 7212 H 667.514 -0.684185 -0.316871 0
M  V30 7213 H 670.165 -1.83273 -0.0912059 0
M  V30 7214 H 668.547 -3.1981 -2.33533 0
M  V30 7215 H 669.721 -4.60545 0.153308 0
M  V30 7216 H 668.036 -4.16395 -0.0196705 0
M  V30 7217 H 670.633 -4.57313 -2.77072 0
M  V30 7218 H 670.976 -2.87724 -3.00867 0
M  V30 7219 H 671.509 -3.67971 -1.51137 0
M  V30 7220 H 668.248 -6.52922 -0.580823 0
M  V30 7221 H 667.768 -5.63902 -2.04387 0
M  V30 7222 H 669.447 -6.20035 -1.8484 0
M  V30 7223 N 669.579 0.400081 -1.52437 0
M  V30 7224 C 670.529 1.48734 -1.72807 0
M  V30 7225 C 671.513 1.50004 -0.582032 0
M  V30 7226 O 672.705 1.55828 -0.839449 0
M  V30 7227 C 669.834 2.86568 -1.89034 0
M  V30 7228 C 668.92 2.8991 -3.09537 0
M  V30 7229 N 669.311 2.62937 -4.32086 0
M  V30 7230 C 667.609 3.21078 -3.09556 0
M  V30 7231 C 668.31 2.73079 -5.13617 0
M  V30 7232 N 667.286 3.06342 -4.49061 0
M  V30 7233 H 671.088 1.26689 -2.65193 0
M  V30 7234 H 668.602 0.607902 -1.50593 0
M  V30 7235 H 670.599 3.64834 -2.01746 0
M  V30 7236 H 669.259 3.09604 -0.978547 0
M  V30 7237 H 670.27 2.37163 -4.60406 0
M  V30 7238 H 666.947 3.49651 -2.28146 0
M  V30 7239 H 668.337 2.55863 -6.21276 0
M  V30 7240 N 671.057 1.43213 0.657864 0
M  V30 7241 C 672.282 1.48227 1.45064 0
M  V30 7242 C 672.707 0.0999939 1.87834 0
M  V30 7243 O 672.065 -0.905269 1.57081 0
M  V30 7244 C 672.113 2.42931 2.6649 0
M  V30 7245 O 671.217 1.91237 3.6538 0
M  V30 7246 H 670.558 0.501551 0.435135 0
M  V30 7247 H 673.088 1.8808 0.805431 0
M  V30 7248 H 673.098 2.6008 3.1436 0
M  V30 7249 H 671.773 3.43348 2.34701 0
M  V30 7250 H 670.35 1.83726 3.24498 0
M  V30 7251 N 672.536 -0.895792 1.29666 0
M  V30 7252 C 673.947 -1.46195 1.1612 0
M  V30 7253 C 674.298 -1.94699 -0.242195 0
M  V30 7254 O 673.423 -1.8406 -1.13802 0
M  V30 7255 C 674.018 -2.65718 2.10189 0
M  V30 7256 C 672.577 -3.18458 2.00653 0
M  V30 7257 C 671.724 -1.91149 2.00891 0
M  V30 7258 H 674.675 -0.706756 1.42094 0
M  V30 7259 H 674.696 -3.4158 1.6764 0
M  V30 7260 H 674.208 -2.30386 3.12321 0
M  V30 7261 H 672.309 -3.58474 1.01623 0
M  V30 7262 H 672.422 -3.82491 2.88509 0
M  V30 7263 H 670.786 -2.09021 1.45542 0
M  V30 7264 H 671.569 -1.58089 3.04734 0
M  V30 7265 N 674.014 -1.12206 -1.10668 0
M  V30 7266 C 674.924 -0.800686 -2.20513 0
M  V30 7267 C 675.94 0.209512 -1.72734 0
M  V30 7268 O 677.116 0.043705 -2.01353 0
M  V30 7269 C 674.181 -0.257353 -3.45744 0
M  V30 7270 C 673.242 -1.32718 -4.0827 0
M  V30 7271 C 672.475 -0.809674 -5.27522 0
M  V30 7272 O 672.698 0.35742 -5.69279 0
M  V30 7273 O 671.632 -1.57816 -5.80842 0
M  V30 7274 H 675.458 -1.71807 -2.50432 0
M  V30 7275 H 673.043 -0.898546 -1.19359 0
M  V30 7276 H 674.925 0.0408849 -4.2138 0
M  V30 7277 H 673.6 0.632627 -3.17458 0
M  V30 7278 H 672.507 -1.67855 -3.34329 0
M  V30 7279 H 673.84 -2.19083 -4.40753 0
M  V30 7280 N 675.492 1.28418 -0.913599 0
M  V30 7281 C 676.738 1.9527 -0.547484 0
M  V30 7282 C 677.071 1.71745 0.906486 0
M  V30 7283 O 676.346 1.03834 1.64465 0
M  V30 7284 C 676.629 3.49748 -0.857205 0
M  V30 7285 C 676.482 3.82675 -2.3639 0
M  V30 7286 C 677.801 4.3868 -0.353258 0
M  V30 7287 H 674.92 0.709236 -0.200381 0
M  V30 7288 H 677.562 1.51789 -1.14281 0
M  V30 7289 H 675.712 3.86915 -0.350548 0
M  V30 7290 H 677.384 3.55378 -2.94116 0
M  V30 7291 H 675.627 3.29724 -2.81894 0
M  V30 7292 H 676.298 4.90547 -2.53115 0
M  V30 7293 H 678.774 4.08584 -0.787288 0
M  V30 7294 H 677.65 5.45621 -0.599049 0
M  V30 7295 H 677.911 4.35753 0.746413 0
M  V30 7296 N 676.97 0.677563 1.42291 0
M  V30 7297 C 677.933 0.0101085 2.29198 0
M  V30 7298 C 678.933 -0.726219 1.43467 0
M  V30 7299 O 680.123 -0.563807 1.64824 0
M  V30 7300 C 677.255 -0.996316 3.26016 0
M  V30 7301 H 678.448 0.775071 2.89711 0
M  V30 7302 H 676.001 0.440065 1.49977 0
M  V30 7303 H 676.736 -1.78967 2.70446 0
M  V30 7304 H 676.521 -0.471687 3.89253 0
M  V30 7305 H 678.011 -1.46167 3.91184 0
M  V30 7306 N 678.448 -1.51871 0.421078 0
M  V30 7307 C 679.358 -2.31077 -0.405069 0
M  V30 7308 C 680.374 -1.39301 -1.04265 0
M  V30 7309 O 681.55 -1.72376 -1.04157 0
M  V30 7310 C 678.615 -3.12556 -1.50032 0
M  V30 7311 C 677.676 -4.20088 -0.884559 0
M  V30 7312 C 676.909 -4.97673 -1.92762 0
M  V30 7313 O 677.132 -4.75696 -3.14753 0
M  V30 7314 O 676.066 -5.82203 -1.52719 0
M  V30 7315 H 679.892 -3.02742 0.241086 0
M  V30 7316 H 677.477 -1.48263 0.183991 0
M  V30 7317 H 679.359 -3.6326 -2.13589 0
M  V30 7318 H 678.034 -2.43672 -2.13086 0
M  V30 7319 H 676.941 -3.73502 -0.211379 0
M  V30 7320 H 678.274 -4.91298 -0.297763 0
M  V30 7321 N 679.926 -0.151884 -1.56866 0
M  V30 7322 C 681.151 0.508044 -2.01081 0
M  V30 7323 C 681.576 1.57306 -1.03134 0
M  V30 7324 O 680.934 1.81298 -0.0078309 0
M  V30 7325 C 680.982 1.08106 -3.44014 0
M  V30 7326 O 680.086 2.19577 -3.49084 0
M  V30 7327 H 679.427 0.123757 -0.652365 0
M  V30 7328 H 681.957 -0.250055 -2.03066 0
M  V30 7329 H 681.967 1.40851 -3.82916 0
M  V30 7330 H 680.642 0.301168 -4.14808 0
M  V30 7331 H 679.219 1.88023 -3.22027 0
M  V30 7332 N 681.404 1.57128 0.121893 0
M  V30 7333 C 682.652 1.84335 0.828548 0
M  V30 7334 C 682.973 0.736632 1.80551 0
M  V30 7335 O 682.243 -0.23962 1.94429 0
M  V30 7336 H 680.823 0.680108 0.30897 0
M  V30 7337 H 683.485 1.9459 0.109906 0
M  V30 7338 H 682.581 2.80152 1.37554 0
M  V30 7339 N 682.882 -0.391992 1.52647 0
M  V30 7340 C 684.122 -1.1463 1.69232 0
M  V30 7341 C 684.486 -1.87312 0.421684 0
M  V30 7342 O 685.687 -2.64768 0.463852 0
M  V30 7343 C 683.958 -2.10088 2.89133 0
M  V30 7344 S 685.517 -2.93395 3.2629 0
M  V30 7345 H 682.335 -0.388076 0.59575 0
M  V30 7346 H 684.937 -0.431149 1.90687 0
M  V30 7347 H 683.641 -1.55408 3.79837 0
M  V30 7348 H 683.172 -2.86116 2.70003 0
M  V30 7349 H 685.187 -4.12193 2.76244 0
M  V30 7350 N 684.36 -1.4356 -0.65026 0
M  V30 7351 C 685.307 -1.48948 -1.76304 0
M  V30 7352 C 686.277 -0.338919 -1.62605 0
M  V30 7353 O 687.462 -0.54649 -1.82806 0
M  V30 7354 C 684.602 -1.42131 -3.14472 0
M  V30 7355 C 683.715 -2.67415 -3.39284 0
M  V30 7356 C 682.85 -2.52565 -4.67316 0
M  V30 7357 C 681.889 -3.73103 -4.85243 0
M  V30 7358 N 681.026 -3.57046 -6.04535 0
M  V30 7359 H 685.866 -2.44032 -1.71034 0
M  V30 7360 H 683.403 -1.21131 -0.834601 0
M  V30 7361 H 685.361 -1.36172 -3.94351 0
M  V30 7362 H 683.991 -0.506273 -3.18805 0
M  V30 7363 H 683.043 -2.8364 -2.53481 0
M  V30 7364 H 684.355 -3.56943 -3.48415 0
M  V30 7365 H 683.509 -2.44331 -5.55326 0
M  V30 7366 H 682.248 -1.60566 -4.60511 0
M  V30 7367 H 681.253 -3.81743 -3.95667 0
M  V30 7368 H 682.478 -4.66115 -4.93876 0
M  V30 7369 H 680.424 -2.67783 -5.98856 0
M  V30 7370 H 680.341 -4.40178 -6.14638 0
M  V30 7371 H 681.609 -3.52669 -6.95158 0
M  V30 7372 N 685.838 0.888903 -1.30139 0
M  V30 7373 C 686.771 1.99655 -1.10514 0
M  V30 7374 C 687.749 1.62594 -0.0138934 0
M  V30 7375 O 688.933 1.87762 -0.166689 0
M  V30 7376 C 686.06 3.31708 -0.684655 0
M  V30 7377 C 685.106 3.87755 -1.77619 0
M  V30 7378 S 685.939 4.15532 -3.37777 0
M  V30 7379 C 687.095 5.5061 -2.97622 0
M  V30 7380 H 687.328 2.15996 -2.04287 0
M  V30 7381 H 684.861 1.03682 -1.14409 0
M  V30 7382 H 686.819 4.08039 -0.448782 0
M  V30 7383 H 685.48 3.1323 0.233648 0
M  V30 7384 H 684.673 4.83164 -1.43417 0
M  V30 7385 H 684.275 3.18149 -1.96614 0
M  V30 7386 H 686.567 6.31518 -2.45338 0
M  V30 7387 H 687.51 5.89747 -3.91924 0
M  V30 7388 H 687.918 5.12983 -2.35603 0
M  V30 7389 N 687.317 1.12792 1.10072 0
M  V30 7390 C 688.247 0.821688 2.18565 0
M  V30 7391 C 689.228 -0.21612 1.68721 0
M  V30 7392 O 690.413 -0.0764932 1.94049 0
M  V30 7393 C 687.543 0.279624 3.46172 0
M  V30 7394 C 686.497 1.25092 4.09312 0
M  V30 7395 C 685.823 0.568916 5.31665 0
M  V30 7396 C 687.123 2.60699 4.52585 0
M  V30 7397 H 688.817 1.72888 2.44438 0
M  V30 7398 H 686.363 0.832702 1.17482 0
M  V30 7399 H 688.316 0.053099 4.21367 0
M  V30 7400 H 687.04 -0.662929 3.19801 0
M  V30 7401 H 685.699 1.46332 3.36129 0
M  V30 7402 H 685.347 -0.378898 5.01571 0
M  V30 7403 H 685.047 1.21687 5.74862 0
M  V30 7404 H 686.571 0.351517 6.09587 0
M  V30 7405 H 687.985 2.43465 5.19035 0
M  V30 7406 H 686.382 3.21608 5.06644 0
M  V30 7407 H 687.452 3.1886 3.65317 0
M  V30 7408 N 688.795 -1.27931 0.920396 0
M  V30 7409 C 689.743 -2.29061 0.404191 0
M  V30 7410 C 690.737 -1.61615 -0.507634 0
M  V30 7411 O 691.943 -1.75765 -0.388144 0
M  V30 7412 H 688.318 -0.743594 0.112123 0
M  V30 7413 H 690.289 -2.70021 1.27008 0
M  V30 7414 C 689.038 -3.46088 -0.334466 0
M  V30 7415 H 688.361 -3.98194 0.35797 0
M  V30 7416 H 689.801 -4.18829 -0.660196 0
M  V30 7417 C 688.26 -2.99396 -1.54479 0
M  V30 7418 O 688.79 -3.02439 -2.64374 0
M  V30 7419 N 686.996 -2.54978 -1.39408 0
M  V30 7420 H 686.543 -2.52701 -0.500009 0
M  V30 7421 H 686.501 -2.24098 -2.20516 0
M  V30 7422 N 690.273 -0.685099 -1.4193 0
M  V30 7423 C 691.223 0.00977295 -2.27998 0
M  V30 7424 C 692.207 0.763315 -1.41641 0
M  V30 7425 O 693.399 0.640532 -1.65004 0
M  V30 7426 C 690.528 0.952972 -3.29808 0
M  V30 7427 C 689.614 0.196231 -4.23646 0
M  V30 7428 N 690.005 -0.804401 -4.99363 0
M  V30 7429 C 688.303 0.433213 -4.43891 0
M  V30 7430 C 689.004 -1.25646 -5.67968 0
M  V30 7431 N 687.98 -0.5844 -5.4045 0
M  V30 7432 H 691.782 -0.757586 -2.83968 0
M  V30 7433 H 689.296 -0.515037 -1.54017 0
M  V30 7434 H 691.293 1.46585 -3.9028 0
M  V30 7435 H 689.953 1.72004 -2.75399 0
M  V30 7436 H 690.964 -1.18429 -5.04177 0
M  V30 7437 H 687.641 1.17899 -4.00507 0
M  V30 7438 H 689.031 -2.08622 -6.38691 0
M  V30 7439 N 691.751 1.51645 -0.429126 0
M  V30 7440 C 692.681 2.30434 0.377148 0
M  V30 7441 C 693.662 1.35493 1.02838 0
M  V30 7442 O 694.847 1.6441 1.03359 0
M  V30 7443 C 691.977 3.14038 1.48315 0
M  V30 7444 C 690.931 4.1719 0.955855 0
M  V30 7445 C 690.257 4.89263 2.15698 0
M  V30 7446 C 691.557 5.223 -0.00402136 0
M  V30 7447 H 693.251 2.98085 -0.280336 0
M  V30 7448 H 690.797 1.43354 -0.136265 0
M  V30 7449 H 692.75 3.67933 2.05435 0
M  V30 7450 H 691.474 2.44193 2.16881 0
M  V30 7451 H 690.133 3.64335 0.406929 0
M  V30 7452 H 689.781 4.15929 2.82864 0
M  V30 7453 H 689.481 5.59009 1.81059 0
M  V30 7454 H 691.005 5.45978 2.73387 0
M  V30 7455 H 692.419 5.71315 0.476607 0
M  V30 7456 H 690.816 5.99525 -0.26258 0
M  V30 7457 H 691.886 4.75638 -0.943236 0
M  V30 7458 N 693.229 0.160201 1.56784 0
M  V30 7459 C 694.476 -0.487588 1.96542 0
M  V30 7460 C 694.804 -1.63999 1.04569 0
M  V30 7461 O 694.059 -1.95546 0.0775211 0
M  V30 7462 C 694.358 -1.02259 3.42459 0
M  V30 7463 C 694.024 0.0127436 4.50898 0
M  V30 7464 C 692.686 0.297318 4.80281 0
M  V30 7465 C 695.038 0.716078 5.16257 0
M  V30 7466 C 692.366 1.29081 5.72324 0
M  V30 7467 C 694.718 1.69847 6.09372 0
M  V30 7468 C 693.382 1.99061 6.37127 0
M  V30 7469 H 692.652 -0.178421 0.719199 0
M  V30 7470 H 695.299 0.249818 1.89864 0
M  V30 7471 H 693.604 -1.8376 3.46034 0
M  V30 7472 H 695.301 -1.53261 3.70556 0
M  V30 7473 H 691.891 -0.219235 4.28039 0
M  V30 7474 H 696.075 0.509428 4.93679 0
M  V30 7475 H 691.331 1.52344 5.92116 0
M  V30 7476 H 695.505 2.2489 6.59088 0
M  V30 7477 H 693.132 2.76194 7.08252 0
M  V30 7478 N 694.707 -1.5719 -0.113559 0
M  V30 7479 C 695.617 -2.04041 -1.15777 0
M  V30 7480 C 696.633 -0.961812 -1.45001 0
M  V30 7481 O 697.809 -1.2737 -1.56009 0
M  V30 7482 C 694.874 -2.43994 -2.46308 0
M  V30 7483 C 693.935 -3.65962 -2.24433 0
M  V30 7484 C 693.168 -4.04 -3.4874 0
M  V30 7485 O 693.391 -3.42321 -4.56259 0
M  V30 7486 O 692.325 -4.97069 -3.3942 0
M  V30 7487 H 696.151 -2.93248 -0.789899 0
M  V30 7488 H 693.736 -1.45828 -0.324748 0
M  V30 7489 H 695.618 -2.70401 -3.23204 0
M  V30 7490 H 694.293 -1.57932 -2.82558 0
M  V30 7491 H 693.2 -3.44697 -1.45377 0
M  V30 7492 H 694.533 -4.52746 -1.93084 0
M  V30 7493 N 696.185 0.383891 -1.52853 0
M  V30 7494 C 697.433 1.12619 -1.67814 0
M  V30 7495 C 697.754 1.90354 -0.423141 0
M  V30 7496 O 697.024 1.87649 0.562554 0
M  V30 7497 H 695.604 0.418738 -0.618601 0
M  V30 7498 H 698.266 0.43495 -1.89985 0
M  V30 7499 H 697.362 1.82624 -2.5309 0
M  V30 7500 N 697.663 1.43903 0.642637 0
M  V30 7501 C 698.888 1.49758 1.43483 0
M  V30 7502 C 699.313 0.119911 1.87717 0
M  V30 7503 O 698.671 -0.888558 1.58033 0
M  V30 7504 C 698.719 2.45744 2.63898 0
M  V30 7505 O 697.823 1.95101 3.63331 0
M  V30 7506 H 697.164 0.506138 0.429791 0
M  V30 7507 H 699.694 1.88923 0.785438 0
M  V30 7508 H 699.704 2.63399 3.11584 0
M  V30 7509 H 698.379 3.45818 2.31046 0
M  V30 7510 H 696.956 1.87158 3.22531 0
M  V30 7511 N 699.141 -0.881989 1.30609 0
M  V30 7512 C 700.089 -2.00942 1.17155 0
M  V30 7513 C 701.083 -1.69198 0.0827154 0
M  V30 7514 O 702.289 -1.78342 0.243775 0
M  V30 7515 H 698.664 -0.658913 0.362406 0
M  V30 7516 H 700.635 -2.09423 2.12567 0
M  V30 7517 C 699.384 -3.36294 0.883273 0
M  V30 7518 H 698.707 -3.61233 1.7132 0
M  V30 7519 H 700.147 -4.15812 0.829255 0
M  V30 7520 C 698.606 -3.34348 -0.413851 0
M  V30 7521 O 699.136 -3.75216 -1.43444 0
M  V30 7522 N 697.342 -2.87459 -0.426082 0
M  V30 7523 H 696.889 -2.54397 0.40493 0
M  V30 7524 H 696.847 -2.8654 -1.29391 0
M  V30 7525 N 700.619 -1.13374 -1.09472 0
M  V30 7526 C 701.847 -0.918351 -1.85402 0
M  V30 7527 C 702.262 0.53281 -1.81126 0
M  V30 7528 O 701.619 1.36879 -1.20708 0
M  V30 7529 C 701.67 -1.39743 -3.33398 0
M  V30 7530 O 701.391 -2.79172 -3.37631 0
M  V30 7531 C 702.892 -1.22042 -4.2617 0
M  V30 7532 H 700.112 -0.327511 -0.585643 0
M  V30 7533 H 702.656 -1.50617 -1.38328 0
M  V30 7534 H 700.811 -0.852619 -3.77901 0
M  V30 7535 H 701.225 -3.00428 -4.29934 0
M  V30 7536 H 702.699 -1.60438 -5.2817 0
M  V30 7537 H 703.176 -0.162047 -4.38901 0
M  V30 7538 H 703.782 -1.75323 -3.87482 0
M  V30 7539 N 702.098 1.27442 -0.927168 0
M  V30 7540 C 703.323 1.99036 -0.583042 0
M  V30 7541 C 703.748 1.68711 0.83176 0
M  V30 7542 O 703.106 0.927081 1.55804 0
M  V30 7543 C 703.154 3.51271 -0.814925 0
M  V30 7544 O 702.258 4.12226 0.119742 0
M  V30 7545 H 701.599 0.624883 -0.224538 0
M  V30 7546 H 704.129 1.62263 -1.24628 0
M  V30 7547 H 704.139 4.01411 -0.730282 0
M  V30 7548 H 702.814 3.72676 -1.84623 0
M  V30 7549 H 701.391 3.72897 -0.0147688 0
M  V30 7550 N 703.576 0.692616 1.41565 0
M  V30 7551 C 704.506 0.0397325 2.33466 0
M  V30 7552 C 705.487 -0.770334 1.51657 0
M  V30 7553 O 706.672 -0.723903 1.80203 0
M  V30 7554 C 703.802 -0.899495 3.3545 0
M  V30 7555 C 702.756 -0.196738 4.27548 0
M  V30 7556 C 702.082 -1.25012 5.19881 0
M  V30 7557 C 703.382 0.935158 5.1386 0
M  V30 7558 H 705.076 0.807296 2.88311 0
M  V30 7559 H 702.622 0.389665 1.38628 0
M  V30 7560 H 704.575 -1.36545 3.98665 0
M  V30 7561 H 703.299 -1.69869 2.78948 0
M  V30 7562 H 701.958 0.249158 3.65752 0
M  V30 7563 H 701.606 -2.04177 4.59696 0
M  V30 7564 H 701.306 -0.784931 5.82334 0
M  V30 7565 H 702.83 -1.71665 5.85972 0
M  V30 7566 H 704.244 0.549619 5.70659 0
M  V30 7567 H 702.641 1.32726 5.85238 0
M  V30 7568 H 703.711 1.77613 4.512 0
M  V30 7569 N 705.054 -1.51416 0.437162 0
M  V30 7570 C 706.331 -1.94682 -0.189292 0
M  V30 7571 C 706.711 -1.37581 -1.60108 0
M  V30 7572 O 706.059 -0.562815 -2.2146 0
M  V30 7573 C 706.269 -3.48599 -0.167201 0
M  V30 7574 C 707.617 -4.2296 -0.372856 0
M  V30 7575 O 708.641 -3.55354 -0.245323 0
M  V30 7576 O 707.5 -5.42895 -0.626693 0
M  V30 7577 H 704.594 -0.816708 -0.130063 0
M  V30 7578 H 707.14 -1.62316 0.495128 0
M  V30 7579 H 705.912 -3.82616 0.81981 0
M  V30 7580 H 705.535 -3.87406 -0.894537 0
M  V30 7581 N 706.532 -0.168513 -1.56696 0
M  V30 7582 C 707.781 0.477233 -1.95973 0
M  V30 7583 C 708.094 1.64578 -1.05704 0
M  V30 7584 O 709.3 2.35758 -1.3465 0
M  V30 7585 C 707.756 0.900413 -3.48455 0
M  V30 7586 C 707.364 -0.242382 -4.47344 0
M  V30 7587 C 709.108 1.51474 -3.96555 0
M  V30 7588 C 707.015 0.200272 -5.91061 0
M  V30 7589 H 705.945 0.182061 -0.73169 0
M  V30 7590 H 708.596 -0.256297 -1.81701 0
M  V30 7591 H 706.978 1.68984 -3.58135 0
M  V30 7592 H 708.152 -1.01967 -4.49377 0
M  V30 7593 H 706.467 -0.766484 -4.09285 0
M  V30 7594 H 709.064 1.85792 -5.01384 0
M  V30 7595 H 709.407 2.41163 -3.39332 0
M  V30 7596 H 709.94 0.789802 -3.89881 0
M  V30 7597 H 706.679 -0.661775 -6.52151 0
M  V30 7598 H 706.199 0.942979 -5.92341 0
M  V30 7599 H 707.878 0.645088 -6.43776 0
M  V30 7600 N 708.01 1.57248 0.105221 0
M  V30 7601 C 708.943 1.96567 1.15916 0
M  V30 7602 C 709.921 0.837355 1.39381 0
M  V30 7603 O 711.105 1.09676 1.53308 0
M  V30 7604 C 708.232 2.27375 2.51035 0
M  V30 7605 C 707.278 3.49869 2.43913 0
M  V30 7606 S 708.111 5.01958 1.86543 0
M  V30 7607 C 709.267 5.35932 3.23307 0
M  V30 7608 H 709.5 2.85655 0.823931 0
M  V30 7609 H 707.033 1.51204 0.312515 0
M  V30 7610 H 708.991 2.45801 3.28774 0
M  V30 7611 H 707.652 1.38876 2.81731 0
M  V30 7612 H 706.845 3.68835 3.43477 0
M  V30 7613 H 706.447 3.30901 1.743 0
M  V30 7614 H 708.739 5.31958 4.19556 0
M  V30 7615 H 709.682 6.37047 3.09155 0
M  V30 7616 H 710.09 4.63397 3.22372 0
M  V30 7617 N 709.488 -0.375779 1.53054 0
M  V30 7618 C 710.451 -1.44254 1.7811 0
M  V30 7619 C 711.451 -1.47018 0.651328 0
M  V30 7620 O 712.641 -1.47957 0.919472 0
M  V30 7621 C 709.773 -2.8345 1.89391 0
M  V30 7622 H 710.966 -1.23316 2.73374 0
M  V30 7623 H 708.519 -0.608312 1.43977 0
M  V30 7624 H 709.254 -3.09716 0.961589 0
M  V30 7625 H 709.039 -2.82844 2.71555 0
M  V30 7626 H 710.529 -3.60722 2.10404 0
M  V30 7627 N 710.966 -1.44241 -0.634997 0
M  V30 7628 C 711.929 -1.50457 -1.72903 0
M  V30 7629 C 712.929 -0.387058 -1.56072 0
M  V30 7630 O 714.119 -0.649531 -1.61638 0
M  V30 7631 C 711.251 -1.37477 -3.1195 0
M  V30 7632 H 712.444 -2.47907 -1.68767 0
M  V30 7633 H 709.997 -1.31276 -0.84831 0
M  V30 7634 H 710.732 -0.41106 -3.21684 0
M  V30 7635 H 710.517 -2.18506 -3.25573 0
M  V30 7636 H 712.007 -1.44799 -3.91692 0
M  V30 7637 N 712.444 0.87505 -1.31075 0
M  V30 7638 C 713.69 1.63009 -1.20647 0
M  V30 7639 C 714.023 1.9276 0.236045 0
M  V30 7640 O 713.298 1.55559 1.16754 0
M  V30 7641 C 713.581 2.96357 -2.0456 0
M  V30 7642 C 713.434 2.73516 -3.57084 0
M  V30 7643 C 714.753 3.974 -1.89107 0
M  V30 7644 H 711.872 0.591518 -0.439631 0
M  V30 7645 H 714.514 1.0119 -1.60812 0
M  V30 7646 H 712.664 3.49119 -1.70435 0
M  V30 7647 H 714.336 2.27465 -4.01319 0
M  V30 7648 H 712.579 2.0784 -3.80769 0
M  V30 7649 H 713.25 3.68377 -4.11099 0
M  V30 7650 H 715.726 3.5383 -2.18961 0
M  V30 7651 H 714.602 4.88596 -2.5013 0
M  V30 7652 H 714.863 4.33794 -0.85296 0
M  V30 7653 N 713.922 1.13953 1.08869 0
M  V30 7654 C 715.168 0.906151 1.8143 0
M  V30 7655 C 715.501 -0.566089 1.85766 0
M  V30 7656 O 714.776 -1.41915 1.33006 0
M  V30 7657 C 715.059 1.50183 3.27287 0
M  V30 7658 C 714.912 3.04359 3.31189 0
M  V30 7659 C 716.231 1.17477 4.24131 0
M  V30 7660 H 713.35 0.330624 0.658678 0
M  V30 7661 H 715.992 1.40873 1.27495 0
M  V30 7662 H 714.142 1.07442 3.73348 0
M  V30 7663 H 715.814 3.55896 2.93488 0
M  V30 7664 H 714.057 3.39053 2.70602 0
M  V30 7665 H 714.728 3.41141 4.33966 0
M  V30 7666 H 717.204 1.5442 3.86385 0
M  V30 7667 H 716.08 1.61795 5.24513 0
M  V30 7668 H 716.341 0.0893312 4.4201 0
M  V30 7669 N 715.4 -1.26948 0.933913 0
M  V30 7670 C 716.811 -1.76058 0.621324 0
M  V30 7671 C 717.162 -1.76175 -0.863522 0
M  V30 7672 O 716.287 -1.36921 -1.67576 0
M  V30 7673 C 716.882 -3.19713 1.12111 0
M  V30 7674 C 715.441 -3.66465 0.859074 0
M  V30 7675 C 714.588 -2.46186 1.27624 0
M  V30 7676 H 717.539 -1.13127 1.11301 0
M  V30 7677 H 717.56 -3.77566 0.471608 0
M  V30 7678 H 717.072 -3.19596 2.20182 0
M  V30 7679 H 715.173 -3.72021 -0.207566 0
M  V30 7680 H 715.286 -4.55636 1.48098 0
M  V30 7681 H 713.65 -2.45042 0.694727 0
M  V30 7682 H 714.433 -2.48774 2.36572 0
M  V30 7683 N 716.879 -0.700114 -1.41195 0
M  V30 7684 C 717.826 -0.0376652 -2.30769 0
M  V30 7685 C 718.796 0.766544 -1.47354 0
M  V30 7686 O 719.981 0.73365 -1.76131 0
M  V30 7687 C 717.121 0.889452 -3.33441 0
M  V30 7688 C 716.234 0.076373 -4.31932 0
M  V30 7689 C 715.369 1.00155 -5.21673 0
M  V30 7690 C 714.408 0.181644 -6.1183 0
M  V30 7691 N 713.545 1.06087 -6.94039 0
M  V30 7692 H 718.385 -0.80726 -2.86858 0
M  V30 7693 H 715.922 -0.409798 -1.41277 0
M  V30 7694 H 717.88 1.44107 -3.91522 0
M  V30 7695 H 716.51 1.6254 -2.78892 0
M  V30 7696 H 715.562 -0.592223 -3.75762 0
M  V30 7697 H 716.874 -0.559076 -4.95657 0
M  V30 7698 H 716.028 1.62223 -5.8461 0
M  V30 7699 H 714.767 1.67085 -4.58186 0
M  V30 7700 H 713.772 -0.452085 -5.47938 0
M  V30 7701 H 714.997 -0.483925 -6.77374 0
M  V30 7702 H 712.943 1.7161 -6.33156 0
M  V30 7703 H 712.86 0.481094 -7.54468 0
M  V30 7704 H 714.128 1.66822 -7.6144 0
M  V30 7705 N 718.357 1.51182 -0.445186 0
M  V30 7706 C 719.606 2.01342 0.120189 0
M  V30 7707 C 719.919 1.33353 1.43095 0
M  V30 7708 O 721.125 1.74525 2.07974 0
M  V30 7709 C 719.581 3.58925 0.264732 0
M  V30 7710 C 719.189 4.35855 -1.03606 0
M  V30 7711 C 720.933 4.17208 0.783455 0
M  V30 7712 C 718.84 5.85162 -0.856731 0
M  V30 7713 H 717.77 0.752426 0.0486922 0
M  V30 7714 H 720.421 1.74221 -0.576143 0
M  V30 7715 H 718.803 3.82525 1.02425 0
M  V30 7716 H 719.977 4.23997 -1.80452 0
M  V30 7717 H 718.292 3.89062 -1.48391 0
M  V30 7718 H 720.889 5.26475 0.934239 0
M  V30 7719 H 721.232 3.76892 1.768 0
M  V30 7720 H 721.765 3.97715 0.0820346 0
M  V30 7721 H 718.504 6.29904 -1.81388 0
M  V30 7722 H 718.024 5.99663 -0.128206 0
M  V30 7723 H 719.703 6.44963 -0.513027 0
M  V30 7724 N 719.835 0.176821 1.56605 0
M  V30 7725 C 720.765 -0.746841 2.21234 0
M  V30 7726 C 721.746 -1.23502 1.16967 0
M  V30 7727 O 722.931 -1.28718 1.45414 0
M  V30 7728 C 720.061 -1.97407 2.8574 0
M  V30 7729 C 719.015 -1.62153 3.96094 0
M  V30 7730 C 718.341 -2.92387 4.47676 0
M  V30 7731 C 719.641 -0.845353 5.15413 0
M  V30 7732 H 721.335 -0.208116 2.98676 0
M  V30 7733 H 718.881 -0.0986594 1.43662 0
M  V30 7734 H 720.834 -2.62531 3.2963 0
M  V30 7735 H 719.558 -2.53703 2.05676 0
M  V30 7736 H 718.217 -0.993964 3.52868 0
M  V30 7737 H 717.865 -3.46734 3.64396 0
M  V30 7738 H 717.565 -2.69551 5.22127 0
M  V30 7739 H 719.089 -3.5853 4.94255 0
M  V30 7740 H 720.503 -1.39929 5.55961 0
M  V30 7741 H 718.9 -0.715814 5.95815 0
M  V30 7742 H 719.97 0.157239 4.84645 0
M  V30 7743 N 721.313 -1.57302 -0.09688 0
M  V30 7744 C 722.541 -1.90202 -0.814295 0
M  V30 7745 C 722.956 -0.770344 -1.72369 0
M  V30 7746 O 722.313 0.257764 -1.8067 0
M  V30 7747 C 722.364 -3.22708 -1.62916 0
M  V30 7748 O 722.085 -4.31522 -0.756343 0
M  V30 7749 C 723.586 -3.69459 -2.44979 0
M  V30 7750 H 720.806 -0.629275 -0.232925 0
M  V30 7751 H 723.35 -2.04364 -0.0746482 0
M  V30 7752 H 721.505 -3.1015 -2.32133 0
M  V30 7753 H 721.919 -5.07604 -1.32054 0
M  V30 7754 H 723.393 -4.64875 -2.9765 0
M  V30 7755 H 723.87 -2.97211 -3.23361 0
M  V30 7756 H 724.476 -3.84879 -1.80964 0
M  V30 7757 N 722.791 0.367657 -1.53252 0
M  V30 7758 C 724.037 1.11216 -1.69584 0
M  V30 7759 C 724.37 1.89026 -0.445269 0
M  V30 7760 O 723.645 1.86342 0.557404 0
M  V30 7761 C 723.928 2.07308 -2.94441 0
M  V30 7762 C 723.781 1.3312 -4.2965 0
M  V30 7763 C 725.1 3.07459 -3.14892 0
M  V30 7764 H 722.219 0.40294 -0.617096 0
M  V30 7765 H 724.861 0.393201 -1.85887 0
M  V30 7766 H 723.011 2.68617 -2.80673 0
M  V30 7767 H 724.683 0.746111 -4.55226 0
M  V30 7768 H 722.926 0.633051 -4.29156 0
M  V30 7769 H 723.597 2.03443 -5.13142 0
M  V30 7770 H 726.073 2.56252 -3.27832 0
M  V30 7771 H 724.949 3.71919 -4.03693 0
M  V30 7772 H 725.21 3.77514 -2.30077 0
M  V30 7773 N 724.269 1.44576 0.627338 0
M  V30 7774 C 725.202 1.46206 1.75212 0
M  V30 7775 C 726.18 0.320483 1.5941 0
M  V30 7776 O 727.364 0.518028 1.81242 0
M  V30 7777 C 724.491 1.29834 3.12827 0
M  V30 7778 C 723.537 2.47603 3.47268 0
M  V30 7779 S 724.37 4.10125 3.44322 0
M  V30 7780 C 725.526 3.96183 4.84551 0
M  V30 7781 H 725.759 2.41378 1.73563 0
M  V30 7782 H 723.292 1.3192 0.802283 0
M  V30 7783 H 725.25 1.21075 3.92239 0
M  V30 7784 H 723.911 0.361662 3.12011 0
M  V30 7785 H 723.104 2.3202 4.47418 0
M  V30 7786 H 722.706 2.53121 2.75329 0
M  V30 7787 H 724.998 3.60107 5.73872 0
M  V30 7788 H 725.941 4.96176 5.05188 0
M  V30 7789 H 726.349 3.28177 4.59304 0
M  V30 7790 N 725.747 -0.868086 1.31537 0
M  V30 7791 C 726.694 -1.97548 1.19346 0
M  V30 7792 C 727.664 -1.65913 0.0787922 0
M  V30 7793 O 728.849 -1.89129 0.251985 0
M  V30 7794 C 725.989 -3.32922 0.908692 0
M  V30 7795 C 725.102 -3.77141 2.10687 0
M  V30 7796 C 724.237 -5.01241 1.75873 0
M  V30 7797 C 723.276 -5.37914 2.92088 0
M  V30 7798 N 722.413 -6.53192 2.57457 0
M  V30 7799 H 727.253 -2.07307 2.14074 0
M  V30 7800 H 724.79 -1.01483 1.06487 0
M  V30 7801 H 726.748 -4.10867 0.724138 0
M  V30 7802 H 725.378 -3.228 -0.0017611 0
M  V30 7803 H 724.43 -2.94961 2.40213 0
M  V30 7804 H 725.742 -4.00248 2.97663 0
M  V30 7805 H 724.896 -5.86858 1.53891 0
M  V30 7806 H 723.635 -4.80041 0.86091 0
M  V30 7807 H 722.64 -4.50814 3.14717 0
M  V30 7808 H 723.865 -5.61077 3.82582 0
M  V30 7809 H 721.811 -6.33536 1.702 0
M  V30 7810 H 721.728 -6.76252 3.37963 0
M  V30 7811 H 722.996 -7.41997 2.38873 0
M  V30 7812 N 727.225 -1.14528 -1.08264 0
M  V30 7813 C 728.641 -0.885976 -1.3275 0
M  V30 7814 C 728.841 0.472096 -1.95892 0
M  V30 7815 O 727.897 1.21606 -2.21288 0
M  V30 7816 C 729.21 -2.01982 -2.22764 0
M  V30 7817 C 730.758 -2.05329 -2.36239 0
M  V30 7818 C 731.233 -3.1801 -3.29596 0
M  V30 7819 N 732.724 -3.17598 -3.37173 0
M  V30 7820 C 733.459 -4.01426 -4.09444 0
M  V30 7821 N 732.955 -4.95297 -4.8441 0
M  V30 7822 N 734.748 -3.89482 -4.0529 0
M  V30 7823 H 726.899 -2.01996 -0.656607 0
M  V30 7824 H 729.162 -0.880274 -0.351884 0
M  V30 7825 H 728.868 -2.99964 -1.83615 0
M  V30 7826 H 728.742 -1.94421 -3.23234 0
M  V30 7827 H 731.129 -1.07953 -2.74646 0
M  V30 7828 H 731.21 -2.1696 -1.35506 0
M  V30 7829 H 730.854 -4.15633 -2.9191 0
M  V30 7830 H 730.784 -3.03616 -4.30261 0
M  V30 7831 H 733.275 -2.4961 -2.83731 0
M  V30 7832 H 733.588 -5.55723 -5.37021 0
M  V30 7833 H 731.933 -4.99293 -4.83457 0
M  V30 7834 H 735.124 -3.15465 -3.45832 0
M  V30 7835 H 735.297 -4.55039 -4.6135 0
M  V30 7836 N 728.703 1.26451 -0.940633 0
M  V30 7837 C 729.653 2.24086 -0.420669 0
M  V30 7838 C 730.637 1.53501 0.482301 0
M  V30 7839 O 731.829 1.74127 0.317636 0
M  V30 7840 C 728.958 3.41866 0.313452 0
M  V30 7841 C 728.044 4.19737 -0.606779 0
M  V30 7842 N 728.435 4.7521 -1.73232 0
M  V30 7843 C 726.733 4.44091 -0.41226 0
M  V30 7844 C 727.434 5.34052 -2.30572 0
M  V30 7845 N 726.41 5.1971 -1.59381 0
M  V30 7846 H 730.212 2.64569 -1.27986 0
M  V30 7847 H 727.726 1.4153 -0.796436 0
M  V30 7848 H 729.723 4.1093 0.702991 0
M  V30 7849 H 728.383 3.0291 1.16942 0
M  V30 7850 H 729.394 4.72769 -2.11447 0
M  V30 7851 H 726.071 4.1556 0.401984 0
M  V30 7852 H 727.461 5.87845 -3.25404 0
M  V30 7853 N 730.181 0.707592 1.40822 0
M  V30 7854 C 731.091 0.0507246 2.34545 0
M  V30 7855 C 732.107 -0.752727 1.56876 0
M  V30 7856 O 733.283 -0.687524 1.89302 0
M  V30 7857 C 730.348 -0.865731 3.35717 0
M  V30 7858 C 729.409 -0.0531313 4.29267 0
M  V30 7859 C 728.642 -0.925939 5.25606 0
M  V30 7860 O 728.865 -2.16531 5.27703 0
M  V30 7861 O 727.799 -0.369194 6.00767 0
M  V30 7862 H 731.625 0.823587 2.9232 0
M  V30 7863 H 729.21 0.46801 1.4188 0
M  V30 7864 H 731.092 -1.39091 3.97783 0
M  V30 7865 H 729.767 -1.61788 2.80368 0
M  V30 7866 H 728.674 0.516931 3.70511 0
M  V30 7867 H 730.007 0.660617 4.87747 0
M  V30 7868 N 731.66 -1.50943 0.453197 0
M  V30 7869 C 732.888 -2.06628 -0.106135 0
M  V30 7870 C 733.303 -1.31901 -1.35084 0
M  V30 7871 O 732.66 -0.383074 -1.78434 0
M  V30 7872 C 732.711 -3.5914 -0.412368 0
M  V30 7873 O 732.432 -4.31047 0.782948 0
M  V30 7874 C 733.933 -4.31391 -1.02064 0
M  V30 7875 H 731.153 -0.670999 -0.000885896 0
M  V30 7876 H 733.697 -1.94331 0.63684 0
M  V30 7877 H 731.852 -3.71299 -1.10526 0
M  V30 7878 H 732.266 -5.21948 0.516736 0
M  V30 7879 H 733.74 -5.39135 -1.1848 0
M  V30 7880 H 734.217 -3.90714 -2.00598 0
M  V30 7881 H 734.823 -4.23716 -0.366664 0
M  V30 7882 N 733.138 -0.185124 -1.56509 0
M  V30 7883 C 734.363 0.465278 -2.02114 0
M  V30 7884 C 734.788 1.55083 -1.06447 0
M  V30 7885 O 734.146 1.81241 -0.0462852 0
M  V30 7886 C 734.194 1.00784 -3.46229 0
M  V30 7887 O 733.298 2.12123 -3.53663 0
M  V30 7888 H 732.639 0.109891 -0.654843 0
M  V30 7889 H 735.169 -0.293072 -2.0249 0
M  V30 7890 H 735.179 1.32697 -3.85818 0
M  V30 7891 H 733.854 0.213113 -4.15354 0
M  V30 7892 H 732.431 1.8115 -3.25943 0
M  V30 7893 N 734.616 1.57351 0.0885366 0
M  V30 7894 C 735.546 2.05561 1.10757 0
M  V30 7895 C 736.527 0.945789 1.41382 0
M  V30 7896 O 737.712 1.21747 1.51299 0
M  V30 7897 C 734.842 2.48554 2.42566 0
M  V30 7898 C 733.796 3.63259 2.26334 0
M  V30 7899 C 733.122 3.9225 3.63378 0
M  V30 7900 C 734.422 4.93913 1.69844 0
M  V30 7901 H 736.116 2.90946 0.706468 0
M  V30 7902 H 733.662 1.39968 0.338385 0
M  V30 7903 H 735.615 2.8089 3.14132 0
M  V30 7904 H 734.339 1.60176 2.84625 0
M  V30 7905 H 732.998 3.31179 1.57213 0
M  V30 7906 H 732.646 3.0103 4.02976 0
M  V30 7907 H 732.346 4.69478 3.53362 0
M  V30 7908 H 733.87 4.27067 4.36401 0
M  V30 7909 H 735.284 5.24588 2.31258 0
M  V30 7910 H 733.681 5.75349 1.70569 0
M  V30 7911 H 734.751 4.80409 0.65843 0
M  V30 7912 N 736.094 -0.359525 1.53444 0
M  V30 7913 C 737.505 -0.936009 1.61542 0
M  V30 7914 C 737.856 -1.90069 0.486633 0
M  V30 7915 O 736.981 -2.12929 -0.386047 0
M  V30 7916 C 737.576 -1.70441 2.92806 0
M  V30 7917 C 736.135 -2.23015 3.03218 0
M  V30 7918 C 735.282 -1.04438 2.56881 0
M  V30 7919 H 738.233 -0.138134 1.58098 0
M  V30 7920 H 738.254 -2.56609 2.80948 0
M  V30 7921 H 737.766 -1.00205 3.74941 0
M  V30 7922 H 735.867 -2.96475 2.25684 0
M  V30 7923 H 735.98 -2.50481 4.08407 0
M  V30 7924 H 734.344 -1.41314 2.11902 0
M  V30 7925 H 735.127 -0.356905 3.4144 0
M  V30 7926 N 737.572 -1.44907 -0.619662 0
M  V30 7927 C 738.818 -1.48512 -1.38102 0
M  V30 7928 C 739.151 -0.121686 -1.93818 0
M  V30 7929 O 738.426 0.862256 -1.74343 0
M  V30 7930 C 738.709 -2.55469 -2.53787 0
M  V30 7931 C 738.562 -4.01212 -2.03345 0
M  V30 7932 C 739.881 -2.58821 -3.55949 0
M  V30 7933 H 737 -0.540712 -0.500799 0
M  V30 7934 H 739.642 -1.7665 -0.69962 0
M  V30 7935 H 737.792 -2.31606 -3.11915 0
M  V30 7936 H 739.464 -4.36245 -1.49959 0
M  V30 7937 H 737.707 -4.12443 -1.34438 0
M  V30 7938 H 738.378 -4.71717 -2.86683 0
M  V30 7939 H 740.854 -2.80172 -3.07641 0
M  V30 7940 H 739.73 -3.35542 -4.34399 0
M  V30 7941 H 739.991 -1.63451 -4.10775 0
M  V30 7942 N 739.05 0.861098 -1.31996 0
M  V30 7943 C 739.982 1.97551 -1.16216 0
M  V30 7944 C 740.995 1.625 -0.0988527 0
M  V30 7945 O 742.184 1.75091 -0.3472 0
M  V30 7946 C 739.284 3.30376 -0.755307 0
M  V30 7947 C 738.457 3.93711 -1.90552 0
M  V30 7948 C 737.516 5.04862 -1.48328 0
M  V30 7949 O 736.542 5.25204 -2.19431 0
M  V30 7950 N 737.744 5.79283 -0.375656 0
M  V30 7951 H 740.509 2.11632 -2.12208 0
M  V30 7952 H 738.07 1.03559 -1.24448 0
M  V30 7953 H 740.062 4.0213 -0.455364 0
M  V30 7954 H 738.632 3.12395 0.113269 0
M  V30 7955 H 737.852 3.14825 -2.37231 0
M  V30 7956 H 739.14 4.32762 -2.67571 0
M  V30 7957 H 738.538 5.65286 0.216284 0
M  V30 7958 H 737.095 6.5166 -0.135289 0
M  V30 7959 N 740.528 1.15101 1.07655 0
M  V30 7960 C 741.458 0.867864 2.16773 0
M  V30 7961 C 742.439 -0.180283 1.69142 0
M  V30 7962 O 743.624 -0.0353152 1.94168 0
M  V30 7963 C 740.754 0.35299 3.45501 0
M  V30 7964 C 739.708 1.33746 4.06566 0
M  V30 7965 C 739.034 0.681562 5.30338 0
M  V30 7966 C 740.334 2.7024 4.46954 0
M  V30 7967 H 742.028 1.78034 2.40716 0
M  V30 7968 H 739.574 0.857435 1.15689 0
M  V30 7969 H 741.527 0.142465 4.21159 0
M  V30 7970 H 740.251 -0.594945 3.21135 0
M  V30 7971 H 738.91 1.53429 3.32949 0
M  V30 7972 H 738.558 -0.272422 5.02262 0
M  V30 7973 H 738.258 1.33853 5.72151 0
M  V30 7974 H 739.782 0.48074 6.08705 0
M  V30 7975 H 741.196 2.5442 5.13754 0
M  V30 7976 H 739.593 3.32282 4.99709 0
M  V30 7977 H 740.663 3.26537 3.58471 0
M  V30 7978 N 742.006 -1.2595 0.947325 0
M  V30 7979 C 742.916 -2.29883 0.468079 0
M  V30 7980 C 743.932 -1.67783 -0.460975 0
M  V30 7981 O 745.108 -1.98526 -0.339006 0
M  V30 7982 C 742.173 -3.45773 -0.253315 0
M  V30 7983 C 741.234 -4.23337 0.713054 0
M  V30 7984 C 740.467 -5.33694 0.025993 0
M  V30 7985 O 740.69 -5.57853 -1.18978 0
M  V30 7986 O 739.624 -5.97724 0.70782 0
M  V30 7987 H 743.45 -2.72952 1.33156 0
M  V30 7988 H 741.035 -1.31263 0.713468 0
M  V30 7989 H 742.917 -4.16209 -0.659423 0
M  V30 7990 H 741.592 -3.04721 -1.09209 0
M  V30 7991 H 740.499 -3.55359 1.16923 0
M  V30 7992 H 741.832 -4.68154 1.51963 0
M  V30 7993 N 743.484 -0.715051 -1.40445 0
M  V30 7994 C 744.447 -0.0708726 -2.2909 0
M  V30 7995 C 745.447 0.687926 -1.45342 0
M  V30 7996 O 746.637 0.519908 -1.66261 0
M  V30 7997 C 743.769 0.909528 -3.28543 0
M  V30 7998 H 744.962 -0.851611 -2.87555 0
M  V30 7999 H 742.515 -0.479674 -1.48758 0
M  V30 8000 H 743.25 1.71734 -2.75096 0
M  V30 8001 H 743.035 0.368318 -3.90366 0
M  V30 8002 H 744.525 1.35744 -3.94922 0
M  V30 8003 N 744.962 1.50701 -0.461195 0
M  V30 8004 C 745.892 2.31182 0.328184 0
M  V30 8005 C 746.873 1.37644 0.999408 0
M  V30 8006 O 748.058 1.66565 0.99848 0
M  V30 8007 C 745.188 3.17113 1.41621 0
M  V30 8008 C 744.142 4.19124 0.867148 0
M  V30 8009 C 743.468 4.93728 2.05272 0
M  V30 8010 C 744.768 5.22174 -0.114808 0
M  V30 8011 H 746.462 2.97423 -0.343501 0
M  V30 8012 H 744.008 1.43033 -0.166641 0
M  V30 8013 H 745.961 3.72208 1.97584 0
M  V30 8014 H 744.685 2.48739 2.11652 0
M  V30 8015 H 743.344 3.65116 0.329557 0
M  V30 8016 H 742.992 4.21835 2.73978 0
M  V30 8017 H 742.692 5.62724 1.69161 0
M  V30 8018 H 744.216 5.51654 2.61744 0
M  V30 8019 H 745.63 5.72198 0.355316 0
M  V30 8020 H 744.027 5.98833 -0.389689 0
M  V30 8021 H 745.097 4.7353 -1.04391 0
M  V30 8022 N 746.441 0.193421 1.56409 0
M  V30 8023 C 747.857 -0.162447 1.58771 0
M  V30 8024 C 748.057 -1.6116 1.20954 0
M  V30 8025 O 747.113 -2.3469 0.931497 0
M  V30 8026 C 748.426 0.138391 3.00381 0
M  V30 8027 C 749.974 0.0783649 3.12902 0
M  V30 8028 C 750.449 0.352491 4.56642 0
M  V30 8029 N 751.94 0.30105 4.62221 0
M  V30 8030 C 752.675 0.487028 5.71328 0
M  V30 8031 N 752.171 0.733265 6.88909 0
M  V30 8032 N 753.964 0.4214 5.60518 0
M  V30 8033 H 746.115 1.13909 1.79272 0
M  V30 8034 H 748.378 0.454528 0.83193 0
M  V30 8035 H 748.084 1.14312 3.32604 0
M  V30 8036 H 747.958 -0.559804 3.73023 0
M  V30 8037 H 750.345 -0.916963 2.80492 0
M  V30 8038 H 750.426 0.809611 2.4265 0
M  V30 8039 H 750.07 1.34513 4.89764 0
M  V30 8040 H 750 -0.399624 5.25081 0
M  V30 8041 H 752.491 0.117279 3.77718 0
M  V30 8042 H 752.804 0.86403 7.67955 0
M  V30 8043 H 751.149 0.770138 6.9072 0
M  V30 8044 H 754.34 0.229461 4.67537 0
M  V30 8045 H 754.513 0.569758 6.4549 0
M  V30 8046 N 747.919 -1.57396 -0.0801906 0
M  V30 8047 C 748.882 -2.02133 -1.0805 0
M  V30 8048 C 749.882 -0.91707 -1.32085 0
M  V30 8049 O 751.072 -1.18217 -1.27947 0
M  V30 8050 C 748.204 -2.39479 -2.42616 0
M  V30 8051 H 749.397 -2.91733 -0.6951 0
M  V30 8052 H 746.95 -1.52869 -0.325677 0
M  V30 8053 H 747.685 -1.52879 -2.86004 0
M  V30 8054 H 747.47 -3.20052 -2.26515 0
M  V30 8055 H 748.96 -2.74697 -3.14534 0
M  V30 8056 N 749.397 0.351382 -1.53633 0
M  V30 8057 C 750.646 1.08988 -1.69719 0
M  V30 8058 C 750.959 1.90043 -0.462948 0
M  V30 8059 O 752.165 2.66769 -0.504613 0
M  V30 8060 C 750.621 1.98691 -3.00083 0
M  V30 8061 C 750.229 1.22881 -4.30818 0
M  V30 8062 C 751.973 2.72446 -3.25536 0
M  V30 8063 C 749.88 2.11568 -5.52262 0
M  V30 8064 H 748.81 0.410588 -0.632403 0
M  V30 8065 H 751.461 0.349886 -1.80133 0
M  V30 8066 H 749.843 2.76478 -2.83506 0
M  V30 8067 H 751.017 0.500582 -4.58073 0
M  V30 8068 H 749.332 0.60928 -4.11918 0
M  V30 8069 H 751.929 3.39055 -4.13456 0
M  V30 8070 H 752.272 3.38588 -2.42206 0
M  V30 8071 H 752.805 2.01735 -3.42852 0
M  V30 8072 H 749.544 1.4998 -6.38111 0
M  V30 8073 H 749.064 2.82201 -5.29266 0
M  V30 8074 H 750.743 2.70802 -5.87601 0
M  V30 8075 N 750.875 1.45233 0.611969 0
M  V30 8076 C 751.805 1.5641 1.73373 0
M  V30 8077 C 752.786 0.415896 1.64937 0
M  V30 8078 O 753.971 0.638478 1.83404 0
M  V30 8079 C 751.101 1.52627 3.11965 0
M  V30 8080 C 750.055 2.66119 3.35208 0
M  V30 8081 C 749.381 2.4739 4.74028 0
M  V30 8082 C 750.681 4.08157 3.25891 0
M  V30 8083 H 752.375 2.50307 1.64277 0
M  V30 8084 H 749.921 1.20467 0.788904 0
M  V30 8085 H 751.874 1.59043 3.90235 0
M  V30 8086 H 750.598 0.552564 3.21892 0
M  V30 8087 H 749.257 2.59123 2.59327 0
M  V30 8088 H 748.905 1.48168 4.80682 0
M  V30 8089 H 748.605 3.23494 4.90536 0
M  V30 8090 H 750.129 2.55653 5.54503 0
M  V30 8091 H 751.543 4.1642 3.9404 0
M  V30 8092 H 749.94 4.84617 3.5393 0
M  V30 8093 H 751.01 4.30374 2.23397 0
M  V30 8094 N 752.353 -0.854086 1.3245 0
M  V30 8095 C 753.303 -1.9508 1.18016 0
M  V30 8096 C 754.287 -1.60665 0.0869417 0
M  V30 8097 O 755.479 -1.74201 0.313505 0
M  V30 8098 C 752.608 -3.3113 0.905961 0
M  V30 8099 C 751.694 -3.71763 2.04091 0
M  V30 8100 N 752.085 -3.84218 3.28953 0
M  V30 8101 C 750.383 -4.01393 1.94421 0
M  V30 8102 C 751.084 -4.192 4.03294 0
M  V30 8103 N 750.06 -4.30749 3.31596 0
M  V30 8104 H 753.862 -2.02843 2.12678 0
M  V30 8105 H 751.376 -1.04588 1.24238 0
M  V30 8106 H 753.373 -4.09471 0.783508 0
M  V30 8107 H 752.033 -3.24684 -0.0322715 0
M  V30 8108 H 753.044 -3.68524 3.63883 0
M  V30 8109 H 749.721 -4.03246 1.08162 0
M  V30 8110 H 751.111 -4.36301 5.1097 0
M  V30 8111 N 753.831 -1.1567 -1.07043 0
M  V30 8112 C 755.078 -0.933517 -1.79699 0
M  V30 8113 C 755.406 0.539162 -1.86878 0
M  V30 8114 O 754.661 1.41592 -1.35093 0
M  V30 8115 C 754.96 -1.49677 -3.24548 0
M  V30 8116 C 754.626 -2.99047 -3.37463 0
M  V30 8117 C 753.288 -3.39824 -3.40695 0
M  V30 8118 C 755.64 -3.95027 -3.40004 0
M  V30 8119 C 752.968 -4.75215 -3.44075 0
M  V30 8120 C 755.32 -5.30295 -3.44921 0
M  V30 8121 C 753.984 -5.70562 -3.46432 0
M  V30 8122 H 753.254 -0.341598 -0.657565 0
M  V30 8123 H 755.901 -1.44263 -1.25938 0
M  V30 8124 H 754.206 -0.908915 -3.81111 0
M  V30 8125 H 755.903 -1.29986 -3.79348 0
M  V30 8126 H 752.493 -2.6653 -3.35648 0
M  V30 8127 H 756.677 -3.64596 -3.36725 0
M  V30 8128 H 751.933 -5.05754 -3.43545 0
M  V30 8129 H 756.107 -6.0446 -3.45833 0
M  V30 8130 H 753.734 -6.75456 -3.48803 0
M  V30 8131 N 755.309 1.25446 -0.953992 0
M  V30 8132 C 756.558 1.92441 -0.604101 0
M  V30 8133 C 756.871 1.75543 0.862796 0
M  V30 8134 O 758.077 2.37106 1.32262 0
M  V30 8135 C 756.533 3.44854 -1.02974 0
M  V30 8136 C 756.141 3.70464 -2.51914 0
M  V30 8137 C 757.885 4.1778 -0.752352 0
M  V30 8138 C 755.792 5.1638 -2.88281 0
M  V30 8139 H 754.722 0.720508 -0.222227 0
M  V30 8140 H 757.373 1.42318 -1.15836 0
M  V30 8141 H 755.755 3.93935 -0.403904 0
M  V30 8142 H 756.929 3.32038 -3.19511 0
M  V30 8143 H 755.244 3.10797 -2.77117 0
M  V30 8144 H 757.841 5.25261 -1.00024 0
M  V30 8145 H 758.184 4.15135 0.311212 0
M  V30 8146 H 758.717 3.74605 -1.33851 0
M  V30 8147 H 755.456 5.24135 -3.93653 0
M  V30 8148 H 754.976 5.55855 -2.25357 0
M  V30 8149 H 756.655 5.84497 -2.77439 0
M  V30 8150 N 756.787 0.722489 1.40064 0
M  V30 8151 C 758.033 0.265371 2.01056 0
M  V30 8152 C 758.366 -1.14062 1.57174 0
M  V30 8153 O 757.641 -1.77514 0.794916 0
M  V30 8154 C 757.924 0.353157 3.58364 0
M  V30 8155 C 757.777 1.79802 4.123 0
M  V30 8156 C 759.096 -0.271677 4.39261 0
M  V30 8157 H 756.215 0.0979002 0.730469 0
M  V30 8158 H 758.857 0.916289 1.66446 0
M  V30 8159 H 757.007 -0.201037 3.87979 0
M  V30 8160 H 758.679 2.40813 3.93455 0
M  V30 8161 H 756.922 2.32348 3.66329 0
M  V30 8162 H 757.593 1.81079 5.21454 0
M  V30 8163 H 760.069 0.200607 4.15616 0
M  V30 8164 H 758.945 -0.179843 5.48605 0
M  V30 8165 H 759.206 -1.35611 4.20787 0
M  V30 8166 N 758.265 -1.50454 0.469181 0
M  V30 8167 C 759.676 -1.86695 0.0136034 0
M  V30 8168 C 760.027 -1.38413 -1.39055 0
M  V30 8169 O 759.152 -0.748294 -2.03051 0
M  V30 8170 C 759.747 -3.38795 0.0179098 0
M  V30 8171 C 758.306 -3.74455 -0.382191 0
M  V30 8172 C 757.453 -2.74338 0.404207 0
M  V30 8173 H 760.404 -1.43225 0.683547 0
M  V30 8174 H 760.425 -3.72321 -0.78468 0
M  V30 8175 H 759.937 -3.73906 1.04 0
M  V30 8176 H 758.038 -3.44944 -1.4087 0
M  V30 8177 H 758.151 -4.79025 -0.084862 0
M  V30 8178 H 756.515 -2.54305 -0.141829 0
M  V30 8179 H 757.298 -3.12293 1.42577 0
M  V30 8180 N 759.743 -0.201713 -1.56304 0
M  V30 8181 C 760.991 0.434447 -1.97375 0
M  V30 8182 C 761.312 1.61692 -1.08998 0
M  V30 8183 O 760.582 1.95223 -0.162682 0
M  V30 8184 H 759.162 0.163497 -0.728888 0
M  V30 8185 H 761.824 -0.289988 -1.92731 0
M  V30 8186 H 760.92 0.774136 -3.02347 0
M  V30 8187 N 761.222 1.57436 0.0718424 0
M  V30 8188 C 762.155 1.98982 1.11721 0
M  V30 8189 C 763.133 0.866731 1.37574 0
M  V30 8190 O 764.317 1.12903 1.50948 0
M  V30 8191 C 761.444 2.32648 2.46155 0
M  V30 8192 C 760.49 3.54964 2.36437 0
M  V30 8193 S 761.323 5.05802 1.75854 0
M  V30 8194 C 762.479 5.42669 3.11867 0
M  V30 8195 H 762.712 2.87338 0.763154 0
M  V30 8196 H 760.245 1.51833 0.280372 0
M  V30 8197 H 762.203 2.52719 3.23486 0
M  V30 8198 H 760.864 1.44821 2.78722 0
M  V30 8199 H 760.057 3.76038 3.35577 0
M  V30 8200 H 759.659 3.34524 1.67242 0
M  V30 8201 H 761.951 5.40737 4.08178 0
M  V30 8202 H 762.894 6.43461 2.95573 0
M  V30 8203 H 763.302 4.70131 3.1247 0
M  V30 8204 N 762.7 -0.34323 1.53817 0
M  V30 8205 C 764.111 -0.918823 1.62525 0
M  V30 8206 C 764.462 -1.89542 0.506765 0
M  V30 8207 O 763.587 -2.13326 -0.363441 0
M  V30 8208 C 764.182 -1.67326 2.94597 0
M  V30 8209 C 762.741 -2.19786 3.05567 0
M  V30 8210 C 761.888 -1.01708 2.57974 0
M  V30 8211 H 764.839 -0.121358 1.58235 0
M  V30 8212 H 764.86 -2.53615 2.83654 0
M  V30 8213 H 764.372 -0.962223 3.75983 0
M  V30 8214 H 762.473 -2.94065 2.28816 0
M  V30 8215 H 762.586 -2.46135 4.1104 0
M  V30 8216 H 760.95 -1.39058 2.13389 0
M  V30 8217 H 761.733 -0.320671 3.41799 0
M  V30 8218 N 764.178 -1.45556 -0.604258 0
M  V30 8219 C 765.088 -1.57025 -1.74299 0
M  V30 8220 C 766.104 -0.45456 -1.67958 0
M  V30 8221 O 767.28 -0.715711 -1.88254 0
M  V30 8222 C 764.345 -1.53702 -3.10768 0
M  V30 8223 C 763.406 -2.76335 -3.28538 0
M  V30 8224 C 762.639 -2.73161 -4.58496 0
M  V30 8225 O 762.862 -1.80678 -5.41028 0
M  V30 8226 O 761.796 -3.64409 -4.79051 0
M  V30 8227 H 765.622 -2.53284 -1.67573 0
M  V30 8228 H 763.207 -1.28104 -0.768745 0
M  V30 8229 H 765.089 -1.54468 -3.92068 0
M  V30 8230 H 763.764 -0.605957 -3.17978 0
M  V30 8231 H 762.671 -2.8113 -2.46813 0
M  V30 8232 H 764.004 -3.68578 -3.26207 0
M  V30 8233 N 765.656 0.84705 -1.32902 0
M  V30 8234 C 766.566 1.98845 -1.2449 0
M  V30 8235 C 767.582 1.7329 -0.15702 0
M  V30 8236 O 768.758 1.978 -0.379104 0
M  V30 8237 C 765.823 3.32679 -0.975985 0
M  V30 8238 C 764.884 3.71405 -2.15306 0
M  V30 8239 C 764.117 4.98853 -1.89688 0
M  V30 8240 O 764.34 5.64134 -0.843168 0
M  V30 8241 O 763.274 5.34889 -2.76002 0
M  V30 8242 H 767.1 2.0888 -2.2046 0
M  V30 8243 H 764.685 0.978852 -1.12867 0
M  V30 8244 H 766.567 4.12885 -0.842826 0
M  V30 8245 H 765.242 3.23667 -0.0464954 0
M  V30 8246 H 764.149 2.91743 -2.34172 0
M  V30 8247 H 765.482 3.85073 -3.06561 0
M  V30 8248 N 767.134 1.16236 1.06428 0
M  V30 8249 C 768.359 0.967688 1.83441 0
M  V30 8250 C 768.784 -0.479167 1.81894 0
M  V30 8251 O 768.142 -1.34224 1.21875 0
M  V30 8252 C 768.19 1.49806 3.2801 0
M  V30 8253 O 767.294 0.703481 4.06356 0
M  V30 8254 H 766.635 0.344468 0.56766 0
M  V30 8255 H 769.165 1.54442 1.34197 0
M  V30 8256 H 769.175 1.51495 3.78831 0
M  V30 8257 H 767.85 2.55133 3.2845 0
M  V30 8258 H 766.427 0.756986 3.65136 0
M  V30 8259 N 768.612 -1.24939 0.960631 0
M  V30 8260 C 770.028 -1.45039 0.666018 0
M  V30 8261 C 770.228 -1.86021 -0.774501 0
M  V30 8262 O 769.284 -1.99392 -1.54916 0
M  V30 8263 C 770.597 -2.51775 1.64408 0
M  V30 8264 C 772.145 -2.6561 1.65592 0
M  V30 8265 C 772.62 -3.75536 2.62177 0
M  V30 8266 N 774.111 -3.82954 2.60577 0
M  V30 8267 C 774.846 -4.67517 3.31987 0
M  V30 8268 N 774.342 -5.56321 4.1289 0
M  V30 8269 N 776.135 -4.61535 3.20845 0
M  V30 8270 H 768.286 -0.96632 1.89145 0
M  V30 8271 H 770.549 -0.486034 0.813926 0
M  V30 8272 H 770.255 -2.28534 2.67329 0
M  V30 8273 H 770.129 -3.49804 1.41128 0
M  V30 8274 H 772.516 -2.88212 0.633846 0
M  V30 8275 H 772.597 -1.67962 1.92931 0
M  V30 8276 H 772.241 -3.53684 3.64514 0
M  V30 8277 H 772.171 -4.72682 2.32119 0
M  V30 8278 H 774.662 -3.19478 2.01847 0
M  V30 8279 H 774.975 -6.17787 4.64283 0
M  V30 8280 H 773.32 -5.5601 4.16987 0
M  V30 8281 H 776.511 -3.91169 2.57108 0
M  V30 8282 H 776.684 -5.27214 3.76762 0
M  V30 8283 N 770.09 -0.729906 -1.39679 0
M  V30 8284 C 771 -0.0880322 -2.34435 0
M  V30 8285 C 772.016 0.727674 -1.58053 0
M  V30 8286 O 773.192 0.657321 -1.90371 0
M  V30 8287 C 770.257 0.812211 -3.37052 0
M  V30 8288 C 769.318 -0.0151681 -4.29297 0
M  V30 8289 C 768.551 0.842202 -5.27013 0
M  V30 8290 O 768.774 2.08108 -5.31081 0
M  V30 8291 O 767.708 0.27357 -6.01278 0
M  V30 8292 H 771.534 -0.869989 -2.90972 0
M  V30 8293 H 769.119 -0.490522 -1.41118 0
M  V30 8294 H 771.001 1.32745 -3.99946 0
M  V30 8295 H 769.676 1.57307 -2.82907 0
M  V30 8296 H 768.583 -0.575811 -3.69642 0
M  V30 8297 H 769.916 -0.738129 -4.86634 0
M  V30 8298 N 771.568 1.50203 -0.477153 0
M  V30 8299 C 772.845 1.95115 0.137609 0
M  V30 8300 C 773.225 1.41778 1.56404 0
M  V30 8301 O 772.573 0.621333 2.1989 0
M  V30 8302 C 772.783 3.4892 0.0747168 0
M  V30 8303 C 774.131 4.238 0.260585 0
M  V30 8304 O 775.155 3.5588 0.151021 0
M  V30 8305 O 774.014 5.44366 0.482534 0
M  V30 8306 H 771.108 0.81987 0.108364 0
M  V30 8307 H 773.654 1.60946 -0.537989 0
M  V30 8308 H 772.426 3.80308 -0.920966 0
M  V30 8309 H 772.049 3.89642 0.791509 0
M  V30 8310 N 773.046 0.209999 1.56195 0
M  V30 8311 C 774.274 -0.429996 2.02382 0
M  V30 8312 C 774.689 -1.54159 1.08998 0
M  V30 8313 O 774.046 -1.82239 0.0974856 0
M  V30 8314 C 774.097 -0.972433 3.48175 0
M  V30 8315 O 773.818 0.0948231 4.37997 0
M  V30 8316 C 775.319 -1.68683 4.09952 0
M  V30 8317 H 772.539 -0.106475 0.662498 0
M  V30 8318 H 775.083 0.323072 2.01932 0
M  V30 8319 H 773.238 -1.67582 3.49278 0
M  V30 8320 H 773.652 -0.31113 5.23576 0
M  V30 8321 H 775.126 -2.01851 5.13771 0
M  V30 8322 H 775.603 -2.59587 3.54276 0
M  V30 8323 H 776.209 -1.02893 4.12666 0
M  V30 8324 N 774.524 -1.57472 -0.0634922 0
M  V30 8325 C 775.434 -2.07621 -1.09227 0
M  V30 8326 C 776.45 -1.00746 -1.41867 0
M  V30 8327 O 777.626 -1.32269 -1.51878 0
M  V30 8328 C 774.691 -2.51707 -2.38421 0
M  V30 8329 C 773.752 -3.72917 -2.12676 0
M  V30 8330 C 772.985 -4.14891 -3.3571 0
M  V30 8331 O 773.208 -3.56663 -4.45137 0
M  V30 8332 O 772.142 -5.07616 -3.23434 0
M  V30 8333 H 775.968 -2.95612 -0.696205 0
M  V30 8334 H 773.553 -1.46787 -0.27819 0
M  V30 8335 H 775.435 -2.80547 -3.14438 0
M  V30 8336 H 774.11 -1.66842 -2.77391 0
M  V30 8337 H 773.017 -3.49148 -1.34337 0
M  V30 8338 H 774.35 -4.5866 -1.78583 0
M  V30 8339 N 776.003 0.335068 -1.53997 0
M  V30 8340 C 777.25 1.07435 -1.71651 0
M  V30 8341 C 777.578 1.88378 -0.48413 0
M  V30 8342 O 776.833 1.8827 0.534139 0
M  V30 8343 C 777.132 2.0364 -2.9371 0
M  V30 8344 C 776.798 1.38942 -4.28959 0
M  V30 8345 C 775.46 1.21027 -4.65732 0
M  V30 8346 C 777.812 0.924083 -5.12943 0
M  V30 8347 C 775.14 0.552097 -5.84097 0
M  V30 8348 C 777.492 0.27978 -6.31981 0
M  V30 8349 C 776.156 0.0883843 -6.67441 0
M  V30 8350 H 775.426 0.393133 -0.628114 0
M  V30 8351 H 778.073 0.352712 -1.88224 0
M  V30 8352 H 776.378 2.82215 -2.71775 0
M  V30 8353 H 778.075 2.6085 -3.04562 0
M  V30 8354 H 774.665 1.53885 -4.00022 0
M  V30 8355 H 778.849 1.05032 -4.85059 0
M  V30 8356 H 774.105 0.392502 -6.10139 0
M  V30 8357 H 778.279 -0.0888479 -6.96343 0
M  V30 8358 H 775.906 -0.423657 -7.59019 0
M  V30 8359 N 777.481 1.45874 0.596531 0
M  V30 8360 C 778.431 1.5181 1.70111 0
M  V30 8361 C 779.415 0.380293 1.56341 0
M  V30 8362 O 780.607 0.627849 1.6549 0
M  V30 8363 C 777.736 1.49822 3.08883 0
M  V30 8364 C 776.822 2.68845 3.27998 0
M  V30 8365 N 777.213 3.93873 3.17329 0
M  V30 8366 C 775.511 2.64777 3.589 0
M  V30 8367 C 776.212 4.73371 3.38076 0
M  V30 8368 N 775.188 4.0501 3.62585 0
M  V30 8369 H 778.99 2.46289 1.60372 0
M  V30 8370 H 776.504 1.41321 0.800138 0
M  V30 8371 H 778.501 1.5216 3.8814 0
M  V30 8372 H 777.161 0.564086 3.19763 0
M  V30 8373 H 778.172 4.25329 2.95492 0
M  V30 8374 H 774.849 1.80323 3.7655 0
M  V30 8375 H 776.239 5.82357 3.35127 0
M  V30 8376 N 778.959 -0.83999 1.33349 0
M  V30 8377 C 779.909 -1.93817 1.20079 0
M  V30 8378 C 780.893 -1.60564 0.103978 0
M  V30 8379 O 782.085 -1.73859 0.331964 0
M  V30 8380 C 779.214 -3.30151 0.941031 0
M  V30 8381 C 778.3 -3.69577 2.08023 0
M  V30 8382 N 778.691 -3.80707 3.3301 0
M  V30 8383 C 776.989 -3.99309 1.98667 0
M  V30 8384 C 777.69 -4.14899 4.07717 0
M  V30 8385 N 776.666 -4.27208 3.36146 0
M  V30 8386 H 780.468 -2.00576 2.14817 0
M  V30 8387 H 777.982 -1.03264 1.2534 0
M  V30 8388 H 779.979 -4.08617 0.826894 0
M  V30 8389 H 778.639 -3.247 0.00216738 0
M  V30 8390 H 779.65 -3.64644 3.67771 0
M  V30 8391 H 776.327 -4.02076 1.12433 0
M  V30 8392 H 777.717 -4.30857 5.15569 0
M  V30 8393 N 780.437 -1.16799 -1.0581 0
M  V30 8394 C 781.384 -0.87902 -2.13405 0
M  V30 8395 C 782.354 0.174541 -1.6518 0
M  V30 8396 O 783.539 0.0386843 -1.90761 0
M  V30 8397 C 780.679 -0.391616 -3.42871 0
M  V30 8398 C 779.792 -1.50857 -4.04804 0
M  V30 8399 C 778.927 -0.975682 -5.22163 0
M  V30 8400 C 777.966 -2.06851 -5.76089 0
M  V30 8401 N 777.103 -1.55085 -6.84758 0
M  V30 8402 H 781.943 -1.80043 -2.37463 0
M  V30 8403 H 779.48 -0.898083 -1.16503 0
M  V30 8404 H 781.438 -0.0906247 -4.17102 0
M  V30 8405 H 780.068 0.49284 -3.19016 0
M  V30 8406 H 779.12 -1.92542 -3.28073 0
M  V30 8407 H 780.432 -2.33305 -4.40874 0
M  V30 8408 H 779.586 -0.628165 -6.03439 0
M  V30 8409 H 778.325 -0.120566 -4.87551 0
M  V30 8410 H 777.33 -2.42467 -4.93447 0
M  V30 8411 H 778.555 -2.92768 -6.12751 0
M  V30 8412 H 776.501 -0.718345 -6.52055 0
M  V30 8413 H 776.418 -2.31145 -7.19797 0
M  V30 8414 H 777.686 -1.23206 -7.69702 0
M  V30 8415 N 781.915 1.24427 -0.967243 0
M  V30 8416 C 782.845 2.2773 -0.515899 0
M  V30 8417 C 783.826 1.64197 0.444227 0
M  V30 8418 O 785.011 1.91193 0.340451 0
M  V30 8419 C 782.141 3.46751 0.195149 0
M  V30 8420 C 781.095 4.22548 -0.680953 0
M  V30 8421 C 780.421 5.34456 0.161561 0
M  V30 8422 C 781.721 4.83914 -1.96532 0
M  V30 8423 H 783.415 2.65735 -1.37933 0
M  V30 8424 H 780.961 1.27742 -0.664681 0
M  V30 8425 H 782.914 4.18153 0.522117 0
M  V30 8426 H 781.638 3.07771 1.09292 0
M  V30 8427 H 780.297 3.52946 -0.991186 0
M  V30 8428 H 779.945 4.91716 1.05947 0
M  V30 8429 H 779.645 5.86087 -0.421418 0
M  V30 8430 H 781.169 6.08685 0.483211 0
M  V30 8431 H 782.583 5.47392 -1.70396 0
M  V30 8432 H 780.98 5.45775 -2.49499 0
M  V30 8433 H 782.05 4.05393 -2.66053 0
M  V30 8434 N 783.393 0.737304 1.3929 0
M  V30 8435 C 784.341 0.0879867 2.32434 0
M  V30 8436 C 785.335 -0.723324 1.53181 0
M  V30 8437 O 786.541 -0.624251 1.68829 0
M  V30 8438 H 782.916 0.00965277 0.751938 0
M  V30 8439 H 784.887 0.889915 2.84821 0
M  V30 8440 C 783.636 -0.803384 3.38291 0
M  V30 8441 H 782.959 -0.18849 3.99355 0
M  V30 8442 H 784.399 -1.22528 4.0591 0
M  V30 8443 C 782.858 -1.93872 2.75527 0
M  V30 8444 O 783.388 -3.03154 2.63553 0
M  V30 8445 N 781.594 -1.72883 2.3358 0
M  V30 8446 H 781.141 -0.840005 2.43519 0
M  V30 8447 H 781.099 -2.49021 1.91927 0
M  V30 8448 N 784.871 -1.49948 0.485112 0
M  V30 8449 C 785.804 -2.25531 -0.348027 0
M  V30 8450 C 786.782 -1.29433 -0.984172 0
M  V30 8451 O 787.966 -1.58687 -1.01738 0
M  V30 8452 C 785.093 -3.04225 -1.48878 0
M  V30 8453 C 784.139 -4.15355 -0.968616 0
M  V30 8454 S 784.972 -5.35347 0.127934 0
M  V30 8455 C 786.128 -6.17593 -1.01637 0
M  V30 8456 H 786.361 -2.95847 0.293529 0
M  V30 8457 H 783.894 -1.52018 0.27018 0
M  V30 8458 H 785.852 -3.50153 -2.14251 0
M  V30 8459 H 784.513 -2.33407 -2.1019 0
M  V30 8460 H 783.706 -4.69873 -1.82305 0
M  V30 8461 H 783.308 -3.71936 -0.392377 0
M  V30 8462 H 785.6 -6.49576 -1.92503 0
M  V30 8463 H 786.543 -7.0626 -0.510149 0
M  V30 8464 H 786.951 -5.49877 -1.27653 0
M  V30 8465 N 786.349 -0.21828 -1.56081 0
M  V30 8466 C 787.595 0.414921 -1.9851 0
M  V30 8467 C 787.928 1.59648 -1.10573 0
M  V30 8468 O 787.203 1.93818 -0.162695 0
M  V30 8469 C 787.486 0.852647 -3.4986 0
M  V30 8470 C 787.339 -0.33232 -4.48571 0
M  V30 8471 C 788.658 1.70998 -4.05521 0
M  V30 8472 H 785.777 0.149344 -0.72171 0
M  V30 8473 H 788.419 -0.313858 -1.8739 0
M  V30 8474 H 786.569 1.47362 -3.59467 0
M  V30 8475 H 788.241 -0.970418 -4.50977 0
M  V30 8476 H 786.484 -0.980302 -4.22578 0
M  V30 8477 H 787.155 0.0168407 -5.51997 0
M  V30 8478 H 789.631 1.18606 -3.98838 0
M  V30 8479 H 788.507 1.98517 -5.11744 0
M  V30 8480 H 788.768 2.67219 -3.52202 0
M  V30 8481 N 787.827 1.57504 0.0551401 0
M  V30 8482 C 788.774 2.04825 1.06373 0
M  V30 8483 C 789.744 0.932108 1.37481 0
M  V30 8484 O 790.929 1.20093 1.48265 0
M  V30 8485 C 788.069 2.51091 2.36743 0
M  V30 8486 C 787.182 3.76392 2.12021 0
M  V30 8487 C 786.317 4.11373 3.36074 0
M  V30 8488 C 785.356 5.29666 3.0679 0
M  V30 8489 N 784.493 5.60205 4.2322 0
M  V30 8490 H 789.333 2.90753 0.653216 0
M  V30 8491 H 786.87 1.43776 0.310951 0
M  V30 8492 H 788.828 2.75973 3.12881 0
M  V30 8493 H 787.458 1.68118 2.75565 0
M  V30 8494 H 786.51 3.58751 1.26498 0
M  V30 8495 H 787.822 4.62662 1.86401 0
M  V30 8496 H 786.976 4.37245 4.20597 0
M  V30 8497 H 785.715 3.23704 3.64784 0
M  V30 8498 H 784.72 5.03574 2.20664 0
M  V30 8499 H 785.945 6.18968 2.79385 0
M  V30 8500 H 783.891 4.75495 4.5193 0
M  V30 8501 H 783.808 6.40928 4.00933 0
M  V30 8502 H 785.076 5.90637 5.08692 0
M  V30 8503 N 789.305 -0.326896 1.54172 0
M  V30 8504 C 790.252 -1.40216 1.83325 0
M  V30 8505 C 791.222 -1.51538 0.680107 0
M  V30 8506 O 792.407 -1.66811 0.926206 0
M  V30 8507 C 789.547 -2.76626 2.0633 0
M  V30 8508 C 788.66 -2.73963 3.34019 0
M  V30 8509 C 787.795 -4.02198 3.47002 0
M  V30 8510 C 786.834 -3.93828 4.68578 0
M  V30 8511 N 785.971 -5.13787 4.78506 0
M  V30 8512 H 790.811 -1.14656 2.7506 0
M  V30 8513 H 788.348 -0.555089 1.36225 0
M  V30 8514 H 790.306 -3.55922 2.17659 0
M  V30 8515 H 788.936 -3.00503 1.1789 0
M  V30 8516 H 787.988 -1.86677 3.31445 0
M  V30 8517 H 789.3 -2.6366 4.2342 0
M  V30 8518 H 788.454 -4.89923 3.57855 0
M  V30 8519 H 787.193 -4.15302 2.55687 0
M  V30 8520 H 786.198 -3.04487 4.57786 0
M  V30 8521 H 787.423 -3.82292 5.61275 0
M  V30 8522 H 785.369 -5.27403 3.90105 0
M  V30 8523 H 785.286 -5.05807 5.61868 0
M  V30 8524 H 786.554 -6.03236 4.93686 0
M  V30 8525 N 790.784 -1.46188 -0.588786 0
M  V30 8526 C 791.716 -1.52319 -1.71265 0
M  V30 8527 C 792.729 -0.412096 -1.57498 0
M  V30 8528 O 793.918 -0.680146 -1.65034 0
M  V30 8529 C 791.018 -1.38164 -3.09458 0
M  V30 8530 C 790.191 -2.63284 -3.49286 0
M  V30 8531 C 789.25 -2.43415 -4.66514 0
M  V30 8532 O 788.276 -3.17113 -4.72682 0
M  V30 8533 N 789.478 -1.49187 -5.61002 0
M  V30 8534 H 792.243 -2.49219 -1.66463 0
M  V30 8535 H 789.804 -1.42167 -0.774601 0
M  V30 8536 H 791.796 -1.22653 -3.85666 0
M  V30 8537 H 790.366 -0.494678 -3.08661 0
M  V30 8538 H 789.586 -2.93779 -2.62845 0
M  V30 8539 H 790.874 -3.46413 -3.7266 0
M  V30 8540 H 790.272 -0.884027 -5.5875 0
M  V30 8541 H 788.829 -1.39642 -6.36666 0
M  V30 8542 N 792.262 0.832906 -1.33792 0
M  V30 8543 C 793.502 1.60217 -1.26925 0
M  V30 8544 C 793.866 1.91323 0.161146 0
M  V30 8545 O 795.067 2.66461 0.353864 0
M  V30 8546 C 793.338 2.87314 -2.12568 0
M  V30 8547 S 794.897 3.77939 -2.22952 0
M  V30 8548 H 791.715 0.549273 -0.451464 0
M  V30 8549 H 794.317 0.984648 -1.68893 0
M  V30 8550 H 793.021 2.62444 -3.15518 0
M  V30 8551 H 792.552 3.5407 -1.71459 0
M  V30 8552 H 794.567 4.76188 -1.39496 0
M  V30 8553 N 793.74 1.17359 1.05189 0
M  V30 8554 C 794.987 0.961987 1.78191 0
M  V30 8555 C 795.315 -0.509363 1.87712 0
M  V30 8556 O 794.57 -1.39425 1.37329 0
M  V30 8557 C 794.869 1.54821 3.22126 0
M  V30 8558 C 794.535 3.04378 3.32663 0
M  V30 8559 C 793.197 3.45201 3.35246 0
M  V30 8560 C 795.549 4.00387 3.33677 0
M  V30 8561 C 792.877 4.80629 3.36471 0
M  V30 8562 C 795.229 5.35715 3.36441 0
M  V30 8563 C 793.893 5.76002 3.37311 0
M  V30 8564 H 793.163 0.352016 0.652047 0
M  V30 8565 H 795.81 1.46249 1.23627 0
M  V30 8566 H 794.115 0.969432 3.79617 0
M  V30 8567 H 795.812 1.36004 3.77232 0
M  V30 8568 H 792.402 2.71836 3.31366 0
M  V30 8569 H 796.586 3.69906 3.30882 0
M  V30 8570 H 791.842 5.11155 3.35455 0
M  V30 8571 H 796.016 6.09886 3.36173 0
M  V30 8572 H 793.643 6.80919 3.38013 0
M  V30 8573 N 795.218 -1.23913 0.973828 0
M  V30 8574 C 796.165 -2.25132 0.508366 0
M  V30 8575 C 797.135 -1.59908 -0.449307 0
M  V30 8576 O 798.32 -1.87405 -0.358313 0
M  V30 8577 C 795.46 -3.4458 -0.189422 0
M  V30 8578 C 794.573 -4.24381 0.807738 0
M  V30 8579 C 793.708 -5.31131 0.0854315 0
M  V30 8580 C 792.747 -6.02635 1.07225 0
M  V30 8581 N 791.884 -7.01073 0.379535 0
M  V30 8582 H 796.724 -2.64313 1.37632 0
M  V30 8583 H 794.261 -1.29924 0.689802 0
M  V30 8584 H 796.219 -4.12706 -0.610733 0
M  V30 8585 H 794.849 -3.06218 -1.02129 0
M  V30 8586 H 793.901 -3.55735 1.34747 0
M  V30 8587 H 795.213 -4.73778 1.55998 0
M  V30 8588 H 794.367 -6.05422 -0.393572 0
M  V30 8589 H 793.106 -4.82658 -0.699461 0
M  V30 8590 H 792.111 -5.27143 1.56207 0
M  V30 8591 H 793.336 -6.53197 1.85769 0
M  V30 8592 H 791.282 -6.54862 -0.386269 0
M  V30 8593 H 791.199 -7.48382 1.07054 0
M  V30 8594 H 792.467 -7.79462 -0.0772984 0
M  V30 8595 N 796.696 -0.74468 -1.38897 0
M  V30 8596 C 797.644 -0.100312 -2.32384 0
M  V30 8597 C 798.638 0.715191 -1.53562 0
M  V30 8598 O 799.844 0.615288 -1.69157 0
M  V30 8599 H 796.219 -0.0136403 -0.751876 0
M  V30 8600 H 798.19 -0.905007 -2.84345 0
M  V30 8601 C 796.939 0.785432 -3.38713 0
M  V30 8602 H 796.262 0.167308 -3.9945 0
M  V30 8603 H 797.702 1.20374 -4.06554 0
M  V30 8604 C 796.161 1.92408 -2.76552 0
M  V30 8605 O 796.691 3.01752 -2.65157 0
M  V30 8606 N 794.897 1.71642 -2.34494 0
M  V30 8607 H 794.444 0.827079 -2.43961 0
M  V30 8608 H 794.402 2.48 -1.93244 0
M  V30 8609 N 798.174 1.49689 -0.493057 0
M  V30 8610 C 799.451 1.9525 0.116907 0
M  V30 8611 C 799.831 1.43429 1.54892 0
M  V30 8612 O 799.179 0.644621 2.19219 0
M  V30 8613 C 799.389 3.4898 0.037705 0
M  V30 8614 C 800.737 4.24052 0.215621 0
M  V30 8615 O 801.761 3.5602 0.113266 0
M  V30 8616 O 800.62 5.44847 0.42477 0
M  V30 8617 H 797.714 0.820973 0.099662 0
M  V30 8618 H 800.26 1.60367 -0.555029 0
M  V30 8619 H 799.032 3.79309 -0.961251 0
M  V30 8620 H 798.655 3.9046 0.750137 0
M  V30 8621 N 799.652 0.226554 1.55963 0
M  V30 8622 C 800.901 -0.40417 1.97609 0
M  V30 8623 C 801.214 -1.60541 1.1174 0
M  V30 8624 O 802.42 -2.30598 1.43307 0
M  V30 8625 C 800.876 -0.770466 3.51556 0
M  V30 8626 C 800.484 0.408244 4.46136 0
M  V30 8627 C 802.228 -1.36651 4.01904 0
M  V30 8628 C 800.135 0.0192347 5.91397 0
M  V30 8629 H 799.065 -0.15478 0.737943 0
M  V30 8630 H 801.716 0.323558 1.80625 0
M  V30 8631 H 800.098 -1.55575 3.6416 0
M  V30 8632 H 801.272 1.18575 4.45283 0
M  V30 8633 H 799.587 0.917859 4.06158 0
M  V30 8634 H 802.184 -1.67055 5.07934 0
M  V30 8635 H 802.527 -2.28403 3.48049 0
M  V30 8636 H 803.06 -0.644556 3.92543 0
M  V30 8637 H 799.799 0.90336 6.49245 0
M  V30 8638 H 799.319 -0.722485 5.95433 0
M  V30 8639 H 800.998 -0.405711 6.45727 0
M  V30 8640 N 801.13 -1.57531 -0.0467866 0
M  V30 8641 C 802.08 -2.01845 -1.06031 0
M  V30 8642 C 803.064 -0.904662 -1.33059 0
M  V30 8643 O 804.256 -1.16858 -1.32941 0
M  V30 8644 C 801.385 -2.48673 -2.36679 0
M  V30 8645 C 800.471 -3.66837 -2.12818 0
M  V30 8646 N 800.862 -4.80172 -1.5896 0
M  V30 8647 C 799.16 -3.73869 -2.43183 0
M  V30 8648 C 799.861 -5.61895 -1.50494 0
M  V30 8649 N 798.837 -5.0648 -1.97431 0
M  V30 8650 H 802.639 -2.869 -0.637623 0
M  V30 8651 H 800.153 -1.6041 -0.253427 0
M  V30 8652 H 802.15 -2.78671 -3.10077 0
M  V30 8653 H 800.81 -1.65016 -2.79642 0
M  V30 8654 H 801.821 -5.01967 -1.27474 0
M  V30 8655 H 798.498 -3.00977 -2.89342 0
M  V30 8656 H 799.888 -6.62918 -1.09494 0
M  V30 8657 N 802.608 0.318715 -1.54344 0
M  V30 8658 C 803.555 1.39242 -1.84066 0
M  V30 8659 C 804.525 1.51175 -0.688134 0
M  V30 8660 O 805.71 1.66318 -0.935039 0
M  V30 8661 C 802.85 2.75528 -2.07794 0
M  V30 8662 C 801.963 2.72187 -3.35467 0
M  V30 8663 C 801.098 4.00352 -3.4913 0
M  V30 8664 C 800.137 3.91338 -4.7066 0
M  V30 8665 N 799.274 5.11242 -4.81224 0
M  V30 8666 H 804.114 1.13196 -2.75664 0
M  V30 8667 H 801.651 0.547857 -1.36517 0
M  V30 8668 H 803.609 3.54763 -2.19543 0
M  V30 8669 H 802.239 2.99873 -1.19482 0
M  V30 8670 H 801.291 1.84917 -3.3243 0
M  V30 8671 H 802.603 2.61411 -4.24812 0
M  V30 8672 H 801.757 4.88019 -3.60448 0
M  V30 8673 H 800.496 4.1394 -2.57886 0
M  V30 8674 H 799.501 3.02055 -4.59394 0
M  V30 8675 H 800.726 3.7931 -5.63294 0
M  V30 8676 H 798.672 5.25327 -3.92897 0
M  V30 8677 H 798.589 5.0282 -5.64543 0
M  V30 8678 H 799.857 6.0061 -4.96879 0
M  V30 8679 N 804.086 1.46499 0.581025 0
M  V30 8680 C 805.016 1.60052 1.70017 0
M  V30 8681 C 805.997 0.450788 1.64018 0
M  V30 8682 O 807.182 0.677237 1.82009 0
M  V30 8683 C 804.312 1.5921 3.08658 0
M  V30 8684 C 803.266 2.73169 3.29488 0
M  V30 8685 C 802.592 2.57389 4.68674 0
M  V30 8686 C 803.892 4.14978 3.1716 0
M  V30 8687 H 805.586 2.53735 1.5893 0
M  V30 8688 H 803.132 1.22113 0.763173 0
M  V30 8689 H 805.085 1.67285 3.86773 0
M  V30 8690 H 803.809 0.620718 3.20647 0
M  V30 8691 H 802.468 2.64566 2.53773 0
M  V30 8692 H 802.116 1.58331 4.77431 0
M  V30 8693 H 801.816 3.33826 4.83564 0
M  V30 8694 H 803.34 2.67358 5.48956 0
M  V30 8695 H 804.754 4.24684 3.85119 0
M  V30 8696 H 803.151 4.92016 3.4357 0
M  V30 8697 H 804.221 4.35016 2.14218 0
M  V30 8698 N 805.565 -0.825799 1.34232 0
M  V30 8699 C 806.811 -1.58419 1.26614 0
M  V30 8700 C 807.144 -1.93503 -0.164341 0
M  V30 8701 O 806.419 -1.59785 -1.109 0
M  V30 8702 C 806.702 -2.8856 2.15418 0
M  V30 8703 C 806.555 -2.60075 3.66989 0
M  V30 8704 C 807.874 -3.90107 2.03726 0
M  V30 8705 H 804.993 -0.574794 0.461282 0
M  V30 8706 H 807.635 -0.951519 1.64457 0
M  V30 8707 H 805.785 -3.42553 1.83275 0
M  V30 8708 H 807.457 -2.12414 4.09485 0
M  V30 8709 H 805.7 -1.93565 3.88221 0
M  V30 8710 H 806.371 -3.52866 4.24488 0
M  V30 8711 H 808.847 -3.45459 2.31942 0
M  V30 8712 H 807.723 -4.78976 2.68092 0
M  V30 8713 H 807.984 -4.30329 1.01337 0
M  V30 8714 N 807.043 -1.17915 -1.04565 0
M  V30 8715 C 807.973 -0.925033 -2.14395 0
M  V30 8716 C 808.954 0.135375 -1.6956 0
M  V30 8717 O 810.139 -0.0161774 -1.94193 0
M  V30 8718 C 807.269 -0.444469 -3.44444 0
M  V30 8719 C 806.223 -1.44478 -4.02877 0
M  V30 8720 C 805.549 -0.821933 -5.28345 0
M  V30 8721 C 806.849 -2.81995 -4.39632 0
M  V30 8722 H 808.543 -1.84354 -2.35911 0
M  V30 8723 H 806.089 -0.887806 -1.13375 0
M  V30 8724 H 808.042 -0.254078 -4.20633 0
M  V30 8725 H 806.766 0.509592 -3.226 0
M  V30 8726 H 805.425 -1.62203 -3.28764 0
M  V30 8727 H 805.073 0.139161 -5.02807 0
M  V30 8728 H 804.773 -1.48976 -5.68401 0
M  V30 8729 H 806.297 -0.641959 -6.07216 0
M  V30 8730 H 807.711 -2.67952 -5.06828 0
M  V30 8731 H 806.108 -3.45414 -4.90723 0
M  V30 8732 H 807.178 -3.35927 -3.49687 0
M  V30 8733 N 808.521 1.23394 -0.980386 0
M  V30 8734 C 809.484 2.23092 -0.525619 0
M  V30 8735 C 810.484 1.56129 0.384745 0
M  V30 8736 O 811.674 1.73284 0.178439 0
M  V30 8737 C 808.806 3.40074 0.23712 0
M  V30 8738 H 809.999 2.64839 -1.40714 0
M  V30 8739 H 807.552 1.36227 -0.766275 0
M  V30 8740 H 808.287 3.03783 1.13518 0
M  V30 8741 H 808.072 3.89883 -0.416356 0
M  V30 8742 H 809.562 4.14043 0.543892 0
M  V30 8743 N 809.999 0.752036 1.385 0
M  V30 8744 C 810.962 0.131587 2.28822 0
M  V30 8745 C 811.962 -0.649149 1.47115 0
M  V30 8746 O 813.152 -0.475645 1.67581 0
M  V30 8747 C 810.284 -0.822101 3.30839 0
M  V30 8748 H 811.477 0.927551 2.85196 0
M  V30 8749 H 809.03 0.518945 1.47434 0
M  V30 8750 H 809.765 -1.6438 2.79553 0
M  V30 8751 H 809.55 -0.264689 3.91206 0
M  V30 8752 H 811.04 -1.25226 3.98382 0
M  V30 8753 N 811.477 -1.49425 0.500989 0
M  V30 8754 C 812.407 -2.31971 -0.266775 0
M  V30 8755 C 813.388 -1.40245 -0.962563 0
M  V30 8756 O 814.573 -1.69154 -0.953968 0
M  V30 8757 C 811.703 -3.20757 -1.33163 0
M  V30 8758 C 810.657 -4.21275 -0.75572 0
M  V30 8759 C 809.983 -4.98997 -1.92109 0
M  V30 8760 C 811.283 -5.21686 0.253213 0
M  V30 8761 H 812.977 -2.96408 0.422237 0
M  V30 8762 H 810.523 -1.4254 0.204505 0
M  V30 8763 H 812.476 -3.77315 -1.87646 0
M  V30 8764 H 811.2 -2.54263 -2.04983 0
M  V30 8765 H 809.859 -3.65861 -0.232637 0
M  V30 8766 H 809.507 -4.28951 -2.62698 0
M  V30 8767 H 809.207 -5.67011 -1.54182 0
M  V30 8768 H 810.731 -5.584 -2.47026 0
M  V30 8769 H 812.145 -5.72939 -0.203483 0
M  V30 8770 H 810.542 -5.9759 0.548322 0
M  V30 8771 H 811.612 -4.70596 1.16909 0
M  V30 8772 N 812.955 -0.234822 -1.55841 0
M  V30 8773 C 813.903 0.686145 -2.22249 0
M  V30 8774 C 814.897 1.18948 -1.20614 0
M  V30 8775 O 816.103 1.14777 -1.38659 0
M  V30 8776 H 812.478 0.239724 -0.712767 0
M  V30 8777 H 814.449 0.102762 -2.98223 0
M  V30 8778 C 813.198 1.8776 -2.92646 0
M  V30 8779 H 812.521 1.49943 -3.70617 0
M  V30 8780 H 813.961 2.4995 -3.42493 0
M  V30 8781 C 812.42 2.74127 -1.95847 0
M  V30 8782 O 812.95 3.7329 -1.48384 0
M  V30 8783 N 811.156 2.4044 -1.63209 0
M  V30 8784 H 810.703 1.59854 -2.02001 0
M  V30 8785 H 810.661 2.98504 -0.987063 0
M  V30 8786 N 814.433 1.57553 0.0384317 0
M  V30 8787 C 815.849 1.54663 0.39391 0
M  V30 8788 C 816.049 0.959685 1.77179 0
M  V30 8789 O 815.105 0.576647 2.45827 0
M  V30 8790 C 816.418 2.99156 0.304352 0
M  V30 8791 C 817.966 3.10659 0.382119 0
M  V30 8792 C 818.441 4.56866 0.322111 0
M  V30 8793 N 819.932 4.61629 0.38119 0
M  V30 8794 C 820.667 5.72284 0.357501 0
M  V30 8795 N 820.163 6.92207 0.286654 0
M  V30 8796 N 821.956 5.60628 0.406538 0
M  V30 8797 H 814.107 1.9406 -0.86339 0
M  V30 8798 H 816.37 0.889673 -0.327392 0
M  V30 8799 H 816.076 3.45788 -0.642141 0
M  V30 8800 H 815.95 3.60753 1.10168 0
M  V30 8801 H 818.337 2.6398 1.31904 0
M  V30 8802 H 818.418 2.5191 -0.444391 0
M  V30 8803 H 818.062 5.0421 -0.611104 0
M  V30 8804 H 817.992 5.13515 1.1666 0
M  V30 8805 H 820.483 3.75343 0.438838 0
M  V30 8806 H 820.796 7.72316 0.273421 0
M  V30 8807 H 819.141 6.9454 0.252841 0
M  V30 8808 H 822.332 4.65836 0.459812 0
M  V30 8809 H 822.505 6.46858 0.384608 0
M  V30 8810 N 815.911 -0.310526 1.54511 0
M  V30 8811 C 817.158 -1.04691 1.73338 0
M  V30 8812 C 817.486 -1.87584 0.514038 0
M  V30 8813 O 816.741 -1.89096 -0.504119 0
M  V30 8814 C 817.04 -1.98942 2.96912 0
M  V30 8815 C 816.706 -1.321 4.31115 0
M  V30 8816 C 815.368 -1.13603 4.67598 0
M  V30 8817 C 817.72 -0.842362 5.14348 0
M  V30 8818 C 815.048 -0.459102 5.84901 0
M  V30 8819 C 817.4 -0.179202 6.32346 0
M  V30 8820 C 816.064 0.0178111 6.67498 0
M  V30 8821 H 815.334 -0.38309 0.634289 0
M  V30 8822 H 817.981 -0.322723 1.88761 0
M  V30 8823 H 816.286 -2.77856 2.76231 0
M  V30 8824 H 817.983 -2.55972 3.08674 0
M  V30 8825 H 814.573 -1.47502 4.02419 0
M  V30 8826 H 818.757 -0.973013 4.86668 0
M  V30 8827 H 814.013 -0.295385 6.10686 0
M  V30 8828 H 818.187 0.199619 6.96114 0
M  V30 8829 H 815.814 0.544356 7.58249 0
M  V30 8830 N 817.389 -1.46805 -0.573248 0
M  V30 8831 C 818.638 -1.51868 -1.32736 0
M  V30 8832 C 818.951 -0.178765 -1.94781 0
M  V30 8833 O 820.157 -0.107272 -2.71288 0
M  V30 8834 C 818.613 -2.67641 -2.40616 0
M  V30 8835 C 818.221 -4.08094 -1.84832 0
M  V30 8836 C 819.965 -2.81984 -3.17309 0
M  V30 8837 C 817.872 -5.15193 -2.90397 0
M  V30 8838 H 816.802 -0.56523 -0.49903 0
M  V30 8839 H 819.453 -1.7304 -0.610695 0
M  V30 8840 H 817.835 -2.39818 -3.15124 0
M  V30 8841 H 819.009 -4.45751 -1.16803 0
M  V30 8842 H 817.324 -3.985 -1.20775 0
M  V30 8843 H 819.921 -3.59166 -3.96111 0
M  V30 8844 H 820.264 -1.89842 -3.70494 0
M  V30 8845 H 820.797 -3.095 -2.4991 0
M  V30 8846 H 817.536 -6.09158 -2.42088 0
M  V30 8847 H 817.056 -4.82071 -3.56886 0
M  V30 8848 H 818.735 -5.41448 -3.54179 0
M  V30 8849 N 818.867 0.818669 -1.34668 0
M  V30 8850 C 820.115 1.57201 -1.27013 0
M  V30 8851 C 820.436 1.94354 0.158599 0
M  V30 8852 O 819.706 1.62626 1.09223 0
M  V30 8853 H 818.286 0.582919 -0.467135 0
M  V30 8854 H 820.948 0.977234 -1.6863 0
M  V30 8855 H 820.044 2.49291 -1.87778 0
M  V30 8856 N 820.346 1.18468 1.03938 0
M  V30 8857 C 821.294 0.909286 2.14091 0
M  V30 8858 C 822.288 -0.130928 1.68893 0
M  V30 8859 O 823.494 0.0173403 1.79992 0
M  V30 8860 H 819.869 0.27658 0.699291 0
M  V30 8861 H 821.84 1.84514 2.34515 0
M  V30 8862 C 820.589 0.452922 3.44737 0
M  V30 8863 H 819.912 1.24485 3.79926 0
M  V30 8864 H 821.352 0.299238 4.22943 0
M  V30 8865 C 819.811 -0.831435 3.26479 0
M  V30 8866 O 820.341 -1.89535 3.54174 0
M  V30 8867 N 818.547 -0.784545 2.79809 0
M  V30 8868 H 818.094 0.0814746 2.57471 0
M  V30 8869 H 818.052 -1.64431 2.67973 0
M  V30 8870 N 821.824 -1.22873 0.986916 0
M  V30 8871 C 823.235 -1.73264 0.695438 0
M  V30 8872 C 823.586 -1.79679 -0.788023 0
M  V30 8873 O 822.711 -1.43905 -1.61618 0
M  V30 8874 C 823.306 -3.14671 1.2557 0
M  V30 8875 C 821.865 -3.62492 1.01373 0
M  V30 8876 C 821.012 -2.40551 1.37951 0
M  V30 8877 H 823.963 -1.08304 1.15999 0
M  V30 8878 H 823.984 -3.75226 0.631322 0
M  V30 8879 H 823.496 -3.0997 2.33539 0
M  V30 8880 H 821.597 -3.72567 -0.0495917 0
M  V30 8881 H 821.71 -4.48944 1.67289 0
M  V30 8882 H 820.074 -2.41875 0.798033 0
M  V30 8883 H 820.857 -2.38516 2.46911 0
M  V30 8884 N 823.302 -0.75937 -1.38099 0
M  V30 8885 C 824.55 -0.317485 -1.99591 0
M  V30 8886 C 824.871 1.10628 -1.60581 0
M  V30 8887 O 824.141 1.7575 -0.865378 0
M  V30 8888 H 822.721 -0.114397 -0.738189 0
M  V30 8889 H 825.383 -0.974749 -1.68774 0
M  V30 8890 H 824.479 -0.385227 -3.09713 0
M  V30 8891 N 824.78 1.49157 -0.508906 0
M  V30 8892 C 826.029 2.0167 0.0346854 0
M  V30 8893 C 826.342 1.39302 1.37311 0
M  V30 8894 O 827.548 1.83189 2.00385 0
M  V30 8895 C 826.004 3.59725 0.112261 0
M  V30 8896 C 825.612 4.31069 -1.21999 0
M  V30 8897 C 827.356 4.20155 0.605798 0
M  V30 8898 C 825.263 5.81001 -1.10415 0
M  V30 8899 H 824.193 0.753814 0.0167355 0
M  V30 8900 H 826.844 1.7162 -0.649518 0
M  V30 8901 H 825.226 3.86525 0.861087 0
M  V30 8902 H 826.4 4.15962 -1.98273 0
M  V30 8903 H 824.715 3.82418 -1.64759 0
M  V30 8904 H 827.312 5.29964 0.710102 0
M  V30 8905 H 827.655 3.84051 1.60656 0
M  V30 8906 H 828.188 3.97705 -0.0867239 0
M  V30 8907 H 824.927 6.21643 -2.07941 0
M  V30 8908 H 824.447 5.9858 -0.382428 0
M  V30 8909 H 826.126 6.42207 -0.786116 0
M  V30 8910 N 826.258 0.243083 1.55714 0
M  V30 8911 C 827.19 -0.690766 2.18543 0
M  V30 8912 C 828.203 -1.14163 1.16064 0
M  V30 8913 O 829.392 -1.06906 1.42946 0
M  V30 8914 C 826.492 -1.95016 2.77168 0
M  V30 8915 C 825.665 -1.65137 4.05029 0
M  V30 8916 C 824.724 -2.75998 4.48009 0
M  V30 8917 O 823.75 -2.43547 5.14464 0
M  V30 8918 N 824.952 -4.05414 4.15476 0
M  V30 8919 H 827.717 -0.153203 2.99308 0
M  V30 8920 H 825.278 0.0628968 1.61778 0
M  V30 8921 H 827.27 -2.68414 3.0288 0
M  V30 8922 H 825.84 -2.39762 2.00582 0
M  V30 8923 H 825.06 -0.752768 3.86946 0
M  V30 8924 H 826.348 -1.42633 4.88399 0
M  V30 8925 H 825.746 -4.34613 3.62116 0
M  V30 8926 H 824.303 -4.75288 4.46032 0
M  V30 8927 N 827.736 -1.57571 -0.0300757 0
M  V30 8928 C 828.683 -2.06492 -1.03101 0
M  V30 8929 C 829.653 -0.953862 -1.3598 0
M  V30 8930 O 830.838 -1.22436 -1.46335 0
M  V30 8931 C 827.978 -2.54826 -2.32718 0
M  V30 8932 C 827.091 -3.79718 -2.06006 0
M  V30 8933 C 826.226 -4.16668 -3.29487 0
M  V30 8934 C 825.265 -5.3448 -2.98324 0
M  V30 8935 N 824.402 -5.66867 -4.14254 0
M  V30 8936 H 829.242 -2.91755 -0.606877 0
M  V30 8937 H 826.779 -1.44252 -0.288038 0
M  V30 8938 H 828.737 -2.80916 -3.08451 0
M  V30 8939 H 827.367 -1.72481 -2.72856 0
M  V30 8940 H 826.419 -3.60718 -1.20774 0
M  V30 8941 H 827.731 -4.65569 -1.79017 0
M  V30 8942 H 826.885 -4.43881 -4.13588 0
M  V30 8943 H 825.624 -3.29466 -3.59588 0
M  V30 8944 H 824.629 -5.07021 -2.12625 0
M  V30 8945 H 825.854 -6.23334 -2.69502 0
M  V30 8946 H 823.8 -4.82625 -4.44308 0
M  V30 8947 H 823.717 -6.47226 -3.90685 0
M  V30 8948 H 824.985 -5.98656 -4.99231 0
M  V30 8949 N 829.214 0.302327 -1.54673 0
M  V30 8950 C 830.454 1.04568 -1.75627 0
M  V30 8951 C 830.818 1.84535 -0.530175 0
M  V30 8952 O 832.019 2.61613 -0.61743 0
M  V30 8953 C 830.29 1.92873 -3.0089 0
M  V30 8954 S 831.849 2.73872 -3.4284 0
M  V30 8955 H 828.667 0.352682 -0.617362 0
M  V30 8956 H 831.269 0.319239 -1.92876 0
M  V30 8957 H 829.973 1.32998 -3.88252 0
M  V30 8958 H 829.504 2.69887 -2.86225 0
M  V30 8959 H 831.519 3.95386 -2.99807 0
M  V30 8960 N 830.692 1.47107 0.565454 0
M  V30 8961 C 831.94 1.53005 1.32038 0
M  V30 8962 C 832.261 0.190453 1.94068 0
M  V30 8963 O 831.531 -0.784783 1.79494 0
M  V30 8964 H 830.111 0.563578 0.490294 0
M  V30 8965 H 832.773 1.83351 0.660928 0
M  V30 8966 H 831.869 2.29215 2.11818 0
M  V30 8967 N 832.17 -0.811516 1.35101 0
M  V30 8968 C 833.1 -1.9378 1.30275 0
M  V30 8969 C 834.081 -1.69165 0.178075 0
M  V30 8970 O 835.266 -1.90599 0.372256 0
M  V30 8971 C 832.396 -3.30439 1.06899 0
M  V30 8972 C 831.35 -3.69523 2.15955 0
M  V30 8973 C 830.676 -5.0429 1.77751 0
M  V30 8974 C 831.976 -3.80419 3.57881 0
M  V30 8975 H 833.67 -1.98075 2.24514 0
M  V30 8976 H 831.216 -0.951586 1.08078 0
M  V30 8977 H 833.169 -4.08828 1.02164 0
M  V30 8978 H 831.893 -3.26473 0.0910462 0
M  V30 8979 H 830.552 -2.93416 2.19778 0
M  V30 8980 H 830.2 -4.96823 0.785876 0
M  V30 8981 H 829.9 -5.31411 2.5075 0
M  V30 8982 H 831.424 -5.85125 1.74533 0
M  V30 8983 H 832.838 -4.49051 3.56407 0
M  V30 8984 H 831.235 -4.19005 4.29598 0
M  V30 8985 H 832.305 -2.82105 3.94391 0
M  V30 8986 N 833.648 -1.19017 -1.03309 0
M  V30 8987 C 834.595 -0.924088 -2.11493 0
M  V30 8988 C 835.565 0.139464 -1.65513 0
M  V30 8989 O 836.75 -0.00178761 -1.908 0
M  V30 8990 C 833.89 -0.464255 -3.41963 0
M  V30 8991 C 833.003 -1.5941 -4.01513 0
M  V30 8992 C 832.138 -1.08622 -5.19976 0
M  V30 8993 C 831.177 -2.19024 -5.71572 0
M  V30 8994 N 830.314 -1.69575 -6.81314 0
M  V30 8995 H 835.154 -1.85039 -2.33591 0
M  V30 8996 H 832.691 -0.922593 -1.14572 0
M  V30 8997 H 834.649 -0.179078 -4.16815 0
M  V30 8998 H 833.279 0.425062 -3.19989 0
M  V30 8999 H 832.331 -1.99458 -3.23915 0
M  V30 9000 H 833.643 -2.42604 -4.35826 0
M  V30 9001 H 832.797 -0.756022 -6.01971 0
M  V30 9002 H 831.536 -0.223955 -4.87186 0
M  V30 9003 H 830.541 -2.5288 -4.88193 0
M  V30 9004 H 831.766 -3.05699 -6.06403 0
M  V30 9005 H 829.712 -0.856494 -6.50385 0
M  V30 9006 H 829.629 -2.46361 -7.14732 0
M  V30 9007 H 830.897 -1.39505 -7.66915 0
M  V30 9008 N 835.127 1.22348 -0.993418 0
M  V30 9009 C 836.373 1.91393 -0.67056 0
M  V30 9010 C 836.706 1.77163 0.795428 0
M  V30 9011 O 835.981 1.14084 1.57528 0
M  V30 9012 C 836.264 3.43589 -1.0779 0
M  V30 9013 C 836.117 3.66867 -2.60248 0
M  V30 9014 C 837.436 4.35545 -0.631527 0
M  V30 9015 H 834.555 0.695057 -0.24508 0
M  V30 9016 H 837.197 1.44213 -1.23703 0
M  V30 9017 H 835.347 3.83903 -0.595902 0
M  V30 9018 H 837.019 3.35954 -3.16121 0
M  V30 9019 H 835.262 3.1113 -3.02293 0
M  V30 9020 H 835.933 4.73457 -2.838 0
M  V30 9021 H 838.409 4.0275 -1.04554 0
M  V30 9022 H 837.285 5.40707 -0.944831 0
M  V30 9023 H 837.546 4.39618 0.467779 0
M  V30 9024 N 836.605 0.766683 1.37694 0
M  V30 9025 C 837.854 0.325425 1.99057 0
M  V30 9026 C 838.167 -1.10275 1.61551 0
M  V30 9027 O 839.373 -1.64513 2.1598 0
M  V30 9028 C 837.829 0.530886 3.55963 0
M  V30 9029 C 837.437 1.96899 4.02411 0
M  V30 9030 C 839.181 0.152997 4.24224 0
M  V30 9031 C 837.088 2.12232 5.52007 0
M  V30 9032 H 836.018 0.117929 0.744721 0
M  V30 9033 H 838.669 0.945091 1.5729 0
M  V30 9034 H 837.051 -0.158162 3.95684 0
M  V30 9035 H 838.225 2.69258 3.73948 0
M  V30 9036 H 836.54 2.303 3.46916 0
M  V30 9037 H 839.137 0.24614 5.34133 0
M  V30 9038 H 839.48 -0.896096 4.06541 0
M  V30 9039 H 840.013 0.794398 3.89787 0
M  V30 9040 H 836.752 3.15442 5.7461 0
M  V30 9041 H 836.272 1.4435 5.82171 0
M  V30 9042 H 837.951 1.9185 6.17902 0
M  V30 9043 N 838.083 -1.48885 0.516809 0
M  V30 9044 C 839.308 -2.0739 -0.0205201 0
M  V30 9045 C 839.733 -1.37259 -1.28614 0
M  V30 9046 O 839.091 -0.434304 -1.76021 0
M  V30 9047 C 839.139 -3.59793 -0.24104 0
M  V30 9048 O 838.243 -3.90957 -1.31251 0
M  V30 9049 H 837.584 -0.663167 0.0332564 0
M  V30 9050 H 840.114 -1.91477 0.720956 0
M  V30 9051 H 840.124 -4.0531 -0.467737 0
M  V30 9052 H 838.799 -4.10244 0.68356 0
M  V30 9053 H 837.376 -3.57234 -1.06951 0
M  V30 9054 N 839.561 -0.251338 -1.55583 0
M  V30 9055 C 840.786 0.379136 -2.03905 0
M  V30 9056 C 841.211 1.50428 -1.12929 0
M  V30 9057 O 840.569 1.80882 -0.123114 0
M  V30 9058 C 840.617 0.86009 -3.50193 0
M  V30 9059 O 839.721 1.96932 -3.62342 0
M  V30 9060 H 839.062 0.0820183 -0.658915 0
M  V30 9061 H 841.592 -0.378692 -2.01065 0
M  V30 9062 H 841.602 1.16214 -3.91099 0
M  V30 9063 H 840.277 0.0367559 -4.15884 0
M  V30 9064 H 838.854 1.67163 -3.33333 0
M  V30 9065 N 841.039 1.57585 0.0217189 0
M  V30 9066 C 842.288 1.88786 0.710125 0
M  V30 9067 C 842.601 0.850819 1.76126 0
M  V30 9068 O 843.807 1.0523 2.50277 0
M  V30 9069 C 842.263 3.3505 1.31413 0
M  V30 9070 C 841.871 4.47001 0.298959 0
M  V30 9071 C 843.615 3.7539 1.98199 0
M  V30 9072 C 841.522 5.8433 0.911727 0
M  V30 9073 H 840.452 0.704388 0.268986 0
M  V30 9074 H 843.103 1.83466 -0.0352638 0
M  V30 9075 H 841.485 3.35138 2.10947 0
M  V30 9076 H 842.659 4.58395 -0.470203 0
M  V30 9077 H 840.974 4.15542 -0.267222 0
M  V30 9078 H 843.571 4.75314 2.4491 0
M  V30 9079 H 843.914 3.07766 2.80331 0
M  V30 9080 H 844.447 3.77508 1.2543 0
M  V30 9081 H 841.186 6.55372 0.129659 0
M  V30 9082 H 840.706 5.76643 1.65056 0
M  V30 9083 H 842.385 6.31295 1.41688 0
M  V30 9084 N 842.517 -0.29412 1.54831 0
M  V30 9085 C 843.763 -1.02999 1.74697 0
M  V30 9086 C 844.096 -1.86687 0.534949 0
M  V30 9087 O 843.371 -1.88789 -0.467863 0
M  V30 9088 C 843.654 -1.93024 3.03996 0
M  V30 9089 C 843.507 -1.1247 4.35512 0
M  V30 9090 C 844.826 -2.92085 3.29203 0
M  V30 9091 H 841.945 -0.373039 0.635618 0
M  V30 9092 H 844.587 -0.304065 1.87551 0
M  V30 9093 H 842.737 -2.5492 2.93169 0
M  V30 9094 H 844.409 -0.528067 4.58268 0
M  V30 9095 H 842.652 -0.427574 4.31688 0
M  V30 9096 H 843.323 -1.78728 5.22265 0
M  V30 9097 H 845.799 -2.40319 3.39685 0
M  V30 9098 H 844.675 -3.52234 4.20978 0
M  V30 9099 H 844.936 -3.66107 2.47827 0
M  V30 9100 N 843.995 -1.47404 -0.557645 0
M  V30 9101 C 844.945 -1.56267 -1.66026 0
M  V30 9102 C 845.929 -0.42161 -1.55278 0
M  V30 9103 O 847.121 -0.671505 -1.63768 0
M  V30 9104 C 844.25 -1.57958 -3.04802 0
M  V30 9105 C 843.336 -2.77447 -3.20755 0
M  V30 9106 N 843.727 -4.02148 -3.06775 0
M  V30 9107 C 842.025 -2.74199 -3.51754 0
M  V30 9108 C 842.726 -4.82168 -3.25406 0
M  V30 9109 N 841.702 -4.14481 -3.5172 0
M  V30 9110 H 845.504 -2.50454 -1.53785 0
M  V30 9111 H 843.018 -1.43392 -0.762388 0
M  V30 9112 H 845.015 -1.62397 -3.8397 0
M  V30 9113 H 843.675 -0.648667 -3.18155 0
M  V30 9114 H 844.686 -4.33014 -2.84111 0
M  V30 9115 H 841.363 -1.90243 -3.71637 0
M  V30 9116 H 842.753 -5.91037 -3.19569 0
M  V30 9117 N 845.473 0.80434 -1.35529 0
M  V30 9118 C 846.72 1.56154 -1.28927 0
M  V30 9119 C 847.048 1.94026 0.135682 0
M  V30 9120 O 846.303 1.61759 1.10148 0
M  V30 9121 C 846.602 2.85988 -2.14349 0
M  V30 9122 C 846.268 2.67323 -3.6311 0
M  V30 9123 C 844.93 2.61941 -4.03659 0
M  V30 9124 C 847.282 2.49699 -4.57493 0
M  V30 9125 C 844.61 2.3688 -5.36754 0
M  V30 9126 C 846.962 2.26168 -5.90788 0
M  V30 9127 C 845.626 2.19209 -6.30479 0
M  V30 9128 H 844.896 0.571407 -0.471779 0
M  V30 9129 H 847.543 0.929193 -1.67446 0
M  V30 9130 H 845.848 3.53612 -1.68718 0
M  V30 9131 H 847.545 3.43697 -2.06576 0
M  V30 9132 H 844.135 2.72361 -3.30934 0
M  V30 9133 H 848.319 2.52869 -4.27049 0
M  V30 9134 H 843.575 2.29964 -5.66504 0
M  V30 9135 H 847.749 2.11522 -6.63499 0
M  V30 9136 H 845.376 1.99553 -7.33541 0
M  V30 9137 N 846.951 1.19563 1.02676 0
M  V30 9138 C 848.362 1.00158 1.57561 0
M  V30 9139 C 848.713 -0.444922 1.91089 0
M  V30 9140 O 847.838 -1.32466 1.71119 0
M  V30 9141 C 848.433 1.81181 2.86284 0
M  V30 9142 C 846.992 1.66171 3.37734 0
M  V30 9143 C 846.139 1.7975 2.11152 0
M  V30 9144 H 849.09 1.33904 0.85179 0
M  V30 9145 H 849.111 1.30916 3.57269 0
M  V30 9146 H 848.623 2.86454 2.6185 0
M  V30 9147 H 846.724 0.634927 3.6715 0
M  V30 9148 H 846.837 2.46832 4.10622 0
M  V30 9149 H 845.201 1.22833 2.23123 0
M  V30 9150 H 845.984 2.86487 1.89157 0
M  V30 9151 N 848.429 -1.21819 0.999893 0
M  V30 9152 C 849.706 -1.86318 0.595384 0
M  V30 9153 C 850.086 -1.8965 -0.927143 0
M  V30 9154 O 849.434 -1.3921 -1.81199 0
M  V30 9155 C 849.644 -3.26837 1.22387 0
M  V30 9156 C 850.992 -4.03272 1.32878 0
M  V30 9157 O 852.016 -3.36129 1.1788 0
M  V30 9158 O 850.875 -5.23477 1.56952 0
M  V30 9159 H 847.969 -0.801638 0.203238 0
M  V30 9160 H 850.515 -1.29542 1.09622 0
M  V30 9161 H 849.287 -3.19084 2.26497 0
M  V30 9162 H 848.91 -3.91226 0.709069 0
M  V30 9163 N 849.908 -0.773975 -1.37286 0
M  V30 9164 C 850.871 -0.167974 -2.28584 0
M  V30 9165 C 851.871 0.625662 -1.48129 0
M  V30 9166 O 853.061 0.448924 -1.68316 0
M  V30 9167 C 850.193 0.769364 -3.32105 0
M  V30 9168 H 851.386 -0.972806 -2.83684 0
M  V30 9169 H 848.939 -0.542335 -1.46589 0
M  V30 9170 H 849.674 1.59912 -2.82132 0
M  V30 9171 H 849.459 0.202419 -3.91577 0
M  V30 9172 H 850.949 1.18872 -4.00324 0
M  V30 9173 N 851.386 1.48609 -0.524698 0
M  V30 9174 C 852.316 2.32366 0.229837 0
M  V30 9175 C 853.297 1.41759 0.940129 0
M  V30 9176 O 854.482 1.7065 0.926936 0
M  V30 9177 C 851.612 3.22835 1.28043 0
M  V30 9178 C 850.566 4.22424 0.688603 0
M  V30 9179 C 849.892 5.0199 1.84146 0
M  V30 9180 C 851.192 5.21217 -0.336176 0
M  V30 9181 H 852.886 2.95698 -0.469339 0
M  V30 9182 H 850.432 1.42197 -0.227156 0
M  V30 9183 H 852.385 3.80253 1.8162 0
M  V30 9184 H 851.109 2.57492 2.00912 0
M  V30 9185 H 849.768 3.66185 0.174402 0
M  V30 9186 H 849.416 4.33076 2.5584 0
M  V30 9187 H 849.116 5.69392 1.45142 0
M  V30 9188 H 850.64 5.62259 2.38111 0
M  V30 9189 H 852.054 5.7319 0.112307 0
M  V30 9190 H 850.451 5.96642 -0.643324 0
M  V30 9191 H 851.521 4.68676 -1.24381 0
M  V30 9192 N 852.864 0.259585 1.55447 0
M  V30 9193 C 853.774 -0.645026 2.25558 0
M  V30 9194 C 854.79 -1.18291 1.27606 0
M  V30 9195 O 855.966 -1.21649 1.6051 0
M  V30 9196 C 853.031 -1.81964 2.9511 0
M  V30 9197 C 852.092 -1.31997 4.08504 0
M  V30 9198 C 851.325 -2.43861 4.74729 0
M  V30 9199 O 851.548 -3.62876 4.40088 0
M  V30 9200 O 850.482 -2.12898 5.6299 0
M  V30 9201 H 854.308 -0.0775399 3.03601 0
M  V30 9202 H 851.893 0.0275859 1.49375 0
M  V30 9203 H 853.775 -2.50485 3.38873 0
M  V30 9204 H 852.45 -2.37451 2.19997 0
M  V30 9205 H 851.357 -0.601676 3.6923 0
M  V30 9206 H 852.69 -0.811045 4.85472 0
M  V30 9207 N 854.342 -1.57594 -0.0133615 0
M  V30 9208 C 855.275 -2.02991 -1.04259 0
M  V30 9209 C 856.253 -0.917193 -1.34262 0
M  V30 9210 O 857.437 -1.18428 -1.46653 0
M  V30 9211 C 854.564 -2.41624 -2.37351 0
M  V30 9212 C 853.61 -3.63495 -2.231 0
M  V30 9213 S 854.443 -5.1198 -1.5696 0
M  V30 9214 C 855.599 -5.5387 -2.91511 0
M  V30 9215 H 855.832 -2.89973 -0.655985 0
M  V30 9216 H 853.365 -1.52769 -0.223827 0
M  V30 9217 H 855.323 -2.64551 -3.13884 0
M  V30 9218 H 853.984 -1.55065 -2.73155 0
M  V30 9219 H 853.177 -3.88233 -3.21389 0
M  V30 9220 H 852.779 -3.405 -1.54711 0
M  V30 9221 H 855.071 -5.55514 -3.87828 0
M  V30 9222 H 856.014 -6.53988 -2.71488 0
M  V30 9223 H 856.422 -4.81404 -2.94806 0
M  V30 9224 N 855.82 0.285905 -1.54985 0
M  V30 9225 C 856.75 1.35752 -1.89983 0
M  V30 9226 C 857.731 1.52163 -0.760295 0
M  V30 9227 O 858.916 1.65421 -1.01733 0
M  V30 9228 C 856.046 2.71925 -2.16042 0
M  V30 9229 C 855 2.70261 -3.31878 0
M  V30 9230 C 854.326 4.09864 -3.43388 0
M  V30 9231 C 855.626 2.30667 -4.68604 0
M  V30 9232 H 857.32 1.06709 -2.79738 0
M  V30 9233 H 854.866 0.511884 -1.34595 0
M  V30 9234 H 856.819 3.46992 -2.39113 0
M  V30 9235 H 855.543 3.02523 -1.23074 0
M  V30 9236 H 854.202 1.97651 -3.08755 0
M  V30 9237 H 853.85 4.37664 -2.47909 0
M  V30 9238 H 853.55 4.09648 -4.21262 0
M  V30 9239 H 855.074 4.86689 -3.68736 0
M  V30 9240 H 856.488 2.95453 -4.91305 0
M  V30 9241 H 854.885 2.41637 -5.49301 0
M  V30 9242 H 855.955 1.25793 -4.68299 0
M  V30 9243 N 857.298 1.47698 0.54982 0
M  V30 9244 C 858.523 1.58579 1.33669 0
M  V30 9245 C 858.948 0.239049 1.86575 0
M  V30 9246 O 858.306 -0.786256 1.63364 0
M  V30 9247 C 858.354 2.62029 2.47736 0
M  V30 9248 O 857.458 2.17813 3.50188 0
M  V30 9249 H 856.799 0.532447 0.396732 0
M  V30 9250 H 859.329 1.93536 0.6637 0
M  V30 9251 H 859.339 2.82682 2.94202 0
M  V30 9252 H 858.014 3.59812 2.08586 0
M  V30 9253 H 856.591 2.07291 3.09976 0
M  V30 9254 N 858.776 -0.797141 1.35954 0
M  V30 9255 C 859.706 -1.92387 1.32323 0
M  V30 9256 C 860.687 -1.68967 0.196007 0
M  V30 9257 O 861.872 -1.90193 0.39245 0
M  V30 9258 C 859.002 -3.29286 1.10398 0
M  V30 9259 C 857.956 -3.67212 2.19862 0
M  V30 9260 C 857.282 -5.02377 1.8309 0
M  V30 9261 C 858.582 -3.76602 3.61896 0
M  V30 9262 H 860.276 -1.95683 2.26602 0
M  V30 9263 H 857.822 -0.94007 1.09081 0
M  V30 9264 H 859.775 -4.07721 1.06495 0
M  V30 9265 H 858.499 -3.26358 0.125668 0
M  V30 9266 H 857.158 -2.91069 2.22878 0
M  V30 9267 H 856.806 -4.95961 0.838527 0
M  V30 9268 H 856.506 -5.28722 2.56372 0
M  V30 9269 H 858.03 -5.8324 1.80729 0
M  V30 9270 H 859.444 -4.45246 3.6115 0
M  V30 9271 H 857.841 -4.14425 4.34018 0
M  V30 9272 H 858.911 -2.77906 3.97361 0
M  V30 9273 N 860.254 -1.20106 -1.0204 0
M  V30 9274 C 861.164 -0.962051 -2.13967 0
M  V30 9275 C 862.18 0.0808053 -1.73812 0
M  V30 9276 O 863.356 -0.105774 -2.01122 0
M  V30 9277 C 860.421 -0.513108 -3.42882 0
M  V30 9278 C 859.482 -1.62636 -3.97301 0
M  V30 9279 C 858.715 -1.19875 -5.20063 0
M  V30 9280 O 858.938 -0.0658423 -5.70362 0
M  V30 9281 O 857.872 -2.00467 -5.67536 0
M  V30 9282 H 861.698 -1.8991 -2.36998 0
M  V30 9283 H 859.283 -0.984608 -1.12365 0
M  V30 9284 H 861.165 -0.271797 -4.20523 0
M  V30 9285 H 859.84 0.395402 -3.21276 0
M  V30 9286 H 858.747 -1.92192 -3.20957 0
M  V30 9287 H 860.08 -2.51174 -4.23288 0
M  V30 9288 N 861.732 1.21287 -1.00634 0
M  V30 9289 C 862.98 1.90013 -0.688438 0
M  V30 9290 C 863.301 1.78573 0.783365 0
M  V30 9291 O 862.571 1.1815 1.56261 0
M  V30 9292 H 861.151 0.703336 -0.251648 0
M  V30 9293 H 863.813 1.47346 -1.27574 0
M  V30 9294 H 862.909 2.96879 -0.962781 0
M  V30 9295 N 863.21 0.781244 1.36873 0
M  V30 9296 C 864.173 0.180094 2.28491 0
M  V30 9297 C 865.173 -0.617798 1.48458 0
M  V30 9298 O 866.363 -0.439991 1.68552 0
M  V30 9299 C 863.495 -0.751741 3.32508 0
M  V30 9300 H 864.688 0.987837 2.83164 0
M  V30 9301 H 862.241 0.550102 1.463 0
M  V30 9302 H 862.976 -1.58413 2.82977 0
M  V30 9303 H 862.761 -0.181649 3.91679 0
M  V30 9304 H 864.251 -1.16748 4.00949 0
M  V30 9305 N 864.689 -1.48329 0.532571 0
M  V30 9306 C 865.622 -2.26524 -0.2761 0
M  V30 9307 C 866.6 -1.32498 -0.942496 0
M  V30 9308 O 867.784 -1.61844 -0.966376 0
M  V30 9309 C 864.911 -3.08808 -1.39124 0
M  V30 9310 C 863.957 -4.18227 -0.835984 0
M  V30 9311 S 864.79 -5.34669 0.298186 0
M  V30 9312 C 865.946 -6.20514 -0.81937 0
M  V30 9313 H 866.179 -2.94764 0.387502 0
M  V30 9314 H 863.712 -1.51081 0.318407 0
M  V30 9315 H 865.67 -3.56792 -2.03002 0
M  V30 9316 H 864.331 -2.39976 -2.02658 0
M  V30 9317 H 863.524 -4.75435 -1.67264 0
M  V30 9318 H 863.126 -3.72996 -0.27385 0
M  V30 9319 H 865.418 -6.55371 -1.7174 0
M  V30 9320 H 866.361 -7.07525 -0.285199 0
M  V30 9321 H 866.769 -5.5366 -1.10094 0
M  V30 9322 N 866.167 -0.267825 -1.55308 0
M  V30 9323 C 867.444 0.402449 -1.91415 0
M  V30 9324 C 867.824 1.7428 -1.1912 0
M  V30 9325 O 867.172 2.2631 -0.315609 0
M  V30 9326 C 867.382 0.549926 -3.4464 0
M  V30 9327 C 868.73 0.836188 -4.16285 0
M  V30 9328 O 869.754 0.635009 -3.50494 0
M  V30 9329 O 868.613 1.22051 -5.32697 0
M  V30 9330 H 865.707 0.219177 -0.797427 0
M  V30 9331 H 868.253 -0.313439 -1.6678 0
M  V30 9332 H 867.025 -0.393641 -3.89315 0
M  V30 9333 H 866.648 1.31556 -3.75205 0
M  V30 9334 N 867.645 1.57599 0.00500368 0
M  V30 9335 C 868.87 1.95026 0.705663 0
M  V30 9336 C 869.295 0.869643 1.6679 0
M  V30 9337 O 868.653 -0.172659 1.80476 0
M  V30 9338 C 868.701 3.31545 1.4181 0
M  V30 9339 O 867.805 3.25495 2.53232 0
M  V30 9340 H 867.146 0.636808 0.188074 0
M  V30 9341 H 869.676 2.04547 -0.046696 0
M  V30 9342 H 869.686 3.66996 1.78265 0
M  V30 9343 H 868.361 4.09751 0.712543 0
M  V30 9344 H 866.938 3.01714 2.19142 0
M  V30 9345 N 869.123 -0.277682 1.55134 0
M  V30 9346 C 870.369 -1.0114 1.7578 0
M  V30 9347 C 870.702 -1.86109 0.554719 0
M  V30 9348 O 869.977 -1.89275 -0.447813 0
M  V30 9349 C 870.26 -1.89789 3.06027 0
M  V30 9350 C 870.113 -1.07844 4.3668 0
M  V30 9351 C 871.432 -2.88577 3.32282 0
M  V30 9352 H 868.551 -0.366277 0.639539 0
M  V30 9353 H 871.193 -0.284155 1.87863 0
M  V30 9354 H 869.343 -2.51796 2.95856 0
M  V30 9355 H 871.015 -0.479432 4.58802 0
M  V30 9356 H 869.258 -0.381764 4.32117 0
M  V30 9357 H 869.929 -1.73179 5.24131 0
M  V30 9358 H 872.405 -2.36702 3.42215 0
M  V30 9359 H 871.281 -3.47749 4.2469 0
M  V30 9360 H 871.542 -3.63458 2.51696 0
M  V30 9361 N 870.601 -1.47988 -0.541979 0
M  V30 9362 C 871.531 -1.64503 -1.65713 0
M  V30 9363 C 872.512 -0.494116 -1.62765 0
M  V30 9364 O 873.697 -0.725256 -1.80149 0
M  V30 9365 C 870.827 -1.67337 -3.04328 0
M  V30 9366 C 869.781 -2.81809 -3.2213 0
M  V30 9367 C 869.107 -2.69724 -4.61685 0
M  V30 9368 C 870.407 -4.23241 -3.06046 0
M  V30 9369 H 872.101 -2.5786 -1.52147 0
M  V30 9370 H 869.647 -1.24094 -0.730529 0
M  V30 9371 H 871.6 -1.77481 -3.82202 0
M  V30 9372 H 870.324 -0.705514 -3.18889 0
M  V30 9373 H 868.983 -2.71201 -2.46669 0
M  V30 9374 H 868.631 -1.70934 -4.73065 0
M  V30 9375 H 868.331 -3.4653 -4.74543 0
M  V30 9376 H 869.855 -2.81818 -5.41674 0
M  V30 9377 H 871.269 -4.34746 -3.73723 0
M  V30 9378 H 869.666 -5.00952 -3.30405 0
M  V30 9379 H 870.736 -4.40543 -2.02609 0
M  V30 9380 N 872.079 0.78992 -1.36375 0
M  V30 9381 C 873.029 1.89227 -1.27189 0
M  V30 9382 C 874.013 1.60067 -0.163498 0
M  V30 9383 O 875.205 1.72507 -0.396262 0
M  V30 9384 C 872.334 3.26431 -1.06292 0
M  V30 9385 C 871.42 3.61602 -2.21596 0
M  V30 9386 N 871.811 3.68086 -3.4691 0
M  V30 9387 C 870.109 3.9166 -2.1335 0
M  V30 9388 C 870.81 3.99481 -4.22835 0
M  V30 9389 N 869.786 4.14438 -3.5177 0
M  V30 9390 H 873.588 1.92465 -2.22113 0
M  V30 9391 H 871.102 0.985414 -1.29087 0
M  V30 9392 H 873.099 4.05267 -0.97798 0
M  V30 9393 H 871.759 3.24468 -0.122676 0
M  V30 9394 H 872.77 3.50743 -3.81051 0
M  V30 9395 H 869.447 3.97626 -1.27279 0
M  V30 9396 H 870.837 4.11425 -5.31205 0
M  V30 9397 N 873.557 1.20646 1.01402 0
M  V30 9398 C 874.785 1.04389 1.78635 0
M  V30 9399 C 875.2 -0.406771 1.84366 0
M  V30 9400 O 874.557 -1.28239 1.2985 0
M  V30 9401 C 874.608 1.62378 3.22979 0
M  V30 9402 O 874.329 3.01768 3.17597 0
M  V30 9403 C 875.83 1.5111 4.1675 0
M  V30 9404 H 873.05 0.367077 0.56169 0
M  V30 9405 H 875.594 1.59789 1.27624 0
M  V30 9406 H 873.749 1.11092 3.7113 0
M  V30 9407 H 874.163 3.29331 4.08217 0
M  V30 9408 H 875.637 1.96441 5.15863 0
M  V30 9409 H 876.114 0.464011 4.36742 0
M  V30 9410 H 876.72 2.01599 3.74483 0
M  V30 9411 N 875.035 -1.20752 1.01276 0
M  V30 9412 C 875.965 -2.25658 0.600064 0
M  V30 9413 C 876.946 -1.65733 -0.38298 0
M  V30 9414 O 878.131 -1.92324 -0.269256 0
M  V30 9415 C 875.261 -3.47237 -0.0663197 0
M  V30 9416 C 874.215 -4.1973 0.83731 0
M  V30 9417 C 873.541 -5.34687 0.0369102 0
M  V30 9418 C 874.841 -4.76286 2.14357 0
M  V30 9419 H 876.535 -2.60432 1.477 0
M  V30 9420 H 874.081 -1.25187 0.711634 0
M  V30 9421 H 876.034 -4.19803 -0.366563 0
M  V30 9422 H 874.758 -3.11615 -0.977944 0
M  V30 9423 H 873.417 -3.49024 1.1215 0
M  V30 9424 H 873.065 -4.95309 -0.876244 0
M  V30 9425 H 872.765 -5.84119 0.63865 0
M  V30 9426 H 874.289 -6.10059 -0.256968 0
M  V30 9427 H 875.703 -5.40691 1.90595 0
M  V30 9428 H 874.1 -5.36139 2.69583 0
M  V30 9429 H 875.17 -3.9524 2.80916 0
M  V30 9430 N 876.513 -0.788492 -1.36457 0
M  V30 9431 C 877.445 -0.144208 -2.28746 0
M  V30 9432 C 878.458 0.646009 -1.49434 0
M  V30 9433 O 879.647 0.481344 -1.71888 0
M  V30 9434 C 876.747 0.818869 -3.28858 0
M  V30 9435 C 875.92 0.0789055 -4.37329 0
M  V30 9436 C 874.979 0.957791 -5.1741 0
M  V30 9437 O 874.005 0.415378 -5.67682 0
M  V30 9438 N 875.207 2.28216 -5.33758 0
M  V30 9439 H 877.972 -0.936949 -2.84678 0
M  V30 9440 H 875.533 -0.642317 -1.48613 0
M  V30 9441 H 877.525 1.41065 -3.79319 0
M  V30 9442 H 876.095 1.51249 -2.73573 0
M  V30 9443 H 875.315 -0.693939 -3.88044 0
M  V30 9444 H 876.603 -0.431753 -5.06965 0
M  V30 9445 H 876.001 2.747 -4.94527 0
M  V30 9446 H 874.558 2.8236 -5.87466 0
M  V30 9447 N 877.991 1.48044 -0.54043 0
M  V30 9448 C 878.924 2.26667 0.264083 0
M  V30 9449 C 879.902 1.32996 0.935456 0
M  V30 9450 O 881.086 1.62354 0.95778 0
M  V30 9451 C 878.213 3.09541 1.37485 0
M  V30 9452 C 877.259 4.18664 0.813792 0
M  V30 9453 S 878.092 5.34503 -0.326536 0
M  V30 9454 C 879.248 6.20939 0.786452 0
M  V30 9455 H 879.481 2.94554 -0.403129 0
M  V30 9456 H 877.014 1.5091 -0.326415 0
M  V30 9457 H 878.972 3.57863 2.01107 0
M  V30 9458 H 877.633 2.41048 2.01382 0
M  V30 9459 H 876.826 4.76316 1.6474 0
M  V30 9460 H 876.428 3.73136 0.254066 0
M  V30 9461 H 878.72 6.56273 1.68262 0
M  V30 9462 H 879.663 7.07667 0.247673 0
M  V30 9463 H 880.071 5.54236 1.07156 0
M  V30 9464 N 879.47 0.276058 1.55163 0
M  V30 9465 C 880.7 -0.343274 2.03728 0
M  V30 9466 C 881.108 -1.49945 1.15383 0
M  V30 9467 O 880.451 -1.82942 0.166696 0
M  V30 9468 C 880.513 -0.885683 3.48419 0
M  V30 9469 C 880.177 0.141976 4.56779 0
M  V30 9470 C 881.174 0.961816 5.10926 0
M  V30 9471 C 878.859 0.276487 5.01538 0
M  V30 9472 C 880.853 1.90234 6.0835 0
M  V30 9473 C 878.54 1.22049 5.98788 0
M  V30 9474 C 879.538 2.03192 6.52075 0
M  V30 9475 O 879.226 2.95996 7.47423 0
M  V30 9476 H 878.958 -0.0822192 0.670981 0
M  V30 9477 H 881.512 0.406199 2.01343 0
M  V30 9478 H 879.742 -1.68524 3.48047 0
M  V30 9479 H 881.431 -1.4182 3.80318 0
M  V30 9480 H 882.197 0.868637 4.77158 0
M  V30 9481 H 878.076 -0.345095 4.59707 0
M  V30 9482 H 881.62 2.5361 6.49867 0
M  V30 9483 H 877.517 1.31448 6.31974 0
M  V30 9484 H 878.285 2.90688 7.65142 0
M  V30 9485 N 880.948 -1.576 0.00335426 0
M  V30 9486 C 882.359 -1.7875 -0.539008 0
M  V30 9487 C 882.71 -0.911097 -1.73763 0
M  V30 9488 O 881.835 -0.114476 -2.16097 0
M  V30 9489 C 882.43 -3.24177 -0.984611 0
M  V30 9490 C 880.989 -3.46412 -1.47226 0
M  V30 9491 C 880.136 -2.74024 -0.425004 0
M  V30 9492 H 883.087 -1.57032 0.229511 0
M  V30 9493 H 883.108 -3.32474 -1.85044 0
M  V30 9494 H 882.62 -3.87938 -0.112035 0
M  V30 9495 H 880.721 -2.8787 -2.36562 0
M  V30 9496 H 880.834 -4.55098 -1.49741 0
M  V30 9497 H 879.198 -2.38741 -0.887394 0
M  V30 9498 H 879.981 -3.40486 0.438662 0
M  V30 9499 N 882.426 0.269451 -1.5528 0
M  V30 9500 C 883.703 1.02207 -1.66773 0
M  V30 9501 C 884.083 2.04168 -0.536536 0
M  V30 9502 O 883.431 2.23761 0.462956 0
M  V30 9503 C 883.641 1.67569 -3.0614 0
M  V30 9504 C 884.989 2.18599 -3.64005 0
M  V30 9505 O 886.013 1.7755 -3.08795 0
M  V30 9506 O 884.872 2.93903 -4.60742 0
M  V30 9507 H 881.966 0.474314 -0.677462 0
M  V30 9508 H 884.512 0.265026 -1.67618 0
M  V30 9509 H 883.284 0.937029 -3.79915 0
M  V30 9510 H 882.907 2.49951 -3.09209 0
M  V30 9511 N 883.904 1.48273 0.534124 0
M  V30 9512 C 885.181 1.46567 1.29528 0
M  V30 9513 C 885.561 0.17509 2.10373 0
M  V30 9514 O 884.909 -0.843228 2.12372 0
M  V30 9515 C 885.119 2.72519 2.18023 0
M  V30 9516 C 886.467 3.2068 2.78298 0
M  V30 9517 O 887.491 2.73408 2.28313 0
M  V30 9518 O 886.35 4.02924 3.69208 0
M  V30 9519 H 883.444 0.585151 0.584403 0
M  V30 9520 H 885.99 1.60502 0.551119 0
M  V30 9521 H 884.762 3.57965 1.5804 0
M  V30 9522 H 884.385 2.61285 2.99693 0
M  V30 9523 N 885.382 -0.782676 1.36792 0
M  V30 9524 C 886.314 -1.9044 1.27536 0
M  V30 9525 C 887.327 -1.61647 0.193426 0
M  V30 9526 O 888.516 -1.72769 0.448692 0
M  V30 9527 C 885.616 -3.2541 0.946641 0
M  V30 9528 C 884.789 -3.81932 2.13183 0
M  V30 9529 C 883.848 -4.95355 1.7751 0
M  V30 9530 O 882.874 -5.11517 2.49678 0
M  V30 9531 N 884.076 -5.76108 0.712755 0
M  V30 9532 H 886.841 -1.98899 2.24186 0
M  V30 9533 H 884.402 -0.96127 1.30274 0
M  V30 9534 H 886.394 -3.98791 0.689043 0
M  V30 9535 H 884.964 -3.12524 0.0690591 0
M  V30 9536 H 884.184 -3.00459 2.55183 0
M  V30 9537 H 885.472 -4.16426 2.92347 0
M  V30 9538 H 884.87 -5.65586 0.113662 0
M  V30 9539 H 883.427 -6.49762 0.514995 0
M  V30 9540 N 886.86 -1.21182 -1.00761 0
M  V30 9541 C 887.77 -0.984691 -2.12934 0
M  V30 9542 C 888.786 0.0623657 -1.73888 0
M  V30 9543 O 889.962 -0.1271 -2.00999 0
M  V30 9544 C 887.027 -0.549447 -3.42319 0
M  V30 9545 C 886.088 -1.66841 -3.95553 0
M  V30 9546 C 885.321 -1.25384 -5.18763 0
M  V30 9547 O 885.544 -0.126333 -5.7026 0
M  V30 9548 O 884.478 -2.06475 -5.65377 0
M  V30 9549 H 888.304 -1.92413 -2.3497 0
M  V30 9550 H 885.889 -0.99647 -1.11314 0
M  V30 9551 H 887.771 -0.316384 -4.20211 0
M  V30 9552 H 886.446 0.361304 -3.21677 0
M  V30 9553 H 885.353 -1.95585 -3.189 0
M  V30 9554 H 886.686 -2.55649 -4.206 0
M  V30 9555 N 888.338 1.20213 -1.01915 0
M  V30 9556 C 889.587 1.88968 -0.705261 0
M  V30 9557 C 889.9 1.79869 0.768531 0
M  V30 9558 O 891.106 2.43783 1.19508 0
M  V30 9559 C 889.562 3.38911 -1.21109 0
M  V30 9560 C 889.17 3.5659 -2.71197 0
M  V30 9561 C 890.914 4.13204 -0.97275 0
M  V30 9562 C 888.821 5.00372 -3.15248 0
M  V30 9563 H 887.751 0.707715 -0.260107 0
M  V30 9564 H 890.402 1.35977 -1.23217 0
M  V30 9565 H 888.784 3.9124 -0.612152 0
M  V30 9566 H 889.958 3.14635 -3.36662 0
M  V30 9567 H 888.273 2.95671 -2.93202 0
M  V30 9568 H 890.87 5.19221 -1.27726 0
M  V30 9569 H 891.213 4.16201 0.09072 0
M  V30 9570 H 891.746 3.66983 -1.5352 0
M  V30 9571 H 888.485 5.02532 -4.20882 0
M  V30 9572 H 888.005 5.43127 -2.54505 0
M  V30 9573 H 889.684 5.68969 -3.08032 0
M  V30 9574 N 889.816 0.795718 1.36037 0
M  V30 9575 C 890.748 0.156336 2.28666 0
M  V30 9576 C 891.761 -0.638075 1.49775 0
M  V30 9577 O 892.95 -0.472222 1.7214 0
M  V30 9578 C 890.05 -0.801417 3.29288 0
M  V30 9579 C 889.223 -0.0557118 4.37365 0
M  V30 9580 C 888.282 -0.930338 5.1791 0
M  V30 9581 O 887.308 -0.385266 5.67895 0
M  V30 9582 N 888.51 -2.25382 5.34961 0
M  V30 9583 H 891.275 0.952033 2.84177 0
M  V30 9584 H 888.836 0.650189 1.48271 0
M  V30 9585 H 890.828 -1.39051 3.80062 0
M  V30 9586 H 889.398 -1.49796 2.74372 0
M  V30 9587 H 888.618 0.714508 3.87671 0
M  V30 9588 H 889.906 0.458633 5.06729 0
M  V30 9589 H 889.304 -2.72073 4.95977 0
M  V30 9590 H 887.861 -2.79241 5.88955 0
M  V30 9591 N 891.294 -1.47756 0.548274 0
M  V30 9592 C 892.534 -2.04387 0.0231354 0
M  V30 9593 C 892.898 -1.41438 -1.29843 0
M  V30 9594 O 894.099 -1.89064 -1.91072 0
M  V30 9595 C 892.37 -3.57316 -0.077482 0
M  V30 9596 S 893.929 -4.35339 -0.550038 0
M  V30 9597 H 890.747 -0.710694 0.0208428 0
M  V30 9598 H 893.349 -1.81239 0.732984 0
M  V30 9599 H 892.053 -4.00658 0.88888 0
M  V30 9600 H 891.584 -3.84947 -0.811157 0
M  V30 9601 H 893.599 -4.61957 -1.81135 0
M  V30 9602 N 892.772 -0.284283 -1.55015 0
M  V30 9603 C 893.702 0.592663 -2.25853 0
M  V30 9604 C 894.683 1.15151 -1.25197 0
M  V30 9605 O 895.868 1.18395 -1.53936 0
M  V30 9606 C 892.998 1.77254 -2.98661 0
M  V30 9607 C 891.952 1.34482 -4.06323 0
M  V30 9608 C 891.278 2.60853 -4.66754 0
M  V30 9609 C 892.578 0.488288 -5.20013 0
M  V30 9610 H 894.272 0.00187041 -2.994 0
M  V30 9611 H 891.818 -0.000540402 -1.44 0
M  V30 9612 H 893.771 2.39199 -3.46932 0
M  V30 9613 H 892.495 2.38931 -2.22664 0
M  V30 9614 H 891.154 0.748519 -3.58877 0
M  V30 9615 H 890.802 3.20808 -3.87416 0
M  V30 9616 H 890.502 2.32942 -5.39455 0
M  V30 9617 H 892.026 3.23631 -5.1778 0
M  V30 9618 H 893.44 1.01298 -5.6428 0
M  V30 9619 H 891.837 0.303669 -5.99331 0
M  V30 9620 H 892.907 -0.490727 -4.8241 0
M  V30 9621 N 894.251 1.57596 -0.0117121 0
M  V30 9622 C 895.499 1.90694 0.669342 0
M  V30 9623 C 895.82 0.886999 1.73659 0
M  V30 9624 O 895.09 -0.0739779 1.9576 0
M  V30 9625 H 893.67 0.703846 0.250219 0
M  V30 9626 H 896.332 1.94821 -0.0554057 0
M  V30 9627 H 895.428 2.90802 1.13316 0
M  V30 9628 N 895.729 -0.261212 1.5542 0
M  V30 9629 C 896.659 -1.32712 1.92119 0
M  V30 9630 C 897.64 -1.50934 0.784406 0
M  V30 9631 O 898.825 -1.63781 1.04352 0
M  V30 9632 C 895.955 -2.68453 2.20341 0
M  V30 9633 C 894.909 -2.64947 3.36136 0
M  V30 9634 C 894.235 -4.04349 3.49865 0
M  V30 9635 C 895.535 -2.23182 4.72215 0
M  V30 9636 H 897.229 -1.02245 2.81401 0
M  V30 9637 H 894.775 -0.490406 1.35392 0
M  V30 9638 H 896.728 -3.43144 2.44603 0
M  V30 9639 H 895.452 -3.00527 1.27871 0
M  V30 9640 H 894.111 -1.92714 3.11861 0
M  V30 9641 H 893.759 -4.33665 2.5484 0
M  V30 9642 H 893.459 -4.02895 4.27726 0
M  V30 9643 H 894.983 -4.80761 3.76432 0
M  V30 9644 H 896.397 -2.87599 4.95943 0
M  V30 9645 H 894.794 -2.32867 5.53076 0
M  V30 9646 H 895.864 -1.18327 4.70241 0
M  V30 9647 N 897.207 -1.48554 -0.526253 0
M  V30 9648 C 898.432 -1.60686 -1.31129 0
M  V30 9649 C 898.857 -0.268701 -1.86171 0
M  V30 9650 O 898.215 0.760167 -1.64594 0
M  V30 9651 C 898.263 -2.65938 -2.43536 0
M  V30 9652 O 897.367 -2.23356 -3.46678 0
M  V30 9653 H 896.708 -0.538691 -0.388211 0
M  V30 9654 H 899.238 -1.94567 -0.632826 0
M  V30 9655 H 899.248 -2.87327 -2.89668 0
M  V30 9656 H 897.923 -3.63085 -2.02835 0
M  V30 9657 H 896.5 -2.12196 -3.06639 0
M  V30 9658 N 898.685 0.775411 -1.37205 0
M  V30 9659 C 899.615 1.90258 -1.35367 0
M  V30 9660 C 900.596 1.68634 -0.222864 0
M  V30 9661 O 901.781 1.89545 -0.422659 0
M  V30 9662 C 898.911 3.27488 -1.15623 0
M  V30 9663 C 897.865 3.63668 -2.25676 0
M  V30 9664 C 897.191 4.994 -1.91059 0
M  V30 9665 C 898.491 3.70797 -3.67841 0
M  V30 9666 H 900.185 1.92053 -2.29687 0
M  V30 9667 H 897.731 0.922597 -1.10563 0
M  V30 9668 H 899.684 4.05976 -1.12968 0
M  V30 9669 H 898.408 3.26117 -0.177573 0
M  V30 9670 H 897.067 2.87486 -2.2748 0
M  V30 9671 H 896.715 4.94565 -0.917324 0
M  V30 9672 H 896.415 5.24576 -2.64751 0
M  V30 9673 H 897.939 5.80291 -1.89985 0
M  V30 9674 H 899.353 4.39444 -3.68187 0
M  V30 9675 H 897.75 4.07468 -4.40556 0
M  V30 9676 H 898.82 2.71549 -4.01732 0
M  V30 9677 N 900.163 1.21714 1.00117 0
M  V30 9678 C 901.412 1.03087 1.73367 0
M  V30 9679 C 901.725 -0.435532 1.90689 0
M  V30 9680 O 902.931 -0.741291 2.61184 0
M  V30 9681 C 901.387 1.79593 3.11888 0
M  V30 9682 C 900.995 3.30428 3.02525 0
M  V30 9683 C 902.739 1.69386 3.89241 0
M  V30 9684 C 900.646 3.99408 4.3615 0
M  V30 9685 H 899.576 0.382117 0.650002 0
M  V30 9686 H 902.227 1.45486 1.11831 0
M  V30 9687 H 900.609 1.29988 3.74058 0
M  V30 9688 H 901.783 3.87364 2.49571 0
M  V30 9689 H 900.098 3.4122 2.38659 0
M  V30 9690 H 902.695 2.18251 4.8813 0
M  V30 9691 H 903.038 0.652773 4.1115 0
M  V30 9692 H 903.571 2.16489 3.33733 0
M  V30 9693 H 900.31 5.03735 4.19442 0
M  V30 9694 H 899.83 3.47261 4.8905 0
M  V30 9695 H 901.509 4.04537 5.04934 0
M  V30 9696 N 901.641 -1.19671 1.02551 0
M  V30 9697 C 902.889 -1.88894 0.71858 0
M  V30 9698 C 903.21 -1.79797 -0.754856 0
M  V30 9699 O 902.48 -1.20621 -1.54362 0
M  V30 9700 H 901.06 -0.699244 0.262806 0
M  V30 9701 H 903.722 -1.45298 1.29902 0
M  V30 9702 H 902.818 -2.95309 1.00989 0
M  V30 9703 N 903.119 -0.802921 -1.35613 0
M  V30 9704 C 904.349 -0.393359 -2.02821 0
M  V30 9705 C 904.757 0.999282 -1.60658 0
M  V30 9706 O 904.1 1.65463 -0.797977 0
M  V30 9707 C 904.162 -0.393102 -3.57344 0
M  V30 9708 C 903.826 -1.73563 -4.22759 0
M  V30 9709 C 904.823 -2.69333 -4.44698 0
M  V30 9710 C 902.508 -2.01863 -4.59953 0
M  V30 9711 C 904.502 -3.91589 -5.02928 0
M  V30 9712 C 902.189 -3.24383 -5.17898 0
M  V30 9713 C 903.187 -4.19064 -5.39328 0
M  V30 9714 O 902.875 -5.39422 -5.96053 0
M  V30 9715 H 902.607 -0.158431 -0.657172 0
M  V30 9716 H 905.161 -1.08682 -1.74291 0
M  V30 9717 H 903.391 0.356934 -3.85049 0
M  V30 9718 H 905.08 -0.00635596 -4.059 0
M  V30 9719 H 905.846 -2.48759 -4.16346 0
M  V30 9720 H 901.725 -1.28979 -4.42589 0
M  V30 9721 H 905.269 -4.65502 -5.1957 0
M  V30 9722 H 901.166 -3.44829 -5.45677 0
M  V30 9723 H 901.934 -5.40669 -6.14507 0
M  V30 9724 N 904.597 1.47463 -0.556102 0
M  V30 9725 C 905.527 2.32801 0.180497 0
M  V30 9726 C 906.508 1.43721 0.909848 0
M  V30 9727 O 907.693 1.72578 0.89053 0
M  V30 9728 C 904.823 3.25478 1.21167 0
M  V30 9729 C 903.777 4.2379 0.598846 0
M  V30 9730 C 903.103 5.05783 1.73457 0
M  V30 9731 C 904.403 5.20387 -0.446659 0
M  V30 9732 H 906.097 2.94636 -0.531956 0
M  V30 9733 H 903.643 1.41683 -0.257267 0
M  V30 9734 H 905.596 3.8402 1.73513 0
M  V30 9735 H 904.32 2.61695 1.95405 0
M  V30 9736 H 902.979 3.66472 0.0966897 0
M  V30 9737 H 902.627 4.38405 2.46596 0
M  V30 9738 H 902.327 5.72343 1.33031 0
M  V30 9739 H 903.851 5.67183 2.26131 0
M  V30 9740 H 905.265 5.73299 -0.00930019 0
M  V30 9741 H 903.662 5.95143 -0.769735 0
M  V30 9742 H 904.732 4.65932 -1.34295 0
M  V30 9743 N 906.075 0.2925 1.54862 0
M  V30 9744 C 907.324 -0.319994 1.99146 0
M  V30 9745 C 907.637 -1.55658 1.18448 0
M  V30 9746 O 908.843 -2.24312 1.52959 0
M  V30 9747 C 907.299 -0.620665 3.54508 0
M  V30 9748 C 906.907 0.597098 4.44003 0
M  V30 9749 C 908.651 -1.19482 4.07338 0
M  V30 9750 C 906.558 0.270049 5.90783 0
M  V30 9751 H 905.488 -0.123342 0.743843 0
M  V30 9752 H 908.139 0.399876 1.7909 0
M  V30 9753 H 906.521 -1.3999 3.7043 0
M  V30 9754 H 907.695 1.37354 4.39853 0
M  V30 9755 H 906.01 1.0893 4.019 0
M  V30 9756 H 908.607 -1.45362 5.14562 0
M  V30 9757 H 908.95 -2.13435 3.57423 0
M  V30 9758 H 909.483 -0.477485 3.94924 0
M  V30 9759 H 906.222 1.17791 6.4483 0
M  V30 9760 H 905.742 -0.469292 5.97961 0
M  V30 9761 H 907.421 -0.131471 6.46866 0
M  V30 9762 N 907.553 -1.57587 0.0200696 0
M  V30 9763 C 908.781 -1.95718 -0.670964 0
M  V30 9764 C 909.196 -0.896081 -1.6618 0
M  V30 9765 O 908.553 0.123037 -1.82085 0
M  V30 9766 C 908.604 -3.33904 -1.38529 0
M  V30 9767 O 908.325 -4.35943 -0.434167 0
M  V30 9768 C 909.826 -3.86614 -2.16898 0
M  V30 9769 H 907.046 -0.644819 -0.185606 0
M  V30 9770 H 909.59 -2.04354 0.0771495 0
M  V30 9771 H 907.745 -3.26515 -2.08487 0
M  V30 9772 H 908.159 -5.16001 -0.940378 0
M  V30 9773 H 909.633 -4.85673 -2.62346 0
M  V30 9774 H 910.11 -3.20379 -3.00423 0
M  V30 9775 H 910.716 -3.97243 -1.51916 0
M  V30 9776 N 909.032 0.252966 -1.55557 0
M  V30 9777 C 909.979 1.3131 -1.89806 0
M  V30 9778 C 910.949 1.48121 -0.751633 0
M  V30 9779 O 912.134 1.62202 -1.00474 0
M  V30 9780 C 909.274 2.66467 -2.19293 0
M  V30 9781 C 908.387 2.57714 -3.46709 0
M  V30 9782 C 907.522 3.85184 -3.65796 0
M  V30 9783 C 906.561 3.71023 -4.86835 0
M  V30 9784 N 905.698 4.90371 -5.02474 0
M  V30 9785 H 910.538 1.01402 -2.80217 0
M  V30 9786 H 908.075 0.489462 -1.38718 0
M  V30 9787 H 910.033 3.45132 -2.34392 0
M  V30 9788 H 908.663 2.94536 -1.32093 0
M  V30 9789 H 907.715 1.70651 -3.39974 0
M  V30 9790 H 909.027 2.43158 -4.35517 0
M  V30 9791 H 908.181 4.72292 -3.80822 0
M  V30 9792 H 906.92 4.0263 -2.7521 0
M  V30 9793 H 905.925 2.82299 -4.71792 0
M  V30 9794 H 907.15 3.55078 -5.78875 0
M  V30 9795 H 905.096 5.0819 -4.14824 0
M  V30 9796 H 905.013 4.78423 -5.85361 0
M  V30 9797 H 906.281 5.78995 -5.21905 0
M  V30 9798 N 910.51 1.48831 0.518367 0
M  V30 9799 C 911.457 1.64216 1.62178 0
M  V30 9800 C 912.427 0.483942 1.58894 0
M  V30 9801 O 913.612 0.708857 1.77144 0
M  V30 9802 C 910.752 1.69867 3.00399 0
M  V30 9803 C 909.865 2.96875 3.1383 0
M  V30 9804 C 909 2.93613 4.42679 0
M  V30 9805 C 908.039 4.15276 4.4968 0
M  V30 9806 N 907.176 4.10024 5.69934 0
M  V30 9807 H 912.016 2.58439 1.48368 0
M  V30 9808 H 909.553 1.28154 0.722152 0
M  V30 9809 H 911.511 1.71124 3.8049 0
M  V30 9810 H 910.141 0.791249 3.12952 0
M  V30 9811 H 909.193 3.0531 2.26914 0
M  V30 9812 H 910.505 3.86863 3.14863 0
M  V30 9813 H 909.659 2.93337 5.31073 0
M  V30 9814 H 908.398 2.01375 4.44184 0
M  V30 9815 H 907.403 4.15816 3.59691 0
M  V30 9816 H 908.628 5.08687 4.49904 0
M  V30 9817 H 906.574 3.20613 5.72314 0
M  V30 9818 H 906.491 4.93728 5.72511 0
M  V30 9819 H 907.759 4.13824 6.60583 0
M  V30 9820 N 911.988 -0.768124 1.37614 0
M  V30 9821 C 912.936 -1.9029 1.33763 0
M  V30 9822 C 913.93 -1.67888 0.225814 0
M  V30 9823 O 915.136 -1.75634 0.394043 0
M  V30 9824 H 911.511 -0.625828 0.416945 0
M  V30 9825 H 913.482 -1.90654 2.29551 0
M  V30 9826 C 912.231 -3.27598 1.16511 0
M  V30 9827 H 911.554 -3.45414 2.01318 0
M  V30 9828 H 912.994 -4.07288 1.17867 0
M  V30 9829 C 911.453 -3.36653 -0.129001 0
M  V30 9830 O 911.983 -3.86023 -1.11128 0
M  V30 9831 N 910.189 -2.90036 -0.180926 0
M  V30 9832 H 909.736 -2.5005 0.619076 0
M  V30 9833 H 909.694 -2.96475 -1.04641 0
M  V30 9834 N 913.466 -1.22244 -0.994698 0
M  V30 9835 C 914.712 -1.04746 -1.73655 0
M  V30 9836 C 915.045 0.41668 -1.89677 0
M  V30 9837 O 914.32 1.30897 -1.43862 0
M  V30 9838 C 914.603 -1.75716 -3.14318 0
M  V30 9839 C 914.456 -3.29714 -3.05955 0
M  V30 9840 C 915.775 -1.50809 -4.13455 0
M  V30 9841 H 912.894 -0.381921 -0.630322 0
M  V30 9842 H 915.536 -1.50559 -1.15897 0
M  V30 9843 H 913.686 -1.3677 -3.63629 0
M  V30 9844 H 915.358 -3.78093 -2.64279 0
M  V30 9845 H 913.601 -3.59484 -2.42804 0
M  V30 9846 H 914.272 -3.74547 -4.05485 0
M  V30 9847 H 916.748 -1.84636 -3.72892 0
M  V30 9848 H 915.624 -2.02964 -5.09997 0
M  V30 9849 H 915.885 -0.440292 -4.39902 0
M  V30 9850 N 914.944 1.19125 -1.03184 0
M  V30 9851 C 916.191 1.88883 -0.730029 0
M  V30 9852 C 916.519 1.79807 0.741602 0
M  V30 9853 O 915.774 1.18686 1.55603 0
M  V30 9854 C 916.073 3.39052 -1.13041 0
M  V30 9855 C 915.739 3.68332 -2.60082 0
M  V30 9856 C 914.401 3.76033 -3.00254 0
M  V30 9857 C 916.753 3.81423 -3.55199 0
M  V30 9858 C 914.081 3.94296 -4.34451 0
M  V30 9859 C 916.433 4.012 -4.89103 0
M  V30 9860 C 915.097 4.07134 -5.28959 0
M  V30 9861 H 914.367 0.691172 -0.267137 0
M  V30 9862 H 917.014 1.41053 -1.29523 0
M  V30 9863 H 915.319 3.88801 -0.48386 0
M  V30 9864 H 917.016 3.91351 -0.874368 0
M  V30 9865 H 913.606 3.62948 -2.27961 0
M  V30 9866 H 917.79 3.74814 -3.25313 0
M  V30 9867 H 913.046 3.97131 -4.64863 0
M  V30 9868 H 917.22 4.10271 -5.62717 0
M  V30 9869 H 914.847 4.21038 -6.32954 0
M  V30 9870 N 916.422 0.810101 1.35185 0
M  V30 9871 C 917.671 0.388589 1.97921 0
M  V30 9872 C 917.984 -1.05079 1.64978 0
M  V30 9873 O 919.19 -1.57559 2.21105 0
M  V30 9874 C 917.646 0.643864 3.54094 0
M  V30 9875 C 917.254 2.09602 3.95943 0
M  V30 9876 C 918.998 0.287883 4.23523 0
M  V30 9877 C 916.905 2.29686 5.44976 0
M  V30 9878 H 915.835 0.141562 0.740592 0
M  V30 9879 H 918.486 0.994653 1.54204 0
M  V30 9880 H 916.868 -0.0321978 3.95987 0
M  V30 9881 H 918.042 2.81018 3.65192 0
M  V30 9882 H 916.357 2.4122 3.39414 0
M  V30 9883 H 918.954 0.415946 5.3308 0
M  V30 9884 H 919.297 -0.766305 4.09186 0
M  V30 9885 H 919.83 0.918004 3.87063 0
M  V30 9886 H 916.569 3.33563 5.64284 0
M  V30 9887 H 916.089 1.62798 5.77284 0
M  V30 9888 H 917.768 2.11411 6.11485 0
M  V30 9889 N 917.9 -1.47166 0.563914 0
M  V30 9890 C 919.148 -2.02056 0.0422873 0
M  V30 9891 C 919.469 -1.43992 -1.31497 0
M  V30 9892 O 918.739 -0.617578 -1.85911 0
M  V30 9893 H 917.319 -0.746893 0.0126427 0
M  V30 9894 H 919.981 -1.80492 0.735441 0
M  V30 9895 H 919.077 -3.12073 -0.0408044 0
M  V30 9896 N 919.378 -0.300708 -1.54705 0
M  V30 9897 C 920.606 0.31127 -2.04545 0
M  V30 9898 C 921.021 1.47542 -1.178 0
M  V30 9899 O 920.378 1.81361 -0.203571 0
M  V30 9900 C 920.429 0.767783 -3.53253 0
M  V30 9901 O 920.15 -0.350027 -4.36699 0
M  V30 9902 C 921.651 1.44494 -4.1909 0
M  V30 9903 H 918.871 0.067668 -0.667579 0
M  V30 9904 H 921.415 -0.440254 -1.99705 0
M  V30 9905 H 919.57 1.46933 -3.58454 0
M  V30 9906 H 919.984 0.00534038 -5.245 0
M  V30 9907 H 921.458 1.71553 -5.24665 0
M  V30 9908 H 921.935 2.3849 -3.68808 0
M  V30 9909 H 922.541 0.786581 -4.17963 0
M  V30 9910 N 920.856 1.57574 -0.0284266 0
M  V30 9911 C 922.104 1.91393 0.649079 0
M  V30 9912 C 922.425 0.905368 1.72708 0
M  V30 9913 O 921.695 -0.0532107 1.95828 0
M  V30 9914 H 920.275 0.70646 0.24274 0
M  V30 9915 H 922.937 1.94752 -0.076066 0
M  V30 9916 H 922.033 2.91988 1.10226 0
M  V30 9917 N 922.334 -0.244713 1.55689 0
M  V30 9918 C 923.284 -1.30596 1.86892 0
M  V30 9919 C 924.268 -1.43388 0.729972 0
M  V30 9920 O 925.46 -1.46593 0.99194 0
M  V30 9921 C 922.589 -2.66099 2.16902 0
M  V30 9922 C 921.675 -2.57302 3.37129 0
M  V30 9923 N 922.066 -2.18139 4.56343 0
M  V30 9924 C 920.364 -2.88311 3.40283 0
M  V30 9925 C 921.065 -2.20028 5.38482 0
M  V30 9926 N 920.041 -2.59616 4.77599 0
M  V30 9927 H 923.843 -0.993699 2.76591 0
M  V30 9928 H 921.357 -0.453334 1.55944 0
M  V30 9929 H 923.354 -3.4269 2.37422 0
M  V30 9930 H 922.014 -2.9819 1.28502 0
M  V30 9931 H 923.025 -1.89647 4.81928 0
M  V30 9932 H 919.702 -3.24928 2.62161 0
M  V30 9933 H 921.092 -1.9207 6.43862 0
M  V30 9934 N 923.813 -1.49104 -0.510467 0
M  V30 9935 C 924.743 -1.67981 -1.62187 0
M  V30 9936 C 925.724 -0.528529 -1.6168 0
M  V30 9937 O 926.909 -0.763305 -1.7857 0
M  V30 9938 C 924.039 -1.73755 -3.0071 0
M  V30 9939 C 922.993 -2.88579 -3.1608 0
M  V30 9940 C 922.319 -2.79457 -4.5586 0
M  V30 9941 C 923.619 -4.29638 -2.97 0
M  V30 9942 H 925.313 -2.61029 -1.46643 0
M  V30 9943 H 922.859 -1.25615 -0.704042 0
M  V30 9944 H 924.812 -1.85548 -3.78352 0
M  V30 9945 H 923.536 -0.772996 -3.17321 0
M  V30 9946 H 922.195 -2.76372 -2.40861 0
M  V30 9947 H 921.843 -1.80929 -4.69333 0
M  V30 9948 H 921.543 -3.56518 -4.67086 0
M  V30 9949 H 923.067 -2.93245 -5.35574 0
M  V30 9950 H 924.481 -4.42575 -3.64418 0
M  V30 9951 H 922.878 -5.07847 -3.19704 0
M  V30 9952 H 923.948 -4.44741 -1.93219 0
M  V30 9953 N 925.291 0.760815 -1.38019 0
M  V30 9954 C 926.221 1.88811 -1.37377 0
M  V30 9955 C 927.202 1.68388 -0.240737 0
M  V30 9956 O 928.387 1.89086 -0.442739 0
M  V30 9957 C 925.517 3.26244 -1.1909 0
M  V30 9958 C 924.471 3.61254 -2.29521 0
M  V30 9959 C 923.797 4.97346 -1.96345 0
M  V30 9960 C 925.097 3.66874 -3.71753 0
M  V30 9961 H 926.791 1.89606 -2.31711 0
M  V30 9962 H 924.337 0.910818 -1.11535 0
M  V30 9963 H 926.29 4.04755 -1.17267 0
M  V30 9964 H 925.014 3.2591 -0.212152 0
M  V30 9965 H 923.673 2.85057 -2.30517 0
M  V30 9966 H 923.321 4.93564 -0.969728 0
M  V30 9967 H 923.021 5.21739 -2.703 0
M  V30 9968 H 924.545 5.78244 -1.96129 0
M  V30 9969 H 925.959 4.35514 -3.72828 0
M  V30 9970 H 924.356 4.02772 -4.44853 0
M  V30 9971 H 925.426 2.67273 -4.0459 0
M  V30 9972 N 926.769 1.22769 0.988202 0
M  V30 9973 C 927.732 1.00325 2.06076 0
M  V30 9974 C 928.732 -0.0320618 1.60768 0
M  V30 9975 O 929.922 0.206912 1.72967 0
M  V30 9976 C 927.054 0.516376 3.36966 0
M  V30 9977 H 928.247 1.95499 2.27421 0
M  V30 9978 H 925.8 1.04704 1.16047 0
M  V30 9979 H 926.535 -0.439498 3.21308 0
M  V30 9980 H 926.32 1.26337 3.71189 0
M  V30 9981 H 927.81 0.37974 4.1587 0
M  V30 9982 N 928.247 -1.18576 1.03814 0
M  V30 9983 C 929.194 -2.2212 0.626988 0
M  V30 9984 C 930.164 -1.62064 -0.363912 0
M  V30 9985 O 931.349 -1.89041 -0.258469 0
M  V30 9986 C 928.489 -3.45099 -0.00650133 0
M  V30 9987 C 927.602 -4.19503 1.03156 0
M  V30 9988 C 926.737 -5.29932 0.366852 0
M  V30 9989 C 925.776 -5.96104 1.39018 0
M  V30 9990 N 924.913 -6.98076 0.750625 0
M  V30 9991 H 929.753 -2.56646 1.51449 0
M  V30 9992 H 927.29 -1.26084 0.757702 0
M  V30 9993 H 929.248 -4.15363 -0.391108 0
M  V30 9994 H 927.878 -3.11201 -0.857536 0
M  V30 9995 H 926.93 -3.48092 1.53414 0
M  V30 9996 H 928.242 -4.64843 1.80893 0
M  V30 9997 H 927.396 -6.06657 -0.0720979 0
M  V30 9998 H 926.135 -4.85687 -0.442631 0
M  V30 9999 H 925.14 -5.18122 1.8393 0
M  V30 10000 H 926.365 -6.42432 2.20132 0
M  V30 10001 H 924.311 -6.55989 -0.0385981 0
M  V30 10002 H 924.228 -7.41655 1.46574 0
M  V30 10003 H 925.496 -7.78776 0.335986 0
M  V30 10004 N 929.725 -0.817259 -1.34754 0
M  V30 10005 C 930.974 -0.39908 -1.97713 0
M  V30 10006 C 931.287 1.04203 -1.65533 0
M  V30 10007 O 932.493 1.56384 -2.21937 0
M  V30 10008 C 930.949 -0.662634 -3.53747 0
M  V30 10009 C 930.557 -2.11699 -3.94826 0
M  V30 10010 C 932.301 -0.31034 -4.23364 0
M  V30 10011 C 930.208 -2.32573 -5.4375 0
M  V30 10012 H 929.138 -0.145488 -0.739831 0
M  V30 10013 H 931.789 -1.00282 -1.53674 0
M  V30 10014 H 930.171 0.0111972 -3.95998 0
M  V30 10015 H 931.345 -2.82951 -3.63697 0
M  V30 10016 H 929.66 -2.43017 -3.3813 0
M  V30 10017 H 932.257 -0.44421 -5.32852 0
M  V30 10018 H 932.6 0.744594 -4.09587 0
M  V30 10019 H 933.133 -0.938518 -3.8657 0
M  V30 10020 H 929.872 -3.36551 -5.62507 0
M  V30 10021 H 929.392 -1.65858 -5.76412 0
M  V30 10022 H 931.071 -2.14651 -6.10356 0
M  V30 10023 N 931.203 1.46865 -0.571711 0
M  V30 10024 C 932.133 2.3298 0.155795 0
M  V30 10025 C 933.114 1.44678 0.894553 0
M  V30 10026 O 934.299 1.73513 0.872176 0
M  V30 10027 C 931.429 3.26745 1.17708 0
M  V30 10028 C 930.383 4.24401 0.553863 0
M  V30 10029 C 929.709 5.07595 1.68083 0
M  V30 10030 C 931.009 5.19884 -0.501827 0
M  V30 10031 H 932.703 2.94056 -0.563176 0
M  V30 10032 H 930.249 1.41402 -0.27228 0
M  V30 10033 H 932.202 3.85838 1.6943 0
M  V30 10034 H 930.926 2.63753 1.92618 0
M  V30 10035 H 929.585 3.66554 0.057815 0
M  V30 10036 H 929.233 4.40996 2.41933 0
M  V30 10037 H 928.933 5.73722 1.26953 0
M  V30 10038 H 930.457 5.6955 2.20103 0
M  V30 10039 H 931.871 5.73257 -0.0701057 0
M  V30 10040 H 930.268 5.94293 -0.832815 0
M  V30 10041 H 931.338 4.64482 -1.39229 0
M  V30 10042 N 932.681 0.308908 1.54543 0
M  V30 10043 C 933.927 -0.298478 2.00592 0
M  V30 10044 C 934.26 -1.52929 1.19692 0
M  V30 10045 O 933.535 -1.9254 0.27542 0
M  V30 10046 C 933.818 -0.647218 3.54236 0
M  V30 10047 C 933.671 0.593284 4.4587 0
M  V30 10048 C 934.99 -1.47064 4.14801 0
M  V30 10049 H 932.109 -0.107012 0.72919 0
M  V30 10050 H 934.751 0.422578 1.85241 0
M  V30 10051 H 932.901 -1.26153 3.67447 0
M  V30 10052 H 934.573 1.2317 4.44552 0
M  V30 10053 H 932.816 1.22501 4.16144 0
M  V30 10054 H 933.487 0.305018 5.51157 0
M  V30 10055 H 935.963 -0.951511 4.05075 0
M  V30 10056 H 934.839 -1.68343 5.22448 0
M  V30 10057 H 935.1 -2.4623 3.67183 0
M  V30 10058 N 934.159 -1.57557 0.0367827 0
M  V30 10059 C 935.384 -1.96828 -0.653707 0
M  V30 10060 C 935.809 -0.913559 -1.64425 0
M  V30 10061 O 935.167 0.124749 -1.8087 0
M  V30 10062 C 935.215 -3.35189 -1.32969 0
M  V30 10063 O 934.319 -3.32095 -2.44513 0
M  V30 10064 H 933.66 -0.64157 -0.171124 0
M  V30 10065 H 936.19 -2.04351 0.100912 0
M  V30 10066 H 936.2 -3.71593 -1.68472 0
M  V30 10067 H 934.875 -4.11496 -0.603654 0
M  V30 10068 H 933.452 -3.07418 -2.11065 0
M  V30 10069 N 935.637 0.236453 -1.55816 0
M  V30 10070 C 936.862 0.98449 -1.82545 0
M  V30 10071 C 937.287 1.77755 -0.615206 0
M  V30 10072 O 936.645 1.75982 0.435895 0
M  V30 10073 C 936.693 1.88973 -3.07118 0
M  V30 10074 O 935.797 2.98298 -2.84766 0
M  V30 10075 H 935.138 0.279577 -0.602273 0
M  V30 10076 H 937.668 0.254277 -2.03014 0
M  V30 10077 H 937.678 2.3024 -3.36829 0
M  V30 10078 H 936.353 1.30671 -3.94839 0
M  V30 10079 H 934.93 2.61085 -2.6625 0
M  V30 10080 N 937.115 1.49373 0.502552 0
M  V30 10081 C 938.045 1.68839 1.61294 0
M  V30 10082 C 939.026 0.537096 1.61398 0
M  V30 10083 O 940.211 0.772764 1.78163 0
M  V30 10084 C 937.341 1.75347 2.99784 0
M  V30 10085 C 936.295 2.90251 3.14545 0
M  V30 10086 C 935.621 2.8187 4.54371 0
M  V30 10087 C 936.921 4.31207 2.94717 0
M  V30 10088 H 938.615 2.61803 1.45257 0
M  V30 10089 H 936.161 1.25987 0.697371 0
M  V30 10090 H 938.114 1.87552 3.77362 0
M  V30 10091 H 936.838 0.789814 3.16906 0
M  V30 10092 H 935.497 2.77646 2.39392 0
M  V30 10093 H 935.145 1.83416 4.68367 0
M  V30 10094 H 934.845 3.5899 4.65188 0
M  V30 10095 H 936.369 2.96081 5.34012 0
M  V30 10096 H 937.783 4.44501 3.62065 0
M  V30 10097 H 936.18 5.09536 3.17007 0
M  V30 10098 H 937.25 4.45759 1.90857 0
M  V30 10099 N 938.594 -0.753485 1.38421 0
M  V30 10100 C 939.824 -1.54049 1.37669 0
M  V30 10101 C 940.232 -1.89167 -0.0353656 0
M  V30 10102 O 939.575 -1.53285 -1.01239 0
M  V30 10103 C 939.637 -2.86777 2.16793 0
M  V30 10104 C 939.301 -2.74196 3.65603 0
M  V30 10105 C 940.298 -2.43985 4.59094 0
M  V30 10106 C 937.983 -2.91645 4.0896 0
M  V30 10107 C 939.977 -2.31379 5.93921 0
M  V30 10108 C 937.664 -2.78658 5.43868 0
M  V30 10109 C 938.662 -2.48568 6.36163 0
M  V30 10110 O 938.35 -2.3564 7.68589 0
M  V30 10111 H 938.082 -0.483276 0.472673 0
M  V30 10112 H 940.636 -0.940267 1.82615 0
M  V30 10113 H 938.866 -3.48988 1.66565 0
M  V30 10114 H 940.555 -3.48289 2.08446 0
M  V30 10115 H 941.321 -2.30172 4.26902 0
M  V30 10116 H 937.2 -3.14063 3.37469 0
M  V30 10117 H 940.744 -2.07813 6.65927 0
M  V30 10118 H 936.641 -2.92044 5.75656 0
M  V30 10119 H 937.409 -2.50851 7.79112 0
M  V30 10120 N 940.072 -1.23292 -0.981677 0
M  V30 10121 C 941.488 -0.995295 -1.24764 0
M  V30 10122 C 941.688 0.304379 -1.99188 0
M  V30 10123 O 940.744 1.02414 -2.30798 0
M  V30 10124 C 942.057 -2.20135 -2.04844 0
M  V30 10125 C 943.605 -2.24612 -2.17988 0
M  V30 10126 C 944.08 -3.448 -3.01458 0
M  V30 10127 N 945.571 -3.45031 -3.09044 0
M  V30 10128 C 946.306 -4.34683 -3.7395 0
M  V30 10129 N 945.802 -5.34569 -4.4069 0
M  V30 10130 N 947.595 -4.22429 -3.70823 0
M  V30 10131 H 939.746 -2.06834 -0.483052 0
M  V30 10132 H 942.009 -0.906929 -0.276014 0
M  V30 10133 H 941.715 -3.14446 -1.57532 0
M  V30 10134 H 941.589 -2.21115 -3.05594 0
M  V30 10135 H 943.976 -1.30841 -2.64508 0
M  V30 10136 H 944.057 -2.27664 -1.16631 0
M  V30 10137 H 943.701 -4.38877 -2.55635 0
M  V30 10138 H 943.631 -3.38988 -4.02982 0
M  V30 10139 H 946.122 -2.72759 -2.61555 0
M  V30 10140 H 946.435 -5.99236 -4.87991 0
M  V30 10141 H 944.78 -5.3847 -4.39403 0
M  V30 10142 H 947.971 -3.43639 -3.17851 0
M  V30 10143 H 948.144 -4.92501 -4.21126 0
M  V30 10144 N 941.55 1.18024 -1.04442 0
M  V30 10145 C 942.797 1.88098 -0.750022 0
M  V30 10146 C 943.125 1.80583 0.722489 0
M  V30 10147 O 942.38 1.20329 1.54335 0
M  V30 10148 C 942.679 3.37834 -1.16631 0
M  V30 10149 C 942.345 3.65553 -2.63974 0
M  V30 10150 C 941.007 3.72827 -3.04226 0
M  V30 10151 C 943.359 3.77634 -3.59224 0
M  V30 10152 C 940.687 3.89666 -4.38608 0
M  V30 10153 C 943.039 3.9599 -4.9333 0
M  V30 10154 C 941.703 4.01501 -5.33248 0
M  V30 10155 H 940.973 0.6883 -0.274452 0
M  V30 10156 H 943.62 1.39671 -1.31012 0
M  V30 10157 H 941.925 3.88266 -0.525071 0
M  V30 10158 H 943.622 3.90402 -0.915827 0
M  V30 10159 H 940.212 3.6051 -2.31798 0
M  V30 10160 H 944.396 3.71342 -3.2927 0
M  V30 10161 H 939.652 3.92178 -4.69048 0
M  V30 10162 H 943.826 4.0428 -5.67037 0
M  V30 10163 H 941.453 4.14301 -6.37384 0
M  V30 10164 N 943.028 0.824394 1.34319 0
M  V30 10165 C 943.975 0.245282 2.29493 0
M  V30 10166 C 944.945 -0.630762 1.53657 0
M  V30 10167 O 946.13 -0.572094 1.82021 0
M  V30 10168 C 943.27 -0.585631 3.40095 0
M  V30 10169 C 942.383 0.312821 4.30866 0
M  V30 10170 C 941.518 -0.527801 5.28571 0
M  V30 10171 C 940.557 0.369946 6.10981 0
M  V30 10172 N 939.694 -0.43169 7.00772 0
M  V30 10173 H 944.534 1.06225 2.78425 0
M  V30 10174 H 942.071 0.53533 1.37013 0
M  V30 10175 H 944.029 -1.08271 4.02906 0
M  V30 10176 H 942.659 -1.3677 2.92393 0
M  V30 10177 H 941.711 0.928129 3.68904 0
M  V30 10178 H 943.023 1.00306 4.8861 0
M  V30 10179 H 942.177 -1.0893 5.96841 0
M  V30 10180 H 940.916 -1.25154 4.71368 0
M  V30 10181 H 939.921 0.943577 5.41643 0
M  V30 10182 H 941.146 1.09182 6.70266 0
M  V30 10183 H 939.092 -1.13908 6.46035 0
M  V30 10184 H 939.009 0.200133 7.55735 0
M  V30 10185 H 940.277 -0.975894 7.73367 0
M  V30 10186 N 944.506 -1.46559 0.579492 0
M  V30 10187 C 945.783 -1.956 -0.00287136 0
M  V30 10188 C 946.163 -1.52215 -1.46266 0
M  V30 10189 O 945.511 -0.771335 -2.15088 0
M  V30 10190 C 945.721 -3.48606 0.165824 0
M  V30 10191 C 947.069 -4.24588 0.0319807 0
M  V30 10192 O 948.093 -3.56075 0.094496 0
M  V30 10193 O 946.952 -5.46396 -0.106386 0
M  V30 10194 H 944.046 -0.825387 -0.0516274 0
M  V30 10195 H 946.592 -1.56858 0.647584 0
M  V30 10196 H 945.364 -3.7306 1.18076 0
M  V30 10197 H 944.987 -3.94169 -0.521212 0
M  V30 10198 N 945.984 -0.3171 -1.54377 0
M  V30 10199 C 947.23 0.287836 -2.00747 0
M  V30 10200 C 947.563 1.52292 -1.20502 0
M  V30 10201 O 946.838 1.92391 -0.285626 0
M  V30 10202 C 947.121 0.628423 -3.54574 0
M  V30 10203 C 946.974 -0.616922 -4.45549 0
M  V30 10204 C 948.293 1.44862 -4.15575 0
M  V30 10205 H 945.412 0.103144 -0.729747 0
M  V30 10206 H 948.054 -0.432396 -1.85014 0
M  V30 10207 H 946.204 1.24203 -3.68111 0
M  V30 10208 H 947.876 -1.25526 -4.43893 0
M  V30 10209 H 946.119 -1.24706 -4.15489 0
M  V30 10210 H 946.79 -0.334243 -5.50987 0
M  V30 10211 H 949.266 0.930015 -4.05574 0
M  V30 10212 H 948.142 1.6557 -5.23333 0
M  V30 10213 H 948.403 2.44279 -3.68484 0
M  V30 10214 N 947.462 1.57535 -0.0451378 0
M  V30 10215 C 948.425 2.1008 0.916461 0
M  V30 10216 C 949.425 1.01913 1.2438 0
M  V30 10217 O 950.615 1.2801 1.18148 0
M  V30 10218 C 947.747 2.58001 2.22818 0
M  V30 10219 H 948.94 2.96334 0.461076 0
M  V30 10220 H 946.493 1.54974 0.203169 0
M  V30 10221 H 947.228 1.75123 2.72951 0
M  V30 10222 H 947.013 3.3704 2.00366 0
M  V30 10223 H 948.503 2.98822 2.9171 0
M  V30 10224 N 948.94 -0.228186 1.55939 0
M  V30 10225 C 949.85 -1.30386 1.9503 0
M  V30 10226 C 950.866 -1.51645 0.853218 0
M  V30 10227 O 952.042 -1.64904 1.15623 0
M  V30 10228 C 949.107 -2.63489 2.25332 0
M  V30 10229 C 948.168 -2.5059 3.48573 0
M  V30 10230 C 947.401 -3.77345 3.7742 0
M  V30 10231 O 947.624 -4.80067 3.08045 0
M  V30 10232 O 946.558 -3.74855 4.70922 0
M  V30 10233 H 950.384 -1.0022 2.86687 0
M  V30 10234 H 947.969 -0.430503 1.43063 0
M  V30 10235 H 949.851 -3.4211 2.46046 0
M  V30 10236 H 948.526 -2.93349 1.3685 0
M  V30 10237 H 947.433 -1.70191 3.33145 0
M  V30 10238 H 948.766 -2.2567 4.37417 0
M  V30 10239 N 950.418 -1.49637 -0.494624 0
M  V30 10240 C 951.667 -1.58691 -1.24499 0
M  V30 10241 C 951.98 -0.281763 -1.9356 0
M  V30 10242 O 953.186 -0.250925 -2.70338 0
M  V30 10243 C 951.642 -2.8002 -2.26091 0
M  V30 10244 C 951.25 -4.17318 -1.6294 0
M  V30 10245 C 952.994 -2.98407 -3.01916 0
M  V30 10246 C 950.901 -5.29862 -2.62679 0
M  V30 10247 H 949.831 -0.590888 -0.468367 0
M  V30 10248 H 952.482 -1.76034 -0.518112 0
M  V30 10249 H 950.864 -2.56185 -3.01969 0
M  V30 10250 H 952.038 -4.51315 -0.930108 0
M  V30 10251 H 950.353 -4.04342 -0.994819 0
M  V30 10252 H 952.95 -3.79658 -3.76516 0
M  V30 10253 H 953.293 -2.09214 -3.5991 0
M  V30 10254 H 953.826 -3.22312 -2.33152 0
M  V30 10255 H 950.565 -6.21134 -2.09458 0
M  V30 10256 H 950.085 -5.00311 -3.3083 0
M  V30 10257 H 951.764 -5.59461 -3.2498 0
M  V30 10258 N 951.896 0.746133 -1.38819 0
M  V30 10259 C 952.828 1.86991 -1.3254 0
M  V30 10260 C 953.841 1.61077 -0.236216 0
M  V30 10261 O 955.03 1.71518 -0.494341 0
M  V30 10262 C 952.13 3.22786 -1.03258 0
M  V30 10263 C 951.303 3.76145 -2.23234 0
M  V30 10264 C 950.362 4.90474 -1.90581 0
M  V30 10265 O 949.388 5.04717 -2.63153 0
M  V30 10266 N 950.59 5.74015 -0.86525 0
M  V30 10267 H 953.355 1.92885 -2.2938 0
M  V30 10268 H 950.916 0.926392 -1.32776 0
M  V30 10269 H 952.908 3.96824 -0.794533 0
M  V30 10270 H 951.478 3.12231 -0.151895 0
M  V30 10271 H 950.698 2.93587 -2.63059 0
M  V30 10272 H 951.986 4.08528 -3.03285 0
M  V30 10273 H 951.384 5.65086 -0.263577 0
M  V30 10274 H 949.941 6.48168 -0.687087 0
M  V30 10275 N 953.375 1.23811 0.975125 0
M  V30 10276 C 954.603 1.10019 1.75224 0
M  V30 10277 C 955.018 -0.34791 1.85567 0
M  V30 10278 O 954.375 -1.24043 1.33864 0
M  V30 10279 C 954.426 1.72572 3.1765 0
M  V30 10280 O 954.147 3.11719 3.07836 0
M  V30 10281 C 955.648 1.64292 4.11732 0
M  V30 10282 H 952.868 0.38476 0.549728 0
M  V30 10283 H 955.412 1.63768 1.22476 0
M  V30 10284 H 953.567 1.22843 3.67408 0
M  V30 10285 H 953.981 3.42152 3.97533 0
M  V30 10286 H 955.455 2.12754 5.09352 0
M  V30 10287 H 955.932 0.602722 4.35045 0
M  V30 10288 H 956.538 2.13411 3.6788 0
M  V30 10289 N 954.853 -1.17469 1.05066 0
M  V30 10290 C 955.8 -2.21443 0.650512 0
M  V30 10291 C 956.77 -1.62441 -0.346702 0
M  V30 10292 O 957.955 -1.89305 -0.238404 0
M  V30 10293 C 955.095 -3.45087 0.0301014 0
M  V30 10294 C 954.208 -4.18385 1.07599 0
M  V30 10295 C 953.343 -5.29513 0.423038 0
M  V30 10296 C 952.382 -5.94596 1.45333 0
M  V30 10297 N 951.519 -6.97241 0.824623 0
M  V30 10298 H 956.359 -2.55025 1.54163 0
M  V30 10299 H 953.896 -1.25274 0.771032 0
M  V30 10300 H 955.854 -4.15754 -0.347032 0
M  V30 10301 H 954.484 -3.12093 -0.824481 0
M  V30 10302 H 953.536 -3.46446 1.57097 0
M  V30 10303 H 954.848 -4.62899 1.85813 0
M  V30 10304 H 954.002 -6.067 -0.00774975 0
M  V30 10305 H 952.741 -4.86129 -0.391092 0
M  V30 10306 H 951.746 -5.16142 1.89415 0
M  V30 10307 H 952.971 -6.40061 2.26934 0
M  V30 10308 H 950.917 -6.55993 0.0309804 0
M  V30 10309 H 950.834 -7.40059 1.54432 0
M  V30 10310 H 952.102 -7.78375 0.418567 0
M  V30 10311 N 956.331 -0.831506 -1.3388 0
M  V30 10312 C 957.579 -0.422837 -1.97627 0
M  V30 10313 C 957.9 1.01961 -1.6622 0
M  V30 10314 O 957.17 1.70916 -0.957323 0
M  V30 10315 H 955.75 -0.153365 -0.731087 0
M  V30 10316 H 958.412 -1.06284 -1.6337 0
M  V30 10317 H 957.508 -0.548858 -3.07236 0
M  V30 10318 N 957.809 1.4625 -0.587256 0
M  V30 10319 C 959.056 2.02363 -0.0745746 0
M  V30 10320 C 959.384 1.4582 1.28712 0
M  V30 10321 O 958.639 0.614922 1.85788 0
M  V30 10322 C 958.938 3.57382 0.036328 0
M  V30 10323 C 958.604 4.32985 -1.25837 0
M  V30 10324 C 957.266 4.53358 -1.61306 0
M  V30 10325 C 959.618 4.76361 -2.11494 0
M  V30 10326 C 956.946 5.14361 -2.82223 0
M  V30 10327 C 959.298 5.38699 -3.31641 0
M  V30 10328 C 957.962 5.57299 -3.67388 0
M  V30 10329 H 957.232 0.740497 -0.0272888 0
M  V30 10330 H 959.879 1.75565 -0.764804 0
M  V30 10331 H 958.184 3.83342 0.809712 0
M  V30 10332 H 959.881 3.9848 0.448838 0
M  V30 10333 H 956.471 4.17427 -0.972251 0
M  V30 10334 H 960.655 4.60372 -1.85394 0
M  V30 10335 H 955.911 5.26952 -3.10051 0
M  V30 10336 H 960.085 5.71267 -3.9828 0
M  V30 10337 H 957.712 6.04338 -4.61173 0
M  V30 10338 N 959.287 0.325282 1.54207 0
M  V30 10339 C 960.219 -0.57395 2.21897 0
M  V30 10340 C 961.232 -1.0785 1.21952 0
M  V30 10341 O 962.421 -0.991782 1.48411 0
M  V30 10342 C 959.521 -1.8005 2.87115 0
M  V30 10343 C 958.694 -1.43435 4.13213 0
M  V30 10344 C 957.753 -2.51862 4.62009 0
M  V30 10345 O 956.779 -2.15934 5.26651 0
M  V30 10346 N 957.981 -3.8282 4.36382 0
M  V30 10347 H 960.746 0.00566918 2.99699 0
M  V30 10348 H 958.307 0.148563 1.61217 0
M  V30 10349 H 960.299 -2.51981 3.16682 0
M  V30 10350 H 958.869 -2.28792 2.13009 0
M  V30 10351 H 958.089 -0.546598 3.90392 0
M  V30 10352 H 959.377 -1.16544 4.95273 0
M  V30 10353 H 958.775 -4.14807 3.84645 0
M  V30 10354 H 957.332 -4.50976 4.70599 0
M  V30 10355 N 960.765 -1.57509 0.0534917 0
M  V30 10356 C 961.993 -1.97098 -0.629298 0
M  V30 10357 C 962.408 -0.931128 -1.64242 0
M  V30 10358 O 961.765 0.0843866 -1.82305 0
M  V30 10359 C 961.816 -3.36767 -1.31415 0
M  V30 10360 O 961.537 -4.36766 -0.341599 0
M  V30 10361 C 963.038 -3.91127 -2.08649 0
M  V30 10362 H 960.258 -0.648611 -0.171886 0
M  V30 10363 H 962.802 -2.04145 0.120479 0
M  V30 10364 H 960.957 -3.30863 -2.01515 0
M  V30 10365 H 961.371 -5.1788 -0.830715 0
M  V30 10366 H 962.845 -4.91129 -2.51985 0
M  V30 10367 H 963.322 -3.26679 -2.9356 0
M  V30 10368 H 963.928 -4.00376 -1.43456 0
M  V30 10369 N 962.243 0.219913 -1.56058 0
M  V30 10370 C 963.492 0.942119 -1.78345 0
M  V30 10371 C 963.805 1.85435 -0.622344 0
M  V30 10372 O 965.011 2.61533 -0.728886 0
M  V30 10373 C 963.467 1.72544 -3.15843 0
M  V30 10374 C 963.075 0.859263 -4.39682 0
M  V30 10375 C 964.819 2.43876 -3.47455 0
M  V30 10376 C 962.726 1.64003 -5.68205 0
M  V30 10377 H 961.656 0.355514 -0.664925 0
M  V30 10378 H 964.307 0.195963 -1.82451 0
M  V30 10379 H 962.689 2.51456 -3.05918 0
M  V30 10380 H 963.863 0.110562 -4.60667 0
M  V30 10381 H 962.178 0.257985 -4.156 0
M  V30 10382 H 964.775 3.02794 -4.40704 0
M  V30 10383 H 965.118 3.16843 -2.7003 0
M  V30 10384 H 965.651 1.71952 -3.58716 0
M  V30 10385 H 962.39 0.953606 -6.48526 0
M  V30 10386 H 961.91 2.3633 -5.51279 0
M  V30 10387 H 963.589 2.20028 -6.08438 0
M  V30 10388 N 963.721 1.49897 0.486681 0
M  V30 10389 C 964.651 1.7054 1.59494 0
M  V30 10390 C 965.632 0.554184 1.60819 0
M  V30 10391 O 966.817 0.791617 1.77333 0
M  V30 10392 C 963.947 1.78517 2.97908 0
M  V30 10393 C 962.901 2.93571 3.11449 0
M  V30 10394 C 962.227 2.86674 4.51356 0
M  V30 10395 C 963.527 4.34308 2.90127 0
M  V30 10396 H 965.221 2.63329 1.42472 0
M  V30 10397 H 962.767 1.2672 0.683969 0
M  V30 10398 H 964.72 1.91544 3.75352 0
M  V30 10399 H 963.444 0.823381 3.16051 0
M  V30 10400 H 962.103 2.80169 2.36433 0
M  V30 10401 H 961.751 1.88373 4.66395 0
M  V30 10402 H 961.451 3.63903 4.61355 0
M  V30 10403 H 962.975 3.01728 5.30841 0
M  V30 10404 H 964.389 4.48317 3.57331 0
M  V30 10405 H 962.786 5.12869 3.11585 0
M  V30 10406 H 963.856 4.47759 1.86119 0
M  V30 10407 N 965.199 -0.738761 1.39212 0
M  V30 10408 C 966.162 -1.83441 1.37412 0
M  V30 10409 C 967.162 -1.58484 0.271908 0
M  V30 10410 O 968.352 -1.65954 0.529609 0
M  V30 10411 C 965.484 -3.21167 1.143 0
M  V30 10412 H 966.677 -1.86441 2.34904 0
M  V30 10413 H 964.23 -0.942023 1.24722 0
M  V30 10414 H 964.965 -3.23829 0.174756 0
M  V30 10415 H 964.75 -3.40678 1.94116 0
M  V30 10416 H 966.24 -4.01231 1.15773 0
M  V30 10417 N 966.677 -1.24326 -0.968545 0
M  V30 10418 C 967.926 -1.07647 -1.70572 0
M  V30 10419 C 968.239 0.384821 -1.91777 0
M  V30 10420 O 969.445 0.671782 -2.63058 0
M  V30 10421 C 967.901 -1.87799 -3.07017 0
M  V30 10422 C 967.509 -3.38333 -2.93658 0
M  V30 10423 C 969.253 -1.79647 -3.84613 0
M  V30 10424 C 967.16 -4.10831 -4.25407 0
M  V30 10425 H 966.09 -0.399216 -0.639642 0
M  V30 10426 H 968.741 -1.484 -1.07934 0
M  V30 10427 H 967.123 -1.3986 -3.7048 0
M  V30 10428 H 968.297 -3.93845 -2.39213 0
M  V30 10429 H 966.612 -3.47427 -2.29528 0
M  V30 10430 H 969.209 -2.31116 -4.82172 0
M  V30 10431 H 969.552 -0.761553 -4.09275 0
M  V30 10432 H 970.085 -2.25261 -3.27875 0
M  V30 10433 H 966.824 -5.14679 -4.05939 0
M  V30 10434 H 966.344 -3.60105 -4.79671 0
M  V30 10435 H 968.023 -4.17783 -4.94031 0
M  V30 10436 N 968.156 1.1691 -1.05688 0
M  V30 10437 C 969.086 2.23275 -0.683402 0
M  V30 10438 C 970.067 1.6704 0.321206 0
M  V30 10439 O 971.252 1.93191 0.197691 0
M  V30 10440 C 968.382 3.47244 -0.0626006 0
M  V30 10441 C 967.336 4.16333 -0.992513 0
M  V30 10442 C 966.662 5.34182 -0.23533 0
M  V30 10443 C 967.962 4.68002 -2.31886 0
M  V30 10444 H 969.656 2.54771 -1.57264 0
M  V30 10445 H 967.202 1.2246 -0.757606 0
M  V30 10446 H 969.155 4.20874 0.210503 0
M  V30 10447 H 967.879 3.1503 0.861616 0
M  V30 10448 H 966.538 3.44622 -1.25026 0
M  V30 10449 H 966.186 4.9822 0.69181 0
M  V30 10450 H 965.886 5.81346 -0.855002 0
M  V30 10451 H 967.41 6.10592 0.0303717 0
M  V30 10452 H 968.824 5.33244 -2.10531 0
M  V30 10453 H 967.221 5.25764 -2.89296 0
M  V30 10454 H 968.291 3.84541 -2.95391 0
M  V30 10455 N 969.634 0.838594 1.33437 0
M  V30 10456 C 970.581 0.269609 2.2922 0
M  V30 10457 C 971.551 -0.614429 1.54318 0
M  V30 10458 O 972.736 -0.552756 1.82618 0
M  V30 10459 C 969.876 -0.549527 3.40697 0
M  V30 10460 C 968.989 0.358502 4.3051 0
M  V30 10461 C 968.124 -0.471709 5.29101 0
M  V30 10462 C 967.163 0.434728 6.10554 0
M  V30 10463 N 966.3 -0.357339 7.0119 0
M  V30 10464 H 971.14 1.09172 2.77282 0
M  V30 10465 H 968.677 0.549832 1.36438 0
M  V30 10466 H 970.635 -1.03992 4.04032 0
M  V30 10467 H 969.265 -1.33661 2.93828 0
M  V30 10468 H 968.317 0.967204 3.67899 0
M  V30 10469 H 969.629 1.05483 4.87519 0
M  V30 10470 H 968.783 -1.02594 5.97963 0
M  V30 10471 H 967.522 -1.20147 4.72669 0
M  V30 10472 H 966.527 1.00097 5.40611 0
M  V30 10473 H 967.752 1.16285 6.6907 0
M  V30 10474 H 965.698 -1.07049 6.47207 0
M  V30 10475 H 965.615 0.280277 7.5548 0
M  V30 10476 H 966.883 -0.893814 7.74359 0
M  V30 10477 N 971.112 -1.45937 0.595003 0
M  V30 10478 C 972.042 -2.33198 -0.11871 0
M  V30 10479 C 973.023 -1.46083 -0.871423 0
M  V30 10480 O 974.208 -1.74879 -0.844461 0
M  V30 10481 C 971.338 -3.28576 -1.12495 0
M  V30 10482 C 970.292 -4.25229 -0.486275 0
M  V30 10483 C 969.618 -5.10204 -1.59986 0
M  V30 10484 C 970.918 -5.19019 0.584473 0
M  V30 10485 H 972.612 -2.93122 0.609886 0
M  V30 10486 H 970.158 -1.40951 0.294742 0
M  V30 10487 H 972.111 -3.88485 -1.6327 0
M  V30 10488 H 970.835 -2.66784 -1.88398 0
M  V30 10489 H 969.494 -3.666 0.000507962 0
M  V30 10490 H 969.142 -4.44789 -2.34886 0
M  V30 10491 H 968.842 -5.75669 -1.1781 0
M  V30 10492 H 970.366 -5.7298 -2.11014 0
M  V30 10493 H 971.78 -5.73073 0.161297 0
M  V30 10494 H 970.177 -5.92893 0.927256 0
M  V30 10495 H 971.247 -4.62208 1.46601 0
M  V30 10496 N 972.59 -0.333456 -1.54032 0
M  V30 10497 C 973.815 0.270517 -2.05628 0
M  V30 10498 C 974.24 1.44231 -1.20744 0
M  V30 10499 O 973.598 1.79975 -0.218822 0
M  V30 10500 C 973.646 0.673251 -3.54259 0
M  V30 10501 O 972.75 1.77448 -3.72271 0
M  V30 10502 H 972.091 0.0469753 -0.662336 0
M  V30 10503 H 974.621 -0.484739 -1.98775 0
M  V30 10504 H 974.631 0.953194 -3.96709 0
M  V30 10505 H 973.306 -0.183747 -4.15494 0
M  V30 10506 H 971.883 1.49259 -3.41725 0
M  V30 10507 N 974.068 1.57479 -0.061844 0
M  V30 10508 C 975.031 2.1104 0.894127 0
M  V30 10509 C 976.031 1.03227 1.23292 0
M  V30 10510 O 977.221 1.29256 1.16784 0
M  V30 10511 C 974.353 2.6035 2.20069 0
M  V30 10512 H 975.546 2.96807 0.429619 0
M  V30 10513 H 973.099 1.55181 0.18672 0
M  V30 10514 H 973.834 1.78008 2.71079 0
M  V30 10515 H 973.619 3.39146 1.9678 0
M  V30 10516 H 975.109 3.019 2.88525 0
M  V30 10517 N 975.546 -0.211634 1.56173 0
M  V30 10518 C 976.771 -0.955324 1.84088 0
M  V30 10519 C 977.196 -1.76754 0.643407 0
M  V30 10520 O 976.554 -1.76653 -0.407842 0
M  V30 10521 C 976.602 -1.84063 3.10085 0
M  V30 10522 O 975.706 -2.9373 2.89476 0
M  V30 10523 H 975.047 -0.26996 0.606645 0
M  V30 10524 H 977.577 -0.221947 2.03393 0
M  V30 10525 H 977.587 -2.24852 3.40449 0
M  V30 10526 H 976.262 -1.24373 3.96868 0
M  V30 10527 H 974.839 -2.56816 2.7037 0
M  V30 10528 N 977.024 -1.50153 -0.478725 0
M  V30 10529 C 978.271 -1.6076 -1.23136 0
M  V30 10530 C 978.599 -0.30442 -1.92103 0
M  V30 10531 O 977.854 0.709213 -1.82397 0
M  V30 10532 C 978.153 -2.73208 -2.30417 0
M  V30 10533 C 977.819 -4.13953 -1.78755 0
M  V30 10534 C 976.481 -4.52251 -1.64386 0
M  V30 10535 C 978.833 -5.01949 -1.40344 0
M  V30 10536 C 976.161 -5.76292 -1.10018 0
M  V30 10537 C 978.513 -6.2653 -0.874206 0
M  V30 10538 C 977.177 -6.63637 -0.717085 0
M  V30 10539 H 976.447 -0.588264 -0.450585 0
M  V30 10540 H 979.094 -1.84061 -0.528551 0
M  V30 10541 H 977.399 -2.43965 -3.06575 0
M  V30 10542 H 979.096 -2.7862 -2.88395 0
M  V30 10543 H 975.686 -3.83736 -1.90904 0
M  V30 10544 H 979.87 -4.73 -1.50283 0
M  V30 10545 H 975.126 -6.03723 -0.965838 0
M  V30 10546 H 979.3 -6.94081 -0.567883 0
M  V30 10547 H 976.927 -7.59633 -0.293639 0
M  V30 10548 N 978.502 0.731368 -1.39602 0
M  V30 10549 C 979.727 1.52567 -1.40492 0
M  V30 10550 C 980.152 1.881 -0.00228828 0
M  V30 10551 O 979.51 1.52167 0.985643 0
M  V30 10552 C 979.558 2.78749 -2.2876 0
M  V30 10553 O 978.662 3.7482 -1.71999 0
M  V30 10554 H 978.003 0.460601 -0.478271 0
M  V30 10555 H 980.533 0.902042 -1.83642 0
M  V30 10556 H 980.543 3.27446 -2.43399 0
M  V30 10557 H 979.218 2.5222 -3.30693 0
M  V30 10558 H 977.795 3.33604 -1.66622 0
M  V30 10559 N 979.98 1.24838 0.961938 0
M  V30 10560 C 980.927 1.04582 2.05745 0
M  V30 10561 C 981.897 -0.0427281 1.66045 0
M  V30 10562 O 983.082 0.113026 1.90465 0
M  V30 10563 C 980.222 0.66284 3.38675 0
M  V30 10564 C 979.335 1.82548 3.91536 0
M  V30 10565 C 978.47 1.38753 5.12758 0
M  V30 10566 C 977.509 2.51976 5.5783 0
M  V30 10567 N 976.646 2.09009 6.70268 0
M  V30 10568 H 981.486 1.98343 2.22405 0
M  V30 10569 H 979.023 0.987822 1.08998 0
M  V30 10570 H 980.981 0.421788 4.15062 0
M  V30 10571 H 979.611 -0.237776 3.21923 0
M  V30 10572 H 978.663 2.18004 3.11735 0
M  V30 10573 H 979.975 2.67601 4.20941 0
M  V30 10574 H 979.129 1.1057 5.96539 0
M  V30 10575 H 977.868 0.507618 4.85051 0
M  V30 10576 H 976.873 2.80912 4.72619 0
M  V30 10577 H 978.098 3.40534 5.87549 0
M  V30 10578 H 976.044 1.23423 6.44285 0
M  V30 10579 H 975.961 2.87613 6.99153 0
M  V30 10580 H 977.229 1.83981 7.57477 0
M  V30 10581 N 981.458 -1.16348 1.06306 0
M  V30 10582 C 982.388 -2.2291 0.695234 0
M  V30 10583 C 983.369 -1.67208 -0.312343 0
M  V30 10584 O 984.554 -1.93293 -0.187442 0
M  V30 10585 C 981.684 -3.47205 0.0810149 0
M  V30 10586 C 980.638 -4.15801 1.01458 0
M  V30 10587 C 979.964 -5.3405 0.263656 0
M  V30 10588 C 981.264 -4.66766 2.34365 0
M  V30 10589 H 982.958 -2.53934 1.58613 0
M  V30 10590 H 980.504 -1.22056 0.76409 0
M  V30 10591 H 982.457 -4.2098 -0.18818 0
M  V30 10592 H 981.181 -3.15482 -0.844897 0
M  V30 10593 H 979.84 -3.43954 1.26852 0
M  V30 10594 H 979.488 -4.9858 -0.665378 0
M  V30 10595 H 979.188 -5.80885 0.88582 0
M  V30 10596 H 980.712 -6.106 0.00200994 0
M  V30 10597 H 982.126 -5.3212 2.13356 0
M  V30 10598 H 980.523 -5.24223 2.9208 0
M  V30 10599 H 981.593 -3.82969 2.97426 0
M  V30 10600 N 982.937 -0.845659 -1.3299 0
M  V30 10601 C 983.867 -0.298957 -2.31578 0
M  V30 10602 C 984.848 0.597012 -1.59279 0
M  V30 10603 O 986.033 0.519142 -1.87132 0
M  V30 10604 C 983.163 0.521109 -3.43368 0
M  V30 10605 C 982.117 -0.279651 -4.27085 0
M  V30 10606 C 981.443 0.664591 -5.30554 0
M  V30 10607 C 982.743 -1.50046 -5.00283 0
M  V30 10608 H 984.437 -1.12272 -2.77552 0
M  V30 10609 H 981.983 -0.54132 -1.33438 0
M  V30 10610 H 983.936 0.913921 -4.1137 0
M  V30 10611 H 982.66 1.37815 -2.96099 0
M  V30 10612 H 981.319 -0.654106 -3.60717 0
M  V30 10613 H 980.967 1.51822 -4.79541 0
M  V30 10614 H 980.667 0.132871 -5.8745 0
M  V30 10615 H 982.191 1.05477 -6.01421 0
M  V30 10616 H 983.605 -1.18044 -5.61016 0
M  V30 10617 H 982.002 -1.96946 -5.66862 0
M  V30 10618 H 983.072 -2.26659 -4.28665 0
M  V30 10619 N 984.415 1.45619 -0.602734 0
M  V30 10620 C 985.661 2.02572 -0.0961759 0
M  V30 10621 C 985.994 1.47076 1.26815 0
M  V30 10622 O 985.269 0.643566 1.83544 0
M  V30 10623 C 985.552 3.60062 -0.0520032 0
M  V30 10624 C 985.405 4.25901 -1.44665 0
M  V30 10625 C 986.724 4.35446 0.638342 0
M  V30 10626 H 983.843 0.736099 -0.0364238 0
M  V30 10627 H 986.485 1.7353 -0.773776 0
M  V30 10628 H 984.635 3.84936 0.525032 0
M  V30 10629 H 986.307 4.12228 -2.0704 0
M  V30 10630 H 984.55 3.84489 -2.00874 0
M  V30 10631 H 985.221 5.34779 -1.36803 0
M  V30 10632 H 987.697 4.15837 0.147926 0
M  V30 10633 H 986.573 5.45176 0.63834 0
M  V30 10634 H 986.834 4.07962 1.70351 0
M  V30 10635 N 985.893 0.34162 1.53853 0
M  V30 10636 C 986.843 -0.531995 2.21707 0
M  V30 10637 C 987.827 -1.06759 1.2038 0
M  V30 10638 O 989.019 -1.00161 1.45934 0
M  V30 10639 C 986.148 -1.6834 2.99193 0
M  V30 10640 C 985.234 -1.16184 4.07875 0
M  V30 10641 N 985.625 -0.361348 5.04508 0
M  V30 10642 C 983.923 -1.43891 4.22151 0
M  V30 10643 C 984.624 -0.0785378 5.81647 0
M  V30 10644 N 983.6 -0.669651 5.3946 0
M  V30 10645 H 987.402 0.0866825 2.93772 0
M  V30 10646 H 984.916 0.148386 1.61721 0
M  V30 10647 H 986.913 -2.32121 3.46303 0
M  V30 10648 H 985.573 -2.30538 2.28653 0
M  V30 10649 H 986.584 -0.00259906 5.179 0
M  V30 10650 H 983.261 -2.06542 3.62832 0
M  V30 10651 H 984.651 0.567068 6.69503 0
M  V30 10652 N 987.371 -1.57444 0.0701946 0
M  V30 10653 C 988.321 -2.09154 -0.90767 0
M  V30 10654 C 989.305 -1.00087 -1.25982 0
M  V30 10655 O 990.497 -1.26397 -1.23906 0
M  V30 10656 C 987.626 -2.65544 -2.17581 0
M  V30 10657 C 986.712 -3.81613 -1.85021 0
M  V30 10658 N 987.103 -4.90641 -1.22904 0
M  V30 10659 C 985.401 -3.90878 -2.1478 0
M  V30 10660 C 986.102 -5.71511 -1.084 0
M  V30 10661 N 985.078 -5.1973 -1.59318 0
M  V30 10662 H 988.88 -2.90839 -0.423051 0
M  V30 10663 H 986.394 -1.61848 -0.13374 0
M  V30 10664 H 988.391 -3.00904 -2.88552 0
M  V30 10665 H 987.051 -1.85304 -2.66632 0
M  V30 10666 H 988.062 -5.1004 -0.898878 0
M  V30 10667 H 984.739 -3.21611 -2.66219 0
M  V30 10668 H 986.129 -6.69214 -0.600183 0
M  V30 10669 N 988.849 0.203349 -1.56283 0
M  V30 10670 C 990.074 0.945548 -1.84592 0
M  V30 10671 C 990.499 1.7641 -0.652772 0
M  V30 10672 O 989.857 1.76867 0.398468 0
M  V30 10673 C 989.905 1.82416 -3.11057 0
M  V30 10674 O 989.009 2.92191 -2.9103 0
M  V30 10675 H 988.35 0.266739 -0.608068 0
M  V30 10676 H 990.88 0.211158 -2.03507 0
M  V30 10677 H 990.89 2.23044 -3.41636 0
M  V30 10678 H 989.565 1.22267 -3.97522 0
M  V30 10679 H 988.142 2.55378 -2.71728 0
M  V30 10680 N 990.327 1.50405 0.470755 0
M  V30 10681 C 991.574 1.61411 1.22281 0
M  V30 10682 C 991.902 0.314603 1.91939 0
M  V30 10683 O 991.157 -0.699531 1.82771 0
M  V30 10684 C 991.456 2.74426 2.28965 0
M  V30 10685 C 991.122 4.14896 1.76557 0
M  V30 10686 C 989.784 4.53116 1.61985 0
M  V30 10687 C 992.136 5.02686 1.3768 0
M  V30 10688 C 989.464 5.76868 1.0696 0
M  V30 10689 C 991.816 6.26985 0.840967 0
M  V30 10690 C 990.48 6.64008 0.68188 0
M  V30 10691 H 989.75 0.590645 0.447459 0
M  V30 10692 H 992.397 1.84339 0.518783 0
M  V30 10693 H 990.702 2.45588 3.05277 0
M  V30 10694 H 992.399 2.80146 2.86914 0
M  V30 10695 H 988.989 3.84743 1.88867 0
M  V30 10696 H 993.173 4.7379 1.47772 0
M  V30 10697 H 988.429 6.04227 0.933808 0
M  V30 10698 H 992.603 6.94372 0.531066 0
M  V30 10699 H 990.23 7.59778 0.25335 0
M  V30 10700 N 991.805 -0.723954 1.39988 0
M  V30 10701 C 993.082 -1.4763 1.28316 0
M  V30 10702 C 993.462 -2.10852 -0.102302 0
M  V30 10703 O 992.81 -1.9948 -1.11445 0
M  V30 10704 C 993.02 -2.51878 2.41574 0
M  V30 10705 C 994.368 -3.17948 2.81415 0
M  V30 10706 O 995.392 -2.62195 2.41106 0
M  V30 10707 O 994.251 -4.18858 3.51027 0
M  V30 10708 H 991.345 -0.656092 0.50346 0
M  V30 10709 H 993.891 -0.75684 1.51888 0
M  V30 10710 H 992.663 -2.03618 3.34149 0
M  V30 10711 H 992.286 -3.3137 2.19727 0
M  V30 10712 N 993.283 -1.25346 -0.955304 0
M  V30 10713 C 994.213 -1.08152 -2.06943 0
M  V30 10714 C 995.194 0.00922598 -1.70097 0
M  V30 10715 O 996.379 -0.160181 -1.93538 0
M  V30 10716 C 993.509 -0.698745 -3.40198 0
M  V30 10717 C 992.463 -1.73965 -3.9105 0
M  V30 10718 C 991.789 -1.21158 -5.20792 0
M  V30 10719 C 993.089 -3.13829 -4.17503 0
M  V30 10720 H 994.783 -2.01345 -2.21586 0
M  V30 10721 H 992.329 -0.969459 -1.06478 0
M  V30 10722 H 994.282 -0.565394 -4.1759 0
M  V30 10723 H 993.006 0.268892 -3.25491 0
M  V30 10724 H 991.665 -1.86143 -3.15827 0
M  V30 10725 H 991.313 -0.234193 -5.02455 0
M  V30 10726 H 991.013 -1.90728 -5.55785 0
M  V30 10727 H 992.537 -1.09061 -6.00781 0
M  V30 10728 H 993.951 -3.04809 -4.85556 0
M  V30 10729 H 992.348 -3.80863 -4.63749 0
M  V30 10730 H 993.418 -3.6094 -3.23806 0
M  V30 10731 N 994.761 1.15782 -1.06922 0
M  V30 10732 C 996.007 1.86741 -0.790922 0
M  V30 10733 C 996.34 1.81863 0.681149 0
M  V30 10734 O 995.615 1.23871 1.49954 0
M  V30 10735 C 995.898 3.36038 -1.29422 0
M  V30 10736 C 995.751 3.49573 -2.83052 0
M  V30 10737 C 997.07 4.30647 -0.907239 0
M  V30 10738 H 994.189 0.678064 -0.288787 0
M  V30 10739 H 996.831 1.36054 -1.32624 0
M  V30 10740 H 994.981 3.79336 -0.838843 0
M  V30 10741 H 996.653 3.1517 -3.36847 0
M  V30 10742 H 994.896 2.91275 -3.21467 0
M  V30 10743 H 995.567 4.5445 -3.13335 0
M  V30 10744 H 998.043 3.95286 -1.29956 0
M  V30 10745 H 996.919 5.33604 -1.28679 0
M  V30 10746 H 997.18 4.41703 0.187251 0
M  V30 10747 N 996.239 0.8527 1.3254 0
M  V30 10748 C 997.488 0.45136 1.96585 0
M  V30 10749 C 997.801 -0.997773 1.68237 0
M  V30 10750 O 999.007 -1.50445 2.26006 0
M  V30 10751 C 997.463 0.75619 3.51866 0
M  V30 10752 C 997.071 2.22092 3.89075 0
M  V30 10753 C 998.815 0.422478 4.22392 0
M  V30 10754 C 996.722 2.46908 5.37392 0
M  V30 10755 H 995.652 0.165052 0.735713 0
M  V30 10756 H 998.303 1.04321 1.50962 0
M  V30 10757 H 996.685 0.0937988 3.95889 0
M  V30 10758 H 997.859 2.92494 3.56067 0
M  V30 10759 H 996.174 2.51896 3.31568 0
M  V30 10760 H 998.771 0.58533 5.31487 0
M  V30 10761 H 999.114 -0.635737 4.11417 0
M  V30 10762 H 999.647 1.04068 3.83946 0
M  V30 10763 H 996.386 3.51346 5.53386 0
M  V30 10764 H 995.906 1.81082 5.71812 0
M  V30 10765 H 997.585 2.30758 6.0445 0
M  V30 10766 N 997.718 -1.45297 0.610449 0
M  V30 10767 C 998.965 -2.02218 0.106759 0
M  V30 10768 C 999.293 -1.47849 -1.26376 0
M  V30 10769 O 998.548 -0.644402 -1.84786 0
M  V30 10770 C 998.847 -3.57394 0.0205329 0
M  V30 10771 C 998.513 -4.30928 1.32709 0
M  V30 10772 C 997.175 -4.50735 1.68498 0
M  V30 10773 C 999.527 -4.72936 2.19046 0
M  V30 10774 C 996.855 -5.09806 2.90371 0
M  V30 10775 C 999.207 -5.33355 3.40169 0
M  V30 10776 C 997.871 -5.51384 3.76207 0
M  V30 10777 H 997.141 -0.739969 0.039066 0
M  V30 10778 H 999.788 -1.74326 0.792638 0
M  V30 10779 H 998.093 -3.84581 -0.748623 0
M  V30 10780 H 999.79 -3.99144 -0.385386 0
M  V30 10781 H 996.38 -4.15827 1.03854 0
M  V30 10782 H 1000.56 -4.57365 1.92695 0
M  V30 10783 H 995.82 -5.21953 3.18395 0
M  V30 10784 H 999.994 -5.64859 4.07318 0
M  V30 10785 H 997.621 -5.96924 4.70729 0
M  V30 10786 N 999.196 -0.349774 -1.5367 0
M  V30 10787 C 1000.15 0.52023 -2.21986 0
M  V30 10788 C 1001.13 1.06119 -1.20944 0
M  V30 10789 O 1002.32 0.993857 -1.46463 0
M  V30 10790 C 999.451 1.66751 -3.00082 0
M  V30 10791 C 998.537 1.14019 -4.08486 0
M  V30 10792 N 998.928 0.334588 -5.04692 0
M  V30 10793 C 997.226 1.4165 -4.22908 0
M  V30 10794 C 997.927 0.0476906 -5.8168 0
M  V30 10795 N 996.903 0.641032 -5.39807 0
M  V30 10796 H 1000.7 -0.102261 -2.93722 0
M  V30 10797 H 998.219 -0.15696 -1.6164 0
M  V30 10798 H 1000.22 2.30281 -3.47529 0
M  V30 10799 H 998.876 2.29322 -2.29873 0
M  V30 10800 H 999.887 -0.0248665 -5.17894 0
M  V30 10801 H 996.564 2.04615 -3.63922 0
M  V30 10802 H 997.954 -0.602565 -6.69193 0
M  V30 10803 N 1000.67 1.57404 -0.0785433 0
M  V30 10804 C 1001.61 2.101 0.916013 0
M  V30 10805 C 1002.62 1.03459 1.25698 0
M  V30 10806 O 1003.81 1.30954 1.21299 0
M  V30 10807 C 1000.91 2.55202 2.22992 0
M  V30 10808 C 1000.08 3.85491 2.06678 0
M  V30 10809 C 999.14 4.16614 3.21433 0
M  V30 10810 O 998.166 4.86105 2.96126 0
M  V30 10811 N 999.368 3.70697 4.46726 0
M  V30 10812 H 1002.13 2.96054 0.466059 0
M  V30 10813 H 999.694 1.61546 0.107006 0
M  V30 10814 H 1001.69 2.7308 2.9868 0
M  V30 10815 H 1000.26 1.74348 2.59464 0
M  V30 10816 H 999.476 3.76925 1.15417 0
M  V30 10817 H 1000.76 4.70759 1.93036 0
M  V30 10818 H 1000.16 3.14571 4.70172 0
M  V30 10819 H 998.719 3.93762 5.19418 0
M  V30 10820 N 1002.15 -0.195058 1.56388 0
M  V30 10821 C 1003.08 -1.26978 1.8961 0
M  V30 10822 C 1004.06 -1.43946 0.756199 0
M  V30 10823 O 1005.25 -1.59335 1.0072 0
M  V30 10824 C 1002.37 -2.63638 2.12632 0
M  V30 10825 C 1001.42 -2.6354 3.35334 0
M  V30 10826 S 1002.25 -2.1497 4.90457 0
M  V30 10827 C 1003.41 -3.53454 5.16547 0
M  V30 10828 H 1003.64 -0.986091 2.8047 0
M  V30 10829 H 1001.17 -0.398552 1.49167 0
M  V30 10830 H 1003.13 -3.42304 2.26579 0
M  V30 10831 H 1001.79 -2.89218 1.22522 0
M  V30 10832 H 1000.99 -3.64027 3.48569 0
M  V30 10833 H 1000.59 -1.92956 3.20381 0
M  V30 10834 H 1002.88 -4.49318 5.0707 0
M  V30 10835 H 1003.82 -3.45113 6.18306 0
M  V30 10836 H 1004.23 -3.48368 4.44185 0
M  V30 10837 N 1003.63 -1.50653 -0.462772 0
M  V30 10838 C 1004.85 -1.66103 -1.24196 0
M  V30 10839 C 1005.28 -0.347421 -1.84864 0
M  V30 10840 O 1004.64 0.689673 -1.6767 0
M  V30 10841 C 1004.69 -2.76027 -2.32037 0
M  V30 10842 O 1003.79 -2.37859 -3.36893 0
M  V30 10843 H 1003.13 -0.554672 -0.365014 0
M  V30 10844 H 1005.66 -1.97076 -0.549734 0
M  V30 10845 H 1005.67 -2.99354 -2.77221 0
M  V30 10846 H 1004.35 -3.71361 -1.87253 0
M  V30 10847 H 1002.92 -2.2501 -2.97363 0
M  V30 10848 N 1005.11 0.71652 -1.4037 0
M  V30 10849 C 1006.33 1.51069 -1.42102 0
M  V30 10850 C 1006.76 1.88087 -0.0222387 0
M  V30 10851 O 1006.12 1.53204 0.969448 0
M  V30 10852 C 1006.16 2.76307 -2.31704 0
M  V30 10853 O 1005.27 3.72975 -1.75964 0
M  V30 10854 H 1004.61 0.455502 -0.483129 0
M  V30 10855 H 1007.14 0.882514 -1.84588 0
M  V30 10856 H 1007.15 3.24846 -2.46859 0
M  V30 10857 H 1005.82 2.48698 -3.3335 0
M  V30 10858 H 1004.4 3.31818 -1.70151 0
M  V30 10859 N 1006.59 1.25851 0.948643 0
M  V30 10860 C 1007.53 1.06559 2.06756 0
M  V30 10861 C 1008.53 -0.00528632 1.69399 0
M  V30 10862 O 1009.73 0.150806 1.79367 0
M  V30 10863 H 1006.11 0.327689 0.676848 0
M  V30 10864 H 1008.08 2.01401 2.20182 0
M  V30 10865 C 1006.83 0.707392 3.40428 0
M  V30 10866 H 1006.15 1.52324 3.69645 0
M  V30 10867 H 1007.59 0.612142 4.19558 0
M  V30 10868 C 1006.05 -0.58697 3.31747 0
M  V30 10869 O 1006.58 -1.62741 3.67258 0
M  V30 10870 N 1004.79 -0.574828 2.84858 0
M  V30 10871 H 1004.33 0.272236 2.56157 0
M  V30 10872 H 1004.29 -1.441 2.79432 0
M  V30 10873 N 1008.06 -1.15214 1.07534 0
M  V30 10874 C 1009.31 -1.85388 0.794617 0
M  V30 10875 C 1009.63 -1.83331 -0.681838 0
M  V30 10876 O 1010.83 -2.49207 -1.0774 0
M  V30 10877 C 1009.29 -3.32747 1.37141 0
M  V30 10878 C 1008.9 -3.43244 2.87902 0
M  V30 10879 C 1010.64 -4.08093 1.16879 0
M  V30 10880 C 1008.55 -4.84762 3.38763 0
M  V30 10881 H 1007.48 -0.694499 0.293577 0
M  V30 10882 H 1010.13 -1.29944 1.29564 0
M  V30 10883 H 1008.51 -3.87874 0.798121 0
M  V30 10884 H 1009.68 -2.98214 3.51291 0
M  V30 10885 H 1008 -2.81345 3.06975 0
M  V30 10886 H 1010.6 -5.12535 1.52353 0
M  V30 10887 H 1010.94 -4.1616 0.107958 0
M  V30 10888 H 1011.47 -3.59241 1.70854 0
M  V30 10889 H 1008.21 -4.81879 4.4438 0
M  V30 10890 H 1007.73 -5.30366 2.80128 0
M  V30 10891 H 1009.41 -5.53624 3.34827 0
M  V30 10892 N 1009.54 -0.859717 -1.32086 0
M  V30 10893 C 1010.48 -0.252764 -2.26796 0
M  V30 10894 C 1011.45 0.612178 -1.50636 0
M  V30 10895 O 1012.64 0.567865 -1.79743 0
M  V30 10896 C 1009.76 0.643017 -3.3254 0
M  V30 10897 C 1008.81 -0.149211 -4.26239 0
M  V30 10898 S 1009.64 -1.52097 -5.13446 0
M  V30 10899 C 1010.8 -0.631035 -6.22711 0
M  V30 10900 H 1011.03 -1.05563 -2.77928 0
M  V30 10901 H 1008.57 -0.657639 -1.39694 0
M  V30 10902 H 1010.52 1.15418 -3.9394 0
M  V30 10903 H 1009.18 1.41974 -2.80183 0
M  V30 10904 H 1008.38 0.53328 -5.01171 0
M  V30 10905 H 1007.98 -0.592128 -3.69283 0
M  V30 10906 H 1010.27 0.162638 -6.77305 0
M  V30 10907 H 1011.21 -1.35116 -6.95089 0
M  V30 10908 H 1011.62 -0.203131 -5.64134 0
M  V30 10909 N 1011.02 1.44971 -0.618145 0
M  V30 10910 C 1011.93 2.34403 0.0960457 0
M  V30 10911 C 1012.95 1.51862 0.849355 0
M  V30 10912 O 1014.12 1.84632 0.804557 0
M  V30 10913 C 1011.19 3.29646 1.07397 0
M  V30 10914 C 1010.25 4.28095 0.321466 0
M  V30 10915 C 1009.48 5.18787 1.25281 0
M  V30 10916 O 1009.7 5.1313 2.49106 0
M  V30 10917 O 1008.64 5.97282 0.744156 0
M  V30 10918 H 1012.46 2.96898 -0.639176 0
M  V30 10919 H 1010.05 1.44529 -0.37837 0
M  V30 10920 H 1011.93 3.88307 1.63694 0
M  V30 10921 H 1010.61 2.69702 1.79004 0
M  V30 10922 H 1009.51 3.73019 -0.284223 0
M  V30 10923 H 1010.85 4.90923 -0.354315 0
M  V30 10924 N 1012.5 0.357919 1.53482 0
M  V30 10925 C 1013.43 -0.526753 2.23065 0
M  V30 10926 C 1014.44 -1.05239 1.24212 0
M  V30 10927 O 1015.63 -0.960078 1.50482 0
M  V30 10928 C 1012.73 -1.73919 2.9087 0
M  V30 10929 C 1011.91 -1.34638 4.16163 0
M  V30 10930 C 1010.96 -2.42005 4.67247 0
M  V30 10931 O 1009.99 -2.04714 5.31113 0
M  V30 10932 N 1011.19 -3.73478 4.44404 0
M  V30 10933 H 1013.96 0.0692386 2.9962 0
M  V30 10934 H 1011.52 0.182726 1.60866 0
M  V30 10935 H 1013.51 -2.45207 3.21956 0
M  V30 10936 H 1012.08 -2.24223 2.17814 0
M  V30 10937 H 1011.3 -0.463667 3.91464 0
M  V30 10938 H 1012.59 -1.06012 4.97633 0
M  V30 10939 H 1011.99 -4.06555 3.93357 0
M  V30 10940 H 1010.54 -4.40893 4.80059 0
M  V30 10941 N 1013.98 -1.5736 0.0868897 0
M  V30 10942 C 1014.92 -2.13571 -0.874996 0
M  V30 10943 C 1015.89 -1.0521 -1.2853 0
M  V30 10944 O 1017.08 -1.32954 -1.3685 0
M  V30 10945 C 1014.22 -2.71386 -2.13175 0
M  V30 10946 C 1013.33 -3.93953 -1.77272 0
M  V30 10947 C 1012.47 -4.3996 -2.97671 0
M  V30 10948 C 1011.51 -5.55137 -2.57856 0
M  V30 10949 N 1010.64 -5.96034 -3.71064 0
M  V30 10950 H 1015.48 -2.95453 -0.388789 0
M  V30 10951 H 1013.02 -1.45992 -0.180242 0
M  V30 10952 H 1014.98 -3.03022 -2.86764 0
M  V30 10953 H 1013.61 -1.92245 -2.5931 0
M  V30 10954 H 1012.66 -3.68683 -0.936845 0
M  V30 10955 H 1013.97 -4.77565 -1.43989 0
M  V30 10956 H 1013.13 -4.73337 -3.79522 0
M  V30 10957 H 1011.86 -3.55232 -3.34158 0
M  V30 10958 H 1010.87 -5.21397 -1.7443 0
M  V30 10959 H 1012.09 -6.41608 -2.22522 0
M  V30 10960 H 1010.04 -5.14253 -4.07284 0
M  V30 10961 H 1009.96 -6.74423 -3.41599 0
M  V30 10962 H 1011.23 -6.34038 -4.53449 0
M  V30 10963 N 1015.45 0.186762 -1.56489 0
M  V30 10964 C 1016.73 0.932229 -1.71956 0
M  V30 10965 C 1017.11 2.01037 -0.644006 0
M  V30 10966 O 1016.46 2.259 0.343694 0
M  V30 10967 C 1016.67 1.51106 -3.14592 0
M  V30 10968 C 1018.02 1.98997 -3.75081 0
M  V30 10969 O 1019.04 1.60931 -3.17773 0
M  V30 10970 O 1017.9 2.69067 -4.75673 0
M  V30 10971 H 1014.99 0.437736 -0.701652 0
M  V30 10972 H 1017.54 0.175803 -1.68787 0
M  V30 10973 H 1016.31 0.734327 -3.84348 0
M  V30 10974 H 1015.94 2.33209 -3.22024 0
M  V30 10975 N 1016.93 1.50896 0.454776 0
M  V30 10976 C 1017.86 1.6712 1.56855 0
M  V30 10977 C 1018.88 0.552223 1.53148 0
M  V30 10978 O 1020.07 0.825969 1.5824 0
M  V30 10979 C 1017.17 1.65464 2.95762 0
M  V30 10980 C 1016.34 2.93662 3.24163 0
M  V30 10981 C 1015.4 2.84428 4.42704 0
M  V30 10982 O 1014.42 3.58382 4.42211 0
M  V30 10983 N 1015.63 1.9909 5.45292 0
M  V30 10984 H 1018.39 2.63194 1.43349 0
M  V30 10985 H 1015.95 1.48564 0.643457 0
M  V30 10986 H 1017.94 1.56878 3.73057 0
M  V30 10987 H 1016.51 0.770568 3.02954 0
M  V30 10988 H 1015.73 3.16251 2.35328 0
M  V30 10989 H 1017.02 3.78558 3.39957 0
M  V30 10990 H 1016.42 1.3835 5.48521 0
M  V30 10991 H 1014.98 1.96396 6.21508 0
M  V30 10992 N 1018.41 -0.709066 1.40748 0
M  V30 10993 C 1019.34 -1.83412 1.37451 0
M  V30 10994 C 1020.36 -1.60394 0.27884 0
M  V30 10995 O 1021.54 -1.70147 0.539642 0
M  V30 10996 C 1018.64 -3.19935 1.1178 0
M  V30 10997 C 1017.82 -3.70095 2.33128 0
M  V30 10998 C 1016.88 -4.85249 2.03518 0
M  V30 10999 O 1015.9 -4.97563 2.76442 0
M  V30 11000 N 1017.1 -5.7152 1.01714 0
M  V30 11001 H 1019.87 -1.86736 2.34414 0
M  V30 11002 H 1017.43 -0.890863 1.35186 0
M  V30 11003 H 1019.42 -3.94578 0.899464 0
M  V30 11004 H 1017.99 -3.11718 0.234624 0
M  V30 11005 H 1017.21 -2.8651 2.70751 0
M  V30 11006 H 1018.5 -4.00344 3.1401 0
M  V30 11007 H 1017.9 -5.64188 0.413307 0
M  V30 11008 H 1016.46 -6.46119 0.858696 0
M  V30 11009 N 1019.89 -1.26353 -0.941956 0
M  V30 11010 C 1021.14 -1.11851 -1.68806 0
M  V30 11011 C 1021.46 0.33829 -1.91535 0
M  V30 11012 O 1020.72 1.26495 -1.49324 0
M  V30 11013 C 1021.02 -1.83195 -3.06879 0
M  V30 11014 C 1020.68 -3.33093 -3.03908 0
M  V30 11015 C 1019.35 -3.73982 -3.02805 0
M  V30 11016 C 1021.7 -4.28803 -2.96273 0
M  V30 11017 C 1019.03 -5.08971 -2.91832 0
M  V30 11018 C 1021.38 -5.6383 -2.86842 0
M  V30 11019 C 1020.04 -6.04032 -2.84081 0
M  V30 11020 H 1019.31 -0.409293 -0.617706 0
M  V30 11021 H 1021.96 -1.56785 -1.09957 0
M  V30 11022 H 1020.26 -1.30728 -3.69347 0
M  V30 11023 H 1021.96 -1.69416 -3.63455 0
M  V30 11024 H 1018.55 -3.00566 -3.05546 0
M  V30 11025 H 1022.74 -3.98195 -2.96234 0
M  V30 11026 H 1017.99 -5.39282 -2.88072 0
M  V30 11027 H 1022.17 -6.37676 -2.79898 0
M  V30 11028 H 1019.79 -7.08586 -2.75335 0
M  V30 11029 N 1021.37 1.14642 -1.08144 0
M  V30 11030 C 1022.3 2.21775 -0.730609 0
M  V30 11031 C 1023.28 1.67683 0.285702 0
M  V30 11032 O 1024.46 1.93567 0.156667 0
M  V30 11033 C 1021.59 3.47033 -0.136242 0
M  V30 11034 C 1020.55 4.14134 -1.0806 0
M  V30 11035 C 1019.87 5.33563 -0.348585 0
M  V30 11036 C 1021.17 4.62978 -2.41761 0
M  V30 11037 H 1022.87 2.51378 -1.62633 0
M  V30 11038 H 1020.41 1.20825 -0.783411 0
M  V30 11039 H 1022.37 4.21226 0.121182 0
M  V30 11040 H 1021.09 3.16786 0.7946 0
M  V30 11041 H 1019.75 3.41892 -1.32308 0
M  V30 11042 H 1019.4 4.99575 0.585974 0
M  V30 11043 H 1019.1 5.79402 -0.978122 0
M  V30 11044 H 1020.62 6.10519 -0.0991508 0
M  V30 11045 H 1022.04 5.28659 -2.21795 0
M  V30 11046 H 1020.43 5.1951 -3.00383 0
M  V30 11047 H 1021.5 3.78189 -3.03482 0
M  V30 11048 N 1022.85 0.866709 1.31628 0
M  V30 11049 C 1023.79 0.309128 2.30537 0
M  V30 11050 C 1024.79 -0.574028 1.59378 0
M  V30 11051 O 1025.99 -0.460491 1.7401 0
M  V30 11052 H 1022.37 0.081279 0.747595 0
M  V30 11053 H 1024.34 1.15734 2.75042 0
M  V30 11054 C 1023.09 -0.477287 3.44409 0
M  V30 11055 H 1022.41 0.19301 3.99334 0
M  V30 11056 H 1023.85 -0.832818 4.1574 0
M  V30 11057 C 1022.31 -1.66727 2.92752 0
M  V30 11058 O 1022.84 -2.76654 2.91248 0
M  V30 11059 N 1021.05 -1.49833 2.48995 0
M  V30 11060 H 1020.59 -0.604073 2.50417 0
M  V30 11061 H 1020.55 -2.29594 2.14788 0
M  V30 11062 N 1024.32 -1.44642 0.625825 0
M  V30 11063 C 1025.25 -2.33397 -0.0692188 0
M  V30 11064 C 1026.23 -1.47898 -0.840241 0
M  V30 11065 O 1027.42 -1.7663 -0.807176 0
M  V30 11066 C 1024.55 -3.30888 -1.055 0
M  V30 11067 C 1023.5 -4.26164 -0.395968 0
M  V30 11068 C 1022.83 -5.13483 -1.49128 0
M  V30 11069 C 1024.13 -5.17663 0.694433 0
M  V30 11070 H 1025.82 -2.91763 0.671925 0
M  V30 11071 H 1023.37 -1.40294 0.324573 0
M  V30 11072 H 1025.32 -3.91861 -1.54993 0
M  V30 11073 H 1024.05 -2.7072 -1.82696 0
M  V30 11074 H 1022.71 -3.66516 0.0782691 0
M  V30 11075 H 1022.35 -4.49672 -2.25399 0
M  V30 11076 H 1022.05 -5.78038 -1.05573 0
M  V30 11077 H 1023.58 -5.77327 -1.98813 0
M  V30 11078 H 1024.99 -5.72602 0.282818 0
M  V30 11079 H 1023.39 -5.90793 1.05281 0
M  V30 11080 H 1024.46 -4.58994 1.56372 0
M  V30 11081 N 1025.8 -0.366053 -1.5329 0
M  V30 11082 C 1027.04 0.223558 -2.03174 0
M  V30 11083 C 1027.41 1.45955 -1.24745 0
M  V30 11084 O 1028.61 2.12481 -1.64637 0
M  V30 11085 C 1026.88 0.507899 -3.53773 0
M  V30 11086 S 1028.44 1.07111 -4.25526 0
M  V30 11087 H 1025.25 0.0650309 -0.70802 0
M  V30 11088 H 1027.86 -0.509028 -1.88757 0
M  V30 11089 H 1026.56 -0.39913 -4.08455 0
M  V30 11090 H 1026.09 1.26954 -3.72352 0
M  V30 11091 H 1028.11 2.35533 -4.36737 0
M  V30 11092 N 1027.28 1.57312 -0.0952337 0
M  V30 11093 C 1028.52 1.96239 0.571813 0
M  V30 11094 C 1028.88 0.97602 1.65342 0
M  V30 11095 O 1030.08 1.25379 2.37768 0
M  V30 11096 C 1028.36 3.39644 1.1125 0
M  V30 11097 S 1029.91 4.00568 1.7914 0
M  V30 11098 H 1026.73 0.686081 0.186585 0
M  V30 11099 H 1029.33 1.94718 -0.174669 0
M  V30 11100 H 1028.04 4.09199 0.313796 0
M  V30 11101 H 1027.57 3.44762 1.89481 0
M  V30 11102 H 1029.58 3.89383 3.07563 0
M  V30 11103 N 1028.76 -0.17846 1.56586 0
M  V30 11104 C 1029.7 -1.22104 1.95855 0
M  V30 11105 C 1030.67 -1.44366 0.821447 0
M  V30 11106 O 1031.86 -1.57224 1.08098 0
M  V30 11107 C 1029 -2.55701 2.31757 0
M  V30 11108 C 1028.11 -2.40879 3.5861 0
M  V30 11109 C 1027.25 -3.67293 3.83757 0
M  V30 11110 C 1026.29 -3.47373 5.03982 0
M  V30 11111 N 1025.42 -4.65839 5.25298 0
M  V30 11112 H 1030.26 -0.879168 2.84736 0
M  V30 11113 H 1027.8 -0.422721 1.40895 0
M  V30 11114 H 1029.76 -3.33556 2.50592 0
M  V30 11115 H 1028.39 -2.87898 1.45995 0
M  V30 11116 H 1027.44 -1.54236 3.47729 0
M  V30 11117 H 1028.75 -2.22102 4.46623 0
M  V30 11118 H 1027.91 -4.53584 4.02922 0
M  V30 11119 H 1026.65 -3.89041 2.94107 0
M  V30 11120 H 1025.65 -2.59467 4.84723 0
M  V30 11121 H 1026.88 -3.27055 5.95157 0
M  V30 11122 H 1024.82 -4.8782 4.38598 0
M  V30 11123 H 1024.74 -4.4995 6.0752 0
M  V30 11124 H 1026.01 -5.53435 5.48936 0
M  V30 11125 N 1030.24 -1.51135 -0.446768 0
M  V30 11126 C 1031.48 -1.64989 -1.20656 0
M  V30 11127 C 1031.84 -0.353882 -1.88711 0
M  V30 11128 O 1033.04 -0.368099 -2.66268 0
M  V30 11129 C 1031.31 -2.81371 -2.20375 0
M  V30 11130 S 1032.87 -3.15501 -3.04967 0
M  V30 11131 H 1029.69 -0.581372 -0.409301 0
M  V30 11132 H 1032.29 -1.89008 -0.499613 0
M  V30 11133 H 1030.99 -3.73988 -1.69001 0
M  V30 11134 H 1030.53 -2.59512 -2.95664 0
M  V30 11135 H 1032.54 -2.61205 -4.21884 0
M  V30 11136 N 1031.71 0.701592 -1.41122 0
M  V30 11137 C 1032.96 1.4616 -1.40155 0
M  V30 11138 C 1033.29 1.94498 -0.00861553 0
M  V30 11139 O 1032.54 1.69484 0.978452 0
M  V30 11140 C 1032.84 2.693 -2.34973 0
M  V30 11141 C 1032.51 2.39652 -3.81939 0
M  V30 11142 C 1031.17 2.31277 -4.21977 0
M  V30 11143 C 1033.52 2.15076 -4.74755 0
M  V30 11144 C 1030.85 1.96413 -5.52846 0
M  V30 11145 C 1033.2 1.81722 -6.05937 0
M  V30 11146 C 1031.87 1.71838 -6.45002 0
M  V30 11147 H 1031.14 0.534837 -0.512865 0
M  V30 11148 H 1033.78 0.802425 -1.73878 0
M  V30 11149 H 1032.09 3.40123 -1.94484 0
M  V30 11150 H 1033.79 3.27427 -2.31501 0
M  V30 11151 H 1030.38 2.47063 -3.50226 0
M  V30 11152 H 1034.56 2.20495 -4.4463 0
M  V30 11153 H 1029.82 1.87308 -5.82001 0
M  V30 11154 H 1033.99 1.61723 -6.77362 0
M  V30 11155 H 1031.62 1.44591 -7.46323 0
M  V30 11156 N 1033.19 1.2685 0.935242 0
M  V30 11157 C 1034.15 1.08975 2.01636 0
M  V30 11158 C 1035.15 0.0361543 1.60759 0
M  V30 11159 O 1036.34 0.280087 1.71934 0
M  V30 11160 C 1033.48 0.658831 3.34473 0
M  V30 11161 H 1034.67 2.04968 2.18925 0
M  V30 11162 H 1032.22 1.09531 1.11501 0
M  V30 11163 H 1032.96 -0.302824 3.22883 0
M  V30 11164 H 1032.74 1.41967 3.65497 0
M  V30 11165 H 1034.23 0.555783 4.13885 0
M  V30 11166 N 1034.67 -1.14067 1.0875 0
M  V30 11167 C 1035.62 -2.19261 0.720633 0
M  V30 11168 C 1036.59 -1.63462 -0.294847 0
M  V30 11169 O 1037.77 -1.89967 -0.178058 0
M  V30 11170 C 1034.91 -3.44816 0.139873 0
M  V30 11171 C 1034.03 -4.1475 1.20856 0
M  V30 11172 C 1033.16 -5.27899 0.591285 0
M  V30 11173 C 1032.2 -5.89672 1.64176 0
M  V30 11174 N 1031.34 -6.94264 1.04603 0
M  V30 11175 H 1036.18 -2.49991 1.62198 0
M  V30 11176 H 1033.71 -1.22757 0.810497 0
M  V30 11177 H 1035.67 -4.16648 -0.214587 0
M  V30 11178 H 1034.3 -3.14558 -0.724774 0
M  V30 11179 H 1033.35 -3.41272 1.6804 0
M  V30 11180 H 1034.67 -4.56753 2.00446 0
M  V30 11181 H 1033.82 -6.06417 0.185271 0
M  V30 11182 H 1032.56 -4.87128 -0.236236 0
M  V30 11183 H 1031.56 -5.09854 2.05739 0
M  V30 11184 H 1032.79 -6.32517 2.47182 0
M  V30 11185 H 1030.73 -6.55562 0.239664 0
M  V30 11186 H 1030.65 -7.34771 1.77898 0
M  V30 11187 H 1031.92 -7.7665 0.665989 0
M  V30 11188 N 1036.15 -0.873678 -1.31166 0
M  V30 11189 C 1037.39 -0.487178 -1.96861 0
M  V30 11190 C 1037.73 0.95887 -1.68877 0
M  V30 11191 O 1037 1.6758 -0.987279 0
M  V30 11192 C 1037.29 -0.74925 -3.52219 0
M  V30 11193 C 1037.14 -2.2451 -3.89763 0
M  V30 11194 C 1038.46 -0.218194 -4.39559 0
M  V30 11195 H 1035.58 -0.178477 -0.715063 0
M  V30 11196 H 1038.22 -1.0956 -1.55231 0
M  V30 11197 H 1036.37 -0.231403 -3.8781 0
M  V30 11198 H 1038.04 -2.83049 -3.64254 0
M  V30 11199 H 1036.28 -2.71621 -3.38237 0
M  V30 11200 H 1036.95 -2.37911 -4.98099 0
M  V30 11201 H 1039.43 -0.661274 -4.10812 0
M  V30 11202 H 1038.31 -0.430983 -5.47205 0
M  V30 11203 H 1038.57 0.880056 -4.33252 0
M  V30 11204 N 1037.63 1.44308 -0.633487 0
M  V30 11205 C 1038.59 2.2912 0.060376 0
M  V30 11206 C 1039.59 1.41166 0.769992 0
M  V30 11207 O 1040.78 1.63012 0.614224 0
M  V30 11208 C 1037.91 3.22798 1.0961 0
M  V30 11209 H 1039.1 2.91958 -0.685617 0
M  V30 11210 H 1036.66 1.51259 -0.393738 0
M  V30 11211 H 1037.39 2.64815 1.87199 0
M  V30 11212 H 1037.18 3.87618 0.591161 0
M  V30 11213 H 1038.67 3.86504 1.58127 0
M  V30 11214 N 1039.1 0.374177 1.53094 0
M  V30 11215 C 1040.04 -0.511995 2.22382 0
M  V30 11216 C 1041.02 -1.07617 1.2189 0
M  V30 11217 O 1042.2 -1.13068 1.50824 0
M  V30 11218 C 1039.33 -1.70724 2.92525 0
M  V30 11219 C 1038.37 -1.26972 4.07161 0
M  V30 11220 S 1039.21 -0.263835 5.3485 0
M  V30 11221 C 1040.36 -1.46521 6.08508 0
M  V30 11222 H 1040.59 0.0764311 2.97202 0
M  V30 11223 H 1038.13 0.158307 1.53586 0
M  V30 11224 H 1040.09 -2.39279 3.3355 0
M  V30 11225 H 1038.75 -2.26693 2.17414 0
M  V30 11226 H 1037.94 -2.16172 4.55286 0
M  V30 11227 H 1037.54 -0.663273 3.68072 0
M  V30 11228 H 1039.83 -2.39483 6.33762 0
M  V30 11229 H 1040.78 -1.02517 7.0064 0
M  V30 11230 H 1041.18 -1.67516 5.39072 0
M  V30 11231 N 1040.58 -1.57259 0.103575 0
M  V30 11232 C 1041.86 -1.86143 -0.600852 0
M  V30 11233 C 1042.24 -1.00198 -1.85805 0
M  V30 11234 O 1041.59 -0.0766791 -2.28371 0
M  V30 11235 C 1041.8 -3.36978 -0.908108 0
M  V30 11236 C 1043.15 -4.05228 -1.26788 0
M  V30 11237 O 1044.17 -3.41908 -0.998859 0
M  V30 11238 O 1043.03 -5.16971 -1.7721 0
M  V30 11239 H 1040.12 -0.770064 -0.301547 0
M  V30 11240 H 1042.67 -1.69147 0.136914 0
M  V30 11241 H 1041.44 -3.91296 -0.0165615 0
M  V30 11242 H 1041.06 -3.5935 -1.70156 0
M  V30 11243 N 1042.06 0.170153 -1.56679 0
M  V30 11244 C 1043.34 0.913938 -1.72935 0
M  V30 11245 C 1043.72 2.00342 -0.665293 0
M  V30 11246 O 1043.07 2.26252 0.319715 0
M  V30 11247 C 1043.28 1.47761 -3.16177 0
M  V30 11248 C 1044.62 1.95007 -3.7717 0
M  V30 11249 O 1045.65 1.57552 -3.19462 0
M  V30 11250 O 1044.51 2.64007 -4.78501 0
M  V30 11251 H 1041.6 0.43027 -0.706256 0
M  V30 11252 H 1044.15 0.157891 -1.68964 0
M  V30 11253 H 1042.92 0.69352 -3.85105 0
M  V30 11254 H 1042.54 2.2978 -3.24479 0
M  V30 11255 N 1043.54 1.5137 0.438746 0
M  V30 11256 C 1044.77 1.6753 1.20901 0
M  V30 11257 C 1045.18 0.371573 1.85515 0
M  V30 11258 O 1044.52 -0.659701 1.71446 0
M  V30 11259 C 1044.58 2.73305 2.33548 0
M  V30 11260 C 1044.25 4.15944 1.89313 0
M  V30 11261 C 1045.24 5.00769 1.39736 0
M  V30 11262 C 1042.93 4.62036 1.97047 0
M  V30 11263 C 1044.92 6.29747 0.984773 0
M  V30 11264 C 1042.61 5.91011 1.554 0
M  V30 11265 C 1043.61 6.74693 1.06197 0
M  V30 11266 O 1043.29 8.01256 0.651407 0
M  V30 11267 H 1043.03 0.565404 0.370532 0
M  V30 11268 H 1045.58 1.98543 0.526296 0
M  V30 11269 H 1043.81 2.37604 3.05092 0
M  V30 11270 H 1045.5 2.78359 2.95417 0
M  V30 11271 H 1046.27 4.66363 1.33156 0
M  V30 11272 H 1042.14 3.97025 2.34291 0
M  V30 11273 H 1045.69 6.95015 0.600029 0
M  V30 11274 H 1041.59 6.24932 1.6165 0
M  V30 11275 H 1042.35 8.148 0.777382 0
M  V30 11276 N 1045.02 -0.694098 1.41492 0
M  V30 11277 C 1045.95 -1.82042 1.46229 0
M  V30 11278 C 1046.93 -1.67047 0.320803 0
M  V30 11279 O 1048.11 -1.86758 0.53245 0
M  V30 11280 C 1045.24 -3.2019 1.34519 0
M  V30 11281 C 1044.2 -3.49892 2.46495 0
M  V30 11282 C 1043.52 -4.87411 2.1985 0
M  V30 11283 C 1044.82 -3.4872 3.88834 0
M  V30 11284 H 1046.52 -1.78335 2.40493 0
M  V30 11285 H 1044.06 -0.856566 1.15754 0
M  V30 11286 H 1046.02 -3.98699 1.36445 0
M  V30 11287 H 1044.74 -3.24527 0.367406 0
M  V30 11288 H 1043.4 -2.73734 2.43854 0
M  V30 11289 H 1043.05 -4.88375 1.20411 0
M  V30 11290 H 1042.75 -5.08248 2.94885 0
M  V30 11291 H 1044.27 -5.68228 2.23494 0
M  V30 11292 H 1045.68 -4.1723 3.93182 0
M  V30 11293 H 1044.08 -3.81089 4.63564 0
M  V30 11294 H 1045.15 -2.47665 4.16881 0
M  V30 11295 N 1046.49 -1.27344 -0.928501 0
M  V30 11296 C 1047.44 -1.10001 -2.029 0
M  V30 11297 C 1048.41 -0.00131084 -1.661 0
M  V30 11298 O 1049.6 -0.163485 -1.90098 0
M  V30 11299 C 1046.74 -0.7524 -3.36798 0
M  V30 11300 C 1045.85 -1.92865 -3.86558 0
M  V30 11301 C 1044.98 -1.52299 -5.08899 0
M  V30 11302 C 1044.02 -2.66677 -5.50953 0
M  V30 11303 N 1043.16 -2.26706 -6.64491 0
M  V30 11304 H 1048 -2.0417 -2.17068 0
M  V30 11305 H 1045.54 -1.01637 -1.0634 0
M  V30 11306 H 1047.5 -0.531687 -4.13798 0
M  V30 11307 H 1046.13 0.15234 -3.2244 0
M  V30 11308 H 1045.18 -2.26192 -3.05845 0
M  V30 11309 H 1046.49 -2.78668 -4.13698 0
M  V30 11310 H 1045.64 -1.26348 -5.93398 0
M  V30 11311 H 1044.38 -0.636042 -4.83535 0
M  V30 11312 H 1043.39 -2.93344 -4.65004 0
M  V30 11313 H 1044.61 -3.55992 -5.78313 0
M  V30 11314 H 1042.56 -1.40462 -6.40786 0
M  V30 11315 H 1042.48 -3.06049 -6.91281 0
M  V30 11316 H 1043.74 -2.04 -7.52333 0
M  V30 11317 N 1047.97 1.13488 -1.09353 0
M  V30 11318 C 1048.92 2.20949 -0.726923 0
M  V30 11319 C 1049.91 1.67205 0.271816 0
M  V30 11320 O 1051.12 1.79505 0.133356 0
M  V30 11321 H 1047.5 0.719985 -0.217086 0
M  V30 11322 H 1049.47 2.49134 -1.6424 0
M  V30 11323 C 1048.22 3.47319 -0.162822 0
M  V30 11324 H 1047.54 3.89011 -0.922527 0
M  V30 11325 H 1048.98 4.23963 0.0557734 0
M  V30 11326 C 1047.44 3.18376 1.10175 0
M  V30 11327 O 1047.97 3.3707 2.18511 0
M  V30 11328 N 1046.17 2.72262 1.01597 0
M  V30 11329 H 1045.72 2.5725 0.134289 0
M  V30 11330 H 1045.68 2.53272 1.86281 0
M  V30 11331 N 1049.45 0.880621 1.30701 0
M  V30 11332 C 1050.7 0.497611 1.966 0
M  V30 11333 C 1051.03 -0.949901 1.69383 0
M  V30 11334 O 1050.31 -1.67054 0.996152 0
M  V30 11335 C 1050.59 0.767919 3.51817 0
M  V30 11336 C 1050.44 2.26574 3.88567 0
M  V30 11337 C 1051.76 0.241502 4.39437 0
M  V30 11338 H 1048.88 0.182267 0.714106 0
M  V30 11339 H 1051.52 1.10382 1.54648 0
M  V30 11340 H 1049.67 0.251967 3.87682 0
M  V30 11341 H 1051.34 2.84977 3.62748 0
M  V30 11342 H 1049.59 2.73411 3.36792 0
M  V30 11343 H 1050.26 2.40549 4.9683 0
M  V30 11344 H 1052.73 0.683051 4.10455 0
M  V30 11345 H 1051.61 0.459997 5.46969 0
M  V30 11346 H 1051.87 -0.857068 4.33713 0
M  V30 11347 N 1050.93 -1.4397 0.641131 0
M  V30 11348 C 1051.86 -2.27948 -0.10731 0
M  V30 11349 C 1052.84 -1.39124 -0.841615 0
M  V30 11350 O 1054.02 -1.68566 -0.843662 0
M  V30 11351 C 1051.15 -3.18277 -1.15835 0
M  V30 11352 C 1050.2 -4.23276 -0.52345 0
M  V30 11353 S 1051.03 -5.30984 0.693969 0
M  V30 11354 C 1052.19 -6.24882 -0.356831 0
M  V30 11355 H 1052.42 -2.91077 0.605083 0
M  V30 11356 H 1049.95 -1.48303 0.429598 0
M  V30 11357 H 1051.91 -3.70867 -1.75977 0
M  V30 11358 H 1050.57 -2.54348 -1.84299 0
M  V30 11359 H 1049.76 -4.86533 -1.31536 0
M  V30 11360 H 1049.37 -3.74 0.00358355 0
M  V30 11361 H 1051.66 -6.66305 -1.22653 0
M  V30 11362 H 1052.6 -7.07692 0.240412 0
M  V30 11363 H 1053.01 -5.60301 -0.687217 0
M  V30 11364 N 1052.41 -0.382291 -1.52893 0
M  V30 11365 C 1053.34 0.447829 -2.29165 0
M  V30 11366 C 1054.32 1.06956 -1.32267 0
M  V30 11367 O 1055.5 1.08365 -1.61154 0
M  V30 11368 C 1052.63 1.57902 -3.09329 0
M  V30 11369 C 1051.59 1.08369 -4.14053 0
M  V30 11370 C 1050.91 2.30641 -4.82399 0
M  V30 11371 C 1052.21 0.156591 -5.22065 0
M  V30 11372 H 1053.91 -0.188541 -2.98806 0
M  V30 11373 H 1051.45 -0.0921179 -1.43705 0
M  V30 11374 H 1053.41 2.16652 -3.61442 0
M  V30 11375 H 1052.13 2.24287 -2.37409 0
M  V30 11376 H 1050.79 0.518772 -3.62911 0
M  V30 11377 H 1050.44 2.9552 -4.07034 0
M  V30 11378 H 1050.14 1.98163 -5.53177 0
M  V30 11379 H 1051.66 2.90047 -5.37313 0
M  V30 11380 H 1053.08 0.652065 -5.6958 0
M  V30 11381 H 1051.47 -0.0780978 -6.00049 0
M  V30 11382 H 1052.54 -0.796529 -4.78313 0
M  V30 11383 N 1053.89 1.57202 -0.111913 0
M  V30 11384 C 1054.8 2.18475 0.854753 0
M  V30 11385 C 1055.81 1.15888 1.29792 0
M  V30 11386 O 1056.99 1.48329 1.36237 0
M  V30 11387 C 1054.05 2.76645 2.0897 0
M  V30 11388 C 1053.11 3.94244 1.69913 0
M  V30 11389 C 1052.35 4.49631 2.8752 0
M  V30 11390 O 1052.57 4.03926 4.02741 0
M  V30 11391 O 1051.5 5.40417 2.65015 0
M  V30 11392 H 1055.33 3.01519 0.363352 0
M  V30 11393 H 1052.91 1.4897 0.113329 0
M  V30 11394 H 1054.8 3.13755 2.81311 0
M  V30 11395 H 1053.47 1.96637 2.5713 0
M  V30 11396 H 1052.38 3.61915 0.947013 0
M  V30 11397 H 1053.71 4.75666 1.26501 0
M  V30 11398 N 1055.36 -0.161842 1.56767 0
M  V30 11399 C 1056.78 -0.51396 1.51098 0
M  V30 11400 C 1056.98 -1.84158 0.817815 0
M  V30 11401 O 1056.04 -2.49592 0.382133 0
M  V30 11402 C 1057.35 -0.537966 2.95849 0
M  V30 11403 C 1058.9 -0.624512 3.06706 0
M  V30 11404 C 1059.37 -0.679322 4.52934 0
M  V30 11405 N 1060.86 -0.741953 4.57219 0
M  V30 11406 C 1061.6 -0.805096 5.6772 0
M  V30 11407 N 1061.09 -0.828492 6.87828 0
M  V30 11408 N 1062.89 -0.844843 5.55715 0
M  V30 11409 H 1055.04 0.708581 2.00232 0
M  V30 11410 H 1057.3 0.25663 0.912603 0
M  V30 11411 H 1057.01 0.369052 3.49758 0
M  V30 11412 H 1056.88 -1.38113 3.51005 0
M  V30 11413 H 1059.27 -1.52195 2.52825 0
M  V30 11414 H 1059.35 0.245515 2.54619 0
M  V30 11415 H 1058.99 0.213901 5.07449 0
M  V30 11416 H 1058.92 -1.56563 5.02788 0
M  V30 11417 H 1061.41 -0.731772 3.70747 0
M  V30 11418 H 1061.73 -0.878109 7.67795 0
M  V30 11419 H 1060.07 -0.796612 6.9042 0
M  V30 11420 H 1063.26 -0.823632 4.60797 0
M  V30 11421 H 1063.44 -0.890588 6.41851 0
M  V30 11422 N 1056.84 -1.516 -0.430713 0
M  V30 11423 C 1057.8 -1.72794 -1.50582 0
M  V30 11424 C 1058.8 -0.597903 -1.49271 0
M  V30 11425 O 1059.99 -0.865535 -1.51176 0
M  V30 11426 C 1057.13 -1.79049 -2.90093 0
M  V30 11427 H 1058.32 -2.68751 -1.33091 0
M  V30 11428 H 1055.87 -1.4169 -0.659822 0
M  V30 11429 H 1056.61 -0.849309 -3.12981 0
M  V30 11430 H 1056.39 -2.61181 -2.92449 0
M  V30 11431 H 1057.88 -1.97262 -3.68072 0
M  V30 11432 N 1058.32 0.686584 -1.41858 0
M  V30 11433 C 1059.56 1.45879 -1.43173 0
M  V30 11434 C 1059.92 1.91953 -0.0423059 0
M  V30 11435 O 1061.12 2.68709 0.069783 0
M  V30 11436 C 1059.4 2.63196 -2.41791 0
M  V30 11437 S 1060.95 3.52212 -2.6171 0
M  V30 11438 H 1057.77 0.498391 -0.507077 0
M  V30 11439 H 1060.37 0.800313 -1.78368 0
M  V30 11440 H 1059.08 2.27566 -3.41529 0
M  V30 11441 H 1058.61 3.33928 -2.0798 0
M  V30 11442 H 1060.62 4.58744 -1.89125 0
M  V30 11443 N 1059.8 1.27835 0.921735 0
M  V30 11444 C 1061.07 1.05238 1.64877 0
M  V30 11445 C 1061.45 -0.410921 2.07062 0
M  V30 11446 O 1060.8 -1.39538 1.80946 0
M  V30 11447 C 1061.01 2.01955 2.84632 0
M  V30 11448 C 1062.36 2.31657 3.55837 0
M  V30 11449 O 1063.38 1.99975 2.94768 0
M  V30 11450 O 1062.24 2.85692 4.65878 0
M  V30 11451 H 1059.34 0.401622 0.72293 0
M  V30 11452 H 1061.88 1.39123 0.971744 0
M  V30 11453 H 1060.66 3.00614 2.50494 0
M  V30 11454 H 1060.28 1.68667 3.60052 0
M  V30 11455 N 1061.28 -1.12907 1.09954 0
M  V30 11456 C 1062.21 -2.18194 0.701701 0
M  V30 11457 C 1063.22 -1.60724 -0.259131 0
M  V30 11458 O 1064.41 -1.78445 -0.0443549 0
M  V30 11459 C 1061.51 -3.38897 0.0140602 0
M  V30 11460 C 1060.68 -4.25867 0.997807 0
M  V30 11461 C 1059.74 -5.25084 0.34257 0
M  V30 11462 O 1058.77 -5.60492 0.991857 0
M  V30 11463 N 1059.97 -5.73464 -0.901058 0
M  V30 11464 H 1062.73 -2.52939 1.60755 0
M  V30 11465 H 1060.3 -1.28281 0.987703 0
M  V30 11466 H 1062.29 -4.02349 -0.435628 0
M  V30 11467 H 1060.86 -3.02345 -0.794118 0
M  V30 11468 H 1060.08 -3.59107 1.6259 0
M  V30 11469 H 1061.37 -4.80825 1.66388 0
M  V30 11470 H 1060.76 -5.46854 -1.44802 0
M  V30 11471 H 1059.32 -6.38827 -1.29398 0
M  V30 11472 N 1062.75 -0.88754 -1.30232 0
M  V30 11473 C 1063.7 -0.345765 -2.30016 0
M  V30 11474 C 1064.7 0.5486 -1.60271 0
M  V30 11475 O 1065.9 0.43275 -1.74721 0
M  V30 11476 H 1062.28 -0.0931623 -0.746207 0
M  V30 11477 H 1064.25 -1.20095 -2.73166 0
M  V30 11478 C 1063 0.422435 -3.45124 0
M  V30 11479 H 1062.32 -0.256516 -3.98976 0
M  V30 11480 H 1063.76 0.766572 -4.17013 0
M  V30 11481 C 1062.22 1.62049 -2.95367 0
M  V30 11482 O 1062.75 2.71985 -2.95613 0
M  V30 11483 N 1060.95 1.45852 -2.51347 0
M  V30 11484 H 1060.5 0.564158 -2.51346 0
M  V30 11485 H 1060.46 2.26148 -2.18413 0
M  V30 11486 N 1064.23 1.43628 -0.648757 0
M  V30 11487 C 1065.18 2.32529 0.057536 0
M  V30 11488 C 1066.17 1.48358 0.817699 0
M  V30 11489 O 1067.38 1.64595 0.728605 0
M  V30 11490 H 1063.76 0.75107 0.037388 0
M  V30 11491 H 1065.73 2.89829 -0.710062 0
M  V30 11492 C 1064.48 3.32605 1.01336 0
M  V30 11493 H 1063.8 3.97395 0.437855 0
M  V30 11494 H 1065.24 3.97453 1.47672 0
M  V30 11495 C 1063.7 2.62865 2.10722 0
M  V30 11496 O 1064.23 2.4408 3.19042 0
M  V30 11497 N 1062.43 2.22312 1.87152 0
M  V30 11498 H 1061.98 2.3779 0.990644 0
M  V30 11499 H 1061.94 1.75979 2.60536 0
M  V30 11500 N 1065.71 0.390394 1.52688 0
M  V30 11501 C 1066.94 -0.194013 2.06491 0
M  V30 11502 C 1067.36 -1.3965 1.26014 0
M  V30 11503 O 1066.72 -1.79038 0.285468 0
M  V30 11504 C 1066.77 -0.541306 3.56514 0
M  V30 11505 O 1065.87 -1.63509 3.78601 0
M  V30 11506 H 1065.21 -0.0223608 0.663623 0
M  V30 11507 H 1067.74 0.558179 1.96839 0
M  V30 11508 H 1067.75 -0.805301 3.99974 0
M  V30 11509 H 1066.43 0.337828 4.14526 0
M  V30 11510 H 1065 -1.36473 3.4703 0
M  V30 11511 N 1067.19 -1.57141 0.120249 0
M  V30 11512 C 1068.44 -1.94413 -0.53727 0
M  V30 11513 C 1068.75 -1.00594 -1.67751 0
M  V30 11514 O 1069.96 -1.27336 -2.39787 0
M  V30 11515 C 1068.41 -3.45521 -1.00714 0
M  V30 11516 C 1068.02 -4.47878 0.104706 0
M  V30 11517 C 1069.76 -3.9171 -1.63596 0
M  V30 11518 C 1067.67 -5.90165 -0.381932 0
M  V30 11519 H 1066.6 -0.725745 -0.204475 0
M  V30 11520 H 1069.25 -1.82404 0.200302 0
M  V30 11521 H 1067.63 -3.52769 -1.79917 0
M  V30 11522 H 1068.81 -4.523 0.881002 0
M  V30 11523 H 1067.12 -4.11448 0.640264 0
M  V30 11524 H 1069.72 -4.95433 -2.01122 0
M  V30 11525 H 1070.06 -3.31756 -2.51483 0
M  V30 11526 H 1070.6 -3.87268 -0.909319 0
M  V30 11527 H 1067.34 -6.53877 0.460921 0
M  V30 11528 H 1066.86 -5.89161 -1.12468 0
M  V30 11529 H 1068.53 -6.41488 -0.842748 0
M  V30 11530 N 1068.67 0.153526 -1.5685 0
M  V30 11531 C 1069.6 1.21906 -1.9291 0
M  V30 11532 C 1070.58 1.4189 -0.794098 0
M  V30 11533 O 1071.76 1.56609 -1.0491 0
M  V30 11534 C 1068.89 2.57908 -2.19548 0
M  V30 11535 C 1067.93 2.54557 -3.42203 0
M  V30 11536 S 1068.77 2.01891 -4.95984 0
M  V30 11537 C 1069.92 3.39635 -5.25737 0
M  V30 11538 H 1070.16 0.911382 -2.82986 0
M  V30 11539 H 1067.69 0.358863 -1.50172 0
M  V30 11540 H 1069.65 3.36177 -2.35575 0
M  V30 11541 H 1068.31 2.85868 -1.30147 0
M  V30 11542 H 1067.5 3.54657 -3.58098 0
M  V30 11543 H 1067.1 1.84393 -3.25385 0
M  V30 11544 H 1069.4 4.35716 -5.18804 0
M  V30 11545 H 1070.34 3.28599 -6.27239 0
M  V30 11546 H 1070.75 3.36469 -4.53265 0
M  V30 11547 N 1070.14 1.51827 0.422667 0
M  V30 11548 C 1071.39 1.65464 1.17258 0
M  V30 11549 C 1071.72 0.376834 1.90509 0
M  V30 11550 O 1071 -0.624219 1.84211 0
M  V30 11551 C 1071.28 2.86776 2.17788 0
M  V30 11552 C 1071.13 4.24571 1.48523 0
M  V30 11553 C 1072.45 3.03603 3.18611 0
M  V30 11554 H 1069.57 0.602169 0.424925 0
M  V30 11555 H 1072.21 1.84349 0.45996 0
M  V30 11556 H 1070.36 2.70806 2.78561 0
M  V30 11557 H 1072.04 4.5224 0.909739 0
M  V30 11558 H 1070.28 4.26595 0.787354 0
M  V30 11559 H 1070.95 5.05475 2.2181 0
M  V30 11560 H 1073.43 3.18381 2.67904 0
M  V30 11561 H 1072.3 3.90022 3.8623 0
M  V30 11562 H 1072.56 2.16318 3.85563 0
M  V30 11563 N 1071.62 -0.679052 1.4222 0
M  V30 11564 C 1072.53 -1.82221 1.47759 0
M  V30 11565 C 1073.55 -1.70092 0.3667 0
M  V30 11566 O 1074.72 -1.91718 0.616957 0
M  V30 11567 C 1071.79 -3.18332 1.37351 0
M  V30 11568 C 1070.85 -3.42449 2.58896 0
M  V30 11569 C 1070.08 -4.72067 2.48976 0
M  V30 11570 O 1070.31 -5.49683 1.5233 0
M  V30 11571 O 1069.24 -4.97333 3.39033 0
M  V30 11572 H 1073.07 -1.80504 2.44238 0
M  V30 11573 H 1070.65 -0.834251 1.23938 0
M  V30 11574 H 1072.53 -3.99563 1.33893 0
M  V30 11575 H 1071.21 -3.20696 0.439965 0
M  V30 11576 H 1070.12 -2.61083 2.6793 0
M  V30 11577 H 1071.45 -3.44912 3.51136 0
M  V30 11578 N 1073.1 -1.28322 -0.914942 0
M  V30 11579 C 1074.34 -1.16657 -1.6784 0
M  V30 11580 C 1074.7 0.280473 -1.8994 0
M  V30 11581 O 1075.91 0.519801 -2.63726 0
M  V30 11582 C 1074.18 -1.94185 -3.00045 0
M  V30 11583 S 1075.74 -1.98881 -3.91141 0
M  V30 11584 H 1072.55 -0.416232 -0.57643 0
M  V30 11585 H 1075.16 -1.62405 -1.08834 0
M  V30 11586 H 1073.86 -2.98488 -2.81661 0
M  V30 11587 H 1073.39 -1.48982 -3.64099 0
M  V30 11588 H 1075.41 -1.09445 -4.8398 0
M  V30 11589 N 1074.58 1.12322 -1.10551 0
M  V30 11590 C 1075.51 2.20176 -0.777486 0
M  V30 11591 C 1076.49 1.68252 0.250069 0
M  V30 11592 O 1077.67 1.93856 0.115574 0
M  V30 11593 C 1074.8 3.46666 -0.209822 0
M  V30 11594 C 1073.76 4.11749 -1.1682 0
M  V30 11595 C 1073.08 5.32703 -0.461684 0
M  V30 11596 C 1074.38 4.57746 -2.51527 0
M  V30 11597 H 1076.08 2.47872 -1.67928 0
M  V30 11598 H 1073.62 1.19136 -0.808863 0
M  V30 11599 H 1075.58 4.21388 0.0318068 0
M  V30 11600 H 1074.3 3.18401 0.727226 0
M  V30 11601 H 1072.96 3.39009 -1.3953 0
M  V30 11602 H 1072.61 5.00706 0.479875 0
M  V30 11603 H 1072.31 5.77197 -1.1008 0
M  V30 11604 H 1073.83 6.10172 -0.228629 0
M  V30 11605 H 1075.25 5.23835 -2.32958 0
M  V30 11606 H 1073.64 5.13021 -3.11335 0
M  V30 11607 H 1074.71 3.71667 -3.11435 0
M  V30 11608 N 1076.06 0.894434 1.2976 0
M  V30 11609 C 1076.99 0.3847 2.30309 0
M  V30 11610 C 1077.97 -0.537486 1.61385 0
M  V30 11611 O 1079.15 -0.449332 1.8893 0
M  V30 11612 C 1076.28 -0.393311 3.45066 0
M  V30 11613 C 1075.24 0.437968 4.25753 0
M  V30 11614 C 1074.56 -0.467221 5.32655 0
M  V30 11615 C 1075.86 1.6851 4.9437 0
M  V30 11616 H 1077.56 1.22496 2.73194 0
M  V30 11617 H 1075.1 0.590471 1.31337 0
M  V30 11618 H 1077.06 -0.760614 4.14479 0
M  V30 11619 H 1075.78 -1.2673 3.0101 0
M  V30 11620 H 1074.44 0.787533 3.58041 0
M  V30 11621 H 1074.09 -1.33919 4.84845 0
M  V30 11622 H 1073.79 0.0852482 5.87538 0
M  V30 11623 H 1075.31 -0.830833 6.04921 0
M  V30 11624 H 1076.72 1.38784 5.56248 0
M  V30 11625 H 1075.12 2.17849 5.59162 0
M  V30 11626 H 1076.19 2.42412 4.19958 0
M  V30 11627 N 1077.53 -1.43282 0.656365 0
M  V30 11628 C 1078.46 -2.33492 -0.0196962 0
M  V30 11629 C 1079.45 -1.49647 -0.80868 0
M  V30 11630 O 1080.63 -1.78303 -0.769529 0
M  V30 11631 C 1077.76 -3.33052 -0.984574 0
M  V30 11632 C 1076.71 -4.26908 -0.305483 0
M  V30 11633 C 1076.04 -5.16531 -1.38202 0
M  V30 11634 C 1077.34 -5.16073 0.804081 0
M  V30 11635 H 1079.03 -2.90272 0.733661 0
M  V30 11636 H 1076.58 -1.39574 0.354259 0
M  V30 11637 H 1078.53 -3.9506 -1.46647 0
M  V30 11638 H 1077.26 -2.74535 -1.76913 0
M  V30 11639 H 1075.92 -3.66268 0.155995 0
M  V30 11640 H 1075.56 -4.54351 -2.1581 0
M  V30 11641 H 1075.26 -5.80148 -0.932878 0
M  V30 11642 H 1076.79 -5.81414 -1.86522 0
M  V30 11643 H 1078.2 -5.71873 0.404212 0
M  V30 11644 H 1076.6 -5.88427 1.17789 0
M  V30 11645 H 1077.67 -4.55574 1.66073 0
M  V30 11646 N 1079.01 -0.398486 -1.52479 0
M  V30 11647 C 1079.94 0.423498 -2.29627 0
M  V30 11648 C 1080.92 1.05547 -1.33394 0
M  V30 11649 O 1082.11 1.0665 -1.62294 0
M  V30 11650 C 1079.24 1.54612 -3.10986 0
M  V30 11651 C 1078.19 1.03971 -4.15179 0
M  V30 11652 C 1077.52 2.25512 -4.84818 0
M  V30 11653 C 1078.82 0.10121 -5.22202 0
M  V30 11654 H 1080.51 -0.220222 -2.98589 0
M  V30 11655 H 1078.06 -0.107355 -1.43599 0
M  V30 11656 H 1080.01 2.12806 -3.63719 0
M  V30 11657 H 1078.74 2.21756 -2.39774 0
M  V30 11658 H 1077.4 0.480251 -3.63441 0
M  V30 11659 H 1077.04 2.91187 -4.10145 0
M  V30 11660 H 1076.74 1.92285 -5.55248 0
M  V30 11661 H 1078.27 2.84331 -5.40359 0
M  V30 11662 H 1079.68 0.591617 -5.70239 0
M  V30 11663 H 1078.08 -0.141737 -5.99933 0
M  V30 11664 H 1079.15 -0.847216 -4.77441 0
M  V30 11665 N 1080.49 1.57075 -0.12858 0
M  V30 11666 C 1081.74 1.95134 0.526046 0
M  V30 11667 C 1082.06 1.01337 1.66601 0
M  V30 11668 O 1081.33 0.0714361 1.9577 0
M  V30 11669 H 1079.91 0.720468 0.19732 0
M  V30 11670 H 1082.57 1.93874 -0.199767 0
M  V30 11671 H 1081.67 2.98406 0.914332 0
M  V30 11672 N 1081.97 -0.145205 1.5693 0
M  V30 11673 C 1082.93 -1.16316 1.97492 0
M  V30 11674 C 1083.93 -1.35764 0.861668 0
M  V30 11675 O 1085.12 -1.32726 1.12825 0
M  V30 11676 C 1082.25 -2.52311 2.29242 0
M  V30 11677 H 1083.45 -0.815138 2.8861 0
M  V30 11678 H 1081 -0.38861 1.51392 0
M  V30 11679 H 1081.74 -2.92081 1.40922 0
M  V30 11680 H 1081.52 -2.39555 3.10412 0
M  V30 11681 H 1083.01 -3.25624 2.61456 0
M  V30 11682 N 1083.45 -1.52049 -0.414609 0
M  V30 11683 C 1084.72 -1.56397 -1.17471 0
M  V30 11684 C 1085.1 -0.34171 -2.08316 0
M  V30 11685 O 1084.45 0.6718 -2.18401 0
M  V30 11686 C 1084.66 -2.88983 -1.95678 0
M  V30 11687 C 1086.01 -3.41781 -2.51935 0
M  V30 11688 O 1087.03 -2.90686 -2.05865 0
M  V30 11689 O 1085.89 -4.30989 -3.36022 0
M  V30 11690 H 1082.99 -0.62974 -0.536056 0
M  V30 11691 H 1085.53 -1.64374 -0.421834 0
M  V30 11692 H 1084.31 -3.69392 -1.29094 0
M  V30 11693 H 1083.93 -2.84274 -2.77983 0
M  V30 11694 N 1084.93 0.6715 -1.42579 0
M  V30 11695 C 1085.89 1.76676 -1.46008 0
M  V30 11696 C 1086.89 1.57007 -0.347213 0
M  V30 11697 O 1088.08 1.63238 -0.608185 0
M  V30 11698 C 1085.21 3.15348 -1.29494 0
M  V30 11699 H 1086.4 1.75021 -2.43531 0
M  V30 11700 H 1083.96 0.881444 -1.29075 0
M  V30 11701 H 1084.69 3.22626 -0.32906 0
M  V30 11702 H 1084.48 3.31028 -2.10149 0
M  V30 11703 H 1085.97 3.95251 -1.34784 0
M  V30 11704 N 1086.4 1.28806 0.908124 0
M  V30 11705 C 1087.35 1.13083 2.03261 0
M  V30 11706 C 1088.35 0.0486094 1.6933 0
M  V30 11707 O 1089.55 0.207794 1.78797 0
M  V30 11708 H 1085.93 0.349057 0.666081 0
M  V30 11709 H 1087.9 2.08304 2.13663 0
M  V30 11710 C 1086.65 0.815339 3.38005 0
M  V30 11711 H 1085.97 1.64007 3.64612 0
M  V30 11712 H 1087.41 0.745311 4.17398 0
M  V30 11713 C 1085.87 -0.48113 3.33447 0
M  V30 11714 O 1086.4 -1.50974 3.7225 0
M  V30 11715 N 1084.6 -0.483912 2.86543 0
M  V30 11716 H 1084.15 0.353593 2.55162 0
M  V30 11717 H 1084.11 -1.35138 2.83875 0
M  V30 11718 N 1087.88 -1.11734 1.11145 0
M  V30 11719 C 1088.81 -2.17438 0.724804 0
M  V30 11720 C 1089.83 -1.6099 -0.242069 0
M  V30 11721 O 1091.02 -1.78482 -0.0254259 0
M  V30 11722 C 1088.12 -3.38863 0.050004 0
M  V30 11723 C 1087.29 -4.24785 1.04292 0
M  V30 11724 C 1086.35 -5.24691 0.398243 0
M  V30 11725 O 1085.37 -5.59408 1.05125 0
M  V30 11726 N 1086.58 -5.74388 -0.840184 0
M  V30 11727 H 1089.34 -2.51219 1.63429 0
M  V30 11728 H 1086.9 -1.27226 1.00125 0
M  V30 11729 H 1088.89 -4.02788 -0.392929 0
M  V30 11730 H 1087.46 -3.0317 -0.762005 0
M  V30 11731 H 1086.68 -3.57363 1.6639 0
M  V30 11732 H 1087.97 -4.79033 1.71478 0
M  V30 11733 H 1087.37 -5.48359 -1.38994 0
M  V30 11734 H 1085.93 -6.40163 -1.22615 0
M  V30 11735 N 1089.36 -0.901303 -1.29284 0
M  V30 11736 C 1090.32 -0.385081 -2.25942 0
M  V30 11737 C 1091.32 0.481626 -1.53418 0
M  V30 11738 O 1092.51 0.286451 -1.71829 0
M  V30 11739 C 1089.64 0.449319 -3.37926 0
M  V30 11740 H 1090.84 -1.23877 -2.7312 0
M  V30 11741 H 1088.39 -0.679586 -1.40753 0
M  V30 11742 H 1089.13 1.32292 -2.9609 0
M  V30 11743 H 1088.91 -0.171731 -3.91724 0
M  V30 11744 H 1090.4 0.801746 -4.09831 0
M  V30 11745 N 1090.84 1.42931 -0.663954 0
M  V30 11746 C 1091.78 2.3079 0.0210764 0
M  V30 11747 C 1092.75 1.45356 0.803796 0
M  V30 11748 O 1093.94 1.74207 0.778237 0
M  V30 11749 C 1091.08 3.31069 0.974023 0
M  V30 11750 C 1090.19 4.31598 0.186273 0
M  V30 11751 C 1089.33 5.18955 1.13399 0
M  V30 11752 C 1088.37 6.1117 0.337292 0
M  V30 11753 N 1087.5 6.91114 1.23715 0
M  V30 11754 H 1092.34 2.88819 -0.733995 0
M  V30 11755 H 1089.88 1.42274 -0.373711 0
M  V30 11756 H 1091.84 3.87727 1.54024 0
M  V30 11757 H 1090.47 2.74665 1.69585 0
M  V30 11758 H 1089.52 3.77147 -0.496402 0
M  V30 11759 H 1090.83 4.96919 -0.432753 0
M  V30 11760 H 1089.99 5.80292 1.77049 0
M  V30 11761 H 1088.73 4.53785 1.78691 0
M  V30 11762 H 1087.73 5.48911 -0.312492 0
M  V30 11763 H 1088.96 6.78386 -0.31138 0
M  V30 11764 H 1086.9 6.28583 1.87668 0
M  V30 11765 H 1086.82 7.52999 0.672946 0
M  V30 11766 H 1088.09 7.56948 1.86146 0
M  V30 11767 N 1092.32 0.406567 1.52266 0
M  V30 11768 C 1093.23 -0.4271 2.30679 0
M  V30 11769 C 1094.24 -1.0559 1.383 0
M  V30 11770 O 1095.42 -1.05797 1.71374 0
M  V30 11771 C 1092.48 -1.53008 3.1111 0
M  V30 11772 C 1091.54 -0.924604 4.19225 0
M  V30 11773 C 1090.78 -1.97502 4.95811 0
M  V30 11774 O 1091 -3.19277 4.72671 0
M  V30 11775 O 1089.93 -1.58268 5.80719 0
M  V30 11776 H 1093.76 0.212187 3.02958 0
M  V30 11777 H 1091.34 0.169835 1.48432 0
M  V30 11778 H 1093.23 -2.17046 3.61205 0
M  V30 11779 H 1091.9 -2.15401 2.41628 0
M  V30 11780 H 1090.81 -0.247009 3.73284 0
M  V30 11781 H 1092.14 -0.34463 4.90992 0
M  V30 11782 N 1093.79 -1.57004 0.136909 0
M  V30 11783 C 1095.04 -1.9541 -0.51569 0
M  V30 11784 C 1095.36 -1.02219 -1.66061 0
M  V30 11785 O 1094.63 -0.0818172 -1.95729 0
M  V30 11786 H 1093.21 -0.721504 -0.193497 0
M  V30 11787 H 1095.88 -1.93765 0.210046 0
M  V30 11788 H 1094.97 -2.98887 -0.898494 0
M  V30 11789 N 1095.27 0.136881 -1.57004 0
M  V30 11790 C 1096.5 0.866405 -1.88436 0
M  V30 11791 C 1096.92 1.73483 -0.727006 0
M  V30 11792 O 1096.28 1.78398 0.323094 0
M  V30 11793 C 1096.33 1.69059 -3.18514 0
M  V30 11794 O 1095.43 2.79584 -3.03161 0
M  V30 11795 H 1094.77 0.240709 -0.618834 0
M  V30 11796 H 1097.3 0.124653 -2.0422 0
M  V30 11797 H 1097.31 2.08353 -3.50789 0
M  V30 11798 H 1095.99 1.05296 -4.0235 0
M  V30 11799 H 1094.57 2.43623 -2.82315 0
M  V30 11800 N 1096.75 1.52266 0.40654 0
M  V30 11801 C 1097.98 1.70598 1.17945 0
M  V30 11802 C 1098.4 0.415793 1.83447 0
M  V30 11803 O 1097.76 -0.626968 1.70114 0
M  V30 11804 C 1097.81 2.84449 2.21633 0
M  V30 11805 O 1096.91 2.50199 3.27833 0
M  V30 11806 H 1096.25 0.567837 0.344177 0
M  V30 11807 H 1098.78 1.98981 0.476211 0
M  V30 11808 H 1098.79 3.09436 2.65919 0
M  V30 11809 H 1097.47 3.78055 1.73341 0
M  V30 11810 H 1096.04 2.35892 2.88807 0
M  V30 11811 N 1098.23 -0.663929 1.42933 0
M  V30 11812 C 1099.16 -1.78899 1.50058 0
M  V30 11813 C 1100.14 -1.66329 0.356164 0
M  V30 11814 O 1101.32 -1.85587 0.571944 0
M  V30 11815 C 1098.45 -3.17265 1.41281 0
M  V30 11816 C 1097.41 -3.44584 2.53861 0
M  V30 11817 C 1096.73 -4.82638 2.3014 0
M  V30 11818 C 1098.03 -3.40394 3.96143 0
M  V30 11819 H 1099.73 -1.73194 2.44222 0
M  V30 11820 H 1097.27 -0.83182 1.17545 0
M  V30 11821 H 1099.23 -3.95715 1.44872 0
M  V30 11822 H 1097.95 -3.23675 0.43616 0
M  V30 11823 H 1096.61 -2.685 2.49606 0
M  V30 11824 H 1096.26 -4.85711 1.30743 0
M  V30 11825 H 1095.96 -5.01879 3.056 0
M  V30 11826 H 1097.48 -5.63359 2.35497 0
M  V30 11827 H 1098.9 -4.08796 4.01943 0
M  V30 11828 H 1097.29 -3.7117 4.71543 0
M  V30 11829 H 1098.36 -2.38767 4.22041 0
M  V30 11830 N 1099.71 -1.29285 -0.901281 0
M  V30 11831 C 1100.96 -1.16538 -1.64626 0
M  V30 11832 C 1101.27 0.282623 -1.93547 0
M  V30 11833 O 1102.47 0.531396 -2.66249 0
M  V30 11834 C 1100.93 -2.03809 -2.96631 0
M  V30 11835 C 1100.54 -3.53423 -2.75311 0
M  V30 11836 C 1102.28 -1.99782 -3.7455 0
M  V30 11837 C 1100.19 -4.32804 -4.03032 0
M  V30 11838 H 1099.12 -0.432561 -0.617581 0
M  V30 11839 H 1101.77 -1.53912 -0.999159 0
M  V30 11840 H 1100.15 -1.59302 -3.62545 0
M  V30 11841 H 1101.33 -4.05971 -2.18 0
M  V30 11842 H 1099.64 -3.59106 -2.10789 0
M  V30 11843 H 1102.24 -2.5635 -4.69243 0
M  V30 11844 H 1102.58 -0.97743 -4.04663 0
M  V30 11845 H 1103.11 -2.42324 -3.15474 0
M  V30 11846 H 1099.85 -5.35473 -3.78086 0
M  V30 11847 H 1099.37 -3.85025 -4.59909 0
M  V30 11848 H 1101.05 -4.43383 -4.71191 0
M  V30 11849 N 1101.18 1.11143 -1.11736 0
M  V30 11850 C 1102.42 1.84576 -0.878119 0
M  V30 11851 C 1102.79 1.82851 0.585605 0
M  V30 11852 O 1103.99 2.51763 0.941732 0
M  V30 11853 C 1102.26 3.27628 -1.4281 0
M  V30 11854 S 1103.82 4.18276 -1.3263 0
M  V30 11855 H 1100.64 0.636442 -0.316958 0
M  V30 11856 H 1103.24 1.33794 -1.42546 0
M  V30 11857 H 1101.94 3.2645 -2.48714 0
M  V30 11858 H 1101.47 3.83479 -0.877925 0
M  V30 11859 H 1103.49 4.95335 -0.292878 0
M  V30 11860 N 1102.66 0.908147 1.28804 0
M  V30 11861 C 1103.59 0.34957 2.26519 0
M  V30 11862 C 1104.61 -0.508845 1.54643 0
M  V30 11863 O 1105.8 -0.324633 1.75523 0
M  V30 11864 C 1102.9 -0.519461 3.34895 0
M  V30 11865 C 1102.07 0.315157 4.36263 0
M  V30 11866 C 1101.13 -0.488059 5.23932 0
M  V30 11867 O 1100.15 0.0974133 5.69117 0
M  V30 11868 N 1101.36 -1.79233 5.52137 0
M  V30 11869 H 1104.12 1.18945 2.75086 0
M  V30 11870 H 1101.68 0.77351 1.42227 0
M  V30 11871 H 1103.67 -1.0634 3.90479 0
M  V30 11872 H 1102.24 -1.26004 2.8608 0
M  V30 11873 H 1101.46 1.04049 3.8022 0
M  V30 11874 H 1102.75 0.886438 5.01019 0
M  V30 11875 H 1102.15 -2.2906 5.1725 0
M  V30 11876 H 1100.71 -2.28322 6.10502 0
M  V30 11877 N 1104.14 -1.42577 0.671525 0
M  V30 11878 C 1105.39 -2.01882 0.192716 0
M  V30 11879 C 1105.72 -1.52959 -1.19654 0
M  V30 11880 O 1104.99 -0.730404 -1.80265 0
M  V30 11881 C 1105.28 -3.59404 0.223734 0
M  V30 11882 C 1105.13 -4.18514 1.64821 0
M  V30 11883 C 1106.45 -4.37996 -0.429858 0
M  V30 11884 H 1103.57 -0.733523 0.0715026 0
M  V30 11885 H 1106.21 -1.69641 0.855689 0
M  V30 11886 H 1104.36 -3.87003 -0.340776 0
M  V30 11887 H 1106.03 -4.01881 2.26472 0
M  V30 11888 H 1104.28 -3.74467 2.1899 0
M  V30 11889 H 1104.95 -5.27643 1.62162 0
M  V30 11890 H 1107.42 -4.16069 0.0506433 0
M  V30 11891 H 1106.3 -5.476 -0.377503 0
M  V30 11892 H 1106.56 -4.15625 -1.50693 0
M  V30 11893 N 1105.62 -0.414636 -1.52048 0
M  V30 11894 C 1106.86 0.158807 -2.03782 0
M  V30 11895 C 1107.22 1.41912 -1.29325 0
M  V30 11896 O 1108.42 2.07136 -1.71313 0
M  V30 11897 C 1106.69 0.395092 -3.55209 0
M  V30 11898 S 1108.25 0.935193 -4.28719 0
M  V30 11899 H 1105.07 0.0424729 -0.70973 0
M  V30 11900 H 1107.67 -0.568822 -1.87042 0
M  V30 11901 H 1106.38 -0.528875 -4.06978 0
M  V30 11902 H 1105.91 1.15044 -3.76203 0
M  V30 11903 H 1107.92 2.21519 -4.44009 0
M  V30 11904 N 1107.1 1.56929 -0.145233 0
M  V30 11905 C 1108.01 2.20238 0.808219 0
M  V30 11906 C 1109.02 1.18615 1.27304 0
M  V30 11907 O 1110.2 1.51186 1.3306 0
M  V30 11908 C 1107.26 2.81016 2.03055 0
M  V30 11909 C 1106.32 3.97759 1.61512 0
M  V30 11910 C 1105.56 4.55628 2.77918 0
M  V30 11911 O 1105.78 4.12378 3.94082 0
M  V30 11912 O 1104.71 5.45917 2.53492 0
M  V30 11913 H 1108.54 3.02221 0.299314 0
M  V30 11914 H 1106.13 1.49176 0.0817051 0
M  V30 11915 H 1108.01 3.19652 2.74592 0
M  V30 11916 H 1106.68 2.02047 2.52901 0
M  V30 11917 H 1105.59 3.63842 0.870033 0
M  V30 11918 H 1106.92 4.78242 1.16383 0
M  V30 11919 N 1108.58 -0.128553 1.57075 0
M  V30 11920 C 1109.52 -1.15812 1.9964 0
M  V30 11921 C 1110.49 -1.41679 0.86696 0
M  V30 11922 O 1111.68 -1.53705 1.13046 0
M  V30 11923 C 1108.82 -2.48198 2.39774 0
M  V30 11924 C 1107.93 -2.29348 3.66092 0
M  V30 11925 C 1107.07 -3.54898 3.95248 0
M  V30 11926 C 1106.1 -3.31164 5.14779 0
M  V30 11927 N 1105.24 -4.48891 5.39853 0
M  V30 11928 H 1110.08 -0.788136 2.87389 0
M  V30 11929 H 1107.62 -0.377682 1.42169 0
M  V30 11930 H 1109.58 -3.25414 2.61077 0
M  V30 11931 H 1108.21 -2.83108 1.5508 0
M  V30 11932 H 1107.26 -1.43095 3.5246 0
M  V30 11933 H 1108.57 -2.07781 4.53463 0
M  V30 11934 H 1107.72 -4.40536 4.17148 0
M  V30 11935 H 1106.46 -3.79487 3.06335 0
M  V30 11936 H 1105.47 -2.43915 4.92733 0
M  V30 11937 H 1106.69 -3.07954 6.05261 0
M  V30 11938 H 1104.64 -4.73619 4.53895 0
M  V30 11939 H 1104.56 -4.30394 6.21528 0
M  V30 11940 H 1105.82 -5.35691 5.66265 0
M  V30 11941 N 1110.05 -1.5248 -0.398459 0
M  V30 11942 C 1110.96 -1.79492 -1.51062 0
M  V30 11943 C 1111.98 -0.681101 -1.60116 0
M  V30 11944 O 1113.16 -0.967671 -1.7663 0
M  V30 11945 C 1110.22 -1.94958 -2.86692 0
M  V30 11946 C 1109.28 -3.1887 -2.87438 0
M  V30 11947 C 1108.51 -3.33588 -4.16599 0
M  V30 11948 O 1108.74 -2.53327 -5.11059 0
M  V30 11949 O 1107.67 -4.26795 -4.24416 0
M  V30 11950 H 1111.5 -2.73913 -1.31169 0
M  V30 11951 H 1109.08 -1.37455 -0.585372 0
M  V30 11952 H 1110.96 -2.06891 -3.67116 0
M  V30 11953 H 1109.64 -1.03726 -3.06631 0
M  V30 11954 H 1108.55 -3.12386 -2.0583 0
M  V30 11955 H 1109.88 -4.09917 -2.7245 0
M  V30 11956 N 1111.53 0.65634 -1.43283 0
M  V30 11957 C 1112.76 1.44906 -1.48382 0
M  V30 11958 C 1113.18 1.87823 -0.101993 0
M  V30 11959 O 1112.54 1.57178 0.903597 0
M  V30 11960 C 1112.59 2.66231 -2.43215 0
M  V30 11961 O 1111.69 3.65176 -1.91625 0
M  V30 11962 H 1111.03 0.434601 -0.502014 0
M  V30 11963 H 1113.56 0.803429 -1.88165 0
M  V30 11964 H 1113.57 3.14083 -2.60414 0
M  V30 11965 H 1112.25 2.34336 -3.43598 0
M  V30 11966 H 1110.82 3.24302 -1.84072 0
M  V30 11967 N 1113.01 1.29761 0.894412 0
M  V30 11968 C 1114.23 1.21064 1.68399 0
M  V30 11969 C 1114.66 -0.224608 1.86754 0
M  V30 11970 O 1114.02 -1.16199 1.39167 0
M  V30 11971 C 1114.07 1.93468 3.04306 0
M  V30 11972 O 1113.17 1.25533 3.9283 0
M  V30 11973 H 1112.51 0.419223 0.514925 0
M  V30 11974 H 1115.04 1.71421 1.11696 0
M  V30 11975 H 1115.05 2.02127 3.54413 0
M  V30 11976 H 1113.73 2.97857 2.90265 0
M  V30 11977 H 1112.3 1.25168 3.51266 0
M  V30 11978 N 1114.49 -1.10549 1.12324 0
M  V30 11979 C 1115.9 -1.63991 0.892402 0
M  V30 11980 C 1116.25 -1.87631 -0.573506 0
M  V30 11981 O 1115.37 -1.6174 -1.43768 0
M  V30 11982 C 1115.97 -2.97914 1.61347 0
M  V30 11983 C 1114.53 -3.48227 1.42881 0
M  V30 11984 C 1113.68 -2.22857 1.65015 0
M  V30 11985 H 1116.63 -0.94065 1.27818 0
M  V30 11986 H 1116.65 -3.65326 1.06382 0
M  V30 11987 H 1116.16 -2.80677 2.68034 0
M  V30 11988 H 1114.26 -3.70611 0.384441 0
M  V30 11989 H 1114.37 -4.26419 2.18413 0
M  V30 11990 H 1112.74 -2.30941 1.07417 0
M  V30 11991 H 1113.52 -2.08152 2.72997 0
M  V30 11992 N 1115.97 -0.914965 -1.28321 0
M  V30 11993 C 1116.91 -0.402792 -2.27258 0
M  V30 11994 C 1117.88 0.523412 -1.57638 0
M  V30 11995 O 1119.07 0.445344 -1.8553 0
M  V30 11996 C 1116.21 0.349956 -3.43321 0
M  V30 11997 C 1115.32 -0.608892 -4.27687 0
M  V30 11998 C 1114.46 0.162425 -5.30952 0
M  V30 11999 C 1113.49 -0.789959 -6.06981 0
M  V30 12000 N 1112.63 -0.0520826 -7.02081 0
M  V30 12001 H 1117.47 -1.25153 -2.70446 0
M  V30 12002 H 1115.01 -0.628444 -1.33 0
M  V30 12003 H 1116.97 0.802589 -4.09407 0
M  V30 12004 H 1115.6 1.16303 -3.01121 0
M  V30 12005 H 1114.65 -1.18005 -3.61634 0
M  V30 12006 H 1115.96 -1.33727 -4.8054 0
M  V30 12007 H 1115.11 0.675563 -6.02927 0
M  V30 12008 H 1113.85 0.923851 -4.7887 0
M  V30 12009 H 1112.86 -1.31446 -5.33856 0
M  V30 12010 H 1114.08 -1.55096 -6.61152 0
M  V30 12011 H 1112.03 0.691331 -6.52347 0
M  V30 12012 H 1111.95 -0.720267 -7.52561 0
M  V30 12013 H 1113.21 0.44082 -7.78253 0
M  V30 12014 N 1117.44 1.42219 -0.679077 0
M  V30 12015 C 1118.37 2.33493 -0.0174528 0
M  V30 12016 C 1119.35 1.50915 0.78477 0
M  V30 12017 O 1120.54 1.79504 0.741065 0
M  V30 12018 C 1117.67 3.34576 0.931463 0
M  V30 12019 C 1116.62 4.2734 0.237527 0
M  V30 12020 C 1115.95 5.18664 1.29967 0
M  V30 12021 C 1117.25 5.14729 -0.886082 0
M  V30 12022 H 1118.94 2.89068 -0.779748 0
M  V30 12023 H 1116.49 1.38993 -0.376419 0
M  V30 12024 H 1118.44 3.97343 1.40343 0
M  V30 12025 H 1117.17 2.77315 1.72523 0
M  V30 12026 H 1115.83 3.65973 -0.214245 0
M  V30 12027 H 1115.47 4.57727 2.08554 0
M  V30 12028 H 1115.17 5.81558 0.840463 0
M  V30 12029 H 1116.7 5.84308 1.77249 0
M  V30 12030 H 1118.11 5.71158 -0.495141 0
M  V30 12031 H 1116.51 5.86478 -1.27135 0
M  V30 12032 H 1117.58 4.52874 -1.733 0
M  V30 12033 N 1118.92 0.422693 1.51826 0
M  V30 12034 C 1120.17 -0.148861 2.02253 0
M  V30 12035 C 1120.5 -1.43629 1.30707 0
M  V30 12036 O 1119.78 -1.89967 0.417482 0
M  V30 12037 C 1120.06 -0.382672 3.58061 0
M  V30 12038 C 1119.91 0.922386 4.40241 0
M  V30 12039 C 1121.23 -1.1589 4.24567 0
M  V30 12040 H 1118.35 -0.0526279 0.735119 0
M  V30 12041 H 1120.99 0.558821 1.81596 0
M  V30 12042 H 1119.14 -0.985495 3.75793 0
M  V30 12043 H 1120.81 1.55806 4.34191 0
M  V30 12044 H 1119.06 1.53032 4.05911 0
M  V30 12045 H 1119.73 0.713012 5.47376 0
M  V30 12046 H 1122.2 -0.648415 4.11017 0
M  V30 12047 H 1121.08 -1.29125 5.33496 0
M  V30 12048 H 1121.34 -2.18315 3.84436 0
M  V30 12049 N 1120.4 -1.5685 0.153553 0
M  V30 12050 C 1121.31 -2.20664 -0.796528 0
M  V30 12051 C 1122.33 -1.19289 -1.26674 0
M  V30 12052 O 1123.5 -1.51889 -1.32256 0
M  V30 12053 C 1120.57 -2.82088 -2.01561 0
M  V30 12054 C 1119.63 -3.9861 -1.59401 0
M  V30 12055 C 1118.86 -4.57096 -2.75498 0
M  V30 12056 O 1119.08 -4.14462 -3.9189 0
M  V30 12057 O 1118.02 -5.47254 -2.50593 0
M  V30 12058 H 1121.84 -3.02376 -0.283282 0
M  V30 12059 H 1119.43 -1.49218 -0.0737927 0
M  V30 12060 H 1121.31 -3.21103 -2.72893 0
M  V30 12061 H 1119.99 -2.03385 -2.51826 0
M  V30 12062 H 1118.89 -3.64299 -0.850725 0
M  V30 12063 H 1120.23 -4.78853 -1.13845 0
M  V30 12064 N 1121.88 0.120221 -1.57141 0
M  V30 12065 C 1122.81 1.14876 -2.03287 0
M  V30 12066 C 1123.79 1.43259 -0.917112 0
M  V30 12067 O 1124.97 1.53721 -1.18674 0
M  V30 12068 C 1122.1 2.47525 -2.43616 0
M  V30 12069 C 1121.06 2.33607 -3.58625 0
M  V30 12070 C 1120.38 3.71207 -3.84849 0
M  V30 12071 C 1121.68 1.79761 -4.90391 0
M  V30 12072 H 1123.38 0.764943 -2.89463 0
M  V30 12073 H 1120.92 0.366516 -1.39258 0
M  V30 12074 H 1122.88 3.19728 -2.74504 0
M  V30 12075 H 1121.6 2.87794 -1.54409 0
M  V30 12076 H 1120.26 1.63853 -3.27945 0
M  V30 12077 H 1119.91 4.0896 -2.9285 0
M  V30 12078 H 1119.61 3.62749 -4.62263 0
M  V30 12079 H 1121.13 4.44917 -4.18188 0
M  V30 12080 H 1122.55 2.4178 -5.19822 0
M  V30 12081 H 1120.94 1.82126 -5.71795 0
M  V30 12082 H 1122.01 0.755087 -4.78985 0
M  V30 12083 N 1123.36 1.52689 0.390367 0
M  V30 12084 C 1124.29 1.80338 1.48325 0
M  V30 12085 C 1125.27 0.655338 1.56969 0
M  V30 12086 O 1126.45 0.902792 1.7194 0
M  V30 12087 C 1123.58 1.97101 2.85952 0
M  V30 12088 C 1122.54 3.12783 2.92148 0
M  V30 12089 C 1121.86 3.14798 4.32211 0
M  V30 12090 C 1123.16 4.5188 2.61919 0
M  V30 12091 H 1124.86 2.71857 1.25437 0
M  V30 12092 H 1122.4 1.30813 0.601995 0
M  V30 12093 H 1124.36 2.15027 3.62411 0
M  V30 12094 H 1123.08 1.02271 3.10174 0
M  V30 12095 H 1121.74 2.94638 2.18137 0
M  V30 12096 H 1121.39 2.17653 4.53471 0
M  V30 12097 H 1121.09 3.92507 4.37278 0
M  V30 12098 H 1122.61 3.34877 5.10578 0
M  V30 12099 H 1124.02 4.70134 3.28096 0
M  V30 12100 H 1122.42 5.31647 2.78337 0
M  V30 12101 H 1123.49 4.58689 1.57266 0
M  V30 12102 N 1124.83 -0.648732 1.43629 0
M  V30 12103 C 1125.76 -1.77298 1.51947 0
M  V30 12104 C 1126.75 -1.65942 0.373785 0
M  V30 12105 O 1127.93 -1.8497 0.591596 0
M  V30 12106 C 1125.06 -3.15749 1.44638 0
M  V30 12107 C 1124.01 -3.41872 2.57502 0
M  V30 12108 C 1123.34 -4.8017 2.35246 0
M  V30 12109 C 1124.64 -3.36173 3.99731 0
M  V30 12110 H 1126.33 -1.70594 2.46045 0
M  V30 12111 H 1123.88 -0.819306 1.1842 0
M  V30 12112 H 1125.83 -3.94156 1.4906 0
M  V30 12113 H 1124.56 -3.23194 0.470466 0
M  V30 12114 H 1123.22 -2.65838 2.5244 0
M  V30 12115 H 1122.86 -4.84297 1.35887 0
M  V30 12116 H 1122.56 -4.9861 3.10906 0
M  V30 12117 H 1124.09 -5.6083 2.41459 0
M  V30 12118 H 1125.5 -4.0451 4.06257 0
M  V30 12119 H 1123.9 -3.66148 4.75453 0
M  V30 12120 H 1124.97 -2.34277 4.24549 0
M  V30 12121 N 1126.31 -1.30234 -0.887518 0
M  V30 12122 C 1127.26 -1.16302 -2.01436 0
M  V30 12123 C 1128.25 -0.0755422 -1.69231 0
M  V30 12124 O 1129.46 -0.236213 -1.78443 0
M  V30 12125 H 1125.84 -0.35961 -0.660443 0
M  V30 12126 H 1127.81 -2.11677 -2.10322 0
M  V30 12127 C 1126.56 -0.869009 -3.36665 0
M  V30 12128 H 1125.88 -1.69787 -3.61956 0
M  V30 12129 H 1127.32 -0.811621 -4.16159 0
M  V30 12130 C 1125.78 0.428021 -3.3417 0
M  V30 12131 O 1126.31 1.45033 -3.74604 0
M  V30 12132 N 1124.51 0.438264 -2.87276 0
M  V30 12133 H 1124.06 -0.394142 -2.54567 0
M  V30 12134 H 1124.02 1.30604 -2.85989 0
M  V30 12135 N 1127.79 1.09952 -1.12909 0
M  V30 12136 C 1129.02 1.8633 -0.910821 0
M  V30 12137 C 1129.44 1.80335 0.534874 0
M  V30 12138 O 1128.8 1.1769 1.37908 0
M  V30 12139 C 1128.85 3.32462 -1.39648 0
M  V30 12140 O 1127.95 4.08327 -0.578192 0
M  V30 12141 H 1127.29 0.577984 -0.32685 0
M  V30 12142 H 1129.82 1.38883 -1.50242 0
M  V30 12143 H 1129.83 3.83311 -1.39774 0
M  V30 12144 H 1128.51 3.36141 -2.44913 0
M  V30 12145 H 1127.08 3.67291 -0.644347 0
M  V30 12146 N 1129.27 0.921757 1.27833 0
M  V30 12147 C 1130.52 0.557974 1.94245 0
M  V30 12148 C 1130.84 -0.90268 1.72849 0
M  V30 12149 O 1130.11 -1.63915 1.07279 0
M  V30 12150 H 1128.69 0.203364 0.718785 0
M  V30 12151 H 1131.35 1.17286 1.5566 0
M  V30 12152 H 1130.45 0.759202 3.02725 0
M  V30 12153 N 1130.75 -1.41857 0.686609 0
M  V30 12154 C 1131.97 -2.06219 0.221037 0
M  V30 12155 C 1132.4 -1.51298 -1.11762 0
M  V30 12156 O 1131.75 -0.636253 -1.69769 0
M  V30 12157 C 1131.8 -3.60153 0.179425 0
M  V30 12158 O 1130.91 -4.03577 -0.848481 0
M  V30 12159 H 1130.25 -0.654787 0.110228 0
M  V30 12160 H 1132.78 -1.81783 0.938948 0
M  V30 12161 H 1132.79 -4.07999 0.00725332 0
M  V30 12162 H 1131.46 -3.99498 1.15647 0
M  V30 12163 H 1130.04 -3.67255 -0.646393 0
M  V30 12164 N 1132.22 -0.430739 -1.51599 0
M  V30 12165 C 1133.64 -0.0826902 -1.59386 0
M  V30 12166 C 1133.84 1.40729 -1.44214 0
M  V30 12167 O 1132.9 2.1765 -1.28002 0
M  V30 12168 C 1134.21 -0.59691 -2.94716 0
M  V30 12169 C 1135.76 -0.556772 -3.08008 0
M  V30 12170 C 1136.23 -1.04786 -4.45852 0
M  V30 12171 N 1137.72 -1.00557 -4.52153 0
M  V30 12172 C 1138.46 -1.35649 -5.57124 0
M  V30 12173 N 1137.95 -1.77994 -6.69545 0
M  V30 12174 N 1139.75 -1.27508 -5.47447 0
M  V30 12175 H 1131.9 -1.40027 -1.59707 0
M  V30 12176 H 1134.16 -0.576606 -0.752482 0
M  V30 12177 H 1133.87 -1.63914 -3.11167 0
M  V30 12178 H 1133.74 -0.0182342 -3.77196 0
M  V30 12179 H 1136.13 0.476457 -2.91228 0
M  V30 12180 H 1136.21 -1.17177 -2.27383 0
M  V30 12181 H 1135.85 -2.07952 -4.63377 0
M  V30 12182 H 1135.78 -0.409461 -5.25006 0
M  V30 12183 H 1138.27 -0.694518 -3.71463 0
M  V30 12184 H 1138.59 -2.03026 -7.45654 0
M  V30 12185 H 1136.93 -1.81916 -6.70769 0
M  V30 12186 H 1140.12 -0.942969 -4.58504 0
M  V30 12187 H 1140.3 -1.55185 -6.29143 0
M  V30 12188 N 1133.7 1.56767 -0.161869 0
M  V30 12189 C 1134.61 2.21083 0.784814 0
M  V30 12190 C 1135.63 1.19959 1.26039 0
M  V30 12191 O 1136.8 1.52588 1.31449 0
M  V30 12192 C 1133.87 2.83153 2.00063 0
M  V30 12193 C 1132.93 3.9945 1.57285 0
M  V30 12194 C 1132.16 4.5855 2.7307 0
M  V30 12195 O 1132.39 4.16534 3.89686 0
M  V30 12196 O 1131.32 5.48575 2.47688 0
M  V30 12197 H 1135.15 3.02522 0.267243 0
M  V30 12198 H 1132.73 1.49255 0.0658783 0
M  V30 12199 H 1134.61 3.22546 2.71186 0
M  V30 12200 H 1133.29 2.04718 2.50744 0
M  V30 12201 H 1132.2 3.64745 0.831393 0
M  V30 12202 H 1133.53 4.7945 1.11304 0
M  V30 12203 N 1135.18 -0.111886 1.57202 0
M  V30 12204 C 1136.11 -1.16274 1.97517 0
M  V30 12205 C 1137.13 -1.37259 0.875425 0
M  V30 12206 O 1138.31 -1.36208 1.15367 0
M  V30 12207 C 1135.41 -2.52145 2.26442 0
M  V30 12208 C 1134.59 -2.51666 3.57747 0
M  V30 12209 C 1133.65 -3.69337 3.74802 0
M  V30 12210 O 1132.67 -3.52596 4.46839 0
M  V30 12211 N 1133.87 -4.88177 3.14108 0
M  V30 12212 H 1136.64 -0.819747 2.88271 0
M  V30 12213 H 1134.2 -0.301076 1.59076 0
M  V30 12214 H 1136.19 -3.29437 2.3506 0
M  V30 12215 H 1134.76 -2.78599 1.41779 0
M  V30 12216 H 1133.98 -1.60038 3.60252 0
M  V30 12217 H 1135.27 -2.48408 4.44039 0
M  V30 12218 H 1134.67 -5.04682 2.55564 0
M  V30 12219 H 1133.23 -5.6312 3.28237 0
M  V30 12220 N 1136.66 -1.52894 -0.382264 0
M  V30 12221 C 1137.94 -1.58853 -1.14127 0
M  V30 12222 C 1138.32 -0.38582 -2.07544 0
M  V30 12223 O 1137.66 0.625323 -2.19777 0
M  V30 12224 C 1137.87 -2.93068 -1.89504 0
M  V30 12225 C 1139.22 -3.47048 -2.44629 0
M  V30 12226 O 1140.25 -2.94987 -1.99652 0
M  V30 12227 O 1139.1 -4.3802 -3.26804 0
M  V30 12228 H 1136.2 -0.640969 -0.522578 0
M  V30 12229 H 1138.74 -1.65231 -0.386873 0
M  V30 12230 H 1137.52 -3.72047 -1.2123 0
M  V30 12231 H 1137.14 -2.90106 -2.7189 0
M  V30 12232 N 1138.14 0.641106 -1.43971 0
M  V30 12233 C 1139.38 1.40291 -1.46445 0
M  V30 12234 C 1139.72 1.93978 -0.0929004 0
M  V30 12235 O 1138.99 1.73043 0.888043 0
M  V30 12236 C 1139.27 2.57551 -2.51673 0
M  V30 12237 C 1139.13 2.09279 -3.98149 0
M  V30 12238 C 1140.45 3.59752 -2.53508 0
M  V30 12239 H 1137.57 0.508771 -0.533218 0
M  V30 12240 H 1140.21 0.725767 -1.75592 0
M  V30 12241 H 1138.36 3.15319 -2.2695 0
M  V30 12242 H 1140.03 1.56418 -4.33971 0
M  V30 12243 H 1138.27 1.40545 -4.10402 0
M  V30 12244 H 1138.94 2.93655 -4.67409 0
M  V30 12245 H 1141.42 3.11766 -2.75574 0
M  V30 12246 H 1140.3 4.39332 -3.29057 0
M  V30 12247 H 1140.56 4.13156 -1.57335 0
M  V30 12248 N 1139.62 1.30703 0.880598 0
M  V30 12249 C 1141.03 1.09129 1.1646 0
M  V30 12250 C 1141.23 -0.145131 2.00977 0
M  V30 12251 O 1140.29 -0.837502 2.38206 0
M  V30 12252 C 1141.6 2.35717 1.86703 0
M  V30 12253 C 1143.15 2.41224 1.9945 0
M  V30 12254 C 1143.62 3.67665 2.73105 0
M  V30 12255 N 1145.11 3.68498 2.80648 0
M  V30 12256 C 1145.85 4.63024 3.38225 0
M  V30 12257 N 1145.35 5.67898 3.96817 0
M  V30 12258 N 1147.14 4.50561 3.36082 0
M  V30 12259 H 1139.29 2.10019 0.317164 0
M  V30 12260 H 1141.55 0.925994 0.203072 0
M  V30 12261 H 1141.26 3.2597 1.32046 0
M  V30 12262 H 1141.13 2.447 2.87057 0
M  V30 12263 H 1143.52 1.51446 2.53275 0
M  V30 12264 H 1143.6 2.36212 0.981704 0
M  V30 12265 H 1143.24 4.57803 2.19951 0
M  V30 12266 H 1143.17 3.69939 3.7477 0
M  V30 12267 H 1145.67 2.92681 2.39053 0
M  V30 12268 H 1145.98 6.3612 4.3883 0
M  V30 12269 H 1144.32 5.71685 3.95223 0
M  V30 12270 H 1147.51 3.67811 2.89539 0
M  V30 12271 H 1147.69 5.24408 3.80657 0
M  V30 12272 N 1141.09 -1.09351 1.1349 0
M  V30 12273 C 1142.04 -2.16008 0.812981 0
M  V30 12274 C 1143.01 -1.64566 -0.225252 0
M  V30 12275 O 1144.2 -1.90552 -0.0973261 0
M  V30 12276 C 1141.34 -3.43913 0.285996 0
M  V30 12277 C 1140.45 -4.09251 1.38338 0
M  V30 12278 C 1139.58 -5.24916 0.814652 0
M  V30 12279 C 1138.62 -5.82178 1.89038 0
M  V30 12280 N 1137.76 -6.89203 1.33955 0
M  V30 12281 H 1142.6 -2.42887 1.72655 0
M  V30 12282 H 1140.14 -1.19209 0.861833 0
M  V30 12283 H 1142.09 -4.17183 -0.0376794 0
M  V30 12284 H 1140.72 -3.17349 -0.590707 0
M  V30 12285 H 1139.78 -3.33838 1.82363 0
M  V30 12286 H 1141.09 -4.4784 2.19638 0
M  V30 12287 H 1140.24 -6.05086 0.442306 0
M  V30 12288 H 1138.98 -4.87691 -0.029416 0
M  V30 12289 H 1137.99 -5.00669 2.27179 0
M  V30 12290 H 1139.21 -6.21464 2.73787 0
M  V30 12291 H 1137.16 -6.53956 0.517494 0
M  V30 12292 H 1137.07 -7.26565 2.08902 0
M  V30 12293 H 1138.34 -7.73126 0.994793 0
M  V30 12294 N 1142.57 -0.928524 -1.27343 0
M  V30 12295 C 1143.53 -0.43292 -2.25074 0
M  V30 12296 C 1144.53 0.448976 -1.54405 0
M  V30 12297 O 1145.72 0.249939 -1.72398 0
M  V30 12298 C 1142.86 0.377539 -3.38803 0
M  V30 12299 H 1144.05 -1.29642 -2.70431 0
M  V30 12300 H 1141.6 -0.709289 -1.3928 0
M  V30 12301 H 1142.34 1.25982 -2.98829 0
M  V30 12302 H 1142.12 -0.254782 -3.91271 0
M  V30 12303 H 1143.61 0.714634 -4.1144 0
M  V30 12304 N 1144.05 1.41491 -0.694123 0
M  V30 12305 C 1144.98 2.33462 -0.0422169 0
M  V30 12306 C 1145.96 1.51739 0.76872 0
M  V30 12307 O 1147.15 1.8028 0.721985 0
M  V30 12308 C 1144.28 3.35545 0.895925 0
M  V30 12309 C 1143.23 4.27568 0.192188 0
M  V30 12310 C 1142.56 5.20014 1.24459 0
M  V30 12311 C 1143.86 5.1376 -0.940626 0
M  V30 12312 H 1145.55 2.88225 -0.810363 0
M  V30 12313 H 1143.1 1.38586 -0.39114 0
M  V30 12314 H 1145.05 3.9881 1.36121 0
M  V30 12315 H 1143.77 2.79129 1.69572 0
M  V30 12316 H 1142.43 3.65726 -0.25305 0
M  V30 12317 H 1142.08 4.59913 2.03687 0
M  V30 12318 H 1141.78 5.82417 0.778734 0
M  V30 12319 H 1143.3 5.86155 1.71041 0
M  V30 12320 H 1144.72 5.70601 -0.555692 0
M  V30 12321 H 1143.11 5.85097 -1.33349 0
M  V30 12322 H 1144.18 4.51011 -1.78093 0
M  V30 12323 N 1145.53 0.438773 1.51369 0
M  V30 12324 C 1146.76 -0.125847 2.06517 0
M  V30 12325 C 1147.17 -1.36336 1.30606 0
M  V30 12326 O 1146.53 -1.78792 0.36603 0
M  V30 12327 C 1146.58 -0.446619 3.5873 0
M  V30 12328 O 1146.3 0.741781 4.31775 0
M  V30 12329 C 1147.8 -1.06175 4.30397 0
M  V30 12330 H 1145.02 -0.00728868 0.67096 0
M  V30 12331 H 1147.56 0.618267 1.9493 0
M  V30 12332 H 1145.72 -1.14064 3.70227 0
M  V30 12333 H 1146.13 0.466907 5.22418 0
M  V30 12334 H 1147.61 -1.23619 5.3798 0
M  V30 12335 H 1148.08 -2.04317 3.88782 0
M  V30 12336 H 1148.69 -0.40708 4.23347 0
M  V30 12337 N 1147.01 -1.56678 0.170181 0
M  V30 12338 C 1148.25 -1.96024 -0.475147 0
M  V30 12339 C 1148.57 -1.0588 -1.64465 0
M  V30 12340 O 1149.77 -1.34901 -2.35614 0
M  V30 12341 C 1148.23 -3.4855 -0.896704 0
M  V30 12342 C 1147.84 -4.47318 0.247142 0
M  V30 12343 C 1149.58 -3.96716 -1.51052 0
M  V30 12344 C 1147.49 -5.91082 -0.193982 0
M  V30 12345 H 1146.42 -0.731883 -0.181282 0
M  V30 12346 H 1149.07 -1.81674 0.25823 0
M  V30 12347 H 1147.45 -3.58314 -1.68603 0
M  V30 12348 H 1148.63 -4.49268 1.02445 0
M  V30 12349 H 1146.94 -4.09203 0.770839 0
M  V30 12350 H 1149.54 -5.01581 -1.85258 0
M  V30 12351 H 1149.88 -3.39588 -2.40802 0
M  V30 12352 H 1150.41 -3.89965 -0.785652 0
M  V30 12353 H 1147.15 -6.5208 0.668714 0
M  V30 12354 H 1146.67 -5.92441 -0.936675 0
M  V30 12355 H 1148.35 -6.43844 -0.638237 0
M  V30 12356 N 1148.48 0.103547 -1.57259 0
M  V30 12357 C 1149.71 0.82624 -1.90232 0
M  V30 12358 C 1150.13 1.71902 -0.763641 0
M  V30 12359 O 1149.49 1.79043 0.285181 0
M  V30 12360 C 1149.54 1.62265 -3.22029 0
M  V30 12361 O 1148.64 2.73091 -3.09023 0
M  V30 12362 H 1147.98 0.227528 -0.6238 0
M  V30 12363 H 1150.51 0.081307 -2.04438 0
M  V30 12364 H 1150.52 2.00865 -3.5513 0
M  V30 12365 H 1149.2 0.967383 -4.04493 0
M  V30 12366 H 1147.78 2.3758 -2.8742 0
M  V30 12367 N 1149.96 1.53094 0.37415 0
M  V30 12368 C 1151.21 1.68082 1.11495 0
M  V30 12369 C 1151.52 0.434685 1.90709 0
M  V30 12370 O 1152.73 0.464956 2.67489 0
M  V30 12371 C 1151.19 2.97101 2.03124 0
M  V30 12372 C 1150.79 4.28947 1.29262 0
M  V30 12373 C 1152.54 3.21456 2.77248 0
M  V30 12374 C 1150.44 5.4906 2.19743 0
M  V30 12375 H 1149.37 0.626238 0.419931 0
M  V30 12376 H 1152.03 1.79594 0.376588 0
M  V30 12377 H 1150.41 2.79371 2.80656 0
M  V30 12378 H 1151.58 4.57279 0.568528 0
M  V30 12379 H 1149.9 4.10968 0.670362 0
M  V30 12380 H 1152.49 4.08377 3.45155 0
M  V30 12381 H 1152.84 2.37153 3.42146 0
M  V30 12382 H 1153.37 3.3982 2.06803 0
M  V30 12383 H 1150.11 6.35815 1.59437 0
M  V30 12384 H 1149.63 5.25019 2.90027 0
M  V30 12385 H 1151.31 5.83517 2.79495 0
M  V30 12386 N 1151.44 -0.633461 1.44309 0
M  V30 12387 C 1152.69 -1.39031 1.46679 0
M  V30 12388 C 1153.01 -1.94745 0.0997165 0
M  V30 12389 O 1152.28 -1.75637 -0.867659 0
M  V30 12390 H 1150.86 -0.516051 0.540093 0
M  V30 12391 H 1153.52 -0.745739 1.80069 0
M  V30 12392 H 1152.62 -2.2228 2.19085 0
M  V30 12393 N 1152.92 -1.31168 -0.873655 0
M  V30 12394 C 1153.87 -1.18507 -1.98052 0
M  V30 12395 C 1154.84 -0.0717583 -1.65945 0
M  V30 12396 O 1156.02 -0.243965 -1.89234 0
M  V30 12397 C 1153.16 -0.894571 -3.33304 0
M  V30 12398 C 1152.27 -2.09086 -3.7803 0
M  V30 12399 C 1151.41 -1.73747 -5.01982 0
M  V30 12400 C 1150.45 -2.89805 -5.39147 0
M  V30 12401 N 1149.58 -2.54686 -6.54278 0
M  V30 12402 H 1154.42 -2.13193 -2.08213 0
M  V30 12403 H 1151.96 -1.06056 -1.01934 0
M  V30 12404 H 1153.92 -0.706714 -4.11171 0
M  V30 12405 H 1152.55 0.0154449 -3.22796 0
M  V30 12406 H 1151.6 -2.38961 -2.95976 0
M  V30 12407 H 1152.91 -2.95963 -4.01506 0
M  V30 12408 H 1152.07 -1.51402 -5.87505 0
M  V30 12409 H 1150.81 -0.840553 -4.80402 0
M  V30 12410 H 1149.81 -3.12803 -4.52144 0
M  V30 12411 H 1151.04 -3.802 -5.62694 0
M  V30 12412 H 1148.98 -1.67513 -6.34252 0
M  V30 12413 H 1148.9 -3.35093 -6.77679 0
M  V30 12414 H 1150.17 -2.35725 -7.43003 0
M  V30 12415 N 1154.4 1.08748 -1.14068 0
M  V30 12416 C 1155.64 1.80707 -0.904947 0
M  V30 12417 C 1155.97 1.86478 0.570167 0
M  V30 12418 O 1155.24 1.35536 1.41445 0
M  V30 12419 H 1153.82 0.669261 -0.331811 0
M  V30 12420 H 1156.48 1.31494 -1.43859 0
M  V30 12421 H 1155.57 2.83653 -1.30182 0
M  V30 12422 N 1155.87 0.935264 1.26849 0
M  V30 12423 C 1157.15 0.497797 1.8916 0
M  V30 12424 C 1157.53 -1.02441 1.84578 0
M  V30 12425 O 1156.88 -1.88185 1.29609 0
M  V30 12426 C 1157.09 1.05244 3.32753 0
M  V30 12427 C 1158.44 1.11751 4.0963 0
M  V30 12428 O 1159.46 1.0026 3.41799 0
M  V30 12429 O 1158.32 1.29548 5.30923 0
M  V30 12430 H 1155.41 0.161322 0.811113 0
M  V30 12431 H 1157.96 1.02744 1.35062 0
M  V30 12432 H 1156.73 2.09617 3.30419 0
M  V30 12433 H 1156.36 0.504889 3.94381 0
M  V30 12434 N 1157.35 -1.41121 0.701616 0
M  V30 12435 C 1158.58 -2.05973 0.242896 0
M  V30 12436 C 1159 -1.52474 -1.10151 0
M  V30 12437 O 1158.36 -0.654224 -1.69085 0
M  V30 12438 C 1158.41 -3.59943 0.217614 0
M  V30 12439 O 1157.51 -4.04454 -0.805629 0
M  V30 12440 H 1156.85 -0.653581 0.117166 0
M  V30 12441 H 1159.38 -1.80777 0.958175 0
M  V30 12442 H 1159.39 -4.07969 0.0505267 0
M  V30 12443 H 1158.07 -3.98249 1.19877 0
M  V30 12444 H 1156.65 -3.6792 -0.607404 0
M  V30 12445 N 1158.83 -0.446794 -1.51134 0
M  V30 12446 C 1159.76 0.395804 -2.25757 0
M  V30 12447 C 1160.78 0.978178 -1.30137 0
M  V30 12448 O 1161.96 0.87071 -1.55823 0
M  V30 12449 C 1159.06 1.56665 -3.00515 0
M  V30 12450 C 1158.24 1.10146 -4.23305 0
M  V30 12451 C 1157.3 2.14352 -4.80562 0
M  V30 12452 O 1156.32 1.73401 -5.42145 0
M  V30 12453 N 1157.52 3.46932 -4.65423 0
M  V30 12454 H 1160.29 -0.243808 -2.98707 0
M  V30 12455 H 1157.85 -0.276205 -1.59527 0
M  V30 12456 H 1159.84 2.26019 -3.35704 0
M  V30 12457 H 1158.41 2.11142 -2.30516 0
M  V30 12458 H 1157.63 0.234644 -3.93501 0
M  V30 12459 H 1158.92 0.768185 -5.02968 0
M  V30 12460 H 1158.32 3.82929 -4.16391 0
M  V30 12461 H 1156.88 4.12154 -5.04948 0
M  V30 12462 N 1160.31 1.56586 -0.178487 0
M  V30 12463 C 1161.56 1.96273 0.464745 0
M  V30 12464 C 1161.87 1.0675 1.63902 0
M  V30 12465 O 1163.08 1.36148 2.34896 0
M  V30 12466 C 1161.53 3.49021 0.878207 0
M  V30 12467 C 1161.14 4.4718 -0.270861 0
M  V30 12468 C 1162.88 3.97512 1.48946 0
M  V30 12469 C 1160.79 5.91176 0.162632 0
M  V30 12470 H 1159.72 0.732834 0.177398 0
M  V30 12471 H 1162.37 1.81534 -0.267861 0
M  V30 12472 H 1160.75 3.59203 1.667 0
M  V30 12473 H 1161.93 4.48718 -1.04826 0
M  V30 12474 H 1160.24 4.08788 -0.792529 0
M  V30 12475 H 1162.84 5.02556 1.82595 0
M  V30 12476 H 1163.18 3.40861 2.38997 0
M  V30 12477 H 1163.72 3.90376 0.76496 0
M  V30 12478 H 1160.46 6.51716 -0.703286 0
M  V30 12479 H 1159.98 5.9293 0.905243 0
M  V30 12480 H 1161.65 6.44174 0.604084 0
M  V30 12481 N 1161.79 -0.095206 1.57312 0
M  V30 12482 C 1163.04 -0.797417 1.85268 0
M  V30 12483 C 1163.35 -1.79903 0.767733 0
M  V30 12484 O 1164.55 -2.54914 0.934409 0
M  V30 12485 C 1163.01 -1.469 3.28555 0
M  V30 12486 C 1162.62 -0.507152 4.4512 0
M  V30 12487 C 1164.36 -2.15494 3.65735 0
M  V30 12488 C 1162.27 -1.18331 5.79441 0
M  V30 12489 H 1161.2 -0.301552 0.691074 0
M  V30 12490 H 1163.85 -0.0503584 1.83431 0
M  V30 12491 H 1162.23 -2.26351 3.24933 0
M  V30 12492 H 1163.41 0.255858 4.60089 0
M  V30 12493 H 1161.72 0.0730882 4.16336 0
M  V30 12494 H 1164.32 -2.66816 4.63371 0
M  V30 12495 H 1164.66 -2.94383 2.94354 0
M  V30 12496 H 1165.19 -1.42903 3.71246 0
M  V30 12497 H 1161.93 -0.435238 6.54053 0
M  V30 12498 H 1161.45 -1.91775 5.68315 0
M  V30 12499 H 1163.13 -1.70983 6.23998 0
M  V30 12500 N 1163.26 -1.53291 -0.366026 0
M  V30 12501 C 1164.49 -1.73665 -1.13381 0
M  V30 12502 C 1164.91 -0.464284 -1.8228 0
M  V30 12503 O 1164.27 0.581645 -1.71717 0
M  V30 12504 C 1164.32 -2.90225 -2.14013 0
M  V30 12505 O 1163.42 -2.58803 -3.21084 0
M  V30 12506 H 1162.77 -0.576762 -0.329 0
M  V30 12507 H 1165.3 -2.00174 -0.423287 0
M  V30 12508 H 1165.31 -3.16378 -2.57622 0
M  V30 12509 H 1163.98 -3.82518 -1.63257 0
M  V30 12510 H 1162.56 -2.43466 -2.82451 0
M  V30 12511 N 1164.74 0.6258 -1.44643 0
M  V30 12512 C 1165.67 1.74858 -1.54748 0
M  V30 12513 C 1166.65 1.65327 -0.400138 0
M  V30 12514 O 1167.84 1.84005 -0.620948 0
M  V30 12515 C 1164.97 3.13408 -1.49643 0
M  V30 12516 C 1163.92 3.37733 -2.62908 0
M  V30 12517 C 1163.25 4.76367 -2.42855 0
M  V30 12518 C 1164.55 3.29771 -4.05029 0
M  V30 12519 H 1166.24 1.66658 -2.48728 0
M  V30 12520 H 1163.79 0.800363 -1.19709 0
M  V30 12521 H 1165.74 3.91735 -1.55312 0
M  V30 12522 H 1164.47 3.22404 -0.521824 0
M  V30 12523 H 1163.12 2.61788 -2.56637 0
M  V30 12524 H 1162.77 4.82074 -1.43575 0
M  V30 12525 H 1162.47 4.936 -3.18799 0
M  V30 12526 H 1164 5.56917 -2.50351 0
M  V30 12527 H 1165.41 3.97996 -4.12641 0
M  V30 12528 H 1163.81 3.58538 -4.81218 0
M  V30 12529 H 1164.88 2.27493 -4.28223 0
M  V30 12530 N 1166.22 1.31629 0.866686 0
M  V30 12531 C 1167.15 1.22151 1.99001 0
M  V30 12532 C 1168.13 0.107972 1.69757 0
M  V30 12533 O 1169.32 0.293125 1.91975 0
M  V30 12534 C 1166.45 0.93144 3.34577 0
M  V30 12535 C 1165.4 2.0049 3.78137 0
M  V30 12536 C 1164.73 1.56747 5.11209 0
M  V30 12537 C 1166.03 3.41844 3.94892 0
M  V30 12538 H 1167.72 2.16132 2.0719 0
M  V30 12539 H 1165.27 1.04051 0.995463 0
M  V30 12540 H 1167.22 0.851719 4.12703 0
M  V30 12541 H 1165.94 -0.0440289 3.2657 0
M  V30 12542 H 1164.6 2.07457 3.02253 0
M  V30 12543 H 1164.25 0.579767 4.99648 0
M  V30 12544 H 1163.95 2.28562 5.41326 0
M  V30 12545 H 1165.47 1.50188 5.91841 0
M  V30 12546 H 1166.89 3.37534 4.63405 0
M  V30 12547 H 1165.29 4.11905 4.36411 0
M  V30 12548 H 1166.36 3.82389 2.98172 0
M  V30 12549 N 1167.7 -1.08142 1.14644 0
M  V30 12550 C 1168.63 -2.17139 0.858667 0
M  V30 12551 C 1169.61 -1.69064 -0.187452 0
M  V30 12552 O 1170.8 -1.94151 -0.0435458 0
M  V30 12553 C 1167.93 -3.45648 0.33834 0
M  V30 12554 C 1166.88 -4.07129 1.32021 0
M  V30 12555 C 1166.21 -5.30623 0.659075 0
M  V30 12556 C 1167.51 -4.48095 2.68343 0
M  V30 12557 H 1169.2 -2.41468 1.77012 0
M  V30 12558 H 1166.75 -1.16052 0.852523 0
M  V30 12559 H 1168.7 -4.21216 0.124611 0
M  V30 12560 H 1167.42 -3.2088 -0.608553 0
M  V30 12561 H 1166.08 -3.33596 1.52016 0
M  V30 12562 H 1165.73 -5.02142 -0.293711 0
M  V30 12563 H 1165.43 -5.72714 1.31427 0
M  V30 12564 H 1166.95 -6.08903 0.454933 0
M  V30 12565 H 1168.37 -5.14828 2.5224 0
M  V30 12566 H 1166.76 -5.01113 3.30161 0
M  V30 12567 H 1167.83 -3.59852 3.25015 0
M  V30 12568 N 1169.18 -0.941978 -1.26351 0
M  V30 12569 C 1170.59 -0.644413 -1.46012 0
M  V30 12570 C 1170.79 0.802031 -1.84851 0
M  V30 12571 O 1169.85 1.57859 -1.9707 0
M  V30 12572 C 1171.16 -1.60652 -2.54188 0
M  V30 12573 C 1172.71 -1.6163 -2.68038 0
M  V30 12574 C 1173.19 -2.56573 -3.79387 0
M  V30 12575 N 1174.68 -2.54863 -3.8678 0
M  V30 12576 C 1175.41 -3.2501 -4.72394 0
M  V30 12577 N 1174.91 -4.04586 -5.6239 0
M  V30 12578 N 1176.7 -3.13958 -4.66247 0
M  V30 12579 H 1168.85 -1.8769 -0.994293 0
M  V30 12580 H 1171.11 -0.806621 -0.498063 0
M  V30 12581 H 1170.82 -2.63907 -2.32478 0
M  V30 12582 H 1170.69 -1.3592 -3.5186 0
M  V30 12583 H 1173.08 -0.59099 -2.89122 0
M  V30 12584 H 1173.16 -1.90417 -1.70807 0
M  V30 12585 H 1172.81 -3.59223 -3.59056 0
M  V30 12586 H 1172.74 -2.25077 -4.76076 0
M  V30 12587 H 1175.23 -1.97082 -3.22439 0
M  V30 12588 H 1175.54 -4.55061 -6.24612 0
M  V30 12589 H 1173.89 -4.08687 -5.62139 0
M  V30 12590 H 1177.08 -2.51273 -3.94943 0
M  V30 12591 H 1177.25 -3.68894 -5.32749 0
M  V30 12592 N 1170.66 1.40747 -0.709091 0
M  V30 12593 C 1172.07 1.54961 -0.381989 0
M  V30 12594 C 1172.27 1.68181 1.10985 0
M  V30 12595 O 1171.33 1.66776 1.89584 0
M  V30 12596 C 1172.64 2.78156 -1.14236 0
M  V30 12597 C 1174.19 2.91967 -1.12803 0
M  V30 12598 C 1174.66 4.18066 -1.87042 0
M  V30 12599 N 1176.15 4.25052 -1.84078 0
M  V30 12600 C 1176.89 5.21514 -2.38349 0
M  V30 12601 N 1176.39 6.23924 -3.01149 0
M  V30 12602 N 1178.18 5.13548 -2.28528 0
M  V30 12603 H 1170.33 1.30412 -1.6765 0
M  V30 12604 H 1172.59 0.630147 -0.70825 0
M  V30 12605 H 1172.3 2.74643 -2.19691 0
M  V30 12606 H 1172.17 3.70074 -0.729731 0
M  V30 12607 H 1174.56 2.94987 -0.0816956 0
M  V30 12608 H 1174.64 2.01185 -1.57982 0
M  V30 12609 H 1174.28 4.15808 -2.91662 0
M  V30 12610 H 1174.21 5.07845 -1.39287 0
M  V30 12611 H 1176.71 3.51682 -1.38305 0
M  V30 12612 H 1177.02 6.93942 -3.40094 0
M  V30 12613 H 1175.36 6.24387 -3.05231 0
M  V30 12614 H 1178.55 4.3247 -1.79129 0
M  V30 12615 H 1178.73 5.88553 -2.71126 0
M  V30 12616 N 1172.13 0.454803 1.50895 0
M  V30 12617 C 1173.06 -0.337982 2.31041 0
M  V30 12618 C 1174.04 -1.00523 1.37219 0
M  V30 12619 O 1175.23 -1.00553 1.66141 0
M  V30 12620 C 1172.36 -1.42964 3.1651 0
M  V30 12621 C 1171.31 -0.884907 4.18752 0
M  V30 12622 C 1170.64 -2.07363 4.92854 0
M  V30 12623 C 1171.94 0.0926716 5.22218 0
M  V30 12624 H 1173.63 0.33089 2.97566 0
M  V30 12625 H 1171.18 0.160577 1.43102 0
M  V30 12626 H 1173.13 -1.9916 3.71367 0
M  V30 12627 H 1171.86 -2.12705 2.47839 0
M  V30 12628 H 1170.52 -0.345031 3.64973 0
M  V30 12629 H 1170.16 -2.75764 4.2067 0
M  V30 12630 H 1169.86 -1.71545 5.62002 0
M  V30 12631 H 1171.39 -2.6408 5.5054 0
M  V30 12632 H 1172.8 -0.379568 5.72042 0
M  V30 12633 H 1171.2 0.3643 5.98993 0
M  V30 12634 H 1172.27 1.02383 4.73968 0
M  V30 12635 N 1173.61 -1.56489 0.186789 0
M  V30 12636 C 1174.57 -2.17478 -0.723596 0
M  V30 12637 C 1175.57 -1.12698 -1.14699 0
M  V30 12638 O 1176.76 -1.38128 -1.06143 0
M  V30 12639 C 1173.9 -2.77015 -1.98685 0
M  V30 12640 H 1175.09 -2.99282 -0.192403 0
M  V30 12641 H 1172.64 -1.56174 -0.0628153 0
M  V30 12642 H 1173.38 -1.98987 -2.56076 0
M  V30 12643 H 1173.16 -3.53711 -1.69207 0
M  V30 12644 H 1174.65 -3.23872 -2.63622 0
M  V30 12645 N 1175.09 0.086862 -1.5736 0
M  V30 12646 C 1176.02 1.10538 -2.05678 0
M  V30 12647 C 1177 1.41281 -0.947293 0
M  V30 12648 O 1178.19 1.51169 -1.21908 0
M  V30 12649 C 1175.32 2.42302 -2.48812 0
M  V30 12650 C 1174.27 2.25948 -3.63499 0
M  V30 12651 C 1173.6 3.62961 -3.92637 0
M  V30 12652 C 1174.9 1.69319 -4.94094 0
M  V30 12653 H 1176.59 0.703371 -2.91021 0
M  V30 12654 H 1174.14 0.336895 -1.40004 0
M  V30 12655 H 1176.09 3.13833 -2.81224 0
M  V30 12656 H 1174.81 2.84454 -1.60479 0
M  V30 12657 H 1173.47 1.5686 -3.31347 0
M  V30 12658 H 1173.12 4.02656 -3.01459 0
M  V30 12659 H 1172.82 3.52862 -4.69853 0
M  V30 12660 H 1174.34 4.35946 -4.27531 0
M  V30 12661 H 1175.76 2.30699 -5.24834 0
M  V30 12662 H 1174.15 1.69957 -5.7553 0
M  V30 12663 H 1175.22 0.653318 -4.80479 0
M  V30 12664 N 1176.57 1.53483 0.357892 0
M  V30 12665 C 1177.84 1.60649 1.11585 0
M  V30 12666 C 1178.22 0.418789 2.06904 0
M  V30 12667 O 1177.57 -0.590279 2.20744 0
M  V30 12668 C 1177.78 2.96046 1.84818 0
M  V30 12669 C 1179.13 3.50895 2.39076 0
M  V30 12670 O 1180.15 2.98126 1.94934 0
M  V30 12671 O 1179.01 4.43163 3.19794 0
M  V30 12672 H 1176.11 0.649202 0.512315 0
M  V30 12673 H 1178.65 1.65826 0.360537 0
M  V30 12674 H 1177.43 3.73929 1.15296 0
M  V30 12675 H 1177.05 2.94395 2.6724 0
M  V30 12676 N 1178.05 -0.61812 1.44973 0
M  V30 12677 C 1179.29 -1.37944 1.48658 0
M  V30 12678 C 1179.62 -1.93805 0.123749 0
M  V30 12679 O 1178.9 -1.74434 -0.860401 0
M  V30 12680 C 1179.18 -2.53515 2.55739 0
M  V30 12681 C 1179.04 -2.02918 4.01428 0
M  V30 12682 C 1180.35 -3.55674 2.59199 0
M  V30 12683 H 1177.47 -0.500223 0.541244 0
M  V30 12684 H 1180.12 -0.69774 1.76725 0
M  V30 12685 H 1178.27 -3.11669 2.31937 0
M  V30 12686 H 1179.94 -1.49494 4.36405 0
M  V30 12687 H 1178.18 -1.33999 4.12586 0
M  V30 12688 H 1178.85 -2.86181 4.72021 0
M  V30 12689 H 1181.33 -3.07343 2.80499 0
M  V30 12690 H 1180.2 -4.34042 3.36004 0
M  V30 12691 H 1180.46 -4.10601 1.63888 0
M  V30 12692 N 1179.52 -1.32087 -0.859693 0
M  V30 12693 C 1180.49 -1.20546 -1.94939 0
M  V30 12694 C 1181.49 -0.12982 -1.60275 0
M  V30 12695 O 1182.68 -0.379853 -1.70008 0
M  V30 12696 C 1179.81 -0.852717 -3.30063 0
M  V30 12697 H 1181 -2.17384 -2.06602 0
M  V30 12698 H 1178.55 -1.15846 -1.04926 0
M  V30 12699 H 1179.29 0.114059 -3.24099 0
M  V30 12700 H 1179.07 -1.63035 -3.56598 0
M  V30 12701 H 1180.56 -0.796145 -4.09941 0
M  V30 12702 N 1181 1.07532 -1.15215 0
M  V30 12703 C 1181.95 2.16785 -0.843022 0
M  V30 12704 C 1182.94 1.68411 0.182802 0
M  V30 12705 O 1184.15 1.7996 0.0380164 0
M  V30 12706 H 1180.52 0.707465 -0.254945 0
M  V30 12707 H 1182.5 2.40078 -1.77215 0
M  V30 12708 C 1181.24 3.45967 -0.346699 0
M  V30 12709 H 1180.57 3.83574 -1.12744 0
M  V30 12710 H 1182.01 4.23663 -0.169039 0
M  V30 12711 C 1180.47 3.23768 0.931437 0
M  V30 12712 O 1181 3.48179 2.00336 0
M  V30 12713 N 1179.2 2.77264 0.870217 0
M  V30 12714 H 1178.75 2.576 -0.00226223 0
M  V30 12715 H 1178.71 2.6279 1.72594 0
M  V30 12716 N 1182.48 0.948665 1.2585 0
M  V30 12717 C 1183.43 0.455115 2.28104 0
M  V30 12718 C 1184.42 -0.471508 1.62706 0
M  V30 12719 O 1185.63 -0.348895 1.76586 0
M  V30 12720 H 1182 0.128659 0.740912 0
M  V30 12721 H 1183.97 1.32991 2.67125 0
M  V30 12722 C 1182.72 -0.25729 3.46747 0
M  V30 12723 H 1182.05 0.44658 3.97298 0
M  V30 12724 H 1183.49 -0.566736 4.20195 0
M  V30 12725 C 1181.95 -1.47772 3.02762 0
M  V30 12726 O 1182.48 -2.57571 3.08253 0
M  V30 12727 N 1180.68 -1.33694 2.5802 0
M  V30 12728 H 1180.23 -0.443595 2.53752 0
M  V30 12729 H 1180.19 -2.1547 2.28954 0
M  V30 12730 N 1183.96 -1.40369 0.716545 0
M  V30 12731 C 1185.18 -2.05704 0.264729 0
M  V30 12732 C 1185.61 -1.53634 -1.08527 0
M  V30 12733 O 1184.97 -0.67212 -1.68381 0
M  V30 12734 C 1185.01 -3.59692 0.255778 0
M  V30 12735 O 1184.12 -4.05286 -0.762686 0
M  V30 12736 H 1183.46 -0.652301 0.124092 0
M  V30 12737 H 1185.99 -1.7975 0.977295 0
M  V30 12738 H 1186 -4.07892 0.0937944 0
M  V30 12739 H 1184.67 -3.96955 1.24095 0
M  V30 12740 H 1183.25 -3.68543 -0.568347 0
M  V30 12741 N 1185.44 -0.462799 -1.50652 0
M  V30 12742 C 1186.69 0.0966838 -2.01468 0
M  V30 12743 C 1187 1.41529 -1.35014 0
M  V30 12744 O 1188.2 2.05923 -1.76941 0
M  V30 12745 C 1186.66 0.222826 -3.5921 0
M  V30 12746 C 1186.27 -1.08686 -4.34616 0
M  V30 12747 C 1188.01 0.734711 -4.18094 0
M  V30 12748 C 1185.92 -0.924964 -5.84122 0
M  V30 12749 H 1184.85 0.0399078 -0.752943 0
M  V30 12750 H 1187.5 -0.596437 -1.73536 0
M  V30 12751 H 1185.88 0.979539 -3.83694 0
M  V30 12752 H 1187.06 -1.85388 -4.21862 0
M  V30 12753 H 1185.37 -1.52922 -3.87303 0
M  V30 12754 H 1187.97 0.872734 -5.2753 0
M  V30 12755 H 1188.31 1.72389 -3.7893 0
M  V30 12756 H 1188.84 0.0356139 -3.97784 0
M  V30 12757 H 1185.58 -1.88727 -6.27744 0
M  V30 12758 H 1185.1 -0.198181 -5.99473 0
M  V30 12759 H 1186.78 -0.588262 -6.4432 0
M  V30 12760 N 1186.91 1.56388 -0.195085 0
M  V30 12761 C 1188.15 1.99478 0.445855 0
M  V30 12762 C 1188.52 1.0792 1.588 0
M  V30 12763 O 1189.72 1.40246 2.29313 0
M  V30 12764 C 1187.99 3.46032 0.894248 0
M  V30 12765 S 1189.55 4.11149 1.53303 0
M  V30 12766 H 1186.37 0.696558 0.142575 0
M  V30 12767 H 1188.97 1.93213 -0.298149 0
M  V30 12768 H 1187.67 4.10366 0.0529258 0
M  V30 12769 H 1187.2 3.56114 1.67172 0
M  V30 12770 H 1189.22 4.08155 2.82177 0
M  V30 12771 N 1188.39 -0.0785156 1.57404 0
M  V30 12772 C 1189.32 -1.09446 2.06262 0
M  V30 12773 C 1190.3 -1.40777 0.954772 0
M  V30 12774 O 1191.49 -1.5052 1.22708 0
M  V30 12775 C 1188.62 -2.40979 2.50093 0
M  V30 12776 C 1187.57 -2.24017 3.64692 0
M  V30 12777 C 1186.9 -3.60873 3.94556 0
M  V30 12778 C 1188.2 -1.66696 4.94985 0
M  V30 12779 H 1189.89 -0.687928 2.9139 0
M  V30 12780 H 1187.44 -0.329466 1.4018 0
M  V30 12781 H 1189.39 -3.12337 2.82884 0
M  V30 12782 H 1188.12 -2.83599 1.61985 0
M  V30 12783 H 1186.77 -1.55101 3.32174 0
M  V30 12784 H 1186.42 -4.01051 3.0359 0
M  V30 12785 H 1186.12 -3.50365 4.71718 0
M  V30 12786 H 1187.65 -4.33673 4.29837 0
M  V30 12787 H 1189.06 -2.27913 5.2605 0
M  V30 12788 H 1187.46 -1.66902 5.76423 0
M  V30 12789 H 1188.53 -0.627827 4.80818 0
M  V30 12790 N 1189.87 -1.5367 -0.349747 0
M  V30 12791 C 1191.12 -1.70281 -1.08853 0
M  V30 12792 C 1191.44 -0.465438 -1.89364 0
M  V30 12793 O 1190.71 0.520615 -1.88856 0
M  V30 12794 H 1189.29 -0.627775 -0.404854 0
M  V30 12795 H 1191.95 -1.90906 -0.392523 0
M  V30 12796 H 1191.05 -2.57096 -1.76941 0
M  V30 12797 N 1191.35 0.610423 -1.45298 0
M  V30 12798 C 1192.6 1.3668 -1.48872 0
M  V30 12799 C 1192.92 1.94562 -0.130686 0
M  V30 12800 O 1192.19 1.76996 0.839607 0
M  V30 12801 H 1190.77 0.507393 -0.548235 0
M  V30 12802 H 1193.43 0.716997 -1.81232 0
M  V30 12803 H 1192.53 2.18766 -2.22593 0
M  V30 12804 N 1192.83 1.32541 0.852676 0
M  V30 12805 C 1194.07 1.23214 1.607 0
M  V30 12806 C 1194.4 -0.205542 1.93411 0
M  V30 12807 O 1193.66 -1.15907 1.57683 0
M  V30 12808 C 1193.96 2.039 2.9353 0
M  V30 12809 C 1193.62 3.53237 2.8024 0
M  V30 12810 C 1192.28 3.93953 2.76323 0
M  V30 12811 C 1194.64 4.48194 2.6603 0
M  V30 12812 C 1191.96 5.27865 2.56077 0
M  V30 12813 C 1194.32 5.82251 2.47319 0
M  V30 12814 C 1192.98 6.22166 2.41796 0
M  V30 12815 H 1192.25 0.450873 0.588043 0
M  V30 12816 H 1194.9 1.63988 0.988954 0
M  V30 12817 H 1193.2 1.55861 3.59464 0
M  V30 12818 H 1194.9 1.94051 3.50921 0
M  V30 12819 H 1191.49 3.209 2.84114 0
M  V30 12820 H 1195.67 4.17656 2.681 0
M  V30 12821 H 1190.93 5.57845 2.50237 0
M  V30 12822 H 1195.1 6.55442 2.35305 0
M  V30 12823 H 1192.73 7.2587 2.25868 0
M  V30 12824 N 1194.3 -1.0692 1.15784 0
M  V30 12825 C 1195.54 -1.8119 0.946018 0
M  V30 12826 C 1195.91 -1.84899 -0.517338 0
M  V30 12827 O 1197.11 -2.55085 -0.847643 0
M  V30 12828 C 1195.38 -3.22102 1.54871 0
M  V30 12829 S 1196.94 -4.13065 1.48063 0
M  V30 12830 H 1193.76 -0.62424 0.340361 0
M  V30 12831 H 1196.36 -1.28411 1.47414 0
M  V30 12832 H 1195.06 -3.16994 2.60659 0
M  V30 12833 H 1194.59 -3.79956 1.01965 0
M  V30 12834 H 1196.61 -4.93907 0.476517 0
M  V30 12835 N 1195.78 -0.955326 -1.25345 0
M  V30 12836 C 1197.03 -0.606149 -1.92377 0
M  V30 12837 C 1197.34 0.860927 -1.75634 0
M  V30 12838 O 1198.55 1.3201 -2.37246 0
M  V30 12839 C 1197.01 -1.03341 -3.44744 0
M  V30 12840 C 1196.61 -2.52308 -3.70196 0
M  V30 12841 C 1198.36 -0.756797 -4.17699 0
M  V30 12842 C 1196.27 -2.88831 -5.16072 0
M  V30 12843 H 1195.2 -0.222994 -0.720271 0
M  V30 12844 H 1197.85 -1.15987 -1.42194 0
M  V30 12845 H 1196.23 -0.408096 -3.93892 0
M  V30 12846 H 1197.4 -3.19864 -3.31698 0
M  V30 12847 H 1195.72 -2.77448 -3.10502 0
M  V30 12848 H 1198.31 -1.00583 -5.25154 0
M  V30 12849 H 1198.66 0.306794 -4.15168 0
M  V30 12850 H 1199.19 -1.34249 -3.74462 0
M  V30 12851 H 1195.93 -3.9421 -5.23716 0
M  V30 12852 H 1195.45 -2.25948 -5.55614 0
M  V30 12853 H 1197.13 -2.78061 -5.84201 0
M  V30 12854 N 1197.26 1.39987 -0.723979 0
M  V30 12855 C 1198.51 2.00334 -0.266587 0
M  V30 12856 C 1198.83 1.57714 1.14679 0
M  V30 12857 O 1198.1 0.82037 1.77895 0
M  V30 12858 H 1196.68 0.740861 -0.095573 0
M  V30 12859 H 1199.34 1.712 -0.931481 0
M  V30 12860 H 1198.44 3.10594 -0.306282 0
M  V30 12861 N 1198.74 0.470782 1.50404 0
M  V30 12862 C 1199.69 -0.32355 2.28521 0
M  V30 12863 C 1200.66 -0.987472 1.3356 0
M  V30 12864 O 1201.84 -0.999969 1.62497 0
M  V30 12865 C 1198.98 -1.39977 3.15437 0
M  V30 12866 C 1198.09 -0.750656 4.25428 0
M  V30 12867 C 1197.23 -1.80474 4.99602 0
M  V30 12868 C 1196.27 -1.13586 6.01469 0
M  V30 12869 N 1195.41 -2.13279 6.68922 0
M  V30 12870 H 1200.25 0.348902 2.9595 0
M  V30 12871 H 1197.78 0.183908 1.45946 0
M  V30 12872 H 1199.74 -2.0354 3.6418 0
M  V30 12873 H 1198.37 -2.04139 2.50054 0
M  V30 12874 H 1197.42 -0.00247092 3.804 0
M  V30 12875 H 1198.73 -0.222638 4.98303 0
M  V30 12876 H 1197.89 -2.51619 5.52062 0
M  V30 12877 H 1196.63 -2.36657 4.26433 0
M  V30 12878 H 1195.63 -0.410042 5.48269 0
M  V30 12879 H 1196.86 -0.580935 6.76611 0
M  V30 12880 H 1194.8 -2.68479 5.98544 0
M  V30 12881 H 1194.72 -1.65461 7.37671 0
M  V30 12882 H 1195.99 -2.83804 7.26 0
M  V30 12883 N 1200.22 -1.56282 0.203376 0
M  V30 12884 C 1201.46 -1.98105 -0.433844 0
M  V30 12885 C 1201.8 -1.09044 -1.60695 0
M  V30 12886 O 1201.07 -0.144193 -1.93965 0
M  V30 12887 C 1201.35 -3.4903 -0.885992 0
M  V30 12888 C 1201.21 -4.48867 0.289501 0
M  V30 12889 C 1202.53 -4.03871 -1.7486 0
M  V30 12890 H 1199.65 -0.720252 -0.156224 0
M  V30 12891 H 1202.29 -1.87681 0.295963 0
M  V30 12892 H 1200.44 -3.58045 -1.50785 0
M  V30 12893 H 1202.11 -4.51883 0.92734 0
M  V30 12894 H 1200.35 -4.23495 0.939934 0
M  V30 12895 H 1201.02 -5.51956 -0.0695128 0
M  V30 12896 H 1203.5 -3.97688 -1.22407 0
M  V30 12897 H 1202.38 -5.09827 -2.03391 0
M  V30 12898 H 1202.64 -3.49637 -2.70567 0
M  V30 12899 N 1201.7 0.070167 -1.57444 0
M  V30 12900 C 1202.61 1.10106 -2.07157 0
M  V30 12901 C 1203.62 1.42293 -1.00143 0
M  V30 12902 O 1204.8 1.52437 -1.31624 0
M  V30 12903 C 1201.86 2.39486 -2.50694 0
M  V30 12904 C 1200.92 2.14255 -3.72012 0
M  V30 12905 C 1200.16 3.37466 -4.13464 0
M  V30 12906 O 1200.38 4.46645 -3.54773 0
M  V30 12907 O 1199.31 3.25583 -5.0624 0
M  V30 12908 H 1203.14 0.70873 -2.95315 0
M  V30 12909 H 1200.72 0.28441 -1.46668 0
M  V30 12910 H 1202.61 3.15625 -2.79212 0
M  V30 12911 H 1201.28 2.78095 -1.65664 0
M  V30 12912 H 1200.19 1.35816 -3.48575 0
M  V30 12913 H 1201.52 1.80525 -4.57899 0
M  V30 12914 N 1203.17 1.53854 0.341593 0
M  V30 12915 C 1204.58 1.62623 0.917093 0
M  V30 12916 C 1204.94 0.508781 1.89488 0
M  V30 12917 O 1204.06 -0.361171 2.13365 0
M  V30 12918 C 1204.66 2.94775 1.67012 0
M  V30 12919 C 1203.21 3.058 2.19461 0
M  V30 12920 C 1202.36 2.58082 1.01433 0
M  V30 12921 H 1205.31 1.58248 0.119674 0
M  V30 12922 H 1205.33 2.83924 2.53313 0
M  V30 12923 H 1204.85 3.76085 0.958221 0
M  V30 12924 H 1202.95 2.29128 2.93821 0
M  V30 12925 H 1203.06 4.11302 2.45698 0
M  V30 12926 H 1201.42 2.13537 1.38831 0
M  V30 12927 H 1202.21 3.41833 0.317033 0
M  V30 12928 N 1204.65 -0.602709 1.4562 0
M  V30 12929 C 1205.88 -1.39299 1.53657 0
M  V30 12930 C 1206.3 -1.87315 0.171632 0
M  V30 12931 O 1205.66 -1.60423 -0.844639 0
M  V30 12932 C 1205.71 -2.57021 2.52928 0
M  V30 12933 O 1204.81 -3.57812 2.05047 0
M  V30 12934 H 1204.15 -0.41567 0.517798 0
M  V30 12935 H 1206.68 -0.73304 1.91018 0
M  V30 12936 H 1206.69 -3.04202 2.71892 0
M  V30 12937 H 1205.37 -2.21422 3.52058 0
M  V30 12938 H 1203.94 -3.17247 1.95981 0
M  V30 12939 N 1206.13 -1.32992 -0.845635 0
M  V30 12940 C 1207.38 -1.25258 -1.60256 0
M  V30 12941 C 1207.73 0.181685 -1.9154 0
M  V30 12942 O 1207.02 1.12193 -1.55316 0
M  V30 12943 C 1207.22 -2.05454 -2.92444 0
M  V30 12944 C 1207.05 -3.56533 -2.7407 0
M  V30 12945 C 1205.82 -4.25857 -2.71981 0
M  V30 12946 C 1208.01 -4.51003 -2.47186 0
M  V30 12947 N 1206 -5.6293 -2.44913 0
M  V30 12948 C 1207.37 -5.75917 -2.29607 0
M  V30 12949 C 1209.42 -4.40162 -2.32727 0
M  V30 12950 C 1208.13 -6.91214 -1.99037 0
M  V30 12951 C 1210.15 -5.55267 -2.0355 0
M  V30 12952 C 1209.51 -6.79186 -1.86777 0
M  V30 12953 H 1205.61 -0.513536 -0.58975 0
M  V30 12954 H 1208.2 -1.67458 -0.993277 0
M  V30 12955 H 1206.37 -1.65585 -3.51335 0
M  V30 12956 H 1208.1 -1.89543 -3.57569 0
M  V30 12957 H 1204.85 -3.78064 -2.85245 0
M  V30 12958 H 1205.28 -6.3517 -2.34282 0
M  V30 12959 H 1209.92 -3.44998 -2.4441 0
M  V30 12960 H 1207.64 -7.86381 -1.86091 0
M  V30 12961 H 1211.22 -5.48811 -1.93127 0
M  V30 12962 H 1210.1 -7.66748 -1.64523 0
M  V30 12963 N 1207.61 1.06304 -1.1635 0
M  V30 12964 C 1208.54 2.15745 -0.893103 0
M  V30 12965 C 1209.52 1.69341 0.160531 0
M  V30 12966 O 1210.7 1.94196 0.0126526 0
M  V30 12967 C 1207.83 3.45066 -0.393287 0
M  V30 12968 C 1206.79 4.04978 -1.38482 0
M  V30 12969 C 1206.11 5.29507 -0.743409 0
M  V30 12970 C 1207.41 4.4377 -2.75438 0
M  V30 12971 H 1209.11 2.38622 -1.80831 0
M  V30 12972 H 1206.65 1.14681 -0.870878 0
M  V30 12973 H 1208.61 4.20964 -0.191607 0
M  V30 12974 H 1207.33 3.21808 0.557426 0
M  V30 12975 H 1205.99 3.31136 -1.57304 0
M  V30 12976 H 1205.64 5.02545 0.213787 0
M  V30 12977 H 1205.34 5.7055 -1.40521 0
M  V30 12978 H 1206.86 6.08102 -0.551746 0
M  V30 12979 H 1208.28 5.1075 -2.60398 0
M  V30 12980 H 1206.67 4.95797 -3.38091 0
M  V30 12981 H 1207.74 3.54636 -3.30699 0
M  V30 12982 N 1209.09 0.96196 1.24836 0
M  V30 12983 C 1210.33 0.619489 1.92371 0
M  V30 12984 C 1210.65 -0.847233 1.75633 0
M  V30 12985 O 1209.92 -1.60419 1.12439 0
M  V30 12986 H 1208.5 0.226129 0.711951 0
M  V30 12987 H 1211.17 1.22179 1.5185 0
M  V30 12988 H 1210.26 0.855128 3.00157 0
M  V30 12989 N 1210.56 -1.39601 0.731392 0
M  V30 12990 C 1211.97 -1.83424 0.348194 0
M  V30 12991 C 1212.33 -1.61106 -1.11979 0
M  V30 12992 O 1211.45 -1.1003 -1.86339 0
M  V30 12993 C 1212.05 -3.32982 0.6252 0
M  V30 12994 C 1210.6 -3.75238 0.295536 0
M  V30 12995 C 1209.75 -2.62642 0.88964 0
M  V30 12996 H 1212.7 -1.28644 0.929318 0
M  V30 12997 H 1212.72 -3.80357 -0.104254 0
M  V30 12998 H 1212.24 -3.49193 1.69368 0
M  V30 12999 H 1210.34 -3.64615 -0.767254 0
M  V30 13000 H 1210.45 -4.72781 0.775576 0
M  V30 13001 H 1208.81 -2.52726 0.316529 0
M  V30 13002 H 1209.6 -2.81661 1.96271 0
M  V30 13003 N 1212.04 -0.478751 -1.50152 0
M  V30 13004 C 1212.97 0.301182 -2.31549 0
M  V30 13005 C 1213.95 0.983276 -1.38801 0
M  V30 13006 O 1215.14 0.978973 -1.67719 0
M  V30 13007 C 1212.27 1.3791 -3.18745 0
M  V30 13008 C 1211.22 0.818175 -4.20107 0
M  V30 13009 C 1210.55 1.99496 -4.9609 0
M  V30 13010 C 1211.85 -0.17574 -5.22004 0
M  V30 13011 H 1213.54 -0.378188 -2.97002 0
M  V30 13012 H 1211.09 -0.183323 -1.42828 0
M  V30 13013 H 1213.04 1.93227 -3.74488 0
M  V30 13014 H 1211.77 2.08735 -2.51192 0
M  V30 13015 H 1210.42 0.286924 -3.65475 0
M  V30 13016 H 1210.07 2.69036 -4.25004 0
M  V30 13017 H 1209.77 1.62582 -5.6466 0
M  V30 13018 H 1211.3 2.55288 -5.54671 0
M  V30 13019 H 1212.71 0.288513 -5.72574 0
M  V30 13020 H 1211.11 -0.459549 -5.98338 0
M  V30 13021 H 1212.18 -1.09911 -4.72279 0
M  V30 13022 N 1213.52 1.56172 -0.211661 0
M  V30 13023 C 1214.77 1.98039 0.422706 0
M  V30 13024 C 1215.1 1.09904 1.60472 0
M  V30 13025 O 1214.35 0.141771 1.95186 0
M  V30 13026 C 1214.65 3.45636 0.909442 0
M  V30 13027 C 1214.32 4.50613 -0.160982 0
M  V30 13028 C 1212.98 4.79043 -0.455064 0
M  V30 13029 C 1215.33 5.13624 -0.885426 0
M  V30 13030 C 1212.66 5.67771 -1.47828 0
M  V30 13031 C 1215.01 6.03459 -1.8979 0
M  V30 13032 C 1213.67 6.30238 -2.19901 0
M  V30 13033 H 1212.94 0.724676 0.154679 0
M  V30 13034 H 1215.59 1.8894 -0.312106 0
M  V30 13035 H 1213.9 3.51889 1.72283 0
M  V30 13036 H 1215.59 3.75395 1.40995 0
M  V30 13037 H 1212.18 4.28528 0.0783864 0
M  V30 13038 H 1216.37 4.91737 -0.671463 0
M  V30 13039 H 1211.62 5.86787 -1.7173 0
M  V30 13040 H 1215.8 6.51338 -2.46438 0
M  V30 13041 H 1213.42 6.98788 -2.9933 0
M  V30 13042 N 1215 -0.0618163 1.57479 0
M  V30 13043 C 1216.41 -0.612461 1.76368 0
M  V30 13044 C 1216.76 -1.77381 0.838466 0
M  V30 13045 O 1215.89 -2.16386 0.0250211 0
M  V30 13046 C 1216.48 -1.11782 3.19829 0
M  V30 13047 C 1215.04 -1.61424 3.40028 0
M  V30 13048 C 1214.19 -0.53795 2.72032 0
M  V30 13049 H 1217.14 0.164382 1.57846 0
M  V30 13050 H 1217.16 -1.98634 3.24538 0
M  V30 13051 H 1216.67 -0.272353 3.87143 0
M  V30 13052 H 1214.77 -2.48263 2.77842 0
M  V30 13053 H 1214.88 -1.68431 4.48517 0
M  V30 13054 H 1213.25 -0.985355 2.34868 0
M  V30 13055 H 1214.03 0.297495 3.42009 0
M  V30 13056 N 1216.48 -1.54033 -0.333429 0
M  V30 13057 C 1217.75 -1.62404 -1.09015 0
M  V30 13058 C 1218.13 -0.451653 -2.06212 0
M  V30 13059 O 1217.48 0.555086 -2.21655 0
M  V30 13060 C 1217.69 -2.98949 -1.80085 0
M  V30 13061 C 1219.04 -3.54655 -2.33464 0
M  V30 13062 O 1220.06 -3.0119 -1.90166 0
M  V30 13063 O 1218.92 -4.48195 -3.12703 0
M  V30 13064 H 1216.02 -0.65727 -0.501921 0
M  V30 13065 H 1218.56 -1.66378 -0.33411 0
M  V30 13066 H 1217.33 -3.75716 -1.09332 0
M  V30 13067 H 1216.96 -2.98609 -2.62523 0
M  V30 13068 N 1217.95 0.594978 -1.45938 0
M  V30 13069 C 1218.9 1.70489 -1.5557 0
M  V30 13070 C 1219.87 1.61193 -0.400751 0
M  V30 13071 O 1221.06 1.80587 -0.615882 0
M  V30 13072 C 1218.2 3.08817 -1.54033 0
M  V30 13073 C 1217.31 3.28827 -2.80173 0
M  V30 13074 C 1216.44 4.57333 -2.70222 0
M  V30 13075 C 1215.48 4.70644 -3.91357 0
M  V30 13076 N 1214.62 5.90463 -3.79865 0
M  V30 13077 H 1219.46 1.61593 -2.50383 0
M  V30 13078 H 1217 0.787747 -1.24229 0
M  V30 13079 H 1218.96 3.88865 -1.51129 0
M  V30 13080 H 1217.59 3.1664 -0.627617 0
M  V30 13081 H 1216.64 2.42467 -2.9311 0
M  V30 13082 H 1217.95 3.34534 -3.69985 0
M  V30 13083 H 1217.1 5.45593 -2.65354 0
M  V30 13084 H 1215.84 4.54045 -1.7803 0
M  V30 13085 H 1214.85 3.80805 -3.9657 0
M  V30 13086 H 1216.07 4.75721 -4.8463 0
M  V30 13087 H 1214.02 5.88196 -2.90451 0
M  V30 13088 H 1213.94 5.97385 -4.63322 0
M  V30 13089 H 1215.2 6.81187 -3.78952 0
M  V30 13090 N 1219.43 1.33438 0.838571 0
M  V30 13091 C 1220.66 1.27951 1.62592 0
M  V30 13092 C 1221.08 -0.149502 1.88207 0
M  V30 13093 O 1220.43 -1.09174 1.46244 0
M  V30 13094 C 1220.48 2.0523 2.97595 0
M  V30 13095 O 1220.2 3.42557 2.73105 0
M  V30 13096 C 1221.71 2.06957 3.92025 0
M  V30 13097 H 1218.93 0.440796 0.505905 0
M  V30 13098 H 1221.47 1.75814 1.0445 0
M  V30 13099 H 1219.62 1.61049 3.52338 0
M  V30 13100 H 1220.04 3.82314 3.59076 0
M  V30 13101 H 1221.51 2.65481 4.83967 0
M  V30 13102 H 1221.99 1.0599 4.26219 0
M  V30 13103 H 1222.6 2.51158 3.4322 0
M  V30 13104 N 1220.91 -1.05686 1.16912 0
M  V30 13105 C 1222.14 -1.82821 0.979348 0
M  V30 13106 C 1222.56 -1.82196 -0.467575 0
M  V30 13107 O 1221.92 -1.22727 -1.33445 0
M  V30 13108 C 1221.97 -3.2705 1.51891 0
M  V30 13109 O 1221.07 -4.05899 0.729341 0
M  V30 13110 H 1220.41 -0.565455 0.348076 0
M  V30 13111 H 1222.94 -1.33211 1.55293 0
M  V30 13112 H 1222.95 -3.77859 1.53904 0
M  V30 13113 H 1221.63 -3.26819 2.5722 0
M  V30 13114 H 1220.2 -3.64646 0.780221 0
M  V30 13115 N 1222.39 -0.968567 -1.24324 0
M  V30 13116 C 1223.34 -0.491346 -2.27351 0
M  V30 13117 C 1224.33 0.445563 -1.63435 0
M  V30 13118 O 1225.54 0.320758 -1.77119 0
M  V30 13119 H 1221.91 -0.14043 -0.738772 0
M  V30 13120 H 1223.88 -1.37224 -2.64976 0
M  V30 13121 C 1222.63 0.202093 -3.47112 0
M  V30 13122 H 1221.95 -0.50973 -3.96537 0
M  V30 13123 H 1223.39 0.499815 -4.21044 0
M  V30 13124 C 1221.85 1.42937 -3.05075 0
M  V30 13125 O 1222.38 2.52635 -3.12312 0
M  V30 13126 N 1220.59 1.29572 -2.60114 0
M  V30 13127 H 1220.14 0.403169 -2.54425 0
M  V30 13128 H 1220.09 2.118 -2.32353 0
M  V30 13129 N 1223.87 1.39211 -0.738786 0
M  V30 13130 C 1224.8 2.33209 -0.11647 0
M  V30 13131 C 1225.78 1.54108 0.720056 0
M  V30 13132 O 1226.96 1.82486 0.664264 0
M  V30 13133 C 1224.09 3.38226 0.78872 0
M  V30 13134 C 1223.05 4.27963 0.0560636 0
M  V30 13135 C 1222.37 5.2371 1.07852 0
M  V30 13136 C 1223.67 5.10508 -1.1036 0
M  V30 13137 H 1225.37 2.85501 -0.901649 0
M  V30 13138 H 1222.91 1.37272 -0.435032 0
M  V30 13139 H 1224.87 4.02938 1.23364 0
M  V30 13140 H 1223.59 2.84382 1.60606 0
M  V30 13141 H 1222.25 3.64735 -0.369274 0
M  V30 13142 H 1221.9 4.66161 1.88953 0
M  V30 13143 H 1221.6 5.846 0.593048 0
M  V30 13144 H 1223.12 5.91299 1.52307 0
M  V30 13145 H 1224.53 5.68544 -0.736943 0
M  V30 13146 H 1222.93 5.80558 -1.51895 0
M  V30 13147 H 1224 4.45117 -1.92352 0
M  V30 13148 N 1225.34 0.486708 1.49896 0
M  V30 13149 C 1226.76 0.141788 1.58969 0
M  V30 13150 C 1226.96 -1.35279 1.49338 0
M  V30 13151 O 1226.02 -2.1275 1.35992 0
M  V30 13152 C 1227.33 0.70588 2.92297 0
M  V30 13153 C 1228.88 0.670704 3.0573 0
M  V30 13154 C 1229.35 1.21261 4.41656 0
M  V30 13155 N 1230.84 1.17269 4.4811 0
M  V30 13156 C 1231.58 1.56233 5.51705 0
M  V30 13157 N 1231.07 2.02721 6.62477 0
M  V30 13158 N 1232.87 1.47738 5.42337 0
M  V30 13159 H 1225.02 1.45858 1.544 0
M  V30 13160 H 1227.28 0.604137 0.730563 0
M  V30 13161 H 1226.99 1.7535 3.04869 0
M  V30 13162 H 1226.86 0.158215 3.76868 0
M  V30 13163 H 1229.25 -0.368041 2.92796 0
M  V30 13164 H 1229.33 1.25535 2.22878 0
M  V30 13165 H 1228.97 2.25006 4.5534 0
M  V30 13166 H 1228.9 0.604031 5.23124 0
M  V30 13167 H 1231.39 0.831905 3.6863 0
M  V30 13168 H 1231.71 2.3056 7.37606 0
M  V30 13169 H 1230.05 2.06686 6.63556 0
M  V30 13170 H 1233.24 1.11249 4.54688 0
M  V30 13171 H 1233.42 1.78429 6.2295 0
M  V30 13172 N 1226.82 -1.56058 0.219941 0
M  V30 13173 C 1227.77 -2.20218 -0.690846 0
M  V30 13174 C 1228.74 -1.15725 -1.19151 0
M  V30 13175 O 1229.93 -1.44073 -1.2509 0
M  V30 13176 C 1227.07 -2.88477 -1.89408 0
M  V30 13177 C 1226.18 -4.07559 -1.43246 0
M  V30 13178 C 1225.31 -4.63605 -2.59314 0
M  V30 13179 C 1224.35 -5.74993 -2.0988 0
M  V30 13180 N 1223.49 -6.25337 -3.19214 0
M  V30 13181 H 1228.33 -2.97685 -0.136992 0
M  V30 13182 H 1225.87 -1.46994 -0.055865 0
M  V30 13183 H 1227.82 -3.26235 -2.60051 0
M  V30 13184 H 1226.45 -2.1353 -2.42084 0
M  V30 13185 H 1225.51 -3.75297 -0.621013 0
M  V30 13186 H 1226.82 -4.8805 -1.02997 0
M  V30 13187 H 1225.97 -5.03798 -3.38041 0
M  V30 13188 H 1224.71 -3.82274 -3.0285 0
M  V30 13189 H 1223.72 -5.34304 -1.29613 0
M  V30 13190 H 1224.94 -6.58158 -1.67345 0
M  V30 13191 H 1222.89 -5.4692 -3.62236 0
M  V30 13192 H 1222.8 -7.00947 -2.83213 0
M  V30 13193 H 1224.07 -6.70187 -3.98083 0
M  V30 13194 N 1228.3 0.053464 -1.57509 0
M  V30 13195 C 1229.23 1.08863 -2.01696 0
M  V30 13196 C 1230.25 1.33916 -0.925765 0
M  V30 13197 O 1231.44 1.31833 -1.20343 0
M  V30 13198 C 1228.54 2.43567 -2.35644 0
M  V30 13199 C 1227.71 2.38215 -3.66841 0
M  V30 13200 C 1226.77 3.55172 -3.88252 0
M  V30 13201 O 1225.79 3.35769 -4.59617 0
M  V30 13202 N 1227 4.76182 -3.3201 0
M  V30 13203 H 1229.76 0.712192 -2.91115 0
M  V30 13204 H 1227.32 0.241829 -1.60084 0
M  V30 13205 H 1229.31 3.20486 -2.47125 0
M  V30 13206 H 1227.88 2.73145 -1.52022 0
M  V30 13207 H 1227.1 1.46557 -3.65943 0
M  V30 13208 H 1228.39 2.31757 -4.52953 0
M  V30 13209 H 1227.79 4.94849 -2.74118 0
M  V30 13210 H 1226.35 5.5055 -3.4891 0
M  V30 13211 N 1229.78 1.54207 0.325255 0
M  V30 13212 C 1231.01 1.76293 1.08298 0
M  V30 13213 C 1231.42 0.510722 1.81761 0
M  V30 13214 O 1230.78 -0.5185 1.7498 0
M  V30 13215 C 1230.83 2.95498 2.08238 0
M  V30 13216 O 1230.55 4.15877 1.37759 0
M  V30 13217 C 1232.05 3.29781 2.96242 0
M  V30 13218 H 1229.27 0.588576 0.322209 0
M  V30 13219 H 1231.82 2.0109 0.371896 0
M  V30 13220 H 1229.97 2.72979 2.74884 0
M  V30 13221 H 1230.39 4.82918 2.04672 0
M  V30 13222 H 1231.86 4.16495 3.62265 0
M  V30 13223 H 1232.34 2.46874 3.63249 0
M  V30 13224 H 1232.94 3.54372 2.3516 0
M  V30 13225 N 1231.26 -0.58723 1.46251 0
M  V30 13226 C 1232.21 -1.71771 1.56836 0
M  V30 13227 C 1233.2 -1.63664 0.437096 0
M  V30 13228 O 1234.41 -1.69212 0.613797 0
M  V30 13229 H 1230.78 -0.567841 0.493012 0
M  V30 13230 H 1232.75 -1.59974 2.51895 0
M  V30 13231 C 1231.5 -3.10159 1.57152 0
M  V30 13232 H 1230.82 -3.17066 2.43535 0
M  V30 13233 H 1232.26 -3.89032 1.68613 0
M  V30 13234 C 1230.72 -3.35567 0.299374 0
M  V30 13235 O 1231.25 -3.97006 -0.612291 0
M  V30 13236 N 1229.46 -2.89987 0.188695 0
M  V30 13237 H 1229.01 -2.4017 0.93147 0
M  V30 13238 H 1228.96 -3.0736 -0.661612 0
M  V30 13239 N 1232.74 -1.33881 -0.831482 0
M  V30 13240 C 1233.98 -1.251 -1.58218 0
M  V30 13241 C 1234.3 0.17963 -1.94773 0
M  V30 13242 O 1235.5 0.389516 -2.68691 0
M  V30 13243 C 1233.96 -2.19246 -2.8541 0
M  V30 13244 C 1233.57 -3.6752 -2.5619 0
M  V30 13245 C 1235.31 -2.19355 -3.63433 0
M  V30 13246 C 1233.22 -4.53559 -3.79523 0
M  V30 13247 H 1232.15 -0.46469 -0.593784 0
M  V30 13248 H 1234.8 -1.58992 -0.916169 0
M  V30 13249 H 1233.18 -1.78295 -3.53591 0
M  V30 13250 H 1234.36 -4.16956 -1.96173 0
M  V30 13251 H 1232.67 -3.69774 -1.91458 0
M  V30 13252 H 1235.27 -2.80863 -4.54995 0
M  V30 13253 H 1235.61 -1.19056 -3.98913 0
M  V30 13254 H 1236.14 -2.58706 -3.02185 0
M  V30 13255 H 1232.88 -5.54762 -3.4917 0
M  V30 13256 H 1232.4 -4.08862 -4.38853 0
M  V30 13257 H 1234.08 -4.67736 -4.47025 0
M  V30 13258 N 1234.21 1.05064 -1.1747 0
M  V30 13259 C 1235.18 2.1101 -0.89485 0
M  V30 13260 C 1236.18 1.60384 0.11553 0
M  V30 13261 O 1237.37 1.73808 -0.116785 0
M  V30 13262 C 1234.5 3.39194 -0.340642 0
M  V30 13263 H 1235.69 2.37269 -1.83421 0
M  V30 13264 H 1233.24 1.21329 -0.985343 0
M  V30 13265 H 1233.98 3.18591 0.605808 0
M  V30 13266 H 1233.76 3.77251 -1.06885 0
M  V30 13267 H 1235.25 4.17281 -0.163204 0
M  V30 13268 N 1235.69 0.975146 1.23809 0
M  V30 13269 C 1236.92 0.658605 1.96665 0
M  V30 13270 C 1237.34 -0.766744 1.71763 0
M  V30 13271 O 1236.7 -1.52151 0.985887 0
M  V30 13272 C 1236.75 0.948438 3.47904 0
M  V30 13273 O 1235.85 0.0377241 4.12383 0
M  V30 13274 H 1235.19 0.248231 0.615855 0
M  V30 13275 H 1237.72 1.30732 1.57386 0
M  V30 13276 H 1237.73 0.883 3.9833 0
M  V30 13277 H 1236.41 1.98717 3.65355 0
M  V30 13278 H 1234.98 0.157122 3.72569 0
M  V30 13279 N 1237.17 -1.38817 0.746158 0
M  V30 13280 C 1238.4 -2.0457 0.309605 0
M  V30 13281 C 1238.81 -1.5627 -1.05948 0
M  V30 13282 O 1238.17 -0.73248 -1.67156 0
M  V30 13283 C 1238.22 -3.60126 0.314843 0
M  V30 13284 O 1237.94 -4.06652 1.6299 0
M  V30 13285 C 1239.44 -4.4309 -0.136497 0
M  V30 13286 H 1236.66 -0.657597 0.133441 0
M  V30 13287 H 1239.21 -1.77651 1.01293 0
M  V30 13288 H 1237.36 -3.85908 -0.339685 0
M  V30 13289 H 1237.78 -5.01042 1.55103 0
M  V30 13290 H 1239.25 -5.5194 -0.0816714 0
M  V30 13291 H 1239.73 -4.22959 -1.18332 0
M  V30 13292 H 1240.33 -4.22481 0.488879 0
M  V30 13293 N 1238.65 -0.49465 -1.49636 0
M  V30 13294 C 1239.58 0.276606 -2.31856 0
M  V30 13295 C 1240.56 0.968499 -1.39836 0
M  V30 13296 O 1241.74 0.96113 -1.68748 0
M  V30 13297 C 1238.87 1.34522 -3.20189 0
M  V30 13298 C 1237.83 0.773571 -4.20951 0
M  V30 13299 C 1237.15 1.94223 -4.98178 0
M  V30 13300 C 1238.45 -0.231096 -5.21788 0
M  V30 13301 H 1240.15 -0.409668 -2.96584 0
M  V30 13302 H 1237.69 -0.198461 -1.42626 0
M  V30 13303 H 1239.65 1.89244 -3.76517 0
M  V30 13304 H 1238.37 2.06059 -2.53392 0
M  V30 13305 H 1237.03 0.248144 -3.65759 0
M  V30 13306 H 1236.68 2.64514 -4.27834 0
M  V30 13307 H 1236.38 1.56584 -5.66353 0
M  V30 13308 H 1237.9 2.49391 -5.57348 0
M  V30 13309 H 1239.32 0.227768 -5.72847 0
M  V30 13310 H 1237.71 -0.522984 -5.97817 0
M  V30 13311 H 1238.78 -1.14914 -4.71087 0
M  V30 13312 N 1240.13 1.55939 -0.228214 0
M  V30 13313 C 1241.09 2.1932 0.665681 0
M  V30 13314 C 1242.09 1.15699 1.11671 0
M  V30 13315 O 1243.28 1.40893 1.02444 0
M  V30 13316 C 1240.41 2.82185 1.9127 0
M  V30 13317 H 1241.6 2.99687 0.112986 0
M  V30 13318 H 1239.16 1.56285 0.0213865 0
M  V30 13319 H 1239.89 2.05706 2.5071 0
M  V30 13320 H 1239.68 3.58073 1.5977 0
M  V30 13321 H 1241.17 3.30748 2.54942 0
M  V30 13322 N 1241.6 -0.0451101 1.57535 0
M  V30 13323 C 1243.02 -0.400463 1.54494 0
M  V30 13324 C 1243.22 -1.77584 0.952166 0
M  V30 13325 O 1242.28 -2.46069 0.566221 0
M  V30 13326 C 1243.59 -0.31703 2.99024 0
M  V30 13327 C 1245.14 -0.395284 3.10494 0
M  V30 13328 C 1245.61 -0.341475 4.56725 0
M  V30 13329 N 1247.1 -0.400755 4.61463 0
M  V30 13330 C 1247.84 -0.381757 5.72128 0
M  V30 13331 N 1247.33 -0.315995 6.92079 0
M  V30 13332 N 1249.13 -0.4303 5.60451 0
M  V30 13333 H 1241.28 0.855156 1.94424 0
M  V30 13334 H 1243.54 0.323618 0.891053 0
M  V30 13335 H 1243.25 0.627477 3.46057 0
M  V30 13336 H 1243.12 -1.11696 3.60283 0
M  V30 13337 H 1245.51 -1.33022 2.63418 0
M  V30 13338 H 1245.59 0.433709 2.52096 0
M  V30 13339 H 1245.23 0.589725 5.04465 0
M  V30 13340 H 1245.16 -1.18836 5.13016 0
M  V30 13341 H 1247.65 -0.454745 3.75154 0
M  V30 13342 H 1247.97 -0.306158 7.72193 0
M  V30 13343 H 1246.31 -0.282281 6.94427 0
M  V30 13344 H 1249.5 -0.479555 4.65637 0
M  V30 13345 H 1249.68 -0.412025 6.46689 0
M  V30 13346 N 1243.08 -1.54377 -0.317073 0
M  V30 13347 C 1244.02 -1.7907 -1.41453 0
M  V30 13348 C 1244.99 -0.641012 -1.49432 0
M  V30 13349 O 1246.18 -0.879179 -1.66741 0
M  V30 13350 C 1243.3 -1.91307 -2.79498 0
M  V30 13351 C 1242.35 -3.13639 -2.8902 0
M  V30 13352 S 1243.18 -4.72093 -2.52762 0
M  V30 13353 C 1244.34 -4.87245 -3.92866 0
M  V30 13354 H 1244.57 -2.71875 -1.20296 0
M  V30 13355 H 1242.11 -1.45583 -0.514279 0
M  V30 13356 H 1244.06 -1.99043 -3.59015 0
M  V30 13357 H 1242.72 -0.994687 -2.97934 0
M  V30 13358 H 1241.92 -3.18955 -3.90235 0
M  V30 13359 H 1241.52 -3.04266 -2.17481 0
M  V30 13360 H 1243.81 -4.7028 -4.87691 0
M  V30 13361 H 1244.75 -5.89344 -3.92529 0
M  V30 13362 H 1245.16 -4.15504 -3.82122 0
M  V30 13363 N 1244.56 0.579466 -1.4656 0
M  V30 13364 C 1245.81 1.33954 -1.52264 0
M  V30 13365 C 1246.14 1.93409 -0.175089 0
M  V30 13366 O 1245.41 1.76654 0.81385 0
M  V30 13367 C 1245.7 2.46645 -2.6237 0
M  V30 13368 C 1245.55 1.92204 -4.06667 0
M  V30 13369 C 1246.87 3.48676 -2.68538 0
M  V30 13370 H 1243.99 0.485697 -0.554317 0
M  V30 13371 H 1246.63 0.650639 -1.78512 0
M  V30 13372 H 1244.78 3.0541 -2.40119 0
M  V30 13373 H 1246.45 1.37871 -4.40215 0
M  V30 13374 H 1244.7 1.23012 -4.15993 0
M  V30 13375 H 1245.37 2.73566 -4.79443 0
M  V30 13376 H 1247.84 2.99798 -2.88549 0
M  V30 13377 H 1246.72 4.24981 -3.47394 0
M  V30 13378 H 1246.98 4.06112 -1.74716 0
M  V30 13379 N 1246.04 1.3432 0.824371 0
M  V30 13380 C 1247.29 1.25938 1.57552 0
M  V30 13381 C 1247.6 -0.169298 1.94866 0
M  V30 13382 O 1248.81 -0.375262 2.68894 0
M  V30 13383 C 1247.26 2.20757 2.84244 0
M  V30 13384 C 1246.87 3.68873 2.54237 0
M  V30 13385 C 1248.61 2.21279 3.62265 0
M  V30 13386 C 1246.52 4.55566 3.77113 0
M  V30 13387 H 1245.45 0.467832 0.591311 0
M  V30 13388 H 1248.1 1.59476 0.907724 0
M  V30 13389 H 1246.48 1.80168 3.52641 0
M  V30 13390 H 1247.66 4.17991 1.93959 0
M  V30 13391 H 1245.97 3.70784 1.89494 0
M  V30 13392 H 1248.57 2.83272 4.53499 0
M  V30 13393 H 1248.91 1.2117 3.98276 0
M  V30 13394 H 1249.45 2.60305 3.00809 0
M  V30 13395 H 1246.19 5.56605 3.46223 0
M  V30 13396 H 1245.71 4.11184 4.36678 0
M  V30 13397 H 1247.38 4.701 4.44539 0
M  V30 13398 N 1247.52 -1.0444 1.18026 0
M  V30 13399 C 1248.93 -1.29766 0.929143 0
M  V30 13400 C 1249.13 -1.97338 -0.407436 0
M  V30 13401 O 1248.19 -2.25166 -1.14265 0
M  V30 13402 C 1249.5 -2.16002 2.09197 0
M  V30 13403 C 1251.05 -2.29361 2.12985 0
M  V30 13404 C 1251.52 -3.18962 3.28675 0
M  V30 13405 N 1253.02 -3.26549 3.28512 0
M  V30 13406 C 1253.75 -3.96025 4.14671 0
M  V30 13407 N 1253.25 -4.67863 5.10956 0
M  V30 13408 N 1255.04 -3.92266 4.02597 0
M  V30 13409 H 1247.19 -0.58984 2.04046 0
M  V30 13410 H 1249.45 -0.322752 0.891367 0
M  V30 13411 H 1249.16 -1.73653 3.05839 0
M  V30 13412 H 1249.03 -3.16667 2.04943 0
M  V30 13413 H 1251.42 -2.70948 1.16924 0
M  V30 13414 H 1251.5 -1.28299 2.21298 0
M  V30 13415 H 1251.15 -2.78087 4.25006 0
M  V30 13416 H 1251.08 -4.20047 3.17598 0
M  V30 13417 H 1253.57 -2.75371 2.58804 0
M  V30 13418 H 1253.88 -5.1846 5.73079 0
M  V30 13419 H 1252.22 -4.6678 5.14919 0
M  V30 13420 H 1255.42 -3.35273 3.26665 0
M  V30 13421 H 1255.59 -4.4614 4.69961 0
M  V30 13422 N 1248.99 -0.981699 -1.2329 0
M  V30 13423 C 1250.22 -0.668399 -1.95489 0
M  V30 13424 C 1250.63 0.768976 -1.72868 0
M  V30 13425 O 1249.98 1.52925 -1.01783 0
M  V30 13426 C 1250.04 -0.880535 -3.4855 0
M  V30 13427 C 1249.7 -2.30023 -3.9489 0
M  V30 13428 C 1250.7 -3.27899 -4.03458 0
M  V30 13429 C 1248.38 -2.63167 -4.27842 0
M  V30 13430 C 1250.38 -4.56999 -4.44332 0
M  V30 13431 C 1248.06 -3.92489 -4.68397 0
M  V30 13432 C 1249.06 -4.89216 -4.76609 0
M  V30 13433 O 1248.75 -6.16229 -5.16253 0
M  V30 13434 H 1248.48 -0.247255 -0.629159 0
M  V30 13435 H 1251.04 -1.31606 -1.57699 0
M  V30 13436 H 1249.27 -0.175698 -3.86301 0
M  V30 13437 H 1250.96 -0.564198 -4.0196 0
M  V30 13438 H 1251.72 -3.03624 -3.78203 0
M  V30 13439 H 1247.6 -1.88588 -4.20661 0
M  V30 13440 H 1251.14 -5.32498 -4.50656 0
M  V30 13441 H 1247.04 -4.16558 -4.93102 0
M  V30 13442 H 1247.81 -6.20001 -5.34361 0
M  V30 13443 N 1250.47 1.3842 -0.753509 0
M  V30 13444 C 1251.4 2.29039 -0.0859463 0
M  V30 13445 C 1252.42 1.47742 0.68383 0
M  V30 13446 O 1253.61 1.70607 0.524933 0
M  V30 13447 C 1250.71 3.26668 0.902296 0
M  V30 13448 C 1249.88 4.36986 0.190178 0
M  V30 13449 C 1248.94 5.14805 1.08916 0
M  V30 13450 O 1247.96 5.66441 0.559715 0
M  V30 13451 N 1249.17 5.27777 2.41726 0
M  V30 13452 H 1251.93 2.8697 -0.864196 0
M  V30 13453 H 1249.49 1.502 -0.604288 0
M  V30 13454 H 1251.48 3.75606 1.50672 0
M  V30 13455 H 1250.05 2.69636 1.58163 0
M  V30 13456 H 1249.27 3.89684 -0.594959 0
M  V30 13457 H 1250.56 5.07899 -0.302594 0
M  V30 13458 H 1249.96 4.87376 2.87196 0
M  V30 13459 H 1248.52 5.8009 2.97219 0
M  V30 13460 N 1251.95 0.502579 1.49372 0
M  V30 13461 C 1252.88 -0.321683 2.25921 0
M  V30 13462 C 1253.86 -0.968999 1.30572 0
M  V30 13463 O 1255.05 -0.998788 1.59864 0
M  V30 13464 C 1252.17 -1.45318 3.05942 0
M  V30 13465 C 1251.22 -0.920076 4.16457 0
M  V30 13466 S 1252.05 0.190402 5.35161 0
M  V30 13467 C 1253.21 -0.944222 6.18737 0
M  V30 13468 H 1253.44 0.328036 2.95485 0
M  V30 13469 H 1250.97 0.287903 1.51692 0
M  V30 13470 H 1252.93 -2.1015 3.52629 0
M  V30 13471 H 1251.59 -2.07452 2.35844 0
M  V30 13472 H 1250.79 -1.76808 4.71969 0
M  V30 13473 H 1250.39 -0.348944 3.72369 0
M  V30 13474 H 1252.68 -1.8491 6.51778 0
M  V30 13475 H 1253.62 -0.42769 7.06807 0
M  V30 13476 H 1254.03 -1.21227 5.5133 0
M  V30 13477 N 1253.43 -1.55816 0.23648 0
M  V30 13478 C 1254.38 -2.20938 -0.66745 0
M  V30 13479 C 1255.35 -1.16982 -1.17917 0
M  V30 13480 O 1256.53 -1.45392 -1.23555 0
M  V30 13481 C 1253.67 -2.90469 -1.86337 0
M  V30 13482 C 1252.78 -4.09056 -1.38915 0
M  V30 13483 C 1251.92 -4.6633 -2.54382 0
M  V30 13484 C 1250.96 -5.77187 -2.0377 0
M  V30 13485 N 1250.09 -6.28688 -3.12564 0
M  V30 13486 H 1254.93 -2.97814 -0.105411 0
M  V30 13487 H 1252.47 -1.47045 -0.0402712 0
M  V30 13488 H 1254.43 -3.28975 -2.56576 0
M  V30 13489 H 1253.06 -2.16086 -2.39806 0
M  V30 13490 H 1252.11 -3.75934 -0.581173 0
M  V30 13491 H 1253.42 -4.89115 -0.978152 0
M  V30 13492 H 1252.58 -5.07355 -3.32679 0
M  V30 13493 H 1251.32 -3.85464 -2.98778 0
M  V30 13494 H 1250.32 -5.35648 -1.23939 0
M  V30 13495 H 1251.55 -6.59896 -1.60355 0
M  V30 13496 H 1249.49 -5.50731 -3.56414 0
M  V30 13497 H 1249.41 -7.03911 -2.75762 0
M  V30 13498 H 1250.68 -6.74371 -3.90952 0
M  V30 13499 N 1254.91 0.036755 -1.57557 0
M  V30 13500 C 1256.13 0.744813 -1.93565 0
M  V30 13501 C 1256.56 1.68508 -0.835863 0
M  V30 13502 O 1255.91 1.80091 0.208986 0
M  V30 13503 C 1255.96 1.48461 -3.28621 0
M  V30 13504 O 1255.07 2.59739 -3.20327 0
M  V30 13505 H 1254.41 0.200866 -0.632889 0
M  V30 13506 H 1256.94 -0.00547543 -2.04599 0
M  V30 13507 H 1256.95 1.85622 -3.63329 0
M  V30 13508 H 1255.62 0.794953 -4.08232 0
M  V30 13509 H 1254.2 2.25176 -2.97237 0
M  V30 13510 N 1256.39 1.54543 0.308881 0
M  V30 13511 C 1257.35 1.84214 1.36374 0
M  V30 13512 C 1258.35 0.71463 1.44047 0
M  V30 13513 O 1259.54 0.98293 1.4382 0
M  V30 13514 C 1256.67 2.01535 2.74948 0
M  V30 13515 H 1257.86 2.78477 1.11314 0
M  V30 13516 H 1255.42 1.46485 0.545141 0
M  V30 13517 H 1256.15 1.09533 3.05242 0
M  V30 13518 H 1255.94 2.83595 2.7077 0
M  V30 13519 H 1257.43 2.25888 3.51233 0
M  V30 13520 N 1257.86 -0.571685 1.46866 0
M  V30 13521 C 1259.11 -1.33145 1.52972 0
M  V30 13522 C 1259.44 -1.93314 0.185344 0
M  V30 13523 O 1258.72 -1.77083 -0.80447 0
M  V30 13524 C 1259 -2.4525 2.63675 0
M  V30 13525 C 1258.85 -1.90044 4.0768 0
M  V30 13526 C 1260.17 -3.47247 2.70384 0
M  V30 13527 H 1257.29 -0.482751 0.556885 0
M  V30 13528 H 1259.93 -0.641163 1.78855 0
M  V30 13529 H 1258.08 -3.04132 2.41735 0
M  V30 13530 H 1259.76 -1.35535 4.4094 0
M  V30 13531 H 1258 -1.20805 4.1664 0
M  V30 13532 H 1258.67 -2.71019 4.80887 0
M  V30 13533 H 1261.15 -2.98263 2.90135 0
M  V30 13534 H 1260.02 -4.23132 3.49643 0
M  V30 13535 H 1260.28 -4.05179 1.76868 0
M  V30 13536 N 1259.34 -1.34755 -0.817236 0
M  V30 13537 C 1260.25 -1.28888 -1.96023 0
M  V30 13538 C 1261.27 -0.195582 -1.72897 0
M  V30 13539 O 1262.44 -0.423071 -1.96906 0
M  V30 13540 C 1259.51 -1.04985 -3.30423 0
M  V30 13541 C 1258.57 -2.23526 -3.66517 0
M  V30 13542 C 1257.8 -2.00753 -4.94504 0
M  V30 13543 O 1258.03 -0.968622 -5.62116 0
M  V30 13544 O 1256.96 -2.87848 -5.28608 0
M  V30 13545 H 1260.79 -2.25059 -2.03917 0
M  V30 13546 H 1258.37 -1.15019 -0.953467 0
M  V30 13547 H 1260.25 -0.934589 -4.10906 0
M  V30 13548 H 1258.93 -0.118582 -3.23483 0
M  V30 13549 H 1257.83 -2.40613 -2.86455 0
M  V30 13550 H 1259.17 -3.15062 -3.78149 0
M  V30 13551 N 1260.82 1.03812 -1.18578 0
M  V30 13552 C 1261.73 2.15371 -0.930182 0
M  V30 13553 C 1262.75 1.73673 0.106599 0
M  V30 13554 O 1263.92 2.01257 -0.0759054 0
M  V30 13555 C 1260.99 3.43606 -0.462151 0
M  V30 13556 C 1260.05 3.99671 -1.5672 0
M  V30 13557 C 1259.28 5.21785 -1.12141 0
M  V30 13558 O 1259.5 5.70397 0.0188357 0
M  V30 13559 O 1258.44 5.70449 -1.9202 0
M  V30 13560 H 1262.26 2.39791 -1.86371 0
M  V30 13561 H 1259.85 1.13814 -0.967819 0
M  V30 13562 H 1261.73 4.2088 -0.20934 0
M  V30 13563 H 1260.41 3.20654 0.443052 0
M  V30 13564 H 1259.31 3.23774 -1.87406 0
M  V30 13565 H 1260.65 4.2697 -2.44862 0
M  V30 13566 N 1262.3 0.988223 1.22768 0
M  V30 13567 C 1263.55 0.660154 1.91014 0
M  V30 13568 C 1263.87 -0.809788 1.77391 0
M  V30 13569 O 1263.14 -1.57998 1.15817 0
M  V30 13570 H 1261.72 0.24118 0.706995 0
M  V30 13571 H 1264.38 1.25372 1.49224 0
M  V30 13572 H 1263.47 0.918603 2.98275 0
M  V30 13573 N 1263.78 -1.38018 0.760839 0
M  V30 13574 C 1265 -2.04231 0.331285 0
M  V30 13575 C 1265.42 -1.57385 -1.04285 0
M  V30 13576 O 1264.78 -0.750168 -1.66369 0
M  V30 13577 C 1264.83 -3.59772 0.353021 0
M  V30 13578 O 1264.55 -4.049 1.67294 0
M  V30 13579 C 1266.05 -4.4321 -0.0894942 0
M  V30 13580 H 1263.27 -0.656145 0.140408 0
M  V30 13581 H 1265.81 -1.76567 1.03172 0
M  V30 13582 H 1263.97 -3.86246 -0.298735 0
M  V30 13583 H 1264.38 -4.99369 1.60408 0
M  V30 13584 H 1265.86 -5.51995 -0.0231262 0
M  V30 13585 H 1266.33 -4.2419 -1.13839 0
M  V30 13586 H 1266.94 -4.21939 0.533661 0
M  V30 13587 N 1265.25 -0.510493 -1.49103 0
M  V30 13588 C 1266.22 0.251915 -2.27811 0
M  V30 13589 C 1267.22 0.885432 -1.34226 0
M  V30 13590 O 1268.41 0.748494 -1.573 0
M  V30 13591 C 1265.54 1.3624 -3.12492 0
M  V30 13592 H 1266.73 -0.438872 -2.96671 0
M  V30 13593 H 1264.28 -0.265767 -1.54024 0
M  V30 13594 H 1265.02 2.08705 -2.48219 0
M  V30 13595 H 1264.8 0.913485 -3.81311 0
M  V30 13596 H 1266.29 1.89919 -3.71915 0
M  V30 13597 N 1266.73 1.55688 -0.24474 0
M  V30 13598 C 1267.96 2.03743 0.387776 0
M  V30 13599 C 1268.38 1.1229 1.50906 0
M  V30 13600 O 1267.74 0.115445 1.80932 0
M  V30 13601 C 1267.79 3.49825 0.874927 0
M  V30 13602 O 1266.89 3.61504 1.98466 0
M  V30 13603 H 1266.23 0.658561 0.0848107 0
M  V30 13604 H 1268.76 2.01224 -0.370165 0
M  V30 13605 H 1268.77 3.90603 1.17871 0
M  V30 13606 H 1267.45 4.15864 0.0543852 0
M  V30 13607 H 1266.02 3.32622 1.68574 0
M  V30 13608 N 1268.21 -0.0283989 1.57574 0
M  V30 13609 C 1269.46 -0.717656 1.88929 0
M  V30 13610 C 1269.78 -1.7586 0.842517 0
M  V30 13611 O 1269.05 -1.95509 -0.123774 0
M  V30 13612 H 1267.63 -0.268051 0.69725 0
M  V30 13613 H 1270.29 0.00580691 1.94899 0
M  V30 13614 H 1269.39 -1.2068 2.87824 0
M  V30 13615 N 1269.69 -1.54705 -0.300681 0
M  V30 13616 C 1270.91 -1.78318 -1.05913 0
M  V30 13617 C 1271.34 -0.541177 -1.80147 0
M  V30 13618 O 1270.7 0.508291 -1.74029 0
M  V30 13619 C 1270.74 -2.99041 -2.01511 0
M  V30 13620 O 1269.85 -2.72188 -3.09818 0
M  V30 13621 H 1269.19 -0.590197 -0.304242 0
M  V30 13622 H 1271.72 -2.01789 -0.338006 0
M  V30 13623 H 1271.73 -3.2702 -2.43971 0
M  V30 13624 H 1270.4 -3.89098 -1.46886 0
M  V30 13625 H 1268.98 -2.55227 -2.71871 0
M  V30 13626 N 1271.17 0.563888 -1.47167 0
M  V30 13627 C 1272.44 1.32454 -1.43928 0
M  V30 13628 C 1272.82 2.10683 -0.13267 0
M  V30 13629 O 1272.17 2.1063 0.885845 0
M  V30 13630 C 1272.38 2.2347 -2.68071 0
M  V30 13631 C 1273.73 2.84702 -3.15008 0
M  V30 13632 O 1274.75 2.33775 -2.68752 0
M  V30 13633 O 1273.61 3.77251 -3.95404 0
M  V30 13634 H 1270.71 0.596074 -0.573258 0
M  V30 13635 H 1273.25 0.583345 -1.59359 0
M  V30 13636 H 1272.02 1.6522 -3.54708 0
M  V30 13637 H 1271.65 3.04897 -2.55193 0
M  V30 13638 N 1272.64 1.35187 0.810078 0
M  V30 13639 C 1273.89 1.28011 1.56389 0
M  V30 13640 C 1274.21 -0.14622 1.94451 0
M  V30 13641 O 1273.48 -1.08185 1.63318 0
M  V30 13642 H 1272.06 0.470837 0.579932 0
M  V30 13643 H 1274.73 1.69249 0.966476 0
M  V30 13644 H 1273.82 1.89362 2.4809 0
M  V30 13645 N 1274.12 -1.03182 1.19127 0
M  V30 13646 C 1275.07 -2.13507 0.922899 0
M  V30 13647 C 1276.06 -1.68973 -0.120171 0
M  V30 13648 O 1277.27 -1.79977 0.0288007 0
M  V30 13649 H 1273.65 -0.697516 0.281027 0
M  V30 13650 H 1275.62 -2.33335 1.86003 0
M  V30 13651 C 1274.37 -3.44442 0.474864 0
M  V30 13652 H 1273.69 -3.79125 1.26902 0
M  V30 13653 H 1275.13 -4.22744 0.326162 0
M  V30 13654 C 1273.59 -3.27002 -0.81063 0
M  V30 13655 O 1274.12 -3.55374 -1.87276 0
M  V30 13656 N 1272.32 -2.80303 -0.766713 0
M  V30 13657 H 1271.87 -2.57414 0.0978672 0
M  V30 13658 H 1271.83 -2.69015 -1.62721 0
M  V30 13659 N 1275.6 -0.99472 -1.22242 0
M  V30 13660 C 1276.85 -0.671602 -1.91039 0
M  V30 13661 C 1277.18 0.796543 -1.77441 0
M  V30 13662 O 1276.43 1.59179 -1.13845 0
M  V30 13663 C 1276.73 -1.02561 -3.42368 0
M  V30 13664 C 1276.4 -2.48632 -3.76155 0
M  V30 13665 C 1275.06 -2.88549 -3.85088 0
M  V30 13666 C 1277.41 -3.43302 -3.92165 0
M  V30 13667 C 1274.74 -4.22121 -4.07469 0
M  V30 13668 C 1277.09 -4.76534 -4.1605 0
M  V30 13669 C 1275.75 -5.1619 -4.23207 0
M  V30 13670 H 1275.02 -0.245756 -0.69906 0
M  V30 13671 H 1277.67 -1.25125 -1.44969 0
M  V30 13672 H 1275.98 -0.364073 -3.90105 0
M  V30 13673 H 1277.67 -0.753612 -3.93855 0
M  V30 13674 H 1274.26 -2.16693 -3.69787 0
M  V30 13675 H 1278.45 -3.13633 -3.8464 0
M  V30 13676 H 1273.7 -4.52431 -4.11238 0
M  V30 13677 H 1277.88 -5.49835 -4.27381 0
M  V30 13678 H 1275.5 -6.19708 -4.40303 0
M  V30 13679 N 1277.08 1.37613 -0.768148 0
M  V30 13680 C 1278.3 2.04579 -0.340892 0
M  V30 13681 C 1278.73 1.57556 1.02751 0
M  V30 13682 O 1278.09 0.734151 1.65771 0
M  V30 13683 C 1278.13 3.58495 -0.389099 0
M  V30 13684 O 1277.24 4.07838 0.611741 0
M  V30 13685 H 1276.58 0.647246 -0.148216 0
M  V30 13686 H 1279.11 1.75999 -1.04333 0
M  V30 13687 H 1279.12 4.07263 -0.245116 0
M  V30 13688 H 1277.79 3.92076 -1.38742 0
M  V30 13689 H 1276.37 3.70399 0.431173 0
M  V30 13690 N 1278.56 0.518393 1.4883 0
M  V30 13691 C 1279.47 -0.254811 2.33212 0
M  V30 13692 C 1280.48 -0.950401 1.45751 0
M  V30 13693 O 1281.66 -0.927932 1.78749 0
M  V30 13694 C 1278.72 -1.29509 3.21603 0
M  V30 13695 C 1277.78 -0.611086 4.24928 0
M  V30 13696 C 1277.02 -1.6018 5.09095 0
M  V30 13697 O 1277.24 -2.83336 4.95052 0
M  V30 13698 O 1276.17 -1.14756 5.90859 0
M  V30 13699 H 1280 0.436329 3.00549 0
M  V30 13700 H 1277.59 0.27947 1.46763 0
M  V30 13701 H 1279.47 -1.89654 3.7631 0
M  V30 13702 H 1278.14 -1.96884 2.5694 0
M  V30 13703 H 1277.05 0.0305638 3.74088 0
M  V30 13704 H 1278.38 0.0205249 4.92196 0
M  V30 13705 N 1280.03 -1.55556 0.252993 0
M  V30 13706 C 1281.31 -1.91022 -0.420696 0
M  V30 13707 C 1281.69 -1.17452 -1.75409 0
M  V30 13708 O 1281.04 -0.294 -2.26601 0
M  V30 13709 C 1281.25 -3.441 -0.582787 0
M  V30 13710 C 1282.6 -4.15468 -0.875873 0
M  V30 13711 O 1283.62 -3.49872 -0.668425 0
M  V30 13712 O 1282.48 -5.31508 -1.27128 0
M  V30 13713 H 1279.57 -0.7953 -0.226776 0
M  V30 13714 H 1282.12 -1.67072 0.297511 0
M  V30 13715 H 1280.89 -3.89673 0.356474 0
M  V30 13716 H 1280.52 -3.73933 -1.3513 0
M  V30 13717 N 1281.51 0.0200419 -1.57587 0
M  V30 13718 C 1282.76 0.710078 -1.89962 0
M  V30 13719 C 1283.09 1.74521 -0.851829 0
M  V30 13720 O 1282.37 1.94052 0.132005 0
M  V30 13721 C 1282.65 1.37145 -3.32961 0
M  V30 13722 C 1282.5 0.349221 -4.48442 0
M  V30 13723 C 1283.82 2.30304 -3.75031 0
M  V30 13724 H 1280.94 0.25667 -0.690862 0
M  V30 13725 H 1283.58 -0.0271362 -1.89981 0
M  V30 13726 H 1281.73 1.99981 -3.33076 0
M  V30 13727 H 1283.4 -0.277916 -4.60462 0
M  V30 13728 H 1281.65 -0.330594 -4.32538 0
M  V30 13729 H 1282.32 0.850636 -5.45406 0
M  V30 13730 H 1284.79 1.77503 -3.7634 0
M  V30 13731 H 1283.67 2.73555 -4.75877 0
M  V30 13732 H 1283.93 3.17364 -3.07786 0
M  V30 13733 N 1282.99 1.54862 0.292472 0
M  V30 13734 C 1283.92 1.89406 1.36556 0
M  V30 13735 C 1284.9 0.753838 1.52484 0
M  V30 13736 O 1286.09 1.01031 1.6585 0
M  V30 13737 C 1283.22 2.14888 2.72838 0
M  V30 13738 C 1282.17 3.3073 2.71665 0
M  V30 13739 C 1281.5 3.41648 4.11316 0
M  V30 13740 C 1282.8 4.67622 2.32651 0
M  V30 13741 H 1284.49 2.79284 1.07894 0
M  V30 13742 H 1282.04 1.34377 0.517585 0
M  V30 13743 H 1283.99 2.3764 3.48002 0
M  V30 13744 H 1282.71 1.2179 3.03042 0
M  V30 13745 H 1281.37 3.07915 1.98958 0
M  V30 13746 H 1281.02 2.46051 4.38711 0
M  V30 13747 H 1280.72 4.19522 4.11431 0
M  V30 13748 H 1282.24 3.6667 4.88248 0
M  V30 13749 H 1283.66 4.90048 2.97533 0
M  V30 13750 H 1282.06 5.48272 2.43963 0
M  V30 13751 H 1283.13 4.67762 1.27777 0
M  V30 13752 N 1284.47 -0.556076 1.47464 0
M  V30 13753 C 1285.69 -1.3434 1.58011 0
M  V30 13754 C 1286.12 -1.86674 0.231138 0
M  V30 13755 O 1285.48 -1.63029 -0.793174 0
M  V30 13756 C 1285.52 -2.48844 2.60977 0
M  V30 13757 O 1284.63 -3.51108 2.16326 0
M  V30 13758 H 1283.97 -0.398986 0.53076 0
M  V30 13759 H 1286.5 -0.671898 1.93253 0
M  V30 13760 H 1286.51 -2.95398 2.81432 0
M  V30 13761 H 1285.18 -2.10109 3.58925 0
M  V30 13762 H 1283.76 -3.10852 2.05975 0
M  V30 13763 N 1285.95 -1.35615 -0.802897 0
M  V30 13764 C 1286.89 -1.28839 -1.91492 0
M  V30 13765 C 1287.86 -0.159621 -1.65331 0
M  V30 13766 O 1289.05 -0.343931 -1.87675 0
M  V30 13767 C 1286.19 -1.06999 -3.28093 0
M  V30 13768 C 1285.3 -2.28831 -3.66416 0
M  V30 13769 C 1284.44 -2.00111 -4.92066 0
M  V30 13770 C 1283.48 -3.17977 -5.23027 0
M  V30 13771 N 1282.61 -2.89009 -6.39858 0
M  V30 13772 H 1287.45 -2.2393 -1.96619 0
M  V30 13773 H 1284.99 -1.1131 -0.961687 0
M  V30 13774 H 1286.95 -0.923673 -4.06847 0
M  V30 13775 H 1285.58 -0.155684 -3.22424 0
M  V30 13776 H 1284.63 -2.54314 -2.82893 0
M  V30 13777 H 1285.94 -3.1683 -3.85253 0
M  V30 13778 H 1285.1 -1.82331 -5.78654 0
M  V30 13779 H 1283.84 -1.09402 -4.75271 0
M  V30 13780 H 1282.84 -3.3633 -4.34928 0
M  V30 13781 H 1284.07 -4.09493 -5.41749 0
M  V30 13782 H 1282.01 -2.00898 -6.24481 0
M  V30 13783 H 1281.93 -3.70544 -6.58964 0
M  V30 13784 H 1283.2 -2.74779 -7.29463 0
M  V30 13785 N 1287.43 1.02549 -1.19673 0
M  V30 13786 C 1288.67 1.76004 -1.00144 0
M  V30 13787 C 1289 1.888 0.467423 0
M  V30 13788 O 1288.26 1.404 1.36331 0
M  V30 13789 C 1288.55 3.18597 -1.61959 0
M  V30 13790 C 1288.22 3.258 -3.11713 0
M  V30 13791 C 1286.88 3.27473 -3.52583 0
M  V30 13792 C 1289.23 3.24675 -4.0772 0
M  V30 13793 C 1286.56 3.25681 -4.88005 0
M  V30 13794 C 1288.91 3.24424 -5.43076 0
M  V30 13795 C 1287.58 3.24396 -5.83372 0
M  V30 13796 H 1286.85 0.644044 -0.366453 0
M  V30 13797 H 1289.5 1.20338 -1.48966 0
M  V30 13798 H 1287.8 3.77364 -1.05375 0
M  V30 13799 H 1289.5 3.74109 -1.44374 0
M  V30 13800 H 1286.09 3.25228 -2.7915 0
M  V30 13801 H 1290.27 3.2256 -3.77185 0
M  V30 13802 H 1285.53 3.23986 -5.18501 0
M  V30 13803 H 1289.7 3.22504 -6.17223 0
M  V30 13804 H 1287.33 3.22762 -6.8828 0
M  V30 13805 N 1288.9 1.00119 1.21713 0
M  V30 13806 C 1290.18 0.597366 1.86255 0
M  V30 13807 C 1290.56 -0.925124 1.89749 0
M  V30 13808 O 1289.91 -1.8105 1.39402 0
M  V30 13809 C 1290.12 1.22735 3.26707 0
M  V30 13810 C 1291.47 1.33307 4.03131 0
M  V30 13811 O 1292.49 1.18237 3.36003 0
M  V30 13812 O 1291.35 1.57509 5.2331 0
M  V30 13813 H 1288.44 0.204091 0.801421 0
M  V30 13814 H 1290.99 1.09759 1.29426 0
M  V30 13815 H 1289.76 2.26837 3.18843 0
M  V30 13816 H 1289.38 0.713232 3.91151 0
M  V30 13817 N 1290.38 -1.37203 0.775435 0
M  V30 13818 C 1291.29 -2.34019 0.165062 0
M  V30 13819 C 1292.31 -1.6036 -0.675316 0
M  V30 13820 O 1293.48 -1.9243 -0.594375 0
M  V30 13821 C 1290.55 -3.3954 -0.700957 0
M  V30 13822 C 1289.61 -4.29015 0.156304 0
M  V30 13823 C 1288.84 -5.29497 -0.668476 0
M  V30 13824 O 1289.07 -5.37636 -1.90535 0
M  V30 13825 O 1288 -6.01852 -0.0757351 0
M  V30 13826 H 1291.83 -2.87955 0.965184 0
M  V30 13827 H 1289.41 -1.39429 0.536654 0
M  V30 13828 H 1291.29 -4.04094 -1.19524 0
M  V30 13829 H 1289.97 -2.87926 -1.4792 0
M  V30 13830 H 1288.87 -3.67549 0.69703 0
M  V30 13831 H 1290.21 -4.83944 0.897725 0
M  V30 13832 N 1291.86 -0.526279 -1.48553 0
M  V30 13833 C 1293.11 0.00107127 -2.034 0
M  V30 13834 C 1293.46 1.32343 -1.39654 0
M  V30 13835 O 1292.75 1.84071 -0.531835 0
M  V30 13836 C 1292.95 0.184075 -3.56926 0
M  V30 13837 C 1292.78 -1.11899 -4.35556 0
M  V30 13838 C 1291.55 -1.67784 -4.76631 0
M  V30 13839 C 1293.74 -2.02868 -4.72598 0
M  V30 13840 N 1291.73 -2.92418 -5.39783 0
M  V30 13841 C 1293.1 -3.12078 -5.35731 0
M  V30 13842 C 1295.15 -2.03239 -4.54531 0
M  V30 13843 C 1293.86 -4.21719 -5.82705 0
M  V30 13844 C 1295.88 -3.11872 -5.02484 0
M  V30 13845 C 1295.24 -4.19801 -5.65638 0
M  V30 13846 H 1291.34 -0.0410153 -0.780924 0
M  V30 13847 H 1293.93 -0.706739 -1.8142 0
M  V30 13848 H 1292.1 0.860966 -3.78737 0
M  V30 13849 H 1293.83 0.710699 -3.98411 0
M  V30 13850 H 1290.58 -1.2197 -4.57625 0
M  V30 13851 H 1291.01 -3.55862 -5.75927 0
M  V30 13852 H 1295.65 -1.21092 -4.05088 0
M  V30 13853 H 1293.37 -5.04647 -6.31155 0
M  V30 13854 H 1296.95 -3.1321 -4.90297 0
M  V30 13855 H 1295.83 -5.02475 -6.0207 0
M  V30 13856 N 1293.34 1.5542 -0.261239 0
M  V30 13857 C 1294.57 2.03687 0.363225 0
M  V30 13858 C 1294.98 1.14007 1.50492 0
M  V30 13859 O 1294.34 0.157349 1.8182 0
M  V30 13860 C 1294.39 3.51184 0.857435 0
M  V30 13861 O 1294.11 4.37449 -0.238776 0
M  V30 13862 C 1295.61 4.15277 1.55113 0
M  V30 13863 H 1292.83 0.665641 0.0846356 0
M  V30 13864 H 1295.37 2.00761 -0.389288 0
M  V30 13865 H 1293.53 3.54599 1.56008 0
M  V30 13866 H 1293.94 5.24316 0.138821 0
M  V30 13867 H 1295.42 5.20129 1.8485 0
M  V30 13868 H 1295.89 3.62619 2.47799 0
M  V30 13869 H 1296.5 4.15826 0.892695 0
M  V30 13870 N 1294.82 -0.0116844 1.57596 0
M  V30 13871 C 1296.06 -0.698958 1.90055 0
M  V30 13872 C 1296.39 -1.74422 0.860659 0
M  V30 13873 O 1295.65 -1.95226 -0.136132 0
M  V30 13874 C 1295.94 -1.38985 3.29269 0
M  V30 13875 C 1295.61 -0.478916 4.48349 0
M  V30 13876 C 1294.27 -0.228071 4.80659 0
M  V30 13877 C 1296.62 0.14897 5.20987 0
M  V30 13878 C 1293.95 0.659147 5.82986 0
M  V30 13879 C 1296.3 1.02399 6.24257 0
M  V30 13880 C 1294.97 1.28413 6.55032 0
M  V30 13881 H 1294.24 -0.255767 0.69546 0
M  V30 13882 H 1296.89 0.0413339 1.91455 0
M  V30 13883 H 1295.19 -2.2039 3.23937 0
M  V30 13884 H 1296.89 -1.92747 3.51638 0
M  V30 13885 H 1293.48 -0.68459 4.23097 0
M  V30 13886 H 1297.66 -0.0318326 4.9629 0
M  V30 13887 H 1292.92 0.86882 6.05195 0
M  V30 13888 H 1297.09 1.51694 6.79678 0
M  V30 13889 H 1294.72 1.97332 7.34142 0
M  V30 13890 N 1296.29 -1.55015 -0.284256 0
M  V30 13891 C 1297.54 -1.74297 -1.01506 0
M  V30 13892 C 1297.86 -0.545134 -1.8785 0
M  V30 13893 O 1299.06 -0.620118 -2.64323 0
M  V30 13894 C 1297.52 -3.08438 -1.85456 0
M  V30 13895 C 1297.13 -4.35753 -1.04034 0
M  V30 13896 C 1298.87 -3.37073 -2.58035 0
M  V30 13897 C 1296.78 -5.60938 -1.87358 0
M  V30 13898 H 1295.71 -0.649656 -0.382705 0
M  V30 13899 H 1298.36 -1.81484 -0.271239 0
M  V30 13900 H 1296.74 -2.95259 -2.63891 0
M  V30 13901 H 1297.91 -4.59816 -0.300954 0
M  V30 13902 H 1296.23 -4.14178 -0.429616 0
M  V30 13903 H 1298.83 -4.27806 -3.20759 0
M  V30 13904 H 1299.17 -2.56698 -3.27738 0
M  V30 13905 H 1299.7 -3.51299 -1.86638 0
M  V30 13906 H 1296.44 -6.44029 -1.22096 0
M  V30 13907 H 1295.96 -5.41035 -2.58923 0
M  V30 13908 H 1297.64 -5.98819 -2.44999 0
M  V30 13909 N 1297.77 0.548248 -1.47757 0
M  V30 13910 C 1299.18 1.13033 -1.48595 0
M  V30 13911 C 1299.53 1.94657 -0.245575 0
M  V30 13912 O 1298.66 2.06445 0.648813 0
M  V30 13913 C 1299.25 2.05657 -2.69241 0
M  V30 13914 C 1297.81 2.59119 -2.73009 0
M  V30 13915 C 1296.96 1.35686 -2.41836 0
M  V30 13916 H 1299.91 0.334397 -1.55137 0
M  V30 13917 H 1299.93 2.89671 -2.4672 0
M  V30 13918 H 1299.44 1.46222 -3.595 0
M  V30 13919 H 1297.54 3.22327 -1.86912 0
M  V30 13920 H 1297.66 2.99501 -3.73946 0
M  V30 13921 H 1296.02 1.66659 -1.92606 0
M  V30 13922 H 1296.8 0.780311 -3.34314 0
M  V30 13923 N 1299.25 1.36039 0.795694 0
M  V30 13924 C 1300.53 1.20474 1.54096 0
M  V30 13925 C 1300.91 -0.211691 2.10036 0
M  V30 13926 O 1300.25 -1.21656 1.93422 0
M  V30 13927 C 1300.46 2.28164 2.64087 0
M  V30 13928 C 1301.81 2.64519 3.32137 0
M  V30 13929 O 1302.84 2.2716 2.74366 0
M  V30 13930 O 1301.7 3.28796 4.36527 0
M  V30 13931 H 1298.79 0.468699 0.681359 0
M  V30 13932 H 1301.34 1.47752 0.834716 0
M  V30 13933 H 1300.11 3.23121 2.20701 0
M  V30 13934 H 1299.73 2.02217 3.42336 0
M  V30 13935 N 1300.73 -1.01913 1.20215 0
M  V30 13936 C 1301.95 -1.79613 1.03702 0
M  V30 13937 C 1302.38 -1.83591 -0.409374 0
M  V30 13938 O 1301.74 -1.26911 -1.29473 0
M  V30 13939 C 1301.78 -3.22052 1.62219 0
M  V30 13940 O 1300.89 -4.03374 0.858106 0
M  V30 13941 H 1300.23 -0.554095 0.365889 0
M  V30 13942 H 1302.76 -1.28203 1.59452 0
M  V30 13943 H 1302.77 -3.72772 1.65847 0
M  V30 13944 H 1301.44 -3.18471 2.67487 0
M  V30 13945 H 1300.02 -3.6198 0.895835 0
M  V30 13946 N 1302.21 -1.00763 -1.2118 0
M  V30 13947 C 1303.43 -0.710515 -1.9485 0
M  V30 13948 C 1303.86 0.720934 -1.73736 0
M  V30 13949 O 1303.21 1.49484 -1.02588 0
M  V30 13950 C 1303.26 -1.04035 -3.45267 0
M  V30 13951 O 1302.37 -0.147047 -4.12138 0
M  V30 13952 H 1301.71 -0.264472 -0.609057 0
M  V30 13953 H 1304.24 -1.34858 -1.53865 0
M  V30 13954 H 1304.25 -0.9883 -3.95849 0
M  V30 13955 H 1302.92 -2.08334 -3.59958 0
M  V30 13956 H 1301.5 -0.255847 -3.72021 0
M  V30 13957 N 1303.68 1.3679 -0.7827 0
M  V30 13958 C 1304.62 2.27871 -0.122531 0
M  V30 13959 C 1305.6 1.46885 0.697399 0
M  V30 13960 O 1306.78 1.76198 0.669819 0
M  V30 13961 C 1303.91 3.28314 0.832311 0
M  V30 13962 C 1302.95 4.26394 0.0950152 0
M  V30 13963 S 1303.79 5.2131 -1.22457 0
M  V30 13964 C 1304.94 6.25302 -0.273558 0
M  V30 13965 H 1305.17 2.83514 -0.894814 0
M  V30 13966 H 1302.71 1.43229 -0.5766 0
M  V30 13967 H 1304.67 3.86688 1.37778 0
M  V30 13968 H 1303.33 2.71597 1.57779 0
M  V30 13969 H 1302.52 4.97297 0.819278 0
M  V30 13970 H 1302.12 3.72067 -0.379778 0
M  V30 13971 H 1304.41 6.75263 0.550064 0
M  V30 13972 H 1305.36 7.01684 -0.951071 0
M  V30 13973 H 1305.76 5.64372 0.120115 0
M  V30 13974 N 1305.16 0.53415 1.48272 0
M  V30 13975 C 1306.44 -0.0630181 1.95498 0
M  V30 13976 C 1306.82 -1.50877 1.47646 0
M  V30 13977 O 1306.17 -2.17358 0.704829 0
M  V30 13978 C 1306.38 0.0585475 3.48951 0
M  V30 13979 C 1307.73 -0.0985978 4.24486 0
M  V30 13980 O 1308.75 -0.0150438 3.56197 0
M  V30 13981 O 1307.61 -0.274356 5.45811 0
M  V30 13982 H 1304.7 -0.0769841 0.823409 0
M  V30 13983 H 1307.25 0.599043 1.58775 0
M  V30 13984 H 1306.02 1.06549 3.76514 0
M  V30 13985 H 1305.64 -0.642175 3.9238 0
M  V30 13986 N 1306.64 -1.55279 0.269478 0
M  V30 13987 C 1307.87 -2.04334 -0.355313 0
M  V30 13988 C 1308.29 -1.14677 -1.491 0
M  V30 13989 O 1307.65 -0.144215 -1.80726 0
M  V30 13990 C 1307.7 -3.51172 -0.819162 0
M  V30 13991 O 1306.8 -3.64615 -1.9269 0
M  V30 13992 H 1306.14 -0.659827 -0.0743229 0
M  V30 13993 H 1308.67 -2.00609 0.402131 0
M  V30 13994 H 1308.68 -3.92428 -1.11642 0
M  V30 13995 H 1307.36 -4.15898 0.0117821 0
M  V30 13996 H 1305.93 -3.35261 -1.63261 0
M  V30 13997 N 1308.12 0.00332656 -1.576 0
M  V30 13998 C 1309.36 0.68989 -1.90705 0
M  V30 13999 C 1309.7 1.73608 -0.870291 0
M  V30 14000 O 1308.97 1.94181 0.111416 0
M  V30 14001 C 1309.26 1.33605 -3.34397 0
M  V30 14002 C 1309.11 0.301638 -4.48787 0
M  V30 14003 C 1310.43 2.26313 -3.77453 0
M  V30 14004 H 1307.55 0.249328 -0.693545 0
M  V30 14005 H 1310.19 -0.0472847 -1.89941 0
M  V30 14006 H 1308.34 1.96437 -3.35179 0
M  V30 14007 H 1310.01 -0.326738 -4.60141 0
M  V30 14008 H 1308.25 -0.376451 -4.32163 0
M  V30 14009 H 1308.92 0.792741 -5.46278 0
M  V30 14010 H 1311.4 1.73502 -3.78201 0
M  V30 14011 H 1310.28 2.68492 -4.78752 0
M  V30 14012 H 1310.54 3.14082 -3.11135 0
M  V30 14013 N 1309.6 1.55164 0.276031 0
M  V30 14014 C 1310.84 1.75627 1.00803 0
M  V30 14015 C 1311.17 0.555696 1.86393 0
M  V30 14016 O 1310.43 -0.461872 1.90172 0
M  V30 14017 C 1310.73 3.0127 1.92279 0
M  V30 14018 C 1310.39 4.33951 1.22464 0
M  V30 14019 C 1309.05 4.70013 1.03158 0
M  V30 14020 C 1311.41 5.16097 0.72758 0
M  V30 14021 C 1308.73 5.85779 0.328699 0
M  V30 14022 C 1311.09 6.32588 0.0383001 0
M  V30 14023 C 1309.75 6.67292 -0.166494 0
M  V30 14024 H 1309.02 0.642665 0.368866 0
M  V30 14025 H 1311.67 1.89433 0.280595 0
M  V30 14026 H 1309.97 2.82351 2.71634 0
M  V30 14027 H 1311.67 3.14299 2.49032 0
M  V30 14028 H 1308.26 4.05605 1.38501 0
M  V30 14029 H 1312.44 4.88715 0.864365 0
M  V30 14030 H 1307.7 6.11192 0.159279 0
M  V30 14031 H 1311.87 6.95496 -0.354631 0
M  V30 14032 H 1309.5 7.56848 -0.713124 0
M  V30 14033 N 1311.07 -0.540404 1.48045 0
M  V30 14034 C 1312.04 -1.62813 1.61322 0
M  V30 14035 C 1313.04 -1.53243 0.487161 0
M  V30 14036 O 1314.23 -1.571 0.752684 0
M  V30 14037 C 1311.36 -3.02408 1.5736 0
M  V30 14038 H 1312.55 -1.52385 2.583 0
M  V30 14039 H 1310.11 -0.761654 1.36486 0
M  V30 14040 H 1310.84 -3.18353 0.618195 0
M  V30 14041 H 1310.63 -3.10763 2.39099 0
M  V30 14042 H 1312.12 -3.8151 1.69822 0
M  V30 14043 N 1312.55 -1.36459 -0.788468 0
M  V30 14044 C 1313.48 -1.26727 -1.90979 0
M  V30 14045 C 1314.5 -0.186572 -1.61727 0
M  V30 14046 O 1315.69 -0.441364 -1.72957 0
M  V30 14047 C 1312.79 -0.932838 -3.25809 0
M  V30 14048 C 1311.96 -2.11562 -3.82832 0
M  V30 14049 C 1311.02 -1.75409 -4.96103 0
M  V30 14050 O 1310.04 -2.47508 -5.1257 0
M  V30 14051 N 1311.25 -0.688327 -5.76405 0
M  V30 14052 H 1314.01 -2.2334 -1.99848 0
M  V30 14053 H 1311.57 -1.29865 -0.966784 0
M  V30 14054 H 1313.56 -0.672131 -3.9908 0
M  V30 14055 H 1312.13 -0.0558103 -3.1255 0
M  V30 14056 H 1311.35 -2.53907 -3.01538 0
M  V30 14057 H 1312.64 -2.9058 -4.17661 0
M  V30 14058 H 1312.04 -0.0896854 -5.65629 0
M  V30 14059 H 1310.6 -0.487446 -6.49975 0
M  V30 14060 N 1314.03 1.01274 -1.20754 0
M  V30 14061 C 1315.26 1.7906 -1.04653 0
M  V30 14062 C 1315.68 1.83806 0.399632 0
M  V30 14063 O 1315.04 1.27596 1.28798 0
M  V30 14064 C 1315.09 3.21187 -1.63925 0
M  V30 14065 O 1314.19 4.02913 -0.879486 0
M  V30 14066 H 1313.53 0.552147 -0.368823 0
M  V30 14067 H 1316.06 1.27356 -1.6013 0
M  V30 14068 H 1316.07 3.71887 -1.67822 0
M  V30 14069 H 1314.75 3.17048 -2.69172 0
M  V30 14070 H 1313.32 3.61499 -0.915019 0
M  V30 14071 N 1315.51 1.01404 1.20644 0
M  V30 14072 C 1316.79 0.617088 1.85611 0
M  V30 14073 C 1317.17 -0.904947 1.9072 0
M  V30 14074 O 1316.51 -1.79562 1.41315 0
M  V30 14075 C 1316.72 1.26193 3.25386 0
M  V30 14076 C 1318.07 1.37575 4.01694 0
M  V30 14077 O 1319.1 1.21795 3.34731 0
M  V30 14078 O 1317.96 1.6305 5.2161 0
M  V30 14079 H 1315.05 0.212579 0.799211 0
M  V30 14080 H 1317.6 1.11126 1.28254 0
M  V30 14081 H 1316.37 2.30206 3.16419 0
M  V30 14082 H 1315.99 0.754679 3.90372 0
M  V30 14083 N 1316.99 -1.36373 0.789944 0
M  V30 14084 C 1318.26 -1.9349 0.286543 0
M  V30 14085 C 1318.64 -1.7218 -1.22136 0
M  V30 14086 O 1317.99 -1.08106 -2.01309 0
M  V30 14087 C 1318.2 -3.42316 0.679749 0
M  V30 14088 C 1319.55 -4.19442 0.659791 0
M  V30 14089 O 1320.57 -3.50758 0.620256 0
M  V30 14090 O 1319.43 -5.41957 0.703159 0
M  V30 14091 H 1316.53 -0.823942 0.0710537 0
M  V30 14092 H 1319.07 -1.45551 0.872523 0
M  V30 14093 H 1317.85 -3.51485 1.7197 0
M  V30 14094 H 1317.47 -3.97542 0.0676823 0
M  V30 14095 N 1318.47 -0.542005 -1.47987 0
M  V30 14096 C 1319.4 0.202703 -2.32618 0
M  V30 14097 C 1320.38 0.923521 -1.42846 0
M  V30 14098 O 1321.56 0.906957 -1.7172 0
M  V30 14099 C 1318.69 1.24267 -3.24307 0
M  V30 14100 C 1317.65 0.639257 -4.23199 0
M  V30 14101 C 1316.97 1.78275 -5.04105 0
M  V30 14102 C 1318.27 -0.396982 -5.20789 0
M  V30 14103 H 1319.97 -0.503817 -2.95131 0
M  V30 14104 H 1317.51 -0.243736 -1.41922 0
M  V30 14105 H 1319.46 1.7717 -3.82347 0
M  V30 14106 H 1318.19 1.97893 -2.59819 0
M  V30 14107 H 1316.85 0.131655 -3.66364 0
M  V30 14108 H 1316.5 2.50768 -4.36032 0
M  V30 14109 H 1316.2 1.38487 -5.71047 0
M  V30 14110 H 1317.72 2.31533 -5.65 0
M  V30 14111 H 1319.13 0.0454057 -5.73282 0
M  V30 14112 H 1317.53 -0.712911 -5.9585 0
M  V30 14113 H 1318.6 -1.29843 -4.67193 0
M  V30 14114 N 1319.94 1.55134 -0.277709 0
M  V30 14115 C 1321.22 1.91667 0.390253 0
M  V30 14116 C 1321.6 1.20228 1.73518 0
M  V30 14117 O 1320.95 0.330013 2.26104 0
M  V30 14118 C 1321.16 3.44983 0.52797 0
M  V30 14119 C 1322.51 4.16809 0.809665 0
M  V30 14120 O 1323.53 3.50891 0.612679 0
M  V30 14121 O 1322.39 5.33463 1.18656 0
M  V30 14122 H 1319.48 0.798807 0.214095 0
M  V30 14123 H 1322.03 1.66577 -0.324053 0
M  V30 14124 H 1320.8 3.89056 -0.418422 0
M  V30 14125 H 1320.42 3.76035 1.29164 0
M  V30 14126 N 1321.42 0.00503138 1.57599 0
M  V30 14127 C 1322.65 -0.693231 1.95471 0
M  V30 14128 C 1323.07 -1.66233 0.880246 0
M  V30 14129 O 1322.43 -1.80582 -0.161164 0
M  V30 14130 C 1322.48 -1.39696 3.32442 0
M  V30 14131 O 1321.58 -2.51154 3.27101 0
M  V30 14132 H 1320.92 -0.184015 0.637992 0
M  V30 14133 H 1323.45 0.0597194 2.04513 0
M  V30 14134 H 1323.46 -1.75924 3.68123 0
M  V30 14135 H 1322.14 -0.686438 4.10196 0
M  V30 14136 H 1320.71 -2.17216 3.03103 0
M  V30 14137 N 1322.9 -1.55308 -0.267798 0
M  V30 14138 C 1323.81 -1.91649 -1.35307 0
M  V30 14139 C 1324.83 -0.814349 -1.53767 0
M  V30 14140 O 1326 -1.11388 -1.67793 0
M  V30 14141 C 1323.07 -2.18553 -2.69138 0
M  V30 14142 C 1322.13 -3.42083 -2.5938 0
M  V30 14143 C 1321.36 -3.67695 -3.86828 0
M  V30 14144 O 1321.58 -2.95728 -4.87751 0
M  V30 14145 O 1320.52 -4.61229 -3.86718 0
M  V30 14146 H 1324.34 -2.84044 -1.07483 0
M  V30 14147 H 1321.93 -1.41921 -0.466772 0
M  V30 14148 H 1323.81 -2.3726 -3.48261 0
M  V30 14149 H 1322.49 -1.2934 -2.96737 0
M  V30 14150 H 1321.39 -3.28706 -1.78614 0
M  V30 14151 H 1322.73 -4.31532 -2.36729 0
M  V30 14152 N 1324.38 0.532545 -1.4833 0
M  V30 14153 C 1325.63 1.28597 -1.55908 0
M  V30 14154 C 1325.95 1.93595 -0.233635 0
M  V30 14155 O 1325.22 1.81197 0.744605 0
M  V30 14156 H 1323.8 0.477619 -0.57436 0
M  V30 14157 H 1326.46 0.619922 -1.84778 0
M  V30 14158 H 1325.55 2.0666 -2.33877 0
M  V30 14159 N 1325.86 1.36875 0.78122 0
M  V30 14160 C 1327.08 1.349 1.57533 0
M  V30 14161 C 1327.51 -0.0655249 1.87986 0
M  V30 14162 O 1326.86 -1.03986 1.48515 0
M  V30 14163 C 1326.91 2.18562 2.86815 0
M  V30 14164 O 1326.02 1.58374 3.80777 0
M  V30 14165 H 1325.36 0.461355 0.477543 0
M  V30 14166 H 1327.89 1.80271 0.96766 0
M  V30 14167 H 1327.9 2.31436 3.36008 0
M  V30 14168 H 1326.57 3.21385 2.63978 0
M  V30 14169 H 1325.15 1.54487 3.39394 0
M  V30 14170 N 1327.33 -1.00632 1.21289 0
M  V30 14171 C 1328.24 -2.12829 0.986957 0
M  V30 14172 C 1329.26 -1.73895 -0.0605152 0
M  V30 14173 O 1330.44 -2.00985 0.129238 0
M  V30 14174 C 1327.5 -3.4226 0.553089 0
M  V30 14175 C 1326.56 -3.95376 1.67262 0
M  V30 14176 C 1325.79 -5.18629 1.25936 0
M  V30 14177 O 1326.02 -5.70246 0.132402 0
M  V30 14178 O 1324.95 -5.65157 2.07077 0
M  V30 14179 H 1328.78 -2.34765 1.92663 0
M  V30 14180 H 1326.36 -1.11208 0.997654 0
M  V30 14181 H 1328.24 -4.20177 0.320856 0
M  V30 14182 H 1326.92 -3.21716 -0.357881 0
M  V30 14183 H 1325.83 -3.18692 1.95924 0
M  V30 14184 H 1327.16 -4.20328 2.56097 0
M  V30 14185 N 1328.81 -1.02043 -1.20104 0
M  V30 14186 C 1330.06 -0.710566 -1.89197 0
M  V30 14187 C 1330.38 0.762471 -1.79475 0
M  V30 14188 O 1329.65 1.54871 -1.19965 0
M  V30 14189 H 1328.23 -0.259839 -0.700352 0
M  V30 14190 H 1330.89 -1.29285 -1.45848 0
M  V30 14191 H 1329.99 -0.997363 -2.95735 0
M  V30 14192 N 1330.29 1.35952 -0.797165 0
M  V30 14193 C 1331.52 2.0381 -0.38421 0
M  V30 14194 C 1331.94 1.597 0.993854 0
M  V30 14195 O 1331.3 0.769148 1.64176 0
M  V30 14196 C 1331.35 3.57589 -0.465054 0
M  V30 14197 O 1330.45 4.09043 0.525095 0
M  V30 14198 H 1329.79 0.643957 -0.161912 0
M  V30 14199 H 1332.32 1.73746 -1.08043 0
M  V30 14200 H 1332.33 4.06651 -0.331448 0
M  V30 14201 H 1331.01 3.89045 -1.47027 0
M  V30 14202 H 1329.58 3.7123 0.352509 0
M  V30 14203 N 1331.77 0.549846 1.47697 0
M  V30 14204 C 1333.02 0.0230503 2.02487 0
M  V30 14205 C 1333.34 -1.32382 1.42497 0
M  V30 14206 O 1332.6 -1.87293 0.567441 0
M  V30 14207 C 1332.9 -0.127268 3.57173 0
M  V30 14208 C 1332.56 1.14777 4.36047 0
M  V30 14209 C 1331.23 1.49716 4.57317 0
M  V30 14210 C 1333.58 1.99302 4.81589 0
M  V30 14211 C 1330.91 2.69042 5.21376 0
M  V30 14212 C 1333.26 3.17824 5.46965 0
M  V30 14213 C 1331.92 3.53086 5.66469 0
M  V30 14214 H 1331.19 0.00843471 0.740952 0
M  V30 14215 H 1333.84 0.719876 1.77454 0
M  V30 14216 H 1332.14 -0.907008 3.81157 0
M  V30 14217 H 1333.84 -0.550103 3.97209 0
M  V30 14218 H 1330.43 0.865703 4.19766 0
M  V30 14219 H 1334.61 1.73618 4.64942 0
M  V30 14220 H 1329.87 2.9654 5.34672 0
M  V30 14221 H 1334.04 3.83612 5.81218 0
M  V30 14222 H 1331.67 4.45643 6.15878 0
M  V30 14223 N 1333.25 -1.54984 0.285932 0
M  V30 14224 C 1334.18 -2.25916 -0.590259 0
M  V30 14225 C 1335.16 -1.25319 -1.15018 0
M  V30 14226 O 1336.34 -1.54062 -1.18231 0
M  V30 14227 C 1333.47 -2.98849 -1.76936 0
M  V30 14228 C 1332.43 -4.06466 -1.3405 0
M  V30 14229 C 1331.75 -4.67032 -2.60356 0
M  V30 14230 C 1333.05 -5.20064 -0.482754 0
M  V30 14231 H 1334.75 -2.994 0.00131571 0
M  V30 14232 H 1332.29 -1.44 0.00207281 0
M  V30 14233 H 1334.25 -3.47186 -2.3883 0
M  V30 14234 H 1332.97 -2.22918 -2.38694 0
M  V30 14235 H 1331.63 -3.58957 -0.7447 0
M  V30 14236 H 1331.28 -3.87757 -3.20396 0
M  V30 14237 H 1330.98 -5.39703 -2.32368 0
M  V30 14238 H 1332.5 -5.18124 -3.23079 0
M  V30 14239 H 1333.91 -5.64387 -1.00697 0
M  V30 14240 H 1332.31 -5.99363 -0.297291 0
M  V30 14241 H 1333.38 -4.82358 0.495861 0
M  V30 14242 N 1334.72 -0.0133892 -1.57594 0
M  V30 14243 C 1335.97 0.669624 -1.91426 0
M  V30 14244 C 1336.3 1.72675 -0.888656 0
M  V30 14245 O 1335.58 1.94288 0.0908138 0
M  V30 14246 C 1335.86 1.30051 -3.35796 0
M  V30 14247 C 1335.71 0.254021 -4.49082 0
M  V30 14248 C 1337.03 2.22297 -3.79832 0
M  V30 14249 H 1334.15 0.241958 -0.69615 0
M  V30 14250 H 1336.79 -0.0674278 -1.8988 0
M  V30 14251 H 1334.94 1.92871 -3.37243 0
M  V30 14252 H 1336.62 -0.375524 -4.59769 0
M  V30 14253 H 1334.86 -0.422267 -4.3174 0
M  V30 14254 H 1335.53 0.734756 -5.47088 0
M  V30 14255 H 1338.01 1.69481 -3.8002 0
M  V30 14256 H 1336.88 2.634 -4.81572 0
M  V30 14257 H 1337.14 3.10764 -3.14449 0
M  V30 14258 N 1336.2 1.55448 0.259558 0
M  V30 14259 C 1337.15 1.89248 1.32113 0
M  V30 14260 C 1338.12 0.745348 1.48438 0
M  V30 14261 O 1339.3 0.997854 1.62627 0
M  V30 14262 C 1336.44 2.18161 2.67394 0
M  V30 14263 C 1335.56 3.45614 2.59182 0
M  V30 14264 C 1334.69 3.6416 3.86731 0
M  V30 14265 C 1333.73 4.85258 3.73084 0
M  V30 14266 N 1332.87 5.00391 4.92497 0
M  V30 14267 H 1337.71 2.79785 1.02589 0
M  V30 14268 H 1335.25 1.38509 0.495338 0
M  V30 14269 H 1337.2 2.32927 3.46122 0
M  V30 14270 H 1335.83 1.30843 2.95093 0
M  V30 14271 H 1334.89 3.39248 1.72091 0
M  V30 14272 H 1336.2 4.34483 2.45002 0
M  V30 14273 H 1335.35 3.78817 4.73902 0
M  V30 14274 H 1334.09 2.73501 4.03793 0
M  V30 14275 H 1333.1 4.70591 2.84296 0
M  V30 14276 H 1334.32 5.77365 3.57528 0
M  V30 14277 H 1332.27 4.12666 5.09944 0
M  V30 14278 H 1332.18 5.83328 4.809 0
M  V30 14279 H 1333.45 5.19446 5.81202 0
M  V30 14280 N 1337.68 -0.524672 1.4861 0
M  V30 14281 C 1338.63 -1.62872 1.63527 0
M  V30 14282 C 1339.6 -1.59097 0.477202 0
M  V30 14283 O 1340.78 -1.77443 0.701341 0
M  V30 14284 C 1337.92 -3.01116 1.68592 0
M  V30 14285 C 1337.04 -3.15085 2.95542 0
M  V30 14286 C 1336.17 -4.4392 2.91734 0
M  V30 14287 C 1335.21 -4.51436 4.13366 0
M  V30 14288 N 1334.35 -5.71667 4.07605 0
M  V30 14289 H 1339.19 -1.49462 2.57808 0
M  V30 14290 H 1336.72 -0.727578 1.27846 0
M  V30 14291 H 1338.68 -3.81212 1.6951 0
M  V30 14292 H 1337.31 -3.13285 0.777975 0
M  V30 14293 H 1336.36 -2.28207 3.04345 0
M  V30 14294 H 1337.68 -3.165 3.85524 0
M  V30 14295 H 1336.83 -5.32312 2.91083 0
M  V30 14296 H 1335.57 -4.45034 1.9949 0
M  V30 14297 H 1334.57 -3.6145 4.14287 0
M  V30 14298 H 1335.8 -4.52057 5.06776 0
M  V30 14299 H 1333.74 -5.73668 3.18184 0
M  V30 14300 H 1333.66 -5.74599 4.91297 0
M  V30 14301 H 1334.93 -6.62331 4.1102 0
M  V30 14302 N 1339.16 -1.37287 -0.77395 0
M  V30 14303 C 1340.11 -1.32872 -1.88716 0
M  V30 14304 C 1341.08 -0.194655 -1.64955 0
M  V30 14305 O 1342.26 -0.383662 -1.86903 0
M  V30 14306 C 1339.4 -1.13934 -3.2575 0
M  V30 14307 C 1338.51 -2.36552 -3.61479 0
M  V30 14308 C 1337.65 -2.10504 -4.87711 0
M  V30 14309 C 1336.69 -3.28999 -5.16165 0
M  V30 14310 N 1335.82 -3.02517 -6.33584 0
M  V30 14311 H 1340.66 -2.28051 -1.91825 0
M  V30 14312 H 1338.2 -1.13325 -0.93786 0
M  V30 14313 H 1340.16 -1.00976 -4.04796 0
M  V30 14314 H 1338.79 -0.22404 -3.22022 0
M  V30 14315 H 1337.84 -2.60257 -2.77435 0
M  V30 14316 H 1339.15 -3.24931 -3.78446 0
M  V30 14317 H 1338.31 -1.94564 -5.74656 0
M  V30 14318 H 1337.05 -1.19459 -4.72843 0
M  V30 14319 H 1336.05 -3.4548 -4.27696 0
M  V30 14320 H 1337.28 -4.20892 -5.32942 0
M  V30 14321 H 1335.22 -2.14099 -6.20079 0
M  V30 14322 H 1335.14 -3.84439 -6.50955 0
M  V30 14323 H 1336.41 -2.9019 -7.23471 0
M  V30 14324 N 1340.64 0.999871 -1.21821 0
M  V30 14325 C 1341.86 1.7794 -1.06546 0
M  V30 14326 C 1342.29 1.84219 0.380115 0
M  V30 14327 O 1341.64 1.28955 1.27438 0
M  V30 14328 C 1341.69 3.1943 -1.67322 0
M  V30 14329 O 1340.8 4.01957 -0.922171 0
M  V30 14330 H 1340.14 0.548204 -0.374658 0
M  V30 14331 H 1342.67 1.2565 -1.61472 0
M  V30 14332 H 1342.68 3.70086 -1.71757 0
M  V30 14333 H 1341.35 3.14175 -2.7252 0
M  V30 14334 H 1339.93 3.60509 -0.95331 0
M  V30 14335 N 1342.11 1.02678 1.19562 0
M  V30 14336 C 1343.06 0.599259 2.24748 0
M  V30 14337 C 1344.06 -0.367079 1.65375 0
M  V30 14338 O 1345.26 -0.235887 1.78448 0
M  V30 14339 H 1341.64 0.175517 0.73123 0
M  V30 14340 H 1343.61 1.4971 2.58127 0
M  V30 14341 C 1342.36 -0.0362515 3.47681 0
M  V30 14342 H 1341.68 0.698343 3.93654 0
M  V30 14343 H 1343.12 -0.298361 4.22949 0
M  V30 14344 C 1341.58 -1.28218 3.11547 0
M  V30 14345 O 1342.11 -2.37446 3.24009 0
M  V30 14346 N 1340.32 -1.17014 2.66 0
M  V30 14347 H 1339.86 -0.28132 2.56059 0
M  V30 14348 H 1339.82 -2.00473 2.42194 0
M  V30 14349 N 1343.59 -1.35528 0.804364 0
M  V30 14350 C 1344.82 -2.03604 0.395013 0
M  V30 14351 C 1345.24 -1.60225 -0.985371 0
M  V30 14352 O 1344.6 -0.777844 -1.63766 0
M  V30 14353 C 1344.65 -3.57337 0.484011 0
M  V30 14354 O 1343.75 -4.09316 -0.503395 0
M  V30 14355 H 1343.09 -0.643089 0.165325 0
M  V30 14356 H 1345.62 -1.73171 1.08963 0
M  V30 14357 H 1345.63 -4.0647 0.353009 0
M  V30 14358 H 1344.31 -3.8826 1.49088 0
M  V30 14359 H 1342.89 -3.71412 -0.332817 0
M  V30 14360 N 1345.07 -0.557671 -1.47404 0
M  V30 14361 C 1346.32 -0.0316382 -2.01675 0
M  V30 14362 C 1346.63 1.32656 -1.43742 0
M  V30 14363 O 1347.84 1.94253 -1.89678 0
M  V30 14364 C 1346.3 -0.00606931 -3.59899 0
M  V30 14365 C 1345.9 -1.36106 -4.26825 0
M  V30 14366 C 1347.65 0.467332 -4.2192 0
M  V30 14367 C 1345.55 -1.29457 -5.77057 0
M  V30 14368 H 1344.48 -0.00805738 -0.753957 0
M  V30 14369 H 1347.14 -0.705592 -1.69392 0
M  V30 14370 H 1345.52 0.733541 -3.89147 0
M  V30 14371 H 1346.69 -2.11842 -4.09218 0
M  V30 14372 H 1345.01 -1.77243 -3.76794 0
M  V30 14373 H 1347.6 0.535478 -5.32012 0
M  V30 14374 H 1347.95 1.47942 -3.89126 0
M  V30 14375 H 1348.48 -0.217434 -3.97205 0
M  V30 14376 H 1345.22 -2.28267 -6.14471 0
M  V30 14377 H 1344.74 -0.579022 -5.96999 0
M  V30 14378 H 1346.42 -0.996834 -6.39275 0
M  V30 14379 N 1346.55 1.54831 -0.294147 0
M  V30 14380 C 1347.77 2.04873 0.32276 0
M  V30 14381 C 1348.2 1.17034 1.47257 0
M  V30 14382 O 1347.56 0.172949 1.80473 0
M  V30 14383 C 1347.61 3.52431 0.76319 0
M  V30 14384 O 1346.71 3.67635 1.86865 0
M  V30 14385 H 1346.05 0.660926 0.0638162 0
M  V30 14386 H 1348.58 1.99944 -0.433995 0
M  V30 14387 H 1348.59 3.94155 1.05385 0
M  V30 14388 H 1347.27 4.15827 -0.0779464 0
M  V30 14389 H 1345.84 3.37816 1.57907 0
M  V30 14390 N 1348.03 0.0217466 1.57585 0
M  V30 14391 C 1349.27 -0.659463 1.91778 0
M  V30 14392 C 1349.61 -1.72201 0.897801 0
M  V30 14393 O 1348.88 -1.94333 -0.080509 0
M  V30 14394 C 1349.16 -1.28269 3.36481 0
M  V30 14395 C 1349.02 -0.230201 4.49211 0
M  V30 14396 C 1350.34 -2.20279 3.81005 0
M  V30 14397 H 1347.46 -0.238263 0.697424 0
M  V30 14398 H 1350.1 0.0774967 1.89842 0
M  V30 14399 H 1348.25 -1.9108 3.38262 0
M  V30 14400 H 1349.92 0.399901 4.59563 0
M  V30 14401 H 1348.16 0.445157 4.3151 0
M  V30 14402 H 1348.83 -0.705732 5.4747 0
M  V30 14403 H 1351.31 -1.67463 3.80914 0
M  V30 14404 H 1350.19 -2.60842 4.82962 0
M  V30 14405 H 1350.45 -3.09092 3.16093 0
M  V30 14406 N 1349.51 -1.55583 -0.251311 0
M  V30 14407 C 1350.75 -1.76859 -0.978031 0
M  V30 14408 C 1351.07 -0.584924 -1.86021 0
M  V30 14409 O 1350.34 0.399456 -1.91784 0
M  V30 14410 H 1348.92 -0.652252 -0.364111 0
M  V30 14411 H 1351.59 -1.93016 -0.270319 0
M  V30 14412 H 1350.68 -2.67828 -1.60233 0
M  V30 14413 N 1350.98 0.516783 -1.48886 0
M  V30 14414 C 1351.89 1.6467 -1.67095 0
M  V30 14415 C 1352.91 1.64963 -0.553466 0
M  V30 14416 O 1354.09 1.83673 -0.826206 0
M  V30 14417 C 1351.15 3.01095 -1.71879 0
M  V30 14418 C 1350.21 3.11554 -2.95352 0
M  V30 14419 C 1349.44 4.41471 -2.99898 0
M  V30 14420 O 1349.67 5.29348 -2.12477 0
M  V30 14421 O 1348.6 4.56573 -3.92205 0
M  V30 14422 H 1352.43 1.52242 -2.62785 0
M  V30 14423 H 1350.01 0.69134 -1.32442 0
M  V30 14424 H 1351.89 3.82207 -1.77471 0
M  V30 14425 H 1350.57 3.1382 -0.793656 0
M  V30 14426 H 1349.48 2.29689 -2.95286 0
M  V30 14427 H 1350.81 3.03751 -3.87294 0
M  V30 14428 N 1352.46 1.37696 0.766659 0
M  V30 14429 C 1353.71 1.33185 1.52539 0
M  V30 14430 C 1354.04 -0.0821239 1.94327 0
M  V30 14431 O 1353.29 -1.05645 1.64735 0
M  V30 14432 C 1353.59 2.22154 2.79968 0
M  V30 14433 C 1353.26 3.70344 2.57208 0
M  V30 14434 C 1351.92 4.10729 2.50709 0
M  V30 14435 C 1354.27 4.64205 2.36988 0
M  V30 14436 C 1351.6 5.43082 2.21988 0
M  V30 14437 C 1353.95 5.96801 2.0979 0
M  V30 14438 C 1352.61 6.36284 2.01739 0
M  V30 14439 H 1351.88 0.487357 0.558179 0
M  V30 14440 H 1354.53 1.69945 0.882662 0
M  V30 14441 H 1352.84 1.78406 3.48825 0
M  V30 14442 H 1354.53 2.15975 3.37869 0
M  V30 14443 H 1351.12 3.38319 2.63131 0
M  V30 14444 H 1355.31 4.3386 2.40996 0
M  V30 14445 H 1350.56 5.7263 2.14254 0
M  V30 14446 H 1354.74 6.6908 1.93145 0
M  V30 14447 H 1352.36 7.38765 1.79248 0
M  V30 14448 N 1353.94 -0.993397 1.22349 0
M  V30 14449 C 1355.17 -1.76581 1.0725 0
M  V30 14450 C 1355.58 -1.85346 -0.379923 0
M  V30 14451 O 1354.92 -1.3224 -1.27508 0
M  V30 14452 C 1354.98 -3.21519 1.60829 0
M  V30 14453 C 1354.65 -3.363 3.09437 0
M  V30 14454 C 1355.64 -3.23655 4.0687 0
M  V30 14455 C 1353.33 -3.61368 3.48882 0
M  V30 14456 C 1355.32 -3.3586 5.41735 0
M  V30 14457 C 1353.01 -3.73214 4.83895 0
M  V30 14458 C 1354.01 -3.60468 5.80131 0
M  V30 14459 O 1353.7 -3.7192 7.12693 0
M  V30 14460 H 1353.43 -0.561407 0.376561 0
M  V30 14461 H 1355.98 -1.25768 1.62393 0
M  V30 14462 H 1354.21 -3.73521 1.00093 0
M  V30 14463 H 1355.9 -3.80475 1.41399 0
M  V30 14464 H 1356.67 -3.04201 3.77739 0
M  V30 14465 H 1352.55 -3.70365 2.74501 0
M  V30 14466 H 1356.09 -3.25829 6.16832 0
M  V30 14467 H 1351.99 -3.92175 5.12707 0
M  V30 14468 H 1352.75 -3.88796 7.20264 0
M  V30 14469 N 1355.42 -1.03311 -1.19015 0
M  V30 14470 C 1356.83 -0.750946 -1.4083 0
M  V30 14471 C 1357.03 0.662704 -1.90291 0
M  V30 14472 O 1356.09 1.42806 -2.08237 0
M  V30 14473 C 1357.4 -1.79064 -2.41571 0
M  V30 14474 C 1358.95 -1.81068 -2.55311 0
M  V30 14475 C 1359.43 -2.84008 -3.59309 0
M  V30 14476 N 1360.92 -2.82852 -3.6681 0
M  V30 14477 C 1361.65 -3.59156 -4.46984 0
M  V30 14478 N 1361.15 -4.45188 -5.30829 0
M  V30 14479 N 1362.94 -3.47679 -4.41674 0
M  V30 14480 H 1355.09 -1.94548 -0.852329 0
M  V30 14481 H 1357.35 -0.841344 -0.436858 0
M  V30 14482 H 1357.06 -2.80425 -2.12261 0
M  V30 14483 H 1356.93 -1.61646 -3.40809 0
M  V30 14484 H 1359.32 -0.803825 -2.83941 0
M  V30 14485 H 1359.4 -2.02562 -1.56212 0
M  V30 14486 H 1359.05 -3.84867 -3.3142 0
M  V30 14487 H 1358.98 -2.59771 -4.58069 0
M  V30 14488 H 1361.47 -2.20457 -3.06932 0
M  V30 14489 H 1361.78 -5.00139 -5.89135 0
M  V30 14490 H 1360.13 -4.49259 -5.30275 0
M  V30 14491 H 1363.32 -2.79876 -3.75216 0
M  V30 14492 H 1363.49 -4.07396 -5.03917 0
M  V30 14493 N 1356.9 1.35099 -0.81154 0
M  V30 14494 C 1358.17 1.93009 -0.317289 0
M  V30 14495 C 1358.55 1.74101 1.19382 0
M  V30 14496 O 1357.9 1.11295 1.99564 0
M  V30 14497 C 1358.11 3.41191 -0.734123 0
M  V30 14498 C 1359.46 4.1834 -0.726437 0
M  V30 14499 O 1360.48 3.49727 -0.67598 0
M  V30 14500 O 1359.34 5.4077 -0.789291 0
M  V30 14501 H 1356.44 0.822707 -0.084153 0
M  V30 14502 H 1358.98 1.44145 -0.895569 0
M  V30 14503 H 1357.75 3.48705 -1.7754 0
M  V30 14504 H 1357.38 3.97384 -0.130919 0
M  V30 14505 N 1358.37 0.56548 1.47106 0
M  V30 14506 C 1359.34 -0.167191 2.28589 0
M  V30 14507 C 1360.34 -0.835005 1.3742 0
M  V30 14508 O 1361.53 -0.689598 1.59969 0
M  V30 14509 C 1358.66 -1.24548 3.17333 0
M  V30 14510 H 1359.85 0.548677 2.94838 0
M  V30 14511 H 1357.4 0.322749 1.52931 0
M  V30 14512 H 1358.14 -1.99348 2.55794 0
M  V30 14513 H 1357.92 -0.771335 3.84438 0
M  V30 14514 H 1359.41 -1.75985 3.78707 0
M  V30 14515 N 1359.85 -1.54672 0.302354 0
M  V30 14516 C 1361.1 -2.00463 -0.306978 0
M  V30 14517 C 1361.43 -1.19043 -1.53435 0
M  V30 14518 O 1360.71 -0.267255 -1.92655 0
M  V30 14519 C 1360.99 -3.53958 -0.662229 0
M  V30 14520 C 1360.84 -4.46118 0.574378 0
M  V30 14521 C 1362.16 -4.14174 -1.48821 0
M  V30 14522 H 1359.28 -0.728729 -0.110102 0
M  V30 14523 H 1361.92 -1.85419 0.414722 0
M  V30 14524 H 1360.07 -3.66909 -1.2771 0
M  V30 14525 H 1361.74 -4.45071 1.21284 0
M  V30 14526 H 1359.99 -4.1666 1.20736 0
M  V30 14527 H 1360.66 -5.51281 0.281651 0
M  V30 14528 H 1363.13 -4.04668 -0.968674 0
M  V30 14529 H 1362.01 -5.2173 -1.70556 0
M  V30 14530 H 1362.27 -3.66136 -2.47784 0
M  V30 14531 N 1361.33 -0.0301034 -1.57571 0
M  V30 14532 C 1362.26 0.94977 -2.13311 0
M  V30 14533 C 1363.24 1.33865 -1.04948 0
M  V30 14534 O 1364.43 1.4171 -1.32786 0
M  V30 14535 C 1361.56 2.23178 -2.66099 0
M  V30 14536 C 1360.51 1.98362 -3.79258 0
M  V30 14537 C 1359.84 3.32836 -4.18479 0
M  V30 14538 C 1361.14 1.32201 -5.05292 0
M  V30 14539 H 1362.83 0.485562 -2.95436 0
M  V30 14540 H 1360.38 0.232116 -1.42117 0
M  V30 14541 H 1362.33 2.92108 -3.03728 0
M  V30 14542 H 1361.05 2.71766 -1.81137 0
M  V30 14543 H 1359.71 1.31849 -3.42069 0
M  V30 14544 H 1359.36 3.79185 -3.30496 0
M  V30 14545 H 1359.06 3.17037 -4.94733 0
M  V30 14546 H 1360.58 4.03032 -4.58691 0
M  V30 14547 H 1362 1.91133 -5.40501 0
M  V30 14548 H 1360.4 1.26797 -5.86551 0
M  V30 14549 H 1361.47 0.29511 -4.84001 0
M  V30 14550 N 1362.81 1.55714 0.243056 0
M  V30 14551 C 1363.74 1.87093 1.32396 0
M  V30 14552 C 1364.75 0.757482 1.44104 0
M  V30 14553 O 1365.94 1.03563 1.45386 0
M  V30 14554 C 1363.04 2.04546 2.70212 0
M  V30 14555 C 1362.22 3.3543 2.80723 0
M  V30 14556 C 1361.27 3.42578 3.99408 0
M  V30 14557 O 1360.3 4.15762 3.88755 0
M  V30 14558 N 1361.5 2.7215 5.12752 0
M  V30 14559 H 1364.27 2.80399 1.05813 0
M  V30 14560 H 1361.83 1.55998 0.433151 0
M  V30 14561 H 1363.82 2.06665 3.47954 0
M  V30 14562 H 1362.39 1.17966 2.89487 0
M  V30 14563 H 1361.61 3.45594 1.89626 0
M  V30 14564 H 1362.9 4.21692 2.84698 0
M  V30 14565 H 1362.3 2.1243 5.24299 0
M  V30 14566 H 1360.85 2.79957 5.88615 0
M  V30 14567 N 1364.29 -0.50888 1.49158 0
M  V30 14568 C 1365.7 -0.839353 1.35746 0
M  V30 14569 C 1365.9 -1.97797 0.38453 0
M  V30 14570 O 1364.96 -2.51809 -0.186651 0
M  V30 14571 C 1366.27 -1.18698 2.76281 0
M  V30 14572 C 1367.82 -1.29565 2.84924 0
M  V30 14573 C 1368.29 -1.67661 4.26209 0
M  V30 14574 N 1369.79 -1.74725 4.28982 0
M  V30 14575 C 1370.52 -2.05631 5.3526 0
M  V30 14576 N 1370.02 -2.34814 6.51793 0
M  V30 14577 N 1371.81 -2.06815 5.2267 0
M  V30 14578 H 1363.96 0.242065 2.11016 0
M  V30 14579 H 1366.22 0.0456901 0.946898 0
M  V30 14580 H 1365.93 -0.423769 3.49138 0
M  V30 14581 H 1365.8 -2.13227 3.11149 0
M  V30 14582 H 1368.19 -2.0496 2.1231 0
M  V30 14583 H 1368.27 -0.331059 2.53649 0
M  V30 14584 H 1367.92 -0.928198 4.99346 0
M  V30 14585 H 1367.85 -2.65207 4.54943 0
M  V30 14586 H 1370.34 -1.54364 3.44935 0
M  V30 14587 H 1370.65 -2.57562 7.28616 0
M  V30 14588 H 1368.99 -2.32288 6.55032 0
M  V30 14589 H 1372.19 -1.83487 4.30639 0
M  V30 14590 H 1372.36 -2.30568 6.05593 0
M  V30 14591 N 1365.76 -1.381 -0.759346 0
M  V30 14592 C 1367 -1.35402 -1.5312 0
M  V30 14593 C 1367.37 0.0574616 -1.91914 0
M  V30 14594 O 1368.57 0.20927 -2.67984 0
M  V30 14595 C 1366.84 -2.27793 -2.754 0
M  V30 14596 S 1368.4 -2.43061 -3.65331 0
M  V30 14597 H 1365.22 -0.480503 -0.524059 0
M  V30 14598 H 1367.82 -1.7397 -0.891886 0
M  V30 14599 H 1366.52 -3.29247 -2.45 0
M  V30 14600 H 1366.05 -1.90353 -3.44281 0
M  V30 14601 H 1368.07 -1.6504 -4.67949 0
M  V30 14602 N 1367.24 0.986894 -1.22875 0
M  V30 14603 C 1368.47 1.768 -1.08427 0
M  V30 14604 C 1368.89 1.84612 0.360555 0
M  V30 14605 O 1368.25 1.30299 1.26063 0
M  V30 14606 C 1368.3 3.17638 -1.70701 0
M  V30 14607 O 1367.4 4.00957 -0.964752 0
M  V30 14608 H 1366.74 0.544199 -0.380451 0
M  V30 14609 H 1369.27 1.23931 -1.62795 0
M  V30 14610 H 1369.28 3.68243 -1.75672 0
M  V30 14611 H 1367.96 3.11267 -2.75837 0
M  V30 14612 H 1366.54 3.59477 -0.991493 0
M  V30 14613 N 1368.72 1.0394 1.18466 0
M  V30 14614 C 1370.13 0.77011 1.70077 0
M  V30 14615 C 1370.48 -0.70916 1.82935 0
M  V30 14616 O 1369.61 -1.55209 1.50795 0
M  V30 14617 C 1370.2 1.39132 3.08914 0
M  V30 14618 C 1368.76 1.17037 3.57742 0
M  V30 14619 C 1367.91 1.48279 2.34326 0
M  V30 14620 H 1370.86 1.20598 1.03159 0
M  V30 14621 H 1370.88 0.793861 3.72126 0
M  V30 14622 H 1370.39 2.46795 2.99523 0
M  V30 14623 H 1368.49 0.112435 3.7243 0
M  V30 14624 H 1368.61 1.8665 4.41247 0
M  V30 14625 H 1366.97 0.902438 2.38177 0
M  V30 14626 H 1367.75 2.57047 2.27556 0
M  V30 14627 N 1370.2 -1.34667 0.818693 0
M  V30 14628 C 1371.15 -2.31501 0.225816 0
M  V30 14629 C 1372.14 -1.57205 -0.631112 0
M  V30 14630 O 1373.35 -1.72237 -0.522924 0
M  V30 14631 H 1369.72 -0.750039 0.0542747 0
M  V30 14632 H 1371.69 -2.79036 1.05743 0
M  V30 14633 C 1370.44 -3.42464 -0.60114 0
M  V30 14634 H 1369.76 -3.9977 0.0489207 0
M  V30 14635 H 1371.2 -4.12468 -0.982154 0
M  V30 14636 C 1369.66 -2.86551 -1.77173 0
M  V30 14637 O 1370.19 -2.81085 -2.86974 0
M  V30 14638 N 1368.4 -2.43432 -1.58712 0
M  V30 14639 H 1367.95 -2.48077 -0.693958 0
M  V30 14640 H 1367.9 -2.06371 -2.37188 0
M  V30 14641 N 1371.68 -0.573274 -1.46804 0
M  V30 14642 C 1372.61 0.153316 -2.32996 0
M  V30 14643 C 1373.59 0.893013 -1.44773 0
M  V30 14644 O 1374.77 0.870329 -1.73606 0
M  V30 14645 C 1371.9 1.1736 -3.2687 0
M  V30 14646 C 1370.86 0.549347 -4.2446 0
M  V30 14647 C 1370.18 1.67542 -5.07773 0
M  V30 14648 C 1371.48 -0.50736 -5.1983 0
M  V30 14649 H 1373.18 -0.566305 -2.93995 0
M  V30 14650 H 1370.72 -0.273785 -1.41373 0
M  V30 14651 H 1372.68 1.6902 -3.86019 0
M  V30 14652 H 1371.4 1.92337 -2.63958 0
M  V30 14653 H 1370.06 0.0539142 -3.6656 0
M  V30 14654 H 1369.71 2.41463 -4.41253 0
M  V30 14655 H 1369.41 1.26343 -5.73856 0
M  V30 14656 H 1370.93 2.19496 -5.69784 0
M  V30 14657 H 1372.34 -0.0762061 -5.73249 0
M  V30 14658 H 1370.74 -0.839139 -5.94204 0
M  V30 14659 H 1371.81 -1.39723 -4.64333 0
M  V30 14660 N 1373.15 1.5451 -0.310553 0
M  V30 14661 C 1374.09 2.2134 0.595098 0
M  V30 14662 C 1375.1 1.20917 1.09009 0
M  V30 14663 O 1376.29 1.47458 1.0059 0
M  V30 14664 C 1373.39 2.85384 1.82782 0
M  V30 14665 C 1372.56 4.11826 1.47372 0
M  V30 14666 C 1371.62 4.59584 2.56259 0
M  V30 14667 O 1370.65 5.24567 2.20949 0
M  V30 14668 N 1371.85 4.32709 3.86967 0
M  V30 14669 H 1374.61 2.99691 0.0229291 0
M  V30 14670 H 1372.17 1.61351 -0.133173 0
M  V30 14671 H 1374.17 3.14263 2.54992 0
M  V30 14672 H 1372.74 2.10816 2.30815 0
M  V30 14673 H 1371.96 3.89853 0.583826 0
M  V30 14674 H 1373.24 4.94138 1.21265 0
M  V30 14675 H 1372.64 3.80669 4.18458 0
M  V30 14676 H 1371.2 4.66275 4.55446 0
M  V30 14677 N 1374.63 0.0384594 1.57553 0
M  V30 14678 C 1376.05 -0.318006 1.564 0
M  V30 14679 C 1376.25 -1.72287 1.04496 0
M  V30 14680 O 1375.31 -2.42722 0.695861 0
M  V30 14681 C 1376.62 -0.158079 3.00284 0
M  V30 14682 C 1378.17 -0.230143 3.12153 0
M  V30 14683 C 1378.64 -0.0988948 4.57893 0
M  V30 14684 N 1380.13 -0.15558 4.62939 0
M  V30 14685 C 1380.87 -0.077948 5.73347 0
M  V30 14686 N 1380.36 0.0513054 6.92781 0
M  V30 14687 N 1382.16 -0.132612 5.61944 0
M  V30 14688 H 1374.31 0.957014 1.89618 0
M  V30 14689 H 1376.57 0.370396 0.872646 0
M  V30 14690 H 1376.28 0.810032 3.42245 0
M  V30 14691 H 1376.15 -0.924413 3.65697 0
M  V30 14692 H 1378.54 -1.18872 2.70099 0
M  V30 14693 H 1378.62 0.56673 2.49443 0
M  V30 14694 H 1378.26 0.856301 5.00629 0
M  V30 14695 H 1378.19 -0.91475 5.18594 0
M  V30 14696 H 1380.68 -0.255245 3.77037 0
M  V30 14697 H 1381 0.103595 7.72731 0
M  V30 14698 H 1379.34 0.0862166 6.94947 0
M  V30 14699 H 1382.53 -0.232056 4.67524 0
M  V30 14700 H 1382.71 -0.0686506 6.47964 0
M  V30 14701 N 1376.11 -1.55841 -0.234795 0
M  V30 14702 C 1377.06 -1.8772 -1.29403 0
M  V30 14703 C 1378.05 -0.739087 -1.42921 0
M  V30 14704 O 1379.24 -1.00125 -1.45959 0
M  V30 14705 C 1376.37 -2.18592 -2.64712 0
M  V30 14706 C 1375.45 -3.38761 -2.55151 0
M  V30 14707 N 1375.84 -4.57723 -2.15229 0
M  V30 14708 C 1374.14 -3.42112 -2.86138 0
M  V30 14709 C 1374.84 -5.39872 -2.16595 0
M  V30 14710 N 1373.82 -4.79242 -2.5657 0
M  V30 14711 H 1377.62 -2.77219 -0.976067 0
M  V30 14712 H 1375.13 -1.5623 -0.443396 0
M  V30 14713 H 1377.13 -2.39599 -3.41171 0
M  V30 14714 H 1375.79 -1.30398 -2.97366 0
M  V30 14715 H 1376.8 -4.83126 -1.86575 0
M  V30 14716 H 1373.48 -2.64224 -3.23252 0
M  V30 14717 H 1374.87 -6.45072 -1.87967 0
M  V30 14718 N 1377.59 0.500963 -1.49426 0
M  V30 14719 C 1378.81 1.28383 -1.62888 0
M  V30 14720 C 1379.24 1.85688 -0.300262 0
M  V30 14721 O 1378.6 1.6586 0.73212 0
M  V30 14722 C 1378.65 2.38987 -2.70033 0
M  V30 14723 O 1377.75 3.42837 -2.29208 0
M  V30 14724 H 1377.09 0.379012 -0.545202 0
M  V30 14725 H 1379.62 0.59971 -1.95613 0
M  V30 14726 H 1379.63 2.84749 -2.92202 0
M  V30 14727 H 1378.31 1.96643 -3.66475 0
M  V30 14728 H 1376.88 3.02993 -2.1737 0
M  V30 14729 N 1379.07 1.38501 0.752011 0
M  V30 14730 C 1380.02 1.35975 1.88716 0
M  V30 14731 C 1381.01 0.245392 1.67613 0
M  V30 14732 O 1382.22 0.414514 1.75162 0
M  V30 14733 H 1378.59 0.424221 0.620919 0
M  V30 14734 H 1380.56 2.3176 1.87962 0
M  V30 14735 C 1379.31 1.20326 3.26216 0
M  V30 14736 H 1378.63 2.05336 3.43041 0
M  V30 14737 H 1380.07 1.22613 4.05884 0
M  V30 14738 C 1378.53 -0.0897029 3.36781 0
M  V30 14739 O 1379.06 -1.06615 3.87293 0
M  V30 14740 N 1377.27 -0.147065 2.90228 0
M  V30 14741 H 1376.82 0.648216 2.49311 0
M  V30 14742 H 1376.77 -1.01174 2.97676 0
M  V30 14743 N 1380.55 -0.980364 1.23396 0
M  V30 14744 C 1381.77 -1.76223 1.09363 0
M  V30 14745 C 1382.2 -1.84801 -0.350759 0
M  V30 14746 O 1381.55 -1.30966 -1.2537 0
M  V30 14747 C 1381.6 -3.16728 1.72383 0
M  V30 14748 O 1380.71 -4.00439 0.986002 0
M  V30 14749 H 1380.05 -0.542174 0.383332 0
M  V30 14750 H 1382.58 -1.23066 1.6345 0
M  V30 14751 H 1382.59 -3.67307 1.77623 0
M  V30 14752 H 1381.26 -3.098 2.77483 0
M  V30 14753 H 1379.84 -3.58946 1.01054 0
M  V30 14754 N 1382.02 -1.04567 -1.17913 0
M  V30 14755 C 1382.95 -0.662066 -2.23917 0
M  V30 14756 C 1383.93 0.33713 -1.66726 0
M  V30 14757 O 1385.12 0.216116 -1.92994 0
M  V30 14758 C 1382.25 -0.029463 -3.47288 0
M  V30 14759 C 1381.2 -0.95274 -4.17261 0
M  V30 14760 C 1380.53 -0.184347 -5.34382 0
M  V30 14761 C 1381.83 -2.2741 -4.70194 0
M  V30 14762 H 1383.52 -1.54826 -2.5626 0
M  V30 14763 H 1381.07 -0.745886 -1.23177 0
M  V30 14764 H 1383.02 0.250654 -4.20654 0
M  V30 14765 H 1381.75 0.891638 -3.14193 0
M  V30 14766 H 1380.41 -1.21732 -3.45799 0
M  V30 14767 H 1380.05 0.73932 -4.97537 0
M  V30 14768 H 1379.75 -0.79949 -5.82136 0
M  V30 14769 H 1381.28 0.0886344 -6.10536 0
M  V30 14770 H 1382.69 -2.05433 -5.35229 0
M  V30 14771 H 1381.09 -2.84265 -5.28501 0
M  V30 14772 H 1382.16 -2.91708 -3.87342 0
M  V30 14773 N 1383.5 1.34231 -0.825823 0
M  V30 14774 C 1384.75 1.97805 -0.414456 0
M  V30 14775 C 1385.07 1.65786 1.02664 0
M  V30 14776 O 1384.34 0.950069 1.7132 0
M  V30 14777 H 1382.92 0.73173 -0.150265 0
M  V30 14778 H 1385.58 1.63819 -1.05591 0
M  V30 14779 H 1384.68 3.07466 -0.535829 0
M  V30 14780 N 1384.98 0.581051 1.46498 0
M  V30 14781 C 1386.39 0.154032 1.86064 0
M  V30 14782 C 1386.74 -1.28247 1.48483 0
M  V30 14783 O 1385.87 -1.96845 0.898945 0
M  V30 14784 C 1386.46 0.272764 3.377 0
M  V30 14785 C 1385.02 -0.0993724 3.76269 0
M  V30 14786 C 1384.17 0.60947 2.70519 0
M  V30 14787 H 1387.12 0.78937 1.37676 0
M  V30 14788 H 1387.14 -0.502326 3.7717 0
M  V30 14789 H 1386.65 1.31837 3.65021 0
M  V30 14790 H 1384.75 -1.14517 3.54565 0
M  V30 14791 H 1384.87 0.275791 4.78306 0
M  V30 14792 H 1383.23 0.0499083 2.54651 0
M  V30 14793 H 1384.01 1.65669 3.0068 0
M  V30 14794 N 1386.46 -1.54343 0.318742 0
M  V30 14795 C 1387.71 -1.9966 -0.286146 0
M  V30 14796 C 1388.02 -1.21073 -1.53625 0
M  V30 14797 O 1389.23 -1.56744 -2.21684 0
M  V30 14798 C 1387.68 -3.5551 -0.560405 0
M  V30 14799 C 1387.29 -4.42926 0.672373 0
M  V30 14800 C 1389.03 -4.09307 -1.12551 0
M  V30 14801 C 1386.94 -5.9024 0.370285 0
M  V30 14802 H 1385.87 -0.74583 -0.110698 0
M  V30 14803 H 1388.52 -1.78386 0.430215 0
M  V30 14804 H 1386.9 -3.72753 -1.33683 0
M  V30 14805 H 1388.08 -4.37458 1.448 0
M  V30 14806 H 1386.39 -3.99993 1.15736 0
M  V30 14807 H 1388.99 -5.16955 -1.36607 0
M  V30 14808 H 1389.33 -3.60994 -2.07338 0
M  V30 14809 H 1389.87 -3.95677 -0.410385 0
M  V30 14810 H 1386.6 -6.42738 1.28719 0
M  V30 14811 H 1386.12 -5.98672 -0.367731 0
M  V30 14812 H 1387.8 -6.46996 -0.0216582 0
M  V30 14813 N 1387.94 -0.0468143 -1.5753 0
M  V30 14814 C 1389.18 0.627939 -1.92518 0
M  V30 14815 C 1389.51 1.71107 -0.924801 0
M  V30 14816 O 1388.77 1.95597 0.0635812 0
M  V30 14817 C 1389.06 1.26669 -3.342 0
M  V30 14818 C 1388.73 0.312184 -4.49818 0
M  V30 14819 C 1387.39 0.0495202 -4.81175 0
M  V30 14820 C 1389.74 -0.342228 -5.20075 0
M  V30 14821 C 1387.07 -0.875064 -5.80137 0
M  V30 14822 C 1389.42 -1.25498 -6.20027 0
M  V30 14823 C 1388.09 -1.52636 -6.49814 0
M  V30 14824 H 1387.36 0.229779 -0.704473 0
M  V30 14825 H 1390.01 -0.112363 -1.9117 0
M  V30 14826 H 1388.31 2.08215 -3.31894 0
M  V30 14827 H 1390.01 1.79563 -3.5855 0
M  V30 14828 H 1386.6 0.527088 -4.25347 0
M  V30 14829 H 1390.78 -0.152384 -4.96066 0
M  V30 14830 H 1386.04 -1.09284 -6.01554 0
M  V30 14831 H 1390.21 -1.76815 -6.7358 0
M  V30 14832 H 1387.84 -2.24443 -7.26312 0
M  V30 14833 N 1389.41 1.55964 0.226527 0
M  V30 14834 C 1390.69 1.69528 0.975689 0
M  V30 14835 C 1391.07 0.592635 2.02611 0
M  V30 14836 O 1390.42 -0.401073 2.24953 0
M  V30 14837 C 1390.63 3.10644 1.59063 0
M  V30 14838 C 1391.98 3.69895 2.08478 0
M  V30 14839 O 1393 3.13574 1.68966 0
M  V30 14840 O 1391.86 4.68672 2.81085 0
M  V30 14841 H 1388.95 0.690285 0.455451 0
M  V30 14842 H 1391.5 1.68285 0.218702 0
M  V30 14843 H 1390.27 3.82355 0.831903 0
M  V30 14844 H 1389.9 3.15984 2.41329 0
M  V30 14845 N 1390.89 -0.493031 1.4969 0
M  V30 14846 C 1391.84 -1.59075 1.63337 0
M  V30 14847 C 1392.83 -1.53298 0.488721 0
M  V30 14848 O 1394.02 -1.60693 0.742071 0
M  V30 14849 C 1391.15 -2.97646 1.71061 0
M  V30 14850 C 1390.23 -3.08389 2.9113 0
M  V30 14851 N 1390.62 -2.89001 4.15105 0
M  V30 14852 C 1388.92 -3.395 2.89233 0
M  V30 14853 C 1389.62 -3.04136 4.95859 0
M  V30 14854 N 1388.6 -3.33367 4.2938 0
M  V30 14855 H 1392.4 -1.42751 2.56903 0
M  V30 14856 H 1389.92 -0.699325 1.46571 0
M  V30 14857 H 1391.91 -3.76546 1.78938 0
M  V30 14858 H 1390.57 -3.15034 0.786376 0
M  V30 14859 H 1391.58 -2.65017 4.44957 0
M  V30 14860 H 1388.26 -3.63014 2.06221 0
M  V30 14861 H 1389.65 -2.93571 6.04372 0
M  V30 14862 N 1392.37 -1.38898 -0.744656 0
M  V30 14863 C 1393.28 -1.39098 -1.88915 0
M  V30 14864 C 1394.3 -0.286956 -1.71617 0
M  V30 14865 O 1395.47 -0.526852 -1.94387 0
M  V30 14866 C 1392.54 -1.22352 -3.24393 0
M  V30 14867 C 1391.6 -2.4264 -3.54153 0
M  V30 14868 C 1390.83 -2.26683 -4.83167 0
M  V30 14869 O 1391.05 -1.26523 -5.56191 0
M  V30 14870 O 1389.99 -3.15464 -5.12607 0
M  V30 14871 H 1393.81 -2.35551 -1.91701 0
M  V30 14872 H 1391.4 -1.19911 -0.891158 0
M  V30 14873 H 1393.28 -1.15109 -4.05374 0
M  V30 14874 H 1391.96 -0.289886 -3.22399 0
M  V30 14875 H 1390.86 -2.55459 -2.73298 0
M  V30 14876 H 1392.2 -3.34664 -3.60917 0
M  V30 14877 N 1393.85 0.973806 -1.23914 0
M  V30 14878 C 1395.13 1.69087 -0.9833 0
M  V30 14879 C 1395.51 2.05186 0.49619 0
M  V30 14880 O 1394.85 1.75021 1.46901 0
M  V30 14881 C 1395.06 2.92739 -1.90012 0
M  V30 14882 C 1396.41 3.65112 -2.16745 0
M  V30 14883 O 1397.44 3.02785 -1.87616 0
M  V30 14884 O 1396.29 4.77293 -2.66183 0
M  V30 14885 H 1393.39 0.738919 -0.371386 0
M  V30 14886 H 1395.93 1.02844 -1.34986 0
M  V30 14887 H 1394.71 2.6271 -2.89999 0
M  V30 14888 H 1394.33 3.66718 -1.53635 0
M  V30 14889 N 1395.33 1.05191 1.17357 0
M  V30 14890 C 1396.26 0.673931 2.23563 0
M  V30 14891 C 1397.24 -0.328284 1.66902 0
M  V30 14892 O 1398.42 -0.205878 1.93106 0
M  V30 14893 C 1395.55 0.0478801 3.47267 0
M  V30 14894 C 1394.51 0.974855 4.1675 0
M  V30 14895 C 1393.83 0.212684 5.34277 0
M  V30 14896 C 1395.13 2.299 4.68981 0
M  V30 14897 H 1396.83 1.56183 2.55436 0
M  V30 14898 H 1394.37 0.752408 1.2278 0
M  V30 14899 H 1396.33 -0.228343 4.20781 0
M  V30 14900 H 1395.05 -0.874963 3.14662 0
M  V30 14901 H 1393.71 1.23564 3.45148 0
M  V30 14902 H 1393.36 -0.712924 4.97922 0
M  V30 14903 H 1393.06 0.830351 5.81703 0
M  V30 14904 H 1394.58 -0.056255 6.10574 0
M  V30 14905 H 1395.99 2.08269 5.34132 0
M  V30 14906 H 1394.39 2.87064 5.26986 0
M  V30 14907 H 1395.46 2.93759 3.8579 0
M  V30 14908 N 1396.8 -1.33791 0.83293 0
M  V30 14909 C 1397.73 -2.31853 0.276846 0
M  V30 14910 C 1398.72 -1.58702 -0.612184 0
M  V30 14911 O 1399.9 -1.86629 -0.536975 0
M  V30 14912 C 1397.03 -3.42855 -0.55385 0
M  V30 14913 C 1395.98 -4.27333 0.238884 0
M  V30 14914 C 1395.31 -5.29895 -0.715187 0
M  V30 14915 C 1396.61 -5.01692 1.45265 0
M  V30 14916 H 1398.3 -2.78611 1.09618 0
M  V30 14917 H 1395.85 -1.33949 0.528562 0
M  V30 14918 H 1397.8 -4.10479 -0.953133 0
M  V30 14919 H 1396.53 -2.94771 -1.40634 0
M  V30 14920 H 1395.19 -3.61325 0.619656 0
M  V30 14921 H 1394.83 -4.7807 -1.56391 0
M  V30 14922 H 1394.53 -5.87296 -0.188921 0
M  V30 14923 H 1396.06 -6.00387 -1.11211 0
M  V30 14924 H 1397.47 -5.62117 1.12685 0
M  V30 14925 H 1395.87 -5.68715 1.91528 0
M  V30 14926 H 1396.94 -4.30809 2.22558 0
M  V30 14927 N 1398.28 -0.588812 -1.46187 0
M  V30 14928 C 1399.23 0.140932 -2.30369 0
M  V30 14929 C 1400.2 0.878216 -1.40984 0
M  V30 14930 O 1401.38 0.867678 -1.69929 0
M  V30 14931 C 1398.52 1.14468 -3.25563 0
M  V30 14932 C 1397.64 0.410215 -4.30048 0
M  V30 14933 C 1396.77 1.40203 -5.12364 0
M  V30 14934 C 1395.81 0.65431 -6.08593 0
M  V30 14935 N 1394.95 1.59448 -6.83755 0
M  V30 14936 H 1399.79 -0.582976 -2.92242 0
M  V30 14937 H 1397.33 -0.299302 -1.44023 0
M  V30 14938 H 1399.28 1.73957 -3.79203 0
M  V30 14939 H 1397.91 1.83623 -2.65485 0
M  V30 14940 H 1396.97 -0.299822 -3.79217 0
M  V30 14941 H 1398.28 -0.174043 -4.98496 0
M  V30 14942 H 1397.43 2.06953 -5.70312 0
M  V30 14943 H 1396.17 2.02022 -4.4389 0
M  V30 14944 H 1395.18 -0.0269371 -5.49793 0
M  V30 14945 H 1396.4 0.0414285 -6.79087 0
M  V30 14946 H 1394.35 2.20066 -6.17986 0
M  V30 14947 H 1394.26 1.06318 -7.48487 0
M  V30 14948 H 1395.53 2.25215 -7.46256 0
M  V30 14949 N 1399.76 1.54172 -0.326923 0
M  V30 14950 C 1401.18 1.59579 0.0256055 0
M  V30 14951 C 1401.38 1.34337 1.50186 0
M  V30 14952 O 1400.43 1.12945 2.25831 0
M  V30 14953 C 1401.75 2.98086 -0.395641 0
M  V30 14954 C 1403.29 3.11075 -0.346579 0
M  V30 14955 C 1403.77 4.51932 -0.743039 0
M  V30 14956 N 1405.26 4.57932 -0.696575 0
M  V30 14957 C 1405.99 5.65041 -0.975493 0
M  V30 14958 N 1405.49 6.80075 -1.32172 0
M  V30 14959 N 1407.28 5.54835 -0.900831 0
M  V30 14960 H 1399.43 1.68836 -1.28872 0
M  V30 14961 H 1401.7 0.789858 -0.52424 0
M  V30 14962 H 1401.4 3.21568 -1.42431 0
M  V30 14963 H 1401.28 3.76451 0.237645 0
M  V30 14964 H 1403.66 2.87326 0.672889 0
M  V30 14965 H 1403.75 2.34807 -1.01484 0
M  V30 14966 H 1403.39 4.76415 -1.76044 0
M  V30 14967 H 1403.32 5.26574 -0.0524263 0
M  V30 14968 H 1405.81 3.75318 -0.440969 0
M  V30 14969 H 1406.12 7.57708 -1.51983 0
M  V30 14970 H 1404.47 6.81563 -1.36001 0
M  V30 14971 H 1407.66 4.63844 -0.629812 0
M  V30 14972 H 1407.83 6.3822 -1.12156 0
M  V30 14973 N 1401.24 0.0551678 1.57503 0
M  V30 14974 C 1402.19 -0.917847 2.11764 0
M  V30 14975 C 1403.16 -1.30624 1.02599 0
M  V30 14976 O 1404.34 -1.39501 1.30169 0
M  V30 14977 C 1401.48 -2.18599 2.67036 0
M  V30 14978 C 1400.59 -1.85173 3.90301 0
M  V30 14979 C 1399.73 -3.06475 4.33874 0
M  V30 14980 C 1398.77 -2.68988 5.49829 0
M  V30 14981 N 1397.9 -3.82997 5.88437 0
M  V30 14982 H 1402.74 -0.448236 2.9461 0
M  V30 14983 H 1400.28 -0.209619 1.45599 0
M  V30 14984 H 1402.24 -2.92811 2.97183 0
M  V30 14985 H 1400.87 -2.6313 1.86982 0
M  V30 14986 H 1399.92 -1.01094 3.66721 0
M  V30 14987 H 1401.23 -1.53582 4.74567 0
M  V30 14988 H 1400.39 -3.88982 4.65594 0
M  V30 14989 H 1399.13 -3.41247 3.48427 0
M  V30 14990 H 1398.13 -1.84899 5.17776 0
M  V30 14991 H 1399.36 -2.35404 6.36994 0
M  V30 14992 H 1397.3 -4.17562 5.05942 0
M  V30 14993 H 1397.22 -3.55118 6.67403 0
M  V30 14994 H 1398.49 -4.66131 6.24773 0
M  V30 14995 N 1402.72 -1.56081 -0.218252 0
M  V30 14996 C 1404.13 -1.49147 -0.568098 0
M  V30 14997 C 1404.33 -0.750893 -1.86986 0
M  V30 14998 O 1403.39 -0.291904 -2.50807 0
M  V30 14999 C 1404.7 -2.93717 -0.644272 0
M  V30 15000 C 1406.25 -3.04256 -0.734677 0
M  V30 15001 C 1406.72 -4.50191 -0.842167 0
M  V30 15002 N 1408.22 -4.54247 -0.906302 0
M  V30 15003 C 1408.95 -5.64448 -1.00924 0
M  V30 15004 N 1408.45 -6.84394 -1.07592 0
M  V30 15005 N 1410.24 -5.52308 -1.04463 0
M  V30 15006 H 1402.39 -2.02656 0.635935 0
M  V30 15007 H 1404.65 -0.921262 0.223563 0
M  V30 15008 H 1404.36 -3.50861 0.242721 0
M  V30 15009 H 1404.23 -3.45798 -1.50678 0
M  V30 15010 H 1406.62 -2.47174 -1.61211 0
M  V30 15011 H 1406.7 -2.55339 0.153563 0
M  V30 15012 H 1406.35 -5.07891 0.0308214 0
M  V30 15013 H 1406.28 -4.96817 -1.74587 0
M  V30 15014 H 1408.77 -3.67868 -0.864954 0
M  V30 15015 H 1409.08 -7.6413 -1.15433 0
M  V30 15016 H 1407.42 -6.87099 -1.045 0
M  V30 15017 H 1410.62 -4.57528 -0.989218 0
M  V30 15018 H 1410.79 -6.38223 -1.1214 0
M  V30 15019 N 1404.2 0.485086 -1.49949 0
M  V30 15020 C 1405.14 1.5848 -1.67788 0
M  V30 15021 C 1406.11 1.57776 -0.519216 0
M  V30 15022 O 1407.3 1.75521 -0.748141 0
M  V30 15023 C 1404.44 2.9654 -1.76516 0
M  V30 15024 C 1403.55 3.07139 -3.03792 0
M  V30 15025 C 1402.69 4.36029 -3.03401 0
M  V30 15026 C 1401.72 4.40318 -4.2519 0
M  V30 15027 N 1400.86 5.60659 -4.22618 0
M  V30 15028 H 1405.7 1.42575 -2.6168 0
M  V30 15029 H 1403.24 0.693426 -1.29731 0
M  V30 15030 H 1405.2 3.76583 -1.79557 0
M  V30 15031 H 1403.83 3.11112 -0.860764 0
M  V30 15032 H 1402.88 2.20057 -3.10289 0
M  V30 15033 H 1404.19 3.06167 -3.9378 0
M  V30 15034 H 1403.34 5.24407 -3.05094 0
M  V30 15035 H 1402.08 4.39588 -2.11219 0
M  V30 15036 H 1401.09 3.50339 -4.23725 0
M  V30 15037 H 1402.31 4.38461 -5.18583 0
M  V30 15038 H 1400.26 5.6503 -3.33282 0
M  V30 15039 H 1400.18 5.61371 -5.06359 0
M  V30 15040 H 1401.44 6.51201 -4.28436 0
M  V30 15041 N 1405.67 1.39291 0.737279 0
M  V30 15042 C 1406.92 1.35702 1.49224 0
M  V30 15043 C 1407.24 -0.0450282 1.95548 0
M  V30 15044 O 1408.44 -0.203495 2.70736 0
M  V30 15045 C 1406.9 2.38387 2.69629 0
M  V30 15046 C 1406.51 3.84295 2.30263 0
M  V30 15047 C 1408.25 2.4387 3.47459 0
M  V30 15048 C 1406.16 4.78626 3.47377 0
M  V30 15049 H 1405.09 0.50449 0.560362 0
M  V30 15050 H 1407.74 1.64926 0.804466 0
M  V30 15051 H 1406.12 2.0223 3.40469 0
M  V30 15052 H 1407.29 4.2948 1.66984 0
M  V30 15053 H 1405.61 3.82085 1.6553 0
M  V30 15054 H 1408.21 3.11539 4.34566 0
M  V30 15055 H 1408.55 1.46253 3.89764 0
M  V30 15056 H 1409.08 2.78908 2.83646 0
M  V30 15057 H 1405.82 5.77497 3.10124 0
M  V30 15058 H 1405.34 4.38123 4.09645 0
M  V30 15059 H 1407.02 4.9742 4.13742 0
M  V30 15060 N 1407.15 -0.967221 1.24429 0
M  V30 15061 C 1408.08 -2.07966 1.06172 0
M  V30 15062 C 1409.06 -1.70081 -0.0254566 0
M  V30 15063 O 1410.25 -1.93682 0.141705 0
M  V30 15064 C 1407.38 -3.4085 0.666251 0
M  V30 15065 C 1406.33 -3.92692 1.70225 0
M  V30 15066 C 1405.66 -5.21925 1.16183 0
M  V30 15067 C 1406.96 -4.20478 3.09831 0
M  V30 15068 H 1408.65 -2.23497 1.99222 0
M  V30 15069 H 1406.2 -1.07398 0.959255 0
M  V30 15070 H 1408.15 -4.1811 0.52552 0
M  V30 15071 H 1406.87 -3.2522 -0.299939 0
M  V30 15072 H 1405.53 -3.17588 1.83121 0
M  V30 15073 H 1405.18 -5.02655 0.186237 0
M  V30 15074 H 1404.88 -5.57579 1.85416 0
M  V30 15075 H 1406.41 -6.01795 1.03323 0
M  V30 15076 H 1407.82 -4.88442 3.00162 0
M  V30 15077 H 1406.22 -4.67362 3.7642 0
M  V30 15078 H 1407.29 -3.27235 3.57834 0
M  V30 15079 N 1408.63 -1.05812 -1.16797 0
M  V30 15080 C 1409.85 -0.792518 -1.91661 0
M  V30 15081 C 1410.28 0.646598 -1.76637 0
M  V30 15082 O 1409.64 1.44998 -1.08836 0
M  V30 15083 C 1409.69 -1.18585 -3.40544 0
M  V30 15084 O 1408.79 -0.321716 -4.11143 0
M  V30 15085 H 1408.13 -0.290066 -0.597292 0
M  V30 15086 H 1410.66 -1.41263 -1.48007 0
M  V30 15087 H 1410.67 -1.1553 -3.91301 0
M  V30 15088 H 1409.35 -2.23413 -3.50798 0
M  V30 15089 H 1407.92 -0.413403 -3.70601 0
M  V30 15090 N 1410.11 1.33347 -0.840014 0
M  V30 15091 C 1411.33 2.02485 -0.448856 0
M  V30 15092 C 1411.76 1.62781 0.942543 0
M  V30 15093 O 1411.12 0.82099 1.61646 0
M  V30 15094 C 1411.16 3.55928 -0.578582 0
M  V30 15095 O 1410.27 4.10507 0.394695 0
M  V30 15096 H 1409.61 0.63848 -0.182317 0
M  V30 15097 H 1412.14 1.70221 -1.13516 0
M  V30 15098 H 1412.15 4.05391 -0.460653 0
M  V30 15099 H 1410.82 3.8417 -1.5933 0
M  V30 15100 H 1409.4 3.72164 0.234227 0
M  V30 15101 N 1411.59 0.596556 1.45873 0
M  V30 15102 C 1412.86 0.0199562 1.9559 0
M  V30 15103 C 1413.24 -1.44479 1.53912 0
M  V30 15104 O 1412.59 -2.14173 0.796384 0
M  V30 15105 C 1412.8 0.206497 3.48389 0
M  V30 15106 C 1414.15 0.0815298 4.24522 0
M  V30 15107 O 1415.17 0.136045 3.5594 0
M  V30 15108 O 1414.03 -0.0426117 5.46483 0
M  V30 15109 H 1411.13 -0.0419913 0.825933 0
M  V30 15110 H 1413.67 0.665846 1.56092 0
M  V30 15111 H 1412.44 1.22422 3.71656 0
M  V30 15112 H 1412.07 -0.475175 3.9475 0
M  V30 15113 N 1413.06 -1.53996 0.335095 0
M  V30 15114 C 1414.34 -1.92984 -0.318848 0
M  V30 15115 C 1414.72 -1.26585 -1.68936 0
M  V30 15116 O 1414.07 -0.413702 -2.24724 0
M  V30 15117 C 1414.28 -3.46705 -0.399568 0
M  V30 15118 C 1415.63 -4.19527 -0.654411 0
M  V30 15119 O 1416.65 -3.52923 -0.482026 0
M  V30 15120 O 1415.51 -5.37499 -0.987756 0
M  V30 15121 H 1412.6 -0.806202 -0.1843 0
M  V30 15122 H 1415.15 -1.6526 0.385653 0
M  V30 15123 H 1413.92 -3.87235 0.56253 0
M  V30 15124 H 1413.54 -3.8057 -1.15119 0
M  V30 15125 N 1414.54 -0.0635198 -1.57472 0
M  V30 15126 C 1415.77 0.620205 -1.9791 0
M  V30 15127 C 1416.19 1.62851 -0.941335 0
M  V30 15128 O 1415.55 1.81056 0.0940313 0
M  V30 15129 C 1415.6 1.27261 -3.37397 0
M  V30 15130 O 1414.7 2.38841 -3.36197 0
M  V30 15131 H 1414.04 0.16021 -0.644382 0
M  V30 15132 H 1416.57 -0.135582 -2.0415 0
M  V30 15133 H 1416.58 1.6214 -3.74399 0
M  V30 15134 H 1415.26 0.533723 -4.12461 0
M  V30 15135 H 1413.83 2.05817 -3.10956 0
M  V30 15136 N 1416.02 1.56195 0.209972 0
M  V30 15137 C 1416.95 1.96378 1.26324 0
M  V30 15138 C 1417.93 0.833606 1.48273 0
M  V30 15139 O 1419.12 1.0968 1.60262 0
M  V30 15140 C 1416.25 2.29048 2.61064 0
M  V30 15141 C 1415.2 3.44665 2.53752 0
M  V30 15142 C 1414.53 3.6297 3.92628 0
M  V30 15143 C 1415.83 4.79297 2.07536 0
M  V30 15144 H 1417.52 2.8461 0.929379 0
M  V30 15145 H 1415.07 1.36931 0.445627 0
M  V30 15146 H 1417.02 2.55752 3.34916 0
M  V30 15147 H 1415.74 1.37682 2.96161 0
M  V30 15148 H 1414.4 3.18028 1.82356 0
M  V30 15149 H 1414.05 2.68961 4.25052 0
M  V30 15150 H 1413.75 4.40741 3.88614 0
M  V30 15151 H 1415.27 3.92035 4.68125 0
M  V30 15152 H 1416.69 5.05131 2.71138 0
M  V30 15153 H 1415.08 5.60433 2.14557 0
M  V30 15154 H 1416.15 4.73877 1.02802 0
M  V30 15155 N 1417.5 -0.477127 1.50204 0
M  V30 15156 C 1418.91 -0.81037 1.37496 0
M  V30 15157 C 1419.11 -1.96937 0.426399 0
M  V30 15158 O 1418.17 -2.52148 -0.133197 0
M  V30 15159 C 1419.48 -1.12811 2.78737 0
M  V30 15160 C 1421.03 -1.23492 2.87608 0
M  V30 15161 C 1421.51 -1.58583 4.29669 0
M  V30 15162 N 1423 -1.65586 4.32591 0
M  V30 15163 C 1423.73 -1.94231 5.39502 0
M  V30 15164 N 1423.23 -2.20936 6.56627 0
M  V30 15165 N 1425.02 -1.95682 5.26939 0
M  V30 15166 H 1417.17 0.286771 2.10455 0
M  V30 15167 H 1419.43 0.0657649 0.945716 0
M  V30 15168 H 1419.14 -0.349616 3.49958 0
M  V30 15169 H 1419.01 -2.0658 3.15602 0
M  V30 15170 H 1421.4 -2.0041 2.1661 0
M  V30 15171 H 1421.48 -0.277182 2.54294 0
M  V30 15172 H 1421.13 -0.822071 5.01203 0
M  V30 15173 H 1421.06 -2.55497 4.60466 0
M  V30 15174 H 1423.55 -1.47012 3.48132 0
M  V30 15175 H 1423.86 -2.42049 7.33916 0
M  V30 15176 H 1422.21 -2.18341 6.59812 0
M  V30 15177 H 1425.4 -1.74311 4.34434 0
M  V30 15178 H 1425.57 -2.1767 6.10347 0
M  V30 15179 N 1418.98 -1.3968 -0.729882 0
M  V30 15180 C 1420.2 -1.40654 -1.52418 0
M  V30 15181 C 1420.63 -0.00428997 -1.881 0
M  V30 15182 O 1419.98 0.984023 -1.52272 0
M  V30 15183 C 1420.03 -2.29057 -2.78506 0
M  V30 15184 O 1419.14 -1.72397 -3.74637 0
M  V30 15185 H 1418.48 -0.478761 -0.460091 0
M  V30 15186 H 1421.01 -1.83738 -0.900087 0
M  V30 15187 H 1421.02 -2.43748 -3.27187 0
M  V30 15188 H 1419.69 -3.30961 -2.51868 0
M  V30 15189 H 1418.27 -1.66977 -3.33426 0
M  V30 15190 N 1420.45 0.960609 -1.2494 0
M  V30 15191 C 1421.68 1.7446 -1.12153 0
M  V30 15192 C 1422.1 1.85335 0.321315 0
M  V30 15193 O 1421.46 1.32944 1.23271 0
M  V30 15194 C 1421.51 3.13945 -1.774 0
M  V30 15195 O 1420.61 3.9882 -1.04958 0
M  V30 15196 H 1419.96 0.536007 -0.391909 0
M  V30 15197 H 1422.49 1.2045 -1.65388 0
M  V30 15198 H 1422.5 3.64434 -1.83444 0
M  V30 15199 H 1421.17 3.05346 -2.82377 0
M  V30 15200 H 1419.75 3.57293 -1.06752 0
M  V30 15201 N 1421.93 1.0643 1.16234 0
M  V30 15202 C 1422.88 0.676311 2.20669 0
M  V30 15203 C 1423.85 -0.327721 1.62835 0
M  V30 15204 O 1425.03 -0.216296 1.8957 0
M  V30 15205 C 1422.17 0.0703726 3.45028 0
M  V30 15206 C 1421.29 1.12475 4.17101 0
M  V30 15207 C 1420.42 0.484806 5.28983 0
M  V30 15208 C 1419.46 1.52262 5.9286 0
M  V30 15209 N 1418.6 0.905938 6.96231 0
M  V30 15210 H 1423.44 1.57129 2.53209 0
M  V30 15211 H 1420.98 0.7856 1.24365 0
M  V30 15212 H 1422.93 -0.298488 4.16131 0
M  V30 15213 H 1421.56 -0.788002 3.13034 0
M  V30 15214 H 1420.62 1.6113 3.44589 0
M  V30 15215 H 1421.93 1.91202 4.60698 0
M  V30 15216 H 1421.08 0.0630553 6.06667 0
M  V30 15217 H 1419.82 -0.334332 4.86553 0
M  V30 15218 H 1418.83 1.95425 5.13896 0
M  V30 15219 H 1420.05 2.34388 6.37369 0
M  V30 15220 H 1418 0.107536 6.55912 0
M  V30 15221 H 1417.91 1.63058 7.38206 0
M  V30 15222 H 1419.18 0.509378 7.77834 0
M  V30 15223 N 1423.41 -1.329 0.847073 0
M  V30 15224 C 1424.34 -2.31546 0.301422 0
M  V30 15225 C 1425.32 -1.59342 -0.595317 0
M  V30 15226 O 1426.51 -1.87188 -0.517151 0
M  V30 15227 C 1423.64 -3.43423 -0.517454 0
M  V30 15228 C 1422.59 -4.27055 0.284195 0
M  V30 15229 C 1421.92 -5.30624 -0.658944 0
M  V30 15230 C 1423.22 -5.00123 1.50578 0
M  V30 15231 H 1424.91 -2.77433 1.12567 0
M  V30 15232 H 1422.46 -1.3338 0.542739 0
M  V30 15233 H 1424.41 -4.11467 -0.909543 0
M  V30 15234 H 1423.13 -2.96246 -1.37499 0
M  V30 15235 H 1421.79 -3.60648 0.657944 0
M  V30 15236 H 1421.44 -4.79702 -1.51311 0
M  V30 15237 H 1421.14 -5.87464 -0.12662 0
M  V30 15238 H 1422.66 -6.01533 -1.04837 0
M  V30 15239 H 1424.08 -5.6089 1.18641 0
M  V30 15240 H 1422.48 -5.66652 1.97549 0
M  V30 15241 H 1423.55 -4.28424 2.27115 0
M  V30 15242 N 1424.89 -0.604284 -1.45555 0
M  V30 15243 C 1425.82 0.154579 -2.28678 0
M  V30 15244 C 1426.83 0.83491 -1.39761 0
M  V30 15245 O 1428.02 0.700852 -1.64166 0
M  V30 15246 C 1425.12 1.2397 -3.15412 0
M  V30 15247 C 1424.3 0.647128 -4.32586 0
M  V30 15248 C 1423.35 1.62272 -5.00554 0
M  V30 15249 O 1422.38 1.15031 -5.57455 0
M  V30 15250 N 1423.58 2.9571 -4.99536 0
M  V30 15251 H 1426.35 -0.558668 -2.94447 0
M  V30 15252 H 1423.91 -0.443538 -1.55706 0
M  V30 15253 H 1425.9 1.89209 -3.57746 0
M  V30 15254 H 1424.47 1.85552 -2.51574 0
M  V30 15255 H 1423.69 -0.183261 -3.93774 0
M  V30 15256 H 1424.98 0.231394 -5.08274 0
M  V30 15257 H 1424.38 3.36695 -4.54591 0
M  V30 15258 H 1422.93 3.56381 -5.45744 0
M  V30 15259 N 1426.37 1.53816 -0.343257 0
M  V30 15260 C 1427.59 2.05796 0.257418 0
M  V30 15261 C 1428.02 1.2166 1.43459 0
M  V30 15262 O 1427.37 0.230278 1.79832 0
M  V30 15263 C 1427.42 3.54681 0.65068 0
M  V30 15264 O 1426.53 3.73394 1.75074 0
M  V30 15265 H 1425.87 0.662622 0.042757 0
M  V30 15266 H 1428.4 1.98462 -0.497386 0
M  V30 15267 H 1428.41 3.97308 0.927914 0
M  V30 15268 H 1427.08 4.15368 -0.210199 0
M  V30 15269 H 1425.66 3.42669 1.4708 0
M  V30 15270 N 1427.84 0.0718701 1.57436 0
M  V30 15271 C 1428.79 -0.905443 2.0925 0
M  V30 15272 C 1429.78 -1.25875 1.00221 0
M  V30 15273 O 1430.97 -1.23771 1.26529 0
M  V30 15274 C 1428.1 -2.17298 2.65775 0
M  V30 15275 C 1427.19 -1.84614 3.81809 0
M  V30 15276 N 1427.58 -1.22381 4.90771 0
M  V30 15277 C 1425.87 -2.14364 3.91106 0
M  V30 15278 C 1426.58 -1.07791 5.71626 0
M  V30 15279 N 1425.55 -1.58764 5.19899 0
M  V30 15280 H 1429.35 -0.419955 2.90884 0
M  V30 15281 H 1426.87 -0.132017 1.61863 0
M  V30 15282 H 1428.86 -2.88231 3.01211 0
M  V30 15283 H 1427.52 -2.66434 1.85588 0
M  V30 15284 H 1428.54 -0.89345 5.10135 0
M  V30 15285 H 1425.21 -2.65877 3.21894 0
M  V30 15286 H 1426.6 -0.593061 6.69278 0
M  V30 15287 N 1429.32 -1.56304 -0.201686 0
M  V30 15288 C 1430.26 -1.8907 -1.27781 0
M  V30 15289 C 1431.23 -0.75009 -1.44265 0
M  V30 15290 O 1432.42 -1.00044 -1.59761 0
M  V30 15291 C 1429.54 -2.11513 -2.64537 0
M  V30 15292 C 1428.59 -3.34214 -2.64959 0
M  V30 15293 S 1429.42 -4.89541 -2.17047 0
M  V30 15294 C 1430.58 -5.15044 -3.55641 0
M  V30 15295 H 1430.81 -2.8005 -0.997971 0
M  V30 15296 H 1428.35 -1.48997 -0.404872 0
M  V30 15297 H 1430.3 -2.25126 -3.43262 0
M  V30 15298 H 1428.96 -1.21295 -2.89735 0
M  V30 15299 H 1428.16 -3.47023 -3.65501 0
M  V30 15300 H 1427.76 -3.1956 -1.94312 0
M  V30 15301 H 1430.05 -5.05161 -4.51463 0
M  V30 15302 H 1430.99 -6.16838 -3.47731 0
M  V30 15303 H 1431.4 -4.42704 -3.50248 0
M  V30 15304 N 1430.8 0.469154 -1.50455 0
M  V30 15305 C 1432.22 0.803067 -1.37924 0
M  V30 15306 C 1432.42 1.96708 -0.436837 0
M  V30 15307 O 1431.47 2.52216 0.119823 0
M  V30 15308 C 1432.79 1.11332 -2.79331 0
M  V30 15309 C 1434.33 1.21965 -2.88259 0
M  V30 15310 C 1434.81 1.56302 -4.30504 0
M  V30 15311 N 1436.3 1.6329 -4.33464 0
M  V30 15312 C 1437.03 1.91367 -5.40524 0
M  V30 15313 N 1436.53 2.17451 -6.57789 0
M  V30 15314 N 1438.32 1.92885 -5.2797 0
M  V30 15315 H 1430.47 -0.297928 -2.103 0
M  V30 15316 H 1432.74 -0.0707794 -0.945354 0
M  V30 15317 H 1432.44 0.331052 -3.50138 0
M  V30 15318 H 1432.32 2.04903 -3.16693 0
M  V30 15319 H 1434.7 1.99259 -2.17669 0
M  V30 15320 H 1434.79 0.263692 -2.54437 0
M  V30 15321 H 1434.43 0.795479 -5.01632 0
M  V30 15322 H 1434.36 2.53052 -4.61814 0
M  V30 15323 H 1436.85 1.45164 -3.48907 0
M  V30 15324 H 1437.16 2.38154 -7.35189 0
M  V30 15325 H 1435.51 2.14839 -6.60961 0
M  V30 15326 H 1438.7 1.72005 -4.35353 0
M  V30 15327 H 1438.87 2.1443 -6.11493 0
M  V30 15328 N 1432.28 1.40065 0.722464 0
M  V30 15329 C 1433.23 1.36267 1.82798 0
M  V30 15330 C 1434.21 0.241375 1.59079 0
M  V30 15331 O 1435.4 0.479929 1.70369 0
M  V30 15332 C 1432.53 1.22086 3.20858 0
M  V30 15333 C 1431.62 2.38969 3.50364 0
M  V30 15334 N 1432.01 3.6445 3.50727 0
M  V30 15335 C 1430.31 2.32199 3.80788 0
M  V30 15336 C 1431.01 4.41816 3.78383 0
M  V30 15337 N 1429.99 3.71565 3.96787 0
M  V30 15338 H 1433.79 2.31236 1.81403 0
M  V30 15339 H 1431.3 1.33739 0.92128 0
M  V30 15340 H 1433.3 1.17448 4.00014 0
M  V30 15341 H 1431.96 0.280787 3.23484 0
M  V30 15342 H 1432.97 3.97705 3.3174 0
M  V30 15343 H 1429.65 1.46521 3.90945 0
M  V30 15344 H 1431.04 5.5064 3.85027 0
M  V30 15345 N 1433.76 -0.95397 1.25448 0
M  V30 15346 C 1434.98 -1.73863 1.13077 0
M  V30 15347 C 1435.41 -1.85503 -0.311481 0
M  V30 15348 O 1434.77 -1.33596 -1.22564 0
M  V30 15349 C 1434.81 -3.13 1.79062 0
M  V30 15350 O 1433.92 -3.98258 1.07072 0
M  V30 15351 H 1433.26 -0.533921 0.394746 0
M  V30 15352 H 1435.79 -1.19571 1.66024 0
M  V30 15353 H 1435.8 -3.63456 1.85374 0
M  V30 15354 H 1434.47 -3.03844 2.83992 0
M  V30 15355 H 1433.05 -3.56722 1.08645 0
M  V30 15356 N 1435.24 -1.07045 -1.15668 0
M  V30 15357 C 1436.51 -0.704942 -1.82455 0
M  V30 15358 C 1436.89 0.812921 -1.9482 0
M  V30 15359 O 1436.24 1.72615 -1.49721 0
M  V30 15360 C 1436.45 -1.41574 -3.18995 0
M  V30 15361 C 1437.8 -1.56584 -3.94673 0
M  V30 15362 O 1438.82 -1.37626 -3.28538 0
M  V30 15363 O 1437.68 -1.87751 -5.13237 0
M  V30 15364 H 1434.78 -0.250469 -0.788159 0
M  V30 15365 H 1437.32 -1.17118 -1.22806 0
M  V30 15366 H 1436.09 -2.4504 -3.05075 0
M  V30 15367 H 1435.72 -0.940071 -3.86327 0
M  V30 15368 N 1436.71 1.32449 -0.85411 0
M  V30 15369 C 1437.94 2.01997 -0.470307 0
M  V30 15370 C 1438.36 1.63772 0.925225 0
M  V30 15371 O 1437.72 0.838089 1.60766 0
M  V30 15372 C 1437.77 3.55294 -0.616301 0
M  V30 15373 O 1436.87 4.10902 0.351133 0
M  V30 15374 H 1436.21 0.63651 -0.189079 0
M  V30 15375 H 1438.74 1.69008 -1.15315 0
M  V30 15376 H 1438.75 4.0488 -0.503624 0
M  V30 15377 H 1437.43 3.82459 -1.63396 0
M  V30 15378 H 1436.01 3.72391 0.194741 0
M  V30 15379 N 1438.19 0.611994 1.45232 0
M  V30 15380 C 1439.44 0.106467 2.01419 0
M  V30 15381 C 1439.75 -1.2723 1.48566 0
M  V30 15382 O 1440.96 -1.8708 1.96757 0
M  V30 15383 C 1439.42 0.139639 3.59629 0
M  V30 15384 C 1439.02 1.51853 4.21479 0
M  V30 15385 C 1440.77 -0.310417 4.23364 0
M  V30 15386 C 1438.67 1.50785 5.71855 0
M  V30 15387 H 1437.6 0.0360345 0.753138 0
M  V30 15388 H 1440.26 0.767974 1.66657 0
M  V30 15389 H 1438.64 -0.588606 3.91601 0
M  V30 15390 H 1439.81 2.26884 4.01074 0
M  V30 15391 H 1438.13 1.91105 3.69956 0
M  V30 15392 H 1440.72 -0.337656 5.33633 0
M  V30 15393 H 1441.07 -1.33398 3.94348 0
M  V30 15394 H 1441.6 0.364704 3.96125 0
M  V30 15395 H 1438.34 2.50916 6.05575 0
M  V30 15396 H 1437.86 0.800195 5.94438 0
M  V30 15397 H 1439.54 1.23341 6.35135 0
M  V30 15398 N 1439.67 -1.53632 0.351409 0
M  V30 15399 C 1440.89 -2.0593 -0.246501 0
M  V30 15400 C 1441.32 -1.22419 -1.42812 0
M  V30 15401 O 1440.68 -0.239811 -1.79707 0
M  V30 15402 C 1440.73 -3.55021 -0.631862 0
M  V30 15403 O 1439.83 -3.74317 -1.73092 0
M  V30 15404 H 1439.17 -0.662839 -0.0392424 0
M  V30 15405 H 1441.7 -1.98196 0.507904 0
M  V30 15406 H 1441.71 -3.97795 -0.906831 0
M  V30 15407 H 1440.39 -4.15251 0.232224 0
M  V30 15408 H 1438.96 -3.43444 -1.4526 0
M  V30 15409 N 1441.15 -0.0802183 -1.57396 0
M  V30 15410 C 1442.37 0.599179 -1.98556 0
M  V30 15411 C 1442.8 1.61844 -0.958555 0
M  V30 15412 O 1442.16 1.81146 0.0748226 0
M  V30 15413 C 1442.2 1.23675 -3.38728 0
M  V30 15414 O 1441.31 2.35262 -3.38712 0
M  V30 15415 H 1440.65 0.153366 -0.646045 0
M  V30 15416 H 1443.18 -0.157227 -2.03995 0
M  V30 15417 H 1443.19 1.5816 -3.76098 0
M  V30 15418 H 1441.86 0.489946 -4.13004 0
M  V30 15419 H 1440.44 2.02507 -3.13122 0
M  V30 15420 N 1442.63 1.56409 0.193394 0
M  V30 15421 C 1443.56 1.97707 1.24234 0
M  V30 15422 C 1444.54 0.849286 1.47381 0
M  V30 15423 O 1445.72 1.11374 1.59089 0
M  V30 15424 C 1442.85 2.31804 2.5862 0
M  V30 15425 C 1441.81 3.47337 2.50082 0
M  V30 15426 C 1441.13 3.67114 3.88756 0
M  V30 15427 C 1442.43 4.81472 2.02441 0
M  V30 15428 H 1444.13 2.8558 0.89914 0
M  V30 15429 H 1441.67 1.37396 0.431078 0
M  V30 15430 H 1443.62 2.5929 3.32185 0
M  V30 15431 H 1442.35 1.40816 2.94684 0
M  V30 15432 H 1441.01 3.19944 1.78973 0
M  V30 15433 H 1440.66 2.73454 4.22175 0
M  V30 15434 H 1440.36 4.44838 3.83918 0
M  V30 15435 H 1441.88 3.96978 4.6394 0
M  V30 15436 H 1443.29 5.07978 2.65766 0
M  V30 15437 H 1441.69 5.62677 2.08601 0
M  V30 15438 H 1442.76 4.74941 0.977704 0
M  V30 15439 N 1444.1 -0.461169 1.50702 0
M  V30 15440 C 1445.07 -1.54032 1.69725 0
M  V30 15441 C 1446.07 -1.50445 0.567707 0
M  V30 15442 O 1447.26 -1.52889 0.834901 0
M  V30 15443 C 1444.39 -2.93642 1.73168 0
M  V30 15444 H 1445.58 -1.38478 2.66015 0
M  V30 15445 H 1443.13 -0.688235 1.40332 0
M  V30 15446 H 1443.87 -3.14629 0.786078 0
M  V30 15447 H 1443.65 -2.97652 2.55236 0
M  V30 15448 H 1445.14 -3.71972 1.89807 0
M  V30 15449 N 1445.58 -1.40446 -0.715026 0
M  V30 15450 C 1446.81 -1.42263 -1.50917 0
M  V30 15451 C 1447.23 -0.0242402 -1.88084 0
M  V30 15452 O 1446.59 0.967817 -1.53307 0
M  V30 15453 C 1446.64 -2.31998 -2.7606 0
M  V30 15454 O 1445.74 -1.76361 -3.72787 0
M  V30 15455 H 1445.08 -0.483614 -0.454988 0
M  V30 15456 H 1447.61 -1.84682 -0.880549 0
M  V30 15457 H 1447.62 -2.47204 -3.24583 0
M  V30 15458 H 1446.3 -3.33614 -2.48343 0
M  V30 15459 H 1444.87 -1.70504 -3.31636 0
M  V30 15460 N 1447.06 0.947303 -1.25952 0
M  V30 15461 C 1447.97 2.07878 -1.08738 0
M  V30 15462 C 1448.99 1.73985 -0.0225212 0
M  V30 15463 O 1450.16 2.00139 -0.224984 0
M  V30 15464 C 1447.23 3.39231 -0.715756 0
M  V30 15465 C 1446.29 3.86945 -1.85935 0
M  V30 15466 C 1445.52 5.1203 -1.50537 0
M  V30 15467 O 1445.74 5.68965 -0.404323 0
M  V30 15468 O 1444.68 5.54634 -2.33805 0
M  V30 15469 H 1448.5 2.25305 -2.03645 0
M  V30 15470 H 1446.09 1.06321 -1.04958 0
M  V30 15471 H 1447.97 4.18167 -0.520962 0
M  V30 15472 H 1446.65 3.23057 0.203978 0
M  V30 15473 H 1445.55 3.08981 -2.10906 0
M  V30 15474 H 1446.89 4.0763 -2.75859 0
M  V30 15475 N 1448.54 1.07657 1.15099 0
M  V30 15476 C 1449.95 0.802696 1.37945 0
M  V30 15477 C 1450.15 -0.591622 1.92619 0
M  V30 15478 O 1449.21 -1.34979 2.13394 0
M  V30 15479 C 1450.52 1.87907 2.34759 0
M  V30 15480 C 1452.07 1.90418 2.48415 0
M  V30 15481 C 1452.55 2.97148 3.48521 0
M  V30 15482 N 1454.04 2.96271 3.56059 0
M  V30 15483 C 1454.77 3.75498 4.33346 0
M  V30 15484 N 1454.27 4.64583 5.1394 0
M  V30 15485 N 1456.06 3.63831 4.28466 0
M  V30 15486 H 1448.21 1.97578 0.779537 0
M  V30 15487 H 1450.48 0.856978 0.405331 0
M  V30 15488 H 1450.18 2.8811 2.01707 0
M  V30 15489 H 1450.06 1.74183 3.34575 0
M  V30 15490 H 1452.44 0.908655 2.80762 0
M  V30 15491 H 1452.52 2.0822 1.48586 0
M  V30 15492 H 1452.17 3.96903 3.16908 0
M  V30 15493 H 1452.1 2.76593 4.48112 0
M  V30 15494 H 1454.59 2.31697 2.98538 0
M  V30 15495 H 1454.9 5.2166 5.70167 0
M  V30 15496 H 1453.25 4.6863 5.13236 0
M  V30 15497 H 1456.44 2.93609 3.6457 0
M  V30 15498 H 1456.61 4.25818 4.8845 0
M  V30 15499 N 1450.02 -1.31994 0.861122 0
M  V30 15500 C 1450.93 -2.32495 0.313555 0
M  V30 15501 C 1451.94 -1.64331 -0.571966 0
M  V30 15502 O 1453.12 -1.9582 -0.470794 0
M  V30 15503 C 1450.18 -3.43311 -0.483603 0
M  V30 15504 C 1449.24 -4.27153 0.428825 0
M  V30 15505 C 1448.48 -5.32676 -0.330383 0
M  V30 15506 O 1448.7 -5.48665 -1.55957 0
M  V30 15507 O 1447.63 -6.01116 0.307174 0
M  V30 15508 H 1451.46 -2.81234 1.14636 0
M  V30 15509 H 1449.05 -1.35734 0.624239 0
M  V30 15510 H 1450.93 -4.10877 -0.935831 0
M  V30 15511 H 1449.6 -2.9675 -1.2931 0
M  V30 15512 H 1448.51 -3.62372 0.929366 0
M  V30 15513 H 1449.84 -4.77255 1.20368 0
M  V30 15514 N 1451.49 -0.619688 -1.44906 0
M  V30 15515 C 1452.72 -0.12618 -2.06214 0
M  V30 15516 C 1453.13 1.19978 -1.46294 0
M  V30 15517 O 1452.48 1.74437 -0.575956 0
M  V30 15518 C 1452.54 0.075085 -3.59422 0
M  V30 15519 C 1452.2 -1.17094 -4.41744 0
M  V30 15520 C 1453.2 -2.09196 -4.75955 0
M  V30 15521 C 1450.88 -1.40315 -4.82304 0
M  V30 15522 C 1452.88 -3.22839 -5.49594 0
M  V30 15523 C 1450.56 -2.54257 -5.55695 0
M  V30 15524 C 1451.56 -3.45346 -5.89258 0
M  V30 15525 O 1451.25 -4.57302 -6.61158 0
M  V30 15526 H 1450.98 -0.0715975 -0.672198 0
M  V30 15527 H 1453.54 -0.850858 -1.86948 0
M  V30 15528 H 1451.77 0.854787 -3.77134 0
M  V30 15529 H 1453.46 0.521707 -4.02533 0
M  V30 15530 H 1454.22 -1.92486 -4.45168 0
M  V30 15531 H 1450.1 -0.703094 -4.55607 0
M  V30 15532 H 1453.64 -3.93959 -5.7571 0
M  V30 15533 H 1449.54 -2.70915 -5.85897 0
M  V30 15534 H 1450.31 -4.56138 -6.79618 0
M  V30 15535 N 1452.97 1.53444 -0.359552 0
M  V30 15536 C 1454.22 2.00348 0.233109 0
M  V30 15537 C 1454.53 1.25104 1.50361 0
M  V30 15538 O 1455.74 1.62566 2.1745 0
M  V30 15539 C 1454.2 3.56871 0.465951 0
M  V30 15540 C 1453.8 4.40987 -0.789571 0
M  V30 15541 C 1455.55 4.12148 1.0166 0
M  V30 15542 C 1453.46 5.8905 -0.526646 0
M  V30 15543 H 1452.39 0.748502 0.0908851 0
M  V30 15544 H 1455.04 1.77182 -0.47736 0
M  V30 15545 H 1453.42 3.76167 1.23753 0
M  V30 15546 H 1454.59 4.33465 -1.56348 0
M  V30 15547 H 1452.91 3.96784 -1.263 0
M  V30 15548 H 1455.5 5.20395 1.22853 0
M  V30 15549 H 1455.85 3.66364 1.97694 0
M  V30 15550 H 1456.38 3.96626 0.305334 0
M  V30 15551 H 1453.12 6.39099 -1.45715 0
M  V30 15552 H 1452.64 5.99436 0.208875 0
M  V30 15553 H 1454.32 6.46826 -0.149889 0
M  V30 15554 N 1454.45 0.0885642 1.57351 0
M  V30 15555 C 1455.68 -0.585238 1.9845 0
M  V30 15556 C 1456.09 -1.62127 0.967483 0
M  V30 15557 O 1455.45 -1.82448 -0.0437565 0
M  V30 15558 C 1455.5 -1.23881 3.39611 0
M  V30 15559 O 1455.22 -0.244223 4.37419 0
M  V30 15560 C 1456.72 -1.99885 3.95678 0
M  V30 15561 H 1453.94 -0.157396 0.652279 0
M  V30 15562 H 1456.49 0.165923 2.03826 0
M  V30 15563 H 1454.64 -1.94094 3.3527 0
M  V30 15564 H 1455.06 -0.715149 5.19602 0
M  V30 15565 H 1456.53 -2.40983 4.9662 0
M  V30 15566 H 1457.01 -2.8621 3.33137 0
M  V30 15567 H 1457.61 -1.34501 4.03472 0
M  V30 15568 N 1455.93 -1.56509 -0.185096 0
M  V30 15569 C 1457.15 -1.85683 -0.923941 0
M  V30 15570 C 1457.58 -0.673315 -1.75636 0
M  V30 15571 O 1456.94 0.3778 -1.7732 0
M  V30 15572 C 1456.98 -3.13165 -1.78774 0
M  V30 15573 O 1456.09 -2.9442 -2.88775 0
M  V30 15574 H 1455.43 -0.611139 -0.259624 0
M  V30 15575 H 1457.96 -2.0374 -0.187393 0
M  V30 15576 H 1457.97 -3.44216 -2.19042 0
M  V30 15577 H 1456.64 -3.98922 -1.17619 0
M  V30 15578 H 1455.22 -2.7469 -2.5219 0
M  V30 15579 N 1457.41 0.45317 -1.50944 0
M  V30 15580 C 1458.34 1.55655 -1.74051 0
M  V30 15581 C 1459.32 1.59545 -0.58987 0
M  V30 15582 O 1460.5 1.75526 -0.830922 0
M  V30 15583 C 1457.63 2.93857 -1.85109 0
M  V30 15584 C 1456.59 3.04832 -3.00435 0
M  V30 15585 C 1455.91 4.44858 -2.96657 0
M  V30 15586 C 1457.21 2.80381 -4.40663 0
M  V30 15587 H 1458.91 1.36571 -2.66437 0
M  V30 15588 H 1456.45 0.655572 -1.28212 0
M  V30 15589 H 1458.41 3.70992 -1.99857 0
M  V30 15590 H 1457.13 3.14138 -0.893579 0
M  V30 15591 H 1455.79 2.30134 -2.85366 0
M  V30 15592 H 1455.44 4.62083 -1.98716 0
M  V30 15593 H 1455.14 4.53134 -3.7409 0
M  V30 15594 H 1456.66 5.23989 -3.13478 0
M  V30 15595 H 1458.07 3.47255 -4.56165 0
M  V30 15596 H 1456.47 3.00083 -5.19683 0
M  V30 15597 H 1457.54 1.76099 -4.51793 0
M  V30 15598 N 1458.88 1.40823 0.707568 0
M  V30 15599 C 1460.16 1.3003 1.46122 0
M  V30 15600 C 1460.54 -0.0776873 2.10957 0
M  V30 15601 O 1459.89 -1.09109 2.00767 0
M  V30 15602 C 1460.1 2.44498 2.49042 0
M  V30 15603 C 1461.45 2.85106 3.14642 0
M  V30 15604 O 1462.47 2.44149 2.59364 0
M  V30 15605 O 1461.33 3.55892 4.14733 0
M  V30 15606 H 1458.42 0.511082 0.650172 0
M  V30 15607 H 1460.97 1.52761 0.739062 0
M  V30 15608 H 1459.74 3.36502 1.99705 0
M  V30 15609 H 1459.37 2.23579 3.28783 0
M  V30 15610 N 1460.36 -0.94061 1.26453 0
M  V30 15611 C 1461.29 -2.05667 1.10559 0
M  V30 15612 C 1462.27 -1.70097 0.0106258 0
M  V30 15613 O 1463.46 -1.93338 0.182756 0
M  V30 15614 C 1460.59 -3.3936 0.7384 0
M  V30 15615 C 1459.54 -3.88993 1.78517 0
M  V30 15616 C 1458.87 -5.19343 1.27228 0
M  V30 15617 C 1460.17 -4.13812 3.1868 0
M  V30 15618 H 1461.86 -2.19221 2.03918 0
M  V30 15619 H 1459.41 -1.05339 0.98182 0
M  V30 15620 H 1461.36 -4.16902 0.61409 0
M  V30 15621 H 1460.09 -3.25783 -0.230887 0
M  V30 15622 H 1458.74 -3.13633 1.89816 0
M  V30 15623 H 1458.39 -5.02147 0.292816 0
M  V30 15624 H 1458.09 -5.53521 1.97201 0
M  V30 15625 H 1459.62 -5.99468 1.16065 0
M  V30 15626 H 1461.03 -4.81966 3.10455 0
M  V30 15627 H 1459.43 -4.59273 3.86249 0
M  V30 15628 H 1460.5 -3.19571 3.64695 0
M  V30 15629 N 1461.84 -1.08266 -1.14527 0
M  V30 15630 C 1463.07 -0.832994 -1.89937 0
M  V30 15631 C 1463.49 0.608985 -1.77969 0
M  V30 15632 O 1462.85 1.42657 -1.11887 0
M  V30 15633 C 1462.9 -1.25782 -3.37952 0
M  V30 15634 O 1462 -0.408853 -4.10368 0
M  V30 15635 H 1461.34 -0.30267 -0.591005 0
M  V30 15636 H 1463.87 -1.44371 -1.44977 0
M  V30 15637 H 1463.88 -1.23804 -3.88763 0
M  V30 15638 H 1462.56 -2.30804 -3.4598 0
M  V30 15639 H 1461.13 -0.49192 -3.69641 0
M  V30 15640 N 1463.32 1.31536 -0.86811 0
M  V30 15641 C 1464.28 2.26849 -0.327456 0
M  V30 15642 C 1465.28 1.52142 0.520514 0
M  V30 15643 O 1466.47 1.71044 0.330088 0
M  V30 15644 C 1463.6 3.36673 0.535174 0
M  V30 15645 H 1464.8 2.76184 -1.16886 0
M  V30 15646 H 1462.35 1.42437 -0.643545 0
M  V30 15647 H 1463.09 2.92627 1.39785 0
M  V30 15648 H 1462.87 3.92034 -0.0719835 0
M  V30 15649 H 1464.36 4.07658 0.905786 0
M  V30 15650 N 1464.8 0.627364 1.44575 0
M  V30 15651 C 1465.75 -0.0920488 2.32418 0
M  V30 15652 C 1466.74 -0.839633 1.47128 0
M  V30 15653 O 1467.95 -0.752958 1.63495 0
M  V30 15654 H 1464.32 -0.0485336 0.750432 0
M  V30 15655 H 1466.29 0.666959 2.90851 0
M  V30 15656 C 1465.04 -1.06262 3.31064 0
M  V30 15657 H 1464.36 -0.4968 3.96701 0
M  V30 15658 H 1465.8 -1.53556 3.95217 0
M  V30 15659 C 1464.26 -2.14601 2.59707 0
M  V30 15660 O 1464.79 -3.2263 2.39317 0
M  V30 15661 N 1463 -1.90431 2.19509 0
M  V30 15662 H 1462.55 -1.02584 2.36293 0
M  V30 15663 H 1462.5 -2.6312 1.72091 0
M  V30 15664 N 1466.28 -1.53251 0.367684 0
M  V30 15665 C 1467.19 -2.29518 -0.485669 0
M  V30 15666 C 1468.2 -1.35568 -1.09075 0
M  V30 15667 O 1469.38 -1.68626 -1.10124 0
M  V30 15668 C 1466.44 -3.07115 -1.60876 0
M  V30 15669 C 1465.5 -4.16736 -1.031 0
M  V30 15670 C 1464.74 -4.90624 -2.10056 0
M  V30 15671 O 1464.96 -4.64393 -3.31203 0
M  V30 15672 O 1463.89 -5.76503 -1.72996 0
M  V30 15673 H 1467.72 -3.034 0.135017 0
M  V30 15674 H 1465.3 -1.48816 0.132005 0
M  V30 15675 H 1467.19 -3.55564 -2.26168 0
M  V30 15676 H 1465.86 -2.36068 -2.21481 0
M  V30 15677 H 1464.77 -3.72534 -0.341928 0
M  V30 15678 H 1466.1 -4.89956 -0.469473 0
M  V30 15679 N 1467.75 -0.0969077 -1.57302 0
M  V30 15680 C 1468.68 0.858443 -2.17147 0
M  V30 15681 C 1469.66 1.29294 -1.10531 0
M  V30 15682 O 1470.85 1.3595 -1.38676 0
M  V30 15683 C 1467.98 2.11691 -2.75326 0
M  V30 15684 C 1466.93 1.82097 -3.8733 0
M  V30 15685 C 1466.26 3.14787 -4.32219 0
M  V30 15686 C 1467.56 1.10651 -5.10444 0
M  V30 15687 H 1469.25 0.35982 -2.9723 0
M  V30 15688 H 1466.8 0.17163 -1.42974 0
M  V30 15689 H 1468.75 2.78963 -3.15844 0
M  V30 15690 H 1467.48 2.63839 -1.925 0
M  V30 15691 H 1466.14 1.17222 -3.47354 0
M  V30 15692 H 1465.78 3.64826 -3.46281 0
M  V30 15693 H 1465.48 2.95769 -5.07735 0
M  V30 15694 H 1467.01 3.83215 -4.75372 0
M  V30 15695 H 1468.42 1.68036 -5.48121 0
M  V30 15696 H 1466.82 1.01805 -5.91401 0
M  V30 15697 H 1467.89 0.0895634 -4.84817 0
M  V30 15698 N 1469.23 1.56605 0.176793 0
M  V30 15699 C 1470.65 1.50601 0.528354 0
M  V30 15700 C 1470.85 0.800205 1.8493 0
M  V30 15701 O 1469.9 0.358299 2.49945 0
M  V30 15702 C 1471.22 2.95322 0.566172 0
M  V30 15703 C 1472.76 3.06097 0.653751 0
M  V30 15704 C 1473.24 4.52265 0.722511 0
M  V30 15705 N 1474.73 4.5649 0.785548 0
M  V30 15706 C 1475.47 5.66926 0.859232 0
M  V30 15707 N 1474.96 6.87006 0.894088 0
M  V30 15708 N 1476.75 5.54883 0.897832 0
M  V30 15709 H 1468.91 2.00899 -0.689442 0
M  V30 15710 H 1471.17 0.915011 -0.24791 0
M  V30 15711 H 1470.87 3.50095 -0.33566 0
M  V30 15712 H 1470.75 3.49671 1.41456 0
M  V30 15713 H 1473.14 2.51361 1.54601 0
M  V30 15714 H 1473.22 2.54842 -0.221207 0
M  V30 15715 H 1472.86 5.0763 -0.165469 0
M  V30 15716 H 1472.79 5.01271 1.61353 0
M  V30 15717 H 1475.28 3.70032 0.767117 0
M  V30 15718 H 1475.59 7.66922 0.951333 0
M  V30 15719 H 1473.94 6.89628 0.862457 0
M  V30 15720 H 1477.13 4.5999 0.867564 0
M  V30 15721 H 1477.3 6.40972 0.951795 0
M  V30 15722 N 1470.71 -0.445159 1.51182 0
M  V30 15723 C 1471.99 -1.20598 1.53998 0
M  V30 15724 C 1472.37 -2.08962 0.29967 0
M  V30 15725 O 1471.71 -2.17003 -0.715666 0
M  V30 15726 C 1471.92 -2.01461 2.84982 0
M  V30 15727 C 1473.27 -2.5877 3.36635 0
M  V30 15728 O 1474.3 -2.11679 2.86479 0
M  V30 15729 O 1473.16 -3.44637 4.24132 0
M  V30 15730 H 1470.25 -0.548635 0.618812 0
M  V30 15731 H 1472.8 -0.454865 1.6349 0
M  V30 15732 H 1471.57 -1.36511 3.66716 0
M  V30 15733 H 1471.19 -2.83654 2.78615 0
M  V30 15734 N 1472.19 -1.41197 -0.700089 0
M  V30 15735 C 1473.44 -1.39611 -1.45574 0
M  V30 15736 C 1473.75 -0.00683378 -1.95599 0
M  V30 15737 O 1474.96 0.131643 -2.71181 0
M  V30 15738 C 1473.41 -2.45452 -2.63214 0
M  V30 15739 C 1473.02 -3.90265 -2.19993 0
M  V30 15740 C 1474.76 -2.52996 -3.40871 0
M  V30 15741 C 1472.67 -4.87668 -3.34565 0
M  V30 15742 H 1471.6 -0.51917 -0.546789 0
M  V30 15743 H 1474.25 -1.67001 -0.760456 0
M  V30 15744 H 1472.63 -2.11186 -3.34987 0
M  V30 15745 H 1473.81 -4.33756 -1.55539 0
M  V30 15746 H 1472.12 -3.86339 -1.55341 0
M  V30 15747 H 1474.72 -3.22952 -4.26153 0
M  V30 15748 H 1475.06 -1.56536 -3.85749 0
M  V30 15749 H 1475.6 -2.86331 -2.76151 0
M  V30 15750 H 1472.33 -5.85517 -2.94704 0
M  V30 15751 H 1471.85 -4.4883 -3.97884 0
M  V30 15752 H 1473.53 -5.08215 -4.00409 0
M  V30 15753 N 1473.67 0.933891 -1.2695 0
M  V30 15754 C 1474.94 1.65874 -1.0366 0
M  V30 15755 C 1475.32 2.0666 0.43066 0
M  V30 15756 O 1474.67 1.79606 1.41259 0
M  V30 15757 C 1474.88 2.86546 -1.99229 0
M  V30 15758 C 1476.23 3.58031 -2.28251 0
M  V30 15759 O 1477.25 2.96663 -1.97154 0
M  V30 15760 O 1476.11 4.68583 -2.81233 0
M  V30 15761 H 1473.21 0.72673 -0.394706 0
M  V30 15762 H 1475.75 0.984975 -1.38189 0
M  V30 15763 H 1474.52 2.53351 -2.9821 0
M  V30 15764 H 1474.15 3.61645 -1.65224 0
M  V30 15765 N 1475.14 1.08871 1.13951 0
M  V30 15766 C 1476.11 0.726655 2.17376 0
M  V30 15767 C 1477.11 -0.240922 1.58985 0
M  V30 15768 O 1478.3 -0.0198472 1.74189 0
M  V30 15769 C 1475.43 0.0736505 3.4082 0
M  V30 15770 H 1476.62 1.64254 2.5092 0
M  V30 15771 H 1474.17 0.887183 1.28681 0
M  V30 15772 H 1474.91 -0.853733 3.12861 0
M  V30 15773 H 1474.69 0.769782 3.84469 0
M  V30 15774 H 1476.18 -0.164465 4.17276 0
M  V30 15775 N 1476.62 -1.31073 0.875073 0
M  V30 15776 C 1477.55 -2.30855 0.350468 0
M  V30 15777 C 1478.53 -1.60569 -0.561384 0
M  V30 15778 O 1479.72 -1.88242 -0.477329 0
M  V30 15779 C 1476.85 -3.44444 -0.444493 0
M  V30 15780 C 1475.8 -4.26357 0.374716 0
M  V30 15781 C 1475.13 -5.31903 -0.546243 0
M  V30 15782 C 1476.43 -4.96817 1.61153 0
M  V30 15783 H 1478.12 -2.74983 1.18427 0
M  V30 15784 H 1475.67 -1.32199 0.570909 0
M  V30 15785 H 1477.62 -4.13304 -0.82206 0
M  V30 15786 H 1476.34 -2.99096 -1.31185 0
M  V30 15787 H 1475 -3.59171 0.734295 0
M  V30 15788 H 1474.65 -4.82803 -1.41102 0
M  V30 15789 H 1474.35 -5.876 -0.00198173 0
M  V30 15790 H 1475.88 -6.03621 -0.920542 0
M  V30 15791 H 1477.29 -5.58247 1.30511 0
M  V30 15792 H 1475.69 -5.62334 2.09524 0
M  V30 15793 H 1476.76 -4.2351 2.36151 0
M  V30 15794 N 1478.1 -0.635022 -1.4424 0
M  V30 15795 C 1479.33 -0.146549 -2.06882 0
M  V30 15796 C 1479.75 1.17143 -1.4717 0
M  V30 15797 O 1479.11 1.71952 -0.574636 0
M  V30 15798 C 1479.16 -0.0494694 -3.60566 0
M  V30 15799 O 1478.26 0.993423 -4.00256 0
M  V30 15800 H 1477.6 -0.0865505 -0.658335 0
M  V30 15801 H 1480.13 -0.872803 -1.85049 0
M  V30 15802 H 1480.14 0.139839 -4.0776 0
M  V30 15803 H 1478.82 -1.01169 -4.03407 0
M  V30 15804 H 1477.39 0.778372 -3.64686 0
M  V30 15805 N 1479.58 1.53054 -0.375806 0
M  V30 15806 C 1480.51 2.23664 0.500685 0
M  V30 15807 C 1481.52 1.25432 1.03782 0
M  V30 15808 O 1482.71 1.51592 0.942451 0
M  V30 15809 C 1479.81 2.9288 1.70513 0
M  V30 15810 C 1478.99 4.17706 1.29772 0
M  V30 15811 C 1478.04 4.7004 2.36536 0
M  V30 15812 O 1477.07 5.33466 1.98502 0
M  V30 15813 N 1478.27 4.48732 3.68266 0
M  V30 15814 H 1481.04 2.99519 -0.104201 0
M  V30 15815 H 1478.6 1.60641 -0.201488 0
M  V30 15816 H 1480.59 3.24795 2.41433 0
M  V30 15817 H 1479.16 2.20416 2.21665 0
M  V30 15818 H 1478.38 3.91978 0.41795 0
M  V30 15819 H 1479.67 4.98837 1.00197 0
M  V30 15820 H 1479.07 3.98075 4.01936 0
M  V30 15821 H 1477.62 4.85172 4.3526 0
M  V30 15822 N 1481.06 0.105248 1.57248 0
M  V30 15823 C 1482 -0.850012 2.14577 0
M  V30 15824 C 1482.97 -1.27294 1.06703 0
M  V30 15825 O 1484.16 -1.35289 1.34542 0
M  V30 15826 C 1481.3 -2.09993 2.73856 0
M  V30 15827 C 1480.41 -1.72662 3.95995 0
M  V30 15828 C 1479.55 -2.92517 4.43404 0
M  V30 15829 C 1478.59 -2.5136 5.58108 0
M  V30 15830 N 1477.72 -3.64082 6.00324 0
M  V30 15831 H 1482.56 -0.354282 2.95887 0
M  V30 15832 H 1480.1 -0.163192 1.46192 0
M  V30 15833 H 1482.06 -2.83208 3.06348 0
M  V30 15834 H 1480.69 -2.57048 1.95259 0
M  V30 15835 H 1479.74 -0.893754 3.69752 0
M  V30 15836 H 1481.05 -1.38406 4.79213 0
M  V30 15837 H 1480.21 -3.73973 4.77734 0
M  V30 15838 H 1478.94 -3.2999 3.59107 0
M  V30 15839 H 1477.95 -1.68333 5.23397 0
M  V30 15840 H 1479.17 -2.15019 6.44161 0
M  V30 15841 H 1477.12 -4.01255 5.18971 0
M  V30 15842 H 1477.04 -3.33705 6.78363 0
M  V30 15843 H 1478.31 -4.46019 6.39287 0
M  V30 15844 N 1482.53 -1.56697 -0.168486 0
M  V30 15845 C 1483.77 -1.83952 -0.891116 0
M  V30 15846 C 1484.14 -0.68657 -1.79305 0
M  V30 15847 O 1485.34 -0.839644 -2.5535 0
M  V30 15848 C 1483.61 -3.16331 -1.66342 0
M  V30 15849 S 1485.17 -3.65077 -2.43442 0
M  V30 15850 H 1481.99 -0.645349 -0.298405 0
M  V30 15851 H 1484.59 -1.94904 -0.152554 0
M  V30 15852 H 1483.29 -3.98233 -0.991915 0
M  V30 15853 H 1482.82 -3.08328 -2.4433 0
M  V30 15854 H 1484.84 -3.32629 -3.68201 0
M  V30 15855 N 1484.01 0.437135 -1.51416 0
M  V30 15856 C 1485.25 1.19603 -1.65754 0
M  V30 15857 C 1485.62 1.88481 -0.365891 0
M  V30 15858 O 1486.82 2.66028 -0.385046 0
M  V30 15859 C 1485.09 2.18579 -2.82769 0
M  V30 15860 S 1486.65 3.02952 -3.17436 0
M  V30 15861 H 1483.47 0.405591 -0.583966 0
M  V30 15862 H 1486.07 0.487568 -1.89323 0
M  V30 15863 H 1484.77 1.66616 -3.75056 0
M  V30 15864 H 1484.3 2.94005 -2.6139 0
M  V30 15865 H 1486.32 4.20213 -2.63886 0
M  V30 15866 N 1485.49 1.41566 0.692592 0
M  V30 15867 C 1486.74 1.40381 1.44831 0
M  V30 15868 C 1487.05 0.0172068 1.95592 0
M  V30 15869 O 1488.26 -0.11726 2.71247 0
M  V30 15870 C 1486.71 2.46844 2.61908 0
M  V30 15871 C 1486.32 3.91426 2.17921 0
M  V30 15872 C 1488.07 2.548 3.39525 0
M  V30 15873 C 1485.97 4.89436 3.31974 0
M  V30 15874 H 1484.9 0.522062 0.544028 0
M  V30 15875 H 1487.55 1.67402 0.751589 0
M  V30 15876 H 1485.94 2.12959 3.33863 0
M  V30 15877 H 1487.11 4.34575 1.53236 0
M  V30 15878 H 1485.43 3.87158 1.5329 0
M  V30 15879 H 1488.02 3.25207 4.24434 0
M  V30 15880 H 1488.37 1.58579 3.84913 0
M  V30 15881 H 1488.9 2.87791 2.74629 0
M  V30 15882 H 1485.64 5.87071 2.91595 0
M  V30 15883 H 1485.16 4.50933 3.95499 0
M  V30 15884 H 1486.84 5.10331 3.97708 0
M  V30 15885 N 1486.97 -0.927146 1.27443 0
M  V30 15886 C 1488.19 -1.71426 1.16739 0
M  V30 15887 C 1488.62 -1.86122 -0.272063 0
M  V30 15888 O 1487.98 -1.36165 -1.19703 0
M  V30 15889 C 1488.02 -3.09131 1.85661 0
M  V30 15890 O 1487.13 -3.95897 1.15495 0
M  V30 15891 H 1486.47 -0.525428 0.405983 0
M  V30 15892 H 1489 -1.16022 1.68523 0
M  V30 15893 H 1489.01 -3.59442 1.93042 0
M  V30 15894 H 1487.68 -2.97752 2.90373 0
M  V30 15895 H 1486.26 -3.54337 1.16187 0
M  V30 15896 N 1488.45 -1.09474 -1.13372 0
M  V30 15897 C 1489.69 -0.832323 -1.84933 0
M  V30 15898 C 1490.03 0.640469 -1.83335 0
M  V30 15899 O 1489.3 1.47158 -1.2718 0
M  V30 15900 C 1489.58 -1.36876 -3.33072 0
M  V30 15901 C 1489.44 -2.90769 -3.43181 0
M  V30 15902 C 1490.76 -1.00294 -4.2852 0
M  V30 15903 H 1487.87 -0.30382 -0.671463 0
M  V30 15904 H 1490.52 -1.35622 -1.33066 0
M  V30 15905 H 1488.67 -0.923134 -3.77373 0
M  V30 15906 H 1490.34 -3.43784 -3.07588 0
M  V30 15907 H 1488.58 -3.27876 -2.84042 0
M  V30 15908 H 1489.25 -3.23381 -4.47358 0
M  V30 15909 H 1491.73 -1.38729 -3.92293 0
M  V30 15910 H 1490.6 -1.40533 -5.30605 0
M  V30 15911 H 1490.87 0.0888133 -4.42011 0
M  V30 15912 N 1489.92 1.30607 -0.882012 0
M  V30 15913 C 1490.87 2.2577 -0.318082 0
M  V30 15914 C 1491.86 1.51143 0.551774 0
M  V30 15915 O 1493.05 1.72498 0.396682 0
M  V30 15916 C 1490.18 3.40082 0.468967 0
M  V30 15917 C 1489.27 4.22067 -0.41481 0
M  V30 15918 N 1489.66 4.82613 -1.51389 0
M  V30 15919 C 1487.95 4.45508 -0.209391 0
M  V30 15920 C 1488.66 5.44007 -2.05988 0
M  V30 15921 N 1487.63 5.26435 -1.35524 0
M  V30 15922 H 1491.43 2.70128 -1.15793 0
M  V30 15923 H 1488.95 1.45013 -0.731091 0
M  V30 15924 H 1490.94 4.07298 0.889584 0
M  V30 15925 H 1489.6 2.97265 1.30629 0
M  V30 15926 H 1490.62 4.81916 -1.89676 0
M  V30 15927 H 1487.29 4.13296 0.591 0
M  V30 15928 H 1488.68 6.02068 -2.98268 0
M  V30 15929 N 1491.4 0.642663 1.43901 0
M  V30 15930 C 1492.33 -0.0419756 2.33462 0
M  V30 15931 C 1493.31 -0.822923 1.48869 0
M  V30 15932 O 1494.5 -0.786508 1.7756 0
M  V30 15933 C 1491.63 -1.01631 3.32097 0
M  V30 15934 C 1490.58 -0.346206 4.26597 0
M  V30 15935 C 1489.91 -1.43125 5.15189 0
M  V30 15936 C 1491.21 0.754799 5.16817 0
M  V30 15937 H 1492.9 0.705929 2.90959 0
M  V30 15938 H 1490.45 0.340924 1.39906 0
M  V30 15939 H 1492.4 -1.5041 3.93643 0
M  V30 15940 H 1491.13 -1.79525 2.72834 0
M  V30 15941 H 1489.78 0.121038 3.664 0
M  V30 15942 H 1489.43 -2.20135 4.52271 0
M  V30 15943 H 1489.13 -0.988194 5.79231 0
M  V30 15944 H 1490.66 -1.92061 5.79607 0
M  V30 15945 H 1492.07 0.349624 5.72233 0
M  V30 15946 H 1490.47 1.12169 5.89524 0
M  V30 15947 H 1491.54 1.61718 4.57138 0
M  V30 15948 N 1492.88 -1.52852 0.383918 0
M  V30 15949 C 1493.79 -2.3002 -0.461298 0
M  V30 15950 C 1494.81 -1.36717 -1.07631 0
M  V30 15951 O 1495.98 -1.69784 -1.08329 0
M  V30 15952 C 1493.05 -3.08804 -1.57609 0
M  V30 15953 C 1492.11 -4.17806 -0.986737 0
M  V30 15954 C 1491.34 -4.92825 -2.04841 0
M  V30 15955 O 1491.57 -4.67879 -3.26259 0
M  V30 15956 O 1490.5 -5.78306 -1.66871 0
M  V30 15957 H 1494.33 -3.03239 0.167189 0
M  V30 15958 H 1491.91 -1.48667 0.147781 0
M  V30 15959 H 1493.79 -3.57943 -2.22384 0
M  V30 15960 H 1492.47 -2.38404 -2.18964 0
M  V30 15961 H 1491.37 -3.72876 -0.302396 0
M  V30 15962 H 1492.71 -4.90426 -0.417481 0
M  V30 15963 N 1494.36 -0.113586 -1.5719 0
M  V30 15964 C 1495.31 0.849646 -2.11577 0
M  V30 15965 C 1496.29 1.23174 -1.03523 0
M  V30 15966 O 1497.49 1.20373 -1.29766 0
M  V30 15967 C 1494.61 2.10175 -2.71443 0
M  V30 15968 C 1493.7 1.74427 -3.8657 0
M  V30 15969 N 1494.09 1.09326 -4.93843 0
M  V30 15970 C 1492.39 2.03919 -3.96652 0
M  V30 15971 C 1493.09 0.925979 -5.74283 0
M  V30 15972 N 1492.07 1.44924 -5.23925 0
M  V30 15973 H 1495.87 0.342685 -2.91895 0
M  V30 15974 H 1493.38 0.0890561 -1.62156 0
M  V30 15975 H 1495.38 2.80144 -3.08747 0
M  V30 15976 H 1494.04 2.6142 -1.92587 0
M  V30 15977 H 1495.05 0.757883 -5.12325 0
M  V30 15978 H 1491.73 2.57249 -3.2883 0
M  V30 15979 H 1493.12 0.415406 -6.70615 0
M  V30 15980 N 1495.84 1.56784 0.160173 0
M  V30 15981 C 1496.77 2.00298 1.20012 0
M  V30 15982 C 1497.75 0.880356 1.45546 0
M  V30 15983 O 1498.93 1.14724 1.56691 0
M  V30 15984 C 1496.06 2.37238 2.53645 0
M  V30 15985 C 1495.02 3.52563 2.42658 0
M  V30 15986 C 1494.34 3.75278 3.80881 0
M  V30 15987 C 1495.64 4.85657 1.92183 0
M  V30 15988 H 1497.34 2.87423 0.838362 0
M  V30 15989 H 1494.88 1.3828 0.401838 0
M  V30 15990 H 1496.84 2.66278 3.2661 0
M  V30 15991 H 1495.56 1.47035 2.9163 0
M  V30 15992 H 1494.22 3.23669 1.72146 0
M  V30 15993 H 1493.87 2.82347 4.1628 0
M  V30 15994 H 1493.57 4.52882 3.74396 0
M  V30 15995 H 1495.09 4.0673 4.55415 0
M  V30 15996 H 1496.51 5.13501 2.54931 0
M  V30 15997 H 1494.9 5.66975 1.96619 0
M  V30 15998 H 1495.97 4.76908 0.876742 0
M  V30 15999 N 1497.32 -0.429099 1.51646 0
M  V30 16000 C 1498.23 -1.54648 1.76412 0
M  V30 16001 C 1499.24 -1.61455 0.648703 0
M  V30 16002 O 1500.42 -1.78544 0.931888 0
M  V30 16003 C 1497.48 -2.90562 1.89142 0
M  V30 16004 C 1496.54 -2.93804 3.13014 0
M  V30 16005 C 1495.78 -4.23235 3.25127 0
M  V30 16006 O 1496 -5.1606 2.42979 0
M  V30 16007 O 1494.93 -4.32929 4.18158 0
M  V30 16008 H 1498.76 -1.36661 2.71215 0
M  V30 16009 H 1496.34 -0.612946 1.36247 0
M  V30 16010 H 1498.23 -3.7121 1.99453 0
M  V30 16011 H 1496.9 -3.08659 0.975272 0
M  V30 16012 H 1495.81 -2.12082 3.08175 0
M  V30 16013 H 1497.14 -2.80654 4.04344 0
M  V30 16014 N 1498.79 -1.41931 -0.685074 0
M  V30 16015 C 1499.74 -1.44604 -1.79884 0
M  V30 16016 C 1500.71 -0.299166 -1.63384 0
M  V30 16017 O 1501.9 -0.501749 -1.84085 0
M  V30 16018 C 1499.04 -1.3442 -3.17845 0
M  V30 16019 C 1498.15 -2.59061 -3.45704 0
M  V30 16020 C 1497.28 -2.41094 -4.73336 0
M  V30 16021 C 1496.32 -3.61159 -4.94197 0
M  V30 16022 N 1495.46 -3.42198 -6.13062 0
M  V30 16023 H 1500.3 -2.39788 -1.76934 0
M  V30 16024 H 1497.84 -1.1906 -0.863891 0
M  V30 16025 H 1499.79 -1.26515 -3.97555 0
M  V30 16026 H 1498.42 -0.42838 -3.19945 0
M  V30 16027 H 1497.48 -2.77374 -2.60322 0
M  V30 16028 H 1498.79 -3.48341 -3.57016 0
M  V30 16029 H 1497.94 -2.30717 -5.61119 0
M  V30 16030 H 1496.68 -1.49288 -4.64289 0
M  V30 16031 H 1495.69 -3.7198 -4.04859 0
M  V30 16032 H 1496.91 -4.53933 -5.05096 0
M  V30 16033 H 1494.86 -2.531 -6.05208 0
M  V30 16034 H 1494.77 -4.25059 -6.25189 0
M  V30 16035 H 1496.04 -3.35612 -7.03551 0
M  V30 16036 N 1500.27 0.920374 -1.27933 0
M  V30 16037 C 1501.2 2.03882 -1.13817 0
M  V30 16038 C 1502.18 1.70058 -0.0376853 0
M  V30 16039 O 1503.37 1.93023 -0.213492 0
M  V30 16040 C 1500.5 3.38142 -0.792296 0
M  V30 16041 C 1499.45 3.86104 -1.84683 0
M  V30 16042 C 1498.78 5.17253 -1.35474 0
M  V30 16043 C 1500.08 4.0869 -3.25223 0
M  V30 16044 H 1501.77 2.15949 -2.07379 0
M  V30 16045 H 1499.32 1.03764 -0.998454 0
M  V30 16046 H 1501.27 4.15872 -0.680337 0
M  V30 16047 H 1499.99 3.26109 0.179029 0
M  V30 16048 H 1498.65 3.10573 -1.94782 0
M  V30 16049 H 1498.3 5.01618 -0.372666 0
M  V30 16050 H 1498 5.50314 -2.05982 0
M  V30 16051 H 1499.53 5.97545 -1.25587 0
M  V30 16052 H 1500.94 4.76965 -3.18083 0
M  V30 16053 H 1499.34 4.5307 -3.93507 0
M  V30 16054 H 1500.41 3.13729 -3.69733 0
M  V30 16055 N 1501.75 1.10074 1.1279 0
M  V30 16056 C 1502.66 0.758458 2.22001 0
M  V30 16057 C 1503.68 -0.242438 1.72303 0
M  V30 16058 O 1504.85 -0.0821223 2.01233 0
M  V30 16059 C 1501.92 0.191326 3.46172 0
M  V30 16060 C 1500.98 1.24902 4.10729 0
M  V30 16061 C 1500.21 0.708857 5.28972 0
M  V30 16062 O 1500.43 -0.465993 5.68493 0
M  V30 16063 O 1499.37 1.46703 5.83748 0
M  V30 16064 H 1503.19 1.66997 2.53665 0
M  V30 16065 H 1500.78 0.875604 1.21052 0
M  V30 16066 H 1502.66 -0.121292 4.21225 0
M  V30 16067 H 1501.34 -0.693094 3.16193 0
M  V30 16068 H 1500.24 1.61444 3.37471 0
M  V30 16069 H 1501.58 2.10632 4.44854 0
M  V30 16070 N 1503.23 -1.30138 0.888926 0
M  V30 16071 C 1504.16 -2.3047 0.374934 0
M  V30 16072 C 1505.14 -1.61156 -0.544322 0
M  V30 16073 O 1506.32 -1.88738 -0.457337 0
M  V30 16074 C 1503.45 -3.44896 -0.407935 0
M  V30 16075 C 1502.41 -4.25935 0.419916 0
M  V30 16076 C 1501.73 -5.32452 -0.489797 0
M  V30 16077 C 1503.03 -4.9508 1.66413 0
M  V30 16078 H 1504.73 -2.73711 1.21337 0
M  V30 16079 H 1502.27 -1.31586 0.584899 0
M  V30 16080 H 1504.23 -4.14153 -0.778177 0
M  V30 16081 H 1502.95 -3.0047 -1.28005 0
M  V30 16082 H 1501.61 -3.58372 0.772348 0
M  V30 16083 H 1501.26 -4.84273 -1.35974 0
M  V30 16084 H 1500.96 -5.87569 0.0603412 0
M  V30 16085 H 1502.48 -6.04563 -0.856468 0
M  V30 16086 H 1503.9 -5.56831 1.36425 0
M  V30 16087 H 1502.29 -5.6008 2.15477 0
M  V30 16088 H 1503.36 -4.20981 2.4063 0
M  V30 16089 N 1504.71 -0.650285 -1.43559 0
M  V30 16090 C 1505.66 0.0653687 -2.27906 0
M  V30 16091 C 1506.64 0.797628 -1.39738 0
M  V30 16092 O 1507.83 0.680579 -1.63393 0
M  V30 16093 C 1504.96 1.03311 -3.27386 0
M  V30 16094 C 1504.05 0.299481 -4.23041 0
M  V30 16095 N 1504.44 -0.68239 -5.01176 0
M  V30 16096 C 1502.74 0.54133 -4.42703 0
M  V30 16097 C 1503.44 -1.11758 -5.70863 0
M  V30 16098 N 1502.41 -0.452434 -5.41714 0
M  V30 16099 H 1506.21 -0.688114 -2.85731 0
M  V30 16100 H 1503.73 -0.477326 -1.55227 0
M  V30 16101 H 1505.73 1.56058 -3.86589 0
M  V30 16102 H 1504.39 1.78669 -2.71123 0
M  V30 16103 H 1505.4 -1.06099 -5.06915 0
M  V30 16104 H 1502.07 1.2763 -3.97513 0
M  V30 16105 H 1503.46 -1.92985 -6.43589 0
M  V30 16106 N 1506.18 1.52647 -0.392018 0
M  V30 16107 C 1507.12 2.24183 0.476934 0
M  V30 16108 C 1508.13 1.26526 1.02446 0
M  V30 16109 O 1509.32 1.52583 0.92632 0
M  V30 16110 C 1506.42 2.94672 1.67397 0
M  V30 16111 C 1505.59 4.19058 1.25335 0
M  V30 16112 C 1504.65 4.72522 2.31537 0
M  V30 16113 O 1503.68 5.35541 1.92833 0
M  V30 16114 N 1504.88 4.52613 3.63486 0
M  V30 16115 H 1507.64 2.99391 -0.135963 0
M  V30 16116 H 1505.2 1.60419 -0.218514 0
M  V30 16117 H 1507.2 3.27338 2.37975 0
M  V30 16118 H 1505.77 2.22755 2.19315 0
M  V30 16119 H 1504.99 3.92399 0.376352 0
M  V30 16120 H 1506.27 4.99871 0.94901 0
M  V30 16121 H 1505.67 4.02316 3.97692 0
M  V30 16122 H 1504.23 4.89761 4.3009 0
M  V30 16123 N 1507.66 0.121921 1.57128 0
M  V30 16124 C 1508.61 -0.844503 2.16728 0
M  V30 16125 C 1509.6 -1.2733 1.1173 0
M  V30 16126 O 1510.81 -1.2447 1.30028 0
M  V30 16127 H 1507.19 -0.290459 0.693641 0
M  V30 16128 H 1509.16 -0.317379 2.96707 0
M  V30 16129 C 1507.91 -2.08359 2.78356 0
M  V30 16130 H 1507.23 -1.76258 3.5885 0
M  V30 16131 H 1508.67 -2.73978 3.23592 0
M  V30 16132 C 1507.13 -2.87526 1.75586 0
M  V30 16133 O 1507.66 -3.83011 1.21101 0
M  V30 16134 N 1505.86 -2.51575 1.4546 0
M  V30 16135 H 1505.41 -1.73993 1.89958 0
M  V30 16136 H 1505.37 -3.0484 0.769411 0
M  V30 16137 N 1509.14 -1.56867 -0.151857 0
M  V30 16138 C 1510.1 -1.96997 -1.17152 0
M  V30 16139 C 1511.1 -0.855905 -1.36128 0
M  V30 16140 O 1512.29 -1.12261 -1.33203 0
M  V30 16141 C 1509.43 -2.28171 -2.5328 0
M  V30 16142 H 1510.62 -2.88261 -0.827365 0
M  V30 16143 H 1508.17 -1.51226 -0.395024 0
M  V30 16144 H 1508.91 -1.39683 -2.92676 0
M  V30 16145 H 1508.69 -3.09394 -2.40869 0
M  V30 16146 H 1510.18 -2.60073 -3.26729 0
M  V30 16147 N 1510.62 0.421051 -1.51871 0
M  V30 16148 C 1511.55 1.51928 -1.77313 0
M  V30 16149 C 1512.53 1.58258 -0.623579 0
M  V30 16150 O 1513.71 1.73724 -0.867967 0
M  V30 16151 C 1510.84 2.89865 -1.913 0
M  V30 16152 C 1509.8 2.98391 -3.06834 0
M  V30 16153 C 1509.12 4.38466 -3.06026 0
M  V30 16154 C 1510.42 2.7097 -4.46511 0
M  V30 16155 H 1512.12 1.30889 -2.69274 0
M  V30 16156 H 1509.66 0.628229 -1.29573 0
M  V30 16157 H 1511.62 3.66669 -2.07682 0
M  V30 16158 H 1510.34 3.12172 -0.960011 0
M  V30 16159 H 1509 2.24029 -2.90184 0
M  V30 16160 H 1508.65 4.57764 -2.08472 0
M  V30 16161 H 1508.35 4.45097 -3.83618 0
M  V30 16162 H 1509.87 5.17221 -3.24522 0
M  V30 16163 H 1511.29 3.37501 -4.63428 0
M  V30 16164 H 1509.68 2.88992 -5.25931 0
M  V30 16165 H 1510.75 1.66476 -4.55427 0
M  V30 16166 N 1512.1 1.42293 0.677538 0
M  V30 16167 C 1513.32 1.46008 1.46592 0
M  V30 16168 C 1513.74 0.0706015 1.88668 0
M  V30 16169 O 1513.1 -0.914076 1.57959 0
M  V30 16170 C 1513.15 2.38477 2.71682 0
M  V30 16171 O 1512.87 3.72019 2.31372 0
M  V30 16172 C 1514.37 2.51185 3.65269 0
M  V30 16173 H 1511.59 0.49669 0.451154 0
M  V30 16174 H 1514.13 1.86777 0.832736 0
M  V30 16175 H 1512.29 2.00969 3.31195 0
M  V30 16176 H 1512.7 4.21514 3.12131 0
M  V30 16177 H 1514.18 3.20014 4.49772 0
M  V30 16178 H 1514.65 1.54885 4.10983 0
M  V30 16179 H 1515.26 2.89404 3.1165 0
M  V30 16180 N 1513.57 -0.913576 1.28419 0
M  V30 16181 C 1514.8 -1.70178 1.18551 0
M  V30 16182 C 1515.22 -1.864 -0.252307 0
M  V30 16183 O 1514.58 -1.37427 -1.18252 0
M  V30 16184 C 1514.63 -3.07145 1.8893 0
M  V30 16185 O 1513.73 -3.9465 1.19688 0
M  V30 16186 H 1513.08 -0.521092 0.411533 0
M  V30 16187 H 1515.61 -1.14228 1.69744 0
M  V30 16188 H 1515.62 -3.57375 1.96843 0
M  V30 16189 H 1514.29 -2.94655 2.93515 0
M  V30 16190 H 1512.87 -3.53085 1.19939 0
M  V30 16191 N 1515.05 -1.1067 -1.12204 0
M  V30 16192 C 1516.3 -0.85063 -1.83768 0
M  V30 16193 C 1516.63 0.62379 -1.84226 0
M  V30 16194 O 1515.88 1.47603 -1.28498 0
M  V30 16195 C 1516.18 -1.34727 -3.31034 0
M  V30 16196 C 1515.85 -2.83353 -3.50745 0
M  V30 16197 C 1514.51 -3.2394 -3.55832 0
M  V30 16198 C 1516.86 -3.79118 -3.57658 0
M  V30 16199 C 1514.19 -4.59036 -3.6538 0
M  V30 16200 C 1516.54 -5.1402 -3.68736 0
M  V30 16201 C 1515.21 -5.54177 -3.72081 0
M  V30 16202 H 1514.48 -0.311268 -0.672453 0
M  V30 16203 H 1517.12 -1.38373 -1.32383 0
M  V30 16204 H 1515.43 -0.73424 -3.84859 0
M  V30 16205 H 1517.12 -1.12558 -3.84879 0
M  V30 16206 H 1513.71 -2.50952 -3.47449 0
M  V30 16207 H 1517.9 -3.48867 -3.52995 0
M  V30 16208 H 1513.15 -4.89568 -3.66243 0
M  V30 16209 H 1517.33 -5.88067 -3.73028 0
M  V30 16210 H 1514.96 -6.58853 -3.79232 0
M  V30 16211 N 1516.53 1.29665 -0.895815 0
M  V30 16212 C 1517.94 1.77825 -0.568784 0
M  V30 16213 C 1518.29 1.73534 0.915443 0
M  V30 16214 O 1517.42 1.31885 1.71567 0
M  V30 16215 C 1518.01 3.22901 -1.0257 0
M  V30 16216 C 1516.57 3.68854 -0.749903 0
M  V30 16217 C 1515.72 2.49866 -1.20259 0
M  V30 16218 H 1518.67 1.16381 -1.07894 0
M  V30 16219 H 1518.69 3.788 -0.359312 0
M  V30 16220 H 1518.2 3.25991 -2.10597 0
M  V30 16221 H 1516.3 3.71241 0.317916 0
M  V30 16222 H 1516.42 4.59831 -1.34506 0
M  V30 16223 H 1514.78 2.46997 -0.621676 0
M  V30 16224 H 1515.56 2.55687 -2.29083 0
M  V30 16225 N 1518.01 0.657889 1.43212 0
M  V30 16226 C 1518.94 -0.0695999 2.29094 0
M  V30 16227 C 1519.95 -0.782463 1.42763 0
M  V30 16228 O 1521.14 -0.63944 1.66654 0
M  V30 16229 C 1518.24 -1.12178 3.19796 0
M  V30 16230 C 1517.42 -0.486131 4.3469 0
M  V30 16231 C 1516.47 -1.43582 5.06232 0
M  V30 16232 O 1515.5 -0.942622 5.61341 0
M  V30 16233 N 1516.7 -2.76966 5.10167 0
M  V30 16234 H 1519.47 0.667565 2.92171 0
M  V30 16235 H 1517.03 0.501022 1.53953 0
M  V30 16236 H 1519.02 -1.75801 3.64522 0
M  V30 16237 H 1517.59 -1.76087 2.58287 0
M  V30 16238 H 1516.81 0.329281 3.92822 0
M  V30 16239 H 1518.1 -0.0425918 5.08782 0
M  V30 16240 H 1517.5 -3.19592 4.66774 0
M  V30 16241 H 1516.05 -3.3588 5.58595 0
M  V30 16242 N 1519.49 -1.52437 0.400108 0
M  V30 16243 C 1520.42 -2.24433 -0.465038 0
M  V30 16244 C 1521.43 -1.27067 -1.01773 0
M  V30 16245 O 1522.62 -1.53072 -0.918215 0
M  V30 16246 C 1519.72 -2.95555 -1.65832 0
M  V30 16247 C 1518.89 -4.19717 -1.2311 0
M  V30 16248 C 1517.95 -4.73743 -2.29028 0
M  V30 16249 O 1516.98 -5.36556 -1.8999 0
M  V30 16250 N 1518.18 -4.54534 -3.6108 0
M  V30 16251 H 1520.95 -2.99315 0.151839 0
M  V30 16252 H 1518.51 -1.603 0.227019 0
M  V30 16253 H 1520.5 -3.28595 -2.36235 0
M  V30 16254 H 1519.07 -2.23915 -2.18131 0
M  V30 16255 H 1518.29 -3.92593 -0.355537 0
M  V30 16256 H 1519.58 -5.00367 -0.922487 0
M  V30 16257 H 1518.97 -4.04419 -3.95552 0
M  V30 16258 H 1517.53 -4.92035 -4.27486 0
M  V30 16259 N 1520.96 -0.130252 -1.57061 0
M  V30 16260 C 1521.89 0.812189 -2.18919 0
M  V30 16261 C 1522.88 1.2692 -1.13249 0
M  V30 16262 O 1524.06 1.32978 -1.41529 0
M  V30 16263 C 1521.19 2.05803 -2.79754 0
M  V30 16264 C 1520.14 1.73841 -3.91105 0
M  V30 16265 C 1519.47 3.05549 -4.38799 0
M  V30 16266 C 1520.77 0.997991 -5.12677 0
M  V30 16267 H 1522.46 0.296692 -2.97926 0
M  V30 16268 H 1520.01 0.141265 -1.43305 0
M  V30 16269 H 1521.96 2.72201 -3.21691 0
M  V30 16270 H 1520.69 2.59697 -1.98053 0
M  V30 16271 H 1519.35 1.09828 -3.49762 0
M  V30 16272 H 1518.99 3.57399 -3.53942 0
M  V30 16273 H 1518.69 2.84932 -5.13894 0
M  V30 16274 H 1520.22 3.73045 -4.83394 0
M  V30 16275 H 1521.63 1.56372 -5.51562 0
M  V30 16276 H 1520.03 0.892378 -5.93428 0
M  V30 16277 H 1521.1 -0.0132936 -4.84898 0
M  V30 16278 N 1522.44 1.56945 0.143535 0
M  V30 16279 C 1523.68 1.85347 0.861738 0
M  V30 16280 C 1524.05 0.715009 1.7819 0
M  V30 16281 O 1525.25 0.880162 2.53981 0
M  V30 16282 C 1523.52 3.18937 1.61288 0
M  V30 16283 S 1525.08 3.68904 2.37603 0
M  V30 16284 H 1521.9 0.650015 0.2881 0
M  V30 16285 H 1524.5 1.95122 0.121527 0
M  V30 16286 H 1523.2 3.9976 0.928434 0
M  V30 16287 H 1522.73 3.12176 2.39394 0
M  V30 16288 H 1524.75 3.38445 3.62863 0
M  V30 16289 N 1523.92 -0.412991 1.52093 0
M  V30 16290 C 1524.83 -1.52768 1.78042 0
M  V30 16291 C 1525.85 -1.60758 0.665791 0
M  V30 16292 O 1527.02 -1.77545 0.950772 0
M  V30 16293 C 1524.09 -2.8854 1.92213 0
M  V30 16294 C 1523.15 -2.90468 3.16112 0
M  V30 16295 C 1522.38 -4.19763 3.29598 0
M  V30 16296 O 1522.61 -5.13454 2.48438 0
M  V30 16297 O 1521.54 -4.2847 4.22726 0
M  V30 16298 H 1525.37 -1.33777 2.72649 0
M  V30 16299 H 1522.95 -0.598461 1.3689 0
M  V30 16300 H 1524.83 -3.69073 2.03379 0
M  V30 16301 H 1523.51 -3.07607 1.00795 0
M  V30 16302 H 1522.41 -2.08801 3.10408 0
M  V30 16303 H 1523.75 -2.76349 4.07298 0
M  V30 16304 N 1525.4 -1.4265 -0.669982 0
M  V30 16305 C 1526.63 -1.46784 -1.45816 0
M  V30 16306 C 1527.04 -0.080606 -1.88628 0
M  V30 16307 O 1526.4 0.905687 -1.58441 0
M  V30 16308 C 1526.45 -2.39915 -2.70413 0
M  V30 16309 O 1526.17 -3.73241 -2.29396 0
M  V30 16310 C 1527.67 -2.53118 -3.63931 0
M  V30 16311 H 1524.89 -0.499076 -0.448513 0
M  V30 16312 H 1527.44 -1.87216 -0.822819 0
M  V30 16313 H 1525.59 -2.02722 -3.30125 0
M  V30 16314 H 1526.01 -4.23164 -3.09891 0
M  V30 16315 H 1527.48 -3.22395 -4.48069 0
M  V30 16316 H 1527.96 -1.57062 -4.10156 0
M  V30 16317 H 1528.56 -2.91052 -3.10111 0
M  V30 16318 N 1526.88 0.906753 -1.28902 0
M  V30 16319 C 1527.81 2.02663 -1.15974 0
M  V30 16320 C 1528.79 1.70009 -0.0557202 0
M  V30 16321 O 1529.97 1.92786 -0.233952 0
M  V30 16322 C 1527.1 3.37283 -0.828115 0
M  V30 16323 C 1526.06 3.84123 -1.88767 0
M  V30 16324 C 1525.38 5.15787 -1.40953 0
M  V30 16325 C 1526.68 4.05217 -3.2954 0
M  V30 16326 H 1528.38 2.13738 -2.09658 0
M  V30 16327 H 1525.92 1.02699 -1.0094 0
M  V30 16328 H 1527.88 4.15127 -0.724408 0
M  V30 16329 H 1526.6 3.2628 0.14443 0
M  V30 16330 H 1525.26 3.0849 -1.98065 0
M  V30 16331 H 1524.91 5.01194 -0.425848 0
M  V30 16332 H 1524.61 5.48098 -2.11807 0
M  V30 16333 H 1526.13 5.9618 -1.31918 0
M  V30 16334 H 1527.55 4.73565 -3.23124 0
M  V30 16335 H 1525.94 4.48871 -3.9829 0
M  V30 16336 H 1527.01 3.0979 -3.73039 0
M  V30 16337 N 1528.36 1.11264 1.11616 0
M  V30 16338 C 1529.3 0.769295 2.17602 0
M  V30 16339 C 1530.27 -0.258362 1.64078 0
M  V30 16340 O 1531.46 -0.135698 1.90317 0
M  V30 16341 C 1528.6 0.216647 3.44419 0
M  V30 16342 C 1527.71 1.30064 4.11955 0
M  V30 16343 C 1526.85 0.708729 5.26451 0
M  V30 16344 C 1525.88 1.7727 5.85868 0
M  V30 16345 N 1525.02 1.20042 6.91762 0
M  V30 16346 H 1529.86 1.67727 2.46316 0
M  V30 16347 H 1527.4 0.83764 1.20921 0
M  V30 16348 H 1529.36 -0.121724 4.17022 0
M  V30 16349 H 1527.99 -0.654525 3.16095 0
M  V30 16350 H 1527.04 1.756 3.37445 0
M  V30 16351 H 1528.35 2.1057 4.52174 0
M  V30 16352 H 1527.5 0.320307 6.05854 0
M  V30 16353 H 1526.24 -0.127668 4.87533 0
M  V30 16354 H 1525.25 2.17046 5.05145 0
M  V30 16355 H 1526.47 2.6121 6.26854 0
M  V30 16356 H 1524.42 0.385633 6.54866 0
M  V30 16357 H 1524.34 1.94221 7.30626 0
M  V30 16358 H 1525.6 0.838825 7.74974 0
M  V30 16359 N 1529.83 -1.29188 0.902679 0
M  V30 16360 C 1531.06 -2.00113 0.544953 0
M  V30 16361 C 1531.48 -1.67093 -0.863805 0
M  V30 16362 O 1530.84 -0.897179 -1.57545 0
M  V30 16363 C 1530.89 -3.52762 0.747741 0
M  V30 16364 O 1529.99 -4.11923 -0.198388 0
M  V30 16365 H 1529.33 -0.629054 0.212572 0
M  V30 16366 H 1531.86 -1.64611 1.21508 0
M  V30 16367 H 1531.87 -4.02732 0.653546 0
M  V30 16368 H 1530.55 -3.76131 1.77478 0
M  V30 16369 H 1529.13 -3.72857 -0.0563959 0
M  V30 16370 N 1531.31 -0.665475 -1.42861 0
M  V30 16371 C 1532.24 0.00482845 -2.335 0
M  V30 16372 C 1533.22 0.799135 -1.50159 0
M  V30 16373 O 1534.41 0.75816 -1.78789 0
M  V30 16374 C 1531.54 0.963347 -3.33672 0
M  V30 16375 C 1530.49 0.278294 -4.27094 0
M  V30 16376 C 1529.82 1.34911 -5.174 0
M  V30 16377 C 1531.12 -0.836925 -5.15551 0
M  V30 16378 H 1532.81 -0.752129 -2.89799 0
M  V30 16379 H 1530.36 -0.363139 -1.39346 0
M  V30 16380 H 1532.31 1.44128 -3.95986 0
M  V30 16381 H 1531.03 1.75161 -2.75656 0
M  V30 16382 H 1529.69 -0.179314 -3.66161 0
M  V30 16383 H 1529.34 2.12912 -4.55716 0
M  V30 16384 H 1529.04 0.895919 -5.8073 0
M  V30 16385 H 1530.57 1.82816 -5.8259 0
M  V30 16386 H 1531.98 -0.440617 -5.71604 0
M  V30 16387 H 1530.38 -1.21533 -5.87665 0
M  V30 16388 H 1531.45 -1.6897 -4.54507 0
M  V30 16389 N 1532.79 1.52222 -0.408187 0
M  V30 16390 C 1534.02 2.06221 0.16743 0
M  V30 16391 C 1534.43 1.27832 1.3894 0
M  V30 16392 O 1533.79 0.329933 1.79493 0
M  V30 16393 C 1533.84 3.57758 0.518804 0
M  V30 16394 O 1533.56 4.33181 -0.654639 0
M  V30 16395 C 1535.06 4.28171 1.14825 0
M  V30 16396 H 1532.28 0.670677 0.0208054 0
M  V30 16397 H 1534.83 1.96136 -0.578868 0
M  V30 16398 H 1532.98 3.67854 1.215 0
M  V30 16399 H 1533.4 5.23252 -0.361558 0
M  V30 16400 H 1534.87 5.3538 1.34433 0
M  V30 16401 H 1535.35 3.84586 2.12108 0
M  V30 16402 H 1535.95 4.22441 0.492291 0
M  V30 16403 N 1534.27 0.138579 1.5699 0
M  V30 16404 C 1535.22 -0.815878 2.12902 0
M  V30 16405 C 1536.2 -1.21511 1.0547 0
M  V30 16406 O 1537.39 -1.18294 1.31665 0
M  V30 16407 C 1534.52 -2.0583 2.74752 0
M  V30 16408 C 1533.61 -1.68255 3.89296 0
M  V30 16409 N 1534 -1.01456 4.9552 0
M  V30 16410 C 1532.3 -1.97583 3.99846 0
M  V30 16411 C 1533 -0.834498 5.75683 0
M  V30 16412 N 1531.97 -1.36571 5.26165 0
M  V30 16413 H 1535.78 -0.296204 2.92404 0
M  V30 16414 H 1533.29 -0.0632473 1.62277 0
M  V30 16415 H 1535.29 -2.75197 3.13165 0
M  V30 16416 H 1533.95 -2.58323 1.96721 0
M  V30 16417 H 1534.96 -0.67628 5.13466 0
M  V30 16418 H 1531.64 -2.51985 3.32881 0
M  V30 16419 H 1533.03 -0.308664 6.71191 0
M  V30 16420 N 1535.75 -1.57019 -0.13521 0
M  V30 16421 C 1536.68 -2.02182 -1.16811 0
M  V30 16422 C 1537.66 -0.9034 -1.44127 0
M  V30 16423 O 1538.84 -1.17202 -1.54846 0
M  V30 16424 C 1535.97 -2.41243 -2.49838 0
M  V30 16425 C 1534.93 -3.56379 -2.37018 0
M  V30 16426 C 1534.25 -3.8129 -3.74863 0
M  V30 16427 C 1535.55 -4.88653 -1.84432 0
M  V30 16428 H 1537.25 -2.8872 -0.792529 0
M  V30 16429 H 1534.79 -1.38901 -0.379788 0
M  V30 16430 H 1536.74 -2.7144 -3.22332 0
M  V30 16431 H 1535.47 -1.51656 -2.89254 0
M  V30 16432 H 1534.13 -3.26366 -1.66975 0
M  V30 16433 H 1533.78 -2.88934 -4.11735 0
M  V30 16434 H 1533.48 -4.58781 -3.67143 0
M  V30 16435 H 1535 -4.13924 -4.48887 0
M  V30 16436 H 1536.41 -5.17492 -2.46729 0
M  V30 16437 H 1534.81 -5.70032 -1.87574 0
M  V30 16438 H 1535.88 -4.78242 -0.800759 0
M  V30 16439 N 1537.22 0.404919 -1.52309 0
M  V30 16440 C 1538.5 1.16473 -1.57142 0
M  V30 16441 C 1538.88 2.08094 -0.354967 0
M  V30 16442 O 1538.23 2.18825 0.65788 0
M  V30 16443 C 1538.44 1.93834 -2.90223 0
M  V30 16444 C 1539.79 2.49754 -3.43378 0
M  V30 16445 O 1540.81 2.04009 -2.91991 0
M  V30 16446 O 1539.67 3.33271 -4.3312 0
M  V30 16447 H 1536.76 0.532036 -0.633141 0
M  V30 16448 H 1539.31 0.411359 -1.64639 0
M  V30 16449 H 1538.08 1.2674 -3.70206 0
M  V30 16450 H 1537.71 2.76167 -2.86038 0
M  V30 16451 N 1538.7 1.43003 0.662408 0
M  V30 16452 C 1539.63 1.50248 1.78739 0
M  V30 16453 C 1540.61 0.357934 1.66291 0
M  V30 16454 O 1541.8 0.573919 1.85526 0
M  V30 16455 C 1538.93 1.41618 3.17114 0
M  V30 16456 C 1537.88 2.54228 3.44314 0
M  V30 16457 C 1537.21 2.30653 4.82393 0
M  V30 16458 C 1538.51 3.96505 3.39972 0
M  V30 16459 H 1540.2 2.44406 1.72934 0
M  V30 16460 H 1537.75 1.17633 0.830569 0
M  V30 16461 H 1539.7 1.45293 3.9556 0
M  V30 16462 H 1538.43 0.439605 3.23628 0
M  V30 16463 H 1537.08 2.49891 2.68235 0
M  V30 16464 H 1536.73 1.3126 4.85572 0
M  V30 16465 H 1536.43 3.06134 5.01554 0
M  V30 16466 H 1537.96 2.36096 5.63108 0
M  V30 16467 H 1539.37 4.02378 4.08368 0
M  V30 16468 H 1537.77 4.71937 3.70668 0
M  V30 16469 H 1538.84 4.22295 2.38318 0
M  V30 16470 N 1540.18 -0.899904 1.29381 0
M  V30 16471 C 1541.13 -1.9909 1.11119 0
M  V30 16472 C 1542.11 -1.60871 0.030676 0
M  V30 16473 O 1543.31 -1.75192 0.252365 0
M  V30 16474 C 1540.44 -3.34097 0.789552 0
M  V30 16475 C 1539.52 -3.78676 1.90959 0
M  V30 16476 N 1539.91 -3.95492 3.15309 0
M  V30 16477 C 1538.21 -4.0795 1.80258 0
M  V30 16478 C 1538.91 -4.33054 3.8838 0
M  V30 16479 N 1537.89 -4.42087 3.16322 0
M  V30 16480 H 1541.69 -2.1016 2.0545 0
M  V30 16481 H 1539.2 -1.08871 1.20503 0
M  V30 16482 H 1541.2 -4.11962 0.639765 0
M  V30 16483 H 1539.86 -3.24372 -0.14585 0
M  V30 16484 H 1540.87 -3.8103 3.50766 0
M  V30 16485 H 1537.55 -4.06783 0.939877 0
M  V30 16486 H 1538.94 -4.53912 4.95393 0
M  V30 16487 N 1541.66 -1.11854 -1.11024 0
M  V30 16488 C 1542.88 -0.892999 -1.8719 0
M  V30 16489 C 1543.31 0.552058 -1.79816 0
M  V30 16490 O 1542.67 1.39025 -1.16369 0
M  V30 16491 C 1542.71 -1.3647 -3.33779 0
M  V30 16492 O 1541.82 -0.539202 -4.0886 0
M  V30 16493 H 1541.16 -0.321319 -0.581076 0
M  V30 16494 H 1543.69 -1.4891 -1.4031 0
M  V30 16495 H 1543.7 -1.3611 -3.84627 0
M  V30 16496 H 1542.37 -2.41694 -3.38462 0
M  V30 16497 H 1540.95 -0.60927 -3.67889 0
M  V30 16498 N 1543.14 1.28707 -0.909517 0
M  V30 16499 C 1544.08 2.29396 -0.384756 0
M  V30 16500 C 1545.08 1.61179 0.521318 0
M  V30 16501 O 1546.28 1.7543 0.403032 0
M  V30 16502 H 1542.66 0.744518 -0.105814 0
M  V30 16503 H 1544.63 2.71089 -1.24714 0
M  V30 16504 C 1543.38 3.45792 0.363795 0
M  V30 16505 H 1542.7 3.98483 -0.324198 0
M  V30 16506 H 1544.14 4.18254 0.695681 0
M  V30 16507 C 1542.6 2.98075 1.57012 0
M  V30 16508 O 1543.13 3.00187 2.66929 0
M  V30 16509 N 1541.34 2.53787 1.41565 0
M  V30 16510 H 1540.88 2.52268 0.521415 0
M  V30 16511 H 1540.84 2.2222 2.22408 0
M  V30 16512 N 1544.61 0.673042 1.42506 0
M  V30 16513 C 1545.56 -0.00638067 2.30799 0
M  V30 16514 C 1546.53 -0.794524 1.45865 0
M  V30 16515 O 1547.72 -0.767129 1.74699 0
M  V30 16516 C 1544.86 -0.952923 3.31683 0
M  V30 16517 C 1543.97 -0.158787 4.31708 0
M  V30 16518 C 1543.1 -1.10092 5.19666 0
M  V30 16519 C 1542.14 -0.29837 6.11372 0
M  V30 16520 N 1541.28 -1.19312 6.91888 0
M  V30 16521 H 1546.12 0.75237 2.88346 0
M  V30 16522 H 1543.66 0.382763 1.42033 0
M  V30 16523 H 1545.62 -1.51552 3.887 0
M  V30 16524 H 1544.25 -1.67832 2.75739 0
M  V30 16525 H 1543.3 0.520406 3.76823 0
M  V30 16526 H 1544.61 0.464385 4.96634 0
M  V30 16527 H 1543.76 -1.7335 5.81407 0
M  V30 16528 H 1542.5 -1.75798 4.54914 0
M  V30 16529 H 1541.51 0.347437 5.48701 0
M  V30 16530 H 1542.73 0.354569 6.78174 0
M  V30 16531 H 1540.68 -1.83661 6.29765 0
M  V30 16532 H 1540.6 -0.624986 7.53412 0
M  V30 16533 H 1541.86 -1.81323 7.58118 0
M  V30 16534 N 1546.09 -1.52004 0.416254 0
M  V30 16535 C 1547.34 -2.01889 -0.157201 0
M  V30 16536 C 1547.67 -1.30153 -1.44535 0
M  V30 16537 O 1546.92 -0.39855 -1.91599 0
M  V30 16538 C 1547.22 -3.54624 -0.444553 0
M  V30 16539 C 1546.89 -4.4453 0.755251 0
M  V30 16540 C 1545.55 -4.68824 1.08433 0
M  V30 16541 C 1547.9 -4.97412 1.55663 0
M  V30 16542 C 1545.23 -5.43246 2.21586 0
M  V30 16543 C 1547.58 -5.73074 2.67898 0
M  V30 16544 C 1546.25 -5.95637 3.01285 0
M  V30 16545 H 1545.52 -0.738764 -0.0575239 0
M  V30 16546 H 1548.16 -1.83156 0.559133 0
M  V30 16547 H 1546.47 -3.71575 -1.24254 0
M  V30 16548 H 1548.16 -3.90739 -0.901333 0
M  V30 16549 H 1544.75 -4.25804 0.488789 0
M  V30 16550 H 1548.94 -4.78545 1.31562 0
M  V30 16551 H 1544.19 -5.58936 2.47792 0
M  V30 16552 H 1548.37 -6.13044 3.30378 0
M  V30 16553 H 1546 -6.53086 3.89079 0
M  V30 16554 N 1547.57 -0.146903 -1.56914 0
M  V30 16555 C 1548.8 0.511181 -2.00486 0
M  V30 16556 C 1549.21 1.58425 -1.02699 0
M  V30 16557 O 1548.57 1.82484 -0.0239878 0
M  V30 16558 C 1548.62 1.11191 -3.43975 0
M  V30 16559 O 1548.34 0.0817094 -4.38024 0
M  V30 16560 C 1549.84 1.85061 -4.02824 0
M  V30 16561 H 1547.06 0.133078 -0.657671 0
M  V30 16562 H 1549.61 -0.241457 -2.0307 0
M  V30 16563 H 1547.76 1.81517 -3.42243 0
M  V30 16564 H 1548.18 0.52181 -5.21898 0
M  V30 16565 H 1549.65 2.22385 -5.05222 0
M  V30 16566 H 1550.13 2.73649 -3.4353 0
M  V30 16567 H 1550.73 1.19434 -4.08186 0
M  V30 16568 N 1549.05 1.57088 0.126881 0
M  V30 16569 C 1550.27 1.88984 0.854389 0
M  V30 16570 C 1550.7 0.738037 1.73016 0
M  V30 16571 O 1550.06 -0.311728 1.786 0
M  V30 16572 C 1550.1 3.19584 1.67028 0
M  V30 16573 O 1549.21 3.04935 2.77648 0
M  V30 16574 H 1548.55 0.620354 0.236763 0
M  V30 16575 H 1551.08 2.04295 0.111647 0
M  V30 16576 H 1551.09 3.52109 2.06115 0
M  V30 16577 H 1549.76 4.03012 1.02732 0
M  V30 16578 H 1548.34 2.83861 2.41821 0
M  V30 16579 N 1550.53 -0.396836 1.52522 0
M  V30 16580 C 1551.77 -1.14263 1.67183 0
M  V30 16581 C 1552.1 -1.90176 0.407845 0
M  V30 16582 O 1551.36 -1.85965 -0.609553 0
M  V30 16583 C 1551.66 -2.15308 2.85267 0
M  V30 16584 C 1551.32 -1.56111 4.23013 0
M  V30 16585 C 1549.98 -1.39692 4.60478 0
M  V30 16586 C 1552.34 -1.12998 5.08803 0
M  V30 16587 C 1549.66 -0.786963 5.81398 0
M  V30 16588 C 1552.02 -0.534159 6.30341 0
M  V30 16589 C 1550.68 -0.357204 6.66544 0
M  V30 16590 H 1549.95 -0.418118 0.611766 0
M  V30 16591 H 1552.6 -0.428255 1.8665 0
M  V30 16592 H 1550.9 -2.92935 2.60185 0
M  V30 16593 H 1552.6 -2.72908 2.93806 0
M  V30 16594 H 1549.19 -1.69876 3.93497 0
M  V30 16595 H 1553.37 -1.24488 4.80434 0
M  V30 16596 H 1548.63 -0.63799 6.08062 0
M  V30 16597 H 1552.8 -0.191759 6.96136 0
M  V30 16598 H 1550.43 0.117528 7.60109 0
M  V30 16599 N 1552.01 -1.43353 -0.654814 0
M  V30 16600 C 1553.42 -1.39933 -1.23595 0
M  V30 16601 C 1553.77 -0.102592 -1.95932 0
M  V30 16602 O 1552.89 0.798021 -2.01148 0
M  V30 16603 C 1553.49 -2.53483 -2.24793 0
M  V30 16604 C 1552.05 -2.53333 -2.78387 0
M  V30 16605 C 1551.19 -2.31268 -1.53005 0
M  V30 16606 H 1554.14 -1.52277 -0.446932 0
M  V30 16607 H 1554.17 -2.2488 -3.06935 0
M  V30 16608 H 1553.68 -3.47847 -1.72116 0
M  V30 16609 H 1551.78 -1.62844 -3.35131 0
M  V30 16610 H 1551.89 -3.51047 -3.26041 0
M  V30 16611 H 1550.26 -1.79905 -1.80295 0
M  V30 16612 H 1551.04 -3.27714 -1.02266 0
M  V30 16613 N 1553.48 0.89303 -1.29857 0
M  V30 16614 C 1554.71 1.6827 -1.21243 0
M  V30 16615 C 1555.13 1.86778 0.222621 0
M  V30 16616 O 1554.49 1.39291 1.1605 0
M  V30 16617 C 1554.54 3.041 -1.93792 0
M  V30 16618 O 1553.64 3.92696 -1.25951 0
M  V30 16619 H 1552.98 0.514479 -0.419771 0
M  V30 16620 H 1555.51 1.11513 -1.7154 0
M  V30 16621 H 1555.52 3.54198 -2.02504 0
M  V30 16622 H 1554.2 2.89948 -2.98166 0
M  V30 16623 H 1552.78 3.51132 -1.25541 0
M  V30 16624 N 1554.96 1.12442 1.10429 0
M  V30 16625 C 1556.19 0.901291 1.85904 0
M  V30 16626 C 1556.6 -0.552928 1.8094 0
M  V30 16627 O 1555.94 -1.39404 1.19633 0
M  V30 16628 C 1556 1.29808 3.35246 0
M  V30 16629 C 1555.67 2.76361 3.63969 0
M  V30 16630 C 1556.67 3.74553 3.60564 0
M  V30 16631 C 1554.35 3.13268 3.92643 0
M  V30 16632 C 1556.34 5.07667 3.85426 0
M  V30 16633 C 1554.03 4.46564 4.17162 0
M  V30 16634 C 1555.03 5.43572 4.13544 0
M  V30 16635 O 1554.72 6.74465 4.37439 0
M  V30 16636 H 1554.45 0.321969 0.5944 0
M  V30 16637 H 1557 1.49816 1.40514 0
M  V30 16638 H 1555.23 0.644416 3.81293 0
M  V30 16639 H 1556.92 1.04908 3.92108 0
M  V30 16640 H 1557.69 3.47385 3.3845 0
M  V30 16641 H 1553.57 2.3837 3.94589 0
M  V30 16642 H 1557.11 5.83375 3.82518 0
M  V30 16643 H 1553.01 4.73461 4.38754 0
M  V30 16644 H 1553.78 6.80412 4.54953 0
M  V30 16645 N 1556.44 -1.28223 0.91633 0
M  V30 16646 C 1557.37 -2.29623 0.423735 0
M  V30 16647 C 1558.35 -1.62274 -0.510016 0
M  V30 16648 O 1559.54 -1.89666 -0.4172 0
M  V30 16649 C 1556.67 -3.45684 -0.334686 0
M  V30 16650 C 1555.62 -4.24949 0.510169 0
M  V30 16651 C 1554.95 -5.33371 -0.376745 0
M  V30 16652 C 1556.25 -4.91438 1.76877 0
M  V30 16653 H 1557.94 -2.71076 1.27115 0
M  V30 16654 H 1555.49 -1.30316 0.612678 0
M  V30 16655 H 1557.44 -4.1571 -0.690154 0
M  V30 16656 H 1556.16 -3.03118 -1.21603 0
M  V30 16657 H 1554.82 -3.56653 0.848191 0
M  V30 16658 H 1554.47 -4.87048 -1.25671 0
M  V30 16659 H 1554.17 -5.87309 0.18496 0
M  V30 16660 H 1555.69 -6.06244 -0.728039 0
M  V30 16661 H 1557.11 -5.53812 1.48205 0
M  V30 16662 H 1555.5 -5.55384 2.27308 0
M  V30 16663 H 1556.57 -4.15783 2.49505 0
M  V30 16664 N 1557.92 -0.68059 -1.42147 0
M  V30 16665 C 1558.85 -0.0199376 -2.33491 0
M  V30 16666 C 1559.83 0.783164 -1.50999 0
M  V30 16667 O 1561.01 0.739154 -1.79583 0
M  V30 16668 C 1558.14 0.927902 -3.34675 0
M  V30 16669 C 1557.1 0.232979 -4.27365 0
M  V30 16670 C 1556.42 1.29415 -5.18802 0
M  V30 16671 C 1557.72 -0.891559 -5.14634 0
M  V30 16672 H 1559.42 -0.782823 -2.88985 0
M  V30 16673 H 1556.96 -0.377898 -1.38953 0
M  V30 16674 H 1558.92 1.3992 -3.97493 0
M  V30 16675 H 1557.64 1.72228 -2.77498 0
M  V30 16676 H 1556.3 -0.21814 -3.6595 0
M  V30 16677 H 1555.95 2.08067 -4.57949 0
M  V30 16678 H 1555.65 0.834274 -5.81647 0
M  V30 16679 H 1557.17 1.76627 -5.84496 0
M  V30 16680 H 1558.59 -0.501219 -5.71105 0
M  V30 16681 H 1556.98 -1.27759 -5.86343 0
M  V30 16682 H 1558.05 -1.73781 -4.5269 0
M  V30 16683 N 1559.4 1.51781 -0.424309 0
M  V30 16684 C 1560.34 2.27418 0.393668 0
M  V30 16685 C 1561.31 1.3046 1.02808 0
M  V30 16686 O 1562.5 1.59345 1.04946 0
M  V30 16687 C 1559.64 3.10983 1.49611 0
M  V30 16688 C 1558.75 4.22919 0.881123 0
M  V30 16689 C 1557.89 4.93816 1.95752 0
M  V30 16690 C 1556.92 5.97691 1.32028 0
M  V30 16691 N 1556.06 6.62047 2.33747 0
M  V30 16692 H 1560.9 2.96883 -0.257731 0
M  V30 16693 H 1558.44 1.46442 -0.138942 0
M  V30 16694 H 1560.4 3.57749 2.14642 0
M  V30 16695 H 1559.03 2.43658 2.11732 0
M  V30 16696 H 1558.08 3.80212 0.119445 0
M  V30 16697 H 1559.39 4.97383 0.375764 0
M  V30 16698 H 1558.54 5.44064 2.68476 0
M  V30 16699 H 1557.28 4.18954 2.49658 0
M  V30 16700 H 1556.29 5.46749 0.578444 0
M  V30 16701 H 1557.51 6.74504 0.788722 0
M  V30 16702 H 1555.46 5.90005 2.86757 0
M  V30 16703 H 1555.38 7.32234 1.88066 0
M  V30 16704 H 1556.64 7.16929 3.05995 0
M  V30 16705 N 1560.87 0.155222 1.56834 0
M  V30 16706 C 1561.81 -0.819563 2.12975 0
M  V30 16707 C 1562.78 -1.23685 1.05549 0
M  V30 16708 O 1563.97 -1.3315 1.33429 0
M  V30 16709 C 1561.1 -2.10155 2.65617 0
M  V30 16710 C 1560.14 -1.82954 3.85266 0
M  V30 16711 S 1560.97 -1.01317 5.25828 0
M  V30 16712 C 1562.13 -2.30617 5.81865 0
M  V30 16713 H 1562.36 -0.342172 2.95324 0
M  V30 16714 H 1559.9 -0.0591958 1.54286 0
M  V30 16715 H 1561.85 -2.83797 2.96597 0
M  V30 16716 H 1560.52 -2.55008 1.83383 0
M  V30 16717 H 1559.71 -2.78035 4.20372 0
M  V30 16718 H 1559.31 -1.17417 3.55091 0
M  V30 16719 H 1561.6 -3.26206 5.93798 0
M  V30 16720 H 1562.55 -2.00004 6.79267 0
M  V30 16721 H 1562.95 -2.41642 5.10166 0
M  V30 16722 N 1562.35 -1.57153 -0.118549 0
M  V30 16723 C 1563.58 -1.89434 -0.844355 0
M  V30 16724 C 1564 -0.747203 -1.72622 0
M  V30 16725 O 1563.36 0.302252 -1.78763 0
M  V30 16726 C 1563.41 -3.20466 -1.65331 0
M  V30 16727 O 1562.51 -3.06403 -2.76027 0
M  V30 16728 H 1561.85 -0.621601 -0.23347 0
M  V30 16729 H 1564.38 -2.04351 -0.100811 0
M  V30 16730 H 1564.39 -3.53197 -2.04245 0
M  V30 16731 H 1563.07 -4.03551 -1.00594 0
M  V30 16732 H 1561.64 -2.85139 -2.40312 0
M  V30 16733 N 1563.83 0.388742 -1.5273 0
M  V30 16734 C 1565.07 1.14269 -1.69475 0
M  V30 16735 C 1565.43 1.87222 -0.425669 0
M  V30 16736 O 1566.63 2.64668 -0.469486 0
M  V30 16737 C 1564.91 2.09472 -2.8958 0
M  V30 16738 S 1566.46 2.927 -3.26913 0
M  V30 16739 H 1563.28 0.386807 -0.596574 0
M  V30 16740 H 1565.88 0.427089 -1.90778 0
M  V30 16741 H 1564.59 1.54599 -3.80167 0
M  V30 16742 H 1564.12 2.8554 -2.70611 0
M  V30 16743 H 1566.13 4.11605 -2.77121 0
M  V30 16744 N 1565.31 1.43698 0.647203 0
M  V30 16745 C 1566.56 1.44918 1.40292 0
M  V30 16746 C 1566.87 0.0794243 1.95439 0
M  V30 16747 O 1568.08 -0.0309052 2.71482 0
M  V30 16748 C 1566.53 2.55052 2.53923 0
M  V30 16749 C 1566.14 3.98161 2.05357 0
M  V30 16750 C 1567.88 2.65473 3.31246 0
M  V30 16751 C 1565.79 4.99749 3.16235 0
M  V30 16752 H 1564.72 0.539106 0.527144 0
M  V30 16753 H 1567.37 1.69708 0.697951 0
M  V30 16754 H 1565.75 2.23473 3.26919 0
M  V30 16755 H 1566.93 4.3923 1.39333 0
M  V30 16756 H 1565.24 3.91839 1.40896 0
M  V30 16757 H 1567.84 3.38546 4.13873 0
M  V30 16758 H 1568.18 1.70745 3.79673 0
M  V30 16759 H 1568.72 2.96383 2.65334 0
M  V30 16760 H 1565.45 5.96051 2.7277 0
M  V30 16761 H 1564.97 4.63288 3.80952 0
M  V30 16762 H 1566.65 5.22725 3.81271 0
M  V30 16763 N 1566.79 -0.886131 1.30328 0
M  V30 16764 C 1567.75 -1.97328 1.16594 0
M  V30 16765 C 1568.75 -1.60504 0.0975023 0
M  V30 16766 O 1569.94 -1.70739 0.345524 0
M  V30 16767 C 1567.07 -3.31714 0.786045 0
M  V30 16768 H 1568.26 -2.1094 2.13177 0
M  V30 16769 H 1565.82 -1.07238 1.13708 0
M  V30 16770 H 1566.55 -3.23804 -0.179334 0
M  V30 16771 H 1566.34 -3.5981 1.55817 0
M  V30 16772 H 1567.83 -4.11461 0.71339 0
M  V30 16773 N 1568.26 -1.13026 -1.09832 0
M  V30 16774 C 1569.21 -0.799174 -2.1844 0
M  V30 16775 C 1570.21 0.216695 -1.68008 0
M  V30 16776 O 1571.41 0.0742662 -1.79847 0
M  V30 16777 H 1567.79 -0.24064 -0.712458 0
M  V30 16778 H 1569.76 -1.72342 -2.436 0
M  V30 16779 C 1568.51 -0.276925 -3.46595 0
M  V30 16780 H 1567.83 -1.04993 -3.85768 0
M  V30 16781 H 1569.27 -0.0836468 -4.23917 0
M  V30 16782 C 1567.73 0.996479 -3.21826 0
M  V30 16783 O 1568.26 2.0731 -3.44072 0
M  V30 16784 N 1566.47 0.925903 -2.75455 0
M  V30 16785 H 1566.01 0.0496383 -2.57552 0
M  V30 16786 H 1565.97 1.77853 -2.5926 0
M  V30 16787 N 1569.74 1.27735 -0.923117 0
M  V30 16788 C 1570.67 2.29395 -0.435907 0
M  V30 16789 C 1571.65 1.62542 0.501403 0
M  V30 16790 O 1572.84 1.89884 0.407135 0
M  V30 16791 C 1569.97 3.45856 0.316348 0
M  V30 16792 C 1568.92 4.24672 -0.532697 0
M  V30 16793 C 1568.25 5.33563 0.348454 0
M  V30 16794 C 1569.55 4.90494 -1.79481 0
M  V30 16795 H 1571.24 2.70398 -1.28551 0
M  V30 16796 H 1568.79 1.29989 -0.619581 0
M  V30 16797 H 1570.74 4.1607 0.668098 0
M  V30 16798 H 1569.47 3.03758 1.19994 0
M  V30 16799 H 1568.12 3.56198 -0.867093 0
M  V30 16800 H 1567.77 4.87708 1.23086 0
M  V30 16801 H 1567.47 5.87202 -0.216104 0
M  V30 16802 H 1569 6.06622 0.695878 0
M  V30 16803 H 1570.41 5.53019 -1.5114 0
M  V30 16804 H 1568.81 5.5417 -2.30251 0
M  V30 16805 H 1569.88 4.14454 -2.51707 0
M  V30 16806 N 1571.22 0.688118 1.41784 0
M  V30 16807 C 1572.5 0.144304 1.95067 0
M  V30 16808 C 1572.88 -1.34399 1.62789 0
M  V30 16809 O 1572.23 -2.08675 0.930978 0
M  V30 16810 C 1572.44 0.427641 3.4637 0
M  V30 16811 C 1573.78 0.351345 4.23144 0
M  V30 16812 O 1574.81 0.362134 3.54354 0
M  V30 16813 O 1573.67 0.305018 5.45648 0
M  V30 16814 H 1570.76 0.01062 0.826932 0
M  V30 16815 H 1573.31 0.763766 1.51541 0
M  V30 16816 H 1572.08 1.4581 3.63119 0
M  V30 16817 H 1571.7 -0.223167 3.96973 0
M  V30 16818 N 1572.7 -1.51554 0.432352 0
M  V30 16819 C 1573.94 -2.02344 -0.13598 0
M  V30 16820 C 1574.28 -1.31619 -1.42794 0
M  V30 16821 O 1573.55 -0.42957 -1.89697 0
M  V30 16822 C 1573.84 -3.58297 -0.359865 0
M  V30 16823 C 1573.69 -4.39645 0.950399 0
M  V30 16824 C 1575.01 -4.25297 -1.13184 0
M  V30 16825 H 1572.13 -0.735439 -0.0479461 0
M  V30 16826 H 1574.77 -1.81237 0.570373 0
M  V30 16827 H 1572.92 -3.76413 -0.961547 0
M  V30 16828 H 1574.59 -4.3319 1.58568 0
M  V30 16829 H 1572.83 -4.04928 1.55614 0
M  V30 16830 H 1573.5 -5.46911 0.747852 0
M  V30 16831 H 1575.98 -4.11421 -0.622231 0
M  V30 16832 H 1574.86 -5.34307 -1.25726 0
M  V30 16833 H 1575.12 -3.85818 -2.15862 0
M  V30 16834 N 1574.18 -0.163538 -1.56749 0
M  V30 16835 C 1575.4 0.493087 -2.01453 0
M  V30 16836 C 1575.83 1.56535 -1.043 0
M  V30 16837 O 1575.18 1.81287 -0.0213039 0
M  V30 16838 C 1575.23 1.05546 -3.44808 0
M  V30 16839 O 1574.34 2.16977 -3.50706 0
M  V30 16840 H 1573.68 0.118905 -0.653267 0
M  V30 16841 H 1576.21 -0.265139 -2.02875 0
M  V30 16842 H 1576.22 1.38002 -3.83953 0
M  V30 16843 H 1574.89 0.270333 -4.1502 0
M  V30 16844 H 1573.47 1.85625 -3.23416 0
M  V30 16845 N 1575.65 1.57214 0.110213 0
M  V30 16846 C 1577.07 1.52706 0.464004 0
M  V30 16847 C 1577.27 0.87792 1.81369 0
M  V30 16848 O 1576.33 0.463987 2.482 0
M  V30 16849 C 1577.64 2.97457 0.440406 0
M  V30 16850 C 1579.19 3.08594 0.523336 0
M  V30 16851 C 1579.66 4.54923 0.53004 0
M  V30 16852 N 1581.15 4.59411 0.591228 0
M  V30 16853 C 1581.89 5.7006 0.618007 0
M  V30 16854 N 1581.38 6.9018 0.601901 0
M  V30 16855 N 1583.18 5.58192 0.661679 0
M  V30 16856 H 1575.33 1.97794 -0.77403 0
M  V30 16857 H 1577.59 0.903673 -0.286496 0
M  V30 16858 H 1577.3 3.48356 -0.483845 0
M  V30 16859 H 1577.17 3.55356 1.26498 0
M  V30 16860 H 1579.56 2.57692 1.43801 0
M  V30 16861 H 1579.64 2.53674 -0.329095 0
M  V30 16862 H 1579.28 5.06472 -0.380623 0
M  V30 16863 H 1579.21 5.07663 1.39948 0
M  V30 16864 H 1581.7 3.72953 0.609483 0
M  V30 16865 H 1582.02 7.70267 0.6252 0
M  V30 16866 H 1580.36 6.92665 0.569186 0
M  V30 16867 H 1583.55 4.63256 0.671686 0
M  V30 16868 H 1583.73 6.44432 0.67908 0
M  V30 16869 N 1577.13 -0.380637 1.52934 0
M  V30 16870 C 1578.08 -1.48584 1.78957 0
M  V30 16871 C 1579.07 -1.56103 0.657901 0
M  V30 16872 O 1580.28 -1.59169 0.84055 0
M  V30 16873 H 1576.66 -0.494687 0.566382 0
M  V30 16874 H 1578.63 -1.23833 2.71492 0
M  V30 16875 C 1577.38 -2.85615 1.98291 0
M  V30 16876 H 1576.7 -2.80583 2.84804 0
M  V30 16877 H 1578.14 -3.62164 2.20485 0
M  V30 16878 C 1576.6 -3.28267 0.757764 0
M  V30 16879 O 1577.13 -4.01654 -0.0608007 0
M  V30 16880 N 1575.33 -2.84641 0.585486 0
M  V30 16881 H 1574.88 -2.25087 1.25274 0
M  V30 16882 H 1574.84 -3.13536 -0.232871 0
M  V30 16883 N 1578.61 -1.44039 -0.639573 0
M  V30 16884 C 1579.89 -1.36853 -1.39752 0
M  V30 16885 C 1580.27 -0.0230515 -2.11087 0
M  V30 16886 O 1579.62 0.994061 -2.05744 0
M  V30 16887 C 1579.83 -2.56101 -2.37093 0
M  V30 16888 C 1581.17 -2.99793 -3.00681 0
M  V30 16889 O 1582.2 -2.56246 -2.4742 0
M  V30 16890 O 1581.06 -3.75274 -3.97281 0
M  V30 16891 H 1578.15 -0.541521 -0.625047 0
M  V30 16892 H 1580.7 -1.56113 -0.665336 0
M  V30 16893 H 1579.47 -3.45647 -1.83422 0
M  V30 16894 H 1579.09 -2.39011 -3.17741 0
M  V30 16895 N 1580.09 0.879207 -1.30796 0
M  V30 16896 C 1581.34 1.62625 -1.19315 0
M  V30 16897 C 1581.65 1.93999 0.249731 0
M  V30 16898 O 1582.86 2.67112 0.486129 0
M  V30 16899 C 1581.31 2.93129 -2.08815 0
M  V30 16900 C 1580.92 2.69272 -3.58045 0
M  V30 16901 C 1582.66 3.71105 -2.0611 0
M  V30 16902 C 1580.57 3.95628 -4.39582 0
M  V30 16903 H 1579.5 0.61015 -0.442981 0
M  V30 16904 H 1582.15 0.972892 -1.55586 0
M  V30 16905 H 1580.53 3.59789 -1.65432 0
M  V30 16906 H 1581.71 2.11078 -4.09613 0
M  V30 16907 H 1580.02 2.04664 -3.62632 0
M  V30 16908 H 1582.62 4.64824 -2.64277 0
M  V30 16909 H 1582.96 4.02946 -1.04597 0
M  V30 16910 H 1583.5 3.11315 -2.47644 0
M  V30 16911 H 1580.24 3.68943 -5.41813 0
M  V30 16912 H 1579.76 4.53307 -3.92775 0
M  V30 16913 H 1581.43 4.63597 -4.51317 0
M  V30 16914 N 1581.57 1.13606 1.09231 0
M  V30 16915 C 1582.82 0.897278 1.81089 0
M  V30 16916 C 1583.14 -0.578066 1.86235 0
M  V30 16917 O 1582.41 -1.42018 1.34935 0
M  V30 16918 H 1580.99 0.328971 0.670662 0
M  V30 16919 H 1583.65 1.433 1.32103 0
M  V30 16920 H 1582.74 1.28979 2.84202 0
M  V30 16921 N 1583.05 -1.27244 0.929878 0
M  V30 16922 C 1584.46 -1.76254 0.615732 0
M  V30 16923 C 1584.81 -1.759 -0.869111 0
M  V30 16924 O 1583.93 -1.36388 -1.6801 0
M  V30 16925 C 1584.53 -3.20068 1.11095 0
M  V30 16926 C 1583.09 -3.66736 0.847435 0
M  V30 16927 C 1582.23 -2.4659 1.26842 0
M  V30 16928 H 1585.18 -1.1348 1.10942 0
M  V30 16929 H 1585.21 -3.77714 0.459618 0
M  V30 16930 H 1584.72 -3.20293 2.19166 0
M  V30 16931 H 1582.82 -3.71954 -0.219376 0
M  V30 16932 H 1582.93 -4.56104 1.4665 0
M  V30 16933 H 1581.3 -2.45261 0.686944 0
M  V30 16934 H 1582.08 -2.49524 2.35781 0
M  V30 16935 N 1584.52 -0.695628 -1.41417 0
M  V30 16936 C 1585.75 -0.234163 -2.06074 0
M  V30 16937 C 1586.17 1.10796 -1.52006 0
M  V30 16938 O 1585.53 1.6936 -0.64705 0
M  V30 16939 C 1585.58 -0.202353 -3.60032 0
M  V30 16940 O 1584.68 0.822767 -4.04109 0
M  V30 16941 H 1584.02 -0.114395 -0.654072 0
M  V30 16942 H 1586.55 -0.950503 -1.81181 0
M  V30 16943 H 1586.56 -0.0332321 -4.07986 0
M  V30 16944 H 1585.24 -1.18188 -3.98754 0
M  V30 16945 H 1583.82 0.622995 -3.67659 0
M  V30 16946 N 1586 1.51322 -0.440383 0
M  V30 16947 C 1587.25 2.02413 0.125248 0
M  V30 16948 C 1587.58 1.32374 1.42094 0
M  V30 16949 O 1586.86 0.439624 1.89467 0
M  V30 16950 C 1587.14 3.58483 0.340858 0
M  V30 16951 C 1586.99 4.39134 -0.973701 0
M  V30 16952 C 1588.31 4.25891 1.10927 0
M  V30 16953 H 1585.43 0.735683 0.0440452 0
M  V30 16954 H 1588.07 1.80932 -0.579976 0
M  V30 16955 H 1586.22 3.76917 0.941572 0
M  V30 16956 H 1587.89 4.32343 -1.60863 0
M  V30 16957 H 1586.14 4.04097 -1.57759 0
M  V30 16958 H 1586.81 5.46506 -0.776845 0
M  V30 16959 H 1589.28 4.11746 0.600403 0
M  V30 16960 H 1588.16 5.34967 1.2289 0
M  V30 16961 H 1588.42 3.86958 2.13813 0
M  V30 16962 N 1587.48 0.171848 1.5666 0
M  V30 16963 C 1588.73 -0.473669 1.97191 0
M  V30 16964 C 1589.06 -1.6286 1.05784 0
M  V30 16965 O 1588.33 -1.94216 0.105084 0
M  V30 16966 C 1588.62 -0.956134 3.47174 0
M  V30 16967 C 1588.47 0.199007 4.4936 0
M  V30 16968 C 1589.79 -1.82962 4.00266 0
M  V30 16969 H 1586.91 -0.170704 0.716958 0
M  V30 16970 H 1589.55 0.25809 1.88239 0
M  V30 16971 H 1587.7 -1.57969 3.54934 0
M  V30 16972 H 1589.37 0.836109 4.53659 0
M  V30 16973 H 1587.61 0.85442 4.25302 0
M  V30 16974 H 1588.29 -0.180704 5.51704 0
M  V30 16975 H 1590.76 -1.30394 3.95141 0
M  V30 16976 H 1589.64 -2.13621 5.05625 0
M  V30 16977 H 1589.9 -2.77557 3.44114 0
M  V30 16978 N 1588.96 -1.5727 -0.101874 0
M  V30 16979 C 1589.89 -2.04614 -1.12496 0
M  V30 16980 C 1590.87 -0.933768 -1.42179 0
M  V30 16981 O 1592.05 -1.2046 -1.52325 0
M  V30 16982 C 1589.18 -2.46488 -2.44665 0
M  V30 16983 C 1588.14 -3.61327 -2.29406 0
M  V30 16984 C 1587.46 -3.89155 -3.66691 0
M  V30 16985 C 1588.76 -4.92455 -1.74026 0
M  V30 16986 H 1590.46 -2.90336 -0.731109 0
M  V30 16987 H 1588 -1.39676 -0.350239 0
M  V30 16988 H 1589.96 -2.78216 -3.16502 0
M  V30 16989 H 1588.68 -1.57757 -2.85972 0
M  V30 16990 H 1587.34 -3.29835 -1.60015 0
M  V30 16991 H 1586.99 -2.97603 -4.05514 0
M  V30 16992 H 1586.69 -4.66465 -3.57329 0
M  V30 16993 H 1588.21 -4.23352 -4.40006 0
M  V30 16994 H 1589.63 -5.22609 -2.35697 0
M  V30 16995 H 1588.02 -5.73882 -1.75441 0
M  V30 16996 H 1589.09 -4.79833 -0.699136 0
M  V30 16997 N 1590.44 0.372521 -1.53134 0
M  V30 16998 C 1591.71 1.13113 -1.59577 0
M  V30 16999 C 1592.09 2.07294 -0.399027 0
M  V30 17000 O 1591.44 2.20171 0.611316 0
M  V30 17001 C 1591.65 1.87635 -2.94269 0
M  V30 17002 C 1593 2.42414 -3.48598 0
M  V30 17003 O 1594.02 1.9777 -2.96252 0
M  V30 17004 O 1592.88 3.24008 -4.40092 0
M  V30 17005 H 1589.98 0.518486 -0.644284 0
M  V30 17006 H 1592.52 0.376344 -1.65474 0
M  V30 17007 H 1591.29 1.18859 -3.72811 0
M  V30 17008 H 1590.92 2.70037 -2.91831 0
M  V30 17009 N 1591.91 1.44376 0.631925 0
M  V30 17010 C 1593.32 1.41881 1.21353 0
M  V30 17011 C 1593.68 0.13375 1.95744 0
M  V30 17012 O 1592.8 -0.765919 2.02392 0
M  V30 17013 C 1593.4 2.57027 2.20732 0
M  V30 17014 C 1591.95 2.5773 2.74322 0
M  V30 17015 C 1591.1 2.33672 1.49307 0
M  V30 17016 H 1594.05 1.52968 0.42265 0
M  V30 17017 H 1594.07 2.29735 3.03319 0
M  V30 17018 H 1593.59 3.50541 1.66561 0
M  V30 17019 H 1591.69 1.68155 3.32498 0
M  V30 17020 H 1591.8 3.5619 3.20415 0
M  V30 17021 H 1590.16 1.8275 1.7741 0
M  V30 17022 H 1590.95 3.293 0.970395 0
M  V30 17023 N 1593.39 -0.872258 1.31261 0
M  V30 17024 C 1594.62 -1.65795 1.23772 0
M  V30 17025 C 1595.03 -1.87766 -0.197351 0
M  V30 17026 O 1594.39 -1.43418 -1.1286 0
M  V30 17027 C 1594.44 -3.02722 1.9759 0
M  V30 17028 O 1594.16 -2.81734 3.35496 0
M  V30 17029 C 1595.66 -3.97165 1.96913 0
M  V30 17030 H 1592.88 -0.516959 0.427778 0
M  V30 17031 H 1595.43 -1.0889 1.73099 0
M  V30 17032 H 1593.58 -3.56322 1.5203 0
M  V30 17033 H 1594 -3.6869 3.73052 0
M  V30 17034 H 1595.47 -4.90566 2.53079 0
M  V30 17035 H 1595.95 -4.28778 0.951089 0
M  V30 17036 H 1596.55 -3.495 2.42342 0
M  V30 17037 N 1594.87 -1.14184 -1.08627 0
M  V30 17038 C 1596.12 -0.91001 -1.81236 0
M  V30 17039 C 1596.45 0.562134 -1.85886 0
M  V30 17040 O 1595.72 1.41631 -1.33307 0
M  V30 17041 C 1596.01 -1.50879 -3.26967 0
M  V30 17042 C 1595.86 -3.05063 -3.3054 0
M  V30 17043 C 1597.18 -1.18379 -4.2388 0
M  V30 17044 H 1594.3 -0.332025 -0.657973 0
M  V30 17045 H 1596.94 -1.41144 -1.27194 0
M  V30 17046 H 1595.09 -1.08236 -3.73118 0
M  V30 17047 H 1596.76 -3.5652 -2.9273 0
M  V30 17048 H 1595 -3.39628 -2.6988 0
M  V30 17049 H 1595.68 -3.42064 -4.33239 0
M  V30 17050 H 1598.15 -1.55242 -3.86056 0
M  V30 17051 H 1597.03 -1.62911 -5.24167 0
M  V30 17052 H 1597.29 -0.0987385 -4.4199 0
M  V30 17053 N 1596.35 1.26749 -0.936613 0
M  V30 17054 C 1597.3 2.26542 -0.441307 0
M  V30 17055 C 1598.27 1.58503 0.496581 0
M  V30 17056 O 1599.45 1.86259 0.41379 0
M  V30 17057 C 1596.59 3.43866 0.291633 0
M  V30 17058 C 1595.7 4.26592 -0.681397 0
M  V30 17059 C 1594.84 5.31151 0.0722826 0
M  V30 17060 C 1593.88 6.05553 -0.892869 0
M  V30 17061 N 1593.01 7.01891 -0.17124 0
M  V30 17062 H 1597.85 2.68282 -1.29725 0
M  V30 17063 H 1595.39 1.31914 -0.650928 0
M  V30 17064 H 1597.35 4.10711 0.732984 0
M  V30 17065 H 1595.98 3.03051 1.11175 0
M  V30 17066 H 1595.03 3.59579 -1.24126 0
M  V30 17067 H 1596.34 4.78201 -1.41864 0
M  V30 17068 H 1595.5 6.03987 0.57313 0
M  V30 17069 H 1594.24 4.80369 0.842439 0
M  V30 17070 H 1593.24 5.31548 -1.40488 0
M  V30 17071 H 1594.47 6.58424 -1.66296 0
M  V30 17072 H 1592.41 6.53426 0.580507 0
M  V30 17073 H 1592.33 7.5123 -0.847897 0
M  V30 17074 H 1593.6 7.78889 0.308662 0
M  V30 17075 N 1597.83 0.703118 1.41046 0
M  V30 17076 C 1599.07 0.241543 2.02968 0
M  V30 17077 C 1599.43 -1.13975 1.54511 0
M  V30 17078 O 1600.63 -1.69761 2.0841 0
M  V30 17079 C 1598.9 0.305021 3.56096 0
M  V30 17080 S 1600.46 -0.0813994 4.38724 0
M  V30 17081 H 1597.28 0.0967141 0.704391 0
M  V30 17082 H 1599.88 0.922571 1.72363 0
M  V30 17083 H 1598.59 1.31219 3.88857 0
M  V30 17084 H 1598.12 -0.394903 3.91413 0
M  V30 17085 H 1600.13 -1.30702 4.78677 0
M  V30 17086 N 1599.3 -1.51086 0.448402 0
M  V30 17087 C 1600.72 -1.86696 -0.0121264 0
M  V30 17088 C 1601.07 -1.36483 -1.40949 0
M  V30 17089 O 1600.19 -0.72024 -2.04062 0
M  V30 17090 C 1600.79 -3.38788 -0.0287814 0
M  V30 17091 C 1599.35 -3.73892 -0.433758 0
M  V30 17092 C 1598.49 -2.74869 0.366362 0
M  V30 17093 H 1601.44 -1.44153 0.663744 0
M  V30 17094 H 1601.46 -3.71204 -0.835915 0
M  V30 17095 H 1600.98 -3.75304 0.988368 0
M  V30 17096 H 1599.08 -3.4297 -1.4561 0
M  V30 17097 H 1599.19 -4.78862 -0.150869 0
M  V30 17098 H 1597.55 -2.54085 -0.176862 0
M  V30 17099 H 1598.34 -3.14228 1.3826 0
M  V30 17100 N 1600.78 -0.180154 -1.56567 0
M  V30 17101 C 1602.01 0.46854 -2.01525 0
M  V30 17102 C 1602.43 1.56211 -1.06036 0
M  V30 17103 O 1601.78 1.82392 -0.06269 0
M  V30 17104 C 1601.83 1.0387 -3.46256 0
M  V30 17105 O 1601.55 -0.0112203 -4.38099 0
M  V30 17106 C 1603.06 1.76475 -4.06659 0
M  V30 17107 H 1600.28 0.119098 -0.660346 0
M  V30 17108 H 1602.82 -0.284477 -2.02512 0
M  V30 17109 H 1600.97 1.74217 -3.46016 0
M  V30 17110 H 1601.39 0.41099 -5.22887 0
M  V30 17111 H 1602.86 2.11618 -5.09825 0
M  V30 17112 H 1603.34 2.66301 -3.49257 0
M  V30 17113 H 1603.95 1.10749 -4.10627 0
M  V30 17114 N 1602.26 1.57322 0.0935319 0
M  V30 17115 C 1603.19 2.05208 1.11409 0
M  V30 17116 C 1604.17 0.941295 1.41681 0
M  V30 17117 O 1605.36 1.21266 1.51684 0
M  V30 17118 C 1602.49 2.47782 2.43354 0
M  V30 17119 C 1601.44 3.62538 2.27486 0
M  V30 17120 C 1600.77 3.91095 3.64622 0
M  V30 17121 C 1602.07 4.93371 1.71412 0
M  V30 17122 H 1603.76 2.9072 0.715702 0
M  V30 17123 H 1601.31 1.3986 0.342827 0
M  V30 17124 H 1603.26 2.79891 3.15022 0
M  V30 17125 H 1601.98 1.59272 2.85132 0
M  V30 17126 H 1600.64 3.30679 1.58263 0
M  V30 17127 H 1600.29 2.99749 4.0393 0
M  V30 17128 H 1599.99 4.68353 3.5485 0
M  V30 17129 H 1601.51 4.25679 4.37755 0
M  V30 17130 H 1602.93 5.23851 2.32922 0
M  V30 17131 H 1601.33 5.74804 1.72395 0
M  V30 17132 H 1602.4 4.80197 0.67368 0
M  V30 17133 N 1603.74 -0.364395 1.53329 0
M  V30 17134 C 1604.69 -1.44645 1.79851 0
M  V30 17135 C 1605.66 -1.53151 0.642951 0
M  V30 17136 O 1606.84 -1.6902 0.885252 0
M  V30 17137 C 1603.98 -2.81575 1.99523 0
M  V30 17138 C 1603.09 -2.82026 3.27239 0
M  V30 17139 C 1602.23 -4.1054 3.37091 0
M  V30 17140 C 1601.27 -4.05138 4.58835 0
M  V30 17141 N 1600.4 -5.25303 4.65834 0
M  V30 17142 H 1605.24 -1.21329 2.72182 0
M  V30 17143 H 1602.78 -0.588143 1.34831 0
M  V30 17144 H 1604.74 -3.61124 2.08915 0
M  V30 17145 H 1603.37 -3.03288 1.10527 0
M  V30 17146 H 1602.42 -1.94704 3.26794 0
M  V30 17147 H 1603.73 -2.73907 4.16865 0
M  V30 17148 H 1602.89 -4.98504 3.45801 0
M  V30 17149 H 1601.63 -4.21413 2.45483 0
M  V30 17150 H 1600.63 -3.1556 4.50224 0
M  V30 17151 H 1601.86 -3.95866 5.51785 0
M  V30 17152 H 1599.8 -5.36759 3.77128 0
M  V30 17153 H 1599.72 -5.19358 5.49367 0
M  V30 17154 H 1600.99 -6.15096 4.78829 0
M  V30 17155 N 1605.22 -1.44709 -0.62426 0
M  V30 17156 C 1606.15 -1.48097 -1.74928 0
M  V30 17157 C 1607.16 -0.373567 -1.58456 0
M  V30 17158 O 1608.35 -0.639699 -1.66644 0
M  V30 17159 C 1605.45 -1.30576 -3.12735 0
M  V30 17160 C 1604.62 -2.54688 -3.55602 0
M  V30 17161 C 1603.68 -2.31966 -4.72311 0
M  V30 17162 O 1602.71 -3.05492 -4.80274 0
M  V30 17163 N 1603.91 -1.35463 -5.64473 0
M  V30 17164 H 1606.68 -2.45086 -1.72491 0
M  V30 17165 H 1604.24 -1.40236 -0.809039 0
M  V30 17166 H 1606.23 -1.13212 -3.88542 0
M  V30 17167 H 1604.8 -0.419262 -3.09776 0
M  V30 17168 H 1604.02 -2.87282 -2.69931 0
M  V30 17169 H 1605.31 -3.37223 -3.80996 0
M  V30 17170 H 1604.7 -0.747509 -5.60739 0
M  V30 17171 H 1603.26 -1.24075 -6.39882 0
M  V30 17172 N 1606.69 0.865285 -1.31722 0
M  V30 17173 C 1607.94 1.61868 -1.21675 0
M  V30 17174 C 1608.27 1.93206 0.223988 0
M  V30 17175 O 1607.52 1.5657 1.17407 0
M  V30 17176 C 1607.82 2.95462 -2.0109 0
M  V30 17177 C 1607.49 2.83598 -3.50547 0
M  V30 17178 C 1606.15 2.80069 -3.91299 0
M  V30 17179 C 1608.5 2.70295 -4.45635 0
M  V30 17180 C 1605.83 2.61102 -5.25398 0
M  V30 17181 C 1608.18 2.52864 -5.79864 0
M  V30 17182 C 1606.85 2.47722 -6.19831 0
M  V30 17183 H 1606.12 0.592319 -0.445241 0
M  V30 17184 H 1608.76 1.00456 -1.63036 0
M  V30 17185 H 1607.07 3.60935 -1.52424 0
M  V30 17186 H 1608.77 3.52756 -1.90693 0
M  V30 17187 H 1605.36 2.87164 -3.18175 0
M  V30 17188 H 1609.54 2.72073 -4.15078 0
M  V30 17189 H 1604.8 2.55549 -5.55432 0
M  V30 17190 H 1608.97 2.41548 -6.53167 0
M  V30 17191 H 1606.6 2.32784 -7.23682 0
M  V30 17192 N 1608.17 1.14759 1.0802 0
M  V30 17193 C 1609.12 0.833824 2.17141 0
M  V30 17194 C 1610.11 -0.189939 1.68332 0
M  V30 17195 O 1611.32 -0.0456447 1.79942 0
M  V30 17196 H 1607.7 0.251944 0.70854 0
M  V30 17197 H 1609.67 1.76196 2.40827 0
M  V30 17198 C 1608.42 0.33203 3.46111 0
M  V30 17199 H 1607.74 1.11117 3.84048 0
M  V30 17200 H 1609.18 0.151078 4.23731 0
M  V30 17201 C 1607.64 -0.945153 3.2337 0
M  V30 17202 O 1608.17 -2.0181 3.47326 0
M  V30 17203 N 1606.37 -0.881963 2.76893 0
M  V30 17204 H 1605.92 -0.00865768 2.57599 0
M  V30 17205 H 1605.88 -1.73706 2.62056 0
M  V30 17206 N 1609.65 -1.26251 0.943322 0
M  V30 17207 C 1610.58 -2.28673 0.472347 0
M  V30 17208 C 1611.56 -1.63319 -0.475481 0
M  V30 17209 O 1612.75 -1.90508 -0.376875 0
M  V30 17210 C 1609.88 -3.46316 -0.261286 0
M  V30 17211 C 1608.83 -4.23771 0.600192 0
M  V30 17212 C 1608.16 -5.3405 -0.263525 0
M  V30 17213 C 1609.46 -4.87576 1.87262 0
M  V30 17214 H 1611.15 -2.68319 1.32836 0
M  V30 17215 H 1608.7 -1.28987 0.640182 0
M  V30 17216 H 1610.65 -4.1708 -0.601821 0
M  V30 17217 H 1609.37 -3.05629 -1.15146 0
M  V30 17218 H 1608.03 -3.54774 0.923651 0
M  V30 17219 H 1607.68 -4.89604 -1.15312 0
M  V30 17220 H 1607.38 -5.86784 0.309495 0
M  V30 17221 H 1608.9 -6.07652 -0.599281 0
M  V30 17222 H 1610.32 -5.50544 1.59919 0
M  V30 17223 H 1608.72 -5.50437 2.39038 0
M  V30 17224 H 1609.79 -4.10397 2.58268 0
M  V30 17225 N 1611.13 -0.710588 -1.40671 0
M  V30 17226 C 1612.35 -0.256007 -2.05814 0
M  V30 17227 C 1612.78 1.09178 -1.53173 0
M  V30 17228 O 1612.14 1.68665 -0.664977 0
M  V30 17229 C 1612.19 -0.240528 -3.59797 0
M  V30 17230 O 1611.29 0.779859 -4.04959 0
M  V30 17231 H 1610.63 -0.121326 -0.652822 0
M  V30 17232 H 1613.16 -0.969667 -1.80163 0
M  V30 17233 H 1613.17 -0.0765027 -4.07928 0
M  V30 17234 H 1611.85 -1.22411 -3.97478 0
M  V30 17235 H 1610.42 0.583965 -3.68299 0
M  V30 17236 N 1612.61 1.50847 -0.456408 0
M  V30 17237 C 1613.84 2.0635 0.10159 0
M  V30 17238 C 1614.25 1.32198 1.35353 0
M  V30 17239 O 1613.59 0.380433 1.79718 0
M  V30 17240 C 1613.65 3.56411 0.470283 0
M  V30 17241 C 1613.31 4.51949 -0.677546 0
M  V30 17242 C 1614.31 4.96091 -1.55531 0
M  V30 17243 C 1612 4.94819 -0.863701 0
M  V30 17244 C 1613.99 5.81793 -2.60377 0
M  V30 17245 C 1611.68 5.80306 -1.9154 0
M  V30 17246 C 1612.68 6.23693 -2.78381 0
M  V30 17247 O 1612.36 7.0748 -3.81742 0
M  V30 17248 H 1612.1 0.675994 0.00283373 0
M  V30 17249 H 1614.65 1.95178 -0.639893 0
M  V30 17250 H 1612.88 3.65433 1.26475 0
M  V30 17251 H 1614.57 3.94344 0.961649 0
M  V30 17252 H 1615.33 4.63651 -1.42311 0
M  V30 17253 H 1611.21 4.60578 -0.197285 0
M  V30 17254 H 1614.76 6.15578 -3.2819 0
M  V30 17255 H 1610.65 6.12159 -2.04773 0
M  V30 17256 H 1611.42 7.257 -3.78553 0
M  V30 17257 N 1614.09 0.188454 1.56469 0
M  V30 17258 C 1615.03 -0.751822 2.20115 0
M  V30 17259 C 1616.03 -1.22476 1.1703 0
M  V30 17260 O 1617.23 -1.18843 1.3519 0
M  V30 17261 H 1613.61 -0.260778 0.705336 0
M  V30 17262 H 1615.58 -0.191249 2.97786 0
M  V30 17263 C 1614.33 -1.96365 2.86943 0
M  V30 17264 H 1613.65 -1.60879 3.66003 0
M  V30 17265 H 1615.09 -2.60007 3.34921 0
M  V30 17266 C 1613.55 -2.7982 1.87623 0
M  V30 17267 O 1614.08 -3.7753 1.37237 0
M  V30 17268 N 1612.29 -2.45179 1.55999 0
M  V30 17269 H 1611.83 -1.6578 1.97167 0
M  V30 17270 H 1611.79 -3.01302 0.898012 0
M  V30 17271 N 1615.56 -1.5737 -0.0851874 0
M  V30 17272 C 1616.5 -1.99462 -1.12905 0
M  V30 17273 C 1617.51 -0.898597 -1.35754 0
M  V30 17274 O 1618.7 -1.17662 -1.34231 0
M  V30 17275 C 1615.8 -2.30689 -2.48266 0
M  V30 17276 C 1614.97 -3.61967 -2.45557 0
M  V30 17277 C 1614.03 -3.81017 -3.62922 0
M  V30 17278 O 1613.06 -4.52759 -3.44961 0
M  V30 17279 N 1614.26 -3.22348 -4.82775 0
M  V30 17280 H 1617.02 -2.89621 -0.7707 0
M  V30 17281 H 1614.58 -1.59564 -0.274033 0
M  V30 17282 H 1616.58 -2.40618 -3.254 0
M  V30 17283 H 1615.15 -1.46488 -2.76152 0
M  V30 17284 H 1614.37 -3.62916 -1.539 0
M  V30 17285 H 1615.65 -4.48191 -2.40836 0
M  V30 17286 H 1615.05 -2.64093 -5.00271 0
M  V30 17287 H 1613.61 -3.37747 -5.57468 0
M  V30 17288 N 1617.04 0.356258 -1.53521 0
M  V30 17289 C 1617.97 1.44271 -1.83598 0
M  V30 17290 C 1618.95 1.5547 -0.690141 0
M  V30 17291 O 1620.14 1.69886 -0.940868 0
M  V30 17292 C 1617.27 2.8149 -2.03422 0
M  V30 17293 C 1616.22 2.85108 -3.19213 0
M  V30 17294 C 1615.55 4.25091 -3.24348 0
M  V30 17295 C 1616.85 2.51788 -4.57602 0
M  V30 17296 H 1618.54 1.1935 -2.74583 0
M  V30 17297 H 1616.09 0.572707 -1.32121 0
M  V30 17298 H 1618.04 3.57531 -2.23046 0
M  V30 17299 H 1616.76 3.07819 -1.09155 0
M  V30 17300 H 1615.42 2.1152 -2.99424 0
M  V30 17301 H 1615.07 4.4851 -2.277 0
M  V30 17302 H 1614.77 4.28426 -4.0215 0
M  V30 17303 H 1616.3 5.02992 -3.46167 0
M  V30 17304 H 1617.71 3.17542 -4.77326 0
M  V30 17305 H 1616.11 2.66426 -5.37715 0
M  V30 17306 H 1617.18 1.4701 -4.62078 0
M  V30 17307 N 1618.52 1.45038 0.616577 0
M  V30 17308 C 1619.74 1.52321 1.40759 0
M  V30 17309 C 1620.17 0.15375 1.87471 0
M  V30 17310 O 1619.53 -0.859908 1.5961 0
M  V30 17311 C 1619.58 2.50464 2.59423 0
M  V30 17312 O 1618.68 2.01623 3.59753 0
M  V30 17313 H 1618.02 0.513808 0.420592 0
M  V30 17314 H 1620.55 1.90309 0.751234 0
M  V30 17315 H 1620.56 2.68977 3.06783 0
M  V30 17316 H 1619.24 3.4993 2.24771 0
M  V30 17317 H 1617.81 1.92945 3.19103 0
M  V30 17318 N 1620 -0.858287 1.32179 0
M  V30 17319 C 1621.24 -1.61221 1.22532 0
M  V30 17320 C 1621.57 -1.93322 -0.213739 0
M  V30 17321 O 1620.83 -1.5719 -1.16575 0
M  V30 17322 C 1621.13 -2.94391 2.02654 0
M  V30 17323 C 1620.79 -2.81735 3.52046 0
M  V30 17324 C 1619.45 -2.7799 3.92778 0
M  V30 17325 C 1621.81 -2.67928 4.47062 0
M  V30 17326 C 1619.13 -2.58312 5.26775 0
M  V30 17327 C 1621.49 -2.49785 5.81197 0
M  V30 17328 C 1620.15 -2.44431 6.21136 0
M  V30 17329 H 1619.42 -0.589949 0.448376 0
M  V30 17330 H 1622.07 -0.995897 1.63567 0
M  V30 17331 H 1620.37 -3.60122 1.54336 0
M  V30 17332 H 1622.07 -3.5174 1.92561 0
M  V30 17333 H 1618.66 -2.85472 3.19693 0
M  V30 17334 H 1622.84 -2.69868 4.16515 0
M  V30 17335 H 1618.1 -2.526 5.56779 0
M  V30 17336 H 1622.27 -2.38081 6.54439 0
M  V30 17337 H 1619.9 -2.28943 7.24906 0
M  V30 17338 N 1621.48 -1.1533 -1.07409 0
M  V30 17339 C 1622.72 -0.929181 -1.80261 0
M  V30 17340 C 1623.05 0.542387 -1.86472 0
M  V30 17341 O 1622.33 1.40209 -1.34802 0
M  V30 17342 C 1622.61 -1.54339 -3.25348 0
M  V30 17343 C 1622.47 -3.08551 -3.27286 0
M  V30 17344 C 1623.78 -1.22868 -4.22601 0
M  V30 17345 H 1620.9 -0.338985 -0.654414 0
M  V30 17346 H 1623.55 -1.42485 -1.2569 0
M  V30 17347 H 1621.7 -1.12187 -3.71949 0
M  V30 17348 H 1623.37 -3.59605 -2.88932 0
M  V30 17349 H 1621.61 -3.42471 -2.66263 0
M  V30 17350 H 1622.28 -3.4664 -4.29587 0
M  V30 17351 H 1624.76 -1.59328 -3.84388 0
M  V30 17352 H 1623.63 -1.68462 -5.2241 0
M  V30 17353 H 1623.89 -0.145612 -4.4186 0
M  V30 17354 N 1622.95 1.25748 -0.950004 0
M  V30 17355 C 1624.36 1.75253 -0.643694 0
M  V30 17356 C 1624.72 1.77261 0.841017 0
M  V30 17357 O 1623.84 1.39043 1.65819 0
M  V30 17358 C 1624.44 3.1826 -1.16173 0
M  V30 17359 C 1622.99 3.65342 -0.905672 0
M  V30 17360 C 1622.14 2.4454 -1.30749 0
M  V30 17361 H 1625.09 1.117 -1.12733 0
M  V30 17362 H 1625.11 3.76935 -0.519651 0
M  V30 17363 H 1624.63 3.16766 -2.24234 0
M  V30 17364 H 1622.73 3.72256 0.160174 0
M  V30 17365 H 1622.84 4.53713 -1.53888 0
M  V30 17366 H 1621.2 2.44138 -0.725876 0
M  V30 17367 H 1621.99 2.45741 -2.39721 0
M  V30 17368 N 1624.43 0.718038 1.40292 0
M  V30 17369 C 1625.34 0.0681535 2.34501 0
M  V30 17370 C 1626.36 -0.741048 1.57431 0
M  V30 17371 O 1627.53 -0.673437 1.89807 0
M  V30 17372 C 1624.6 -0.840758 3.36351 0
M  V30 17373 C 1623.66 -0.0212287 4.29295 0
M  V30 17374 C 1622.89 -0.886852 5.2628 0
M  V30 17375 O 1623.12 -2.12603 5.29298 0
M  V30 17376 O 1622.05 -0.324537 6.01024 0
M  V30 17377 H 1625.88 0.845288 2.91699 0
M  V30 17378 H 1623.46 0.478541 1.41529 0
M  V30 17379 H 1625.34 -1.36131 3.98806 0
M  V30 17380 H 1624.02 -1.597 2.81563 0
M  V30 17381 H 1622.92 0.544451 3.70117 0
M  V30 17382 H 1624.26 0.696846 4.87242 0
M  V30 17383 N 1625.91 -1.50602 0.464402 0
M  V30 17384 C 1626.86 -2.29992 -0.347337 0
M  V30 17385 C 1627.85 -1.36991 -0.996489 0
M  V30 17386 O 1629.06 -1.54213 -0.928359 0
M  V30 17387 H 1625.43 -0.740529 -0.130847 0
M  V30 17388 H 1627.4 -2.96425 0.342734 0
M  V30 17389 C 1626.15 -3.17355 -1.4206 0
M  V30 17390 H 1625.48 -3.88822 -0.930473 0
M  V30 17391 H 1626.92 -3.75912 -1.96129 0
M  V30 17392 C 1625.38 -2.34506 -2.41886 0
M  V30 17393 O 1625.91 -2.02347 -3.47014 0
M  V30 17394 N 1624.11 -1.97212 -2.13438 0
M  V30 17395 H 1623.66 -2.23564 -1.27971 0
M  V30 17396 H 1623.62 -1.42081 -2.80464 0
M  V30 17397 N 1627.39 -0.19675 -1.56367 0
M  V30 17398 C 1628.32 0.718607 -2.22167 0
M  V30 17399 C 1629.3 1.22002 -1.1853 0
M  V30 17400 O 1630.48 1.26856 -1.47042 0
M  V30 17401 C 1627.61 1.93753 -2.88231 0
M  V30 17402 C 1626.57 1.57096 -3.98127 0
M  V30 17403 C 1625.89 2.86663 -4.51363 0
M  V30 17404 C 1627.19 0.779649 -5.16448 0
M  V30 17405 H 1628.89 0.170064 -2.98917 0
M  V30 17406 H 1626.43 0.0803568 -1.43776 0
M  V30 17407 H 1628.39 2.58312 -3.32946 0
M  V30 17408 H 1627.11 2.51063 -2.0889 0
M  V30 17409 H 1625.77 0.948947 -3.54105 0
M  V30 17410 H 1625.42 3.42066 -3.68782 0
M  V30 17411 H 1625.12 2.6288 -5.25517 0
M  V30 17412 H 1626.64 3.52207 -4.98781 0
M  V30 17413 H 1628.06 1.32838 -5.57698 0
M  V30 17414 H 1626.45 0.639882 -5.96679 0
M  V30 17415 H 1627.52 -0.218944 -4.84405 0
M  V30 17416 N 1628.87 1.57413 0.0768405 0
M  V30 17417 C 1630.09 1.91224 0.790007 0
M  V30 17418 C 1630.51 0.792232 1.71374 0
M  V30 17419 O 1629.87 -0.234736 1.80984 0
M  V30 17420 C 1629.92 3.24757 1.58793 0
M  V30 17421 O 1629.64 4.3245 0.701329 0
M  V30 17422 C 1631.14 3.72549 2.40254 0
M  V30 17423 H 1628.36 0.63219 0.224893 0
M  V30 17424 H 1630.9 2.04442 0.0486173 0
M  V30 17425 H 1629.06 3.13081 2.28165 0
M  V30 17426 H 1629.47 5.09245 1.2558 0
M  V30 17427 H 1630.95 4.68628 2.91705 0
M  V30 17428 H 1631.42 3.01305 3.1955 0
M  V30 17429 H 1632.03 3.87153 1.76048 0
M  V30 17430 N 1630.34 -0.348112 1.53707 0
M  V30 17431 C 1631.62 -1.1056 1.61356 0
M  V30 17432 C 1632 -2.06633 0.431955 0
M  V30 17433 O 1631.35 -2.21115 -0.576211 0
M  V30 17434 C 1631.56 -1.82929 2.97217 0
M  V30 17435 C 1632.91 -2.36837 3.52411 0
M  V30 17436 O 1633.93 -1.93032 2.99361 0
M  V30 17437 O 1632.79 -3.16966 4.45191 0
M  V30 17438 H 1629.88 -0.50817 0.652451 0
M  V30 17439 H 1632.43 -0.349971 1.66052 0
M  V30 17440 H 1631.2 -1.12912 3.74655 0
M  V30 17441 H 1630.83 -2.65361 2.9609 0
M  V30 17442 N 1631.82 -1.45363 -0.608876 0
M  V30 17443 C 1633.07 -1.49534 -1.36995 0
M  V30 17444 C 1633.4 -0.136087 -1.93723 0
M  V30 17445 O 1632.68 0.849276 -1.74979 0
M  V30 17446 C 1632.96 -2.57348 -2.51881 0
M  V30 17447 C 1632.81 -4.02712 -2.00358 0
M  V30 17448 C 1634.13 -2.61459 -3.54016 0
M  V30 17449 H 1631.25 -0.544419 -0.496767 0
M  V30 17450 H 1633.89 -1.77165 -0.686473 0
M  V30 17451 H 1632.04 -2.33917 -3.10185 0
M  V30 17452 H 1633.71 -4.37348 -1.46713 0
M  V30 17453 H 1631.96 -4.1343 -1.31369 0
M  V30 17454 H 1632.63 -4.73834 -2.8317 0
M  V30 17455 H 1635.1 -2.8245 -3.0555 0
M  V30 17456 H 1633.98 -3.38761 -4.31894 0
M  V30 17457 H 1634.24 -1.66499 -4.09549 0
M  V30 17458 N 1633.3 0.851265 -1.32632 0
M  V30 17459 C 1634.55 1.60807 -1.23568 0
M  V30 17460 C 1634.88 1.93155 0.201238 0
M  V30 17461 O 1634.15 1.5764 1.13929 0
M  V30 17462 C 1634.44 2.92619 -2.09872 0
M  V30 17463 C 1634.29 2.67031 -3.61959 0
M  V30 17464 C 1635.61 3.93924 -1.96244 0
M  V30 17465 H 1632.73 0.583492 -0.450229 0
M  V30 17466 H 1635.37 0.98273 -1.62611 0
M  V30 17467 H 1633.52 3.45988 -1.76704 0
M  V30 17468 H 1635.19 2.2019 -4.05357 0
M  V30 17469 H 1633.44 2.00938 -3.84456 0
M  V30 17470 H 1634.11 3.60902 -4.17676 0
M  V30 17471 H 1636.58 3.49823 -2.25307 0
M  V30 17472 H 1635.46 4.84005 -2.58902 0
M  V30 17473 H 1635.72 4.32185 -0.931065 0
M  V30 17474 N 1634.78 1.15898 1.06796 0
M  V30 17475 C 1635.69 0.87507 2.17669 0
M  V30 17476 C 1636.7 -0.150763 1.73346 0
M  V30 17477 O 1637.88 0.0246621 2.01385 0
M  V30 17478 C 1634.95 0.374555 3.44671 0
M  V30 17479 C 1634.01 1.46498 4.0353 0
M  V30 17480 C 1633.24 0.988256 5.2447 0
M  V30 17481 O 1633.46 -0.163992 5.70164 0
M  V30 17482 O 1632.4 1.7744 5.75151 0
M  V30 17483 H 1636.22 1.80208 2.44456 0
M  V30 17484 H 1633.81 0.93854 1.1624 0
M  V30 17485 H 1635.69 0.102161 4.21276 0
M  V30 17486 H 1634.36 -0.524513 3.19422 0
M  V30 17487 H 1633.27 1.79105 3.28439 0
M  V30 17488 H 1634.6 2.33917 4.33063 0
M  V30 17489 N 1636.26 -1.25243 0.956659 0
M  V30 17490 C 1637.2 -2.25811 0.477292 0
M  V30 17491 C 1638.17 -1.59273 -0.471301 0
M  V30 17492 O 1639.36 -1.86894 -0.384105 0
M  V30 17493 C 1636.5 -3.44286 -0.236891 0
M  V30 17494 C 1635.61 -4.25454 0.749177 0
M  V30 17495 C 1634.75 -5.31199 0.012228 0
M  V30 17496 C 1633.79 -6.04056 0.989094 0
M  V30 17497 N 1632.92 -7.0153 0.282883 0
M  V30 17498 H 1637.76 -2.66185 1.33977 0
M  V30 17499 H 1635.3 -1.30862 0.671832 0
M  V30 17500 H 1637.26 -4.11825 -0.66755 0
M  V30 17501 H 1635.89 -3.04781 -1.06339 0
M  V30 17502 H 1634.94 -3.57558 1.29831 0
M  V30 17503 H 1636.25 -4.75883 1.49454 0
M  V30 17504 H 1635.41 -6.04822 -0.476968 0
M  V30 17505 H 1634.14 -4.81648 -0.76591 0
M  V30 17506 H 1633.15 -5.29245 1.48927 0
M  V30 17507 H 1634.37 -6.55695 1.76749 0
M  V30 17508 H 1632.32 -6.54267 -0.476479 0
M  V30 17509 H 1632.24 -7.49786 0.967304 0
M  V30 17510 H 1633.51 -7.79281 -0.184709 0
M  V30 17511 N 1637.73 -0.725468 -1.3991 0
M  V30 17512 C 1638.66 -0.094211 -2.3331 0
M  V30 17513 C 1639.65 0.734728 -1.53414 0
M  V30 17514 O 1640.83 0.681647 -1.81844 0
M  V30 17515 C 1637.96 0.820958 -3.37457 0
M  V30 17516 C 1636.91 0.0968983 -4.2789 0
M  V30 17517 C 1636.24 1.12845 -5.22657 0
M  V30 17518 C 1637.54 -1.05483 -5.11537 0
M  V30 17519 H 1639.23 -0.874365 -2.86348 0
M  V30 17520 H 1636.78 -0.421913 -1.3768 0
M  V30 17521 H 1638.73 1.27203 -4.01743 0
M  V30 17522 H 1637.46 1.63312 -2.82837 0
M  V30 17523 H 1636.12 -0.334454 -3.65071 0
M  V30 17524 H 1635.76 1.93392 -4.64337 0
M  V30 17525 H 1635.46 0.648805 -5.84007 0
M  V30 17526 H 1636.99 1.57942 -5.89819 0
M  V30 17527 H 1638.4 -0.682657 -5.69221 0
M  V30 17528 H 1636.8 -1.46349 -5.81981 0
M  V30 17529 H 1637.87 -1.88095 -4.46932 0
M  V30 17530 N 1639.21 1.50354 -0.472382 0
M  V30 17531 C 1640.12 2.32318 0.326405 0
M  V30 17532 C 1641.14 1.4276 0.994771 0
M  V30 17533 O 1642.31 1.75811 0.98246 0
M  V30 17534 C 1639.38 3.17468 1.39337 0
M  V30 17535 C 1638.44 4.22848 0.741465 0
M  V30 17536 C 1637.67 5.03929 1.75759 0
M  V30 17537 O 1637.9 4.86105 2.98425 0
M  V30 17538 O 1636.83 5.87051 1.32871 0
M  V30 17539 H 1640.66 3.01749 -0.343702 0
M  V30 17540 H 1638.24 1.47553 -0.234207 0
M  V30 17541 H 1640.12 3.703 2.01136 0
M  V30 17542 H 1638.8 2.50764 2.04692 0
M  V30 17543 H 1637.71 3.74005 0.0844848 0
M  V30 17544 H 1639.04 4.92026 0.130838 0
M  V30 17545 N 1640.69 0.205039 1.56261 0
M  V30 17546 C 1641.62 -0.743854 2.16794 0
M  V30 17547 C 1642.64 -1.16959 1.13245 0
M  V30 17548 O 1643.83 -1.1036 1.40296 0
M  V30 17549 C 1640.93 -2.01717 2.7233 0
M  V30 17550 C 1640.1 -1.74965 4.00882 0
M  V30 17551 C 1639.16 -2.86841 4.41145 0
M  V30 17552 O 1638.18 -2.5602 5.08372 0
M  V30 17553 N 1639.39 -4.15425 4.05466 0
M  V30 17554 H 1642.15 -0.226145 2.98846 0
M  V30 17555 H 1639.71 0.0234276 1.61883 0
M  V30 17556 H 1641.7 -2.7572 2.96244 0
M  V30 17557 H 1640.27 -2.44582 1.94675 0
M  V30 17558 H 1639.49 -0.846903 3.84995 0
M  V30 17559 H 1640.78 -1.54501 4.84775 0
M  V30 17560 H 1640.18 -4.43314 3.5141 0
M  V30 17561 H 1638.74 -4.86023 4.3431 0
M  V30 17562 N 1642.17 -1.57451 -0.0684915 0
M  V30 17563 C 1643.1 -2.06954 -1.0813 0
M  V30 17564 C 1644.08 -0.963716 -1.40166 0
M  V30 17565 O 1645.27 -1.23664 -1.49736 0
M  V30 17566 C 1642.4 -2.51622 -2.39381 0
M  V30 17567 C 1641.35 -3.66111 -2.2169 0
M  V30 17568 C 1640.68 -3.96846 -3.58354 0
M  V30 17569 C 1641.98 -4.96036 -1.63541 0
M  V30 17570 H 1643.67 -2.91822 -0.66936 0
M  V30 17571 H 1641.22 -1.40387 -0.320533 0
M  V30 17572 H 1643.17 -2.84867 -3.1053 0
M  V30 17573 H 1641.89 -1.63788 -2.82562 0
M  V30 17574 H 1640.55 -3.33155 -1.52982 0
M  V30 17575 H 1640.2 -3.06137 -3.9911 0
M  V30 17576 H 1639.9 -4.73939 -3.47354 0
M  V30 17577 H 1641.42 -4.3259 -4.30927 0
M  V30 17578 H 1642.84 -5.27491 -2.24559 0
M  V30 17579 H 1641.23 -5.77474 -1.63228 0
M  V30 17580 H 1642.3 -4.81208 -0.597199 0
M  V30 17581 N 1643.65 0.339955 -1.5389 0
M  V30 17582 C 1644.9 1.07723 -1.70524 0
M  V30 17583 C 1645.21 1.89693 -0.477058 0
M  V30 17584 O 1646.42 2.66387 -0.524424 0
M  V30 17585 C 1644.87 1.96455 -3.01551 0
M  V30 17586 C 1644.48 1.19675 -4.3172 0
M  V30 17587 C 1646.22 2.70019 -3.27552 0
M  V30 17588 C 1644.13 2.07458 -5.53819 0
M  V30 17589 H 1643.06 0.405877 -0.635437 0
M  V30 17590 H 1645.71 0.336489 -1.80388 0
M  V30 17591 H 1644.09 2.74364 -2.85553 0
M  V30 17592 H 1645.27 0.466526 -4.58432 0
M  V30 17593 H 1643.58 0.578651 -4.1236 0
M  V30 17594 H 1646.18 3.35973 -4.15964 0
M  V30 17595 H 1646.52 3.36779 -2.44716 0
M  V30 17596 H 1647.06 1.99182 -3.44342 0
M  V30 17597 H 1643.79 1.45234 -6.39208 0
M  V30 17598 H 1643.31 2.7826 -5.31349 0
M  V30 17599 H 1644.99 2.66428 -5.89598 0
M  V30 17600 N 1645.13 1.45684 0.601159 0
M  V30 17601 C 1646.06 1.57694 1.72206 0
M  V30 17602 C 1647.04 0.428141 1.64624 0
M  V30 17603 O 1648.22 0.65209 1.82925 0
M  V30 17604 C 1645.35 1.54941 3.10822 0
M  V30 17605 C 1644.31 2.68603 3.33222 0
M  V30 17606 C 1643.63 2.50906 4.72176 0
M  V30 17607 C 1644.93 4.10568 3.22849 0
M  V30 17608 H 1646.63 2.51521 1.62412 0
M  V30 17609 H 1644.17 1.2105 0.779929 0
M  V30 17610 H 1646.12 1.61939 3.89042 0
M  V30 17611 H 1644.85 0.576471 3.21472 0
M  V30 17612 H 1643.51 2.61043 2.57394 0
M  V30 17613 H 1643.16 1.51736 4.79568 0
M  V30 17614 H 1642.86 3.27131 4.88118 0
M  V30 17615 H 1644.38 2.59767 5.52588 0
M  V30 17616 H 1645.79 4.19336 3.90935 0
M  V30 17617 H 1644.19 4.87234 3.50318 0
M  V30 17618 H 1645.26 4.32022 2.20192 0
M  V30 17619 N 1646.6 -0.84422 1.33082 0
M  V30 17620 C 1647.51 -1.9858 1.24913 0
M  V30 17621 C 1648.53 -1.73256 0.160708 0
M  V30 17622 O 1649.71 -1.97719 0.383313 0
M  V30 17623 C 1646.77 -3.32471 0.983063 0
M  V30 17624 C 1645.83 -3.70946 2.16096 0
M  V30 17625 C 1645.06 -4.98448 1.90749 0
M  V30 17626 O 1645.29 -5.63953 0.855173 0
M  V30 17627 O 1644.22 -5.34301 2.7714 0
M  V30 17628 H 1648.05 -2.0841 2.20905 0
M  V30 17629 H 1645.63 -0.976447 1.13075 0
M  V30 17630 H 1647.51 -4.12705 0.851612 0
M  V30 17631 H 1646.19 -3.23656 0.053384 0
M  V30 17632 H 1645.1 -2.91244 2.34793 0
M  V30 17633 H 1646.43 -3.8442 3.07379 0
M  V30 17634 N 1648.08 -1.16463 -1.0618 0
M  V30 17635 C 1649.33 -0.944975 -1.78647 0
M  V30 17636 C 1649.65 0.528486 -1.87702 0
M  V30 17637 O 1648.92 1.38391 -1.38653 0
M  V30 17638 H 1647.5 -0.346637 -0.661704 0
M  V30 17639 H 1650.16 -1.46752 -1.28257 0
M  V30 17640 H 1649.26 -1.36469 -2.80683 0
M  V30 17641 N 1649.56 1.24734 -0.963288 0
M  V30 17642 C 1650.51 2.27557 -0.481704 0
M  V30 17643 C 1651.5 1.63245 0.452488 0
M  V30 17644 O 1652.71 1.76981 0.328263 0
M  V30 17645 H 1649.08 0.73936 -0.137297 0
M  V30 17646 H 1651.05 2.65555 -1.361 0
M  V30 17647 C 1649.8 3.47023 0.216806 0
M  V30 17648 H 1649.13 3.9675 -0.492916 0
M  V30 17649 H 1650.57 4.20828 0.517659 0
M  V30 17650 C 1649.02 3.04466 1.44229 0
M  V30 17651 O 1649.55 3.11238 2.53956 0
M  V30 17652 N 1647.76 2.59563 1.30674 0
M  V30 17653 H 1647.31 2.54252 0.41395 0
M  V30 17654 H 1647.27 2.31453 2.12783 0
M  V30 17655 N 1651.04 0.732878 1.39523 0
M  V30 17656 C 1651.98 0.0915149 2.30618 0
M  V30 17657 C 1652.95 -0.731943 1.49103 0
M  V30 17658 O 1654.14 -0.692343 1.77796 0
M  V30 17659 C 1651.28 -0.811387 3.35426 0
M  V30 17660 C 1650.39 0.0244578 4.31993 0
M  V30 17661 C 1649.53 -0.879521 5.23868 0
M  V30 17662 C 1648.57 -0.0387974 6.12088 0
M  V30 17663 N 1647.7 -0.898593 6.96326 0
M  V30 17664 H 1652.54 0.87399 2.84895 0
M  V30 17665 H 1650.08 0.442659 1.40282 0
M  V30 17666 H 1652.04 -1.3493 3.94778 0
M  V30 17667 H 1650.67 -1.55986 2.8261 0
M  V30 17668 H 1649.72 0.679762 3.74277 0
M  V30 17669 H 1651.03 0.674606 4.94217 0
M  V30 17670 H 1650.19 -1.48535 5.88237 0
M  V30 17671 H 1648.93 -1.56345 4.6196 0
M  V30 17672 H 1647.93 0.579847 5.46734 0
M  V30 17673 H 1649.16 0.641887 6.7606 0
M  V30 17674 H 1647.1 -1.56786 6.36988 0
M  V30 17675 H 1647.02 -0.304876 7.55385 0
M  V30 17676 H 1648.29 -1.49005 7.65126 0
M  V30 17677 N 1652.52 -1.50101 0.480349 0
M  V30 17678 C 1653.76 -2.01567 -0.073165 0
M  V30 17679 C 1654.08 -1.36657 -1.39944 0
M  V30 17680 O 1655.28 -1.79332 -2.03844 0
M  V30 17681 C 1653.74 -3.59445 -0.180889 0
M  V30 17682 C 1653.35 -4.33318 1.1375 0
M  V30 17683 C 1655.09 -4.18923 -0.685868 0
M  V30 17684 C 1653 -5.83003 0.99307 0
M  V30 17685 H 1651.93 -0.753358 -0.0311179 0
M  V30 17686 H 1654.58 -1.72829 0.616648 0
M  V30 17687 H 1652.96 -3.84811 -0.934693 0
M  V30 17688 H 1654.14 -4.1967 1.90299 0
M  V30 17689 H 1652.45 -3.85492 1.57431 0
M  V30 17690 H 1655.05 -5.28512 -0.811109 0
M  V30 17691 H 1655.39 -3.80916 -1.67955 0
M  V30 17692 H 1655.92 -3.97799 0.0108117 0
M  V30 17693 H 1652.66 -6.25499 1.9604 0
M  V30 17694 H 1652.18 -5.992 0.268128 0
M  V30 17695 H 1653.86 -6.4359 0.663417 0
M  V30 17696 N 1653.99 -0.213323 -1.5615 0
M  V30 17697 C 1655.22 0.428746 -2.0292 0
M  V30 17698 C 1655.64 1.53137 -1.09227 0
M  V30 17699 O 1655 1.81128 -0.0789684 0
M  V30 17700 C 1655.05 0.945231 -3.47991 0
M  V30 17701 O 1654.15 2.05709 -3.57432 0
M  V30 17702 H 1653.49 0.0980619 -0.656719 0
M  V30 17703 H 1656.02 -0.329548 -2.01929 0
M  V30 17704 H 1656.03 1.25717 -3.88149 0
M  V30 17705 H 1654.71 0.138161 -4.1567 0
M  V30 17706 H 1653.29 1.75242 -3.29158 0
M  V30 17707 N 1655.47 1.57485 0.0601405 0
M  V30 17708 C 1656.72 1.87445 0.755575 0
M  V30 17709 C 1657.04 0.806915 1.77522 0
M  V30 17710 O 1656.31 -0.163139 1.9522 0
M  V30 17711 H 1654.89 0.691708 0.282044 0
M  V30 17712 H 1657.55 1.94871 0.0334616 0
M  V30 17713 H 1656.65 2.85334 1.26455 0
M  V30 17714 N 1656.95 -0.331789 1.54068 0
M  V30 17715 C 1658.2 -1.06818 1.71093 0
M  V30 17716 C 1658.51 -1.89438 0.487111 0
M  V30 17717 O 1659.72 -2.66105 0.538544 0
M  V30 17718 C 1658.17 -1.94853 3.02589 0
M  V30 17719 C 1657.78 -1.17384 4.32348 0
M  V30 17720 C 1659.53 -2.68278 3.28979 0
M  V30 17721 C 1657.43 -2.04518 5.54911 0
M  V30 17722 H 1656.36 -0.402501 0.63758 0
M  V30 17723 H 1659.01 -0.326918 1.80564 0
M  V30 17724 H 1657.4 -2.72845 2.87004 0
M  V30 17725 H 1658.57 -0.442208 4.58673 0
M  V30 17726 H 1656.89 -0.556775 4.12661 0
M  V30 17727 H 1659.48 -3.33762 4.1774 0
M  V30 17728 H 1659.83 -3.35476 2.46498 0
M  V30 17729 H 1660.36 -1.97353 3.45394 0
M  V30 17730 H 1657.1 -1.41842 6.3997 0
M  V30 17731 H 1656.62 -2.75438 5.32817 0
M  V30 17732 H 1658.3 -2.63297 5.91002 0
M  V30 17733 N 1658.43 -1.46001 -0.593424 0
M  V30 17734 C 1659.67 -1.52306 -1.36317 0
M  V30 17735 C 1660.03 -0.166331 -1.91278 0
M  V30 17736 O 1661.23 -0.104106 -2.68598 0
M  V30 17737 C 1659.5 -2.58303 -2.47011 0
M  V30 17738 S 1661.06 -2.83936 -3.34553 0
M  V30 17739 H 1657.88 -0.538241 -0.464562 0
M  V30 17740 H 1660.48 -1.8317 -0.683308 0
M  V30 17741 H 1659.19 -3.55528 -2.05007 0
M  V30 17742 H 1658.72 -2.29136 -3.19782 0
M  V30 17743 H 1660.73 -2.18391 -4.45556 0
M  V30 17744 N 1659.91 0.83715 -1.33527 0
M  V30 17745 C 1661.13 1.62976 -1.28271 0
M  V30 17746 C 1661.56 1.87554 0.143201 0
M  V30 17747 O 1660.91 1.44088 1.10038 0
M  V30 17748 C 1660.96 2.95607 -2.06516 0
M  V30 17749 O 1660.07 3.87 -1.42494 0
M  V30 17750 H 1659.41 0.496212 -0.441214 0
M  V30 17751 H 1661.94 1.04137 -1.76115 0
M  V30 17752 H 1661.95 3.4529 -2.17344 0
M  V30 17753 H 1660.62 2.77041 -3.10195 0
M  V30 17754 H 1659.2 3.45492 -1.40321 0
M  V30 17755 N 1661.38 1.17024 1.05561 0
M  V30 17756 C 1662.8 0.962856 1.59956 0
M  V30 17757 C 1663.15 -0.491388 1.89947 0
M  V30 17758 O 1662.27 -1.366 1.67838 0
M  V30 17759 C 1662.87 1.74146 2.90617 0
M  V30 17760 C 1661.43 1.57885 3.41686 0
M  V30 17761 C 1660.57 1.74548 2.15472 0
M  V30 17762 H 1663.52 1.31787 0.88419 0
M  V30 17763 H 1663.54 1.22165 3.60355 0
M  V30 17764 H 1663.06 2.79984 2.68758 0
M  V30 17765 H 1661.16 0.545207 3.6859 0
M  V30 17766 H 1661.27 2.36745 4.16519 0
M  V30 17767 H 1659.63 1.17356 2.26052 0
M  V30 17768 H 1660.42 2.81789 1.96087 0
M  V30 17769 N 1662.86 -1.24221 0.969889 0
M  V30 17770 C 1663.79 -2.27619 0.520745 0
M  V30 17771 C 1664.77 -1.64291 -0.440731 0
M  V30 17772 O 1665.96 -1.91265 -0.336381 0
M  V30 17773 C 1663.09 -3.46792 -0.187768 0
M  V30 17774 C 1662.04 -4.22402 0.689945 0
M  V30 17775 C 1661.37 -5.34489 -0.150186 0
M  V30 17776 C 1662.67 -4.83494 1.97562 0
M  V30 17777 H 1664.36 -2.65441 1.38498 0
M  V30 17778 H 1661.91 -1.276 0.667398 0
M  V30 17779 H 1663.86 -4.18263 -0.513216 0
M  V30 17780 H 1662.59 -3.08002 -1.08637 0
M  V30 17781 H 1661.24 -3.52734 0.998696 0
M  V30 17782 H 1660.89 -4.9194 -1.049 0
M  V30 17783 H 1660.59 -5.85996 0.433891 0
M  V30 17784 H 1662.12 -6.08786 -0.470255 0
M  V30 17785 H 1663.53 -5.47028 1.71561 0
M  V30 17786 H 1661.93 -5.45243 2.5066 0
M  V30 17787 H 1663 -4.04826 2.66915 0
M  V30 17788 N 1664.34 -0.740267 -1.39132 0
M  V30 17789 C 1665.76 -0.416412 -1.54072 0
M  V30 17790 C 1665.96 1.07211 -1.70611 0
M  V30 17791 O 1665.01 1.85822 -1.70958 0
M  V30 17792 C 1666.33 -1.20403 -2.75542 0
M  V30 17793 C 1667.87 -1.19278 -2.89382 0
M  V30 17794 C 1668.35 -1.96308 -4.13796 0
M  V30 17795 N 1669.84 -1.93501 -4.20846 0
M  V30 17796 C 1670.57 -2.49907 -5.16075 0
M  V30 17797 N 1670.07 -3.14973 -6.17061 0
M  V30 17798 N 1671.86 -2.39911 -5.0833 0
M  V30 17799 H 1664.01 -1.70513 -1.26645 0
M  V30 17800 H 1666.28 -0.722111 -0.614214 0
M  V30 17801 H 1665.98 -2.25754 -2.69681 0
M  V30 17802 H 1665.86 -0.811986 -3.68357 0
M  V30 17803 H 1668.24 -0.147385 -2.94732 0
M  V30 17804 H 1668.33 -1.62424 -1.97616 0
M  V30 17805 H 1667.97 -3.00851 -4.09208 0
M  V30 17806 H 1667.9 -1.50565 -5.04617 0
M  V30 17807 H 1670.39 -1.46104 -3.48514 0
M  V30 17808 H 1670.7 -3.55467 -6.86195 0
M  V30 17809 H 1669.05 -3.19064 -6.17433 0
M  V30 17810 H 1672.24 -1.88718 -4.28373 0
M  V30 17811 H 1672.41 -2.84169 -5.82368 0
M  V30 17812 N 1665.82 1.49844 -0.488302 0
M  V30 17813 C 1666.75 2.31737 0.286432 0
M  V30 17814 C 1667.73 1.39424 0.974418 0
M  V30 17815 O 1668.91 1.68339 0.968274 0
M  V30 17816 C 1666.04 3.19616 1.35878 0
M  V30 17817 C 1665 4.20619 0.791409 0
M  V30 17818 C 1664.32 4.9735 1.96333 0
M  V30 17819 C 1665.62 5.21882 -0.208975 0
M  V30 17820 H 1667.32 2.96755 -0.397092 0
M  V30 17821 H 1664.86 1.42709 -0.192413 0
M  V30 17822 H 1666.82 3.75711 1.90838 0
M  V30 17823 H 1665.54 2.52516 2.07131 0
M  V30 17824 H 1664.2 3.65651 0.263647 0
M  V30 17825 H 1663.85 4.26708 2.66325 0
M  V30 17826 H 1663.55 5.65684 1.58983 0
M  V30 17827 H 1665.07 5.56286 2.51751 0
M  V30 17828 H 1666.49 5.72746 0.252049 0
M  V30 17829 H 1664.88 5.98033 -0.497638 0
M  V30 17830 H 1665.95 4.7157 -1.12916 0
M  V30 17831 N 1667.3 0.221601 1.56034 0
M  V30 17832 C 1668.24 -0.688502 2.20291 0
M  V30 17833 C 1669.21 -1.19028 1.15851 0
M  V30 17834 O 1670.4 -1.24936 1.44206 0
M  V30 17835 C 1667.54 -1.89101 2.88678 0
M  V30 17836 C 1666.65 -1.42812 4.07711 0
M  V30 17837 C 1665.79 -2.5882 4.63881 0
M  V30 17838 C 1664.83 -2.09268 5.75216 0
M  V30 17839 N 1663.96 -3.18549 6.25676 0
M  V30 17840 H 1668.8 -0.133824 2.97699 0
M  V30 17841 H 1666.34 -0.0543007 1.47 0
M  V30 17842 H 1668.3 -2.59704 3.26512 0
M  V30 17843 H 1666.93 -2.41857 2.13788 0
M  V30 17844 H 1665.98 -0.617019 3.75363 0
M  V30 17845 H 1667.29 -1.02478 4.8816 0
M  V30 17846 H 1666.45 -3.37505 5.04158 0
M  V30 17847 H 1665.18 -3.02443 3.82596 0
M  V30 17848 H 1664.19 -1.29045 5.34441 0
M  V30 17849 H 1665.41 -1.66645 6.58336 0
M  V30 17850 H 1663.36 -3.61653 5.47305 0
M  V30 17851 H 1663.28 -2.82466 7.01248 0
M  V30 17852 H 1664.55 -3.97369 6.7061 0
M  V30 17853 N 1668.77 -1.57515 -0.0517878 0
M  V30 17854 C 1669.68 -2.08427 -1.07681 0
M  V30 17855 C 1670.7 -1.01797 -1.41115 0
M  V30 17856 O 1671.88 -1.33394 -1.50891 0
M  V30 17857 C 1668.94 -2.53472 -2.36544 0
M  V30 17858 C 1668 -3.74488 -2.09899 0
M  V30 17859 C 1667.24 -4.17374 -3.32618 0
M  V30 17860 O 1667.46 -3.59962 -4.42475 0
M  V30 17861 O 1666.39 -5.10006 -3.19653 0
M  V30 17862 H 1670.22 -2.96122 -0.674217 0
M  V30 17863 H 1667.8 -1.4699 -0.267274 0
M  V30 17864 H 1669.69 -2.82876 -3.12345 0
M  V30 17865 H 1668.36 -1.68899 -2.76143 0
M  V30 17866 H 1667.27 -3.50137 -1.31739 0
M  V30 17867 H 1668.6 -4.59975 -1.75169 0
M  V30 17868 N 1670.25 0.323614 -1.54242 0
M  V30 17869 C 1671.18 1.40344 -1.86616 0
M  V30 17870 C 1672.16 1.53972 -0.722963 0
M  V30 17871 O 1673.35 1.67852 -0.976692 0
M  V30 17872 C 1670.48 2.77112 -2.09347 0
M  V30 17873 C 1669.43 2.78273 -3.25189 0
M  V30 17874 C 1668.76 4.18116 -3.33291 0
M  V30 17875 C 1670.06 2.42025 -4.6284 0
M  V30 17876 H 1671.75 1.13499 -2.77053 0
M  V30 17877 H 1669.3 0.544553 -1.33306 0
M  V30 17878 H 1671.25 3.52719 -2.3058 0
M  V30 17879 H 1669.98 3.05435 -1.1566 0
M  V30 17880 H 1668.64 2.05121 -3.03844 0
M  V30 17881 H 1668.28 4.4358 -2.37163 0
M  V30 17882 H 1667.98 4.19799 -4.11147 0
M  V30 17883 H 1669.51 4.95536 -3.56758 0
M  V30 17884 H 1670.92 3.07346 -4.83954 0
M  V30 17885 H 1669.32 2.5496 -5.43245 0
M  V30 17886 H 1670.39 1.37175 -4.65092 0
M  V30 17887 N 1671.73 1.46313 0.585673 0
M  V30 17888 C 1672.68 1.56653 1.69495 0
M  V30 17889 C 1673.65 0.411007 1.60935 0
M  V30 17890 O 1674.83 0.627369 1.80191 0
M  V30 17891 C 1671.97 1.55996 3.0783 0
M  V30 17892 C 1671.09 2.82261 3.27036 0
M  V30 17893 C 1670.22 2.73129 4.55603 0
M  V30 17894 C 1669.26 3.94346 4.68143 0
M  V30 17895 N 1668.4 3.83617 5.88032 0
M  V30 17896 H 1673.24 2.51407 1.59995 0
M  V30 17897 H 1670.77 1.24729 0.779821 0
M  V30 17898 H 1672.73 1.53602 3.87895 0
M  V30 17899 H 1671.36 0.647766 3.16234 0
M  V30 17900 H 1670.41 2.94648 2.40596 0
M  V30 17901 H 1671.73 3.72107 3.32171 0
M  V30 17902 H 1670.88 2.68823 5.43893 0
M  V30 17903 H 1669.62 1.80917 4.52902 0
M  V30 17904 H 1668.62 3.98987 3.78272 0
M  V30 17905 H 1669.85 4.8765 4.72625 0
M  V30 17906 H 1667.8 2.9419 5.86334 0
M  V30 17907 H 1667.71 4.67117 5.94422 0
M  V30 17908 H 1668.98 3.83281 6.7876 0
M  V30 17909 N 1673.21 -0.830057 1.33969 0
M  V30 17910 C 1674.46 -1.58084 1.25269 0
M  V30 17911 C 1674.77 -1.94792 -0.177557 0
M  V30 17912 O 1675.98 -2.68733 -0.386657 0
M  V30 17913 C 1674.43 -2.85177 2.1955 0
M  V30 17914 C 1674.04 -2.55798 3.67792 0
M  V30 17915 C 1675.79 -3.632 2.19741 0
M  V30 17916 C 1673.69 -3.79041 4.53963 0
M  V30 17917 H 1672.62 -0.593289 0.465321 0
M  V30 17918 H 1675.27 -0.914476 1.5909 0
M  V30 17919 H 1673.66 -3.53401 1.78672 0
M  V30 17920 H 1674.83 -1.9573 4.17165 0
M  V30 17921 H 1673.14 -1.91064 3.69978 0
M  V30 17922 H 1675.74 -4.54695 2.81347 0
M  V30 17923 H 1676.08 -3.98786 1.1948 0
M  V30 17924 H 1676.62 -3.0191 2.59028 0
M  V30 17925 H 1673.36 -3.4858 5.55133 0
M  V30 17926 H 1672.88 -4.38417 4.09329 0
M  V30 17927 H 1674.56 -4.46527 4.68212 0
M  V30 17928 N 1674.69 -1.17582 -1.04939 0
M  V30 17929 C 1675.62 -0.918221 -2.14688 0
M  V30 17930 C 1676.6 0.140757 -1.69517 0
M  V30 17931 O 1677.78 -0.0100118 -1.94197 0
M  V30 17932 C 1674.91 -0.433531 -3.44584 0
M  V30 17933 C 1673.87 -1.43199 -4.03334 0
M  V30 17934 C 1673.19 -0.805154 -5.28603 0
M  V30 17935 C 1674.49 -2.80598 -4.40525 0
M  V30 17936 H 1676.19 -1.83604 -2.36495 0
M  V30 17937 H 1673.73 -0.884202 -1.13657 0
M  V30 17938 H 1675.69 -0.240722 -4.20712 0
M  V30 17939 H 1674.41 0.519832 -3.22437 0
M  V30 17940 H 1673.07 -1.61158 -3.29277 0
M  V30 17941 H 1672.72 0.155124 -5.02761 0
M  V30 17942 H 1672.42 -1.4717 -5.68871 0
M  V30 17943 H 1673.94 -0.622677 -6.07417 0
M  V30 17944 H 1675.36 -2.66341 -5.07676 0
M  V30 17945 H 1673.75 -3.43854 -4.91817 0
M  V30 17946 H 1674.82 -3.34815 -3.50752 0
M  V30 17947 N 1676.17 1.23705 -0.976463 0
M  V30 17948 C 1677.11 2.27034 -0.505813 0
M  V30 17949 C 1678.11 1.63716 0.435148 0
M  V30 17950 O 1679.31 1.7732 0.309474 0
M  V30 17951 H 1675.69 0.737862 -0.145131 0
M  V30 17952 H 1677.66 2.64097 -1.38908 0
M  V30 17953 C 1676.41 3.47234 0.179987 0
M  V30 17954 H 1675.73 3.96205 -0.534969 0
M  V30 17955 H 1677.17 4.21353 0.472996 0
M  V30 17956 C 1675.63 3.05979 1.40991 0
M  V30 17957 O 1676.16 3.13914 2.50641 0
M  V30 17958 N 1674.37 2.60934 1.27913 0
M  V30 17959 H 1673.91 2.54677 0.38696 0
M  V30 17960 H 1673.87 2.33697 2.10316 0
M  V30 17961 N 1677.64 0.747635 1.38738 0
M  V30 17962 C 1678.57 0.131317 2.3313 0
M  V30 17963 C 1679.55 -0.710229 1.54563 0
M  V30 17964 O 1680.74 -0.652631 1.82905 0
M  V30 17965 C 1677.87 -0.767168 3.38721 0
M  V30 17966 C 1676.82 -0.0288124 4.2799 0
M  V30 17967 C 1676.15 -1.04515 5.24386 0
M  V30 17968 C 1677.45 1.13608 5.09795 0
M  V30 17969 H 1679.14 0.91981 2.84921 0
M  V30 17970 H 1676.69 0.443764 1.36992 0
M  V30 17971 H 1678.64 -1.20796 4.03716 0
M  V30 17972 H 1677.37 -1.58792 2.85399 0
M  V30 17973 H 1676.03 0.392491 3.64493 0
M  V30 17974 H 1675.67 -1.8598 4.67355 0
M  V30 17975 H 1675.37 -0.555813 5.84965 0
M  V30 17976 H 1676.9 -1.48538 5.92257 0
M  V30 17977 H 1678.31 0.773129 5.68063 0
M  V30 17978 H 1676.71 1.55589 5.79579 0
M  V30 17979 H 1677.78 1.95182 4.43883 0
M  V30 17980 N 1679.12 -1.49583 0.496242 0
M  V30 17981 C 1680.35 -2.07342 -0.0490986 0
M  V30 17982 C 1680.77 -1.35474 -1.30493 0
M  V30 17983 O 1680.13 -0.410005 -1.76603 0
M  V30 17984 C 1680.18 -3.59427 -0.290601 0
M  V30 17985 O 1679.28 -3.89111 -1.36626 0
M  V30 17986 H 1678.62 -0.663562 0.0241141 0
M  V30 17987 H 1681.15 -1.92452 0.6945 0
M  V30 17988 H 1681.16 -4.04627 -0.523549 0
M  V30 17989 H 1679.84 -4.11147 0.626959 0
M  V30 17990 H 1678.41 -3.55726 -1.11864 0
M  V30 17991 N 1680.6 -0.229873 -1.55915 0
M  V30 17992 C 1681.55 0.676809 -2.20653 0
M  V30 17993 C 1682.52 1.18412 -1.16481 0
M  V30 17994 O 1683.7 1.2417 -1.44867 0
M  V30 17995 C 1680.84 1.87567 -2.89677 0
M  V30 17996 C 1679.95 1.40648 -4.08463 0
M  V30 17997 C 1679.09 2.56356 -4.65247 0
M  V30 17998 C 1678.13 2.06215 -5.76318 0
M  V30 17999 N 1677.27 3.15226 -6.27357 0
M  V30 18000 H 1682.11 0.118035 -2.97766 0
M  V30 18001 H 1679.64 0.0465042 -1.47026 0
M  V30 18002 H 1681.6 2.57968 -3.27884 0
M  V30 18003 H 1680.23 2.40719 -2.15067 0
M  V30 18004 H 1679.28 0.597104 -3.75684 0
M  V30 18005 H 1680.59 0.998877 -4.88696 0
M  V30 18006 H 1679.75 3.34827 -5.05941 0
M  V30 18007 H 1678.49 3.0041 -3.84194 0
M  V30 18008 H 1677.49 1.26209 -5.35118 0
M  V30 18009 H 1678.72 1.63151 -6.59211 0
M  V30 18010 H 1676.66 3.58746 -5.49215 0
M  V30 18011 H 1676.58 2.78744 -7.02736 0
M  V30 18012 H 1677.85 3.93807 -6.72708 0
M  V30 18013 N 1682.08 1.5754 0.0434337 0
M  V30 18014 C 1683.03 2.06683 1.067 0
M  V30 18015 C 1684.02 0.977691 1.38339 0
M  V30 18016 O 1685.23 1.16266 1.37412 0
M  V30 18017 H 1681.6 0.659378 0.361559 0
M  V30 18018 H 1683.57 2.91747 0.626605 0
M  V30 18019 C 1682.32 2.54985 2.36385 0
M  V30 18020 H 1681.64 3.384 2.12897 0
M  V30 18021 H 1683.08 2.93095 3.06384 0
M  V30 18022 C 1681.54 1.44484 3.04345 0
M  V30 18023 O 1682.07 0.80291 3.93594 0
M  V30 18024 N 1680.28 1.18292 2.65434 0
M  V30 18025 H 1679.83 1.70676 1.92944 0
M  V30 18026 H 1679.78 0.445676 3.11225 0
M  V30 18027 N 1683.56 -0.31543 1.54411 0
M  V30 18028 C 1684.51 -1.3898 1.80745 0
M  V30 18029 C 1685.49 -1.46567 0.663849 0
M  V30 18030 O 1686.68 -1.50963 0.924084 0
M  V30 18031 C 1683.81 -2.7571 2.04546 0
M  V30 18032 C 1682.9 -2.72403 3.2505 0
M  V30 18033 N 1683.29 -2.38715 4.45925 0
M  V30 18034 C 1681.59 -3.03523 3.26787 0
M  V30 18035 C 1682.29 -2.44346 5.27892 0
M  V30 18036 N 1681.26 -2.81118 4.65268 0
M  V30 18037 H 1685.06 -1.11875 2.71774 0
M  V30 18038 H 1682.58 -0.523951 1.53716 0
M  V30 18039 H 1684.58 -3.53156 2.21554 0
M  V30 18040 H 1683.24 -3.03738 1.14775 0
M  V30 18041 H 1684.25 -2.11419 4.72782 0
M  V30 18042 H 1680.92 -3.3654 2.47076 0
M  V30 18043 H 1682.31 -2.21221 6.34437 0
M  V30 18044 N 1685.03 -1.46622 -0.577906 0
M  V30 18045 C 1686.28 -1.51446 -1.33218 0
M  V30 18046 C 1686.6 -0.17258 -1.94837 0
M  V30 18047 O 1687.8 -0.0986578 -2.71321 0
M  V30 18048 C 1686.26 -2.66876 -2.41465 0
M  V30 18049 C 1685.87 -4.07506 -1.86127 0
M  V30 18050 C 1687.61 -2.80975 -3.18203 0
M  V30 18051 C 1685.52 -5.14268 -2.92031 0
M  V30 18052 H 1684.45 -0.563643 -0.500822 0
M  V30 18053 H 1687.1 -1.72845 -0.616186 0
M  V30 18054 H 1685.48 -2.38816 -3.15884 0
M  V30 18055 H 1686.65 -4.45378 -1.18218 0
M  V30 18056 H 1684.97 -3.98115 -1.2204 0
M  V30 18057 H 1687.57 -3.57906 -3.97249 0
M  V30 18058 H 1687.91 -1.88665 -3.71095 0
M  V30 18059 H 1688.44 -3.08705 -2.50891 0
M  V30 18060 H 1685.18 -6.08386 -2.44021 0
M  V30 18061 H 1684.7 -4.80936 -3.58414 0
M  V30 18062 H 1686.38 -5.40321 -3.55896 0
M  V30 18063 N 1686.51 0.822941 -1.34408 0
M  V30 18064 C 1687.74 1.61607 -1.29992 0
M  V30 18065 C 1688.16 1.87695 0.123301 0
M  V30 18066 O 1687.52 1.45247 1.08504 0
M  V30 18067 C 1687.57 2.934 -2.09639 0
M  V30 18068 O 1686.67 3.85467 -1.4659 0
M  V30 18069 H 1686.01 0.491504 -0.446452 0
M  V30 18070 H 1688.54 1.02264 -1.7721 0
M  V30 18071 H 1688.55 3.42966 -2.20994 0
M  V30 18072 H 1687.23 2.73736 -3.13116 0
M  V30 18073 H 1685.81 3.43984 -1.43978 0
M  V30 18074 N 1687.99 1.18137 1.04314 0
M  V30 18075 C 1689.22 1.00062 1.81666 0
M  V30 18076 C 1689.64 -0.446281 1.82729 0
M  V30 18077 O 1689 -1.32004 1.24277 0
M  V30 18078 C 1689.05 1.55698 3.25255 0
M  V30 18079 O 1688.15 0.776662 4.05021 0
M  V30 18080 H 1687.49 0.354651 0.561354 0
M  V30 18081 H 1690.02 1.56837 1.3139 0
M  V30 18082 H 1690.03 1.58303 3.76037 0
M  V30 18083 H 1688.71 2.61016 3.23795 0
M  V30 18084 H 1687.28 0.822723 3.63711 0
M  V30 18085 N 1689.47 -1.23186 0.98301 0
M  V30 18086 C 1690.4 -2.27054 0.544858 0
M  V30 18087 C 1691.38 -1.64749 -0.423281 0
M  V30 18088 O 1692.56 -1.91611 -0.316075 0
M  V30 18089 C 1689.69 -3.46972 -0.150976 0
M  V30 18090 C 1688.65 -4.21647 0.734707 0
M  V30 18091 C 1687.97 -5.34618 -0.0934874 0
M  V30 18092 C 1689.27 -4.81372 2.02679 0
M  V30 18093 H 1690.97 -2.63957 1.41305 0
M  V30 18094 H 1688.51 -1.26885 0.680895 0
M  V30 18095 H 1690.47 -4.18784 -0.468825 0
M  V30 18096 H 1689.19 -3.09137 -1.05364 0
M  V30 18097 H 1687.85 -3.51655 1.03605 0
M  V30 18098 H 1687.5 -4.93025 -0.996768 0
M  V30 18099 H 1687.2 -5.85503 0.496019 0
M  V30 18100 H 1688.72 -6.09251 -0.405658 0
M  V30 18101 H 1690.14 -5.45178 1.77353 0
M  V30 18102 H 1688.53 -5.42554 2.56429 0
M  V30 18103 H 1689.6 -4.01972 2.71194 0
M  V30 18104 N 1690.95 -0.754982 -1.38339 0
M  V30 18105 C 1692.17 -0.321355 -2.04895 0
M  V30 18106 C 1692.6 1.04249 -1.56569 0
M  V30 18107 O 1691.95 1.66464 -0.718299 0
M  V30 18108 C 1692 -0.354873 -3.5885 0
M  V30 18109 O 1691.11 0.65063 -4.07235 0
M  V30 18110 H 1690.45 -0.142033 -0.648631 0
M  V30 18111 H 1692.98 -1.02649 -1.76987 0
M  V30 18112 H 1692.99 -0.206243 -4.07478 0
M  V30 18113 H 1691.66 -1.34994 -3.93382 0
M  V30 18114 H 1690.24 0.466498 -3.69971 0
M  V30 18115 N 1692.42 1.49318 -0.504168 0
M  V30 18116 C 1693.33 2.32958 0.277053 0
M  V30 18117 C 1694.35 1.44838 0.964266 0
M  V30 18118 O 1695.53 1.77856 0.944947 0
M  V30 18119 C 1692.59 3.20352 1.32572 0
M  V30 18120 C 1691.65 4.24326 0.651606 0
M  V30 18121 C 1690.89 5.07544 1.65031 0
M  V30 18122 O 1691.11 4.92326 2.88047 0
M  V30 18123 O 1690.04 5.89737 1.20388 0
M  V30 18124 H 1693.87 3.00952 -0.40763 0
M  V30 18125 H 1691.45 1.47023 -0.265453 0
M  V30 18126 H 1693.34 3.74483 1.93237 0
M  V30 18127 H 1692.01 2.5505 1.99327 0
M  V30 18128 H 1690.92 3.741 0.00513384 0
M  V30 18129 H 1692.25 4.92193 0.0264424 0
M  V30 18130 N 1693.9 0.238138 1.5579 0
M  V30 18131 C 1694.85 -0.681413 2.22395 0
M  V30 18132 C 1695.84 -1.18691 1.20867 0
M  V30 18133 O 1697.05 -1.14482 1.38903 0
M  V30 18134 H 1693.43 -0.238207 0.713275 0
M  V30 18135 H 1695.4 -0.0964141 2.98244 0
M  V30 18136 C 1694.15 -1.87137 2.93045 0
M  V30 18137 H 1693.47 -1.49153 3.70936 0
M  V30 18138 H 1694.91 -2.4922 3.43024 0
M  V30 18139 C 1693.37 -2.73709 1.9643 0
M  V30 18140 O 1693.9 -3.72973 1.49178 0
M  V30 18141 N 1692.1 -2.40092 1.6372 0
M  V30 18142 H 1691.65 -1.59423 2.02341 0
M  V30 18143 H 1691.61 -2.98293 0.993414 0
M  V30 18144 N 1695.38 -1.57561 -0.0350783 0
M  V30 18145 C 1696.63 -1.88996 -0.727095 0
M  V30 18146 C 1696.96 -0.834671 -1.7568 0
M  V30 18147 O 1696.21 0.165098 -1.95002 0
M  V30 18148 C 1696.51 -3.27169 -1.43858 0
M  V30 18149 C 1696.18 -4.47589 -0.545421 0
M  V30 18150 C 1694.84 -4.80268 -0.2994 0
M  V30 18151 C 1697.19 -5.21151 0.0716124 0
M  V30 18152 C 1694.52 -5.839 0.57253 0
M  V30 18153 C 1696.87 -6.25709 0.931209 0
M  V30 18154 C 1695.53 -6.56866 1.18675 0
M  V30 18155 H 1694.8 -0.691586 -0.266063 0
M  V30 18156 H 1697.45 -1.91496 0.0129076 0
M  V30 18157 H 1695.76 -3.2063 -2.25175 0
M  V30 18158 H 1697.45 -3.48738 -1.97946 0
M  V30 18159 H 1694.04 -4.22034 -0.747323 0
M  V30 18160 H 1698.23 -4.96188 -0.105504 0
M  V30 18161 H 1693.48 -6.06418 0.778882 0
M  V30 18162 H 1697.66 -6.81855 1.41587 0
M  V30 18163 H 1695.28 -7.3699 1.86412 0
M  V30 18164 N 1696.86 0.307236 -1.54576 0
M  V30 18165 C 1697.79 1.38357 -1.88095 0
M  V30 18166 C 1698.77 1.53196 -0.739253 0
M  V30 18167 O 1699.95 1.66807 -0.99444 0
M  V30 18168 C 1697.08 2.74876 -2.12274 0
M  V30 18169 C 1696.04 2.74809 -3.28122 0
M  V30 18170 C 1695.36 4.14557 -3.37707 0
M  V30 18171 C 1696.66 2.37103 -4.65381 0
M  V30 18172 H 1698.36 1.10554 -2.78241 0
M  V30 18173 H 1695.9 0.530383 -1.33877 0
M  V30 18174 H 1697.86 3.50254 -2.34308 0
M  V30 18175 H 1696.58 3.04191 -1.18893 0
M  V30 18176 H 1695.24 2.01887 -3.06002 0
M  V30 18177 H 1694.89 4.41039 -2.41854 0
M  V30 18178 H 1694.59 4.15415 -4.15577 0
M  V30 18179 H 1696.11 4.91724 -3.61994 0
M  V30 18180 H 1697.53 3.02196 -4.87186 0
M  V30 18181 H 1695.92 2.49184 -5.45919 0
M  V30 18182 H 1696.99 1.32235 -4.66521 0
M  V30 18183 N 1698.34 1.46926 0.570122 0
M  V30 18184 C 1699.25 1.6105 1.70587 0
M  V30 18185 C 1700.26 0.493636 1.66851 0
M  V30 18186 O 1701.44 0.759454 1.86532 0
M  V30 18187 C 1698.5 1.60913 3.07096 0
M  V30 18188 C 1697.56 2.83928 3.21999 0
M  V30 18189 C 1696.8 2.83788 4.51996 0
M  V30 18190 O 1697.02 1.93256 5.36664 0
M  V30 18191 O 1695.95 3.75491 4.70415 0
M  V30 18192 H 1699.78 2.57126 1.61616 0
M  V30 18193 H 1697.37 1.29863 0.738637 0
M  V30 18194 H 1699.25 1.63576 3.88356 0
M  V30 18195 H 1697.92 0.680005 3.16477 0
M  V30 18196 H 1696.83 2.86814 2.40185 0
M  V30 18197 H 1698.16 3.76091 3.17516 0
M  V30 18198 N 1699.82 -0.815801 1.34842 0
M  V30 18199 C 1700.78 -1.90871 1.2689 0
M  V30 18200 C 1701.78 -1.59762 0.182445 0
M  V30 18201 O 1702.97 -1.68667 0.435543 0
M  V30 18202 C 1700.1 -3.27081 0.960774 0
M  V30 18203 H 1701.29 -1.99343 2.24059 0
M  V30 18204 H 1698.85 -1.0106 1.19233 0
M  V30 18205 H 1699.58 -3.24299 -0.00744059 0
M  V30 18206 H 1699.37 -3.51045 1.74671 0
M  V30 18207 H 1700.86 -4.07101 0.930494 0
M  V30 18208 N 1701.29 -1.18689 -1.03686 0
M  V30 18209 C 1702.53 -0.995625 -1.78512 0
M  V30 18210 C 1702.9 0.466151 -1.86255 0
M  V30 18211 O 1704.1 0.776976 -2.57326 0
M  V30 18212 C 1702.37 -1.63695 -3.17709 0
M  V30 18213 S 1703.93 -1.59397 -4.08825 0
M  V30 18214 H 1700.75 -0.357446 -0.614616 0
M  V30 18215 H 1703.35 -1.50899 -1.24297 0
M  V30 18216 H 1702.05 -2.69301 -3.09685 0
M  V30 18217 H 1701.58 -1.12404 -3.77 0
M  V30 18218 H 1703.6 -0.61254 -4.92405 0
M  V30 18219 N 1702.77 1.22662 -0.989529 0
M  V30 18220 C 1704.18 1.73116 -0.699124 0
M  V30 18221 C 1704.53 1.79847 0.784197 0
M  V30 18222 O 1703.66 1.44248 1.61311 0
M  V30 18223 C 1704.25 3.14403 -1.2624 0
M  V30 18224 C 1702.81 3.62275 -1.02144 0
M  V30 18225 C 1701.96 2.40257 -1.38463 0
M  V30 18226 H 1704.91 1.08057 -1.1623 0
M  V30 18227 H 1704.93 3.75091 -0.639307 0
M  V30 18228 H 1704.44 3.09472 -2.34198 0
M  V30 18229 H 1702.54 3.72577 0.0416622 0
M  V30 18230 H 1702.66 4.48587 -1.68245 0
M  V30 18231 H 1701.02 2.41705 -0.803179 0
M  V30 18232 H 1701.8 2.3799 -2.47418 0
M  V30 18233 N 1704.25 0.762308 1.37937 0
M  V30 18234 C 1705.2 0.140412 2.30372 0
M  V30 18235 C 1706.17 -0.700152 1.50622 0
M  V30 18236 O 1707.35 -0.654474 1.79224 0
M  V30 18237 C 1704.49 -0.740056 3.37071 0
M  V30 18238 C 1703.6 0.116084 4.31844 0
M  V30 18239 C 1702.74 -0.768203 5.25616 0
M  V30 18240 C 1701.78 0.0910442 6.12032 0
M  V30 18241 N 1700.92 -0.75069 6.98075 0
M  V30 18242 H 1705.76 0.934224 2.82977 0
M  V30 18243 H 1703.29 0.472316 1.39311 0
M  V30 18244 H 1705.25 -1.26525 3.97551 0
M  V30 18245 H 1703.88 -1.49956 2.85855 0
M  V30 18246 H 1702.93 0.758999 3.72751 0
M  V30 18247 H 1704.24 0.779285 4.92675 0
M  V30 18248 H 1703.4 -1.36024 5.91255 0
M  V30 18249 H 1702.14 -1.46511 4.65173 0
M  V30 18250 H 1701.14 0.695687 5.45381 0
M  V30 18251 H 1702.37 0.785145 6.74546 0
M  V30 18252 H 1700.31 -1.43239 6.40171 0
M  V30 18253 H 1700.23 -0.144579 7.55862 0
M  V30 18254 H 1701.5 -1.32742 7.68114 0
M  V30 18255 N 1705.73 -1.49049 0.51208 0
M  V30 18256 C 1706.97 -2.0278 -0.0285311 0
M  V30 18257 C 1707.31 -1.39003 -1.35617 0
M  V30 18258 O 1706.58 -0.52952 -1.87153 0
M  V30 18259 C 1706.86 -3.59701 -0.169433 0
M  V30 18260 C 1706.72 -4.33989 1.18211 0
M  V30 18261 C 1708.04 -4.30698 -0.904812 0
M  V30 18262 H 1705.16 -0.736946 -0.00889467 0
M  V30 18263 H 1707.8 -1.77959 0.66564 0
M  V30 18264 H 1705.95 -3.8098 -0.760667 0
M  V30 18265 H 1707.62 -4.24176 1.81307 0
M  V30 18266 H 1705.86 -3.9611 1.76859 0
M  V30 18267 H 1706.53 -5.42177 1.03671 0
M  V30 18268 H 1709.01 -4.14141 -0.40327 0
M  V30 18269 H 1707.89 -5.40221 -0.972264 0
M  V30 18270 H 1708.15 -3.96718 -1.95108 0
M  V30 18271 N 1707.21 -0.246397 -1.55662 0
M  V30 18272 C 1708.12 0.664125 -2.25003 0
M  V30 18273 C 1709.13 1.19368 -1.26598 0
M  V30 18274 O 1710.31 1.23006 -1.59473 0
M  V30 18275 C 1707.37 1.8446 -2.93557 0
M  V30 18276 C 1706.43 1.35456 -4.0737 0
M  V30 18277 C 1705.67 2.47877 -4.72645 0
M  V30 18278 O 1705.89 3.66594 -4.36995 0
M  V30 18279 O 1704.82 2.17663 -5.61165 0
M  V30 18280 H 1708.65 0.103277 -3.03524 0
M  V30 18281 H 1706.23 -0.0149207 -1.49393 0
M  V30 18282 H 1708.12 2.53349 -3.36737 0
M  V30 18283 H 1706.79 2.39308 -2.17976 0
M  V30 18284 H 1705.7 0.632958 -3.68706 0
M  V30 18285 H 1707.03 0.852175 -4.84767 0
M  V30 18286 N 1708.68 1.57577 0.026722 0
M  V30 18287 C 1709.91 1.94035 0.732473 0
M  V30 18288 C 1710.33 0.846575 1.67972 0
M  V30 18289 O 1709.69 -0.197514 1.80221 0
M  V30 18290 C 1709.74 3.2956 1.46365 0
M  V30 18291 O 1708.84 3.21975 2.57694 0
M  V30 18292 H 1708.18 0.634155 0.196832 0
M  V30 18293 H 1710.71 2.04592 -0.018503 0
M  V30 18294 H 1710.72 3.64504 1.83305 0
M  V30 18295 H 1709.4 4.0873 0.768943 0
M  V30 18296 H 1707.98 2.98665 2.23279 0
M  V30 18297 N 1710.16 -0.299034 1.54737 0
M  V30 18298 C 1711.41 -1.034 1.74111 0
M  V30 18299 C 1711.74 -1.87197 0.527965 0
M  V30 18300 O 1710.99 -1.89465 -0.490052 0
M  V30 18301 C 1711.29 -1.9673 2.98382 0
M  V30 18302 C 1710.96 -1.28893 4.32085 0
M  V30 18303 C 1709.62 -1.10124 4.68429 0
M  V30 18304 C 1711.97 -0.804114 5.1496 0
M  V30 18305 C 1709.3 -0.415622 5.85226 0
M  V30 18306 C 1711.65 -0.132204 6.32462 0
M  V30 18307 C 1710.31 0.0674159 6.67466 0
M  V30 18308 H 1709.58 -0.378366 0.637119 0
M  V30 18309 H 1712.23 -0.308686 1.88996 0
M  V30 18310 H 1710.54 -2.75795 2.78288 0
M  V30 18311 H 1712.23 -2.53671 3.10567 0
M  V30 18312 H 1708.82 -1.44507 4.03504 0
M  V30 18313 H 1713.01 -0.93682 4.87378 0
M  V30 18314 H 1708.26 -0.249993 6.10889 0
M  V30 18315 H 1712.44 0.251345 6.95946 0
M  V30 18316 H 1710.06 0.600691 7.57823 0
M  V30 18317 N 1711.64 -1.47227 -0.562322 0
M  V30 18318 C 1712.86 -1.5744 -1.35008 0
M  V30 18319 C 1713.29 -0.223223 -1.86771 0
M  V30 18320 O 1712.65 0.800078 -1.62691 0
M  V30 18321 C 1712.7 -2.5992 -2.49948 0
M  V30 18322 O 1711.8 -2.14836 -3.52022 0
M  V30 18323 H 1711.14 -0.529064 -0.401232 0
M  V30 18324 H 1713.67 -1.92966 -0.680084 0
M  V30 18325 H 1713.68 -2.80177 -2.96588 0
M  V30 18326 H 1712.36 -3.58031 -2.11629 0
M  V30 18327 H 1710.93 -2.04655 -3.11722 0
M  V30 18328 N 1713.12 0.808639 -1.35273 0
M  V30 18329 C 1714.08 1.90195 -1.279 0
M  V30 18330 C 1715.08 1.59663 -0.190915 0
M  V30 18331 O 1716.27 1.68434 -0.444482 0
M  V30 18332 C 1713.4 3.26567 -0.978106 0
M  V30 18333 H 1714.6 1.98152 -2.25113 0
M  V30 18334 H 1712.15 1.00426 -1.19767 0
M  V30 18335 H 1712.88 3.24299 -0.00975789 0
M  V30 18336 H 1712.67 3.50114 -1.7653 0
M  V30 18337 H 1714.16 4.06602 -0.95207 0
M  V30 18338 N 1714.6 1.19237 1.03055 0
M  V30 18339 C 1716.01 0.944224 1.28672 0
M  V30 18340 C 1716.21 -0.384378 1.978 0
M  V30 18341 O 1715.27 -1.11629 2.26484 0
M  V30 18342 C 1716.58 2.11704 2.13546 0
M  V30 18343 C 1718.13 2.15647 2.2686 0
M  V30 18344 C 1718.6 3.32375 3.15105 0
M  V30 18345 N 1720.1 3.323 3.22693 0
M  V30 18346 C 1720.83 4.19265 3.91158 0
M  V30 18347 N 1720.33 5.16381 4.61868 0
M  V30 18348 N 1722.12 4.07147 3.87541 0
M  V30 18349 H 1714.27 2.0472 0.565987 0
M  V30 18350 H 1716.53 0.895073 0.312328 0
M  V30 18351 H 1716.24 3.07845 1.70072 0
M  V30 18352 H 1716.11 2.08624 3.14254 0
M  V30 18353 H 1718.5 1.20078 2.69565 0
M  V30 18354 H 1718.58 2.22781 1.25708 0
M  V30 18355 H 1718.23 4.28222 2.73108 0
M  V30 18356 H 1718.16 3.22478 4.16312 0
M  V30 18357 H 1720.65 2.62 2.72331 0
M  V30 18358 H 1720.96 5.7909 5.11737 0
M  V30 18359 H 1719.3 5.20331 4.60739 0
M  V30 18360 H 1722.5 3.30555 3.31438 0
M  V30 18361 H 1722.67 4.75135 4.40625 0
M  V30 18362 N 1716.07 -1.22136 0.99602 0
M  V30 18363 C 1717.01 -2.22793 0.493816 0
M  V30 18364 C 1717.99 -1.56318 -0.447601 0
M  V30 18365 O 1719.17 -1.84784 -0.372419 0
M  V30 18366 C 1716.3 -3.37509 -0.283763 0
M  V30 18367 C 1715.34 -4.222 0.60411 0
M  V30 18368 S 1716.18 -4.9424 2.06125 0
M  V30 18369 C 1717.33 -6.12394 1.29325 0
M  V30 18370 H 1717.56 -2.65047 1.34675 0
M  V30 18371 H 1715.1 -1.31862 0.803237 0
M  V30 18372 H 1717.06 -4.04023 -0.726346 0
M  V30 18373 H 1715.72 -2.93757 -1.11201 0
M  V30 18374 H 1714.91 -5.04 0.00565269 0
M  V30 18375 H 1714.51 -3.60835 0.983588 0
M  V30 18376 H 1716.8 -6.75161 0.5625 0
M  V30 18377 H 1717.75 -6.76657 2.08664 0
M  V30 18378 H 1718.15 -5.58728 0.805166 0
M  V30 18379 N 1717.55 -0.769612 -1.37531 0
M  V30 18380 C 1718.5 -0.142211 -2.32165 0
M  V30 18381 C 1719.49 0.687376 -1.54827 0
M  V30 18382 O 1720.7 0.584677 -1.7024 0
M  V30 18383 H 1717.08 -0.0271998 -0.751508 0
M  V30 18384 H 1719.05 -0.956148 -2.82667 0
M  V30 18385 C 1717.8 0.72421 -3.40074 0
M  V30 18386 H 1717.12 0.0952318 -3.99687 0
M  V30 18387 H 1718.56 1.13021 -4.08659 0
M  V30 18388 C 1717.02 1.87388 -2.79977 0
M  V30 18389 O 1717.55 2.96921 -2.70557 0
M  V30 18390 N 1715.75 1.67384 -2.37552 0
M  V30 18391 H 1715.3 0.782941 -2.45414 0
M  V30 18392 H 1715.26 2.44474 -1.97686 0
M  V30 18393 N 1719.03 1.48775 -0.519977 0
M  V30 18394 C 1720.28 2.02492 0.0177505 0
M  V30 18395 C 1720.61 1.39801 1.35226 0
M  V30 18396 O 1719.86 0.529591 1.88398 0
M  V30 18397 C 1720.16 3.56844 0.199204 0
M  V30 18398 C 1719.83 4.38271 -1.05968 0
M  V30 18399 C 1718.49 4.6024 -1.40472 0
M  V30 18400 C 1720.84 4.85507 -1.89559 0
M  V30 18401 C 1718.17 5.26691 -2.58483 0
M  V30 18402 C 1720.52 5.53257 -3.0674 0
M  V30 18403 C 1719.18 5.73468 -3.41601 0
M  V30 18404 H 1718.45 0.740972 0.00649536 0
M  V30 18405 H 1721.1 1.78869 -0.683977 0
M  V30 18406 H 1719.41 3.79252 0.983617 0
M  V30 18407 H 1721.1 3.9602 0.63002 0
M  V30 18408 H 1717.69 4.21425 -0.780955 0
M  V30 18409 H 1721.88 4.68345 -1.64215 0
M  V30 18410 H 1717.13 5.40538 -2.85707 0
M  V30 18411 H 1721.31 5.88829 -3.71824 0
M  V30 18412 H 1718.93 6.24732 -4.33144 0
M  V30 18413 N 1720.51 0.254649 1.55529 0
M  V30 18414 C 1721.44 -0.635656 2.24681 0
M  V30 18415 C 1722.42 -1.17519 1.22977 0
M  V30 18416 O 1723.6 -1.21311 1.51649 0
M  V30 18417 C 1720.73 -1.82922 2.95224 0
M  V30 18418 C 1719.69 -1.42212 4.03683 0
M  V30 18419 C 1719.01 -2.69713 4.61691 0
M  V30 18420 C 1720.31 -0.587436 5.18986 0
M  V30 18421 H 1722.01 -0.0590063 2.99342 0
M  V30 18422 H 1719.55 -0.02694 1.43975 0
M  V30 18423 H 1721.51 -2.45777 3.42304 0
M  V30 18424 H 1720.23 -2.43137 2.18064 0
M  V30 18425 H 1718.89 -0.81687 3.57383 0
M  V30 18426 H 1718.54 -3.28143 3.81223 0
M  V30 18427 H 1718.24 -2.43194 5.34911 0
M  V30 18428 H 1719.76 -3.33453 5.11509 0
M  V30 18429 H 1721.18 -1.12048 5.62244 0
M  V30 18430 H 1719.57 -0.417988 5.98643 0
M  V30 18431 H 1720.64 0.398577 4.83259 0
M  V30 18432 N 1721.99 -1.57589 -0.0183649 0
M  V30 18433 C 1722.95 -2.06217 -1.00035 0
M  V30 18434 C 1723.95 -0.968195 -1.28385 0
M  V30 18435 O 1725.14 -1.23147 -1.23209 0
M  V30 18436 C 1722.27 -2.48815 -2.33032 0
M  V30 18437 H 1723.46 -2.94236 -0.580085 0
M  V30 18438 H 1721.02 -1.5403 -0.265438 0
M  V30 18439 H 1721.75 -1.63985 -2.79785 0
M  V30 18440 H 1721.54 -3.28694 -2.13781 0
M  V30 18441 H 1723.03 -2.86828 -3.03512 0
M  V30 18442 N 1723.46 0.290824 -1.54893 0
M  V30 18443 C 1724.43 1.34215 -1.85793 0
M  V30 18444 C 1725.43 1.43204 -0.731393 0
M  V30 18445 O 1726.62 1.42663 -0.999647 0
M  V30 18446 C 1723.75 2.72577 -2.0473 0
M  V30 18447 H 1724.94 1.08056 -2.79757 0
M  V30 18448 H 1722.5 0.528008 -1.47111 0
M  V30 18449 H 1723.23 3.03943 -1.13088 0
M  V30 18450 H 1723.02 2.67442 -2.86736 0
M  V30 18451 H 1724.51 3.48573 -2.29971 0
M  V30 18452 N 1724.94 1.47523 0.554506 0
M  V30 18453 C 1725.88 1.54756 1.67707 0
M  V30 18454 C 1726.85 0.39953 1.57615 0
M  V30 18455 O 1728.04 0.60771 1.78435 0
M  V30 18456 C 1725.16 1.45263 3.05968 0
M  V30 18457 C 1724.21 2.64602 3.34497 0
M  V30 18458 S 1725.04 4.26775 3.23455 0
M  V30 18459 C 1726.2 4.19839 4.64204 0
M  V30 18460 H 1726.43 2.49728 1.61318 0
M  V30 18461 H 1723.97 1.35754 0.735541 0
M  V30 18462 H 1725.92 1.40473 3.85717 0
M  V30 18463 H 1724.58 0.516709 3.09821 0
M  V30 18464 H 1723.78 2.5403 4.35298 0
M  V30 18465 H 1723.38 2.66528 2.62372 0
M  V30 18466 H 1725.67 3.8826 5.55212 0
M  V30 18467 H 1726.61 5.20736 4.79833 0
M  V30 18468 H 1727.02 3.5066 4.42378 0
M  V30 18469 N 1726.42 -0.801453 1.357 0
M  V30 18470 C 1727.83 -1.37581 1.26208 0
M  V30 18471 C 1728.18 -1.95928 -0.103326 0
M  V30 18472 O 1727.31 -1.91676 -1.00445 0
M  V30 18473 C 1727.9 -2.50122 2.28527 0
M  V30 18474 C 1726.46 -3.03405 2.2276 0
M  V30 18475 C 1725.61 -1.76401 2.13958 0
M  V30 18476 H 1728.56 -0.60407 1.46754 0
M  V30 18477 H 1728.58 -3.28814 1.91472 0
M  V30 18478 H 1728.09 -2.07626 3.27892 0
M  V30 18479 H 1726.19 -3.50352 1.26822 0
M  V30 18480 H 1726.31 -3.61038 3.14942 0
M  V30 18481 H 1724.67 -1.98158 1.60017 0
M  V30 18482 H 1725.45 -1.3605 3.15191 0
M  V30 18483 N 1727.9 -1.19782 -1.02421 0
M  V30 18484 C 1729.15 -1.00331 -1.75897 0
M  V30 18485 C 1729.47 0.465413 -1.8885 0
M  V30 18486 O 1728.73 1.36182 -1.40545 0
M  V30 18487 C 1729.03 -1.62297 -3.18425 0
M  V30 18488 C 1728.69 -3.12059 -3.25468 0
M  V30 18489 C 1727.36 -3.52931 -3.27098 0
M  V30 18490 C 1729.71 -4.08065 -3.24241 0
M  V30 18491 C 1727.04 -4.88351 -3.25162 0
M  V30 18492 C 1729.39 -5.43421 -3.23846 0
M  V30 18493 C 1728.05 -5.83717 -3.23775 0
M  V30 18494 H 1727.32 -0.367139 -0.643654 0
M  V30 18495 H 1729.97 -1.49094 -1.2018 0
M  V30 18496 H 1728.27 -1.05777 -3.77251 0
M  V30 18497 H 1729.97 -1.44772 -3.73955 0
M  V30 18498 H 1726.56 -2.79496 -3.24931 0
M  V30 18499 H 1730.74 -3.77528 -3.22159 0
M  V30 18500 H 1726 -5.18845 -3.23434 0
M  V30 18501 H 1730.17 -6.17566 -3.21847 0
M  V30 18502 H 1727.8 -6.88623 -3.22029 0
M  V30 18503 N 1729.38 1.21606 -1.00248 0
M  V30 18504 C 1730.31 2.26159 -0.580911 0
M  V30 18505 C 1731.29 1.65402 0.397017 0
M  V30 18506 O 1732.47 1.92089 0.285552 0
M  V30 18507 C 1729.6 3.47168 0.0957564 0
M  V30 18508 C 1728.56 4.20425 -0.801695 0
M  V30 18509 C 1727.88 5.34699 0.00842241 0
M  V30 18510 C 1729.18 4.78086 -2.10311 0
M  V30 18511 H 1730.88 2.61675 -1.45487 0
M  V30 18512 H 1728.42 1.25786 -0.700995 0
M  V30 18513 H 1730.38 4.19477 0.402141 0
M  V30 18514 H 1729.1 3.10775 1.00433 0
M  V30 18515 H 1727.76 3.49963 -1.09187 0
M  V30 18516 H 1727.41 4.94548 0.918206 0
M  V30 18517 H 1727.11 5.84639 -0.589105 0
M  V30 18518 H 1728.63 6.09819 0.30868 0
M  V30 18519 H 1730.05 5.42287 -1.86004 0
M  V30 18520 H 1728.44 5.38405 -2.65028 0
M  V30 18521 H 1729.51 3.97607 -2.77555 0
M  V30 18522 N 1730.86 0.776895 1.37121 0
M  V30 18523 C 1732.27 0.408311 1.8218 0
M  V30 18524 C 1732.62 -1.06621 1.64701 0
M  V30 18525 O 1731.74 -1.82621 1.16097 0
M  V30 18526 C 1732.34 0.734339 3.30746 0
M  V30 18527 C 1730.9 0.418746 3.74063 0
M  V30 18528 C 1730.04 0.97551 2.59575 0
M  V30 18529 H 1732.99 0.971111 1.25519 0
M  V30 18530 H 1733.02 0.0208557 3.80494 0
M  V30 18531 H 1732.53 1.80757 3.43436 0
M  V30 18532 H 1730.63 -0.646961 3.6694 0
M  V30 18533 H 1730.74 0.930597 4.69975 0
M  V30 18534 H 1729.11 0.399449 2.51548 0
M  V30 18535 H 1729.89 2.05425 2.75056 0
M  V30 18536 N 1732.33 -1.48497 0.527859 0
M  V30 18537 C 1733.74 -1.86498 0.0868541 0
M  V30 18538 C 1734.1 -1.43763 -1.33517 0
M  V30 18539 O 1733.22 -0.827397 -1.99958 0
M  V30 18540 C 1733.82 -3.38464 0.150843 0
M  V30 18541 C 1732.37 -3.75666 -0.234956 0
M  V30 18542 C 1731.52 -2.72541 0.511549 0
M  V30 18543 H 1734.47 -1.40432 0.739223 0
M  V30 18544 H 1734.49 -3.75114 -0.637972 0
M  V30 18545 H 1734.01 -3.69537 1.18592 0
M  V30 18546 H 1732.11 -3.50206 -1.27225 0
M  V30 18547 H 1732.22 -4.78989 0.103178 0
M  V30 18548 H 1730.58 -2.54665 -0.0419281 0
M  V30 18549 H 1731.37 -3.06457 1.54722 0
M  V30 18550 N 1733.81 -0.262893 -1.55392 0
M  V30 18551 C 1735.04 0.363972 -2.04181 0
M  V30 18552 C 1735.46 1.49585 -1.14044 0
M  V30 18553 O 1734.82 1.80785 -0.136553 0
M  V30 18554 C 1734.87 0.834041 -3.50822 0
M  V30 18555 O 1733.97 1.94234 -3.63795 0
M  V30 18556 H 1733.31 0.0771193 -0.659506 0
M  V30 18557 H 1735.84 -0.393623 -2.00778 0
M  V30 18558 H 1735.85 1.13304 -3.91952 0
M  V30 18559 H 1734.53 0.00584833 -4.159 0
M  V30 18560 H 1733.1 1.64681 -3.34566 0
M  V30 18561 N 1735.29 1.57597 0.0100073 0
M  V30 18562 C 1736.22 2.03212 1.03826 0
M  V30 18563 C 1737.2 0.920049 1.34067 0
M  V30 18564 O 1738.38 1.18739 1.46401 0
M  V30 18565 C 1735.51 2.42128 2.36836 0
M  V30 18566 C 1734.56 3.63969 2.22326 0
M  V30 18567 S 1735.39 5.12313 1.5587 0
M  V30 18568 C 1736.55 5.54489 2.90331 0
M  V30 18569 H 1736.78 2.90112 0.649812 0
M  V30 18570 H 1734.31 1.52816 0.220575 0
M  V30 18571 H 1736.27 2.65219 3.1332 0
M  V30 18572 H 1734.93 1.55646 2.72824 0
M  V30 18573 H 1734.12 3.88916 3.20562 0
M  V30 18574 H 1733.73 3.40829 1.53986 0
M  V30 18575 H 1736.02 5.56338 3.86645 0
M  V30 18576 H 1736.96 6.54564 2.70095 0
M  V30 18577 H 1737.37 4.8203 2.93781 0
M  V30 18578 N 1736.77 -0.282606 1.55045 0
M  V30 18579 C 1738 -1.03395 1.79212 0
M  V30 18580 C 1738.41 -1.80283 0.560652 0
M  V30 18581 O 1737.77 -1.76343 -0.470049 0
M  V30 18582 C 1737.82 -2.0001 3.01128 0
M  V30 18583 O 1737.54 -1.26238 4.19518 0
M  V30 18584 C 1739.04 -2.87035 3.37825 0
M  V30 18585 H 1736.26 -0.305855 0.597238 0
M  V30 18586 H 1738.8 -0.3163 2.02039 0
M  V30 18587 H 1736.96 -2.67251 2.80456 0
M  V30 18588 H 1737.37 -1.91277 4.88378 0
M  V30 18589 H 1738.85 -3.50642 4.26327 0
M  V30 18590 H 1739.32 -3.56303 2.56798 0
M  V30 18591 H 1739.93 -2.25298 3.60723 0
M  V30 18592 N 1738.25 -1.47815 -0.546675 0
M  V30 18593 C 1739.49 -1.54238 -1.29975 0
M  V30 18594 C 1739.81 -0.213869 -1.94427 0
M  V30 18595 O 1741.01 -0.156187 -2.7105 0
M  V30 18596 C 1739.47 -2.71938 -2.35749 0
M  V30 18597 C 1739.08 -4.11362 -1.77441 0
M  V30 18598 C 1740.82 -2.87661 -3.12172 0
M  V30 18599 C 1738.73 -5.20347 -2.81057 0
M  V30 18600 H 1737.66 -0.574139 -0.488754 0
M  V30 18601 H 1740.31 -1.74113 -0.579384 0
M  V30 18602 H 1738.69 -2.45463 -3.10747 0
M  V30 18603 H 1739.87 -4.47785 -1.08744 0
M  V30 18604 H 1738.18 -4.00614 -1.13568 0
M  V30 18605 H 1740.78 -3.66252 -3.89568 0
M  V30 18606 H 1741.12 -1.96494 -3.67009 0
M  V30 18607 H 1741.65 -3.13957 -2.44286 0
M  V30 18608 H 1738.39 -6.13426 -2.31061 0
M  V30 18609 H 1737.91 -4.8843 -3.48132 0
M  V30 18610 H 1739.59 -5.47748 -3.44355 0
M  V30 18611 N 1739.72 0.794246 -1.36123 0
M  V30 18612 C 1740.65 1.92105 -1.32732 0
M  V30 18613 C 1741.63 1.68925 -0.199603 0
M  V30 18614 O 1742.82 1.90109 -0.396498 0
M  V30 18615 C 1739.95 3.29051 -1.11098 0
M  V30 18616 C 1738.9 3.66743 -2.20643 0
M  V30 18617 C 1738.23 5.01986 -1.84159 0
M  V30 18618 C 1739.53 3.75831 -3.62696 0
M  V30 18619 H 1741.22 1.952 -2.27018 0
M  V30 18620 H 1738.77 0.937746 -1.09281 0
M  V30 18621 H 1740.72 4.07494 -1.07362 0
M  V30 18622 H 1739.45 3.26331 -0.132614 0
M  V30 18623 H 1738.11 2.90594 -2.23497 0
M  V30 18624 H 1737.75 4.95782 -0.849081 0
M  V30 18625 H 1737.45 5.28175 -2.57497 0
M  V30 18626 H 1738.98 5.82855 -1.8197 0
M  V30 18627 H 1740.39 4.44476 -3.62096 0
M  V30 18628 H 1738.79 4.135 -4.34899 0
M  V30 18629 H 1739.86 2.7706 -3.97952 0
M  V30 18630 N 1741.2 1.20323 1.01785 0
M  V30 18631 C 1742.15 0.950946 2.10299 0
M  V30 18632 C 1743.12 -0.118376 1.65678 0
M  V30 18633 O 1744.3 0.0260849 1.90782 0
M  V30 18634 C 1741.44 0.507765 3.41344 0
M  V30 18635 C 1740.56 1.6451 3.9945 0
M  V30 18636 C 1739.69 1.15235 5.1855 0
M  V30 18637 C 1738.73 2.26285 5.68737 0
M  V30 18638 N 1737.87 1.78237 6.79099 0
M  V30 18639 H 1742.71 1.87999 2.31215 0
M  V30 18640 H 1740.24 0.937108 1.13387 0
M  V30 18641 H 1742.2 0.232143 4.16554 0
M  V30 18642 H 1740.83 -0.384278 3.20505 0
M  V30 18643 H 1739.88 2.03567 3.21348 0
M  V30 18644 H 1741.2 2.48135 4.32702 0
M  V30 18645 H 1740.35 0.832619 6.0096 0
M  V30 18646 H 1739.09 0.285978 4.86861 0
M  V30 18647 H 1738.09 2.59076 4.84933 0
M  V30 18648 H 1739.32 3.13397 6.02461 0
M  V30 18649 H 1737.27 0.939248 6.49241 0
M  V30 18650 H 1737.18 2.55443 7.11537 0
M  V30 18651 H 1738.45 1.4926 7.65076 0
M  V30 18652 N 1742.68 -1.21073 1.00892 0
M  V30 18653 C 1743.61 -2.25847 0.592897 0
M  V30 18654 C 1744.59 -1.6561 -0.38824 0
M  V30 18655 O 1745.78 -1.92238 -0.275361 0
M  V30 18656 C 1742.91 -3.47214 -0.0773439 0
M  V30 18657 C 1741.86 -4.19994 0.82398 0
M  V30 18658 C 1741.19 -5.34696 0.0199341 0
M  V30 18659 C 1742.49 -4.76964 2.12844 0
M  V30 18660 H 1744.18 -2.609 1.46873 0
M  V30 18661 H 1741.73 -1.25412 0.707656 0
M  V30 18662 H 1743.68 -4.19684 -0.379889 0
M  V30 18663 H 1742.4 -3.11303 -0.987833 0
M  V30 18664 H 1741.06 -3.49379 1.11041 0
M  V30 18665 H 1740.71 -4.95028 -0.891966 0
M  V30 18666 H 1740.41 -5.84319 0.620102 0
M  V30 18667 H 1741.93 -6.09974 -0.276336 0
M  V30 18668 H 1743.35 -5.41293 1.88878 0
M  V30 18669 H 1741.74 -5.36992 2.67879 0
M  V30 18670 H 1742.81 -3.96129 2.79659 0
M  V30 18671 N 1744.16 -0.784156 -1.36707 0
M  V30 18672 C 1745.38 -0.364744 -2.04168 0
M  V30 18673 C 1745.81 1.00905 -1.58745 0
M  V30 18674 O 1745.17 1.64903 -0.753447 0
M  V30 18675 C 1745.21 -0.43091 -3.58016 0
M  V30 18676 O 1744.32 0.564103 -4.08524 0
M  V30 18677 H 1743.66 -0.15576 -0.645473 0
M  V30 18678 H 1746.19 -1.0638 -1.74769 0
M  V30 18679 H 1746.2 -0.292629 -4.06949 0
M  V30 18680 H 1744.87 -1.43308 -3.9043 0
M  V30 18681 H 1743.45 0.387917 -3.70877 0
M  V30 18682 N 1745.64 1.48215 -0.535727 0
M  V30 18683 C 1746.57 2.27708 0.261085 0
M  V30 18684 C 1747.58 1.35714 0.899197 0
M  V30 18685 O 1748.77 1.60717 0.776669 0
M  V30 18686 C 1745.87 3.09285 1.38549 0
M  V30 18687 C 1745.04 4.29097 0.848218 0
M  V30 18688 C 1744.1 4.92439 1.85445 0
M  V30 18689 O 1743.13 5.51483 1.4091 0
M  V30 18690 N 1744.33 4.85197 3.18691 0
M  V30 18691 H 1747.1 2.96732 -0.420706 0
M  V30 18692 H 1744.66 1.57606 -0.370421 0
M  V30 18693 H 1746.65 3.4853 2.05691 0
M  V30 18694 H 1745.22 2.42644 1.97085 0
M  V30 18695 H 1744.44 3.942 0.000627744 0
M  V30 18696 H 1745.73 5.06641 0.468243 0
M  V30 18697 H 1745.12 4.3839 3.57535 0
M  V30 18698 H 1743.68 5.28525 3.81451 0
M  V30 18699 N 1747.11 0.27113 1.5525 0
M  V30 18700 C 1748.06 -0.634087 2.2379 0
M  V30 18701 C 1749.06 -1.16101 1.23357 0
M  V30 18702 O 1750.26 -1.1151 1.413 0
M  V30 18703 H 1746.64 -0.223023 0.718168 0
M  V30 18704 H 1748.61 -0.0331304 2.98382 0
M  V30 18705 C 1747.36 -1.80879 2.96948 0
M  V30 18706 H 1746.68 -1.41252 3.74016 0
M  V30 18707 H 1748.12 -2.41888 3.48233 0
M  V30 18708 C 1746.58 -2.69481 2.02192 0
M  V30 18709 O 1747.11 -3.69725 1.57056 0
M  V30 18710 N 1745.32 -2.36565 1.68776 0
M  V30 18711 H 1744.86 -1.55096 2.05677 0
M  V30 18712 H 1744.82 -2.96119 1.05646 0
M  V30 18713 N 1748.59 -1.576 -0.00164943 0
M  V30 18714 C 1749.54 -2.08318 -0.993594 0
M  V30 18715 C 1750.51 -0.978234 -1.34238 0
M  V30 18716 O 1751.69 -1.25056 -1.44103 0
M  V30 18717 C 1748.83 -2.58982 -2.28084 0
M  V30 18718 C 1747.95 -3.83372 -1.99123 0
M  V30 18719 C 1747.08 -4.22543 -3.21917 0
M  V30 18720 C 1746.12 -5.39774 -2.88635 0
M  V30 18721 N 1745.26 -5.74247 -4.03962 0
M  V30 18722 H 1750.1 -2.92802 -0.554154 0
M  V30 18723 H 1747.64 -1.44748 -0.261973 0
M  V30 18724 H 1749.59 -2.86434 -3.03334 0
M  V30 18725 H 1748.22 -1.77374 -2.697 0
M  V30 18726 H 1747.28 -3.62838 -1.14248 0
M  V30 18727 H 1748.59 -4.68722 -1.70591 0
M  V30 18728 H 1747.74 -4.51268 -4.05514 0
M  V30 18729 H 1746.48 -3.35899 -3.53587 0
M  V30 18730 H 1745.49 -5.10774 -2.03445 0
M  V30 18731 H 1746.71 -6.28094 -2.58215 0
M  V30 18732 H 1744.66 -4.9056 -4.35531 0
M  V30 18733 H 1744.57 -6.54167 -3.78948 0
M  V30 18734 H 1745.84 -6.07563 -4.88352 0
M  V30 18735 N 1750.07 0.274379 -1.55193 0
M  V30 18736 C 1751.32 1.00617 -1.75734 0
M  V30 18737 C 1751.65 1.86334 -0.557679 0
M  V30 18738 O 1750.9 1.90221 0.459848 0
M  V30 18739 C 1751.2 1.91958 -3.01475 0
M  V30 18740 C 1750.87 1.22002 -4.34081 0
M  V30 18741 C 1749.53 1.02658 -4.70122 0
M  V30 18742 C 1751.88 0.722087 -5.16174 0
M  V30 18743 C 1749.21 0.322465 -5.85813 0
M  V30 18744 C 1751.56 0.0315683 -6.32592 0
M  V30 18745 C 1750.22 -0.173595 -6.67274 0
M  V30 18746 H 1749.49 0.368182 -0.643058 0
M  V30 18747 H 1752.14 0.278579 -1.89463 0
M  V30 18748 H 1750.45 2.71333 -2.8264 0
M  V30 18749 H 1752.14 2.48698 -3.14564 0
M  V30 18750 H 1748.73 1.3807 -4.05752 0
M  V30 18751 H 1752.92 0.859163 -4.88807 0
M  V30 18752 H 1748.17 0.152775 -6.11209 0
M  V30 18753 H 1752.35 -0.362033 -6.95458 0
M  V30 18754 H 1749.97 -0.721178 -7.56771 0
M  V30 18755 N 1751.55 1.48103 0.538828 0
M  V30 18756 C 1752.77 1.59568 1.32487 0
M  V30 18757 C 1753.2 0.252908 1.86392 0
M  V30 18758 O 1752.56 -0.774094 1.63944 0
M  V30 18759 C 1752.6 2.63863 2.45782 0
M  V30 18760 O 1751.71 2.20409 3.48559 0
M  V30 18761 H 1751.05 0.53538 0.392765 0
M  V30 18762 H 1753.58 1.94024 0.649299 0
M  V30 18763 H 1753.59 2.8486 2.92093 0
M  V30 18764 H 1752.26 3.61352 2.05906 0
M  V30 18765 H 1750.84 2.09588 3.08427 0
M  V30 18766 N 1753.03 -0.787016 1.36542 0
M  V30 18767 C 1754.27 -1.55817 1.3229 0
M  V30 18768 C 1754.63 -1.91759 -0.0961159 0
M  V30 18769 O 1755.83 -2.67508 -0.26322 0
M  V30 18770 C 1754.1 -2.79934 2.22198 0
M  V30 18771 S 1755.66 -3.70154 2.35651 0
M  V30 18772 H 1752.48 -0.533633 0.469847 0
M  V30 18773 H 1755.08 -0.926755 1.72138 0
M  V30 18774 H 1753.79 -2.51583 3.24244 0
M  V30 18775 H 1753.32 -3.48046 1.83378 0
M  V30 18776 H 1755.33 -4.71179 1.55579 0
M  V30 18777 N 1754.5 -1.20861 -1.01145 0
M  V30 18778 C 1755.75 -1.01613 -1.74234 0
M  V30 18779 C 1756.07 0.451683 -1.90313 0
M  V30 18780 O 1757.27 0.763408 -2.60546 0
M  V30 18781 C 1755.73 -1.76942 -3.134 0
M  V30 18782 C 1755.34 -3.27851 -3.05316 0
M  V30 18783 C 1757.08 -1.6608 -3.90663 0
M  V30 18784 C 1754.99 -3.95696 -4.39521 0
M  V30 18785 H 1753.92 -0.376593 -0.653218 0
M  V30 18786 H 1756.57 -1.44533 -1.1306 0
M  V30 18787 H 1754.95 -1.26812 -3.75146 0
M  V30 18788 H 1756.12 -3.85234 -2.52846 0
M  V30 18789 H 1754.44 -3.39184 -2.41543 0
M  V30 18790 H 1757.04 -2.14105 -4.89963 0
M  V30 18791 H 1757.38 -0.617892 -4.11689 0
M  V30 18792 H 1757.91 -2.13652 -3.35556 0
M  V30 18793 H 1754.65 -5.00161 -4.23697 0
M  V30 18794 H 1754.17 -3.43102 -4.91977 0
M  V30 18795 H 1755.85 -4.00242 -5.08346 0
M  V30 18796 N 1755.98 1.20536 -1.01532 0
M  V30 18797 C 1757.39 1.71594 -0.735687 0
M  V30 18798 C 1757.74 1.81469 0.745873 0
M  V30 18799 O 1756.87 1.47638 1.58215 0
M  V30 18800 C 1757.46 3.11654 -1.3288 0
M  V30 18801 C 1756.02 3.60027 -1.09806 0
M  V30 18802 C 1755.17 2.37266 -1.43528 0
M  V30 18803 H 1758.12 1.05568 -1.18495 0
M  V30 18804 H 1758.14 3.7365 -0.718725 0
M  V30 18805 H 1757.65 3.04434 -2.4071 0
M  V30 18806 H 1755.76 3.72581 -0.0373763 0
M  V30 18807 H 1755.87 4.44918 -1.77722 0
M  V30 18808 H 1754.23 2.39947 -0.854268 0
M  V30 18809 H 1755.02 2.32688 -2.5241 0
M  V30 18810 N 1757.46 0.791395 1.36289 0
M  V30 18811 C 1758.37 0.192362 2.3381 0
M  V30 18812 C 1759.39 -0.656556 1.61138 0
M  V30 18813 O 1760.56 -0.571877 1.9311 0
M  V30 18814 C 1757.63 -0.661283 3.40335 0
M  V30 18815 C 1756.69 0.206361 4.28804 0
M  V30 18816 C 1755.92 -0.606636 5.30241 0
M  V30 18817 O 1756.14 -1.84247 5.39823 0
M  V30 18818 O 1755.08 -0.00549116 6.019 0
M  V30 18819 H 1758.9 0.998723 2.86809 0
M  V30 18820 H 1756.49 0.552889 1.38793 0
M  V30 18821 H 1758.37 -1.148 4.05461 0
M  V30 18822 H 1757.05 -1.4455 2.89632 0
M  V30 18823 H 1755.95 0.739877 3.66711 0
M  V30 18824 H 1757.29 0.954142 4.82863 0
M  V30 18825 N 1758.94 -1.47929 0.54358 0
M  V30 18826 C 1759.9 -2.28316 -0.201107 0
M  V30 18827 C 1760.9 -1.36165 -0.855313 0
M  V30 18828 O 1762.09 -1.58928 -0.71327 0
M  V30 18829 C 1759.22 -3.1545 -1.29245 0
M  V30 18830 H 1760.42 -2.9562 0.504848 0
M  V30 18831 H 1757.97 -1.53394 0.300011 0
M  V30 18832 H 1758.71 -2.52807 -2.03124 0
M  V30 18833 H 1758.49 -3.83251 -0.82832 0
M  V30 18834 H 1759.98 -3.76053 -1.81587 0
M  V30 18835 N 1760.42 -0.27936 -1.55104 0
M  V30 18836 C 1761.67 0.336866 -1.98867 0
M  V30 18837 C 1761.98 1.56656 -1.17124 0
M  V30 18838 O 1763.19 2.25601 -1.51051 0
M  V30 18839 C 1761.64 0.650699 -3.53969 0
M  V30 18840 C 1761.25 -0.559433 -4.44493 0
M  V30 18841 C 1762.99 1.22931 -4.0631 0
M  V30 18842 C 1760.9 -0.219952 -5.90991 0
M  V30 18843 H 1759.83 0.129643 -0.742771 0
M  V30 18844 H 1762.48 -0.384678 -1.79423 0
M  V30 18845 H 1760.86 1.43126 -3.6923 0
M  V30 18846 H 1762.04 -1.3362 -4.41001 0
M  V30 18847 H 1760.35 -1.05519 -4.02809 0
M  V30 18848 H 1762.95 1.49719 -5.13311 0
M  V30 18849 H 1763.29 2.16458 -3.55601 0
M  V30 18850 H 1763.83 0.51095 -3.94505 0
M  V30 18851 H 1760.56 -1.1232 -6.45805 0
M  V30 18852 H 1760.08 0.519971 -5.97542 0
M  V30 18853 H 1761.76 0.186308 -6.46732 0
M  V30 18854 N 1761.9 1.57599 -0.0067085 0
M  V30 18855 C 1762.83 2.11878 0.981331 0
M  V30 18856 C 1763.81 1.02949 1.35408 0
M  V30 18857 O 1764.99 1.30667 1.43665 0
M  V30 18858 C 1762.12 2.62757 2.27104 0
M  V30 18859 C 1761.08 3.76272 2.0397 0
M  V30 18860 C 1760.4 4.13491 3.39012 0
M  V30 18861 C 1761.7 5.03274 1.39688 0
M  V30 18862 H 1763.4 2.94683 0.529366 0
M  V30 18863 H 1760.94 1.41757 0.253187 0
M  V30 18864 H 1762.89 2.99359 2.96585 0
M  V30 18865 H 1761.62 1.77082 2.74426 0
M  V30 18866 H 1760.28 3.40074 1.36913 0
M  V30 18867 H 1759.93 3.24831 3.8405 0
M  V30 18868 H 1759.63 4.89972 3.24347 0
M  V30 18869 H 1761.15 4.52657 4.09797 0
M  V30 18870 H 1762.56 5.37604 1.99136 0
M  V30 18871 H 1760.96 5.84604 1.3549 0
M  V30 18872 H 1762.03 4.8351 0.366928 0
M  V30 18873 N 1763.37 -0.266145 1.55336 0
M  V30 18874 C 1764.32 -1.349 1.89485 0
M  V30 18875 C 1765.32 -1.50792 0.771882 0
M  V30 18876 O 1766.52 -1.52495 0.956302 0
M  V30 18877 H 1762.9 -0.451312 0.601516 0
M  V30 18878 H 1764.87 -1.03354 2.7993 0
M  V30 18879 C 1763.62 -2.70119 2.18931 0
M  V30 18880 H 1762.94 -2.58684 3.04832 0
M  V30 18881 H 1764.38 -3.44811 2.46742 0
M  V30 18882 C 1762.84 -3.21742 0.999177 0
M  V30 18883 O 1763.37 -4.00998 0.237304 0
M  V30 18884 N 1761.57 -2.79514 0.795013 0
M  V30 18885 H 1761.12 -2.15175 1.41625 0
M  V30 18886 H 1761.08 -3.144 0.000343733 0
M  V30 18887 N 1764.85 -1.48386 -0.530967 0
M  V30 18888 C 1765.78 -1.6573 -1.64486 0
M  V30 18889 C 1766.76 -0.506198 -1.62393 0
M  V30 18890 O 1767.95 -0.738623 -1.79605 0
M  V30 18891 C 1765.08 -1.69594 -3.03076 0
M  V30 18892 C 1764.03 -2.84195 -3.20027 0
M  V30 18893 C 1763.36 -2.73148 -4.59668 0
M  V30 18894 C 1764.66 -4.25504 -3.02892 0
M  V30 18895 H 1766.35 -2.58983 -1.50227 0
M  V30 18896 H 1763.9 -1.24633 -0.721286 0
M  V30 18897 H 1765.85 -1.80316 -3.80873 0
M  V30 18898 H 1764.57 -0.729193 -3.18356 0
M  V30 18899 H 1763.23 -2.73027 -2.44647 0
M  V30 18900 H 1762.88 -1.74444 -4.71782 0
M  V30 18901 H 1762.58 -3.50047 -4.71954 0
M  V30 18902 H 1764.11 -2.85836 -5.39565 0
M  V30 18903 H 1765.52 -4.37511 -3.70482 0
M  V30 18904 H 1763.92 -5.03393 -3.26673 0
M  V30 18905 H 1764.99 -4.42036 -1.99329 0
M  V30 18906 N 1766.33 0.779763 -1.36958 0
M  V30 18907 C 1767.74 1.35555 -1.28381 0
M  V30 18908 C 1768.09 1.96067 0.0721422 0
M  V30 18909 O 1767.22 1.9325 0.973824 0
M  V30 18910 C 1767.81 2.46454 -2.32477 0
M  V30 18911 C 1766.37 2.99823 -2.27559 0
M  V30 18912 C 1765.52 1.72975 -2.16737 0
M  V30 18913 H 1768.47 0.580646 -1.47696 0
M  V30 18914 H 1768.49 3.25726 -1.96679 0
M  V30 18915 H 1768 2.02383 -3.31154 0
M  V30 18916 H 1766.1 3.4829 -1.3238 0
M  V30 18917 H 1766.22 3.55982 -3.20646 0
M  V30 18918 H 1764.58 1.95587 -1.6315 0
M  V30 18919 H 1765.36 1.31018 -3.17315 0
M  V30 18920 N 1767.81 1.21396 1.00503 0
M  V30 18921 C 1768.76 0.940669 2.07691 0
M  V30 18922 C 1769.74 -0.104065 1.60563 0
M  V30 18923 O 1770.93 0.104861 1.76689 0
M  V30 18924 C 1768.06 0.507176 3.39533 0
M  V30 18925 C 1767.15 1.58598 3.93329 0
M  V30 18926 N 1767.54 2.81104 4.20493 0
M  V30 18927 C 1765.84 1.45484 4.21605 0
M  V30 18928 C 1766.54 3.50775 4.64038 0
M  V30 18929 N 1765.51 2.78214 4.67009 0
M  V30 18930 H 1769.32 1.87141 2.26617 0
M  V30 18931 H 1766.83 1.10969 1.18574 0
M  V30 18932 H 1768.83 0.292749 4.15871 0
M  V30 18933 H 1767.49 -0.416806 3.22014 0
M  V30 18934 H 1768.5 3.17647 4.09049 0
M  V30 18935 H 1765.18 0.596142 4.13222 0
M  V30 18936 H 1766.57 4.55667 4.93779 0
M  V30 18937 N 1769.29 -1.19996 1.0217 0
M  V30 18938 C 1770.22 -2.25206 0.616818 0
M  V30 18939 C 1771.2 -1.66013 -0.370653 0
M  V30 18940 O 1772.38 -1.92519 -0.254956 0
M  V30 18941 C 1769.51 -3.47276 -0.0405129 0
M  V30 18942 C 1768.47 -4.19096 0.868479 0
M  V30 18943 C 1767.79 -5.34645 0.0766447 0
M  V30 18944 C 1769.09 -4.7468 2.1789 0
M  V30 18945 H 1770.79 -2.59328 1.49632 0
M  V30 18946 H 1768.33 -1.24655 0.720917 0
M  V30 18947 H 1770.28 -4.20063 -0.335355 0
M  V30 18948 H 1769.01 -3.12333 -0.954759 0
M  V30 18949 H 1767.67 -3.48181 1.1474 0
M  V30 18950 H 1767.32 -4.95946 -0.839411 0
M  V30 18951 H 1767.02 -5.83628 0.682041 0
M  V30 18952 H 1768.54 -6.10233 -0.211624 0
M  V30 18953 H 1769.95 -5.39259 1.94608 0
M  V30 18954 H 1768.35 -5.34121 2.7356 0
M  V30 18955 H 1769.42 -3.93141 2.83845 0
M  V30 18956 N 1770.76 -0.798611 -1.35867 0
M  V30 18957 C 1772.18 -0.481385 -1.52167 0
M  V30 18958 C 1772.38 0.99878 -1.75005 0
M  V30 18959 O 1771.44 1.78404 -1.78685 0
M  V30 18960 C 1772.75 -1.31982 -2.70188 0
M  V30 18961 C 1774.3 -1.31445 -2.84062 0
M  V30 18962 C 1774.77 -2.13682 -4.05098 0
M  V30 18963 N 1776.26 -2.11176 -4.12261 0
M  V30 18964 C 1777 -2.71571 -5.05012 0
M  V30 18965 N 1776.49 -3.40861 -6.03147 0
M  V30 18966 N 1778.29 -2.61255 -4.97697 0
M  V30 18967 H 1770.44 -1.75731 -1.19299 0
M  V30 18968 H 1772.7 -0.747512 -0.583034 0
M  V30 18969 H 1772.41 -2.36989 -2.59864 0
M  V30 18970 H 1772.28 -0.967488 -3.64581 0
M  V30 18971 H 1774.67 -0.272258 -2.93841 0
M  V30 18972 H 1774.75 -1.7066 -1.90549 0
M  V30 18973 H 1774.39 -3.17937 -3.96079 0
M  V30 18974 H 1774.32 -1.71832 -4.97776 0
M  V30 18975 H 1776.81 -1.60754 -3.42004 0
M  V30 18976 H 1777.13 -3.84251 -6.705 0
M  V30 18977 H 1775.47 -3.44964 -6.03345 0
M  V30 18978 H 1778.66 -2.06717 -4.19983 0
M  V30 18979 H 1778.84 -3.08613 -5.69791 0
M  V30 18980 N 1772.24 1.47639 -0.551417 0
M  V30 18981 C 1773.47 2.07381 -0.0278888 0
M  V30 18982 C 1773.89 1.40223 1.25375 0
M  V30 18983 O 1773.25 0.475268 1.7496 0
M  V30 18984 C 1773.3 3.60258 0.157001 0
M  V30 18985 O 1772.4 3.93913 1.2209 0
M  V30 18986 H 1771.74 0.66221 -0.0487252 0
M  V30 18987 H 1774.27 1.89742 -0.765449 0
M  V30 18988 H 1774.28 4.06291 0.373013 0
M  V30 18989 H 1772.96 4.08537 -0.779122 0
M  V30 18990 H 1771.53 3.59633 0.985843 0
M  V30 18991 N 1773.72 0.287581 1.54954 0
M  V30 18992 C 1774.65 -0.587855 2.25979 0
M  V30 18993 C 1775.63 -1.14884 1.25442 0
M  V30 18994 O 1776.82 -1.18067 1.54188 0
M  V30 18995 C 1773.95 -1.76618 2.99037 0
M  V30 18996 C 1772.9 -1.33617 4.06609 0
M  V30 18997 C 1772.23 -2.59859 4.67309 0
M  V30 18998 C 1773.53 -0.477219 5.20115 0
M  V30 18999 H 1775.22 0.00450183 2.994 0
M  V30 19000 H 1772.77 0.00360521 1.44 0
M  V30 19001 H 1774.72 -2.38461 3.4744 0
M  V30 19002 H 1773.44 -2.38457 2.23172 0
M  V30 19003 H 1772.1 -0.74088 3.59036 0
M  V30 19004 H 1771.75 -3.19983 3.88098 0
M  V30 19005 H 1771.45 -2.31793 5.3995 0
M  V30 19006 H 1772.97 -3.22528 5.18467 0
M  V30 19007 H 1774.39 -1.00096 5.64494 0
M  V30 19008 H 1772.79 -0.290913 5.99394 0
M  V30 19009 H 1773.86 0.500993 4.82305 0
M  V30 19010 N 1775.2 -1.57593 0.0150662 0
M  V30 19011 C 1776.48 -1.82473 -0.704474 0
M  V30 19012 C 1776.86 -0.896018 -1.91141 0
M  V30 19013 O 1776.2 0.0517365 -2.28441 0
M  V30 19014 C 1776.41 -3.31345 -1.09598 0
M  V30 19015 C 1777.76 -3.97465 -1.49353 0
M  V30 19016 O 1778.79 -3.35757 -1.18936 0
M  V30 19017 O 1777.64 -5.06199 -2.05972 0
M  V30 19018 H 1774.74 -0.751908 -0.344331 0
M  V30 19019 H 1777.28 -1.69649 0.041674 0
M  V30 19020 H 1776.06 -3.90586 -0.236358 0
M  V30 19021 H 1775.68 -3.49224 -1.90075 0
M  V30 19022 N 1776.68 0.257904 -1.55475 0
M  V30 19023 C 1777.61 1.34514 -1.8434 0
M  V30 19024 C 1778.59 1.46875 -0.697594 0
M  V30 19025 O 1779.77 1.63263 -0.942196 0
M  V30 19026 C 1776.9 2.71991 -2.01839 0
M  V30 19027 C 1775.94 2.76836 -3.24445 0
M  V30 19028 S 1776.78 2.34554 -4.81399 0
M  V30 19029 C 1777.93 3.73977 -5.01888 0
M  V30 19030 H 1778.17 1.09828 -2.7627 0
M  V30 19031 H 1775.7 0.458324 -1.47441 0
M  V30 19032 H 1777.66 3.51155 -2.12604 0
M  V30 19033 H 1776.32 2.9392 -1.10771 0
M  V30 19034 H 1775.51 3.77774 -3.33621 0
M  V30 19035 H 1775.11 2.05706 -3.12348 0
M  V30 19036 H 1777.41 4.69381 -4.88556 0
M  V30 19037 H 1778.35 3.69743 -6.03901 0
M  V30 19038 H 1778.76 3.6598 -4.29789 0
M  V30 19039 N 1778.15 1.48666 0.52309 0
M  V30 19040 C 1779.38 1.60965 1.30787 0
M  V30 19041 C 1779.8 0.272663 1.86113 0
M  V30 19042 O 1779.16 -0.756662 1.64755 0
M  V30 19043 C 1779.21 2.66455 2.42969 0
M  V30 19044 O 1778.31 2.24094 3.46202 0
M  V30 19045 H 1777.66 0.539516 0.387064 0
M  V30 19046 H 1780.19 1.94702 0.628683 0
M  V30 19047 H 1780.2 2.87942 2.89056 0
M  V30 19048 H 1778.87 3.63516 2.02062 0
M  V30 19049 H 1777.45 2.12848 3.06186 0
M  V30 19050 N 1779.63 -0.772489 1.37369 0
M  V30 19051 C 1780.86 -1.56671 1.35901 0
M  V30 19052 C 1781.28 -1.88024 -0.0535538 0
M  V30 19053 O 1780.64 -1.49174 -1.03038 0
M  V30 19054 C 1780.69 -2.85417 2.20384 0
M  V30 19055 O 1779.79 -3.79761 1.60796 0
M  V30 19056 H 1779.13 -0.474596 0.464386 0
M  V30 19057 H 1781.66 -0.956162 1.80883 0
M  V30 19058 H 1781.67 -3.34527 2.33571 0
M  V30 19059 H 1780.35 -2.61926 3.2306 0
M  V30 19060 H 1778.93 -3.38403 1.56645 0
M  V30 19061 N 1781.11 -1.21927 -0.998575 0
M  V30 19062 C 1782.06 -0.981427 -2.10881 0
M  V30 19063 C 1783.05 0.0735277 -1.6924 0
M  V30 19064 O 1784.26 -0.078422 -1.79829 0
M  V30 19065 H 1780.63 -0.300155 -0.6895 0
M  V30 19066 H 1782.6 -1.92367 -2.28117 0
M  V30 19067 C 1781.35 -0.56967 -3.43002 0
M  V30 19068 H 1780.68 -1.37309 -3.75481 0
M  V30 19069 H 1782.12 -0.442618 -4.21683 0
M  V30 19070 C 1780.58 0.720145 -3.29113 0
M  V30 19071 O 1781.11 1.77404 -3.60403 0
M  V30 19072 N 1779.31 0.689122 -2.82311 0
M  V30 19073 H 1778.86 -0.168817 -2.57046 0
M  V30 19074 H 1778.82 1.55241 -2.734 0
M  V30 19075 N 1782.59 1.19452 -1.02805 0
M  V30 19076 C 1783.87 1.84878 -0.638707 0
M  V30 19077 C 1784.25 1.91763 0.882627 0
M  V30 19078 O 1783.59 1.43401 1.779 0
M  V30 19079 C 1783.8 3.23891 -1.29982 0
M  V30 19080 C 1785.15 4.00061 -1.42254 0
M  V30 19081 O 1786.18 3.33286 -1.25693 0
M  V30 19082 O 1785.03 5.19671 -1.69127 0
M  V30 19083 H 1782.13 0.796676 -0.221892 0
M  V30 19084 H 1784.67 1.26949 -1.12615 0
M  V30 19085 H 1783.45 3.13711 -2.33883 0
M  V30 19086 H 1783.07 3.89465 -0.800186 0
M  V30 19087 N 1784.07 0.805805 1.35442 0
M  V30 19088 C 1785.32 0.382303 1.98044 0
M  V30 19089 C 1785.63 -1.05602 1.64644 0
M  V30 19090 O 1786.83 -1.5826 2.20604 0
M  V30 19091 C 1785.29 0.632619 3.54296 0
M  V30 19092 C 1784.9 2.08344 3.96607 0
M  V30 19093 C 1786.64 0.274435 4.23612 0
M  V30 19094 C 1784.55 2.27954 5.45702 0
M  V30 19095 H 1783.48 0.13921 0.741037 0
M  V30 19096 H 1786.13 0.989752 1.54519 0
M  V30 19097 H 1784.51 -0.0447699 3.95975 0
M  V30 19098 H 1785.69 2.79857 3.66083 0
M  V30 19099 H 1784 2.40142 3.40178 0
M  V30 19100 H 1786.6 0.399019 5.33209 0
M  V30 19101 H 1786.94 -0.779292 4.08941 0
M  V30 19102 H 1787.47 0.90571 3.87352 0
M  V30 19103 H 1784.21 3.3177 5.6534 0
M  V30 19104 H 1783.73 1.60965 5.77798 0
M  V30 19105 H 1785.41 2.09469 6.12153 0
M  V30 19106 N 1785.54 -1.47344 0.559239 0
M  V30 19107 C 1786.48 -2.28095 -0.224826 0
M  V30 19108 C 1787.49 -1.37127 -0.877492 0
M  V30 19109 O 1788.68 -1.61933 -0.751002 0
M  V30 19110 C 1785.78 -3.1145 -1.33611 0
M  V30 19111 C 1784.95 -4.30392 -0.779845 0
M  V30 19112 C 1784.01 -4.95327 -1.77587 0
M  V30 19113 O 1783.04 -5.53654 -1.32119 0
M  V30 19114 N 1784.24 -4.90206 -3.10931 0
M  V30 19115 H 1787 -2.96026 0.46786 0
M  V30 19116 H 1784.56 -1.56996 0.395448 0
M  V30 19117 H 1786.56 -3.51758 -2.00121 0
M  V30 19118 H 1785.13 -2.45749 -1.932 0
M  V30 19119 H 1784.35 -3.94151 0.0620861 0
M  V30 19120 H 1785.63 -5.07322 -0.387581 0
M  V30 19121 H 1785.03 -4.44022 -3.50515 0
M  V30 19122 H 1783.59 -5.34527 -3.72994 0
M  V30 19123 N 1787.02 -0.295795 -1.54799 0
M  V30 19124 C 1788.25 0.317302 -2.04149 0
M  V30 19125 C 1788.66 1.48463 -1.17283 0
M  V30 19126 O 1788 1.82715 -0.189979 0
M  V30 19127 C 1788.07 0.841241 -3.49519 0
M  V30 19128 C 1787.73 -0.200133 -4.56562 0
M  V30 19129 C 1788.73 -1.0268 -5.09659 0
M  V30 19130 C 1786.41 -0.340333 -5.01146 0
M  V30 19131 C 1788.41 -1.97966 -6.05878 0
M  V30 19132 C 1786.09 -1.29664 -5.97185 0
M  V30 19133 C 1787.09 -2.11479 -6.49435 0
M  V30 19134 O 1786.78 -3.0549 -7.43593 0
M  V30 19135 H 1786.51 0.0736679 -0.671974 0
M  V30 19136 H 1789.06 -0.431806 -2.0081 0
M  V30 19137 H 1787.29 1.64078 -3.50165 0
M  V30 19138 H 1788.98 1.36966 -3.82093 0
M  V30 19139 H 1789.75 -0.92933 -4.76013 0
M  V30 19140 H 1785.63 0.286525 -4.60109 0
M  V30 19141 H 1789.17 -2.61865 -6.46585 0
M  V30 19142 H 1785.07 -1.39485 -6.30249 0
M  V30 19143 H 1785.84 -3.00409 -7.61378 0
M  V30 19144 N 1788.5 1.57583 -0.0234236 0
M  V30 19145 C 1789.43 2.12907 0.958804 0
M  V30 19146 C 1790.41 1.0438 1.34309 0
M  V30 19147 O 1791.6 1.32184 1.42271 0
M  V30 19148 C 1788.73 2.65151 2.24304 0
M  V30 19149 C 1787.68 3.78414 1.99967 0
M  V30 19150 C 1787.01 4.17064 3.34607 0
M  V30 19151 C 1788.31 5.04727 1.34342 0
M  V30 19152 H 1790 2.95228 0.498081 0
M  V30 19153 H 1787.55 1.42017 0.238138 0
M  V30 19154 H 1789.5 3.02487 2.93393 0
M  V30 19155 H 1788.22 1.79983 2.72532 0
M  V30 19156 H 1786.88 3.41507 1.33298 0
M  V30 19157 H 1786.53 3.28886 3.80583 0
M  V30 19158 H 1786.23 4.93385 3.19132 0
M  V30 19159 H 1787.76 4.56978 4.04973 0
M  V30 19160 H 1789.17 5.39686 1.93422 0
M  V30 19161 H 1787.57 5.86009 1.29282 0
M  V30 19162 H 1788.64 4.83872 0.315625 0
M  V30 19163 N 1789.98 -0.249655 1.5561 0
M  V30 19164 C 1791.39 -0.818934 1.67781 0
M  V30 19165 C 1791.74 -1.86134 0.620374 0
M  V30 19166 O 1790.87 -2.15133 -0.233869 0
M  V30 19167 C 1791.46 -1.49219 3.0417 0
M  V30 19168 C 1790.02 -2.0092 3.18289 0
M  V30 19169 C 1789.17 -0.859333 2.63649 0
M  V30 19170 H 1792.12 -0.0255186 1.58679 0
M  V30 19171 H 1792.14 -2.36011 2.98461 0
M  V30 19172 H 1791.65 -0.733268 3.8111 0
M  V30 19173 H 1789.75 -2.79701 2.46167 0
M  V30 19174 H 1789.87 -2.20848 4.25163 0
M  V30 19175 H 1788.23 -1.2591 2.21402 0
M  V30 19176 H 1789.01 -0.113545 3.43112 0
M  V30 19177 N 1791.46 -1.48941 -0.515198 0
M  V30 19178 C 1792.71 -1.57398 -1.26768 0
M  V30 19179 C 1793.03 -0.256213 -1.93309 0
M  V30 19180 O 1792.3 0.723408 -1.82054 0
M  V30 19181 H 1790.88 -0.579895 -0.470883 0
M  V30 19182 H 1793.54 -1.85489 -0.598315 0
M  V30 19183 H 1792.63 -2.36272 -2.03916 0
M  V30 19184 N 1792.94 0.765193 -1.37777 0
M  V30 19185 C 1794.35 1.34186 -1.29811 0
M  V30 19186 C 1794.7 1.96133 0.0513426 0
M  V30 19187 O 1793.82 1.94272 0.953273 0
M  V30 19188 C 1794.42 2.43975 -2.35078 0
M  V30 19189 C 1792.98 2.97393 -2.30726 0
M  V30 19190 C 1792.12 1.70667 -2.18559 0
M  V30 19191 H 1795.07 0.564948 -1.48304 0
M  V30 19192 H 1795.1 3.23622 -2.00123 0
M  V30 19193 H 1794.61 1.98859 -3.33282 0
M  V30 19194 H 1792.71 3.46867 -1.36067 0
M  V30 19195 H 1792.82 3.52561 -3.24403 0
M  V30 19196 H 1791.19 1.93846 -1.65215 0
M  V30 19197 H 1791.97 1.27645 -3.18687 0
M  V30 19198 N 1794.41 1.22455 0.992094 0
M  V30 19199 C 1795.38 0.996703 2.06394 0
M  V30 19200 C 1796.38 -0.0371659 1.60757 0
M  V30 19201 O 1797.57 0.20142 1.73032 0
M  V30 19202 C 1794.7 0.505675 3.37129 0
M  V30 19203 H 1795.89 1.94776 2.28041 0
M  V30 19204 H 1793.44 1.04335 1.16378 0
M  V30 19205 H 1794.18 -0.449697 3.21167 0
M  V30 19206 H 1793.96 1.25158 3.71588 0
M  V30 19207 H 1795.45 0.366535 4.15988 0
M  V30 19208 N 1795.89 -1.18905 1.03437 0
M  V30 19209 C 1796.84 -2.20223 0.59042 0
M  V30 19210 C 1797.83 -1.56734 -0.363774 0
M  V30 19211 O 1799.02 -1.76043 -0.183852 0
M  V30 19212 C 1796.15 -3.43261 -0.051695 0
M  V30 19213 C 1795.23 -4.13884 0.925268 0
M  V30 19214 N 1795.62 -4.60607 2.08985 0
M  V30 19215 C 1793.92 -4.3965 0.749899 0
M  V30 19216 C 1794.62 -5.14902 2.70648 0
M  V30 19217 N 1793.6 -5.06034 1.9857 0
M  V30 19218 H 1797.4 -2.54032 1.478 0
M  V30 19219 H 1794.91 -1.3504 0.902101 0
M  V30 19220 H 1796.91 -4.15096 -0.387403 0
M  V30 19221 H 1795.57 -3.1095 -0.934891 0
M  V30 19222 H 1796.58 -4.55257 2.46903 0
M  V30 19223 H 1793.26 -4.17416 -0.08374 0
M  V30 19224 H 1794.65 -5.61303 3.69308 0
M  V30 19225 N 1797.37 -0.812977 -1.35013 0
M  V30 19226 C 1798.62 -0.406082 -1.99305 0
M  V30 19227 C 1798.97 1.01711 -1.63317 0
M  V30 19228 O 1798.26 1.697 -0.889514 0
M  V30 19229 C 1798.46 -0.534083 -3.53387 0
M  V30 19230 C 1798.29 -1.96817 -4.04343 0
M  V30 19231 C 1797.06 -2.59792 -4.33401 0
M  V30 19232 C 1799.25 -2.93359 -4.22428 0
M  V30 19233 N 1797.24 -3.94544 -4.70328 0
M  V30 19234 C 1798.61 -4.12996 -4.62422 0
M  V30 19235 C 1800.66 -2.90106 -4.04651 0
M  V30 19236 C 1799.37 -5.29821 -4.865 0
M  V30 19237 C 1801.39 -4.06139 -4.29889 0
M  V30 19238 C 1800.75 -5.24525 -4.70162 0
M  V30 19239 H 1796.85 -0.196497 -0.75691 0
M  V30 19240 H 1799.44 -1.05557 -1.63602 0
M  V30 19241 H 1797.61 0.0854508 -3.88306 0
M  V30 19242 H 1799.34 -0.101154 -4.04574 0
M  V30 19243 H 1796.09 -2.11101 -4.2395 0
M  V30 19244 H 1796.52 -4.63939 -4.93041 0
M  V30 19245 H 1801.16 -1.99725 -3.72652 0
M  V30 19246 H 1798.88 -6.20768 -5.17371 0
M  V30 19247 H 1802.46 -4.0501 -4.17681 0
M  V30 19248 H 1801.34 -6.12819 -4.89309 0
M  V30 19249 N 1798.85 1.47045 -0.567045 0
M  V30 19250 C 1799.79 2.30135 0.175115 0
M  V30 19251 C 1800.76 1.39665 0.899049 0
M  V30 19252 O 1801.95 1.68623 0.892809 0
M  V30 19253 C 1799.09 3.23827 1.19289 0
M  V30 19254 C 1798.2 4.29392 0.474011 0
M  V30 19255 C 1797.34 5.10226 1.47793 0
M  V30 19256 C 1796.38 6.07554 0.744584 0
M  V30 19257 N 1795.51 6.81313 1.69581 0
M  V30 19258 H 1800.35 2.93075 -0.539529 0
M  V30 19259 H 1797.89 1.44451 -0.277889 0
M  V30 19260 H 1799.85 3.76579 1.79567 0
M  V30 19261 H 1798.48 2.6273 1.87544 0
M  V30 19262 H 1797.53 3.7962 -0.243494 0
M  V30 19263 H 1798.84 4.987 -0.100022 0
M  V30 19264 H 1798 5.67176 2.15397 0
M  V30 19265 H 1796.74 4.40842 2.08589 0
M  V30 19266 H 1795.74 5.49773 0.0546832 0
M  V30 19267 H 1796.97 6.78951 0.142235 0
M  V30 19268 H 1794.91 6.14651 2.29216 0
M  V30 19269 H 1794.83 7.46826 1.17418 0
M  V30 19270 H 1796.1 7.42831 2.36268 0
M  V30 19271 N 1800.33 0.304 1.5464 0
M  V30 19272 C 1801.55 -0.309709 2.05075 0
M  V30 19273 C 1801.98 -1.46509 1.1797 0
M  V30 19274 O 1801.33 -1.80359 0.184437 0
M  V30 19275 C 1801.38 -0.740734 3.5291 0
M  V30 19276 O 1800.49 -1.8452 3.68817 0
M  V30 19277 H 1799.83 -0.0596065 0.661319 0
M  V30 19278 H 1802.36 0.446718 1.99664 0
M  V30 19279 H 1802.37 -1.02873 3.94818 0
M  V30 19280 H 1801.04 0.104422 4.15769 0
M  V30 19281 H 1799.62 -1.55753 3.38815 0
M  V30 19282 N 1801.8 -1.57568 0.0317802 0
M  V30 19283 C 1802.73 -2.13412 -0.947499 0
M  V30 19284 C 1803.71 -1.05091 -1.33753 0
M  V30 19285 O 1804.9 -1.32936 -1.41568 0
M  V30 19286 C 1802.03 -2.66337 -2.22895 0
M  V30 19287 C 1800.98 -3.79469 -1.97958 0
M  V30 19288 C 1800.31 -4.18833 -3.3239 0
M  V30 19289 C 1801.61 -5.05432 -1.31664 0
M  V30 19290 H 1803.3 -2.95488 -0.482417 0
M  V30 19291 H 1800.85 -1.42142 -0.230603 0
M  V30 19292 H 1802.8 -3.04039 -2.91784 0
M  V30 19293 H 1801.53 -1.81426 -2.71574 0
M  V30 19294 H 1800.19 -3.42209 -1.31485 0
M  V30 19295 H 1799.83 -3.30899 -3.78833 0
M  V30 19296 H 1799.53 -4.95071 -3.16511 0
M  V30 19297 H 1801.06 -4.5912 -4.02544 0
M  V30 19298 H 1802.47 -5.40704 -1.90558 0
M  V30 19299 H 1800.87 -5.86686 -1.26173 0
M  V30 19300 H 1801.94 -4.84032 -0.28996 0
M  V30 19301 N 1803.28 0.241399 -1.5574 0
M  V30 19302 C 1804.23 1.31868 -1.91608 0
M  V30 19303 C 1805.22 1.49545 -0.795774 0
M  V30 19304 O 1806.43 1.50955 -0.980442 0
M  V30 19305 H 1802.81 0.441685 -0.60862 0
M  V30 19306 H 1804.78 0.98887 -2.81538 0
M  V30 19307 C 1803.53 2.66602 -2.23201 0
M  V30 19308 H 1802.85 2.53802 -3.08909 0
M  V30 19309 H 1804.29 3.40842 -2.52196 0
M  V30 19310 C 1802.75 3.20112 -1.05024 0
M  V30 19311 O 1803.28 4.0057 -0.301069 0
M  V30 19312 N 1801.48 2.78214 -0.839381 0
M  V30 19313 H 1801.03 2.12894 -1.4503 0
M  V30 19314 H 1800.99 3.1436 -0.050362 0
M  V30 19315 N 1804.76 1.49212 0.507292 0
M  V30 19316 C 1805.69 1.68326 1.61829 0
M  V30 19317 C 1806.67 0.531969 1.61568 0
M  V30 19318 O 1807.86 0.767104 1.78407 0
M  V30 19319 C 1804.99 1.74394 3.0034 0
M  V30 19320 C 1803.94 2.89251 3.15465 0
M  V30 19321 C 1803.27 2.80426 4.55264 0
M  V30 19322 C 1804.57 4.30269 2.96085 0
M  V30 19323 H 1806.26 2.6134 1.46087 0
M  V30 19324 H 1803.81 1.25765 0.701367 0
M  V30 19325 H 1805.76 1.86353 3.77956 0
M  V30 19326 H 1804.48 0.779748 3.17155 0
M  V30 19327 H 1803.14 2.76884 2.40272 0
M  V30 19328 H 1802.79 1.81928 4.68947 0
M  V30 19329 H 1802.49 3.57511 4.66326 0
M  V30 19330 H 1804.01 2.94384 5.34949 0
M  V30 19331 H 1805.43 4.4335 3.63475 0
M  V30 19332 H 1803.83 5.08527 3.18623 0
M  V30 19333 H 1804.9 4.45151 1.92272 0
M  V30 19334 N 1806.24 -0.757876 1.38181 0
M  V30 19335 C 1807.65 -1.06035 1.19284 0
M  V30 19336 C 1807.85 -2.01463 0.0385482 0
M  V30 19337 O 1806.91 -2.44845 -0.61703 0
M  V30 19338 C 1808.22 -1.64455 2.51744 0
M  V30 19339 C 1809.77 -1.76646 2.58389 0
M  V30 19340 C 1810.25 -2.38478 3.91014 0
M  V30 19341 N 1811.74 -2.45914 3.92531 0
M  V30 19342 C 1812.47 -2.94641 4.91909 0
M  V30 19343 N 1811.97 -3.43435 6.01684 0
M  V30 19344 N 1813.76 -2.93642 4.79303 0
M  V30 19345 H 1805.91 -0.124532 2.12035 0
M  V30 19346 H 1808.18 -0.117876 0.940643 0
M  V30 19347 H 1807.88 -1.01804 3.36644 0
M  V30 19348 H 1807.76 -2.63573 2.69832 0
M  V30 19349 H 1810.14 -2.38426 1.73888 0
M  V30 19350 H 1810.22 -0.762449 2.44173 0
M  V30 19351 H 1809.87 -1.77334 4.75936 0
M  V30 19352 H 1809.8 -3.39513 4.0254 0
M  V30 19353 H 1812.29 -2.11398 3.1324 0
M  V30 19354 H 1812.6 -3.79059 6.73449 0
M  V30 19355 H 1810.95 -3.41504 6.0531 0
M  V30 19356 H 1814.14 -2.5483 3.92657 0
M  V30 19357 H 1814.31 -3.31304 5.56903 0
M  V30 19358 N 1807.72 -1.22979 -0.985586 0
M  V30 19359 C 1808.63 -1.02294 -2.11124 0
M  V30 19360 C 1809.64 0.030991 -1.73972 0
M  V30 19361 O 1810.82 -0.163333 -2.00737 0
M  V30 19362 C 1807.88 -0.611102 -3.41272 0
M  V30 19363 C 1806.94 -1.73949 -3.9248 0
M  V30 19364 C 1806.18 -1.34721 -5.16417 0
M  V30 19365 O 1806.4 -0.229171 -5.69939 0
M  V30 19366 O 1805.33 -2.16639 -5.61561 0
M  V30 19367 H 1809.16 -1.9662 -2.31461 0
M  V30 19368 H 1806.75 -1.01639 -1.09499 0
M  V30 19369 H 1808.63 -0.392127 -4.19572 0
M  V30 19370 H 1807.3 0.303224 -3.22277 0
M  V30 19371 H 1806.21 -2.01305 -3.1532 0
M  V30 19372 H 1807.54 -2.63194 -4.1592 0
M  V30 19373 N 1809.19 1.18355 -1.04066 0
M  V30 19374 C 1810.12 2.24196 -0.652568 0
M  V30 19375 C 1811.11 1.66581 0.344195 0
M  V30 19376 O 1812.29 1.929 0.224296 0
M  V30 19377 C 1809.42 3.47297 -0.0147409 0
M  V30 19378 C 1808.37 4.17661 -0.935044 0
M  V30 19379 C 1807.7 5.34455 -0.161692 0
M  V30 19380 C 1809 4.71153 -2.25415 0
M  V30 19381 H 1810.69 2.56914 -1.53738 0
M  V30 19382 H 1808.24 1.23492 -0.740658 0
M  V30 19383 H 1810.19 4.20544 0.268484 0
M  V30 19384 H 1808.92 3.13812 0.904949 0
M  V30 19385 H 1807.58 3.46312 -1.20265 0
M  V30 19386 H 1807.22 4.97219 0.760404 0
M  V30 19387 H 1806.92 5.82469 -0.774805 0
M  V30 19388 H 1808.45 6.10493 0.114515 0
M  V30 19389 H 1809.86 5.36095 -2.03163 0
M  V30 19390 H 1808.26 5.29701 -2.82022 0
M  V30 19391 H 1809.33 3.88576 -2.90064 0
M  V30 19392 N 1810.67 0.820125 1.3458 0
M  V30 19393 C 1811.6 0.254709 2.32107 0
M  V30 19394 C 1812.58 -0.6273 1.58111 0
M  V30 19395 O 1813.77 -0.554759 1.86108 0
M  V30 19396 C 1810.9 -0.586541 3.42311 0
M  V30 19397 C 1809.85 0.198096 4.27541 0
M  V30 19398 C 1809.18 -0.765718 5.29189 0
M  V30 19399 C 1810.48 1.40472 5.03056 0
M  V30 19400 H 1812.17 1.06955 2.79644 0
M  V30 19401 H 1809.72 0.515756 1.34447 0
M  V30 19402 H 1811.67 -0.992259 4.09551 0
M  V30 19403 H 1810.4 -1.4344 2.93415 0
M  V30 19404 H 1809.05 0.585149 3.619 0
M  V30 19405 H 1808.7 -1.60946 4.76556 0
M  V30 19406 H 1808.4 -0.244954 5.87089 0
M  V30 19407 H 1809.93 -1.16935 5.99298 0
M  V30 19408 H 1811.34 1.07316 5.63166 0
M  V30 19409 H 1809.74 1.86092 5.70517 0
M  V30 19410 H 1810.81 2.18437 4.32913 0
M  V30 19411 N 1812.15 -1.46743 0.574835 0
M  V30 19412 C 1813.4 -2.02419 0.0574154 0
M  V30 19413 C 1813.73 -1.44723 -1.29944 0
M  V30 19414 O 1812.98 -0.599149 -1.86303 0
M  V30 19415 C 1813.28 -3.57338 -0.0666259 0
M  V30 19416 C 1812.95 -4.34036 1.22161 0
M  V30 19417 C 1811.61 -4.5471 1.57457 0
M  V30 19418 C 1813.96 -4.78137 2.07448 0
M  V30 19419 C 1811.29 -5.16735 2.77852 0
M  V30 19420 C 1813.64 -5.41492 3.27062 0
M  V30 19421 C 1812.3 -5.60394 3.6265 0
M  V30 19422 H 1811.57 -0.740702 0.0210098 0
M  V30 19423 H 1814.22 -1.76207 0.749892 0
M  V30 19424 H 1812.53 -3.82642 -0.842183 0
M  V30 19425 H 1814.22 -3.98085 -0.482605 0
M  V30 19426 H 1810.81 -4.18236 0.936826 0
M  V30 19427 H 1815 -4.61928 1.81484 0
M  V30 19428 H 1810.25 -5.29562 3.05572 0
M  V30 19429 H 1814.43 -5.74623 3.93422 0
M  V30 19430 H 1812.05 -6.08226 4.56032 0
M  V30 19431 N 1813.63 -0.312197 -1.54477 0
M  V30 19432 C 1814.85 0.298829 -2.05236 0
M  V30 19433 C 1815.28 1.45881 -1.18745 0
M  V30 19434 O 1814.64 1.80259 -0.193999 0
M  V30 19435 C 1814.68 0.722008 -3.53298 0
M  V30 19436 O 1813.79 1.82562 -3.6979 0
M  V30 19437 H 1813.13 0.0560985 -0.661626 0
M  V30 19438 H 1815.66 -0.4573 -1.99424 0
M  V30 19439 H 1815.67 1.00777 -3.95358 0
M  V30 19440 H 1814.34 -0.12647 -4.15708 0
M  V30 19441 H 1812.92 1.53954 -3.39636 0
M  V30 19442 N 1815.11 1.57549 -0.040136 0
M  V30 19443 C 1816.06 2.07384 0.947418 0
M  V30 19444 C 1817.04 0.976645 1.27869 0
M  V30 19445 O 1818.23 1.2401 1.26296 0
M  V30 19446 C 1815.36 2.61343 2.22609 0
M  V30 19447 C 1814.45 3.78012 1.9227 0
M  V30 19448 N 1814.84 4.88206 1.32244 0
M  V30 19449 C 1813.14 3.86708 2.22201 0
M  V30 19450 C 1813.84 5.69338 1.19286 0
M  V30 19451 N 1812.81 5.16595 1.69207 0
M  V30 19452 H 1816.62 2.89979 0.478476 0
M  V30 19453 H 1814.13 1.61564 0.164602 0
M  V30 19454 H 1816.13 2.95343 2.94242 0
M  V30 19455 H 1814.79 1.80182 2.70119 0
M  V30 19456 H 1815.8 5.08232 0.996048 0
M  V30 19457 H 1812.47 3.16472 2.72308 0
M  V30 19458 H 1813.86 6.67947 0.727784 0
M  V30 19459 N 1816.58 -0.233136 1.55866 0
M  V30 19460 C 1817.53 -1.3085 1.92304 0
M  V30 19461 C 1818.53 -1.49121 0.803693 0
M  V30 19462 O 1819.73 -1.50433 0.988433 0
M  V30 19463 H 1816.11 -0.438451 0.610954 0
M  V30 19464 H 1818.08 -0.973925 2.82059 0
M  V30 19465 C 1816.83 -2.65415 2.24611 0
M  V30 19466 H 1816.15 -2.5216 3.10251 0
M  V30 19467 H 1817.59 -3.395 2.54 0
M  V30 19468 C 1816.05 -3.1955 1.0672 0
M  V30 19469 O 1816.58 -4.00405 0.322308 0
M  V30 19470 N 1814.79 -2.77764 0.854123 0
M  V30 19471 H 1814.33 -2.12122 1.46157 0
M  V30 19472 H 1814.29 -3.14329 0.0670326 0
M  V30 19473 N 1818.06 -1.49479 -0.499372 0
M  V30 19474 C 1819 -1.6239 -1.61748 0
M  V30 19475 C 1820.01 -0.506515 -1.5472 0
M  V30 19476 O 1821.2 -0.778629 -1.60623 0
M  V30 19477 C 1818.3 -1.56611 -3.00543 0
M  V30 19478 C 1817.47 -2.83909 -3.32738 0
M  V30 19479 C 1816.53 -2.7116 -4.50953 0
M  V30 19480 O 1815.56 -3.45097 -4.52656 0
M  V30 19481 N 1816.76 -1.82815 -5.50962 0
M  V30 19482 H 1819.52 -2.58823 -1.51099 0
M  V30 19483 H 1817.08 -1.46588 -0.687277 0
M  V30 19484 H 1819.08 -1.45734 -3.7755 0
M  V30 19485 H 1817.65 -0.68029 -3.05108 0
M  V30 19486 H 1816.87 -3.09125 -2.44613 0
M  V30 19487 H 1818.15 -3.68299 -3.51046 0
M  V30 19488 H 1817.55 -1.22005 -5.52387 0
M  V30 19489 H 1816.11 -1.77859 -6.27064 0
M  V30 19490 N 1819.54 0.750537 -1.38581 0
M  V30 19491 C 1820.79 1.50512 -1.34272 0
M  V30 19492 C 1821.1 1.95496 0.0636858 0
M  V30 19493 O 1822.31 2.7053 0.22932 0
M  V30 19494 C 1820.77 2.71891 -2.35803 0
M  V30 19495 C 1820.37 2.3392 -3.8208 0
M  V30 19496 C 1822.12 3.4977 -2.40543 0
M  V30 19497 C 1820.02 3.51928 -4.7529 0
M  V30 19498 H 1818.95 0.56515 -0.49912 0
M  V30 19499 H 1821.61 0.820167 -1.64151 0
M  V30 19500 H 1819.99 3.42383 -1.98972 0
M  V30 19501 H 1821.16 1.71075 -4.27867 0
M  V30 19502 H 1819.48 1.69168 -3.80488 0
M  V30 19503 H 1822.07 4.37519 -3.07379 0
M  V30 19504 H 1822.42 3.91141 -1.42527 0
M  V30 19505 H 1822.95 2.86294 -2.76189 0
M  V30 19506 H 1819.69 3.15621 -5.74512 0
M  V30 19507 H 1819.21 4.13807 -4.34194 0
M  V30 19508 H 1820.89 4.1847 -4.93449 0
M  V30 19509 N 1821.02 1.235 0.979051 0
M  V30 19510 C 1822.24 1.09551 1.76106 0
M  V30 19511 C 1822.67 -0.348792 1.84838 0
M  V30 19512 O 1822.03 -1.25231 1.31099 0
M  V30 19513 C 1822.08 1.7272 3.16544 0
M  V30 19514 O 1821.18 0.990263 4.00334 0
M  V30 19515 H 1820.52 0.383909 0.541766 0
M  V30 19516 H 1823.05 1.63581 1.22892 0
M  V30 19517 H 1823.06 1.78014 3.67117 0
M  V30 19518 H 1821.74 2.77813 3.09504 0
M  V30 19519 H 1820.31 1.01436 3.58839 0
M  V30 19520 N 1822.5 -1.17802 1.04693 0
M  V30 19521 C 1823.75 -1.87271 0.749172 0
M  V30 19522 C 1824.06 -1.81614 -0.726342 0
M  V30 19523 O 1825.27 -2.46506 -1.13785 0
M  V30 19524 C 1823.72 -3.35992 1.28986 0
M  V30 19525 C 1823.33 -3.50163 2.79446 0
M  V30 19526 C 1825.07 -4.10821 1.06892 0
M  V30 19527 C 1822.98 -4.92878 3.26841 0
M  V30 19528 H 1821.91 -0.701451 0.276554 0
M  V30 19529 H 1824.56 -1.33065 1.26357 0
M  V30 19530 H 1822.94 -3.89705 0.703298 0
M  V30 19531 H 1824.12 -3.06692 3.43914 0
M  V30 19532 H 1822.43 -2.88747 3.00023 0
M  V30 19533 H 1825.03 -5.16098 1.39809 0
M  V30 19534 H 1825.37 -4.163 0.00644311 0
M  V30 19535 H 1825.91 -3.633 1.62043 0
M  V30 19536 H 1822.64 -4.92572 4.32497 0
M  V30 19537 H 1822.16 -5.3704 2.67112 0
M  V30 19538 H 1823.84 -5.61624 3.21227 0
M  V30 19539 N 1823.98 -0.827251 -1.34143 0
M  V30 19540 C 1824.91 -0.267015 -2.31968 0
M  V30 19541 C 1825.89 0.618906 -1.58441 0
M  V30 19542 O 1827.07 0.544882 -1.86399 0
M  V30 19543 C 1824.2 0.568379 -3.42617 0
M  V30 19544 C 1823.16 -0.220767 -4.2743 0
M  V30 19545 C 1822.48 0.737643 -5.29587 0
M  V30 19546 C 1823.78 -1.43137 -5.02304 0
M  V30 19547 H 1825.48 -1.08436 -2.79073 0
M  V30 19548 H 1823.02 -0.522879 -1.34171 0
M  V30 19549 H 1824.97 0.970525 -4.10072 0
M  V30 19550 H 1823.7 1.41882 -2.94172 0
M  V30 19551 H 1822.36 -0.604333 -3.61585 0
M  V30 19552 H 1822.01 1.58416 -4.77403 0
M  V30 19553 H 1821.71 0.213815 -5.87211 0
M  V30 19554 H 1823.23 1.13755 -5.9991 0
M  V30 19555 H 1824.64 -1.10301 -5.62589 0
M  V30 19556 H 1823.04 -1.89115 -5.69522 0
M  V30 19557 H 1824.11 -2.2073 -4.31748 0
M  V30 19558 N 1825.45 1.46436 -0.582609 0
M  V30 19559 C 1826.73 1.956 -0.00129167 0
M  V30 19560 C 1827.11 1.52526 1.45942 0
M  V30 19561 O 1826.46 0.775911 2.14923 0
M  V30 19562 C 1826.67 3.4857 -0.173243 0
M  V30 19563 C 1828.02 4.2458 -0.0410173 0
M  V30 19564 O 1829.04 3.56054 -0.102074 0
M  V30 19565 O 1827.9 5.46418 0.0947564 0
M  V30 19566 H 1824.99 0.825495 0.0498706 0
M  V30 19567 H 1827.54 1.5672 -0.650921 0
M  V30 19568 H 1826.31 3.72808 -1.1887 0
M  V30 19569 H 1825.93 3.94279 0.512822 0
M  V30 19570 N 1826.93 0.320385 1.54309 0
M  V30 19571 C 1827.86 -0.539789 2.27175 0
M  V30 19572 C 1828.84 -1.12198 1.2785 0
M  V30 19573 O 1830.03 -1.1477 1.56657 0
M  V30 19574 C 1827.16 -1.70236 3.02716 0
M  V30 19575 C 1826.11 -1.24962 4.09351 0
M  V30 19576 C 1825.44 -2.49888 4.72715 0
M  V30 19577 C 1826.74 -0.366788 5.21011 0
M  V30 19578 H 1828.43 0.0680079 2.99323 0
M  V30 19579 H 1825.98 0.0341488 1.4396 0
M  V30 19580 H 1827.93 -2.31037 3.5242 0
M  V30 19581 H 1826.65 -2.33669 2.2818 0
M  V30 19582 H 1825.31 -0.664556 3.60526 0
M  V30 19583 H 1824.96 -3.11679 3.94798 0
M  V30 19584 H 1824.66 -2.20288 5.44745 0
M  V30 19585 H 1826.19 -3.11458 5.25192 0
M  V30 19586 H 1827.6 -0.881001 5.6649 0
M  V30 19587 H 1826 -0.163707 5.99877 0
M  V30 19588 H 1827.07 0.603185 4.81134 0
M  V30 19589 N 1828.41 -1.57525 0.0484906 0
M  V30 19590 C 1829.63 -1.97309 -0.639062 0
M  V30 19591 C 1830.06 -0.925753 -1.63742 0
M  V30 19592 O 1829.42 0.111304 -1.80958 0
M  V30 19593 C 1829.47 -3.36168 -1.30475 0
M  V30 19594 O 1828.57 -3.33903 -2.42038 0
M  V30 19595 H 1827.91 -0.642824 -0.166351 0
M  V30 19596 H 1830.44 -2.0427 0.116095 0
M  V30 19597 H 1830.45 -3.72835 -1.65705 0
M  V30 19598 H 1829.13 -4.11933 -0.573057 0
M  V30 19599 H 1827.7 -3.08978 -2.08775 0
M  V30 19600 N 1829.89 0.224867 -1.55988 0
M  V30 19601 C 1830.8 1.2997 -1.95307 0
M  V30 19602 C 1831.81 1.51463 -0.856444 0
M  V30 19603 O 1832.99 1.64658 -1.15973 0
M  V30 19604 C 1830.05 2.63009 -2.25892 0
M  V30 19605 C 1829.12 2.49847 -3.49106 0
M  V30 19606 C 1828.35 3.76541 -3.78223 0
M  V30 19607 O 1828.57 4.7941 -3.09066 0
M  V30 19608 O 1827.51 3.73852 -4.71718 0
M  V30 19609 H 1831.33 0.996093 -2.869 0
M  V30 19610 H 1828.92 0.427457 -1.43154 0
M  V30 19611 H 1830.8 3.41586 -2.46774 0
M  V30 19612 H 1829.47 2.93057 -1.37474 0
M  V30 19613 H 1828.38 1.69482 -3.33507 0
M  V30 19614 H 1829.71 2.24739 -4.37896 0
M  V30 19615 N 1831.37 1.49742 0.491438 0
M  V30 19616 C 1832.31 1.67115 1.59189 0
M  V30 19617 C 1833.28 0.512523 1.57995 0
M  V30 19618 O 1834.47 0.740693 1.75836 0
M  V30 19619 C 1831.61 1.75258 2.97286 0
M  V30 19620 C 1830.72 3.02488 3.08424 0
M  V30 19621 C 1829.86 3.0155 4.37311 0
M  V30 19622 C 1828.89 4.2332 4.42116 0
M  V30 19623 N 1828.03 4.20238 5.62445 0
M  V30 19624 H 1832.87 2.61073 1.43683 0
M  V30 19625 H 1830.41 1.29435 0.69892 0
M  V30 19626 H 1832.37 1.77959 3.77341 0
M  V30 19627 H 1831 0.847568 3.11474 0
M  V30 19628 H 1830.05 3.09353 2.21371 0
M  V30 19629 H 1831.36 3.92479 3.07834 0
M  V30 19630 H 1830.51 3.02868 5.25695 0
M  V30 19631 H 1829.25 2.09354 4.4048 0
M  V30 19632 H 1828.26 4.22236 3.52132 0
M  V30 19633 H 1829.48 5.1672 4.40656 0
M  V30 19634 H 1827.43 3.30884 5.66438 0
M  V30 19635 H 1827.35 5.03974 5.63512 0
M  V30 19636 H 1828.61 4.25672 6.53011 0
M  V30 19637 N 1832.84 -0.743177 1.38977 0
M  V30 19638 C 1833.81 -1.83876 1.36829 0
M  V30 19639 C 1834.81 -1.5857 0.266875 0
M  V30 19640 O 1836 -1.66121 0.524337 0
M  V30 19641 C 1833.13 -3.21528 1.1328 0
M  V30 19642 H 1834.32 -1.87186 2.3431 0
M  V30 19643 H 1831.88 -0.945979 1.24422 0
M  V30 19644 H 1832.61 -3.23883 0.164474 0
M  V30 19645 H 1832.4 -3.41292 1.93034 0
M  V30 19646 H 1833.89 -4.01597 1.14498 0
M  V30 19647 N 1834.32 -1.24018 -0.972487 0
M  V30 19648 C 1835.55 -1.10232 -1.74736 0
M  V30 19649 C 1835.96 0.348409 -1.85964 0
M  V30 19650 O 1835.3 1.25245 -1.34386 0
M  V30 19651 C 1835.37 -1.66263 -3.18743 0
M  V30 19652 C 1835.03 -3.151 -3.31 0
M  V30 19653 C 1836.03 -4.12305 -3.16703 0
M  V30 19654 C 1833.71 -3.54965 -3.55394 0
M  V30 19655 C 1835.71 -5.47357 -3.26617 0
M  V30 19656 C 1833.39 -4.9016 -3.64947 0
M  V30 19657 C 1834.39 -5.86165 -3.5057 0
M  V30 19658 O 1834.08 -7.18903 -3.5977 0
M  V30 19659 H 1833.81 -0.386036 -0.554935 0
M  V30 19660 H 1836.36 -1.64505 -1.22993 0
M  V30 19661 H 1834.59 -1.06419 -3.71769 0
M  V30 19662 H 1836.28 -1.47837 -3.7802 0
M  V30 19663 H 1837.05 -3.82848 -2.97745 0
M  V30 19664 H 1832.93 -2.80747 -3.65653 0
M  V30 19665 H 1836.47 -6.22273 -3.15312 0
M  V30 19666 H 1832.37 -5.1929 -3.83416 0
M  V30 19667 H 1833.14 -7.26759 -3.76515 0
M  V30 19668 N 1835.8 1.17245 -1.05316 0
M  V30 19669 C 1836.73 2.23491 -0.67631 0
M  V30 19670 C 1837.71 1.66937 0.326507 0
M  V30 19671 O 1838.9 1.93127 0.203823 0
M  V30 19672 C 1836.03 3.47262 -0.0515755 0
M  V30 19673 C 1834.98 4.16646 -0.97929 0
M  V30 19674 C 1834.31 5.34254 -0.218369 0
M  V30 19675 C 1835.61 4.68736 -2.30399 0
M  V30 19676 H 1837.3 2.55269 -1.56455 0
M  V30 19677 H 1834.85 1.22699 -0.753714 0
M  V30 19678 H 1836.8 4.20805 0.223865 0
M  V30 19679 H 1835.52 3.14755 0.871614 0
M  V30 19680 H 1834.18 3.45017 -1.23931 0
M  V30 19681 H 1833.83 4.97998 0.707624 0
M  V30 19682 H 1833.53 5.81615 -0.83654 0
M  V30 19683 H 1835.05 6.1058 0.0497574 0
M  V30 19684 H 1836.47 5.3391 -2.08837 0
M  V30 19685 H 1834.87 5.2668 -2.87625 0
M  V30 19686 H 1835.94 3.85477 -2.94169 0
M  V30 19687 N 1837.28 0.834353 1.33702 0
M  V30 19688 C 1838.52 0.437738 1.98634 0
M  V30 19689 C 1838.88 -0.991 1.64915 0
M  V30 19690 O 1838.17 -1.68264 0.916399 0
M  V30 19691 C 1838.37 0.590236 3.52493 0
M  V30 19692 C 1838.2 2.03225 4.01161 0
M  V30 19693 C 1836.97 2.66654 4.29213 0
M  V30 19694 C 1839.16 3.00042 4.17707 0
M  V30 19695 N 1837.15 4.01977 4.63991 0
M  V30 19696 C 1838.52 4.203 4.55793 0
M  V30 19697 C 1840.57 2.96507 3.99985 0
M  V30 19698 C 1839.27 5.37494 4.7801 0
M  V30 19699 C 1841.3 4.12927 4.23374 0
M  V30 19700 C 1840.66 5.31939 4.61758 0
M  V30 19701 H 1836.76 0.208514 0.753688 0
M  V30 19702 H 1839.35 1.08147 1.61902 0
M  V30 19703 H 1837.52 -0.0236639 3.88393 0
M  V30 19704 H 1839.25 0.165506 4.04361 0
M  V30 19705 H 1836 2.17819 4.20538 0
M  V30 19706 H 1836.43 4.71724 4.85598 0
M  V30 19707 H 1841.07 2.05629 3.69428 0
M  V30 19708 H 1838.79 6.28921 5.07429 0
M  V30 19709 H 1842.37 4.11604 4.11185 0
M  V30 19710 H 1841.25 6.20525 4.79497 0
M  V30 19711 N 1838.76 -1.46125 0.590367 0
M  V30 19712 C 1839.98 -2.07234 0.0828625 0
M  V30 19713 C 1840.41 -1.43498 -1.21614 0
M  V30 19714 O 1839.76 -0.521488 -1.73638 0
M  V30 19715 C 1839.81 -3.60548 -0.0614302 0
M  V30 19716 O 1838.92 -3.97012 -1.11603 0
M  V30 19717 H 1838.26 -0.660685 0.0662654 0
M  V30 19718 H 1840.79 -1.87646 0.815486 0
M  V30 19719 H 1840.8 -4.07137 -0.265161 0
M  V30 19720 H 1839.47 -4.06328 0.887164 0
M  V30 19721 H 1838.05 -3.6212 -0.890146 0
M  V30 19722 N 1840.23 -0.328564 -1.54137 0
M  V30 19723 C 1841.65 0.0239073 -1.59582 0
M  V30 19724 C 1841.85 1.50043 -1.34497 0
M  V30 19725 O 1840.91 2.25711 -1.13185 0
M  V30 19726 C 1842.22 -0.398812 -2.98044 0
M  V30 19727 C 1843.77 -0.34989 -3.11038 0
M  V30 19728 C 1844.24 -0.747848 -4.51853 0
M  V30 19729 N 1845.73 -0.701447 -4.57858 0
M  V30 19730 C 1846.47 -0.981505 -5.64937 0
M  V30 19731 N 1845.96 -1.32895 -6.79934 0
M  V30 19732 N 1847.76 -0.906735 -5.54738 0
M  V30 19733 H 1839.91 -1.29052 -1.68699 0
M  V30 19734 H 1842.17 -0.52508 -0.7893 0
M  V30 19735 H 1841.88 -1.42773 -3.21417 0
M  V30 19736 H 1841.75 0.233639 -3.76476 0
M  V30 19737 H 1844.14 0.669831 -2.87397 0
M  V30 19738 H 1844.22 -1.01734 -2.34699 0
M  V30 19739 H 1843.86 -1.76551 -4.76227 0
M  V30 19740 H 1843.79 -0.0580299 -5.26568 0
M  V30 19741 H 1846.28 -0.444963 -3.75271 0
M  V30 19742 H 1846.6 -1.52789 -7.57546 0
M  V30 19743 H 1844.94 -1.36726 -6.81418 0
M  V30 19744 H 1848.13 -0.634748 -4.63776 0
M  V30 19745 H 1848.31 -1.12835 -6.38101 0
M  V30 19746 N 1841.71 1.57497 -0.0568439 0
M  V30 19747 C 1842.96 1.932 0.61658 0
M  V30 19748 C 1843.29 0.935936 1.70158 0
M  V30 19749 O 1842.57 -0.0372005 1.94464 0
M  V30 19750 C 1842.85 3.39254 1.20742 0
M  V30 19751 C 1842.7 4.49612 0.130081 0
M  V30 19752 C 1844.02 3.85817 2.11738 0
M  V30 19753 H 1841.14 0.702558 0.222668 0
M  V30 19754 H 1843.78 1.89622 -0.119765 0
M  V30 19755 H 1841.93 3.42434 1.83497 0
M  V30 19756 H 1843.6 4.58559 -0.502172 0
M  V30 19757 H 1841.85 4.30411 -0.541167 0
M  V30 19758 H 1842.52 5.48906 0.583606 0
M  V30 19759 H 1844.99 3.8455 1.58936 0
M  V30 19760 H 1843.87 4.88653 2.50019 0
M  V30 19761 H 1844.13 3.22899 3.01974 0
M  V30 19762 N 1843.19 -0.216591 1.56105 0
M  V30 19763 C 1844.1 -1.28933 1.95994 0
M  V30 19764 C 1845.12 -1.51007 0.864464 0
M  V30 19765 O 1846.29 -1.6404 1.16845 0
M  V30 19766 C 1843.36 -2.61807 2.27284 0
M  V30 19767 C 1842.42 -2.47992 3.50426 0
M  V30 19768 C 1841.65 -3.7453 3.80214 0
M  V30 19769 O 1841.87 -4.77765 3.11604 0
M  V30 19770 O 1840.81 -3.71345 4.73694 0
M  V30 19771 H 1844.63 -0.980864 2.87424 0
M  V30 19772 H 1842.22 -0.419859 1.43379 0
M  V30 19773 H 1844.1 -3.40272 2.48582 0
M  V30 19774 H 1842.78 -2.92324 1.39026 0
M  V30 19775 H 1841.68 -1.67711 3.34401 0
M  V30 19776 H 1843.02 -2.22413 4.39082 0
M  V30 19777 N 1844.67 -1.5 -0.48349 0
M  V30 19778 C 1845.62 -1.67957 -1.58301 0
M  V30 19779 C 1846.59 -0.520895 -1.57721 0
M  V30 19780 O 1847.77 -0.750008 -1.75441 0
M  V30 19781 C 1844.91 -1.76832 -2.96352 0
M  V30 19782 C 1844.02 -3.04119 -3.06815 0
M  V30 19783 C 1843.16 -3.03865 -4.35706 0
M  V30 19784 C 1842.2 -4.25658 -4.39865 0
M  V30 19785 N 1841.33 -4.23214 -5.60209 0
M  V30 19786 H 1846.17 -2.61832 -1.42296 0
M  V30 19787 H 1843.71 -1.29804 -0.692045 0
M  V30 19788 H 1845.67 -1.79958 -3.76392 0
M  V30 19789 H 1844.3 -0.864074 -3.1102 0
M  V30 19790 H 1843.35 -3.10523 -2.19727 0
M  V30 19791 H 1844.66 -3.94106 -3.05748 0
M  V30 19792 H 1843.82 -3.05652 -5.24082 0
M  V30 19793 H 1842.56 -2.11687 -4.39363 0
M  V30 19794 H 1841.56 -4.24097 -3.49888 0
M  V30 19795 H 1842.79 -5.19049 -4.37909 0
M  V30 19796 H 1840.73 -3.33883 -5.64675 0
M  V30 19797 H 1840.65 -5.06956 -5.60832 0
M  V30 19798 H 1841.92 -4.29129 -6.50744 0
M  V30 19799 N 1846.15 0.735796 -1.39369 0
M  V30 19800 C 1847.08 1.86303 -1.4076 0
M  V30 19801 C 1848.06 1.67926 -0.27107 0
M  V30 19802 O 1849.24 1.88257 -0.476773 0
M  V30 19803 C 1846.37 3.24043 -1.24955 0
M  V30 19804 C 1845.33 3.57055 -2.35999 0
M  V30 19805 C 1844.65 4.93723 -2.05284 0
M  V30 19806 C 1845.95 3.60109 -3.7831 0
M  V30 19807 H 1847.65 1.85396 -2.35093 0
M  V30 19808 H 1845.19 0.890552 -1.1316 0
M  V30 19809 H 1847.15 4.02574 -1.24549 0
M  V30 19810 H 1845.87 3.25475 -0.270902 0
M  V30 19811 H 1844.53 2.80853 -2.35621 0
M  V30 19812 H 1844.18 4.91734 -1.05859 0
M  V30 19813 H 1843.88 5.16779 -2.79667 0
M  V30 19814 H 1845.4 5.74612 -2.06527 0
M  V30 19815 H 1846.81 4.28718 -3.80622 0
M  V30 19816 H 1845.21 3.94683 -4.52046 0
M  V30 19817 H 1846.28 2.59932 -4.09345 0
M  V30 19818 N 1847.63 1.24532 0.965897 0
M  V30 19819 C 1848.58 1.00627 2.04593 0
M  V30 19820 C 1849.56 -0.0529299 1.60813 0
M  V30 19821 O 1850.75 0.16102 1.76266 0
M  V30 19822 C 1847.88 0.614939 3.37748 0
M  V30 19823 C 1846.97 1.71031 3.88084 0
M  V30 19824 N 1847.36 2.94339 4.11337 0
M  V30 19825 C 1845.66 1.58823 4.16763 0
M  V30 19826 C 1846.36 3.65361 4.52644 0
M  V30 19827 N 1845.33 2.92931 4.57922 0
M  V30 19828 H 1849.13 1.94256 2.20549 0
M  V30 19829 H 1846.65 1.14685 1.14983 0
M  V30 19830 H 1848.65 0.424907 4.14729 0
M  V30 19831 H 1847.31 -0.314149 3.23177 0
M  V30 19832 H 1848.32 3.305 3.98736 0
M  V30 19833 H 1844.99 0.727304 4.11116 0
M  V30 19834 H 1846.38 4.71145 4.79032 0
M  V30 19835 N 1849.1 -1.16685 1.05936 0
M  V30 19836 C 1850.03 -2.23129 0.688153 0
M  V30 19837 C 1851.01 -1.67108 -0.31765 0
M  V30 19838 O 1852.2 -1.93233 -0.193578 0
M  V30 19839 C 1849.33 -3.47229 0.069991 0
M  V30 19840 C 1848.28 -4.16121 1.00137 0
M  V30 19841 C 1847.61 -5.34131 0.246699 0
M  V30 19842 C 1848.91 -4.67508 2.32882 0
M  V30 19843 H 1850.6 -2.54436 1.57806 0
M  V30 19844 H 1848.15 -1.22298 0.76021 0
M  V30 19845 H 1850.1 -4.20918 -0.201545 0
M  V30 19846 H 1848.83 -3.15212 -0.854909 0
M  V30 19847 H 1847.49 -3.44355 1.25759 0
M  V30 19848 H 1847.13 -4.98366 -0.681204 0
M  V30 19849 H 1846.83 -5.81163 0.867373 0
M  V30 19850 H 1848.36 -6.10598 -0.0173762 0
M  V30 19851 H 1849.77 -5.32795 2.11666 0
M  V30 19852 H 1848.17 -5.25147 2.90414 0
M  V30 19853 H 1849.24 -3.83912 2.96209 0
M  V30 19854 N 1850.58 -0.841432 -1.33258 0
M  V30 19855 C 1851.81 -0.45101 -2.02437 0
M  V30 19856 C 1852.23 0.940811 -1.62881 0
M  V30 19857 O 1851.59 1.61559 -0.82271 0
M  V30 19858 C 1851.64 -0.58237 -3.55866 0
M  V30 19859 O 1850.74 0.390326 -4.10549 0
M  V30 19860 H 1850.08 -0.182996 -0.638285 0
M  V30 19861 H 1852.61 -1.13697 -1.701 0
M  V30 19862 H 1852.62 -0.464967 -4.05342 0
M  V30 19863 H 1851.3 -1.59739 -3.84 0
M  V30 19864 H 1849.87 0.230266 -3.72188 0
M  V30 19865 N 1852.06 1.4581 -0.598108 0
M  V30 19866 C 1853.01 2.27522 0.147488 0
M  V30 19867 C 1853.99 1.36772 0.847487 0
M  V30 19868 O 1855.19 1.60833 0.739041 0
M  V30 19869 C 1852.31 3.23449 1.15047 0
M  V30 19870 C 1851.4 4.21687 0.451796 0
M  V30 19871 N 1851.79 5.0331 -0.501268 0
M  V30 19872 C 1850.09 4.40463 0.700576 0
M  V30 19873 C 1850.79 5.74521 -0.911055 0
M  V30 19874 N 1849.77 5.42993 -0.256847 0
M  V30 19875 H 1853.57 2.88026 -0.584658 0
M  V30 19876 H 1851.08 1.56847 -0.421055 0
M  V30 19877 H 1853.08 3.80712 1.69894 0
M  V30 19878 H 1851.74 2.64505 1.88327 0
M  V30 19879 H 1852.75 5.10411 -0.877558 0
M  V30 19880 H 1849.43 3.92654 1.41878 0
M  V30 19881 H 1850.82 6.50128 -1.69657 0
M  V30 19882 N 1853.54 0.336733 1.53961 0
M  V30 19883 C 1854.49 -0.538599 2.26278 0
M  V30 19884 C 1855.48 -1.10764 1.2817 0
M  V30 19885 O 1856.69 -1.05416 1.45902 0
M  V30 19886 H 1853.06 -0.192363 0.72698 0
M  V30 19887 H 1855.03 0.0934532 2.98254 0
M  V30 19888 C 1853.78 -1.68121 3.04353 0
M  V30 19889 H 1853.1 -1.25261 3.7967 0
M  V30 19890 H 1854.54 -2.26901 3.58179 0
M  V30 19891 C 1853 -2.60663 2.13439 0
M  V30 19892 O 1853.53 -3.62731 1.72596 0
M  V30 19893 N 1851.74 -2.29194 1.78658 0
M  V30 19894 H 1851.29 -1.46233 2.1207 0
M  V30 19895 H 1851.24 -2.91371 1.18111 0
M  V30 19896 N 1855.02 -1.57465 0.0651956 0
M  V30 19897 C 1855.96 -2.12345 -0.904345 0
M  V30 19898 C 1856.93 -1.03429 -1.29968 0
M  V30 19899 O 1858.12 -1.31055 -1.38669 0
M  V30 19900 C 1855.26 -2.68423 -2.16895 0
M  V30 19901 C 1854.37 -3.91472 -1.82684 0
M  V30 19902 C 1853.51 -4.35816 -3.03706 0
M  V30 19903 C 1852.54 -5.5153 -2.65482 0
M  V30 19904 N 1851.68 -5.90863 -3.79242 0
M  V30 19905 H 1856.52 -2.94889 -0.429468 0
M  V30 19906 H 1854.06 -1.45729 -0.200344 0
M  V30 19907 H 1856.02 -2.99041 -2.90913 0
M  V30 19908 H 1854.65 -1.88654 -2.61934 0
M  V30 19909 H 1853.7 -3.67357 -0.987564 0
M  V30 19910 H 1855.01 -4.75536 -1.50557 0
M  V30 19911 H 1854.16 -4.68062 -3.86009 0
M  V30 19912 H 1852.9 -3.50593 -3.39022 0
M  V30 19913 H 1851.91 -5.18943 -1.81598 0
M  V30 19914 H 1853.13 -6.3848 -2.31343 0
M  V30 19915 H 1851.08 -5.08591 -4.14332 0
M  V30 19916 H 1851 -6.69651 -3.50861 0
M  V30 19917 H 1852.26 -6.27729 -4.62144 0
M  V30 19918 N 1856.49 0.20831 -1.56217 0
M  V30 19919 C 1857.42 1.26115 -1.96513 0
M  V30 19920 C 1858.4 1.48185 -0.835183 0
M  V30 19921 O 1859.59 1.60145 -1.09851 0
M  V30 19922 C 1856.72 2.6082 -2.29326 0
M  V30 19923 C 1855.67 2.53385 -3.44935 0
M  V30 19924 C 1855 3.92241 -3.63388 0
M  V30 19925 C 1856.3 2.07026 -4.79518 0
M  V30 19926 H 1857.99 0.92635 -2.84709 0
M  V30 19927 H 1855.54 0.444169 -1.36979 0
M  V30 19928 H 1857.49 3.34644 -2.56109 0
M  V30 19929 H 1856.22 2.96014 -1.37997 0
M  V30 19930 H 1854.88 1.82018 -3.18222 0
M  V30 19931 H 1854.52 4.24766 -2.69413 0
M  V30 19932 H 1854.22 3.88145 -4.41154 0
M  V30 19933 H 1855.75 4.67707 -3.92533 0
M  V30 19934 H 1857.16 2.70601 -5.05419 0
M  V30 19935 H 1855.56 2.13961 -5.60661 0
M  V30 19936 H 1856.63 1.02298 -4.73986 0
M  V30 19937 N 1857.97 1.50255 0.475528 0
M  V30 19938 C 1858.92 1.68794 1.57408 0
M  V30 19939 C 1859.89 0.529252 1.57442 0
M  V30 19940 O 1861.07 0.759301 1.75041 0
M  V30 19941 C 1858.21 1.78401 2.9541 0
M  V30 19942 C 1857.33 3.05742 3.05198 0
M  V30 19943 C 1856.46 3.06172 4.34088 0
M  V30 19944 C 1855.5 4.27985 4.37602 0
M  V30 19945 N 1854.64 4.26179 5.57957 0
M  V30 19946 H 1859.48 2.62583 1.40905 0
M  V30 19947 H 1857.01 1.30169 0.685152 0
M  V30 19948 H 1858.97 1.81952 3.75432 0
M  V30 19949 H 1857.6 0.880556 3.10558 0
M  V30 19950 H 1856.65 3.11683 2.18077 0
M  V30 19951 H 1857.97 3.95722 3.03654 0
M  V30 19952 H 1857.12 3.08427 5.22454 0
M  V30 19953 H 1855.86 2.14014 4.38234 0
M  V30 19954 H 1854.86 4.25947 3.47634 0
M  V30 19955 H 1856.09 5.21364 4.35151 0
M  V30 19956 H 1854.04 3.36873 5.62897 0
M  V30 19957 H 1853.95 5.09923 5.58135 0
M  V30 19958 H 1855.22 4.32574 6.4846 0
M  V30 19959 N 1859.45 -0.728395 1.39758 0
M  V30 19960 C 1860.36 -1.87279 1.41293 0
M  V30 19961 C 1861.38 -1.71271 0.306965 0
M  V30 19962 O 1862.55 -1.93759 0.549502 0
M  V30 19963 C 1859.62 -3.22943 1.2613 0
M  V30 19964 C 1858.68 -3.51297 2.46756 0
M  V30 19965 C 1857.91 -4.80489 2.32307 0
M  V30 19966 O 1858.13 -5.54676 1.33005 0
M  V30 19967 O 1857.07 -5.08891 3.21425 0
M  V30 19968 H 1860.89 -1.88939 2.37773 0
M  V30 19969 H 1858.48 -0.877103 1.20943 0
M  V30 19970 H 1860.36 -4.04003 1.19832 0
M  V30 19971 H 1859.04 -3.22039 0.327492 0
M  V30 19972 H 1857.94 -2.70298 2.58631 0
M  V30 19973 H 1859.28 -3.56986 3.38853 0
M  V30 19974 N 1860.93 -1.25042 -0.959279 0
M  V30 19975 C 1862.18 -1.08912 -1.69768 0
M  V30 19976 C 1862.49 0.370558 -1.92058 0
M  V30 19977 O 1863.7 0.652214 -2.6355 0
M  V30 19978 C 1862.15 -1.90075 -3.05613 0
M  V30 19979 C 1861.76 -3.40506 -2.91136 0
M  V30 19980 C 1863.5 -1.825 -3.83268 0
M  V30 19981 C 1861.41 -4.13982 -4.22343 0
M  V30 19982 H 1860.34 -0.403959 -0.636658 0
M  V30 19983 H 1862.99 -1.49198 -1.06828 0
M  V30 19984 H 1861.37 -1.42609 -3.6943 0
M  V30 19985 H 1862.55 -3.95612 -2.36279 0
M  V30 19986 H 1860.86 -3.49123 -2.2694 0
M  V30 19987 H 1863.46 -2.34693 -4.80441 0
M  V30 19988 H 1863.8 -0.791947 -4.08698 0
M  V30 19989 H 1864.34 -2.27691 -3.26192 0
M  V30 19990 H 1861.07 -5.17681 -4.02103 0
M  V30 19991 H 1860.59 -3.6366 -4.76982 0
M  V30 19992 H 1862.27 -4.21443 -4.90913 0
M  V30 19993 N 1862.41 1.16121 -1.06553 0
M  V30 19994 C 1863.82 1.68319 -0.807804 0
M  V30 19995 C 1864.17 1.8447 0.668234 0
M  V30 19996 O 1863.29 1.54215 1.51811 0
M  V30 19997 C 1863.89 3.05738 -1.45979 0
M  V30 19998 C 1862.45 3.55046 -1.24977 0
M  V30 19999 C 1861.59 2.30965 -1.53462 0
M  V30 20000 H 1864.55 1.00447 -1.22866 0
M  V30 20001 H 1864.57 3.70266 -0.876556 0
M  V30 20002 H 1864.08 2.93951 -2.53405 0
M  V30 20003 H 1862.18 3.72087 -0.195367 0
M  V30 20004 H 1862.29 4.36979 -1.96433 0
M  V30 20005 H 1860.66 2.36107 -0.955268 0
M  V30 20006 H 1861.44 2.21773 -2.62052 0
M  V30 20007 N 1863.88 0.848487 1.3281 0
M  V30 20008 C 1865.3 0.504307 1.7976 0
M  V30 20009 C 1865.65 -0.977408 1.70121 0
M  V30 20010 O 1864.77 -1.7621 1.25614 0
M  V30 20011 C 1865.37 0.908628 3.26388 0
M  V30 20012 C 1863.93 0.616441 3.71318 0
M  V30 20013 C 1863.07 1.11173 2.54039 0
M  V30 20014 H 1866.02 1.03628 1.20195 0
M  V30 20015 H 1866.04 0.222518 3.79849 0
M  V30 20016 H 1865.56 1.98708 3.33372 0
M  V30 20017 H 1863.66 -0.451545 3.69854 0
M  V30 20018 H 1863.77 1.17841 4.64382 0
M  V30 20019 H 1862.13 0.532227 2.49077 0
M  V30 20020 H 1862.92 2.19716 2.6378 0
M  V30 20021 N 1865.36 -1.4549 0.605832 0
M  V30 20022 C 1866.27 -2.34313 -0.115915 0
M  V30 20023 C 1867.29 -1.51136 -0.862199 0
M  V30 20024 O 1868.46 -1.83943 -0.820181 0
M  V30 20025 C 1865.53 -3.28724 -1.10188 0
M  V30 20026 C 1864.59 -4.27807 -0.357749 0
M  V30 20027 C 1863.82 -5.17707 -1.29675 0
M  V30 20028 O 1864.05 -5.10999 -2.53448 0
M  V30 20029 O 1862.98 -5.9663 -0.794767 0
M  V30 20030 H 1866.81 -2.97429 0.613981 0
M  V30 20031 H 1864.39 -1.44845 0.366103 0
M  V30 20032 H 1866.27 -3.86905 -1.6698 0
M  V30 20033 H 1864.95 -2.68175 -1.81284 0
M  V30 20034 H 1863.86 -3.73246 0.252588 0
M  V30 20035 H 1865.19 -4.91206 0.312682 0
M  V30 20036 N 1866.84 -0.344893 -1.5378 0
M  V30 20037 C 1868.09 0.252216 -2.00117 0
M  V30 20038 C 1868.4 1.51548 -1.23663 0
M  V30 20039 O 1869.61 2.18991 -1.60484 0
M  V30 20040 C 1868.06 0.499983 -3.5641 0
M  V30 20041 C 1867.67 -0.747455 -4.41721 0
M  V30 20042 C 1869.42 1.05588 -4.11159 0
M  V30 20043 C 1867.32 -0.470414 -5.89526 0
M  V30 20044 H 1866.25 0.0980234 -0.747601 0
M  V30 20045 H 1868.9 -0.460431 -1.7763 0
M  V30 20046 H 1867.29 1.27337 -3.74969 0
M  V30 20047 H 1868.46 -1.52204 -4.34937 0
M  V30 20048 H 1866.78 -1.22508 -3.97971 0
M  V30 20049 H 1869.37 1.27813 -5.19199 0
M  V30 20050 H 1869.72 2.01181 -3.64461 0
M  V30 20051 H 1870.25 0.343167 -3.96317 0
M  V30 20052 H 1866.99 -1.3961 -6.4046 0
M  V30 20053 H 1866.51 0.266065 -5.9921 0
M  V30 20054 H 1868.19 -0.0881607 -6.4694 0
M  V30 20055 N 1868.32 1.57428 -0.0735454 0
M  V30 20056 C 1869.57 1.93174 0.593996 0
M  V30 20057 C 1869.89 0.954462 1.70044 0
M  V30 20058 O 1869.16 0.00289765 1.959 0
M  V30 20059 H 1867.74 0.713123 0.222407 0
M  V30 20060 H 1870.4 1.94454 -0.131813 0
M  V30 20061 H 1869.5 2.95025 1.01818 0
M  V30 20062 N 1869.8 -0.200022 1.56326 0
M  V30 20063 C 1871.04 -0.927997 1.8212 0
M  V30 20064 C 1871.4 -1.80652 0.650305 0
M  V30 20065 O 1872.6 -2.56989 0.788027 0
M  V30 20066 C 1870.87 -1.72682 3.12915 0
M  V30 20067 S 1872.43 -2.50748 3.60098 0
M  V30 20068 H 1869.25 -0.311347 0.639206 0
M  V30 20069 H 1871.85 -0.191791 1.94557 0
M  V30 20070 H 1870.56 -1.07195 3.96153 0
M  V30 20071 H 1870.09 -2.50493 3.03343 0
M  V30 20072 H 1872.1 -3.74828 3.25143 0
M  V30 20073 N 1871.27 -1.50505 -0.467553 0
M  V30 20074 C 1872.2 -1.72558 -1.57309 0
M  V30 20075 C 1873.19 -0.574619 -1.601 0
M  V30 20076 O 1874.37 -0.814135 -1.76311 0
M  V30 20077 C 1871.5 -1.82296 -2.9561 0
M  V30 20078 C 1870.45 -2.97513 -3.07685 0
M  V30 20079 C 1869.78 -2.92398 -4.47669 0
M  V30 20080 C 1871.08 -4.37968 -2.84573 0
M  V30 20081 H 1872.77 -2.65122 -1.39107 0
M  V30 20082 H 1870.32 -1.2758 -0.667776 0
M  V30 20083 H 1872.27 -1.96308 -3.72882 0
M  V30 20084 H 1871 -0.863562 -3.14976 0
M  V30 20085 H 1869.66 -2.83157 -2.32847 0
M  V30 20086 H 1869.3 -1.94297 -4.63959 0
M  V30 20087 H 1869 -3.69749 -4.56683 0
M  V30 20088 H 1870.53 -3.08464 -5.26956 0
M  V30 20089 H 1871.94 -4.52831 -3.51593 0
M  V30 20090 H 1870.34 -5.16796 -3.05028 0
M  V30 20091 H 1871.41 -4.50093 -1.80402 0
M  V30 20092 N 1872.75 0.720973 -1.40142 0
M  V30 20093 C 1873.66 1.86527 -1.42284 0
M  V30 20094 C 1874.68 1.71106 -0.316044 0
M  V30 20095 O 1875.85 1.93465 -0.55977 0
M  V30 20096 C 1872.92 3.2227 -1.27841 0
M  V30 20097 C 1871.98 3.49984 -2.48616 0
M  V30 20098 C 1871.21 4.7925 -2.34852 0
M  V30 20099 O 1871.44 5.53963 -1.35945 0
M  V30 20100 O 1870.37 5.07179 -3.24119 0
M  V30 20101 H 1874.2 1.87675 -2.38771 0
M  V30 20102 H 1871.78 0.870677 -1.21407 0
M  V30 20103 H 1873.66 4.03362 -1.21973 0
M  V30 20104 H 1872.34 3.21861 -0.344566 0
M  V30 20105 H 1871.25 2.68922 -2.60061 0
M  V30 20106 H 1872.58 3.55184 -3.40742 0
M  V30 20107 N 1874.23 1.25549 0.952634 0
M  V30 20108 C 1875.18 1.05902 2.07093 0
M  V30 20109 C 1876.17 -0.0106646 1.69397 0
M  V30 20110 O 1877.38 0.14511 1.79414 0
M  V30 20111 H 1873.75 0.325539 0.677885 0
M  V30 20112 H 1875.72 2.00701 2.2082 0
M  V30 20113 C 1874.47 0.696581 3.40651 0
M  V30 20114 H 1873.8 1.5115 3.70127 0
M  V30 20115 H 1875.24 0.598818 4.1975 0
M  V30 20116 C 1873.7 -0.5975 3.31559 0
M  V30 20117 O 1874.23 -1.63906 3.66739 0
M  V30 20118 N 1872.43 -0.583869 2.84674 0
M  V30 20119 H 1871.98 0.264102 2.56243 0
M  V30 20120 H 1871.94 -1.44987 2.78973 0
M  V30 20121 N 1875.71 -1.15554 1.07168 0
M  V30 20122 C 1876.64 -2.22387 0.71178 0
M  V30 20123 C 1877.62 -1.67435 -0.299908 0
M  V30 20124 O 1878.8 -1.93427 -0.173073 0
M  V30 20125 C 1875.93 -3.47136 0.106815 0
M  V30 20126 C 1874.89 -4.15035 1.04545 0
M  V30 20127 C 1874.21 -5.33839 0.303337 0
M  V30 20128 C 1875.51 -4.65011 2.37827 0
M  V30 20129 H 1877.21 -2.52748 1.60496 0
M  V30 20130 H 1874.75 -1.21485 0.773139 0
M  V30 20131 H 1876.71 -4.21108 -0.15689 0
M  V30 20132 H 1875.43 -3.16101 -0.821429 0
M  V30 20133 H 1874.09 -3.43001 1.29405 0
M  V30 20134 H 1873.74 -4.9906 -0.628308 0
M  V30 20135 H 1873.44 -5.8021 0.928964 0
M  V30 20136 H 1874.96 -6.10582 0.0473869 0
M  V30 20137 H 1876.38 -5.3052 2.17305 0
M  V30 20138 H 1874.77 -5.22038 2.95967 0
M  V30 20139 H 1875.84 -3.80748 3.00264 0
M  V30 20140 N 1877.19 -0.855519 -1.32358 0
M  V30 20141 C 1878.42 -0.473331 -2.01413 0
M  V30 20142 C 1878.83 0.930206 -1.64294 0
M  V30 20143 O 1878.19 1.60714 -0.864705 0
M  V30 20144 C 1878.24 -0.603815 -3.56422 0
M  V30 20145 O 1877.96 -1.95207 -3.92207 0
M  V30 20146 C 1879.46 -0.220748 -4.4275 0
M  V30 20147 H 1876.68 -0.185962 -0.644716 0
M  V30 20148 H 1879.22 -1.1527 -1.68918 0
M  V30 20149 H 1877.38 0.0278263 -3.8739 0
M  V30 20150 H 1877.79 -1.94946 -4.86925 0
M  V30 20151 H 1879.27 -0.363048 -5.50805 0
M  V30 20152 H 1879.74 0.838881 -4.31114 0
M  V30 20153 H 1880.35 -0.827498 -4.17172 0
M  V30 20154 N 1878.67 1.45167 -0.61354 0
M  V30 20155 C 1879.89 2.07076 -0.115821 0
M  V30 20156 C 1880.32 1.45415 1.19315 0
M  V30 20157 O 1879.67 0.549046 1.72786 0
M  V30 20158 C 1879.72 3.606 0.00406239 0
M  V30 20159 O 1878.83 3.98737 1.05273 0
M  V30 20160 H 1878.17 0.659547 -0.0767679 0
M  V30 20161 H 1880.7 1.86325 -0.845236 0
M  V30 20162 H 1880.71 4.07508 0.200356 0
M  V30 20163 H 1879.38 4.04865 -0.951695 0
M  V30 20164 H 1877.96 3.6349 0.832424 0
M  V30 20165 N 1880.14 0.353044 1.53595 0
M  V30 20166 C 1881.07 -0.491481 2.28269 0
M  V30 20167 C 1882.05 -1.0946 1.30201 0
M  V30 20168 O 1883.24 -1.11421 1.59056 0
M  V30 20169 C 1880.37 -1.63776 3.06259 0
M  V30 20170 C 1879.32 -1.16251 4.1191 0
M  V30 20171 C 1878.65 -2.39805 4.7791 0
M  V30 20172 C 1879.95 -0.256191 5.21671 0
M  V30 20173 H 1881.64 0.131483 2.99111 0
M  V30 20174 H 1879.19 0.0646771 1.43855 0
M  V30 20175 H 1881.14 -2.2351 3.57241 0
M  V30 20176 H 1879.87 -2.28777 2.33085 0
M  V30 20177 H 1878.53 -0.587934 3.61855 0
M  V30 20178 H 1878.17 -3.03234 4.0132 0
M  V30 20179 H 1877.87 -2.08684 5.49295 0
M  V30 20180 H 1879.4 -3.00248 5.3168 0
M  V30 20181 H 1880.81 -0.760642 5.68232 0
M  V30 20182 H 1879.21 -0.0364273 6.00089 0
M  V30 20183 H 1880.28 0.705105 4.79746 0
M  V30 20184 N 1881.62 -1.57387 0.0818932 0
M  V30 20185 C 1882.9 -1.85297 -0.626447 0
M  V30 20186 C 1883.28 -0.976281 -1.87168 0
M  V30 20187 O 1882.63 -0.0451999 -2.28455 0
M  V30 20188 C 1882.84 -3.35695 -0.954461 0
M  V30 20189 C 1884.18 -4.03442 -1.32361 0
M  V30 20190 O 1885.21 -3.40499 -1.04588 0
M  V30 20191 O 1884.07 -5.1448 -1.84317 0
M  V30 20192 H 1881.16 -0.765835 -0.31213 0
M  V30 20193 H 1883.71 -1.69319 0.11359 0
M  V30 20194 H 1882.48 -3.91237 -0.0704846 0
M  V30 20195 H 1882.1 -3.56971 -1.75092 0
M  V30 20196 N 1883.1 0.191729 -1.56429 0
M  V30 20197 C 1884.35 0.912948 -1.81089 0
M  V30 20198 C 1884.68 1.82767 -0.656483 0
M  V30 20199 O 1883.95 1.91456 0.342779 0
M  V30 20200 C 1884.24 1.72628 -3.16025 0
M  V30 20201 C 1884.09 0.836045 -4.41962 0
M  V30 20202 C 1885.41 2.69818 -3.47687 0
M  V30 20203 H 1882.53 0.33046 -0.658761 0
M  V30 20204 H 1885.17 0.180148 -1.89144 0
M  V30 20205 H 1883.32 2.35102 -3.09289 0
M  V30 20206 H 1884.99 0.225751 -4.60747 0
M  V30 20207 H 1883.23 0.142944 -4.33564 0
M  V30 20208 H 1883.91 1.44019 -5.32881 0
M  V30 20209 H 1886.38 2.17475 -3.54745 0
M  V30 20210 H 1885.26 3.23806 -4.43216 0
M  V30 20211 H 1885.52 3.49028 -2.71352 0
M  V30 20212 N 1884.58 1.50751 0.459565 0
M  V30 20213 C 1885.8 1.66367 1.23842 0
M  V30 20214 C 1886.23 0.351355 1.84789 0
M  V30 20215 O 1885.59 -0.686103 1.67816 0
M  V30 20216 C 1885.63 2.76521 2.31449 0
M  V30 20217 O 1884.74 2.38576 3.36386 0
M  V30 20218 H 1884.08 0.555447 0.363833 0
M  V30 20219 H 1886.61 1.97193 0.545538 0
M  V30 20220 H 1886.62 2.99943 2.76583 0
M  V30 20221 H 1885.29 3.71759 1.86462 0
M  V30 20222 H 1883.87 2.25643 2.96883 0
M  V30 20223 N 1886.06 -0.713531 1.40522 0
M  V30 20224 C 1887.29 -1.50042 1.42024 0
M  V30 20225 C 1887.69 -1.89191 0.0188277 0
M  V30 20226 O 1887.04 -1.56122 -0.968071 0
M  V30 20227 C 1887.1 -2.8045 2.24918 0
M  V30 20228 C 1886.76 -2.63612 3.73306 0
M  V30 20229 C 1887.76 -2.30736 4.65893 0
M  V30 20230 C 1885.44 -2.79813 4.17145 0
M  V30 20231 C 1887.44 -2.14273 6.00305 0
M  V30 20232 C 1885.13 -2.62967 5.51626 0
M  V30 20233 C 1886.12 -2.30246 6.43021 0
M  V30 20234 O 1885.81 -2.1353 7.75023 0
M  V30 20235 H 1885.54 -0.46954 0.486321 0
M  V30 20236 H 1888.1 -0.887579 1.85233 0
M  V30 20237 H 1886.33 -3.44075 1.76492 0
M  V30 20238 H 1888.02 -3.42176 2.18336 0
M  V30 20239 H 1888.78 -2.17851 4.3332 0
M  V30 20240 H 1884.66 -3.04269 3.46325 0
M  V30 20241 H 1888.21 -1.88656 6.71606 0
M  V30 20242 H 1884.1 -2.75437 5.83785 0
M  V30 20243 H 1884.87 -2.28434 7.85977 0
M  V30 20244 N 1887.53 -1.26053 -0.945962 0
M  V30 20245 C 1888.48 -1.06999 -2.06529 0
M  V30 20246 C 1889.48 0.00168092 -1.694 0
M  V30 20247 O 1890.68 -0.154623 -1.79335 0
M  V30 20248 H 1887.06 -0.329129 -0.676149 0
M  V30 20249 H 1889.03 -2.01869 -2.19753 0
M  V30 20250 C 1887.78 -0.714636 -3.40277 0
M  V30 20251 H 1887.1 -1.53111 -3.6932 0
M  V30 20252 H 1888.54 -0.62107 -4.19427 0
M  V30 20253 C 1887 0.579908 -3.31871 0
M  V30 20254 O 1887.53 1.61959 -3.67603 0
M  V30 20255 N 1885.73 0.568764 -2.8498 0
M  V30 20256 H 1885.28 -0.277687 -2.56099 0
M  V30 20257 H 1885.24 1.43505 -2.79738 0
M  V30 20258 N 1889.01 1.14984 -1.07779 0
M  V30 20259 C 1889.94 2.22006 -0.723564 0
M  V30 20260 C 1890.92 1.67592 0.291024 0
M  V30 20261 O 1892.11 1.93516 0.162812 0
M  V30 20262 C 1889.24 3.47074 -0.125223 0
M  V30 20263 C 1888.19 4.14475 -1.06745 0
M  V30 20264 C 1887.52 5.33671 -0.331643 0
M  V30 20265 C 1888.82 4.63744 -2.4029 0
M  V30 20266 H 1890.51 2.51893 -1.61834 0
M  V30 20267 H 1888.06 1.21073 -0.779571 0
M  V30 20268 H 1890.01 4.21185 0.134555 0
M  V30 20269 H 1888.73 3.16533 0.804654 0
M  V30 20270 H 1887.39 3.4231 -1.31222 0
M  V30 20271 H 1887.04 4.99387 0.601833 0
M  V30 20272 H 1886.74 5.7971 -0.959721 0
M  V30 20273 H 1888.27 6.10548 -0.0797668 0
M  V30 20274 H 1889.68 5.2936 -2.20115 0
M  V30 20275 H 1888.08 5.20461 -2.98732 0
M  V30 20276 H 1889.15 3.79151 -3.02279 0
M  V30 20277 N 1890.49 0.862526 1.31902 0
M  V30 20278 C 1891.4 0.316029 2.32462 0
M  V30 20279 C 1892.42 -0.570217 1.64391 0
M  V30 20280 O 1893.59 -0.46871 1.9587 0
M  V30 20281 C 1890.66 -0.479949 3.43362 0
M  V30 20282 C 1889.72 0.43337 4.27107 0
M  V30 20283 C 1888.95 -0.324714 5.32711 0
M  V30 20284 O 1889.17 -1.55373 5.48831 0
M  V30 20285 O 1888.11 0.313571 6.01083 0
M  V30 20286 H 1891.93 1.14935 2.81111 0
M  V30 20287 H 1889.52 0.625683 1.35667 0
M  V30 20288 H 1891.4 -0.931458 4.10977 0
M  V30 20289 H 1890.08 -1.28994 2.96888 0
M  V30 20290 H 1888.98 0.933222 3.62273 0
M  V30 20291 H 1890.32 1.20876 4.77127 0
M  V30 20292 N 1891.97 -1.4484 0.62123 0
M  V30 20293 C 1892.9 -2.33374 -0.0766286 0
M  V30 20294 C 1893.88 -1.47631 -0.844932 0
M  V30 20295 O 1895.06 -1.76373 -0.81278 0
M  V30 20296 C 1892.19 -3.30552 -1.0655 0
M  V30 20297 C 1891.15 -4.26037 -0.409496 0
M  V30 20298 C 1890.47 -5.13007 -1.50757 0
M  V30 20299 C 1891.77 -5.17881 0.677994 0
M  V30 20300 H 1893.47 -2.91975 0.662658 0
M  V30 20301 H 1891.01 -1.40397 0.320117 0
M  V30 20302 H 1892.97 -3.91367 -1.56237 0
M  V30 20303 H 1891.69 -2.70139 -1.83555 0
M  V30 20304 H 1890.35 -3.66539 0.0666321 0
M  V30 20305 H 1890 -4.48954 -2.26825 0
M  V30 20306 H 1889.7 -5.777 -1.07407 0
M  V30 20307 H 1891.22 -5.76692 -2.00645 0
M  V30 20308 H 1892.64 -5.72689 0.264637 0
M  V30 20309 H 1891.03 -5.91124 1.03405 0
M  V30 20310 H 1892.1 -4.59488 1.54914 0
M  V30 20311 N 1893.45 -0.361184 -1.53405 0
M  V30 20312 C 1894.86 -0.00994785 -1.59597 0
M  V30 20313 C 1895.06 1.47156 -1.37649 0
M  V30 20314 O 1894.12 2.23259 -1.17947 0
M  V30 20315 C 1895.43 -0.461942 -2.97131 0
M  V30 20316 C 1896.98 -0.415787 -3.10226 0
M  V30 20317 C 1897.45 -0.843524 -4.50165 0
M  V30 20318 N 1898.95 -0.798408 -4.56267 0
M  V30 20319 C 1899.68 -1.10112 -5.62728 0
M  V30 20320 N 1899.18 -1.47288 -6.76962 0
M  V30 20321 N 1900.97 -1.0242 -5.5269 0
M  V30 20322 H 1893.12 -1.32601 -1.65924 0
M  V30 20323 H 1895.38 -0.541705 -0.777985 0
M  V30 20324 H 1895.09 -1.49559 -3.18316 0
M  V30 20325 H 1894.96 0.15373 -3.76887 0
M  V30 20326 H 1897.35 0.608719 -2.88754 0
M  V30 20327 H 1897.43 -1.0669 -2.32489 0
M  V30 20328 H 1897.08 -1.86612 -4.72375 0
M  V30 20329 H 1897.01 -0.16971 -5.26326 0
M  V30 20330 H 1899.5 -0.524463 -3.74243 0
M  V30 20331 H 1899.81 -1.68824 -7.54134 0
M  V30 20332 H 1898.15 -1.51149 -6.78365 0
M  V30 20333 H 1901.35 -0.732979 -4.62326 0
M  V30 20334 H 1901.52 -1.26344 -6.35564 0
M  V30 20335 N 1894.92 1.57341 -0.0902386 0
M  V30 20336 C 1896.15 1.98934 0.586524 0
M  V30 20337 C 1896.57 0.968841 1.6123 0
M  V30 20338 O 1895.93 -0.0632868 1.8119 0
M  V30 20339 C 1895.98 3.39509 1.21516 0
M  V30 20340 O 1895.08 3.40203 2.331 0
M  V30 20341 H 1894.43 0.647009 0.14925 0
M  V30 20342 H 1896.96 2.03891 -0.170213 0
M  V30 20343 H 1896.97 3.77097 1.55762 0
M  V30 20344 H 1895.64 4.13308 0.463639 0
M  V30 20345 H 1894.22 3.14405 2.0051 0
M  V30 20346 N 1896.4 -0.183431 1.56529 0
M  V30 20347 C 1897.65 -0.901995 1.81302 0
M  V30 20348 C 1897.98 -1.82765 0.665368 0
M  V30 20349 O 1897.23 -1.92578 -0.348162 0
M  V30 20350 C 1897.53 -1.74055 3.12153 0
M  V30 20351 C 1897.2 -0.964866 4.40456 0
M  V30 20352 C 1895.86 -0.750741 4.75308 0
M  V30 20353 C 1898.21 -0.419915 5.19506 0
M  V30 20354 C 1895.54 0.0196291 5.86697 0
M  V30 20355 C 1897.89 0.337305 6.317 0
M  V30 20356 C 1896.56 0.56234 6.65127 0
M  V30 20357 H 1895.83 -0.330064 0.66343 0
M  V30 20358 H 1898.47 -0.167643 1.90765 0
M  V30 20359 H 1896.78 -2.54393 2.97979 0
M  V30 20360 H 1898.47 -2.29935 3.28528 0
M  V30 20361 H 1895.06 -1.14178 4.13112 0
M  V30 20362 H 1899.25 -0.572714 4.92984 0
M  V30 20363 H 1894.5 0.203838 6.1106 0
M  V30 20364 H 1898.68 0.766889 6.92165 0
M  V30 20365 H 1896.31 1.16117 7.51279 0
M  V30 20366 N 1897.88 -1.50992 -0.451564 0
M  V30 20367 C 1899.29 -1.55592 -1.03189 0
M  V30 20368 C 1899.64 -0.370923 -1.92662 0
M  V30 20369 O 1898.77 0.513972 -2.10208 0
M  V30 20370 C 1899.36 -2.81975 -1.87818 0
M  V30 20371 C 1897.92 -2.89192 -2.40925 0
M  V30 20372 C 1897.07 -2.50103 -1.19766 0
M  V30 20373 H 1900.02 -1.56974 -0.233388 0
M  V30 20374 H 1900.04 -2.64934 -2.73112 0
M  V30 20375 H 1899.55 -3.68203 -1.22672 0
M  V30 20376 H 1897.65 -2.07362 -3.09567 0
M  V30 20377 H 1897.77 -3.92529 -2.74696 0
M  V30 20378 H 1896.13 -2.02978 -1.53857 0
M  V30 20379 H 1896.91 -3.3866 -0.562517 0
M  V30 20380 N 1899.36 0.706069 -1.40899 0
M  V30 20381 C 1900.31 1.84143 -1.42106 0
M  V30 20382 C 1901.3 1.66716 -0.300367 0
M  V30 20383 O 1902.51 1.73705 -0.471879 0
M  V30 20384 H 1898.88 0.606636 -0.444406 0
M  V30 20385 H 1900.85 1.80241 -2.37815 0
M  V30 20386 C 1899.6 3.22084 -1.30986 0
M  V30 20387 H 1898.92 3.36105 -2.16503 0
M  V30 20388 H 1900.36 4.01634 -1.35891 0
M  V30 20389 C 1898.82 3.36893 -0.0210718 0
M  V30 20390 O 1899.35 3.90589 0.938242 0
M  V30 20391 N 1897.56 2.90554 0.0515652 0
M  V30 20392 H 1897.11 2.47045 -0.729833 0
M  V30 20393 H 1897.06 3.00842 0.91332 0
M  V30 20394 N 1900.84 1.26553 0.939264 0
M  V30 20395 C 1901.75 1.10059 2.07181 0
M  V30 20396 C 1902.76 0.033599 1.73968 0
M  V30 20397 O 1903.94 0.237723 1.99992 0
M  V30 20398 C 1901 0.737342 3.38769 0
M  V30 20399 C 1900.06 1.88395 3.85753 0
M  V30 20400 C 1899.3 1.53794 5.11061 0
M  V30 20401 O 1899.52 0.440543 5.68696 0
M  V30 20402 O 1898.45 2.37332 5.53134 0
M  V30 20403 H 1902.28 2.05075 2.24004 0
M  V30 20404 H 1899.87 1.05633 1.05651 0
M  V30 20405 H 1901.75 0.547578 4.17827 0
M  V30 20406 H 1900.42 -0.183404 3.2318 0
M  V30 20407 H 1899.33 2.1287 3.07632 0
M  V30 20408 H 1900.66 2.78449 4.05865 0
M  V30 20409 N 1902.31 -1.14411 1.08387 0
M  V30 20410 C 1903.25 -2.18516 0.657718 0
M  V30 20411 C 1904.23 -1.59207 -0.330415 0
M  V30 20412 O 1905.41 -1.87038 -0.234325 0
M  V30 20413 C 1902.54 -3.38684 -0.0326254 0
M  V30 20414 C 1901.58 -4.16556 0.915623 0
M  V30 20415 S 1902.42 -4.77588 2.42218 0
M  V30 20416 C 1903.57 -6.01113 1.74395 0
M  V30 20417 H 1903.8 -2.54327 1.53965 0
M  V30 20418 H 1901.34 -1.2554 0.898836 0
M  V30 20419 H 1903.3 -4.08298 -0.424651 0
M  V30 20420 H 1901.96 -3.01196 -0.891048 0
M  V30 20421 H 1901.15 -5.02569 0.379492 0
M  V30 20422 H 1900.75 -3.52544 1.24854 0
M  V30 20423 H 1903.04 -6.69128 1.06177 0
M  V30 20424 H 1903.99 -6.59315 2.58281 0
M  V30 20425 H 1904.39 -5.51217 1.2174 0
M  V30 20426 N 1903.79 -0.869509 -1.31443 0
M  V30 20427 C 1905.04 -0.479265 -1.96335 0
M  V30 20428 C 1905.36 0.971583 -1.69072 0
M  V30 20429 O 1904.63 1.68104 -1.00588 0
M  V30 20430 H 1903.21 -0.174241 -0.726394 0
M  V30 20431 H 1905.87 -1.1092 -1.60259 0
M  V30 20432 H 1904.97 -0.636628 -3.05538 0
M  V30 20433 N 1905.27 1.44508 -0.628902 0
M  V30 20434 C 1906.22 2.3067 0.0773497 0
M  V30 20435 C 1907.19 1.43353 0.839003 0
M  V30 20436 O 1908.37 1.72258 0.820487 0
M  V30 20437 C 1905.51 3.28596 1.05447 0
M  V30 20438 C 1904.63 4.31016 0.291465 0
M  V30 20439 C 1903.76 5.16035 1.2602 0
M  V30 20440 C 1902.8 6.10166 0.486229 0
M  V30 20441 N 1901.94 6.87892 1.40532 0
M  V30 20442 H 1906.78 2.90523 -0.663346 0
M  V30 20443 H 1904.31 1.43143 -0.338906 0
M  V30 20444 H 1906.27 3.83856 1.63433 0
M  V30 20445 H 1904.9 2.70448 1.76232 0
M  V30 20446 H 1903.95 3.78246 -0.404285 0
M  V30 20447 H 1905.27 4.97827 -0.311447 0
M  V30 20448 H 1904.42 5.75802 1.91147 0
M  V30 20449 H 1903.16 4.49293 1.89704 0
M  V30 20450 H 1902.16 5.4951 -0.178543 0
M  V30 20451 H 1903.39 6.78943 -0.145859 0
M  V30 20452 H 1901.33 6.2382 2.0294 0
M  V30 20453 H 1901.25 7.51134 0.856369 0
M  V30 20454 H 1902.52 7.52183 2.04549 0
M  V30 20455 N 1906.75 0.369315 1.53212 0
M  V30 20456 C 1907.68 -0.467242 2.28777 0
M  V30 20457 C 1908.66 -1.08073 1.31355 0
M  V30 20458 O 1909.85 -1.09728 1.60229 0
M  V30 20459 C 1906.98 -1.60519 3.07979 0
M  V30 20460 C 1905.93 -1.11876 4.1312 0
M  V30 20461 C 1905.26 -2.34723 4.80426 0
M  V30 20462 C 1906.56 -0.200846 5.21914 0
M  V30 20463 H 1908.25 0.163201 2.98955 0
M  V30 20464 H 1905.8 0.0799312 1.43778 0
M  V30 20465 H 1907.75 -2.19708 3.59592 0
M  V30 20466 H 1906.47 -2.26292 2.35499 0
M  V30 20467 H 1905.13 -0.549521 3.62458 0
M  V30 20468 H 1904.78 -2.98961 4.04514 0
M  V30 20469 H 1904.48 -2.02846 5.51477 0
M  V30 20470 H 1906 -2.94592 5.34835 0
M  V30 20471 H 1907.42 -0.700331 5.69006 0
M  V30 20472 H 1905.81 0.0272222 6.00094 0
M  V30 20473 H 1906.88 0.755948 4.78971 0
M  V30 20474 N 1908.23 -1.57291 0.0985816 0
M  V30 20475 C 1909.45 -1.99242 -0.575966 0
M  V30 20476 C 1909.88 -0.977378 -1.60714 0
M  V30 20477 O 1909.24 0.053677 -1.81221 0
M  V30 20478 C 1909.28 -3.40148 -1.19714 0
M  V30 20479 O 1908.39 -3.41434 -2.31293 0
M  V30 20480 H 1907.73 -0.647791 -0.145816 0
M  V30 20481 H 1910.26 -2.03798 0.181023 0
M  V30 20482 H 1910.27 -3.77918 -1.5376 0
M  V30 20483 H 1908.94 -4.13548 -0.441714 0
M  V30 20484 H 1907.52 -3.15464 -1.98839 0
M  V30 20485 N 1909.71 0.175127 -1.56624 0
M  V30 20486 C 1910.65 1.21687 -1.96114 0
M  V30 20487 C 1911.62 1.44191 -0.824518 0
M  V30 20488 O 1912.81 1.56994 -1.08433 0
M  V30 20489 C 1909.95 2.55207 -2.323 0
M  V30 20490 C 1909.06 2.40115 -3.59122 0
M  V30 20491 C 1908.2 3.66475 -3.84538 0
M  V30 20492 C 1907.23 3.463 -5.04721 0
M  V30 20493 N 1906.37 4.6472 -5.26288 0
M  V30 20494 H 1911.21 0.873106 -2.84923 0
M  V30 20495 H 1908.75 0.419721 -1.40985 0
M  V30 20496 H 1910.71 3.33022 -2.51302 0
M  V30 20497 H 1909.34 2.87587 -1.46607 0
M  V30 20498 H 1908.39 1.53496 -3.48056 0
M  V30 20499 H 1909.7 2.21151 -4.47095 0
M  V30 20500 H 1908.85 4.52726 -4.03886 0
M  V30 20501 H 1907.59 3.88414 -2.94934 0
M  V30 20502 H 1906.6 2.58435 -4.85274 0
M  V30 20503 H 1907.82 3.25787 -5.95852 0
M  V30 20504 H 1905.77 4.86885 -4.39635 0
M  V30 20505 H 1905.69 4.48656 -6.08477 0
M  V30 20506 H 1906.95 5.52265 -5.50112 0
M  V30 20507 N 1911.18 1.5123 0.44355 0
M  V30 20508 C 1912.43 1.62825 1.19041 0
M  V30 20509 C 1912.75 0.347298 1.92492 0
M  V30 20510 O 1913.95 0.342537 2.69331 0
M  V30 20511 C 1912.41 2.87532 2.16456 0
M  V30 20512 C 1912.02 4.22608 1.48682 0
M  V30 20513 C 1913.76 3.08483 2.91614 0
M  V30 20514 C 1911.67 5.38472 2.44544 0
M  V30 20515 H 1910.6 0.606444 0.448041 0
M  V30 20516 H 1913.25 1.77691 0.458065 0
M  V30 20517 H 1911.63 2.66287 2.931 0
M  V30 20518 H 1912.8 4.54212 0.776389 0
M  V30 20519 H 1911.12 4.07485 0.857007 0
M  V30 20520 H 1913.72 3.92219 3.63413 0
M  V30 20521 H 1914.06 2.2131 3.52601 0
M  V30 20522 H 1914.59 3.30039 2.22078 0
M  V30 20523 H 1911.33 6.27886 1.88255 0
M  V30 20524 H 1910.85 5.11252 3.13658 0
M  V30 20525 H 1912.53 5.70169 3.05804 0
M  V30 20526 N 1912.66 -0.698586 1.41271 0
M  V30 20527 C 1913.91 -1.45944 1.41675 0
M  V30 20528 C 1914.26 -1.92385 0.0241608 0
M  V30 20529 O 1913.56 -1.66422 -0.949431 0
M  V30 20530 C 1913.75 -2.688 2.35545 0
M  V30 20531 C 1913.58 -2.34377 3.83794 0
M  V30 20532 C 1912.35 -2.24888 4.52497 0
M  V30 20533 C 1914.55 -1.97545 4.74848 0
M  V30 20534 N 1912.53 -1.83318 5.8589 0
M  V30 20535 C 1913.9 -1.66711 5.97166 0
M  V30 20536 C 1915.95 -1.84329 4.62523 0
M  V30 20537 C 1914.66 -1.23988 7.08533 0
M  V30 20538 C 1916.68 -1.43011 5.73848 0
M  V30 20539 C 1916.05 -1.13085 6.95263 0
M  V30 20540 H 1912.14 -0.531459 0.573651 0
M  V30 20541 H 1914.73 -0.808529 1.77118 0
M  V30 20542 H 1912.9 -3.31615 2.02202 0
M  V30 20543 H 1914.63 -3.35252 2.2669 0
M  V30 20544 H 1911.39 -2.43185 4.06396 0
M  V30 20545 H 1911.81 -1.65024 6.56579 0
M  V30 20546 H 1916.45 -2.0612 3.69153 0
M  V30 20547 H 1914.17 -1.00941 8.01771 0
M  V30 20548 H 1917.76 -1.33339 5.66314 0
M  V30 20549 H 1916.64 -0.815958 7.79943 0
M  V30 20550 N 1914.14 -1.27049 -0.93254 0
M  V30 20551 C 1915.42 -1.03836 -1.65763 0
M  V30 20552 C 1915.8 0.428461 -2.06706 0
M  V30 20553 O 1915.14 1.41067 -1.79756 0
M  V30 20554 C 1915.35 -1.99534 -2.86334 0
M  V30 20555 C 1916.7 -2.28632 -3.57788 0
M  V30 20556 O 1917.73 -1.97469 -2.96453 0
M  V30 20557 O 1916.59 -2.81732 -4.68284 0
M  V30 20558 H 1913.68 -0.395479 -0.72631 0
M  V30 20559 H 1916.23 -1.38294 -0.983504 0
M  V30 20560 H 1915 -2.98479 -2.53033 0
M  V30 20561 H 1914.62 -1.65608 -3.61469 0
M  V30 20562 N 1915.62 1.13835 -1.08993 0
M  V30 20563 C 1916.55 2.21226 -0.74707 0
M  V30 20564 C 1917.53 1.67891 0.273232 0
M  V30 20565 O 1918.71 1.93678 0.142278 0
M  V30 20566 C 1915.84 3.46922 -0.162028 0
M  V30 20567 C 1914.8 4.1332 -1.11135 0
M  V30 20568 C 1914.12 5.33289 -0.388228 0
M  V30 20569 C 1915.42 4.61169 -2.45195 0
M  V30 20570 H 1917.12 2.50162 -1.64497 0
M  V30 20571 H 1914.66 1.20239 -0.792368 0
M  V30 20572 H 1916.62 4.21304 0.0898753 0
M  V30 20573 H 1915.34 3.17368 0.771036 0
M  V30 20574 H 1914 3.40899 -1.34845 0
M  V30 20575 H 1913.65 4.99997 0.548832 0
M  V30 20576 H 1913.35 5.78659 -1.02115 0
M  V30 20577 H 1914.87 6.10429 -0.144519 0
M  V30 20578 H 1916.29 5.26996 -2.25717 0
M  V30 20579 H 1914.68 5.17263 -3.04235 0
M  V30 20580 H 1915.75 3.75923 -3.06284 0
M  V30 20581 N 1917.1 0.876467 1.3098 0
M  V30 20582 C 1918.51 0.542323 1.7865 0
M  V30 20583 C 1918.86 -0.941103 1.72156 0
M  V30 20584 O 1917.98 -1.73506 1.29324 0
M  V30 20585 C 1918.58 0.977656 3.24388 0
M  V30 20586 C 1917.14 0.695064 3.69927 0
M  V30 20587 C 1916.28 1.16537 2.51624 0
M  V30 20588 H 1919.23 1.06154 1.1797 0
M  V30 20589 H 1919.26 0.30304 3.79291 0
M  V30 20590 H 1918.77 2.05735 3.29082 0
M  V30 20591 H 1916.87 -0.372992 3.70728 0
M  V30 20592 H 1916.98 1.27665 4.61778 0
M  V30 20593 H 1915.35 0.584941 2.47892 0
M  V30 20594 H 1916.13 2.25262 2.5906 0
M  V30 20595 N 1918.57 -1.44173 0.636557 0
M  V30 20596 C 1919.5 -2.33442 -0.0518719 0
M  V30 20597 C 1920.48 -1.48519 -0.829226 0
M  V30 20598 O 1921.67 -1.77225 -0.794028 0
M  V30 20599 C 1918.8 -3.31663 -1.03038 0
M  V30 20600 C 1917.75 -4.26447 -0.364286 0
M  V30 20601 C 1917.08 -5.14577 -1.45308 0
M  V30 20602 C 1918.38 -5.17133 0.732884 0
M  V30 20603 H 1920.07 -2.91255 0.693589 0
M  V30 20604 H 1917.62 -1.40049 0.33499 0
M  V30 20605 H 1919.57 -3.93002 -1.52077 0
M  V30 20606 H 1918.3 -2.72071 -1.80679 0
M  V30 20607 H 1916.96 -3.66448 0.105505 0
M  V30 20608 H 1916.6 -4.51334 -2.22051 0
M  V30 20609 H 1916.3 -5.78807 -1.01274 0
M  V30 20610 H 1917.83 -5.78788 -1.94517 0
M  V30 20611 H 1919.24 -5.72376 0.325363 0
M  V30 20612 H 1917.64 -5.89994 1.09669 0
M  V30 20613 H 1918.71 -4.5782 1.59779 0
M  V30 20614 N 1920.05 -0.377435 -1.53014 0
M  V30 20615 C 1921.33 0.265508 -1.9379 0
M  V30 20616 C 1921.71 1.65381 -1.31195 0
M  V30 20617 O 1921.06 2.23497 -0.475517 0
M  V30 20618 C 1921.27 0.303805 -3.47675 0
M  V30 20619 C 1922.61 0.538469 -4.21172 0
M  V30 20620 O 1923.64 0.384517 -3.54118 0
M  V30 20621 O 1922.5 0.839154 -5.40019 0
M  V30 20622 H 1919.59 0.161997 -0.810978 0
M  V30 20623 H 1922.14 -0.431081 -1.64133 0
M  V30 20624 H 1920.91 -0.669104 -3.85537 0
M  V30 20625 H 1920.53 1.0458 -3.836 0
M  V30 20626 N 1921.53 1.57237 -0.106922 0
M  V30 20627 C 1922.44 2.18202 0.861685 0
M  V30 20628 C 1923.46 1.15476 1.30159 0
M  V30 20629 O 1924.63 1.47896 1.36707 0
M  V30 20630 C 1921.7 2.7598 2.09847 0
M  V30 20631 C 1920.76 3.93702 1.71164 0
M  V30 20632 C 1919.99 4.48716 2.88946 0
M  V30 20633 O 1920.21 4.02645 4.04021 0
M  V30 20634 O 1919.15 5.39573 2.66729 0
M  V30 20635 H 1922.97 3.01402 0.372924 0
M  V30 20636 H 1920.56 1.48933 0.118058 0
M  V30 20637 H 1922.44 3.12861 2.82305 0
M  V30 20638 H 1921.12 1.9582 2.57753 0
M  V30 20639 H 1920.02 3.61613 0.958499 0
M  V30 20640 H 1921.36 4.75262 1.28011 0
M  V30 20641 N 1923.01 -0.166818 1.56715 0
M  V30 20642 C 1923.94 -1.2086 1.99787 0
M  V30 20643 C 1924.92 -1.45918 0.874178 0
M  V30 20644 O 1926.1 -1.57176 1.14058 0
M  V30 20645 C 1923.23 -2.54648 2.3616 0
M  V30 20646 C 1922.19 -2.44151 3.51532 0
M  V30 20647 C 1921.51 -3.82469 3.7366 0
M  V30 20648 C 1922.81 -1.9424 4.84838 0
M  V30 20649 H 1924.51 -0.850538 2.87065 0
M  V30 20650 H 1922.05 -0.407696 1.38108 0
M  V30 20651 H 1924.01 -3.27736 2.64891 0
M  V30 20652 H 1922.73 -2.92251 1.45797 0
M  V30 20653 H 1921.39 -1.73516 3.22936 0
M  V30 20654 H 1921.04 -4.17473 2.8058 0
M  V30 20655 H 1920.74 -3.76312 4.5129 0
M  V30 20656 H 1922.26 -4.57136 4.04796 0
M  V30 20657 H 1923.68 -2.57105 5.12416 0
M  V30 20658 H 1922.07 -1.99021 5.66137 0
M  V30 20659 H 1923.14 -0.89695 4.76532 0
M  V30 20660 N 1924.49 -1.51463 -0.435524 0
M  V30 20661 C 1925.44 -1.69292 -1.52723 0
M  V30 20662 C 1926.42 -0.54689 -1.51321 0
M  V30 20663 O 1927.61 -0.802879 -1.57743 0
M  V30 20664 C 1924.74 -1.82299 -2.90898 0
M  V30 20665 C 1923.83 -3.02692 -2.9705 0
M  V30 20666 N 1924.22 -4.25836 -2.72942 0
M  V30 20667 C 1922.52 -3.01983 -3.2821 0
M  V30 20668 C 1923.22 -5.07109 -2.84983 0
M  V30 20669 N 1922.19 -4.41794 -3.16731 0
M  V30 20670 H 1926 -2.62166 -1.32839 0
M  V30 20671 H 1923.51 -1.49135 -0.642858 0
M  V30 20672 H 1925.51 -1.93183 -3.6944 0
M  V30 20673 H 1924.17 -0.906076 -3.11802 0
M  V30 20674 H 1925.18 -4.5475 -2.47836 0
M  V30 20675 H 1921.85 -2.1993 -3.54876 0
M  V30 20676 H 1923.24 -6.1514 -2.70283 0
M  V30 20677 N 1925.96 0.691085 -1.4164 0
M  V30 20678 C 1926.89 1.8173 -1.46616 0
M  V30 20679 C 1927.88 1.66979 -0.324357 0
M  V30 20680 O 1929.06 1.86644 -0.536424 0
M  V30 20681 C 1926.19 3.19903 -1.35201 0
M  V30 20682 C 1925.14 3.49366 -2.47239 0
M  V30 20683 C 1924.47 4.86942 -2.20887 0
M  V30 20684 C 1925.77 3.47891 -3.89575 0
M  V30 20685 H 1927.46 1.77823 -2.40872 0
M  V30 20686 H 1925.01 0.8541 -1.15936 0
M  V30 20687 H 1926.96 3.98407 -1.37293 0
M  V30 20688 H 1925.69 3.24448 -0.374312 0
M  V30 20689 H 1924.35 2.73215 -2.44436 0
M  V30 20690 H 1923.99 4.88118 -1.2145 0
M  V30 20691 H 1923.69 5.0762 -2.95966 0
M  V30 20692 H 1925.22 5.67751 -2.24703 0
M  V30 20693 H 1926.63 4.16392 -3.94069 0
M  V30 20694 H 1925.03 3.80101 -4.64374 0
M  V30 20695 H 1926.1 2.46778 -4.17407 0
M  V30 20696 N 1927.44 1.27542 0.925789 0
M  V30 20697 C 1928.39 1.10271 2.048 0
M  V30 20698 C 1929.38 0.0252694 1.69381 0
M  V30 20699 O 1930.59 0.183134 1.79066 0
M  V30 20700 H 1926.97 0.339845 0.670828 0
M  V30 20701 H 1928.94 2.0534 2.16513 0
M  V30 20702 C 1927.69 0.768681 3.39097 0
M  V30 20703 H 1927.01 1.58967 3.66837 0
M  V30 20704 H 1928.45 0.687719 4.18386 0
M  V30 20705 C 1926.91 -0.527037 3.32752 0
M  V30 20706 O 1927.44 -1.5609 3.70134 0
M  V30 20707 N 1925.64 -0.523354 2.85848 0
M  V30 20708 H 1925.19 0.318395 2.55625 0
M  V30 20709 H 1925.15 -1.39037 2.81986 0
M  V30 20710 N 1928.92 -1.13255 1.09595 0
M  V30 20711 C 1930.17 -1.84571 0.833056 0
M  V30 20712 C 1930.5 -1.83622 -0.641341 0
M  V30 20713 O 1929.75 -1.27084 -1.48823 0
M  V30 20714 C 1930.05 -3.32304 1.31562 0
M  V30 20715 C 1929.72 -3.53433 2.79993 0
M  V30 20716 C 1928.38 -3.58907 3.2053 0
M  V30 20717 C 1930.73 -3.61259 3.75687 0
M  V30 20718 C 1928.06 -3.69744 4.55529 0
M  V30 20719 C 1930.41 -3.73624 5.10478 0
M  V30 20720 C 1929.07 -3.77352 5.50601 0
M  V30 20721 H 1928.34 -0.675393 0.304837 0
M  V30 20722 H 1930.99 -1.33697 1.37103 0
M  V30 20723 H 1929.3 -3.85542 0.697482 0
M  V30 20724 H 1930.99 -3.85935 1.0888 0
M  V30 20725 H 1927.58 -3.49828 2.47625 0
M  V30 20726 H 1931.77 -3.56308 3.45483 0
M  V30 20727 H 1927.02 -3.70897 4.8605 0
M  V30 20728 H 1931.2 -3.78623 5.84481 0
M  V30 20729 H 1928.82 -3.85501 6.55204 0
M  V30 20730 N 1930.4 -0.883401 -1.30514 0
M  V30 20731 C 1931.68 -0.421186 -1.91011 0
M  V30 20732 C 1932.06 1.09793 -1.80301 0
M  V30 20733 O 1931.4 1.93254 -1.21923 0
M  V30 20734 C 1931.61 -0.917533 -3.36723 0
M  V30 20735 C 1932.96 -0.951573 -4.138 0
M  V30 20736 O 1933.99 -0.86409 -3.4556 0
M  V30 20737 O 1932.84 -1.08053 -5.35711 0
M  V30 20738 H 1929.94 -0.128514 -0.816954 0
M  V30 20739 H 1932.48 -0.972198 -1.39091 0
M  V30 20740 H 1931.26 -1.96135 -3.38595 0
M  V30 20741 H 1930.88 -0.345595 -3.96095 0
M  V30 20742 N 1931.88 1.43833 -0.644194 0
M  V30 20743 C 1933.12 2.01914 -0.153927 0
M  V30 20744 C 1933.45 1.50758 1.22891 0
M  V30 20745 O 1932.71 0.687354 1.83232 0
M  V30 20746 C 1933.01 3.57249 -0.103941 0
M  V30 20747 C 1932.67 4.27713 -1.42731 0
M  V30 20748 C 1931.33 4.46679 -1.78972 0
M  V30 20749 C 1933.69 4.67695 -2.30024 0
M  V30 20750 C 1931.01 5.0289 -3.0219 0
M  V30 20751 C 1933.37 5.2527 -3.52525 0
M  V30 20752 C 1932.03 5.42453 -3.88974 0
M  V30 20753 H 1931.3 0.738856 -0.0563257 0
M  V30 20754 H 1933.95 1.72428 -0.833108 0
M  V30 20755 H 1932.25 3.86224 0.65866 0
M  V30 20756 H 1933.95 3.99935 0.292124 0
M  V30 20757 H 1930.54 4.1329 -1.1353 0
M  V30 20758 H 1934.72 4.52743 -2.03317 0
M  V30 20759 H 1929.98 5.14379 -3.3049 0
M  V30 20760 H 1934.15 5.55198 -4.2039 0
M  V30 20761 H 1931.78 5.85775 -4.84532 0
M  V30 20762 N 1933.35 0.385544 1.52811 0
M  V30 20763 C 1934.3 -0.451417 2.26342 0
M  V30 20764 C 1935.27 -1.06094 1.27801 0
M  V30 20765 O 1936.46 -1.08968 1.56623 0
M  V30 20766 C 1933.6 -1.57477 3.07075 0
M  V30 20767 C 1932.71 -0.988468 4.20539 0
M  V30 20768 C 1931.84 -2.08256 4.88675 0
M  V30 20769 C 1930.88 -1.47196 5.94138 0
M  V30 20770 N 1930.02 -2.5052 6.55884 0
M  V30 20771 H 1934.86 0.182092 2.97443 0
M  V30 20772 H 1932.4 0.101628 1.46749 0
M  V30 20773 H 1934.36 -2.23677 3.52171 0
M  V30 20774 H 1932.99 -2.17864 2.38191 0
M  V30 20775 H 1932.04 -0.216168 3.79785 0
M  V30 20776 H 1933.35 -0.502223 4.96265 0
M  V30 20777 H 1932.5 -2.82235 5.37055 0
M  V30 20778 H 1931.24 -2.60239 4.12464 0
M  V30 20779 H 1930.25 -0.717401 5.45099 0
M  V30 20780 H 1931.47 -0.960124 6.72279 0
M  V30 20781 H 1929.42 -3.0168 5.82516 0
M  V30 20782 H 1929.34 -2.0664 7.27211 0
M  V30 20783 H 1930.6 -3.24141 7.0891 0
M  V30 20784 N 1934.83 -1.57178 0.115259 0
M  V30 20785 C 1935.78 -2.11668 -0.847394 0
M  V30 20786 C 1936.77 -1.03654 -1.23064 0
M  V30 20787 O 1937.96 -1.29894 -1.20235 0
M  V30 20788 C 1935.09 -2.71667 -2.09886 0
M  V30 20789 C 1934.17 -3.86755 -1.74015 0
M  V30 20790 N 1934.56 -4.9396 -1.08801 0
M  V30 20791 C 1932.86 -3.96869 -2.03497 0
M  V30 20792 C 1933.56 -5.74381 -0.919867 0
M  V30 20793 N 1932.54 -5.24079 -1.44367 0
M  V30 20794 H 1936.34 -2.91932 -0.339579 0
M  V30 20795 H 1933.86 -1.62165 -0.0873304 0
M  V30 20796 H 1935.85 -3.09045 -2.79815 0
M  V30 20797 H 1934.51 -1.92865 -2.61215 0
M  V30 20798 H 1935.52 -5.12405 -0.75243 0
M  V30 20799 H 1932.2 -3.29104 -2.56899 0
M  V30 20800 H 1933.59 -6.70658 -0.408269 0
M  V30 20801 N 1936.31 0.158505 -1.56801 0
M  V30 20802 C 1937.56 0.871408 -1.81905 0
M  V30 20803 C 1937.87 1.8285 -0.694632 0
M  V30 20804 O 1939.08 2.58471 -0.830953 0
M  V30 20805 C 1937.54 1.60017 -3.2237 0
M  V30 20806 C 1937.14 0.686065 -4.42716 0
M  V30 20807 C 1938.89 2.30054 -3.56757 0
M  V30 20808 C 1936.79 1.41579 -5.74203 0
M  V30 20809 H 1935.72 0.329148 -0.678364 0
M  V30 20810 H 1938.38 0.124216 -1.83079 0
M  V30 20811 H 1936.76 2.39258 -3.1555 0
M  V30 20812 H 1937.93 -0.0702946 -4.60746 0
M  V30 20813 H 1936.25 0.0947 -4.16292 0
M  V30 20814 H 1938.84 2.85268 -4.52246 0
M  V30 20815 H 1939.19 3.06002 -2.82256 0
M  V30 20816 H 1939.72 1.57744 -3.65187 0
M  V30 20817 H 1936.46 0.698382 -6.51769 0
M  V30 20818 H 1935.98 2.14515 -5.60128 0
M  V30 20819 H 1937.66 1.95983 -6.16603 0
M  V30 20820 N 1937.79 1.51692 0.427485 0
M  V30 20821 C 1939.04 1.64521 1.17376 0
M  V30 20822 C 1939.36 0.368482 1.91487 0
M  V30 20823 O 1938.63 -0.616035 1.85962 0
M  V30 20824 H 1937.21 0.606362 0.436273 0
M  V30 20825 H 1939.87 1.88662 0.489152 0
M  V30 20826 H 1938.97 2.47759 1.89794 0
M  V30 20827 N 1939.27 -0.683564 1.42004 0
M  V30 20828 C 1940.51 -1.45574 1.43483 0
M  V30 20829 C 1940.87 -1.91944 0.0463913 0
M  V30 20830 O 1942.07 -2.68724 -0.0640638 0
M  V30 20831 C 1940.34 -2.62681 2.4235 0
M  V30 20832 S 1941.9 -3.51654 2.62459 0
M  V30 20833 H 1938.72 -0.497311 0.508136 0
M  V30 20834 H 1941.32 -0.796514 1.78538 0
M  V30 20835 H 1940.03 -2.26839 3.42012 0
M  V30 20836 H 1939.56 -3.33485 2.0869 0
M  V30 20837 H 1941.57 -4.58341 1.90101 0
M  V30 20838 N 1940.75 -1.28031 -0.919012 0
M  V30 20839 C 1941.69 -1.11505 -2.02077 0
M  V30 20840 C 1942.66 -0.0136546 -1.66094 0
M  V30 20841 O 1943.85 -0.177608 -1.89972 0
M  V30 20842 C 1940.99 -0.777409 -3.3623 0
M  V30 20843 C 1940.1 -1.95732 -3.85114 0
M  V30 20844 C 1939.24 -1.56077 -5.07753 0
M  V30 20845 C 1938.27 -2.70764 -5.48956 0
M  V30 20846 N 1937.41 -2.31638 -6.62788 0
M  V30 20847 H 1942.25 -2.05778 -2.15545 0
M  V30 20848 H 1939.79 -1.02425 -1.05582 0
M  V30 20849 H 1941.75 -0.562424 -4.13392 0
M  V30 20850 H 1940.38 0.128373 -3.22545 0
M  V30 20851 H 1939.43 -2.28459 -3.04156 0
M  V30 20852 H 1940.74 -2.81735 -4.11615 0
M  V30 20853 H 1939.89 -1.30754 -5.92443 0
M  V30 20854 H 1938.63 -0.671958 -4.83049 0
M  V30 20855 H 1937.64 -2.96792 -4.62812 0
M  V30 20856 H 1938.86 -3.6028 -5.75652 0
M  V30 20857 H 1936.81 -1.4522 -6.39724 0
M  V30 20858 H 1936.73 -3.11178 -6.88988 0
M  V30 20859 H 1937.99 -2.09585 -7.50796 0
M  V30 20860 N 1942.22 1.12672 -1.10194 0
M  V30 20861 C 1943.19 2.16513 -0.751974 0
M  V30 20862 C 1944.19 1.59255 0.222352 0
M  V30 20863 O 1945.38 1.742 -0.000482744 0
M  V30 20864 C 1942.51 3.40711 -0.113421 0
M  V30 20865 H 1943.7 2.48986 -1.67171 0
M  V30 20866 H 1941.25 1.27637 -0.90214 0
M  V30 20867 H 1941.99 3.13836 0.817162 0
M  V30 20868 H 1941.77 3.83545 -0.814599 0
M  V30 20869 H 1943.26 4.1744 0.115756 0
M  V30 20870 N 1943.7 0.89031 1.30043 0
M  V30 20871 C 1944.65 0.35935 2.27985 0
M  V30 20872 C 1945.62 -0.5534 1.5661 0
M  V30 20873 O 1946.8 -0.480669 1.84646 0
M  V30 20874 C 1943.94 -0.41541 3.42591 0
M  V30 20875 C 1943.06 0.527163 4.28771 0
M  V30 20876 C 1942.19 -0.26372 5.30545 0
M  V30 20877 C 1941.23 0.673982 6.08378 0
M  V30 20878 N 1940.37 -0.081909 7.02052 0
M  V30 20879 H 1945.21 1.19969 2.72785 0
M  V30 20880 H 1942.74 0.602948 1.34175 0
M  V30 20881 H 1944.7 -0.880572 4.07801 0
M  V30 20882 H 1943.33 -1.22028 2.98846 0
M  V30 20883 H 1942.38 1.11083 3.6382 0
M  V30 20884 H 1943.7 1.24532 4.83004 0
M  V30 20885 H 1942.85 -0.7905 6.01528 0
M  V30 20886 H 1941.59 -1.01507 4.7702 0
M  V30 20887 H 1940.59 1.21234 5.36267 0
M  V30 20888 H 1941.82 1.42451 6.63991 0
M  V30 20889 H 1939.77 -0.815696 6.50909 0
M  V30 20890 H 1939.68 0.576521 7.53799 0
M  V30 20891 H 1940.95 -0.589258 7.7727 0
M  V30 20892 N 1945.18 -1.43489 0.651812 0
M  V30 20893 C 1946.46 -1.95371 0.0946135 0
M  V30 20894 C 1946.84 -1.59316 -1.38498 0
M  V30 20895 O 1946.18 -0.87757 -2.10976 0
M  V30 20896 C 1946.39 -3.47346 0.339353 0
M  V30 20897 C 1947.74 -4.23901 0.243543 0
M  V30 20898 O 1948.77 -3.55161 0.271836 0
M  V30 20899 O 1947.63 -5.46248 0.166055 0
M  V30 20900 H 1944.72 -0.826934 -0.0104284 0
M  V30 20901 H 1947.27 -1.53436 0.724952 0
M  V30 20902 H 1946.04 -3.66712 1.36522 0
M  V30 20903 H 1945.66 -3.96277 -0.324122 0
M  V30 20904 N 1946.66 -0.393643 -1.52605 0
M  V30 20905 C 1947.91 0.188423 -2.00818 0
M  V30 20906 C 1948.22 1.47537 -1.28422 0
M  V30 20907 O 1949.43 2.13775 -1.6737 0
M  V30 20908 C 1947.88 0.386341 -3.5782 0
M  V30 20909 C 1947.49 -0.887606 -4.39119 0
M  V30 20910 C 1949.23 0.924537 -4.1431 0
M  V30 20911 C 1947.14 -0.657729 -5.87731 0
M  V30 20912 H 1946.07 0.0741894 -0.750341 0
M  V30 20913 H 1948.72 -0.516709 -1.76075 0
M  V30 20914 H 1947.1 1.15343 -3.7883 0
M  V30 20915 H 1948.28 -1.65965 -4.29875 0
M  V30 20916 H 1946.59 -1.35107 -3.93872 0
M  V30 20917 H 1949.19 1.1123 -5.23003 0
M  V30 20918 H 1949.53 1.89484 -3.70677 0
M  V30 20919 H 1950.07 0.216908 -3.97208 0
M  V30 20920 H 1946.8 -1.59915 -6.35694 0
M  V30 20921 H 1946.32 0.0752963 -5.99753 0
M  V30 20922 H 1948 -0.293935 -6.46332 0
M  V30 20923 N 1948.14 1.57115 -0.123593 0
M  V30 20924 C 1949.38 1.94527 0.533131 0
M  V30 20925 C 1949.7 1.0095 1.67536 0
M  V30 20926 O 1950.9 1.27846 2.39515 0
M  V30 20927 C 1949.36 3.45735 0.999783 0
M  V30 20928 C 1948.97 4.47854 -0.114238 0
M  V30 20929 C 1950.71 3.92057 1.62762 0
M  V30 20930 C 1948.62 5.90245 0.36937 0
M  V30 20931 H 1947.55 0.726179 0.20293 0
M  V30 20932 H 1950.2 1.8236 -0.204183 0
M  V30 20933 H 1948.58 3.53151 1.79166 0
M  V30 20934 H 1949.76 4.52111 -0.890627 0
M  V30 20935 H 1948.07 4.11311 -0.649019 0
M  V30 20936 H 1950.67 4.9586 2.00067 0
M  V30 20937 H 1951.01 3.3229 2.50777 0
M  V30 20938 H 1951.54 3.8746 0.901074 0
M  V30 20939 H 1948.28 6.53778 -0.474837 0
M  V30 20940 H 1947.8 5.89399 1.11214 0
M  V30 20941 H 1949.48 6.41666 0.829093 0
M  V30 20942 N 1949.61 -0.150187 1.56883 0
M  V30 20943 C 1951.03 -0.502717 1.51476 0
M  V30 20944 C 1951.23 -1.83545 0.831478 0
M  V30 20945 O 1950.29 -2.49301 0.400671 0
M  V30 20946 C 1951.6 -0.515965 2.9624 0
M  V30 20947 C 1953.15 -0.601702 3.07162 0
M  V30 20948 C 1953.62 -0.645643 4.53426 0
M  V30 20949 N 1955.11 -0.707954 4.57758 0
M  V30 20950 C 1955.85 -0.762883 5.68302 0
M  V30 20951 N 1955.34 -0.777353 6.88425 0
M  V30 20952 N 1957.14 -0.803521 5.56327 0
M  V30 20953 H 1949.29 0.723442 1.997 0
M  V30 20954 H 1951.55 0.263405 0.910671 0
M  V30 20955 H 1951.26 0.395034 3.49474 0
M  V30 20956 H 1951.13 -1.35501 3.52022 0
M  V30 20957 H 1953.52 -1.50312 2.53949 0
M  V30 20958 H 1953.6 0.26443 2.5443 0
M  V30 20959 H 1953.24 0.251606 5.07276 0
M  V30 20960 H 1953.17 -1.52822 5.03937 0
M  V30 20961 H 1955.66 -0.7042 3.71281 0
M  V30 20962 H 1955.98 -0.821026 7.68426 0
M  V30 20963 H 1954.32 -0.745281 6.90992 0
M  V30 20964 H 1957.51 -0.789365 4.61396 0
M  V30 20965 H 1957.69 -0.842864 6.42495 0
M  V30 20966 N 1951.09 -1.51916 -0.419434 0
M  V30 20967 C 1952.34 -1.65468 -1.16732 0
M  V30 20968 C 1952.67 -0.379569 -1.9076 0
M  V30 20969 O 1951.92 0.637093 -1.8504 0
M  V30 20970 C 1952.22 -2.82039 -2.19519 0
M  V30 20971 C 1951.89 -4.20649 -1.62373 0
M  V30 20972 C 1950.55 -4.58353 -1.46512 0
M  V30 20973 C 1952.9 -5.0707 -1.20539 0
M  V30 20974 C 1950.23 -5.80166 -0.873185 0
M  V30 20975 C 1952.58 -6.29478 -0.627675 0
M  V30 20976 C 1951.25 -6.6594 -0.456114 0
M  V30 20977 H 1950.52 -0.605492 -0.427154 0
M  V30 20978 H 1953.16 -1.85994 -0.455916 0
M  V30 20979 H 1951.47 -2.55808 -2.96765 0
M  V30 20980 H 1953.16 -2.89722 -2.7724 0
M  V30 20981 H 1949.75 -3.90932 -1.75699 0
M  V30 20982 H 1953.94 -4.78533 -1.31606 0
M  V30 20983 H 1949.19 -6.07048 -0.728187 0
M  V30 20984 H 1953.37 -6.95775 -0.29508 0
M  V30 20985 H 1951 -7.602 0.00467585 0
M  V30 20986 N 1952.57 0.676023 -1.42365 0
M  V30 20987 C 1953.5 1.80165 -1.48536 0
M  V30 20988 C 1954.48 1.66625 -0.342049 0
M  V30 20989 O 1955.67 1.86065 -0.55619 0
M  V30 20990 C 1952.8 3.18451 -1.38586 0
M  V30 20991 C 1951.75 3.46724 -2.50931 0
M  V30 20992 C 1951.08 4.84572 -2.2604 0
M  V30 20993 C 1952.38 3.4374 -3.93243 0
M  V30 20994 H 1954.07 1.75258 -2.42745 0
M  V30 20995 H 1951.62 0.841756 -1.16835 0
M  V30 20996 H 1953.57 3.96929 -1.41511 0
M  V30 20997 H 1952.29 3.24033 -0.408703 0
M  V30 20998 H 1950.95 2.70607 -2.47321 0
M  V30 20999 H 1950.6 4.86802 -1.2662 0
M  V30 21000 H 1950.3 5.04452 -3.01334 0
M  V30 21001 H 1951.82 5.65336 -2.30712 0
M  V30 21002 H 1953.24 4.12189 -3.98463 0
M  V30 21003 H 1951.64 3.75155 -4.68379 0
M  V30 21004 H 1952.71 2.42337 -4.20001 0
M  V30 21005 N 1954.05 1.28517 0.912209 0
M  V30 21006 C 1954.98 1.08378 2.01958 0
M  V30 21007 C 1955.99 0.0350385 1.62762 0
M  V30 21008 O 1957.18 0.278256 1.76318 0
M  V30 21009 C 1954.28 0.62514 3.33084 0
M  V30 21010 C 1953.46 1.74963 4.00882 0
M  V30 21011 C 1952.51 1.28411 5.10291 0
M  V30 21012 O 1951.54 1.98662 5.33406 0
M  V30 21013 N 1952.74 0.148151 5.80311 0
M  V30 21014 H 1955.51 2.03744 2.19792 0
M  V30 21015 H 1953.07 1.2029 1.0836 0
M  V30 21016 H 1955.06 0.297284 4.03607 0
M  V30 21017 H 1953.63 -0.235714 3.1171 0
M  V30 21018 H 1952.85 2.247 3.23888 0
M  V30 21019 H 1954.14 2.50391 4.42924 0
M  V30 21020 H 1953.54 -0.437843 5.64003 0
M  V30 21021 H 1952.09 -0.120419 6.51689 0
M  V30 21022 N 1955.53 -1.12086 1.1079 0
M  V30 21023 C 1956.46 -2.17667 0.717897 0
M  V30 21024 C 1957.47 -1.60913 -0.247179 0
M  V30 21025 O 1958.66 -1.78473 -0.0310924 0
M  V30 21026 C 1955.76 -3.38877 0.0392451 0
M  V30 21027 C 1954.93 -4.25114 1.02943 0
M  V30 21028 C 1953.99 -5.24815 0.381583 0
M  V30 21029 O 1953.02 -5.59739 1.03348 0
M  V30 21030 N 1954.22 -5.74118 -0.858416 0
M  V30 21031 H 1956.99 -2.51737 1.6263 0
M  V30 21032 H 1954.55 -1.27544 0.997209 0
M  V30 21033 H 1956.54 -4.02661 -0.405715 0
M  V30 21034 H 1955.11 -3.02927 -0.771627 0
M  V30 21035 H 1954.33 -3.57889 1.65255 0
M  V30 21036 H 1955.62 -4.79575 1.69957 0
M  V30 21037 H 1955.01 -5.47915 -1.40734 0
M  V30 21038 H 1953.57 -6.39771 -1.24647 0
M  V30 21039 N 1957 -0.897194 -1.29569 0
M  V30 21040 C 1958.42 -0.592933 -1.48177 0
M  V30 21041 C 1958.62 0.866214 -1.81931 0
M  V30 21042 O 1957.68 1.64658 -1.91427 0
M  V30 21043 C 1958.99 -1.5166 -2.59653 0
M  V30 21044 C 1960.54 -1.52153 -2.73529 0
M  V30 21045 C 1961.01 -2.43142 -3.88131 0
M  V30 21046 N 1962.5 -2.41175 -3.9546 0
M  V30 21047 C 1963.24 -3.08283 -4.83476 0
M  V30 21048 N 1962.73 -3.84662 -5.76201 0
M  V30 21049 N 1964.53 -2.97453 -4.76946 0
M  V30 21050 H 1956.68 -1.84096 -1.05935 0
M  V30 21051 H 1958.94 -0.788701 -0.52598 0
M  V30 21052 H 1958.65 -2.55612 -2.41569 0
M  V30 21053 H 1958.52 -1.23526 -3.564 0
M  V30 21054 H 1960.91 -0.489472 -2.91012 0
M  V30 21055 H 1960.99 -1.84324 -1.77365 0
M  V30 21056 H 1960.63 -3.46441 -3.71404 0
M  V30 21057 H 1960.56 -2.08282 -4.83659 0
M  V30 21058 H 1963.05 -1.8568 -3.29137 0
M  V30 21059 H 1963.37 -4.32929 -6.4015 0
M  V30 21060 H 1961.71 -3.88769 -5.76094 0
M  V30 21061 H 1964.9 -2.37301 -4.03492 0
M  V30 21062 H 1965.08 -3.50029 -5.45329 0
M  V30 21063 N 1958.48 1.43142 -0.659413 0
M  V30 21064 C 1959.41 2.33495 0.0147266 0
M  V30 21065 C 1960.39 1.49819 0.805493 0
M  V30 21066 O 1961.58 1.78466 0.765732 0
M  V30 21067 C 1958.71 3.33261 0.977483 0
M  V30 21068 C 1957.66 4.26972 0.296396 0
M  V30 21069 C 1956.99 5.16824 1.37103 0
M  V30 21070 C 1958.29 5.15901 -0.815063 0
M  V30 21071 H 1959.98 2.90115 -0.739837 0
M  V30 21072 H 1957.53 1.39499 -0.357229 0
M  V30 21073 H 1959.48 3.95372 1.45805 0
M  V30 21074 H 1958.21 2.74911 1.76328 0
M  V30 21075 H 1956.86 3.66234 -0.16379 0
M  V30 21076 H 1956.51 4.5481 2.14842 0
M  V30 21077 H 1956.21 5.80345 0.920528 0
M  V30 21078 H 1957.74 5.81809 1.85284 0
M  V30 21079 H 1959.15 5.71786 -0.416382 0
M  V30 21080 H 1957.55 5.88175 -1.19041 0
M  V30 21081 H 1958.62 4.5522 -1.67042 0
M  V30 21082 N 1959.96 0.40173 1.52394 0
M  V30 21083 C 1960.91 -0.427385 2.26808 0
M  V30 21084 C 1961.88 -1.04733 1.28919 0
M  V30 21085 O 1963.06 -1.073 1.5777 0
M  V30 21086 C 1960.2 -1.54211 3.08728 0
M  V30 21087 C 1959.32 -0.943809 4.21564 0
M  V30 21088 C 1958.45 -2.03061 4.90856 0
M  V30 21089 C 1957.49 -1.40886 5.95666 0
M  V30 21090 N 1956.63 -2.4355 6.58504 0
M  V30 21091 H 1961.47 0.21363 2.97233 0
M  V30 21092 H 1959 0.117187 1.46632 0
M  V30 21093 H 1960.96 -2.1993 3.54523 0
M  V30 21094 H 1959.59 -2.15326 2.40488 0
M  V30 21095 H 1958.64 -0.175875 3.79993 0
M  V30 21096 H 1959.96 -0.449559 4.9677 0
M  V30 21097 H 1959.11 -2.76523 5.40018 0
M  V30 21098 H 1957.85 -2.5585 4.15201 0
M  V30 21099 H 1956.85 -0.659546 5.4583 0
M  V30 21100 H 1958.08 -0.888766 6.73259 0
M  V30 21101 H 1956.02 -2.95484 5.85683 0
M  V30 21102 H 1955.94 -1.98916 7.29362 0
M  V30 21103 H 1957.21 -3.16604 7.12308 0
M  V30 21104 N 1961.44 -1.57047 0.131923 0
M  V30 21105 C 1962.39 -2.15989 -0.813469 0
M  V30 21106 C 1963.36 -1.08848 -1.25464 0
M  V30 21107 O 1964.54 -1.36819 -1.32986 0
M  V30 21108 C 1961.68 -2.7738 -2.05315 0
M  V30 21109 C 1960.79 -3.98868 -1.65916 0
M  V30 21110 C 1959.93 -4.48305 -2.84948 0
M  V30 21111 C 1958.97 -5.62294 -2.41851 0
M  V30 21112 N 1958.1 -6.06417 -3.53841 0
M  V30 21113 H 1962.94 -2.96445 -0.304009 0
M  V30 21114 H 1960.48 -1.46448 -0.138355 0
M  V30 21115 H 1962.44 -3.11111 -2.77967 0
M  V30 21116 H 1961.07 -1.99593 -2.53697 0
M  V30 21117 H 1960.12 -3.71215 -0.830867 0
M  V30 21118 H 1961.43 -4.81493 -1.30252 0
M  V30 21119 H 1960.59 -4.84012 -3.6581 0
M  V30 21120 H 1959.33 -3.64657 -3.23847 0
M  V30 21121 H 1958.33 -5.26178 -1.59425 0
M  V30 21122 H 1959.56 -6.47718 -2.04055 0
M  V30 21123 H 1957.5 -5.25707 -3.92388 0
M  V30 21124 H 1957.42 -6.8393 -3.22143 0
M  V30 21125 H 1958.69 -6.46765 -4.35104 0
M  V30 21126 N 1962.92 0.141865 -1.5696 0
M  V30 21127 C 1963.88 1.15896 -1.97739 0
M  V30 21128 C 1964.88 1.3558 -0.864556 0
M  V30 21129 O 1966.07 1.32485 -1.13107 0
M  V30 21130 C 1963.2 2.51822 -2.29779 0
M  V30 21131 H 1964.39 0.808993 -2.88782 0
M  V30 21132 H 1961.95 0.385387 -1.51474 0
M  V30 21133 H 1962.68 2.91781 -1.41543 0
M  V30 21134 H 1962.47 2.38894 -3.10921 0
M  V30 21135 H 1963.96 3.25066 -2.62148 0
M  V30 21136 N 1964.39 1.52136 0.411372 0
M  V30 21137 C 1965.64 1.66331 1.16025 0
M  V30 21138 C 1965.97 0.390981 1.90223 0
M  V30 21139 O 1965.25 -0.610512 1.8467 0
M  V30 21140 C 1965.53 2.88386 2.15651 0
M  V30 21141 C 1965.38 4.25664 1.45364 0
M  V30 21142 C 1966.7 3.05963 3.16346 0
M  V30 21143 H 1963.82 0.60531 0.420439 0
M  V30 21144 H 1966.46 1.84685 0.446247 0
M  V30 21145 H 1964.61 2.72869 2.76541 0
M  V30 21146 H 1966.29 4.52904 0.876105 0
M  V30 21147 H 1964.53 4.27168 0.75563 0
M  V30 21148 H 1965.2 5.07109 2.18047 0
M  V30 21149 H 1967.68 3.20363 2.65531 0
M  V30 21150 H 1966.55 3.92882 3.83321 0
M  V30 21151 H 1966.81 2.19177 3.83945 0
M  V30 21152 N 1965.87 -0.668464 1.42721 0
M  V30 21153 C 1967.28 -1.24925 1.38747 0
M  V30 21154 C 1967.64 -1.96021 0.0838911 0
M  V30 21155 O 1966.76 -2.00378 -0.817178 0
M  V30 21156 C 1967.36 -2.27201 2.51327 0
M  V30 21157 C 1965.91 -2.80792 2.50665 0
M  V30 21158 C 1965.06 -1.55205 2.29797 0
M  V30 21159 H 1968.01 -0.461443 1.51843 0
M  V30 21160 H 1968.03 -3.09067 2.21941 0
M  V30 21161 H 1967.55 -1.75428 3.46189 0
M  V30 21162 H 1965.65 -3.36669 1.59639 0
M  V30 21163 H 1965.76 -3.29376 3.4792 0
M  V30 21164 H 1964.12 -1.82004 1.78176 0
M  V30 21165 H 1964.91 -1.05389 3.26723 0
M  V30 21166 N 1967.35 -1.28999 -0.905381 0
M  V30 21167 C 1968.58 -1.19339 -1.68647 0
M  V30 21168 C 1968.99 0.249343 -1.8755 0
M  V30 21169 O 1968.33 1.17945 -1.40836 0
M  V30 21170 C 1968.39 -1.82925 -3.09481 0
M  V30 21171 C 1968.06 -3.32203 -3.13832 0
M  V30 21172 C 1969.06 -4.28513 -2.94402 0
M  V30 21173 C 1966.74 -3.73305 -3.36078 0
M  V30 21174 C 1968.73 -5.63901 -2.97144 0
M  V30 21175 C 1966.42 -5.08816 -3.38452 0
M  V30 21176 C 1967.42 -6.03924 -3.19006 0
M  V30 21177 O 1967.11 -7.36963 -3.21156 0
M  V30 21178 H 1966.84 -0.414909 -0.533692 0
M  V30 21179 H 1969.39 -1.70793 -1.14101 0
M  V30 21180 H 1967.62 -1.25976 -3.65605 0
M  V30 21181 H 1969.31 -1.67667 -3.69652 0
M  V30 21182 H 1970.08 -3.98093 -2.77033 0
M  V30 21183 H 1965.96 -2.99735 -3.50257 0
M  V30 21184 H 1969.5 -6.38112 -2.81884 0
M  V30 21185 H 1965.4 -5.38884 -3.55351 0
M  V30 21186 H 1966.17 -7.45696 -3.37461 0
M  V30 21187 N 1968.83 1.11497 -1.11383 0
M  V30 21188 C 1969.78 2.19602 -0.766658 0
M  V30 21189 C 1970.77 1.67668 0.241612 0
M  V30 21190 O 1971.98 1.79717 0.100956 0
M  V30 21191 H 1968.35 0.715952 -0.230037 0
M  V30 21192 H 1970.32 2.46131 -1.68707 0
M  V30 21193 C 1969.07 3.46968 -0.225442 0
M  V30 21194 H 1968.4 3.87284 -0.992544 0
M  V30 21195 H 1969.84 4.23995 -0.0207066 0
M  V30 21196 C 1968.29 3.20311 1.04414 0
M  V30 21197 O 1968.82 3.40956 2.12395 0
M  V30 21198 N 1967.03 2.7405 0.966692 0
M  V30 21199 H 1966.58 2.5745 0.0878667 0
M  V30 21200 H 1966.54 2.56591 1.81682 0
M  V30 21201 N 1970.31 0.904053 1.29092 0
M  V30 21202 C 1971.72 0.600783 1.47861 0
M  V30 21203 C 1971.92 -0.856554 1.82388 0
M  V30 21204 O 1970.98 -1.6364 1.92297 0
M  V30 21205 C 1972.29 1.53035 2.58845 0
M  V30 21206 C 1973.84 1.53602 2.72719 0
M  V30 21207 C 1974.32 2.45197 3.86836 0
M  V30 21208 N 1975.81 2.43269 3.94176 0
M  V30 21209 C 1976.54 3.10843 4.81834 0
M  V30 21210 N 1976.04 3.87712 5.74153 0
M  V30 21211 N 1977.83 2.99979 4.75362 0
M  V30 21212 H 1969.98 1.84656 1.04957 0
M  V30 21213 H 1972.24 0.791479 0.52179 0
M  V30 21214 H 1971.95 2.5689 2.4021 0
M  V30 21215 H 1971.82 1.25414 3.5574 0
M  V30 21216 H 1974.21 0.504899 2.90749 0
M  V30 21217 H 1974.29 1.85262 1.76385 0
M  V30 21218 H 1973.94 3.48406 3.69562 0
M  V30 21219 H 1973.87 2.10844 4.82548 0
M  V30 21220 H 1976.36 1.87423 3.28148 0
M  V30 21221 H 1976.67 4.36317 6.37846 0
M  V30 21222 H 1975.02 3.91818 5.74024 0
M  V30 21223 H 1978.21 2.39437 4.02228 0
M  V30 21224 H 1978.38 3.52916 5.43465 0
M  V30 21225 N 1971.79 -1.4279 0.666995 0
M  V30 21226 C 1972.72 -2.28104 -0.0661771 0
M  V30 21227 C 1973.7 -1.4062 -0.816384 0
M  V30 21228 O 1974.88 -1.70061 -0.81312 0
M  V30 21229 C 1972.01 -3.20314 -1.10075 0
M  V30 21230 C 1971.05 -4.24151 -0.447018 0
M  V30 21231 S 1971.89 -5.29646 0.78963 0
M  V30 21232 C 1973.04 -6.25424 -0.244062 0
M  V30 21233 H 1973.28 -2.89939 0.657487 0
M  V30 21234 H 1970.81 -1.47504 0.456278 0
M  V30 21235 H 1972.77 -3.73981 -1.69259 0
M  V30 21236 H 1971.43 -2.57631 -1.79681 0
M  V30 21237 H 1970.62 -4.88826 -1.22739 0
M  V30 21238 H 1970.22 -3.73933 0.0710419 0
M  V30 21239 H 1972.51 -6.68409 -1.10615 0
M  V30 21240 H 1973.46 -7.07143 0.36802 0
M  V30 21241 H 1973.87 -5.6145 -0.586043 0
M  V30 21242 N 1973.26 -0.409806 -1.52179 0
M  V30 21243 C 1974.21 0.415351 -2.27032 0
M  V30 21244 C 1975.18 1.04048 -1.29473 0
M  V30 21245 O 1976.37 1.06462 -1.58336 0
M  V30 21246 C 1973.51 1.52571 -3.09542 0
M  V30 21247 C 1972.62 0.921439 -4.22059 0
M  V30 21248 C 1971.75 2.00455 -4.91926 0
M  V30 21249 C 1970.79 1.37725 -5.96404 0
M  V30 21250 N 1969.93 2.40054 -6.59787 0
M  V30 21251 H 1974.77 -0.22939 -2.97116 0
M  V30 21252 H 1972.31 -0.124962 -1.46568 0
M  V30 21253 H 1974.26 2.18046 -3.55685 0
M  V30 21254 H 1972.89 2.14047 -2.41627 0
M  V30 21255 H 1971.95 0.15572 -3.80081 0
M  V30 21256 H 1973.26 0.423208 -4.97001 0
M  V30 21257 H 1972.41 2.73655 -5.41477 0
M  V30 21258 H 1971.15 2.53644 -4.16552 0
M  V30 21259 H 1970.16 0.63059 -5.46172 0
M  V30 21260 H 1971.38 0.853049 -6.73721 0
M  V30 21261 H 1969.33 2.92374 -5.87242 0
M  V30 21262 H 1969.24 1.95045 -7.30406 0
M  V30 21263 H 1970.51 3.12822 -7.13977 0
M  V30 21264 N 1974.74 1.56975 -0.14025 0
M  V30 21265 C 1975.67 2.19432 0.798233 0
M  V30 21266 C 1976.65 1.14055 1.26196 0
M  V30 21267 O 1977.84 1.42373 1.32074 0
M  V30 21268 C 1974.97 2.81059 2.04018 0
M  V30 21269 C 1973.92 3.92204 1.71347 0
M  V30 21270 C 1973.25 4.40735 3.02748 0
M  V30 21271 C 1974.55 5.13302 0.965327 0
M  V30 21272 H 1976.24 2.98109 0.277716 0
M  V30 21273 H 1973.79 1.43392 0.132137 0
M  V30 21274 H 1975.74 3.23417 2.70147 0
M  V30 21275 H 1974.46 1.99703 2.5843 0
M  V30 21276 H 1973.12 3.50454 1.07599 0
M  V30 21277 H 1972.77 3.5621 3.55138 0
M  V30 21278 H 1972.47 5.15698 2.81654 0
M  V30 21279 H 1974 4.85759 3.6996 0
M  V30 21280 H 1975.41 5.52547 1.52857 0
M  V30 21281 H 1973.81 5.93984 0.854574 0
M  V30 21282 H 1974.88 4.8488 -0.0441688 0
M  V30 21283 N 1976.22 -0.133539 1.57033 0
M  V30 21284 C 1977.15 -1.1944 1.94446 0
M  V30 21285 C 1978.13 -1.40868 0.812103 0
M  V30 21286 O 1979.31 -1.5526 1.06895 0
M  V30 21287 C 1976.44 -2.55091 2.22814 0
M  V30 21288 C 1975.49 -2.50178 3.45417 0
M  V30 21289 S 1976.32 -1.95558 4.98515 0
M  V30 21290 C 1977.48 -3.32912 5.30019 0
M  V30 21291 H 1977.71 -0.875271 2.84124 0
M  V30 21292 H 1975.24 -0.33971 1.50616 0
M  V30 21293 H 1977.2 -3.3315 2.39837 0
M  V30 21294 H 1975.86 -2.84188 1.33777 0
M  V30 21295 H 1975.05 -3.50068 3.62586 0
M  V30 21296 H 1974.66 -1.80235 3.27706 0
M  V30 21297 H 1976.95 -4.29074 5.24311 0
M  V30 21298 H 1977.89 -3.20584 6.31373 0
M  V30 21299 H 1978.3 -3.30669 4.57513 0
M  V30 21300 N 1977.7 -1.52352 -0.403298 0
M  V30 21301 C 1978.95 -1.65924 -1.14683 0
M  V30 21302 C 1979.26 -0.398212 -1.91504 0
M  V30 21303 O 1980.47 -0.413824 -2.68328 0
M  V30 21304 C 1978.92 -2.9317 -2.08757 0
M  V30 21305 C 1978.53 -4.26402 -1.37425 0
M  V30 21306 C 1980.27 -3.16106 -2.83332 0
M  V30 21307 C 1978.18 -5.44766 -2.30181 0
M  V30 21308 H 1977.11 -0.61811 -0.431805 0
M  V30 21309 H 1979.76 -1.78843 -0.410792 0
M  V30 21310 H 1978.14 -2.73964 -2.85937 0
M  V30 21311 H 1979.32 -4.56111 -0.65569 0
M  V30 21312 H 1977.63 -4.09614 -0.748668 0
M  V30 21313 H 1980.23 -4.01716 -3.52886 0
M  V30 21314 H 1980.57 -2.30581 -3.4661 0
M  V30 21315 H 1981.11 -3.35811 -2.1325 0
M  V30 21316 H 1977.84 -6.32656 -1.71541 0
M  V30 21317 H 1977.36 -5.19388 -2.99993 0
M  V30 21318 H 1979.04 -5.78077 -2.9058 0
M  V30 21319 N 1979.18 0.660885 -1.43074 0
M  V30 21320 C 1980.42 1.42296 -1.44498 0
M  V30 21321 C 1980.75 1.94087 -0.0661594 0
M  V30 21322 O 1980.03 1.71803 0.911806 0
M  V30 21323 C 1980.31 2.60995 -2.481 0
M  V30 21324 C 1980.17 2.14746 -3.95227 0
M  V30 21325 C 1981.48 3.63212 -2.48526 0
M  V30 21326 H 1978.6 0.516071 -0.526156 0
M  V30 21327 H 1981.25 0.749896 -1.74575 0
M  V30 21328 H 1979.4 3.18417 -2.22583 0
M  V30 21329 H 1981.07 1.62384 -4.31774 0
M  V30 21330 H 1979.31 1.46188 -4.08426 0
M  V30 21331 H 1979.98 3.00068 -4.63318 0
M  V30 21332 H 1982.46 3.15534 -2.71251 0
M  V30 21333 H 1981.33 4.43825 -3.22971 0
M  V30 21334 H 1981.59 4.15285 -1.51626 0
M  V30 21335 N 1980.65 1.29477 0.898527 0
M  V30 21336 C 1981.9 1.17284 1.64587 0
M  V30 21337 C 1982.22 -0.275718 1.93041 0
M  V30 21338 O 1981.49 -1.18847 1.55731 0
M  V30 21339 H 1980.07 0.431068 0.610073 0
M  V30 21340 H 1982.74 1.62419 1.07732 0
M  V30 21341 H 1981.83 1.72375 2.60179 0
M  V30 21342 N 1982.13 -1.10905 1.11972 0
M  V30 21343 C 1983.08 -2.19193 0.778293 0
M  V30 21344 C 1984.07 -1.67794 -0.232717 0
M  V30 21345 O 1985.28 -1.79768 -0.0914242 0
M  V30 21346 H 1981.66 -0.714722 0.23383 0
M  V30 21347 H 1983.63 -2.45233 1.7001 0
M  V30 21348 C 1982.38 -3.46844 0.24384 0
M  V30 21349 H 1981.7 -3.86752 1.01307 0
M  V30 21350 H 1983.14 -4.23978 0.0431918 0
M  V30 21351 C 1981.6 -3.2086 -1.02714 0
M  V30 21352 O 1982.13 -3.42078 -2.10584 0
M  V30 21353 N 1980.33 -2.74559 -0.952145 0
M  V30 21354 H 1979.88 -2.57493 -0.0742122 0
M  V30 21355 H 1979.84 -2.57551 -1.80319 0
M  V30 21356 N 1983.61 -0.910886 -1.2861 0
M  V30 21357 C 1984.84 -0.558332 -1.99224 0
M  V30 21358 C 1985.25 0.859686 -1.68092 0
M  V30 21359 O 1984.61 1.56902 -0.932092 0
M  V30 21360 C 1984.66 -0.754443 -3.5354 0
M  V30 21361 O 1984.38 -2.11666 -3.83574 0
M  V30 21362 C 1985.88 -0.408335 -4.41415 0
M  V30 21363 H 1983.1 -0.213139 -0.636249 0
M  V30 21364 H 1985.65 -1.2233 -1.63877 0
M  V30 21365 H 1983.8 -0.136504 -3.87159 0
M  V30 21366 H 1984.22 -2.15422 -4.78219 0
M  V30 21367 H 1985.69 -0.596337 -5.48769 0
M  V30 21368 H 1986.17 0.655276 -4.34284 0
M  V30 21369 H 1986.77 -1.00369 -4.13287 0
M  V30 21370 N 1985.09 1.42434 -0.674558 0
M  V30 21371 C 1986.34 2.01144 -0.196332 0
M  V30 21372 C 1986.66 1.53605 1.20127 0
M  V30 21373 O 1985.93 0.757627 1.80657 0
M  V30 21374 H 1984.51 0.743751 -0.0695937 0
M  V30 21375 H 1987.17 1.74354 -0.871013 0
M  V30 21376 H 1986.27 3.11475 -0.197426 0
M  V30 21377 N 1986.57 0.417871 1.51959 0
M  V30 21378 C 1987.79 -0.156736 2.06807 0
M  V30 21379 C 1988.22 -1.37354 1.28512 0
M  V30 21380 O 1987.57 -1.78494 0.317715 0
M  V30 21381 C 1987.62 -0.476913 3.57432 0
M  V30 21382 O 1986.73 -1.56654 3.81488 0
M  V30 21383 H 1986.07 -0.0103873 0.663919 0
M  V30 21384 H 1988.6 0.593593 1.958 0
M  V30 21385 H 1988.61 -0.733026 4.01361 0
M  V30 21386 H 1987.28 0.412542 4.13849 0
M  V30 21387 H 1985.86 -1.30191 3.49435 0
M  V30 21388 N 1988.04 -1.56898 0.148573 0
M  V30 21389 C 1989.29 -1.95788 -0.501154 0
M  V30 21390 C 1989.61 -1.03451 -1.65297 0
M  V30 21391 O 1988.88 -0.0963607 -1.95663 0
M  V30 21392 H 1987.46 -0.722922 -0.188129 0
M  V30 21393 H 1990.13 -1.93603 0.224439 0
M  V30 21394 H 1989.22 -2.99547 -0.876258 0
M  V30 21395 N 1989.52 0.125209 -1.57102 0
M  V30 21396 C 1990.47 1.15387 -1.99886 0
M  V30 21397 C 1991.44 1.41494 -0.869974 0
M  V30 21398 O 1992.62 1.53464 -1.13372 0
M  V30 21399 C 1989.76 2.47687 -2.40302 0
M  V30 21400 C 1988.88 2.28568 -3.6658 0
M  V30 21401 C 1988.01 3.54056 -3.96003 0
M  V30 21402 C 1987.05 3.30067 -5.15482 0
M  V30 21403 N 1986.19 4.47741 -5.40807 0
M  V30 21404 H 1991.03 0.782018 -2.87556 0
M  V30 21405 H 1988.57 0.374655 -1.42249 0
M  V30 21406 H 1990.52 3.24858 -2.61769 0
M  V30 21407 H 1989.15 2.82777 -1.55683 0
M  V30 21408 H 1988.21 1.42345 -3.52764 0
M  V30 21409 H 1989.52 2.06815 -4.53904 0
M  V30 21410 H 1988.67 4.39647 -4.18085 0
M  V30 21411 H 1987.41 3.78834 -3.07142 0
M  V30 21412 H 1986.42 2.42866 -4.93251 0
M  V30 21413 H 1987.64 3.06666 -6.05915 0
M  V30 21414 H 1985.59 4.72652 -4.54902 0
M  V30 21415 H 1985.5 4.2907 -6.22442 0
M  V30 21416 H 1986.77 5.34484 -5.67404 0
M  V30 21417 N 1991 1.52564 0.395213 0
M  V30 21418 C 1992.23 1.71173 1.16222 0
M  V30 21419 C 1992.64 0.427335 1.839 0
M  V30 21420 O 1992 -0.597726 1.72434 0
M  V30 21421 C 1992.05 2.85698 2.21492 0
M  V30 21422 O 1991.77 4.09165 1.56574 0
M  V30 21423 C 1993.27 3.15934 3.10967 0
M  V30 21424 H 1990.49 0.573277 0.348705 0
M  V30 21425 H 1993.04 1.99186 0.463177 0
M  V30 21426 H 1991.19 2.60165 2.87042 0
M  V30 21427 H 1991.61 4.73086 2.26473 0
M  V30 21428 H 1993.08 3.99548 3.80874 0
M  V30 21429 H 1993.56 2.30059 3.74125 0
M  V30 21430 H 1994.16 3.43284 2.5107 0
M  V30 21431 N 1992.48 -0.653289 1.43422 0
M  V30 21432 C 1993.71 -1.44093 1.48475 0
M  V30 21433 C 1994.12 -1.88521 0.102614 0
M  V30 21434 O 1993.48 -1.59487 -0.887134 0
M  V30 21435 C 1993.53 -2.67595 2.43054 0
M  V30 21436 O 1993.25 -2.25025 3.75893 0
M  V30 21437 C 1994.75 -3.60953 2.57348 0
M  V30 21438 H 1991.97 -0.442658 0.504276 0
M  V30 21439 H 1994.52 -0.800914 1.88164 0
M  V30 21440 H 1992.67 -3.27736 2.06561 0
M  V30 21441 H 1993.08 -3.04932 4.26752 0
M  V30 21442 H 1994.56 -4.44276 3.27602 0
M  V30 21443 H 1995.04 -4.08295 1.61838 0
M  V30 21444 H 1995.64 -3.06693 2.94652 0
M  V30 21445 N 1993.96 -1.29952 -0.891648 0
M  V30 21446 C 1994.89 -1.18331 -2.01296 0
M  V30 21447 C 1995.87 -0.0755571 -1.69932 0
M  V30 21448 O 1997.05 -0.256435 -1.92499 0
M  V30 21449 C 1994.18 -0.867421 -3.36293 0
M  V30 21450 C 1993.14 -1.93237 -3.81894 0
M  V30 21451 C 1992.46 -1.46962 -5.14107 0
M  V30 21452 C 1993.76 -3.34246 -4.01344 0
M  V30 21453 H 1995.46 -2.12138 -2.11276 0
M  V30 21454 H 1993 -1.02132 -1.01514 0
M  V30 21455 H 1994.96 -0.772806 -4.14253 0
M  V30 21456 H 1993.68 0.106342 -3.26427 0
M  V30 21457 H 1992.34 -2.01651 -3.06157 0
M  V30 21458 H 1991.99 -0.484311 -5.00663 0
M  V30 21459 H 1991.69 -2.1819 -5.45589 0
M  V30 21460 H 1993.21 -1.38866 -5.94599 0
M  V30 21461 H 1994.62 -3.28629 -4.69762 0
M  V30 21462 H 1993.02 -4.03502 -4.44192 0
M  V30 21463 H 1994.09 -3.76629 -3.05415 0
M  V30 21464 N 1995.44 1.1031 -1.12559 0
M  V30 21465 C 1996.37 2.18738 -0.817073 0
M  V30 21466 C 1997.35 1.68675 0.219681 0
M  V30 21467 O 1998.53 1.94033 0.0805889 0
M  V30 21468 C 1995.66 3.46231 -0.272317 0
M  V30 21469 C 1994.62 4.09575 -1.24228 0
M  V30 21470 C 1993.94 5.31784 -0.557693 0
M  V30 21471 C 1995.24 4.53135 -2.59743 0
M  V30 21472 H 1996.94 2.44802 -1.72372 0
M  V30 21473 H 1994.48 1.17658 -0.830221 0
M  V30 21474 H 1996.43 4.21377 -0.0442049 0
M  V30 21475 H 1995.16 3.19661 0.669677 0
M  V30 21476 H 1993.82 3.36437 -1.45622 0
M  V30 21477 H 1993.47 5.0149 0.389484 0
M  V30 21478 H 1993.17 5.75117 -1.20473 0
M  V30 21479 H 1994.69 6.0966 -0.338649 0
M  V30 21480 H 1996.1 5.19548 -2.42369 0
M  V30 21481 H 1994.5 5.07322 -3.20537 0
M  V30 21482 H 1995.57 3.65989 -3.18088 0
M  V30 21483 N 1996.91 0.917694 1.28125 0
M  V30 21484 C 1997.85 0.366394 2.26253 0
M  V30 21485 C 1998.86 -0.497338 1.55017 0
M  V30 21486 O 2000.05 -0.31158 1.7576 0
M  V30 21487 C 1997.15 -0.494558 3.35272 0
M  V30 21488 C 1996.32 0.34757 4.36017 0
M  V30 21489 C 1995.38 -0.449109 5.2428 0
M  V30 21490 O 1994.41 0.139705 5.69029 0
M  V30 21491 N 1995.61 -1.75125 5.53454 0
M  V30 21492 H 1998.37 1.20986 2.74194 0
M  V30 21493 H 1995.93 0.784058 1.41648 0
M  V30 21494 H 1997.93 -1.03436 3.91258 0
M  V30 21495 H 1996.5 -1.23875 2.87008 0
M  V30 21496 H 1995.72 1.06872 3.79437 0
M  V30 21497 H 1997 0.923647 5.00346 0
M  V30 21498 H 1996.4 -2.2521 5.18938 0
M  V30 21499 H 1994.96 -2.23778 6.12182 0
M  V30 21500 N 1998.39 -1.42074 0.682102 0
M  V30 21501 C 1999.32 -2.29179 -0.0307054 0
M  V30 21502 C 2000.34 -1.44071 -0.758119 0
M  V30 21503 O 2001.53 -1.67715 -0.611062 0
M  V30 21504 C 1998.63 -3.21654 -1.06734 0
M  V30 21505 C 1997.8 -4.35453 -0.41228 0
M  V30 21506 C 1996.86 -5.08596 -1.34969 0
M  V30 21507 O 1995.88 -5.6286 -0.847209 0
M  V30 21508 N 1997.09 -5.14794 -2.68267 0
M  V30 21509 H 1999.85 -2.90995 0.71706 0
M  V30 21510 H 1997.41 -1.5308 0.52708 0
M  V30 21511 H 1999.4 -3.67453 -1.69589 0
M  V30 21512 H 1997.97 -2.61239 -1.71677 0
M  V30 21513 H 1997.19 -3.92207 0.395908 0
M  V30 21514 H 1998.48 -5.08781 0.0437707 0
M  V30 21515 H 1997.88 -4.72131 -3.11623 0
M  V30 21516 H 1996.44 -5.64215 -3.26351 0
M  V30 21517 N 1999.87 -0.425924 -1.51735 0
M  V30 21518 C 2000.8 0.382011 -2.30354 0
M  V30 21519 C 2001.78 1.03124 -1.35276 0
M  V30 21520 O 2002.97 1.03705 -1.64191 0
M  V30 21521 C 2000.1 1.48978 -3.13724 0
M  V30 21522 C 1999.05 0.964659 -4.16987 0
M  V30 21523 C 1998.38 2.1673 -4.88807 0
M  V30 21524 C 1999.68 0.00700314 -5.223 0
M  V30 21525 H 2001.37 -0.274043 -2.98143 0
M  V30 21526 H 1998.92 -0.133238 -1.43382 0
M  V30 21527 H 2000.87 2.06211 -3.67498 0
M  V30 21528 H 1999.59 2.17396 -2.43735 0
M  V30 21529 H 1998.25 0.414618 -3.64248 0
M  V30 21530 H 1997.9 2.83741 -4.15331 0
M  V30 21531 H 1997.6 1.82239 -5.58626 0
M  V30 21532 H 1999.12 2.74538 -5.454 0
M  V30 21533 H 2000.54 0.488665 -5.71214 0
M  V30 21534 H 1998.93 -0.249924 -5.99579 0
M  V30 21535 H 2000 -0.933195 -4.75836 0
M  V30 21536 N 2001.35 1.56817 -0.156891 0
M  V30 21537 C 2002.28 2.13062 0.817296 0
M  V30 21538 C 2003.26 1.05681 1.23573 0
M  V30 21539 O 2004.44 1.33571 1.33008 0
M  V30 21540 C 2001.57 2.65841 2.09872 0
M  V30 21541 C 2000.62 3.85461 1.82544 0
M  V30 21542 S 2001.45 5.25935 1.00758 0
M  V30 21543 C 2002.6 5.8211 2.29998 0
M  V30 21544 H 2002.84 2.95361 0.339029 0
M  V30 21545 H 2000.37 1.54293 0.0575539 0
M  V30 21546 H 2002.33 2.96898 2.83481 0
M  V30 21547 H 2000.99 1.83655 2.54813 0
M  V30 21548 H 2000.18 4.20668 2.77587 0
M  V30 21549 H 1999.78 3.55215 1.17039 0
M  V30 21550 H 2002.08 5.94144 3.25574 0
M  V30 21551 H 2003.02 6.7948 1.99281 0
M  V30 21552 H 2003.43 5.10423 2.41099 0
M  V30 21553 N 2002.83 -0.116876 1.57166 0
M  V30 21554 C 2003.77 -1.14325 2.00496 0
M  V30 21555 C 2004.74 -1.41031 0.877465 0
M  V30 21556 O 2005.93 -1.52861 1.14185 0
M  V30 21557 C 2003.07 -2.46409 2.41612 0
M  V30 21558 C 2002.18 -2.26621 3.67787 0
M  V30 21559 C 2001.32 -3.51951 3.97875 0
M  V30 21560 C 2000.35 -3.27329 5.17225 0
M  V30 21561 N 1999.49 -4.44867 5.43174 0
M  V30 21562 H 2004.33 -0.766757 2.87967 0
M  V30 21563 H 2001.87 -0.367106 1.42446 0
M  V30 21564 H 2003.83 -3.23465 2.63488 0
M  V30 21565 H 2002.46 -2.81947 1.5718 0
M  V30 21566 H 2001.51 -1.40472 3.53513 0
M  V30 21567 H 2002.82 -2.04405 4.54994 0
M  V30 21568 H 2001.97 -4.37424 4.20411 0
M  V30 21569 H 2000.71 -3.772 3.09147 0
M  V30 21570 H 1999.72 -2.40247 4.94532 0
M  V30 21571 H 2000.94 -3.03448 6.07533 0
M  V30 21572 H 1998.89 -4.70233 4.57403 0
M  V30 21573 H 1998.81 -4.25764 6.24709 0
M  V30 21574 H 2000.07 -5.31468 5.7023 0
M  V30 21575 N 2004.3 -1.52772 -0.387116 0
M  V30 21576 C 2005.53 -1.71787 -1.15312 0
M  V30 21577 C 2005.95 -0.437082 -1.83671 0
M  V30 21578 O 2005.3 0.588573 -1.72749 0
M  V30 21579 C 2005.35 -2.86869 -2.19974 0
M  V30 21580 O 2005.08 -4.0999 -1.54402 0
M  V30 21581 C 2006.58 -3.17579 -3.09287 0
M  V30 21582 H 2003.8 -0.575118 -0.345659 0
M  V30 21583 H 2006.34 -1.99428 -0.452607 0
M  V30 21584 H 2004.5 -2.61684 -2.85658 0
M  V30 21585 H 2004.91 -4.7428 -2.23961 0
M  V30 21586 H 2006.38 -4.01562 -3.7875 0
M  V30 21587 H 2006.86 -2.3204 -3.729 0
M  V30 21588 H 2007.47 -3.44611 -2.49246 0
M  V30 21589 N 2005.78 0.645673 -1.43767 0
M  V30 21590 C 2006.73 1.75828 -1.4951 0
M  V30 21591 C 2007.7 1.62496 -0.344109 0
M  V30 21592 O 2008.88 1.82631 -0.552323 0
M  V30 21593 C 2006.02 3.14017 -1.43134 0
M  V30 21594 C 2005.14 3.38428 -2.68496 0
M  V30 21595 C 2004.27 4.66507 -2.54056 0
M  V30 21596 C 2003.31 4.84049 -3.74651 0
M  V30 21597 N 2002.45 6.03392 -3.58974 0
M  V30 21598 H 2007.29 1.70254 -2.44576 0
M  V30 21599 H 2004.82 0.830729 -1.21397 0
M  V30 21600 H 2006.78 3.93915 -1.37431 0
M  V30 21601 H 2005.41 3.18642 -0.516449 0
M  V30 21602 H 2004.46 2.52574 -2.84448 0
M  V30 21603 H 2005.78 3.47274 -3.58054 0
M  V30 21604 H 2004.93 5.54543 -2.46103 0
M  V30 21605 H 2003.67 4.59996 -1.62035 0
M  V30 21606 H 2002.67 3.94447 -3.83004 0
M  V30 21607 H 2003.9 4.92385 -4.67689 0
M  V30 21608 H 2001.85 5.97998 -2.69694 0
M  V30 21609 H 2001.76 6.13229 -4.42138 0
M  V30 21610 H 2003.03 6.94029 -3.54887 0
M  V30 21611 N 2007.26 1.30423 0.884744 0
M  V30 21612 C 2008.21 1.16824 1.9905 0
M  V30 21613 C 2009.18 0.0576868 1.66 0
M  V30 21614 O 2010.36 0.227913 1.89434 0
M  V30 21615 C 2007.5 0.866281 3.3405 0
M  V30 21616 C 2006.61 2.05874 3.79789 0
M  V30 21617 C 2005.75 1.69484 5.03437 0
M  V30 21618 C 2004.79 2.85224 5.41585 0
M  V30 21619 N 2003.93 2.49129 6.56414 0
M  V30 21620 H 2008.77 2.1142 2.10013 0
M  V30 21621 H 2006.3 1.05188 1.02829 0
M  V30 21622 H 2008.26 0.671829 4.11755 0
M  V30 21623 H 2006.89 -0.0428113 3.22772 0
M  V30 21624 H 2005.94 2.36443 2.97992 0
M  V30 21625 H 2007.25 2.92549 4.04001 0
M  V30 21626 H 2006.41 1.46416 5.88768 0
M  V30 21627 H 2005.15 0.799794 4.81097 0
M  V30 21628 H 2004.15 3.08958 4.5478 0
M  V30 21629 H 2005.38 3.75416 5.65897 0
M  V30 21630 H 2003.32 1.6213 6.35649 0
M  V30 21631 H 2003.24 3.29336 6.80495 0
M  V30 21632 H 2004.51 2.29417 7.44975 0
M  V30 21633 N 2008.74 -1.09711 1.13142 0
M  V30 21634 C 2009.96 -1.86136 0.914785 0
M  V30 21635 C 2010.39 -1.80448 -0.531035 0
M  V30 21636 O 2009.75 -1.17983 -1.37658 0
M  V30 21637 C 2009.79 -3.32164 1.40356 0
M  V30 21638 O 2008.9 -4.08203 0.586881 0
M  V30 21639 H 2008.24 -0.577287 0.328079 0
M  V30 21640 H 2010.77 -1.38563 1.50537 0
M  V30 21641 H 2010.78 -3.83013 1.40589 0
M  V30 21642 H 2009.45 -3.35619 2.45628 0
M  V30 21643 H 2008.03 -3.67153 0.652163 0
M  V30 21644 N 2010.22 -0.924476 -1.27637 0
M  V30 21645 C 2011.49 -0.481742 -1.89575 0
M  V30 21646 C 2011.87 1.04002 -1.83703 0
M  V30 21647 O 2011.22 1.89277 -1.28009 0
M  V30 21648 C 2011.43 -1.02419 -3.33633 0
M  V30 21649 C 2012.78 -1.08274 -4.10563 0
M  V30 21650 O 2013.8 -0.97359 -3.42636 0
M  V30 21651 O 2012.66 -1.25042 -5.32003 0
M  V30 21652 H 2009.76 -0.15444 -0.812451 0
M  V30 21653 H 2012.3 -1.01596 -1.35928 0
M  V30 21654 H 2011.07 -2.06808 -3.32184 0
M  V30 21655 H 2010.7 -0.471435 -3.94795 0
M  V30 21656 N 2011.69 1.41711 -0.689627 0
M  V30 21657 C 2012.62 2.33474 -0.0348045 0
M  V30 21658 C 2013.61 1.51494 0.773533 0
M  V30 21659 O 2014.79 1.8005 0.727705 0
M  V30 21660 C 2011.92 3.35259 0.906573 0
M  V30 21661 C 2010.87 4.27505 0.205762 0
M  V30 21662 C 2010.2 5.19616 1.26109 0
M  V30 21663 C 2011.5 5.14056 -0.92431 0
M  V30 21664 H 2013.19 2.88481 -0.801208 0
M  V30 21665 H 2010.74 1.3871 -0.386738 0
M  V30 21666 H 2012.69 3.98375 1.37386 0
M  V30 21667 H 2011.42 2.78589 1.70457 0
M  V30 21668 H 2010.08 3.65804 -0.241437 0
M  V30 21669 H 2009.72 4.59264 2.05147 0
M  V30 21670 H 2009.42 5.82167 0.797221 0
M  V30 21671 H 2010.95 5.85609 1.72901 0
M  V30 21672 H 2012.36 5.70774 -0.537573 0
M  V30 21673 H 2010.76 5.85517 -1.3149 0
M  V30 21674 H 2011.83 4.51574 -1.7666 0
M  V30 21675 N 2013.17 0.433965 1.51507 0
M  V30 21676 C 2014.42 -0.133365 2.01659 0
M  V30 21677 C 2014.74 -1.43506 1.32026 0
M  V30 21678 O 2014.01 -1.90572 0.453774 0
M  V30 21679 H 2012.59 -0.0522753 0.745169 0
M  V30 21680 H 2015.25 0.575899 1.86197 0
M  V30 21681 H 2014.35 -0.311697 3.1054 0
M  V30 21682 N 2014.65 -1.56732 0.165206 0
M  V30 21683 C 2015.58 -2.13493 -0.805985 0
M  V30 21684 C 2016.56 -1.06335 -1.23011 0
M  V30 21685 O 2017.75 -1.34275 -1.32297 0
M  V30 21686 C 2014.87 -2.6695 -2.08459 0
M  V30 21687 C 2013.92 -3.86423 -1.80497 0
M  V30 21688 S 2014.75 -5.26462 -0.979671 0
M  V30 21689 C 2015.91 -5.83321 -2.26908 0
M  V30 21690 H 2016.14 -2.95536 -0.32336 0
M  V30 21691 H 2013.67 -1.54321 -0.0493706 0
M  V30 21692 H 2015.63 -2.98398 -2.81903 0
M  V30 21693 H 2014.29 -1.85003 -2.53836 0
M  V30 21694 H 2013.49 -4.22134 -2.75352 0
M  V30 21695 H 2013.09 -3.55831 -1.15153 0
M  V30 21696 H 2015.38 -5.95863 -3.22419 0
M  V30 21697 H 2016.32 -6.80527 -1.95675 0
M  V30 21698 H 2016.73 -5.11694 -2.38388 0
M  V30 21699 N 2016.13 0.10854 -1.57226 0
M  V30 21700 C 2017.06 1.15853 -1.97764 0
M  V30 21701 C 2018.07 1.37073 -0.878345 0
M  V30 21702 O 2019.26 1.35963 -1.15657 0
M  V30 21703 C 2016.36 2.51663 -2.26978 0
M  V30 21704 C 2015.54 2.50904 -3.58282 0
M  V30 21705 C 2014.59 3.68538 -3.75588 0
M  V30 21706 O 2013.62 3.51644 -4.47588 0
M  V30 21707 N 2014.82 4.87507 -3.15146 0
M  V30 21708 H 2017.59 0.81361 -2.88445 0
M  V30 21709 H 2015.15 0.29769 -1.5914 0
M  V30 21710 H 2017.14 3.28936 -2.35761 0
M  V30 21711 H 2015.71 2.78297 -1.42372 0
M  V30 21712 H 2014.93 1.59271 -3.60592 0
M  V30 21713 H 2016.22 2.47463 -4.44567 0
M  V30 21714 H 2015.62 5.04137 -2.56637 0
M  V30 21715 H 2014.17 5.6242 -3.29434 0
M  V30 21716 N 2017.61 1.52975 0.379009 0
M  V30 21717 C 2018.83 1.72698 1.14849 0
M  V30 21718 C 2019.26 0.448814 1.82667 0
M  V30 21719 O 2018.61 -0.596182 1.71217 0
M  V30 21720 C 2018.66 2.884 2.16466 0
M  V30 21721 O 2017.77 2.56071 3.23267 0
M  V30 21722 H 2017.11 0.573952 0.333878 0
M  V30 21723 H 2019.64 1.99807 0.440243 0
M  V30 21724 H 2019.65 3.14183 2.60295 0
M  V30 21725 H 2018.32 3.8112 1.66494 0
M  V30 21726 H 2016.9 2.41063 2.84505 0
M  V30 21727 N 2019.08 -0.63804 1.44107 0
M  V30 21728 C 2020.05 -1.7322 1.50092 0
M  V30 21729 C 2021.05 -1.56153 0.383763 0
M  V30 21730 O 2022.24 -1.61774 0.646118 0
M  V30 21731 C 2019.37 -3.1224 1.36818 0
M  V30 21732 H 2020.56 -1.6929 2.4755 0
M  V30 21733 H 2018.12 -0.851079 1.31097 0
M  V30 21734 H 2018.85 -3.2177 0.404269 0
M  V30 21735 H 2018.64 -3.26033 2.17818 0
M  V30 21736 H 2020.13 -3.91997 1.43972 0
M  V30 21737 N 2020.56 -1.3089 -0.877815 0
M  V30 21738 C 2021.79 -1.23068 -1.66319 0
M  V30 21739 C 2022.21 0.205309 -1.8768 0
M  V30 21740 O 2021.56 1.13467 -1.42939 0
M  V30 21741 C 2021.61 -1.96305 -3.03557 0
M  V30 21742 O 2021.33 -3.34298 -2.83154 0
M  V30 21743 C 2022.84 -1.95228 -3.97996 0
M  V30 21744 H 2020.06 -0.425583 -0.518768 0
M  V30 21745 H 2022.6 -1.72636 -1.09623 0
M  V30 21746 H 2020.75 -1.50518 -3.56964 0
M  V30 21747 H 2021.17 -3.71486 -3.70268 0
M  V30 21748 H 2022.64 -2.50997 -4.91635 0
M  V30 21749 H 2023.12 -0.932904 -4.29178 0
M  V30 21750 H 2023.73 -2.40858 -3.50525 0
M  V30 21751 N 2022.04 1.0911 -1.13723 0
M  V30 21752 C 2023.29 1.81621 -0.902319 0
M  V30 21753 C 2023.62 1.85646 0.570009 0
M  V30 21754 O 2022.89 1.32706 1.42195 0
M  V30 21755 C 2023.18 3.27604 -1.49492 0
M  V30 21756 C 2023.03 3.3183 -3.03659 0
M  V30 21757 C 2024.35 4.24378 -1.16581 0
M  V30 21758 H 2021.47 0.659374 -0.329233 0
M  V30 21759 H 2024.11 1.27792 -1.40603 0
M  V30 21760 H 2022.26 3.73574 -1.06653 0
M  V30 21761 H 2023.93 2.94239 -3.55276 0
M  V30 21762 H 2022.18 2.71317 -3.38481 0
M  V30 21763 H 2022.85 4.34686 -3.40224 0
M  V30 21764 H 2025.32 3.8671 -1.53604 0
M  V30 21765 H 2024.2 5.24853 -1.60688 0
M  V30 21766 H 2024.46 4.42028 -0.0800013 0
M  V30 21767 N 2023.52 0.931232 1.27145 0
M  V30 21768 C 2024.77 0.572394 1.93825 0
M  V30 21769 C 2025.09 -0.88981 1.73515 0
M  V30 21770 O 2024.36 -1.63113 1.08494 0
M  V30 21771 H 2022.94 0.2087 0.717254 0
M  V30 21772 H 2025.6 1.18439 1.54784 0
M  V30 21773 H 2024.7 0.781679 3.02153 0
M  V30 21774 N 2025 -1.41343 0.697132 0
M  V30 21775 C 2026.25 -2.00432 0.225852 0
M  V30 21776 C 2026.56 -1.55857 -1.18186 0
M  V30 21777 O 2027.77 -2.07516 -1.75069 0
M  V30 21778 C 2026.22 -3.58166 0.352888 0
M  V30 21779 C 2025.83 -4.11721 1.76607 0
M  V30 21780 C 2027.57 -4.2446 -0.0585393 0
M  V30 21781 C 2025.48 -5.61895 1.84467 0
M  V30 21782 H 2024.41 -0.749671 0.0806811 0
M  V30 21783 H 2027.06 -1.61804 0.865556 0
M  V30 21784 H 2025.44 -3.94405 -0.355093 0
M  V30 21785 H 2026.62 -3.86898 2.50293 0
M  V30 21786 H 2024.93 -3.57959 2.12731 0
M  V30 21787 H 2027.53 -5.34696 -0.0202684 0
M  V30 21788 H 2027.87 -4.01572 -1.09752 0
M  V30 21789 H 2028.41 -3.93261 0.599221 0
M  V30 21790 H 2025.14 -5.89612 2.86423 0
M  V30 21791 H 2024.66 -5.8864 1.15167 0
M  V30 21792 H 2026.34 -6.26692 1.60828 0
M  V30 21793 N 2026.48 -0.441993 -1.51275 0
M  V30 21794 C 2027.75 0.183076 -1.94741 0
M  V30 21795 C 2028.13 1.59668 -1.38092 0
M  V30 21796 O 2027.48 2.21279 -0.569882 0
M  V30 21797 C 2027.69 0.156071 -3.48651 0
M  V30 21798 C 2029.04 0.359351 -4.23077 0
M  V30 21799 O 2030.06 0.233977 -3.55431 0
M  V30 21800 O 2028.92 0.609358 -5.43092 0
M  V30 21801 H 2026.02 0.127455 -0.817119 0
M  V30 21802 H 2028.56 -0.500307 -1.62157 0
M  V30 21803 H 2027.33 -0.832021 -3.82352 0
M  V30 21804 H 2026.96 0.882165 -3.8769 0
M  V30 21805 N 2027.95 1.56642 -0.173515 0
M  V30 21806 C 2029.2 1.97241 0.47157 0
M  V30 21807 C 2029.53 1.05958 1.62747 0
M  V30 21808 O 2028.81 0.107151 1.94205 0
M  V30 21809 C 2029.09 3.47276 0.952439 0
M  V30 21810 C 2028.94 4.49338 -0.203789 0
M  V30 21811 C 2030.26 4.00461 1.82535 0
M  V30 21812 H 2027.38 0.71714 0.169941 0
M  V30 21813 H 2030.02 1.88211 -0.260093 0
M  V30 21814 H 2028.17 3.55102 1.57591 0
M  V30 21815 H 2029.85 4.5357 -0.840936 0
M  V30 21816 H 2028.09 4.25211 -0.858945 0
M  V30 21817 H 2028.76 5.51723 0.174833 0
M  V30 21818 H 2031.24 3.9528 1.29974 0
M  V30 21819 H 2030.11 5.05853 2.13083 0
M  V30 21820 H 2030.37 3.44409 2.7719 0
M  V30 21821 N 2029.43 -0.1002 1.57281 0
M  V30 21822 C 2030.38 -1.12192 2.01697 0
M  V30 21823 C 2031.35 -1.40092 0.892374 0
M  V30 21824 O 2032.53 -1.51641 1.158 0
M  V30 21825 C 2029.67 -2.43833 2.44212 0
M  V30 21826 C 2028.79 -2.22707 3.70169 0
M  V30 21827 C 2027.92 -3.47711 4.01585 0
M  V30 21828 C 2026.96 -3.21825 5.20668 0
M  V30 21829 N 2026.1 -4.39081 5.47862 0
M  V30 21830 H 2030.94 -0.736171 2.88764 0
M  V30 21831 H 2028.47 -0.351977 1.42827 0
M  V30 21832 H 2030.43 -3.20652 2.66904 0
M  V30 21833 H 2029.06 -2.80264 1.60162 0
M  V30 21834 H 2028.11 -1.36715 3.54983 0
M  V30 21835 H 2029.43 -1.99568 4.57137 0
M  V30 21836 H 2028.58 -4.3294 4.25027 0
M  V30 21837 H 2027.32 -3.739 3.1313 0
M  V30 21838 H 2026.32 -2.34988 4.97052 0
M  V30 21839 H 2027.55 -2.96987 6.10717 0
M  V30 21840 H 2025.5 -4.65355 4.62364 0
M  V30 21841 H 2025.41 -4.19114 6.2919 0
M  V30 21842 H 2026.68 -5.2539 5.75835 0
M  V30 21843 N 2030.91 -1.53174 -0.370891 0
M  V30 21844 C 2032.19 -1.59697 -1.12943 0
M  V30 21845 C 2032.57 -0.401233 -2.07252 0
M  V30 21846 O 2031.91 0.608973 -2.20236 0
M  V30 21847 C 2032.12 -2.94469 -1.87321 0
M  V30 21848 C 2033.47 -3.48856 -2.42043 0
M  V30 21849 O 2034.5 -2.96463 -1.97455 0
M  V30 21850 O 2033.36 -4.40436 -3.2354 0
M  V30 21851 H 2030.45 -0.644835 -0.5178 0
M  V30 21852 H 2033 -1.65514 -0.374583 0
M  V30 21853 H 2031.77 -3.72938 -1.18462 0
M  V30 21854 H 2031.39 -2.92119 -2.69727 0
M  V30 21855 N 2032.39 0.630389 -1.44443 0
M  V30 21856 C 2033.63 1.39018 -1.48477 0
M  V30 21857 C 2033.99 1.9205 -0.115923 0
M  V30 21858 O 2033.28 1.70763 0.868947 0
M  V30 21859 C 2033.48 2.57255 -2.48102 0
M  V30 21860 C 2033.3 2.15799 -3.94539 0
M  V30 21861 C 2032.07 2.03042 -4.62712 0
M  V30 21862 C 2034.27 1.74665 -4.83732 0
M  V30 21863 N 2032.25 1.55156 -5.9397 0
M  V30 21864 C 2033.63 1.38029 -6.0444 0
M  V30 21865 C 2035.68 1.62052 -4.7079 0
M  V30 21866 C 2034.38 0.900418 -7.13642 0
M  V30 21867 C 2036.41 1.15469 -5.80018 0
M  V30 21868 C 2035.77 0.797841 -6.99867 0
M  V30 21869 H 2031.87 0.503484 -0.598354 0
M  V30 21870 H 2034.45 0.723102 -1.80774 0
M  V30 21871 H 2032.63 3.2159 -2.17794 0
M  V30 21872 H 2034.36 3.24054 -2.42427 0
M  V30 21873 H 2031.11 2.23519 -4.17536 0
M  V30 21874 H 2031.54 1.3351 -6.63705 0
M  V30 21875 H 2036.18 1.88273 -3.78567 0
M  V30 21876 H 2033.9 0.625723 -8.05674 0
M  V30 21877 H 2037.48 1.06167 -5.72031 0
M  V30 21878 H 2036.36 0.442908 -7.82948 0
M  V30 21879 N 2033.87 1.31354 0.870861 0
M  V30 21880 C 2035.28 1.18891 1.43951 0
M  V30 21881 C 2035.63 -0.204961 1.95126 0
M  V30 21882 O 2034.75 -1.10266 1.862 0
M  V30 21883 C 2035.35 2.15226 2.61655 0
M  V30 21884 C 2033.91 2.06699 3.14567 0
M  V30 21885 C 2033.05 2.04505 1.87277 0
M  V30 21886 H 2036 1.43418 0.679486 0
M  V30 21887 H 2036.03 1.74134 3.38316 0
M  V30 21888 H 2035.54 3.16664 2.24378 0
M  V30 21889 H 2033.64 1.08452 3.56467 0
M  V30 21890 H 2033.75 2.95763 3.7691 0
M  V30 21891 H 2032.12 1.49508 2.06202 0
M  V30 21892 H 2032.9 3.07698 1.52239 0
M  V30 21893 N 2035.34 -1.08505 1.143 0
M  V30 21894 C 2036.59 -1.80248 0.90519 0
M  V30 21895 C 2036.91 -1.87116 -0.56981 0
M  V30 21896 O 2038.11 -2.55262 -0.924844 0
M  V30 21897 C 2036.57 -3.23851 1.56998 0
M  V30 21898 C 2036.18 -3.2522 3.08117 0
M  V30 21899 C 2037.92 -4.00284 1.41325 0
M  V30 21900 C 2035.83 -4.63405 3.67437 0
M  V30 21901 H 2034.76 -0.67549 0.335007 0
M  V30 21902 H 2037.41 -1.21877 1.3718 0
M  V30 21903 H 2035.79 -3.82342 1.03104 0
M  V30 21904 H 2036.96 -2.76441 3.68669 0
M  V30 21905 H 2035.28 -2.62281 3.23415 0
M  V30 21906 H 2037.88 -5.02393 1.83046 0
M  V30 21907 H 2038.22 -4.14747 0.359236 0
M  V30 21908 H 2038.75 -3.4826 1.9225 0
M  V30 21909 H 2035.49 -4.54145 4.72686 0
M  V30 21910 H 2035.01 -5.1247 3.11665 0
M  V30 21911 H 2036.69 -5.3238 3.6767 0
M  V30 21912 N 2036.82 -0.937962 -1.26649 0
M  V30 21913 C 2037.75 -0.402342 -2.25641 0
M  V30 21914 C 2038.77 0.472614 -1.55789 0
M  V30 21915 O 2039.96 0.283579 -1.76233 0
M  V30 21916 C 2037.06 0.441157 -3.36016 0
M  V30 21917 C 2036.23 -0.416892 -4.35409 0
M  V30 21918 C 2035.29 0.365644 -5.24928 0
M  V30 21919 O 2034.31 -0.230215 -5.68734 0
M  V30 21920 N 2035.52 1.66298 -5.5617 0
M  V30 21921 H 2038.28 -1.25333 -2.72235 0
M  V30 21922 H 2035.84 -0.806494 -1.40383 0
M  V30 21923 H 2037.83 0.971979 -3.92855 0
M  V30 21924 H 2036.4 1.19293 -2.88943 0
M  V30 21925 H 2035.62 -1.12895 -3.77688 0
M  V30 21926 H 2036.91 -1.00313 -4.98813 0
M  V30 21927 H 2036.31 2.16925 -5.22456 0
M  V30 21928 H 2034.87 2.14011 -6.15664 0
M  V30 21929 N 2038.3 1.40971 -0.704618 0
M  V30 21930 C 2039.55 2.00309 -0.236478 0
M  V30 21931 C 2039.86 1.56482 1.17358 0
M  V30 21932 O 2041.07 2.08442 1.73966 0
M  V30 21933 C 2039.52 3.57974 -0.371877 0
M  V30 21934 C 2039.13 4.10779 -1.78788 0
M  V30 21935 C 2040.88 4.24485 0.0360284 0
M  V30 21936 C 2038.78 5.60909 -1.87445 0
M  V30 21937 H 2037.71 0.749233 -0.0846557 0
M  V30 21938 H 2040.36 1.61342 -0.874125 0
M  V30 21939 H 2038.75 3.94587 0.334172 0
M  V30 21940 H 2039.92 3.85565 -2.52342 0
M  V30 21941 H 2038.23 3.56826 -2.14626 0
M  V30 21942 H 2040.83 5.34699 -0.00808813 0
M  V30 21943 H 2041.17 4.02149 1.07621 0
M  V30 21944 H 2041.71 3.92938 -0.620069 0
M  V30 21945 H 2038.45 5.88084 -2.89546 0
M  V30 21946 H 2037.97 5.88021 -1.18287 0
M  V30 21947 H 2039.65 6.25831 -1.6415 0
M  V30 21948 N 2039.78 0.45001 1.51039 0
M  V30 21949 C 2041.19 0.10298 1.59267 0
M  V30 21950 C 2041.39 -1.38881 1.45995 0
M  V30 21951 O 2040.45 -2.16003 1.30763 0
M  V30 21952 C 2041.76 0.634392 2.93932 0
M  V30 21953 C 2043.31 0.59595 3.07274 0
M  V30 21954 C 2043.79 1.10455 4.44481 0
M  V30 21955 N 2045.28 1.06307 4.50836 0
M  V30 21956 C 2046.01 1.42733 5.55351 0
M  V30 21957 N 2045.51 1.86506 6.67224 0
M  V30 21958 N 2047.3 1.34469 5.45779 0
M  V30 21959 H 2039.45 1.42049 1.57911 0
M  V30 21960 H 2041.72 0.586142 0.745078 0
M  V30 21961 H 2041.42 1.67863 3.09055 0
M  V30 21962 H 2041.3 0.0662668 3.77142 0
M  V30 21963 H 2043.68 -0.439332 2.91811 0
M  V30 21964 H 2043.76 1.20063 2.25873 0
M  V30 21965 H 2043.41 2.13836 4.60692 0
M  V30 21966 H 2043.34 0.476284 5.24442 0
M  V30 21967 H 2045.83 0.741765 3.70549 0
M  V30 21968 H 2046.14 2.12505 7.43009 0
M  V30 21969 H 2044.49 1.90443 6.68398 0
M  V30 21970 H 2047.68 1.00128 4.57266 0
M  V30 21971 H 2047.85 1.63185 6.27116 0
M  V30 21972 N 2041.26 -1.56548 0.18182 0
M  V30 21973 C 2042.53 -1.88906 -0.507337 0
M  V30 21974 C 2042.91 -1.09334 -1.80581 0
M  V30 21975 O 2042.26 -0.190397 -2.27705 0
M  V30 21976 C 2042.47 -3.41085 -0.73904 0
M  V30 21977 C 2043.82 -4.11043 -1.06435 0
M  V30 21978 O 2044.84 -3.46461 -0.82722 0
M  V30 21979 O 2043.7 -5.2516 -1.51225 0
M  V30 21980 H 2040.8 -0.784135 -0.262794 0
M  V30 21981 H 2043.34 -1.68254 0.221041 0
M  V30 21982 H 2042.11 -3.90893 0.17847 0
M  V30 21983 H 2041.74 -3.67384 -1.52036 0
M  V30 21984 N 2042.73 0.0918577 -1.57332 0
M  V30 21985 C 2043.68 1.11121 -2.02289 0
M  V30 21986 C 2044.65 1.39617 -0.899791 0
M  V30 21987 O 2045.84 1.51025 -1.16602 0
M  V30 21988 C 2042.98 2.42534 -2.45502 0
M  V30 21989 C 2042.09 2.20741 -3.71345 0
M  V30 21990 C 2041.22 3.45576 -4.03424 0
M  V30 21991 C 2040.26 3.19059 -5.22368 0
M  V30 21992 N 2039.4 4.36169 -5.50182 0
M  V30 21993 H 2044.24 0.720847 -2.8915 0
M  V30 21994 H 2041.78 0.344398 -1.43012 0
M  V30 21995 H 2043.74 3.19232 -2.68601 0
M  V30 21996 H 2042.37 2.79411 -1.61646 0
M  V30 21997 H 2041.42 1.3483 -3.55704 0
M  V30 21998 H 2042.73 1.97141 -4.58189 0
M  V30 21999 H 2041.88 4.3068 -4.27317 0
M  V30 22000 H 2040.62 3.72234 -3.15108 0
M  V30 22001 H 2039.63 2.32349 -4.98291 0
M  V30 22002 H 2040.85 2.93744 -6.12284 0
M  V30 22003 H 2038.8 4.62896 -4.64826 0
M  V30 22004 H 2038.72 4.15771 -6.31404 0
M  V30 22005 H 2039.98 5.22328 -5.78613 0
M  V30 22006 N 2044.21 1.53368 0.362763 0
M  V30 22007 C 2045.63 1.43203 0.704623 0
M  V30 22008 C 2045.83 0.573363 1.9317 0
M  V30 22009 O 2044.88 0.0568943 2.52436 0
M  V30 22010 C 2046.2 2.86434 0.915198 0
M  V30 22011 C 2047.75 2.96085 1.01503 0
M  V30 22012 C 2048.22 4.40383 1.25806 0
M  V30 22013 N 2049.71 4.43824 1.32569 0
M  V30 22014 C 2050.45 5.52586 1.53089 0
M  V30 22015 N 2049.94 6.71389 1.70906 0
M  V30 22016 N 2051.74 5.40169 1.55481 0
M  V30 22017 H 2043.89 2.07701 -0.444302 0
M  V30 22018 H 2046.15 0.938087 -0.136733 0
M  V30 22019 H 2045.86 3.51596 0.0853212 0
M  V30 22020 H 2045.73 3.3025 1.82249 0
M  V30 22021 H 2048.12 2.31074 1.83545 0
M  V30 22022 H 2048.2 2.55659 0.0850686 0
M  V30 22023 H 2047.84 5.05967 0.442642 0
M  V30 22024 H 2047.77 4.78384 2.20128 0
M  V30 22025 H 2050.26 3.58206 1.20402 0
M  V30 22026 H 2050.58 7.50047 1.86144 0
M  V30 22027 H 2048.92 6.7437 1.68079 0
M  V30 22028 H 2052.11 4.46318 1.41131 0
M  V30 22029 H 2052.28 6.24994 1.71131 0
M  V30 22030 N 2045.69 -0.62272 1.44776 0
M  V30 22031 C 2046.64 -1.73427 1.52288 0
M  V30 22032 C 2047.61 -1.61928 0.369917 0
M  V30 22033 O 2048.79 -1.81729 0.581308 0
M  V30 22034 C 2045.93 -3.117 1.48112 0
M  V30 22035 C 2045.05 -3.34114 2.73847 0
M  V30 22036 C 2044.18 -4.62407 2.61445 0
M  V30 22037 C 2043.22 -4.78027 3.82304 0
M  V30 22038 N 2042.36 -5.97605 3.68528 0
M  V30 22039 H 2047.2 -1.66341 2.47254 0
M  V30 22040 H 2044.73 -0.811311 1.22704 0
M  V30 22041 H 2046.69 -3.91678 1.4368 0
M  V30 22042 H 2045.32 -3.1778 0.567076 0
M  V30 22043 H 2044.37 -2.48017 2.8843 0
M  V30 22044 H 2045.69 -3.41533 3.63533 0
M  V30 22045 H 2044.84 -5.50558 2.54894 0
M  V30 22046 H 2043.58 -4.5736 1.69333 0
M  V30 22047 H 2042.58 -3.88303 3.89231 0
M  V30 22048 H 2043.81 -4.84883 4.75464 0
M  V30 22049 H 2041.75 -5.93631 2.79173 0
M  V30 22050 H 2041.67 -6.06118 4.51838 0
M  V30 22051 H 2042.94 -6.88295 3.65883 0
M  V30 22052 N 2047.17 -1.31814 -0.863883 0
M  V30 22053 C 2048.58 -1.10603 -1.15061 0
M  V30 22054 C 2048.78 0.119526 -2.01145 0
M  V30 22055 O 2047.84 0.807099 -2.39253 0
M  V30 22056 C 2049.15 -2.38075 -1.83686 0
M  V30 22057 C 2050.7 -2.43744 -1.96361 0
M  V30 22058 C 2051.18 -3.71113 -2.68401 0
M  V30 22059 N 2052.67 -3.72042 -2.75933 0
M  V30 22060 C 2053.4 -4.67294 -3.32301 0
M  V30 22061 N 2052.9 -5.72905 -3.89553 0
M  V30 22062 N 2054.69 -4.54804 -3.30317 0
M  V30 22063 H 2046.84 -2.10406 -0.290393 0
M  V30 22064 H 2049.11 -0.928505 -0.191264 0
M  V30 22065 H 2048.81 -3.27625 -1.27885 0
M  V30 22066 H 2048.69 -2.48336 -2.83917 0
M  V30 22067 H 2051.07 -1.54659 -2.51326 0
M  V30 22068 H 2051.15 -2.37443 -0.951544 0
M  V30 22069 H 2050.8 -4.60567 -2.14103 0
M  V30 22070 H 2050.73 -3.74682 -3.70028 0
M  V30 22071 H 2053.22 -2.95701 -2.35307 0
M  V30 22072 H 2053.53 -6.41656 -4.30694 0
M  V30 22073 H 2051.88 -5.76671 -3.87911 0
M  V30 22074 H 2055.07 -3.71468 -2.84832 0
M  V30 22075 H 2055.24 -5.29213 -3.73948 0
M  V30 22076 N 2048.65 1.07897 -1.14873 0
M  V30 22077 C 2049.92 1.77077 -0.830842 0
M  V30 22078 C 2050.3 2.00029 0.674654 0
M  V30 22079 O 2049.65 1.61429 1.61719 0
M  V30 22080 C 2049.86 3.08311 -1.63541 0
M  V30 22081 C 2051.21 3.82753 -1.83808 0
M  V30 22082 O 2052.23 3.18107 -1.6027 0
M  V30 22083 O 2051.09 4.98846 -2.23192 0
M  V30 22084 H 2048.19 0.768708 -0.304987 0
M  V30 22085 H 2050.73 1.14313 -1.25422 0
M  V30 22086 H 2049.5 2.87188 -2.6578 0
M  V30 22087 H 2049.13 3.78805 -1.208 0
M  V30 22088 N 2050.12 0.944665 1.2615 0
M  V30 22089 C 2051.05 0.47478 2.28622 0
M  V30 22090 C 2052.04 -0.473742 1.6337 0
M  V30 22091 O 2053.22 -0.374847 1.90548 0
M  V30 22092 C 2050.35 -0.2576 3.46343 0
M  V30 22093 C 2049.3 0.604701 4.23707 0
M  V30 22094 C 2048.63 -0.257841 5.34078 0
M  V30 22095 C 2049.93 1.8778 4.87377 0
M  V30 22096 H 2051.62 1.33122 2.68177 0
M  V30 22097 H 2049.17 0.641555 1.28919 0
M  V30 22098 H 2051.12 -0.597382 4.17144 0
M  V30 22099 H 2049.85 -1.14821 3.05751 0
M  V30 22100 H 2048.51 0.927426 3.54675 0
M  V30 22101 H 2048.15 -1.1479 4.89727 0
M  V30 22102 H 2047.85 0.315739 5.86751 0
M  V30 22103 H 2049.38 -0.592815 6.07715 0
M  V30 22104 H 2050.79 1.60505 5.50374 0
M  V30 22105 H 2049.19 2.39623 5.50182 0
M  V30 22106 H 2050.26 2.58705 4.10122 0
M  V30 22107 N 2051.6 -1.40596 0.712085 0
M  V30 22108 C 2052.85 -2.01247 0.250458 0
M  V30 22109 C 2053.18 -1.56324 -1.15224 0
M  V30 22110 O 2052.46 -0.781734 -1.78099 0
M  V30 22111 C 2052.74 -3.58616 0.326579 0
M  V30 22112 C 2052.59 -4.13622 1.7674 0
M  V30 22113 C 2053.91 -4.39047 -0.304236 0
M  V30 22114 H 2051.03 -0.731174 0.0924819 0
M  V30 22115 H 2053.67 -1.6712 0.903924 0
M  V30 22116 H 2051.82 -3.8782 -0.229796 0
M  V30 22117 H 2053.49 -3.9523 2.37889 0
M  V30 22118 H 2051.74 -3.68042 2.29625 0
M  V30 22119 H 2052.41 -5.22782 1.77208 0
M  V30 22120 H 2054.88 -4.15753 0.169788 0
M  V30 22121 H 2053.76 -5.48457 -0.220511 0
M  V30 22122 H 2054.02 -4.1977 -1.38727 0
M  V30 22123 N 2053.08 -0.458013 -1.50798 0
M  V30 22124 C 2054.01 0.333063 -2.31112 0
M  V30 22125 C 2054.99 1.00231 -1.37433 0
M  V30 22126 O 2056.18 1.00199 -1.66354 0
M  V30 22127 C 2053.31 1.4229 -3.16814 0
M  V30 22128 C 2052.26 0.875993 -4.1894 0
M  V30 22129 C 2051.59 2.06313 -4.93294 0
M  V30 22130 C 2052.89 -0.103786 -5.22197 0
M  V30 22131 H 2054.58 -0.337222 -2.97495 0
M  V30 22132 H 2052.13 -0.163622 -1.43067 0
M  V30 22133 H 2054.08 1.98369 -3.7179 0
M  V30 22134 H 2052.8 2.12177 -2.48291 0
M  V30 22135 H 2051.46 0.337263 -3.65045 0
M  V30 22136 H 2051.11 2.74868 -4.21256 0
M  V30 22137 H 2050.81 1.70348 -5.62366 0
M  V30 22138 H 2052.33 2.62908 -5.511 0
M  V30 22139 H 2053.75 0.367392 -5.72122 0
M  V30 22140 H 2052.15 -0.377048 -5.98914 0
M  V30 22141 H 2053.22 -1.03392 -4.73749 0
M  V30 22142 N 2054.56 1.56449 -0.190119 0
M  V30 22143 C 2055.51 2.20194 0.749479 0
M  V30 22144 C 2056.5 1.1716 1.22352 0
M  V30 22145 O 2057.71 1.35317 1.18699 0
M  V30 22146 H 2054.08 0.705613 0.260028 0
M  V30 22147 H 2056.05 2.97807 0.18808 0
M  V30 22148 C 2054.8 2.87151 1.9606 0
M  V30 22149 H 2054.13 3.66174 1.60489 0
M  V30 22150 H 2055.57 3.35198 2.5965 0
M  V30 22151 C 2054.02 1.87921 2.7962 0
M  V30 22152 O 2054.55 1.37638 3.77384 0
M  V30 22153 N 2052.76 1.5626 2.45013 0
M  V30 22154 H 2052.31 1.97343 1.6557 0
M  V30 22155 H 2052.27 0.901217 3.01207 0
M  V30 22156 N 2056.04 -0.0835127 1.57379 0
M  V30 22157 C 2057.28 -0.786031 1.86948 0
M  V30 22158 C 2057.62 -1.77811 0.780828 0
M  V30 22159 O 2056.89 -1.93362 -0.210075 0
M  V30 22160 C 2057.17 -1.50447 3.27166 0
M  V30 22161 C 2057.03 -0.529601 4.46671 0
M  V30 22162 C 2058.35 -2.45226 3.65448 0
M  V30 22163 H 2055.47 -0.284294 0.67996 0
M  V30 22164 H 2058.11 -0.0494231 1.89936 0
M  V30 22165 H 2056.26 -2.13237 3.24749 0
M  V30 22166 H 2057.93 0.0921842 4.61208 0
M  V30 22167 H 2056.17 0.156069 4.33519 0
M  V30 22168 H 2056.84 -1.06967 5.41537 0
M  V30 22169 H 2059.32 -1.92521 3.68883 0
M  V30 22170 H 2058.2 -2.92505 4.6447 0
M  V30 22171 H 2058.46 -3.29506 2.94751 0
M  V30 22172 N 2057.52 -1.53558 -0.354624 0
M  V30 22173 C 2058.76 -1.71466 -1.09411 0
M  V30 22174 C 2059.12 -0.466375 -1.86662 0
M  V30 22175 O 2058.41 0.540835 -1.83808 0
M  V30 22176 C 2058.6 -2.91096 -2.07359 0
M  V30 22177 C 2058.43 -4.27439 -1.39734 0
M  V30 22178 C 2057.2 -4.92113 -1.14685 0
M  V30 22179 C 2059.4 -5.0757 -0.829317 0
M  V30 22180 N 2057.38 -6.12355 -0.43525 0
M  V30 22181 C 2058.75 -6.19505 -0.247678 0
M  V30 22182 C 2060.81 -4.92533 -0.729077 0
M  V30 22183 C 2059.51 -7.18047 0.424437 0
M  V30 22184 C 2061.54 -5.91358 -0.0707225 0
M  V30 22185 C 2060.9 -7.02623 0.499994 0
M  V30 22186 H 2057 -0.680585 -0.385134 0
M  V30 22187 H 2059.58 -1.90974 -0.379095 0
M  V30 22188 H 2057.75 -2.73109 -2.76163 0
M  V30 22189 H 2059.49 -2.97776 -2.74065 0
M  V30 22190 H 2056.24 -4.51462 -1.43103 0
M  V30 22191 H 2056.66 -6.76934 -0.0944978 0
M  V30 22192 H 2061.31 -4.06688 -1.15607 0
M  V30 22193 H 2059.02 -8.03475 0.863349 0
M  V30 22194 H 2062.61 -5.818 0.00605785 0
M  V30 22195 H 2061.49 -7.7778 1.00136 0
M  V30 22196 N 2058.99 0.615033 -1.45104 0
M  V30 22197 C 2060.27 1.37409 -1.39206 0
M  V30 22198 C 2060.65 2.11018 -0.0588763 0
M  V30 22199 O 2060 2.07402 0.958997 0
M  V30 22200 C 2060.21 2.32712 -2.60089 0
M  V30 22201 C 2061.56 2.95549 -3.04854 0
M  V30 22202 O 2062.58 2.43035 -2.60408 0
M  V30 22203 O 2061.44 3.90854 -3.81963 0
M  V30 22204 H 2058.53 0.615766 -0.552052 0
M  V30 22205 H 2061.08 0.638743 -1.5722 0
M  V30 22206 H 2059.85 1.77529 -3.48711 0
M  V30 22207 H 2059.47 3.13639 -2.4437 0
M  V30 22208 N 2060.47 1.3227 0.85688 0
M  V30 22209 C 2061.72 1.22703 1.6109 0
M  V30 22210 C 2062.05 -0.211682 1.93345 0
M  V30 22211 O 2061.3 -1.16408 1.57314 0
M  V30 22212 C 2061.6 2.02967 2.94175 0
M  V30 22213 C 2061.27 3.52346 2.8136 0
M  V30 22214 C 2059.93 3.93074 2.77572 0
M  V30 22215 C 2062.28 4.47347 2.67452 0
M  V30 22216 C 2059.61 5.27049 2.57751 0
M  V30 22217 C 2061.96 5.81463 2.49167 0
M  V30 22218 C 2060.62 6.21396 2.4377 0
M  V30 22219 H 2059.89 0.449003 0.589472 0
M  V30 22220 H 2062.54 1.63673 0.994156 0
M  V30 22221 H 2060.85 1.54719 3.59957 0
M  V30 22222 H 2062.54 1.92936 3.51535 0
M  V30 22223 H 2059.13 3.19997 2.85132 0
M  V30 22224 H 2063.32 4.16802 2.69424 0
M  V30 22225 H 2058.57 5.57048 2.52007 0
M  V30 22226 H 2062.75 6.54692 2.37384 0
M  V30 22227 H 2060.37 7.2515 2.28171 0
M  V30 22228 N 2061.95 -1.07287 1.15444 0
M  V30 22229 C 2062.91 -2.12679 0.854419 0
M  V30 22230 C 2063.91 -1.60135 -0.146116 0
M  V30 22231 O 2065.1 -1.73999 0.0835953 0
M  V30 22232 C 2062.23 -3.39782 0.275849 0
M  V30 22233 H 2063.43 -2.40726 1.7886 0
M  V30 22234 H 2060.98 -1.23187 0.96201 0
M  V30 22235 H 2061.72 -3.17377 -0.666496 0
M  V30 22236 H 2061.5 -3.79222 0.996665 0
M  V30 22237 H 2062.99 -4.17516 0.0835417 0
M  V30 22238 N 2063.43 -0.951342 -1.25647 0
M  V30 22239 C 2064.68 -0.603157 -1.9289 0
M  V30 22240 C 2065 0.862093 -1.74908 0
M  V30 22241 O 2064.27 1.61366 -1.11075 0
M  V30 22242 H 2062.85 -0.220085 -0.713843 0
M  V30 22243 H 2065.51 -1.20887 -1.5288 0
M  V30 22244 H 2064.6 -0.82965 -3.00871 0
M  V30 22245 N 2064.91 1.40216 -0.719531 0
M  V30 22246 C 2066.32 1.54673 -0.393494 0
M  V30 22247 C 2066.52 1.69001 1.09732 0
M  V30 22248 O 2065.58 1.6818 1.88339 0
M  V30 22249 C 2066.89 2.77299 -1.163 0
M  V30 22250 C 2068.44 2.9112 -1.14969 0
M  V30 22251 C 2068.91 4.16665 -1.90143 0
M  V30 22252 N 2070.4 4.23673 -1.87232 0
M  V30 22253 C 2071.14 5.19729 -2.42219 0
M  V30 22254 N 2070.64 6.21669 -3.05778 0
M  V30 22255 N 2072.43 5.11835 -2.32338 0
M  V30 22256 H 2064.58 1.29162 -1.68614 0
M  V30 22257 H 2066.84 0.624867 -0.712914 0
M  V30 22258 H 2066.55 2.73003 -2.21726 0
M  V30 22259 H 2066.42 3.69521 -0.757213 0
M  V30 22260 H 2068.81 2.94918 -0.103615 0
M  V30 22261 H 2068.89 2.00005 -1.59473 0
M  V30 22262 H 2068.53 4.13629 -2.94744 0
M  V30 22263 H 2068.46 5.06796 -1.43057 0
M  V30 22264 H 2070.96 3.50645 -1.40914 0
M  V30 22265 H 2071.27 6.91396 -3.45241 0
M  V30 22266 H 2069.61 6.22101 -3.09863 0
M  V30 22267 H 2072.8 4.31127 -1.82338 0
M  V30 22268 H 2072.98 5.86522 -2.75492 0
M  V30 22269 N 2066.38 0.466004 1.50553 0
M  V30 22270 C 2067.29 -0.33625 2.32178 0
M  V30 22271 C 2068.31 -1.00081 1.42337 0
M  V30 22272 O 2069.49 -0.989904 1.75393 0
M  V30 22273 C 2066.55 -1.40682 3.16875 0
M  V30 22274 C 2065.61 -0.759384 4.2253 0
M  V30 22275 C 2064.84 -1.77894 5.03179 0
M  V30 22276 O 2065.07 -3.00483 4.84836 0
M  V30 22277 O 2064 -1.35358 5.86483 0
M  V30 22278 H 2067.83 0.330908 3.01892 0
M  V30 22279 H 2065.41 0.22795 1.47651 0
M  V30 22280 H 2067.29 -2.02704 3.69444 0
M  V30 22281 H 2065.97 -2.05753 2.49894 0
M  V30 22282 H 2064.88 -0.100338 3.73965 0
M  V30 22283 H 2066.21 -0.151694 4.91966 0
M  V30 22284 N 2067.86 -1.56346 0.198413 0
M  V30 22285 C 2068.77 -2.22855 -0.733001 0
M  V30 22286 C 2069.79 -1.22868 -1.23205 0
M  V30 22287 O 2070.96 -1.55615 -1.27852 0
M  V30 22288 C 2068.03 -2.87746 -1.93399 0
M  V30 22289 C 2067.09 -4.03012 -1.47919 0
M  V30 22290 C 2066.32 -4.64799 -2.62293 0
M  V30 22291 O 2066.55 -4.25516 -3.79859 0
M  V30 22292 O 2065.48 -5.54206 -2.34817 0
M  V30 22293 H 2069.31 -3.03063 -0.196563 0
M  V30 22294 H 2066.89 -1.49368 -0.0310254 0
M  V30 22295 H 2068.77 -3.28788 -2.63584 0
M  V30 22296 H 2067.45 -2.10514 -2.45897 0
M  V30 22297 H 2066.35 -3.66586 -0.746038 0
M  V30 22298 H 2067.69 -4.81917 -1.00084 0
M  V30 22299 N 2069.34 0.0751653 -1.57421 0
M  V30 22300 C 2070.59 0.774958 -1.87085 0
M  V30 22301 C 2070.92 1.77747 -0.789691 0
M  V30 22302 O 2070.17 1.94519 0.214672 0
M  V30 22303 C 2070.47 1.52138 -3.23402 0
M  V30 22304 C 2070.14 0.659153 -4.46056 0
M  V30 22305 C 2068.8 0.421528 -4.7935 0
M  V30 22306 C 2071.15 0.0610407 -5.21164 0
M  V30 22307 C 2068.48 -0.423745 -5.85168 0
M  V30 22308 C 2070.83 -0.771668 -6.27876 0
M  V30 22309 C 2069.49 -1.0192 -6.59673 0
M  V30 22310 H 2068.76 0.283577 -0.684591 0
M  V30 22311 H 2071.41 0.0358311 -1.91466 0
M  V30 22312 H 2069.72 2.33261 -3.14796 0
M  V30 22313 H 2071.41 2.06757 -3.43588 0
M  V30 22314 H 2068 0.854487 -4.19996 0
M  V30 22315 H 2072.19 0.231747 -4.95759 0
M  V30 22316 H 2067.44 -0.6243 -6.08204 0
M  V30 22317 H 2071.62 -1.24188 -6.85237 0
M  V30 22318 H 2069.24 -1.67595 -7.41496 0
M  V30 22319 N 2070.82 1.53744 0.346476 0
M  V30 22320 C 2072.05 1.7453 1.10557 0
M  V30 22321 C 2072.46 0.482996 1.82931 0
M  V30 22322 O 2071.8 -0.554895 1.75119 0
M  V30 22323 C 2071.86 2.86918 2.16606 0
M  V30 22324 C 2071.53 4.26624 1.63832 0
M  V30 22325 C 2072.52 5.08298 1.0922 0
M  V30 22326 C 2070.21 4.73099 1.68767 0
M  V30 22327 C 2072.2 6.34547 0.602434 0
M  V30 22328 C 2069.89 5.99321 1.19403 0
M  V30 22329 C 2070.89 6.79878 0.652331 0
M  V30 22330 O 2070.57 8.03729 0.166038 0
M  V30 22331 H 2070.31 0.586761 0.335689 0
M  V30 22332 H 2072.86 2.0136 0.40536 0
M  V30 22333 H 2071.09 2.55606 2.90177 0
M  V30 22334 H 2072.78 2.95701 2.78057 0
M  V30 22335 H 2073.55 4.73557 1.04731 0
M  V30 22336 H 2069.42 4.10457 2.09871 0
M  V30 22337 H 2072.97 6.9737 0.178953 0
M  V30 22338 H 2068.87 6.33558 1.23591 0
M  V30 22339 H 2069.63 8.18009 0.283599 0
M  V30 22340 N 2072.3 -0.607329 1.45428 0
M  V30 22341 C 2073.52 -1.39786 1.53214 0
M  V30 22342 C 2073.95 -1.87369 0.165684 0
M  V30 22343 O 2073.3 -1.60154 -0.849728 0
M  V30 22344 C 2073.35 -2.57823 2.52111 0
M  V30 22345 O 2072.46 -3.58462 2.03909 0
M  V30 22346 H 2071.8 -0.417312 0.516476 0
M  V30 22347 H 2074.33 -0.739101 1.90784 0
M  V30 22348 H 2074.34 -3.05064 2.70925 0
M  V30 22349 H 2073.01 -2.22539 3.51354 0
M  V30 22350 H 2071.59 -3.17868 1.94973 0
M  V30 22351 N 2073.77 -1.32722 -0.849853 0
M  V30 22352 C 2075 -1.26568 -1.63671 0
M  V30 22353 C 2075.42 0.165453 -1.88074 0
M  V30 22354 O 2074.77 1.1041 -1.45313 0
M  V30 22355 C 2074.83 -2.027 -2.99324 0
M  V30 22356 O 2074.55 -3.40229 -2.75999 0
M  V30 22357 C 2076.05 -2.03626 -3.93766 0
M  V30 22358 H 2073.27 -0.436491 -0.509624 0
M  V30 22359 H 2075.81 -1.74922 -1.05937 0
M  V30 22360 H 2073.97 -1.58056 -3.53691 0
M  V30 22361 H 2074.38 -3.79256 -3.62305 0
M  V30 22362 H 2075.85 -2.61369 -4.862 0
M  V30 22363 H 2076.33 -1.02373 -4.27102 0
M  V30 22364 H 2076.94 -2.48239 -3.45337 0
M  V30 22365 N 2075.25 1.06673 -1.16011 0
M  V30 22366 C 2076.2 2.12297 -0.831514 0
M  V30 22367 C 2077.19 1.59806 0.187329 0
M  V30 22368 O 2078.38 1.76995 -0.0129382 0
M  V30 22369 C 2075.51 3.41709 -0.330121 0
M  V30 22370 C 2074.59 4.01036 -1.37952 0
M  V30 22371 N 2074.98 4.34527 -2.58882 0
M  V30 22372 C 2073.28 4.28593 -1.23387 0
M  V30 22373 C 2073.98 4.81633 -3.26197 0
M  V30 22374 N 2072.96 4.80831 -2.5358 0
M  V30 22375 H 2076.76 2.36032 -1.75117 0
M  V30 22376 H 2074.28 1.24178 -1.04659 0
M  V30 22377 H 2076.27 4.1683 -0.0763293 0
M  V30 22378 H 2074.93 3.19414 0.583514 0
M  V30 22379 H 2075.94 4.24997 -2.9597 0
M  V30 22380 H 2072.62 4.15761 -0.380689 0
M  V30 22381 H 2074.01 5.16782 -4.29402 0
M  V30 22382 N 2076.73 0.957992 1.25141 0
M  V30 22383 C 2078.14 0.65484 1.74839 0
M  V30 22384 C 2078.49 -0.829713 1.77793 0
M  V30 22385 O 2077.62 -1.6493 1.40096 0
M  V30 22386 C 2078.21 1.18197 3.17513 0
M  V30 22387 C 2076.77 0.928917 3.64758 0
M  V30 22388 C 2075.92 1.32303 2.43703 0
M  V30 22389 H 2078.87 1.13442 1.1098 0
M  V30 22390 H 2078.89 0.543641 3.76596 0
M  V30 22391 H 2078.4 2.26246 3.15332 0
M  V30 22392 H 2076.5 -0.136467 3.7235 0
M  V30 22393 H 2076.62 1.56774 4.52724 0
M  V30 22394 H 2074.98 0.741407 2.4367 0
M  V30 22395 H 2075.76 2.41281 2.4421 0
M  V30 22396 N 2078.21 -1.39832 0.726957 0
M  V30 22397 C 2079.16 -2.27926 0.057957 0
M  V30 22398 C 2080.14 -1.43846 -0.720905 0
M  V30 22399 O 2081.33 -1.66833 -0.591236 0
M  V30 22400 C 2078.46 -3.32493 -0.854584 0
M  V30 22401 C 2077.55 -4.24042 -0.0703022 0
M  V30 22402 N 2077.94 -4.96753 0.952379 0
M  V30 22403 C 2076.24 -4.44982 -0.301167 0
M  V30 22404 C 2076.94 -5.63985 1.42462 0
M  V30 22405 N 2075.92 -5.38475 0.744679 0
M  V30 22406 H 2079.72 -2.81592 0.841603 0
M  V30 22407 H 2077.23 -1.52419 0.56056 0
M  V30 22408 H 2079.23 -3.94462 -1.34927 0
M  V30 22409 H 2077.89 -2.80387 -1.63748 0
M  V30 22410 H 2078.9 -5.00437 1.33353 0
M  V30 22411 H 2075.58 -4.03833 -1.0595 0
M  V30 22412 H 2076.97 -6.32213 2.27501 0
M  V30 22413 N 2079.69 -0.473982 -1.50304 0
M  V30 22414 C 2080.93 0.0800096 -2.02342 0
M  V30 22415 C 2081.26 1.39461 -1.35576 0
M  V30 22416 O 2080.52 1.89937 -0.471407 0
M  V30 22417 C 2080.82 0.308841 -3.56063 0
M  V30 22418 C 2080.48 -0.924412 -4.41322 0
M  V30 22419 C 2079.14 -1.26253 -4.64342 0
M  V30 22420 C 2081.5 -1.7454 -4.91106 0
M  V30 22421 C 2078.82 -2.42164 -5.34391 0
M  V30 22422 C 2081.18 -2.89582 -5.62428 0
M  V30 22423 C 2079.84 -3.23805 -5.83701 0
M  V30 22424 H 2079.11 0.0292776 -0.740421 0
M  V30 22425 H 2081.76 -0.62865 -1.80887 0
M  V30 22426 H 2080.06 1.09977 -3.76048 0
M  V30 22427 H 2081.76 0.7515 -3.93895 0
M  V30 22428 H 2078.35 -0.650995 -4.23627 0
M  V30 22429 H 2082.53 -1.49735 -4.73173 0
M  V30 22430 H 2077.79 -2.6895 -5.49068 0
M  V30 22431 H 2081.96 -3.53542 -5.99984 0
M  V30 22432 H 2079.59 -4.13729 -6.37756 0
M  V30 22433 N 2081.16 1.56239 -0.206702 0
M  V30 22434 C 2082.1 2.15555 0.749098 0
M  V30 22435 C 2083.08 1.09559 1.20148 0
M  V30 22436 O 2084.26 1.37735 1.28691 0
M  V30 22437 C 2081.39 2.72383 2.01308 0
M  V30 22438 C 2080.43 3.91073 1.70189 0
M  V30 22439 S 2081.27 5.28875 0.839744 0
M  V30 22440 C 2082.42 5.89132 2.11362 0
M  V30 22441 H 2082.65 2.9629 0.24489 0
M  V30 22442 H 2080.19 1.54398 0.00843775 0
M  V30 22443 H 2082.15 3.05767 2.73892 0
M  V30 22444 H 2080.81 1.91668 2.48841 0
M  V30 22445 H 2080 4.29286 2.64064 0
M  V30 22446 H 2079.6 3.58759 1.05679 0
M  V30 22447 H 2081.89 6.04202 3.06507 0
M  V30 22448 H 2082.84 6.85476 1.77563 0
M  V30 22449 H 2083.24 5.17835 2.24738 0
M  V30 22450 N 2082.64 -0.0668159 1.57458 0
M  V30 22451 C 2083.87 -0.777815 1.91723 0
M  V30 22452 C 2084.29 -1.70866 0.803128 0
M  V30 22453 O 2083.64 -1.8113 -0.223207 0
M  V30 22454 C 2083.69 -1.56722 3.25761 0
M  V30 22455 O 2083.41 -0.673779 4.32888 0
M  V30 22456 C 2084.92 -2.37877 3.74071 0
M  V30 22457 H 2082.14 -0.220863 0.633609 0
M  V30 22458 H 2084.68 -0.0355987 2.04469 0
M  V30 22459 H 2082.83 -2.26166 3.14527 0
M  V30 22460 H 2083.25 -1.22335 5.10034 0
M  V30 22461 H 2084.72 -2.88716 4.70476 0
M  V30 22462 H 2085.2 -3.17625 3.03334 0
M  V30 22463 H 2085.81 -1.73579 3.88266 0
M  V30 22464 N 2084.12 -1.53926 -0.338317 0
M  V30 22465 C 2085.05 -1.78601 -1.43647 0
M  V30 22466 C 2086.07 -0.667465 -1.48488 0
M  V30 22467 O 2087.26 -0.944299 -1.51477 0
M  V30 22468 C 2084.36 -1.87548 -2.82274 0
M  V30 22469 C 2083.53 -3.17539 -3.00811 0
M  V30 22470 C 2082.59 -3.17377 -4.19712 0
M  V30 22471 O 2081.61 -3.91078 -4.13578 0
M  V30 22472 N 2082.82 -2.40116 -5.28512 0
M  V30 22473 H 2085.58 -2.73365 -1.22849 0
M  V30 22474 H 2083.14 -1.5304 -0.528227 0
M  V30 22475 H 2085.13 -1.84885 -3.6 0
M  V30 22476 H 2083.7 -0.999475 -2.96191 0
M  V30 22477 H 2082.92 -3.33284 -2.10512 0
M  V30 22478 H 2084.21 -4.03394 -3.10082 0
M  V30 22479 H 2083.61 -1.79799 -5.36366 0
M  V30 22480 H 2082.17 -2.43245 -6.04711 0
M  V30 22481 N 2085.6 0.599608 -1.45748 0
M  V30 22482 C 2087.02 0.921212 -1.3033 0
M  V30 22483 C 2087.22 1.99787 -0.262213 0
M  V30 22484 O 2086.27 2.50186 0.34109 0
M  V30 22485 C 2087.58 1.35457 -2.68462 0
M  V30 22486 C 2089.13 1.46835 -2.76421 0
M  V30 22487 C 2089.61 1.93544 -4.15096 0
M  V30 22488 N 2091.1 2.00765 -4.1743 0
M  V30 22489 C 2091.83 2.38145 -5.21608 0
M  V30 22490 N 2091.33 2.74437 -6.36126 0
M  V30 22491 N 2093.12 2.38554 -5.08968 0
M  V30 22492 H 2085.27 -0.111892 -2.12105 0
M  V30 22493 H 2087.54 0.0126042 -0.947916 0
M  V30 22494 H 2087.24 0.63759 -3.45872 0
M  V30 22495 H 2087.12 2.31951 -2.97453 0
M  V30 22496 H 2089.5 2.17623 -1.99309 0
M  V30 22497 H 2089.58 0.486356 -2.51134 0
M  V30 22498 H 2089.23 1.2334 -4.92696 0
M  V30 22499 H 2089.16 2.92672 -4.3778 0
M  V30 22500 H 2091.65 1.75275 -3.34794 0
M  V30 22501 H 2091.96 3.01865 -7.11405 0
M  V30 22502 H 2090.31 2.72115 -6.39514 0
M  V30 22503 H 2093.5 2.09612 -4.18546 0
M  V30 22504 H 2093.67 2.67359 -5.90274 0
M  V30 22505 N 2087.08 1.33171 0.842803 0
M  V30 22506 C 2088.04 1.23019 1.93388 0
M  V30 22507 C 2089.04 0.15022 1.60097 0
M  V30 22508 O 2090.23 0.401472 1.69511 0
M  V30 22509 C 2087.36 0.89468 3.2895 0
M  V30 22510 H 2088.56 2.19997 2.03817 0
M  V30 22511 H 2086.11 1.17173 1.03442 0
M  V30 22512 H 2086.84 -0.0727774 3.24218 0
M  V30 22513 H 2086.63 1.67563 3.54493 0
M  V30 22514 H 2088.12 0.848284 4.08894 0
M  V30 22515 N 2088.56 -1.06056 1.16576 0
M  V30 22516 C 2089.49 -2.15554 0.897693 0
M  V30 22517 C 2090.47 -1.69375 -0.156927 0
M  V30 22518 O 2091.65 -1.94198 -0.00851939 0
M  V30 22519 C 2088.78 -3.44982 0.40063 0
M  V30 22520 C 2087.74 -4.04682 1.39343 0
M  V30 22521 C 2087.06 -5.29347 0.754677 0
M  V30 22522 C 2088.36 -4.43182 2.76381 0
M  V30 22523 H 2090.06 -2.38236 1.81339 0
M  V30 22524 H 2087.6 -1.14495 0.873316 0
M  V30 22525 H 2089.55 -4.20922 0.200566 0
M  V30 22526 H 2088.28 -3.21926 -0.550576 0
M  V30 22527 H 2086.94 -3.308 1.58009 0
M  V30 22528 H 2086.59 -5.0259 -0.203091 0
M  V30 22529 H 2086.29 -5.7025 1.41735 0
M  V30 22530 H 2087.81 -6.07983 0.564687 0
M  V30 22531 H 2089.22 -5.10195 2.61485 0
M  V30 22532 H 2087.62 -4.95076 3.39146 0
M  V30 22533 H 2088.69 -3.53931 3.31453 0
M  V30 22534 N 2090.03 -0.964615 -1.24631 0
M  V30 22535 C 2091.26 -0.641396 -1.96392 0
M  V30 22536 C 2091.67 0.792726 -1.71792 0
M  V30 22537 O 2091.01 1.54313 -0.996658 0
M  V30 22538 C 2091.08 -0.832418 -3.4973 0
M  V30 22539 C 2090.74 -2.24559 -3.98023 0
M  V30 22540 C 2091.74 -3.22308 -4.07938 0
M  V30 22541 C 2089.42 -2.57246 -4.31428 0
M  V30 22542 C 2091.42 -4.50832 -4.50588 0
M  V30 22543 C 2089.1 -3.85996 -4.73762 0
M  V30 22544 C 2090.1 -4.82602 -4.83306 0
M  V30 22545 O 2089.79 -6.09056 -5.24696 0
M  V30 22546 H 2089.52 -0.238561 -0.632507 0
M  V30 22547 H 2092.08 -1.29421 -1.59498 0
M  V30 22548 H 2090.31 -0.122445 -3.86506 0
M  V30 22549 H 2091.99 -0.508751 -4.02699 0
M  V30 22550 H 2092.76 -2.98383 -3.82351 0
M  V30 22551 H 2088.64 -1.82773 -4.2322 0
M  V30 22552 H 2092.18 -5.26237 -4.57952 0
M  V30 22553 H 2088.08 -4.09723 -4.98796 0
M  V30 22554 H 2088.85 -6.12578 -5.42854 0
M  V30 22555 N 2091.51 1.39445 -0.734362 0
M  V30 22556 C 2092.44 2.33245 -0.109065 0
M  V30 22557 C 2093.42 1.53878 0.724945 0
M  V30 22558 O 2094.61 1.82274 0.670055 0
M  V30 22559 C 2091.74 3.37973 0.799454 0
M  V30 22560 C 2090.69 4.27943 0.0696508 0
M  V30 22561 C 2090.02 5.23365 1.09514 0
M  V30 22562 C 2091.32 5.10855 -1.08738 0
M  V30 22563 H 2093.01 2.85786 -0.892581 0
M  V30 22564 H 2090.56 1.37409 -0.430672 0
M  V30 22565 H 2092.51 4.02545 1.24643 0
M  V30 22566 H 2091.23 2.83871 1.61508 0
M  V30 22567 H 2089.89 3.64851 -0.357693 0
M  V30 22568 H 2089.54 4.65559 1.90432 0
M  V30 22569 H 2089.24 5.84408 0.611606 0
M  V30 22570 H 2090.77 5.90813 1.54183 0
M  V30 22571 H 2092.18 5.68775 -0.718888 0
M  V30 22572 H 2090.58 5.81038 -1.50051 0
M  V30 22573 H 2091.65 4.45725 -1.90937 0
M  V30 22574 N 2092.99 0.481946 1.5005 0
M  V30 22575 C 2093.95 -0.295344 2.27289 0
M  V30 22576 C 2094.95 -0.910886 1.32512 0
M  V30 22577 O 2096.14 -0.778377 1.55843 0
M  V30 22578 C 2093.27 -1.42179 3.09835 0
M  V30 22579 H 2094.47 0.382176 2.97455 0
M  V30 22580 H 2092.02 0.236325 1.54503 0
M  V30 22581 H 2092.76 -2.13404 2.44191 0
M  V30 22582 H 2092.54 -0.986087 3.79498 0
M  V30 22583 H 2094.03 -1.96982 3.68223 0
M  V30 22584 N 2094.47 -1.56127 0.214985 0
M  V30 22585 C 2095.71 -1.98422 -0.41911 0
M  V30 22586 C 2096.05 -1.10235 -1.59881 0
M  V30 22587 O 2095.32 -0.158603 -1.93852 0
M  V30 22588 C 2095.6 -3.49679 -0.86003 0
M  V30 22589 C 2095.46 -4.4864 0.322851 0
M  V30 22590 C 2096.78 -4.0516 -1.71854 0
M  V30 22591 H 2093.9 -0.721393 -0.150867 0
M  V30 22592 H 2096.54 -1.87456 0.309902 0
M  V30 22593 H 2094.69 -3.59155 -1.48121 0
M  V30 22594 H 2096.36 -4.51181 0.960896 0
M  V30 22595 H 2094.6 -4.22784 0.97138 0
M  V30 22596 H 2095.27 -5.51993 -0.028492 0
M  V30 22597 H 2097.75 -3.98587 -1.19448 0
M  V30 22598 H 2096.63 -5.11324 -1.99596 0
M  V30 22599 H 2096.89 -3.51638 -2.67962 0
M  V30 22600 N 2095.95 0.0584645 -1.57492 0
M  V30 22601 C 2097.18 0.766524 -1.91854 0
M  V30 22602 C 2097.58 1.70962 -0.810481 0
M  V30 22603 O 2096.93 1.82328 0.224122 0
M  V30 22604 C 2096.99 1.60277 -3.21794 0
M  V30 22605 C 2096.65 0.827629 -4.49443 0
M  V30 22606 C 2097.65 0.140903 -5.19709 0
M  V30 22607 C 2095.33 0.790858 -4.96035 0
M  V30 22608 C 2097.33 -0.572217 -6.34826 0
M  V30 22609 C 2095.02 0.0739737 -6.11055 0
M  V30 22610 C 2096.01 -0.606351 -6.80303 0
M  V30 22611 O 2095.7 -1.31166 -7.93127 0
M  V30 22612 H 2095.43 0.222315 -0.638398 0
M  V30 22613 H 2097.99 0.0289713 -2.0538 0
M  V30 22614 H 2096.22 2.38344 -3.04514 0
M  V30 22615 H 2097.91 2.19073 -3.41705 0
M  V30 22616 H 2098.67 0.160531 -4.84734 0
M  V30 22617 H 2094.55 1.30987 -4.41999 0
M  V30 22618 H 2098.1 -1.10379 -6.88812 0
M  V30 22619 H 2093.99 0.0523191 -6.45479 0
M  V30 22620 H 2094.76 -1.2223 -8.09322 0
M  V30 22621 N 2097.42 1.54103 0.330149 0
M  V30 22622 C 2098.7 1.62635 1.0867 0
M  V30 22623 C 2099.08 0.456041 2.06115 0
M  V30 22624 O 2098.43 -0.550367 2.21773 0
M  V30 22625 C 2098.64 2.99332 1.79448 0
M  V30 22626 C 2099.99 3.55151 2.32708 0
M  V30 22627 O 2101.01 3.01594 1.89525 0
M  V30 22628 O 2099.87 4.4886 3.11749 0
M  V30 22629 H 2096.96 0.658337 0.500521 0
M  V30 22630 H 2099.51 1.66449 0.330568 0
M  V30 22631 H 2098.28 3.75947 1.08532 0
M  V30 22632 H 2097.9 2.99167 2.61887 0
M  V30 22633 N 2098.9 -0.59187 1.46064 0
M  V30 22634 C 2099.83 -1.71199 1.58787 0
M  V30 22635 C 2100.81 -1.64348 0.438615 0
M  V30 22636 O 2102 -1.82506 0.663725 0
M  V30 22637 C 2099.13 -3.0983 1.56917 0
M  V30 22638 C 2098.08 -3.31505 2.70719 0
M  V30 22639 C 2097.41 -4.70569 2.53907 0
M  V30 22640 C 2098.71 -3.20228 4.12615 0
M  V30 22641 H 2100.4 -1.60807 2.5255 0
M  V30 22642 H 2097.95 -0.772206 1.21544 0
M  V30 22643 H 2099.9 -3.88003 1.64413 0
M  V30 22644 H 2098.63 -3.21099 0.596928 0
M  V30 22645 H 2097.28 -2.55727 2.62677 0
M  V30 22646 H 2096.93 -4.78592 1.54787 0
M  V30 22647 H 2096.63 -4.86025 3.30232 0
M  V30 22648 H 2098.16 -5.50923 2.6328 0
M  V30 22649 H 2099.57 -3.88257 4.21817 0
M  V30 22650 H 2097.97 -3.47209 4.89455 0
M  V30 22651 H 2099.04 -2.17437 4.33416 0
M  V30 22652 N 2100.38 -1.33616 -0.835729 0
M  V30 22653 C 2101.61 -1.28444 -1.6284 0
M  V30 22654 C 2102.03 0.141205 -1.87569 0
M  V30 22655 O 2101.39 1.09885 -1.44205 0
M  V30 22656 C 2101.44 -2.0683 -2.95387 0
M  V30 22657 O 2100.54 -1.42905 -3.86849 0
M  V30 22658 H 2099.88 -0.441742 -0.495742 0
M  V30 22659 H 2102.41 -1.76226 -1.0395 0
M  V30 22660 H 2102.42 -2.17712 -3.45059 0
M  V30 22661 H 2101.1 -3.1049 -2.76711 0
M  V30 22662 H 2099.67 -1.40689 -3.45342 0
M  V30 22663 N 2101.86 1.05436 -1.17136 0
M  V30 22664 C 2102.81 2.13124 -0.885828 0
M  V30 22665 C 2103.78 1.65235 0.169267 0
M  V30 22666 O 2104.96 1.90772 0.032594 0
M  V30 22667 C 2102.1 3.42744 -0.40256 0
M  V30 22668 C 2101.21 4.0432 -1.52149 0
M  V30 22669 C 2100.35 5.21849 -0.992347 0
M  V30 22670 C 2099.39 5.75426 -2.08689 0
M  V30 22671 N 2098.52 6.84259 -1.5727 0
M  V30 22672 H 2103.36 2.36887 -1.808 0
M  V30 22673 H 2100.9 1.16215 -0.901798 0
M  V30 22674 H 2102.86 4.17071 -0.10394 0
M  V30 22675 H 2101.49 3.19171 0.482653 0
M  V30 22676 H 2100.54 3.27456 -1.93589 0
M  V30 22677 H 2101.85 4.40127 -2.34711 0
M  V30 22678 H 2101.01 6.03236 -0.647426 0
M  V30 22679 H 2099.75 4.8751 -0.13613 0
M  V30 22680 H 2098.75 4.9267 -2.44041 0
M  V30 22681 H 2099.98 6.11813 -2.94722 0
M  V30 22682 H 2097.92 6.51822 -0.739158 0
M  V30 22683 H 2097.84 7.19055 -2.33442 0
M  V30 22684 H 2099.11 7.69304 -1.25663 0
M  V30 22685 N 2103.34 0.971211 1.24118 0
M  V30 22686 C 2104.58 0.633768 1.91906 0
M  V30 22687 C 2104.91 -0.834157 1.76258 0
M  V30 22688 O 2104.18 -1.59579 1.13628 0
M  V30 22689 H 2102.76 0.231413 0.710251 0
M  V30 22690 H 2105.42 1.23304 1.50938 0
M  V30 22691 H 2104.51 0.877411 2.99513 0
M  V30 22692 N 2104.81 -1.39054 0.741747 0
M  V30 22693 C 2105.75 -2.29103 0.0665251 0
M  V30 22694 C 2106.76 -1.47157 -0.696331 0
M  V30 22695 O 2107.95 -1.70156 -0.539378 0
M  V30 22696 C 2105.05 -3.25891 -0.929959 0
M  V30 22697 C 2104.22 -4.36809 -0.227219 0
M  V30 22698 C 2103.28 -5.13863 -1.13276 0
M  V30 22699 O 2102.31 -5.65946 -0.607718 0
M  V30 22700 N 2103.51 -5.25709 -2.46192 0
M  V30 22701 H 2106.27 -2.87692 0.839836 0
M  V30 22702 H 2103.83 -1.50707 0.591532 0
M  V30 22703 H 2105.83 -3.74315 -1.53851 0
M  V30 22704 H 2104.4 -2.68285 -1.60443 0
M  V30 22705 H 2103.62 -3.90175 0.5619 0
M  V30 22706 H 2104.9 -5.08138 0.259523 0
M  V30 22707 H 2104.3 -4.84923 -2.91318 0
M  V30 22708 H 2102.86 -5.77549 -3.02127 0
M  V30 22709 N 2106.29 -0.489897 -1.49792 0
M  V30 22710 C 2107.26 0.283286 -2.27443 0
M  V30 22711 C 2108.26 0.903846 -1.32993 0
M  V30 22712 O 2109.45 0.770101 -1.56253 0
M  V30 22713 C 2106.58 1.40534 -3.10585 0
M  V30 22714 H 2107.77 -0.397946 -2.97248 0
M  V30 22715 H 2105.32 -0.244516 -1.54376 0
M  V30 22716 H 2106.06 2.12106 -2.4532 0
M  V30 22717 H 2105.84 0.965947 -3.80016 0
M  V30 22718 H 2107.33 1.95026 -3.69262 0
M  V30 22719 N 2107.77 1.56011 -0.223262 0
M  V30 22720 C 2108.68 2.23993 0.697454 0
M  V30 22721 C 2109.7 1.24812 1.21235 0
M  V30 22722 O 2110.87 1.57629 1.2536 0
M  V30 22723 C 2107.94 2.90786 1.88797 0
M  V30 22724 C 2107 4.05314 1.41489 0
M  V30 22725 C 2106.23 4.68913 2.54866 0
M  V30 22726 O 2106.45 4.31505 3.73041 0
M  V30 22727 O 2105.39 5.57872 2.2597 0
M  V30 22728 H 2109.21 3.03338 0.148324 0
M  V30 22729 H 2106.8 1.49398 0.00725836 0
M  V30 22730 H 2108.68 3.32939 2.5832 0
M  V30 22731 H 2107.36 2.144 2.42517 0
M  V30 22732 H 2106.26 3.67726 0.687623 0
M  V30 22733 H 2107.6 4.83448 0.924045 0
M  V30 22734 N 2109.25 -0.0501116 1.5752 0
M  V30 22735 C 2110.49 -0.7462 1.88573 0
M  V30 22736 C 2110.83 -1.76115 0.818369 0
M  V30 22737 O 2110.1 -1.93764 -0.169013 0
M  V30 22738 C 2110.39 -1.43474 3.30284 0
M  V30 22739 C 2110.24 -0.434736 4.47694 0
M  V30 22740 C 2111.56 -2.37419 3.70568 0
M  V30 22741 H 2108.68 -0.269807 0.685838 0
M  V30 22742 H 2111.32 -0.00912382 1.89998 0
M  V30 22743 H 2109.47 -2.06301 3.29199 0
M  V30 22744 H 2111.14 0.189992 4.60909 0
M  V30 22745 H 2109.38 0.24799 4.33091 0
M  V30 22746 H 2110.05 -0.954564 5.43684 0
M  V30 22747 H 2112.53 -1.84653 3.72884 0
M  V30 22748 H 2111.41 -2.82587 4.7057 0
M  V30 22749 H 2111.67 -3.2318 3.01674 0
M  V30 22750 N 2110.73 -1.54276 -0.321972 0
M  V30 22751 C 2112 -1.63209 -1.07806 0
M  V30 22752 C 2112.38 -0.466965 -2.0587 0
M  V30 22753 O 2111.73 0.538598 -2.22062 0
M  V30 22754 C 2111.94 -3.00279 -1.77858 0
M  V30 22755 C 2113.29 -3.5638 -2.30822 0
M  V30 22756 O 2114.31 -3.02594 -1.87923 0
M  V30 22757 O 2113.17 -4.50507 -3.09364 0
M  V30 22758 H 2110.27 -0.660982 -0.497023 0
M  V30 22759 H 2112.81 -1.66622 -0.321736 0
M  V30 22760 H 2111.58 -3.76518 -1.06537 0
M  V30 22761 H 2111.21 -3.00552 -2.60297 0
M  V30 22762 N 2112.2 0.584116 -1.46376 0
M  V30 22763 C 2113.17 1.6753 -1.56417 0
M  V30 22764 C 2114.17 1.54622 -0.441454 0
M  V30 22765 O 2115.36 1.59265 -0.705714 0
M  V30 22766 C 2112.49 3.06947 -1.48313 0
M  V30 22767 H 2113.68 1.59986 -2.53662 0
M  V30 22768 H 2111.24 0.801837 -1.34165 0
M  V30 22769 H 2111.97 3.20048 -0.523413 0
M  V30 22770 H 2111.76 3.17724 -2.29768 0
M  V30 22771 H 2113.25 3.86384 -1.58422 0
M  V30 22772 N 2113.68 1.34058 0.828631 0
M  V30 22773 C 2114.62 1.19503 1.94407 0
M  V30 22774 C 2115.59 0.0880264 1.62362 0
M  V30 22775 O 2116.78 0.25214 1.86806 0
M  V30 22776 C 2113.91 0.835211 3.28241 0
M  V30 22777 C 2112.95 1.95117 3.79251 0
M  V30 22778 S 2113.78 3.56375 3.99696 0
M  V30 22779 C 2114.94 3.22422 5.36465 0
M  V30 22780 H 2115.17 2.13924 2.06455 0
M  V30 22781 H 2112.71 1.19018 0.983567 0
M  V30 22782 H 2114.66 0.634393 4.05568 0
M  V30 22783 H 2113.33 -0.0905636 3.13969 0
M  V30 22784 H 2112.52 1.65301 4.76121 0
M  V30 22785 H 2112.12 2.10918 3.08852 0
M  V30 22786 H 2114.41 2.73882 6.19673 0
M  V30 22787 H 2115.36 4.1841 5.7126 0
M  V30 22788 H 2115.76 2.58751 5.01705 0
M  V30 22789 N 2115.16 -1.04814 1.17694 0
M  V30 22790 C 2116.11 -2.12651 0.897118 0
M  V30 22791 C 2117.08 -1.65323 -0.160501 0
M  V30 22792 O 2118.26 -1.90787 -0.0224765 0
M  V30 22793 C 2115.4 -3.42526 0.420731 0
M  V30 22794 C 2114.52 -4.03508 1.54291 0
M  V30 22795 C 2113.65 -5.21315 1.02001 0
M  V30 22796 C 2112.69 -5.74311 2.11738 0
M  V30 22797 N 2111.83 -6.83415 1.60897 0
M  V30 22798 H 2116.67 -2.35925 1.82054 0
M  V30 22799 H 2114.2 -1.15736 0.907948 0
M  V30 22800 H 2116.16 -4.1701 0.126057 0
M  V30 22801 H 2114.79 -3.19423 -0.46572 0
M  V30 22802 H 2113.84 -3.26425 1.95323 0
M  V30 22803 H 2115.16 -4.38876 2.37042 0
M  V30 22804 H 2114.31 -6.02884 0.679408 0
M  V30 22805 H 2113.05 -4.87431 0.161982 0
M  V30 22806 H 2112.05 -4.91369 2.46651 0
M  V30 22807 H 2113.28 -6.10242 2.97963 0
M  V30 22808 H 2111.23 -6.51421 0.773715 0
M  V30 22809 H 2111.14 -7.17807 2.37252 0
M  V30 22810 H 2112.41 -7.68627 1.29741 0
M  V30 22811 N 2116.64 -0.977779 -1.23601 0
M  V30 22812 C 2118.05 -0.682573 -1.73775 0
M  V30 22813 C 2118.4 0.801323 -1.7909 0
M  V30 22814 O 2117.53 1.6268 -1.42703 0
M  V30 22815 C 2118.12 -1.23234 -3.15593 0
M  V30 22816 C 2116.68 -0.986829 -3.63234 0
M  V30 22817 C 2115.83 -1.36164 -2.41567 0
M  V30 22818 H 2118.78 -1.15193 -1.09162 0
M  V30 22819 H 2118.8 -0.603486 -3.75684 0
M  V30 22820 H 2118.31 -2.31235 -3.11692 0
M  V30 22821 H 2116.41 0.0772124 -3.7252 0
M  V30 22822 H 2116.53 -1.63956 -4.50172 0
M  V30 22823 H 2114.89 -0.780079 -2.4246 0
M  V30 22824 H 2115.67 -2.45136 -2.4034 0
M  V30 22825 N 2118.12 1.38658 -0.749111 0
M  V30 22826 C 2119.36 2.00982 -0.312667 0
M  V30 22827 C 2119.72 1.58395 1.09219 0
M  V30 22828 O 2119.01 0.809383 1.73665 0
M  V30 22829 C 2119.21 3.55494 -0.368653 0
M  V30 22830 C 2119.03 4.13084 -1.77741 0
M  V30 22831 C 2117.8 4.45048 -2.39292 0
M  V30 22832 C 2120 4.35653 -2.73334 0
M  V30 22833 N 2117.98 4.8822 -3.72175 0
M  V30 22834 C 2119.36 4.81185 -3.90975 0
M  V30 22835 C 2121.41 4.17744 -2.70914 0
M  V30 22836 C 2120.11 5.10686 -5.0655 0
M  V30 22837 C 2122.14 4.48367 -3.85643 0
M  V30 22838 C 2121.5 4.94119 -5.02022 0
M  V30 22839 H 2117.6 0.765252 -0.160975 0
M  V30 22840 H 2120.18 1.68348 -0.978105 0
M  V30 22841 H 2118.36 3.87485 0.266496 0
M  V30 22842 H 2120.09 4.04605 0.0876825 0
M  V30 22843 H 2116.84 4.33336 -1.91095 0
M  V30 22844 H 2117.27 5.14146 -4.40435 0
M  V30 22845 H 2121.91 3.81563 -1.82124 0
M  V30 22846 H 2119.63 5.45765 -5.95958 0
M  V30 22847 H 2123.21 4.3612 -3.85085 0
M  V30 22848 H 2122.09 5.17363 -5.89326 0
M  V30 22849 N 2119.6 0.497834 1.49531 0
M  V30 22850 C 2120.53 -0.271671 2.31914 0
M  V30 22851 C 2121.51 -0.965521 1.40042 0
M  V30 22852 O 2122.69 -0.957536 1.68952 0
M  V30 22853 C 2119.82 -1.3384 3.20475 0
M  V30 22854 C 2118.78 -0.76461 4.21115 0
M  V30 22855 C 2118.1 -1.93162 4.98591 0
M  V30 22856 C 2119.4 0.242201 5.21738 0
M  V30 22857 H 2121.1 0.415979 2.96496 0
M  V30 22858 H 2118.64 0.201496 1.42583 0
M  V30 22859 H 2120.59 -1.88442 3.76918 0
M  V30 22860 H 2119.32 -2.05519 2.5383 0
M  V30 22861 H 2117.98 -0.240359 3.65811 0
M  V30 22862 H 2117.63 -2.63602 4.28396 0
M  V30 22863 H 2117.33 -1.55378 5.66685 0
M  V30 22864 H 2118.85 -2.48204 5.57877 0
M  V30 22865 H 2120.26 -0.215575 5.72895 0
M  V30 22866 H 2118.66 0.535707 5.97704 0
M  V30 22867 H 2119.73 1.15916 4.70841 0
M  V30 22868 N 2121.07 -1.5589 0.231532 0
M  V30 22869 C 2122.32 -1.98561 -0.397452 0
M  V30 22870 C 2122.65 -1.11939 -1.5906 0
M  V30 22871 O 2121.9 -0.166615 -1.94989 0
M  V30 22872 C 2122.2 -3.46766 -0.865354 0
M  V30 22873 C 2121.87 -4.50371 0.218353 0
M  V30 22874 C 2120.53 -4.78425 0.516031 0
M  V30 22875 C 2122.88 -5.12455 0.950761 0
M  V30 22876 C 2120.21 -5.65842 1.55046 0
M  V30 22877 C 2122.56 -6.00993 1.9746 0
M  V30 22878 C 2121.23 -6.27386 2.27909 0
M  V30 22879 H 2120.5 -0.726587 -0.145438 0
M  V30 22880 H 2123.14 -1.88527 0.336141 0
M  V30 22881 H 2121.45 -3.54054 -1.67788 0
M  V30 22882 H 2123.15 -3.7716 -1.36204 0
M  V30 22883 H 2119.74 -4.28593 -0.023809 0
M  V30 22884 H 2123.92 -4.90842 0.734029 0
M  V30 22885 H 2119.18 -5.84552 1.79188 0
M  V30 22886 H 2123.35 -6.48147 2.54712 0
M  V30 22887 H 2120.98 -6.9492 3.08205 0
M  V30 22888 N 2122.55 0.0417572 -1.57545 0
M  V30 22889 C 2123.5 1.0648 -2.06796 0
M  V30 22890 C 2124.49 1.38234 -0.979162 0
M  V30 22891 O 2125.7 1.37288 -1.16413 0
M  V30 22892 H 2122.07 0.360857 -0.659762 0
M  V30 22893 H 2124.05 0.6235 -2.91813 0
M  V30 22894 C 2122.79 2.36114 -2.55236 0
M  V30 22895 H 2122.12 2.12537 -3.38627 0
M  V30 22896 H 2123.56 3.06072 -2.93421 0
M  V30 22897 C 2122.02 3.04191 -1.44808 0
M  V30 22898 O 2122.55 3.93508 -0.807098 0
M  V30 22899 N 2120.75 2.65308 -1.18574 0
M  V30 22900 H 2120.3 1.92763 -1.70881 0
M  V30 22901 H 2120.26 3.11178 -0.448987 0
M  V30 22902 N 2124.03 1.54445 0.313786 0
M  V30 22903 C 2125.28 1.72328 1.04814 0
M  V30 22904 C 2125.59 0.509186 1.88856 0
M  V30 22905 O 2126.8 0.569563 2.65459 0
M  V30 22906 C 2125.25 3.04843 1.91309 0
M  V30 22907 C 2124.86 4.33689 1.12331 0
M  V30 22908 C 2126.61 3.32087 2.6442 0
M  V30 22909 C 2124.51 5.5726 1.98028 0
M  V30 22910 H 2123.44 0.642234 0.395033 0
M  V30 22911 H 2126.09 1.80934 0.305823 0
M  V30 22912 H 2124.48 2.90169 2.69477 0
M  V30 22913 H 2125.65 4.59158 0.388648 0
M  V30 22914 H 2123.96 4.13283 0.508577 0
M  V30 22915 H 2126.56 4.21607 3.28864 0
M  V30 22916 H 2126.9 2.50397 3.32577 0
M  V30 22917 H 2127.44 3.47673 1.93308 0
M  V30 22918 H 2124.18 6.41581 1.34364 0
M  V30 22919 H 2123.7 5.35995 2.69201 0
M  V30 22920 H 2125.38 5.94035 2.56382 0
M  V30 22921 N 2125.51 -0.576345 1.46683 0
M  V30 22922 C 2126.45 -1.68494 1.57729 0
M  V30 22923 C 2127.42 -1.6067 0.421246 0
M  V30 22924 O 2128.61 -1.79788 0.638829 0
M  V30 22925 C 2125.75 -3.0683 1.57953 0
M  V30 22926 C 2124.86 -3.25233 2.84337 0
M  V30 22927 C 2124 -4.53855 2.76024 0
M  V30 22928 C 2123.04 -4.65623 3.97319 0
M  V30 22929 N 2122.17 -5.85578 3.87354 0
M  V30 22930 H 2127.01 -1.58391 2.52421 0
M  V30 22931 H 2124.55 -0.771863 1.25223 0
M  V30 22932 H 2126.51 -3.86909 1.56068 0
M  V30 22933 H 2125.14 -3.15815 0.667889 0
M  V30 22934 H 2124.19 -2.38715 2.96174 0
M  V30 22935 H 2125.5 -3.29795 3.74215 0
M  V30 22936 H 2124.66 -5.4217 2.72281 0
M  V30 22937 H 2123.4 -4.51741 1.83797 0
M  V30 22938 H 2122.4 -3.75724 4.01387 0
M  V30 22939 H 2123.63 -4.69511 4.90649 0
M  V30 22940 H 2121.57 -5.84449 2.97918 0
M  V30 22941 H 2121.49 -5.91436 4.70892 0
M  V30 22942 H 2122.76 -6.76306 3.87596 0
M  V30 22943 N 2126.99 -1.34495 -0.82151 0
M  V30 22944 C 2127.95 -1.2608 -1.91407 0
M  V30 22945 C 2128.95 -0.175671 -1.59838 0
M  V30 22946 O 2130.14 -0.428389 -1.6885 0
M  V30 22947 C 2127.27 -0.9469 -3.27485 0
M  V30 22948 H 2128.46 -2.23212 -2.00291 0
M  V30 22949 H 2126.02 -1.18804 -1.01565 0
M  V30 22950 H 2126.75 0.0211878 -3.24293 0
M  V30 22951 H 2126.54 -1.73181 -3.51782 0
M  V30 22952 H 2128.03 -0.913228 -4.07492 0
M  V30 22953 N 2128.46 1.04188 -1.18248 0
M  V30 22954 C 2129.88 1.29568 -0.931902 0
M  V30 22955 C 2130.08 1.97424 0.403235 0
M  V30 22956 O 2129.14 2.25409 1.13785 0
M  V30 22957 C 2130.45 2.15557 -2.09656 0
M  V30 22958 C 2132 2.28907 -2.13473 0
M  V30 22959 C 2132.47 3.18262 -3.29353 0
M  V30 22960 N 2133.96 3.25849 -3.29206 0
M  V30 22961 C 2134.7 3.95141 -4.15513 0
M  V30 22962 N 2134.19 4.66775 -5.1195 0
M  V30 22963 N 2135.99 3.91408 -4.03431 0
M  V30 22964 H 2128.14 0.585496 -2.04171 0
M  V30 22965 H 2130.4 0.320854 -0.892052 0
M  V30 22966 H 2130.11 1.73002 -3.06208 0
M  V30 22967 H 2129.98 3.16231 -2.05616 0
M  V30 22968 H 2132.37 2.70698 -1.175 0
M  V30 22969 H 2132.45 1.27828 -2.21571 0
M  V30 22970 H 2132.09 2.77182 -4.25597 0
M  V30 22971 H 2132.02 4.1937 -3.18491 0
M  V30 22972 H 2134.51 2.74819 -2.59389 0
M  V30 22973 H 2134.83 5.17239 -5.74181 0
M  V30 22974 H 2133.17 4.65683 -5.15911 0
M  V30 22975 H 2136.36 3.34577 -3.27377 0
M  V30 22976 H 2136.54 4.45139 -4.70909 0
M  V30 22977 N 2129.94 0.98432 1.23081 0
M  V30 22978 C 2130.91 0.532738 2.22923 0
M  V30 22979 C 2131.91 -0.379759 1.56251 0
M  V30 22980 O 2133.1 -0.172906 1.7334 0
M  V30 22981 C 2130.23 -0.226262 3.40148 0
M  V30 22982 H 2131.42 1.41558 2.64388 0
M  V30 22983 H 2128.97 0.77062 1.35982 0
M  V30 22984 H 2129.71 -1.12547 3.04144 0
M  V30 22985 H 2129.49 0.428801 3.89748 0
M  V30 22986 H 2130.98 -0.530671 4.14214 0
M  V30 22987 N 2131.42 -1.38259 0.756453 0
M  V30 22988 C 2132.65 -2.04861 0.323535 0
M  V30 22989 C 2133.07 -1.56679 -1.04083 0
M  V30 22990 O 2132.43 -0.72007 -1.66387 0
M  V30 22991 C 2132.48 -3.58812 0.358692 0
M  V30 22992 O 2131.58 -4.07304 -0.646296 0
M  V30 22993 H 2130.92 -0.64848 0.142723 0
M  V30 22994 H 2133.45 -1.76877 1.02838 0
M  V30 22995 H 2133.46 -4.07456 0.210579 0
M  V30 22996 H 2132.14 -3.93238 1.35413 0
M  V30 22997 H 2130.71 -3.7002 -0.462561 0
M  V30 22998 N 2132.9 -0.505757 -1.49264 0
M  V30 22999 C 2134.12 0.0358953 -2.07369 0
M  V30 23000 C 2134.55 1.29628 -1.36302 0
M  V30 23001 O 2133.91 1.76338 -0.421242 0
M  V30 23002 C 2133.95 0.267709 -3.59605 0
M  V30 23003 O 2133.06 1.34146 -3.89973 0
M  V30 23004 H 2132.4 -0.0283388 -0.663395 0
M  V30 23005 H 2134.93 -0.70674 -1.92006 0
M  V30 23006 H 2134.94 0.497774 -4.04952 0
M  V30 23007 H 2133.61 -0.653126 -4.1074 0
M  V30 23008 H 2132.19 1.09597 -3.56431 0
M  V30 23009 N 2134.38 1.55765 -0.239796 0
M  V30 23010 C 2135.6 2.03618 0.394243 0
M  V30 23011 C 2136.03 1.1181 1.51261 0
M  V30 23012 O 2135.38 0.1097 1.80968 0
M  V30 23013 C 2135.43 3.49545 0.886029 0
M  V30 23014 O 2134.54 3.60872 1.99613 0
M  V30 23015 H 2133.88 0.658289 0.0869012 0
M  V30 23016 H 2136.41 2.0134 -0.363774 0
M  V30 23017 H 2136.42 3.90226 1.1911 0
M  V30 23018 H 2135.09 4.15845 0.0675883 0
M  V30 23019 H 2133.67 3.32085 1.6963 0
M  V30 23020 N 2135.85 -0.0334016 1.57565 0
M  V30 23021 C 2137.27 -0.580549 1.77444 0
M  V30 23022 C 2137.62 -1.7584 0.870324 0
M  V30 23023 O 2136.74 -2.16305 0.0640468 0
M  V30 23024 C 2137.34 -1.05995 3.21793 0
M  V30 23025 C 2135.9 -1.55265 3.42885 0
M  V30 23026 C 2135.04 -0.488796 2.72958 0
M  V30 23027 H 2137.99 0.192826 1.57524 0
M  V30 23028 H 2138.01 -1.92748 3.28068 0
M  V30 23029 H 2137.53 -0.202479 3.87571 0
M  V30 23030 H 2135.63 -2.43211 2.82275 0
M  V30 23031 H 2135.74 -1.60314 4.51482 0
M  V30 23032 H 2134.1 -0.942831 2.36607 0
M  V30 23033 H 2134.89 0.359136 3.41416 0
M  V30 23034 N 2137.33 -1.54609 -0.305591 0
M  V30 23035 C 2138.58 -1.73929 -1.04291 0
M  V30 23036 C 2138.91 -0.521093 -1.87078 0
M  V30 23037 O 2138.19 0.481847 -1.88437 0
M  V30 23038 C 2138.47 -3.02557 -1.95272 0
M  V30 23039 C 2138.32 -4.34666 -1.15695 0
M  V30 23040 C 2139.64 -3.27028 -2.94517 0
M  V30 23041 H 2136.76 -0.632835 -0.377741 0
M  V30 23042 H 2139.4 -1.87321 -0.317961 0
M  V30 23043 H 2137.55 -2.91271 -2.57087 0
M  V30 23044 H 2139.22 -4.57863 -0.562028 0
M  V30 23045 H 2137.47 -4.31359 -0.459568 0
M  V30 23046 H 2138.14 -5.20925 -1.82595 0
M  V30 23047 H 2140.61 -3.37894 -2.42831 0
M  V30 23048 H 2139.49 -4.18355 -3.55346 0
M  V30 23049 H 2139.75 -2.45106 -3.67934 0
M  V30 23050 N 2138.81 0.568558 -1.46987 0
M  V30 23051 C 2140.06 1.32251 -1.52291 0
M  V30 23052 C 2140.37 1.94723 -0.184983 0
M  V30 23053 O 2141.58 2.71252 -0.115932 0
M  V30 23054 C 2140.03 2.3976 -2.68408 0
M  V30 23055 C 2139.64 1.83528 -4.08682 0
M  V30 23056 C 2141.39 3.16408 -2.82996 0
M  V30 23057 C 2139.29 2.88751 -5.16117 0
M  V30 23058 H 2138.22 0.497223 -0.56682 0
M  V30 23059 H 2140.87 0.605168 -1.73234 0
M  V30 23060 H 2139.26 3.14357 -2.40823 0
M  V30 23061 H 2140.43 1.1538 -4.46121 0
M  V30 23062 H 2138.75 1.19503 -3.98884 0
M  V30 23063 H 2141.34 3.94962 -3.60429 0
M  V30 23064 H 2141.69 3.69886 -1.91024 0
M  V30 23065 H 2142.22 2.4892 -3.10296 0
M  V30 23066 H 2138.96 2.40142 -6.09928 0
M  V30 23067 H 2138.48 3.55345 -4.83208 0
M  V30 23068 H 2140.16 3.52449 -5.42576 0
M  V30 23069 N 2140.29 1.34929 0.814366 0
M  V30 23070 C 2141.22 1.29866 1.94055 0
M  V30 23071 C 2142.2 0.174504 1.69203 0
M  V30 23072 O 2143.38 0.368232 1.90677 0
M  V30 23073 C 2140.51 1.06201 3.30664 0
M  V30 23074 C 2139.47 2.15174 3.69978 0
M  V30 23075 C 2138.79 1.76686 5.04664 0
M  V30 23076 C 2140.09 3.57077 3.81174 0
M  V30 23077 H 2141.79 2.24095 1.98549 0
M  V30 23078 H 2139.33 1.07877 0.953865 0
M  V30 23079 H 2141.29 1.01301 4.09043 0
M  V30 23080 H 2140.01 0.0841549 3.26492 0
M  V30 23081 H 2138.67 2.19158 2.9388 0
M  V30 23082 H 2138.32 0.775388 4.96988 0
M  V30 23083 H 2138.02 2.49628 5.3194 0
M  V30 23084 H 2139.54 1.73297 5.85492 0
M  V30 23085 H 2140.96 3.55458 4.49803 0
M  V30 23086 H 2139.35 4.28713 4.19911 0
M  V30 23087 H 2140.42 3.93795 2.82937 0
M  V30 23088 N 2141.77 -1.0356 1.18799 0
M  V30 23089 C 2143.01 -1.77109 0.987945 0
M  V30 23090 C 2143.35 -1.88154 -0.480786 0
M  V30 23091 O 2142.62 -1.39339 -1.35702 0
M  V30 23092 C 2142.9 -3.20098 1.64952 0
M  V30 23093 C 2142.76 -3.16964 3.19145 0
M  V30 23094 C 2144.08 -4.18333 1.36696 0
M  V30 23095 H 2141.19 -0.642915 0.360318 0
M  V30 23096 H 2143.84 -1.20938 1.4654 0
M  V30 23097 H 2141.99 -3.6806 1.24356 0
M  V30 23098 H 2143.66 -2.76953 3.6891 0
M  V30 23099 H 2141.9 -2.54859 3.5104 0
M  V30 23100 H 2142.57 -4.17958 3.60576 0
M  V30 23101 H 2145.05 -3.78941 1.7188 0
M  V30 23102 H 2143.92 -5.16589 1.85546 0
M  V30 23103 H 2144.19 -4.41143 0.290807 0
M  V30 23104 N 2143.25 -0.990834 -1.22557 0
M  V30 23105 C 2144.49 -0.664218 -1.90873 0
M  V30 23106 C 2144.81 0.80601 -1.77563 0
M  V30 23107 O 2144.08 1.57751 -1.16153 0
M  V30 23108 H 2142.66 -0.242684 -0.70648 0
M  V30 23109 H 2145.33 -1.2569 -1.48957 0
M  V30 23110 H 2144.42 -0.924949 -2.98079 0
M  V30 23111 N 2144.72 1.37856 -0.763775 0
M  V30 23112 C 2145.95 2.0416 -0.335631 0
M  V30 23113 C 2146.37 1.57607 1.0395 0
M  V30 23114 O 2145.72 0.753707 1.66209 0
M  V30 23115 C 2145.77 3.59696 -0.360678 0
M  V30 23116 O 2145.5 4.04543 -1.68155 0
M  V30 23117 C 2147 4.43228 0.080061 0
M  V30 23118 H 2144.22 0.655845 -0.141805 0
M  V30 23119 H 2146.76 1.76347 -1.03547 0
M  V30 23120 H 2144.92 3.86309 0.290514 0
M  V30 23121 H 2145.33 4.99027 -1.6147 0
M  V30 23122 H 2146.8 5.51999 0.0113779 0
M  V30 23123 H 2147.28 4.24432 1.12936 0
M  V30 23124 H 2147.89 4.21824 -0.542641 0
M  V30 23125 N 2146.2 0.513665 1.48994 0
M  V30 23126 C 2147.15 -0.277482 2.26305 0
M  V30 23127 C 2148.14 -0.924386 1.31696 0
M  V30 23128 O 2149.33 -0.82989 1.56339 0
M  V30 23129 C 2146.46 -1.33373 3.16333 0
M  V30 23130 C 2145.54 -0.692431 4.18409 0
M  V30 23131 N 2145.93 0.212349 5.05354 0
M  V30 23132 C 2144.23 -0.951551 4.35731 0
M  V30 23133 C 2144.93 0.580703 5.78794 0
M  V30 23134 N 2143.91 -0.0543856 5.43573 0
M  V30 23135 H 2147.71 0.418832 2.909 0
M  V30 23136 H 2145.22 0.330585 1.59 0
M  V30 23137 H 2147.22 -1.91407 3.70363 0
M  V30 23138 H 2145.88 -2.03159 2.53292 0
M  V30 23139 H 2146.89 0.583957 5.14597 0
M  V30 23140 H 2143.57 -1.64121 3.83889 0
M  V30 23141 H 2144.96 1.32165 6.58773 0
M  V30 23142 N 2147.68 -1.55636 0.248053 0
M  V30 23143 C 2148.61 -2.2441 -0.645175 0
M  V30 23144 C 2149.59 -1.22477 -1.18039 0
M  V30 23145 O 2150.78 -1.51133 -1.21953 0
M  V30 23146 C 2147.91 -2.94446 -1.84171 0
M  V30 23147 C 2146.86 -4.03076 -1.43922 0
M  V30 23148 C 2146.19 -4.60544 -2.71668 0
M  V30 23149 C 2147.49 -5.18732 -0.609431 0
M  V30 23150 H 2149.18 -2.99314 -0.0716951 0
M  V30 23151 H 2146.73 -1.43962 -0.033043 0
M  V30 23152 H 2148.68 -3.41259 -2.47225 0
M  V30 23153 H 2147.4 -2.17031 -2.44059 0
M  V30 23154 H 2146.06 -3.57034 -0.832012 0
M  V30 23155 H 2145.71 -3.79829 -3.29756 0
M  V30 23156 H 2145.41 -5.33876 -2.4546 0
M  V30 23157 H 2146.93 -5.10091 -3.35618 0
M  V30 23158 H 2148.35 -5.61764 -1.1443 0
M  V30 23159 H 2146.74 -5.9846 -0.443361 0
M  V30 23160 H 2147.81 -4.83424 0.378087 0
M  V30 23161 N 2149.16 0.0250451 -1.5758 0
M  V30 23162 C 2150.43 0.750684 -1.80621 0
M  V30 23163 C 2150.81 1.93359 -0.847083 0
M  V30 23164 O 2150.16 2.28236 0.109857 0
M  V30 23165 C 2150.37 1.17995 -3.28448 0
M  V30 23166 C 2151.72 1.5942 -3.93536 0
M  V30 23167 O 2152.74 1.27442 -3.32621 0
M  V30 23168 O 2151.6 2.18788 -5.00793 0
M  V30 23169 H 2148.7 0.363355 -0.742901 0
M  V30 23170 H 2151.24 0.00151411 -1.697 0
M  V30 23171 H 2150.02 0.335683 -3.89857 0
M  V30 23172 H 2149.64 1.98901 -3.44273 0
M  V30 23173 N 2150.64 1.54769 0.297388 0
M  V30 23174 C 2151.88 1.74479 1.03367 0
M  V30 23175 C 2152.21 0.531007 1.86799 0
M  V30 23176 O 2151.49 -0.471847 1.8869 0
M  V30 23177 C 2151.77 3.03588 1.93665 0
M  V30 23178 C 2151.63 4.35274 1.13389 0
M  V30 23179 C 2152.94 3.28586 2.92779 0
M  V30 23180 H 2150.06 0.63483 0.37438 0
M  V30 23181 H 2152.71 1.87487 0.308023 0
M  V30 23182 H 2150.86 2.9263 2.55538 0
M  V30 23183 H 2152.53 4.58155 0.537739 0
M  V30 23184 H 2150.77 4.31596 0.436685 0
M  V30 23185 H 2151.44 5.21886 1.7983 0
M  V30 23186 H 2153.92 3.39177 2.41035 0
M  V30 23187 H 2152.79 4.20233 3.53122 0
M  V30 23188 H 2153.05 2.47054 3.66629 0
M  V30 23189 N 2152.11 -0.560755 1.47286 0
M  V30 23190 C 2153.34 -1.34841 1.57584 0
M  V30 23191 C 2153.76 -1.86747 0.22521 0
M  V30 23192 O 2153.12 -1.62776 -0.798346 0
M  V30 23193 C 2153.17 -2.49671 2.60186 0
M  V30 23194 O 2152.27 -3.51793 2.1521 0
M  V30 23195 H 2151.61 -0.400669 0.529491 0
M  V30 23196 H 2154.14 -0.67803 1.93039 0
M  V30 23197 H 2154.15 -2.9629 2.80493 0
M  V30 23198 H 2152.83 -2.11248 3.58256 0
M  V30 23199 H 2151.41 -3.11504 2.04987 0
M  V30 23200 N 2153.59 -1.35359 -0.807199 0
M  V30 23201 C 2154.87 -1.19163 -1.55111 0
M  V30 23202 C 2155.25 0.22949 -2.09849 0
M  V30 23203 O 2154.6 1.23292 -1.92383 0
M  V30 23204 C 2154.81 -2.25917 -2.66012 0
M  V30 23205 C 2156.15 -2.61693 -3.34368 0
M  V30 23206 O 2157.18 -2.24826 -2.76282 0
M  V30 23207 O 2156.04 -3.25083 -4.39299 0
M  V30 23208 H 2153.13 -0.462906 -0.685308 0
M  V30 23209 H 2155.68 -1.47039 -0.847213 0
M  V30 23210 H 2154.45 -3.21238 -2.23432 0
M  V30 23211 H 2154.07 -1.99307 -3.44038 0
M  V30 23212 N 2155.07 1.02928 -1.19346 0
M  V30 23213 C 2155.98 2.14674 -0.946161 0
M  V30 23214 C 2157 1.73748 0.0936895 0
M  V30 23215 O 2158.17 2.01195 -0.0908598 0
M  V30 23216 C 2155.24 3.43253 -0.487673 0
M  V30 23217 C 2154.3 3.98496 -1.59686 0
M  V30 23218 C 2153.53 5.20938 -1.16016 0
M  V30 23219 O 2153.75 5.70395 -0.0235541 0
M  V30 23220 O 2152.69 5.69006 -1.96254 0
M  V30 23221 H 2156.51 2.38399 -1.88148 0
M  V30 23222 H 2154.1 1.13092 -0.97625 0
M  V30 23223 H 2155.98 4.20713 -0.240612 0
M  V30 23224 H 2154.66 3.20974 0.41921 0
M  V30 23225 H 2153.56 3.22373 -1.89807 0
M  V30 23226 H 2154.9 4.25138 -2.48029 0
M  V30 23227 N 2156.55 0.997319 1.2203 0
M  V30 23228 C 2157.49 0.551276 2.2412 0
M  V30 23229 C 2158.46 -0.418681 1.60737 0
M  V30 23230 O 2159.65 -0.322451 1.88056 0
M  V30 23231 C 2156.79 -0.123569 3.44879 0
M  V30 23232 C 2155.9 0.888653 4.22761 0
M  V30 23233 C 2155.04 0.186868 5.30871 0
M  V30 23234 C 2154.08 1.18716 6.00477 0
M  V30 23235 N 2153.21 0.513378 7.00221 0
M  V30 23236 H 2158.05 1.42656 2.61636 0
M  V30 23237 H 2155.59 0.714493 1.28582 0
M  V30 23238 H 2157.55 -0.53179 4.13797 0
M  V30 23239 H 2156.18 -0.962614 3.08113 0
M  V30 23240 H 2155.23 1.41517 3.53096 0
M  V30 23241 H 2156.54 1.65019 4.70712 0
M  V30 23242 H 2155.7 -0.277858 6.06063 0
M  V30 23243 H 2154.44 -0.60714 4.83906 0
M  V30 23244 H 2153.44 1.66247 5.24063 0
M  V30 23245 H 2154.67 1.98212 6.4953 0
M  V30 23246 H 2152.61 -0.261113 6.5548 0
M  V30 23247 H 2152.53 1.21329 7.462 0
M  V30 23248 H 2153.8 0.0716018 7.79467 0
M  V30 23249 N 2158.03 -1.37449 0.771075 0
M  V30 23250 C 2158.96 -2.28911 0.115106 0
M  V30 23251 C 2159.97 -1.48601 -0.664961 0
M  V30 23252 O 2161.16 -1.71262 -0.503164 0
M  V30 23253 C 2158.26 -3.2779 -0.860623 0
M  V30 23254 C 2157.43 -4.37193 -0.134514 0
M  V30 23255 C 2156.49 -5.1615 -1.02351 0
M  V30 23256 O 2155.52 -5.67108 -0.487536 0
M  V30 23257 N 2156.72 -5.30813 -2.34985 0
M  V30 23258 H 2159.49 -2.85846 0.900671 0
M  V30 23259 H 2157.05 -1.49418 0.623366 0
M  V30 23260 H 2159.04 -3.77494 -1.45877 0
M  V30 23261 H 2157.61 -2.71628 -1.54716 0
M  V30 23262 H 2156.83 -3.88895 0.644535 0
M  V30 23263 H 2158.12 -5.07473 0.367248 0
M  V30 23264 H 2157.51 -4.90993 -2.80966 0
M  V30 23265 H 2156.07 -5.83828 -2.89808 0
M  V30 23266 N 2159.5 -0.52156 -1.4872 0
M  V30 23267 C 2160.92 -0.178852 -1.58595 0
M  V30 23268 C 2161.12 1.31757 -1.52455 0
M  V30 23269 O 2160.18 2.09518 -1.4092 0
M  V30 23270 C 2161.49 -0.773908 -2.9057 0
M  V30 23271 C 2163.04 -0.741876 -3.04081 0
M  V30 23272 C 2163.51 -1.31536 -4.38705 0
M  V30 23273 N 2165 -1.27696 -4.45251 0
M  V30 23274 C 2165.74 -1.69067 -5.47909 0
M  V30 23275 N 2165.23 -2.18128 -6.57565 0
M  V30 23276 N 2167.03 -1.60356 -5.38742 0
M  V30 23277 H 2159.18 -1.49422 -1.50953 0
M  V30 23278 H 2161.44 -0.621023 -0.716264 0
M  V30 23279 H 2161.15 -1.82417 -3.00694 0
M  V30 23280 H 2161.02 -0.246131 -3.76396 0
M  V30 23281 H 2163.41 0.299604 -2.93575 0
M  V30 23282 H 2163.49 -1.30703 -2.19887 0
M  V30 23283 H 2163.13 -2.35572 -4.49964 0
M  V30 23284 H 2163.06 -0.72596 -5.21572 0
M  V30 23285 H 2165.55 -0.917714 -3.66588 0
M  V30 23286 H 2165.87 -2.47712 -7.32023 0
M  V30 23287 H 2164.21 -2.22116 -6.58551 0
M  V30 23288 H 2167.4 -1.21831 -4.51968 0
M  V30 23289 H 2167.58 -1.92919 -6.18616 0
M  V30 23290 N 2160.98 1.55502 -0.256304 0
M  V30 23291 C 2161.93 2.2177 0.63926 0
M  V30 23292 C 2162.9 1.18474 1.16418 0
M  V30 23293 O 2164.08 1.46954 1.21693 0
M  V30 23294 C 2161.22 2.92819 1.82623 0
M  V30 23295 C 2160.34 4.10791 1.33695 0
M  V30 23296 C 2159.47 4.69531 2.48423 0
M  V30 23297 C 2158.51 5.79735 1.96403 0
M  V30 23298 N 2157.65 6.32617 3.04533 0
M  V30 23299 H 2162.49 2.97924 0.0674772 0
M  V30 23300 H 2160.03 1.47084 0.0215424 0
M  V30 23301 H 2161.98 3.32216 2.52366 0
M  V30 23302 H 2160.61 2.19122 2.37034 0
M  V30 23303 H 2159.67 3.76644 0.533253 0
M  V30 23304 H 2160.98 4.90321 0.915786 0
M  V30 23305 H 2160.13 5.11551 3.26191 0
M  V30 23306 H 2158.87 3.89238 2.93845 0
M  V30 23307 H 2157.88 5.37183 1.17108 0
M  V30 23308 H 2159.1 6.61885 1.51939 0
M  V30 23309 H 2157.05 5.55225 3.49372 0
M  V30 23310 H 2156.96 7.07366 2.66776 0
M  V30 23311 H 2158.23 6.79295 3.82332 0
M  V30 23312 N 2162.46 -0.0166879 1.57591 0
M  V30 23313 C 2163.42 -0.998156 2.06324 0
M  V30 23314 C 2164.42 -1.28282 0.969561 0
M  V30 23315 O 2165.61 -1.23078 1.23278 0
M  V30 23316 C 2162.75 -2.32767 2.49063 0
M  V30 23317 H 2163.94 -0.576954 2.94298 0
M  V30 23318 H 2161.49 -0.263799 1.54058 0
M  V30 23319 H 2162.23 -2.7961 1.64282 0
M  V30 23320 H 2162.01 -2.13431 3.28922 0
M  V30 23321 H 2163.5 -3.03207 2.87151 0
M  V30 23322 N 2163.94 -1.54924 -0.289176 0
M  V30 23323 C 2165.18 -1.76509 -1.03072 0
M  V30 23324 C 2165.54 -0.545833 -1.84078 0
M  V30 23325 O 2166.74 -0.639633 -2.61079 0
M  V30 23326 C 2165.01 -3.02518 -1.9031 0
M  V30 23327 S 2166.57 -3.45155 -2.70949 0
M  V30 23328 H 2163.39 -0.620336 -0.347424 0
M  V30 23329 H 2165.99 -1.9314 -0.302842 0
M  V30 23330 H 2164.7 -3.89368 -1.29695 0
M  V30 23331 H 2164.23 -2.88507 -2.67446 0
M  V30 23332 H 2166.24 -3.03155 -3.92825 0
M  V30 23333 N 2165.42 0.552936 -1.47582 0
M  V30 23334 C 2166.35 1.67543 -1.54934 0
M  V30 23335 C 2167.33 1.57572 -0.401207 0
M  V30 23336 O 2168.51 1.7837 -0.609608 0
M  V30 23337 C 2165.64 3.05813 -1.45588 0
M  V30 23338 C 2164.68 3.34215 -2.64957 0
M  V30 23339 S 2165.52 3.23 -4.27119 0
M  V30 23340 C 2166.67 4.63757 -4.20333 0
M  V30 23341 H 2166.91 1.61052 -2.49899 0
M  V30 23342 H 2164.44 0.734096 -1.35832 0
M  V30 23343 H 2166.4 3.85567 -1.40883 0
M  V30 23344 H 2165.06 3.09766 -0.520006 0
M  V30 23345 H 2164.25 4.35028 -2.54493 0
M  V30 23346 H 2163.85 2.62088 -2.66807 0
M  V30 23347 H 2166.15 5.54799 -3.8885 0
M  V30 23348 H 2167.09 4.79278 -5.21247 0
M  V30 23349 H 2167.5 4.42004 -3.5113 0
M  V30 23350 N 2166.89 1.35785 0.800009 0
M  V30 23351 C 2168.12 1.32717 1.59377 0
M  V30 23352 C 2168.54 -0.0914251 1.87878 0
M  V30 23353 O 2167.9 -1.06023 1.47068 0
M  V30 23354 C 2167.95 2.14589 2.898 0
M  V30 23355 O 2167.05 1.53112 3.82924 0
M  V30 23356 H 2166.4 0.45473 0.483856 0
M  V30 23357 H 2168.93 1.7892 0.992412 0
M  V30 23358 H 2168.94 2.26784 3.39165 0
M  V30 23359 H 2167.61 3.17717 2.68382 0
M  V30 23360 H 2166.19 1.49795 3.41491 0
M  V30 23361 N 2168.37 -1.02294 1.19891 0
M  V30 23362 C 2169.32 -2.107 0.942023 0
M  V30 23363 C 2170.29 -1.65626 -0.125398 0
M  V30 23364 O 2171.47 -1.90792 0.0179973 0
M  V30 23365 C 2168.61 -3.41556 0.493291 0
M  V30 23366 C 2167.73 -4.00144 1.62815 0
M  V30 23367 C 2166.86 -5.19034 1.13036 0
M  V30 23368 C 2165.9 -5.69691 2.23872 0
M  V30 23369 N 2165.04 -6.79849 1.75357 0
M  V30 23370 H 2169.88 -2.3201 1.87017 0
M  V30 23371 H 2167.42 -1.13784 0.932293 0
M  V30 23372 H 2169.37 -4.16648 0.214483 0
M  V30 23373 H 2168 -3.20339 -0.397861 0
M  V30 23374 H 2167.06 -3.22208 2.02203 0
M  V30 23375 H 2168.37 -4.3375 2.46298 0
M  V30 23376 H 2167.52 -6.01307 0.807136 0
M  V30 23377 H 2166.26 -4.86978 0.265337 0
M  V30 23378 H 2165.27 -4.86027 2.57018 0
M  V30 23379 H 2166.49 -6.03784 3.1084 0
M  V30 23380 H 2164.44 -6.49634 0.911717 0
M  V30 23381 H 2164.35 -7.12613 2.52425 0
M  V30 23382 H 2165.62 -7.65702 1.46016 0
M  V30 23383 N 2169.85 -1.00378 -1.21499 0
M  V30 23384 C 2171.1 -0.681173 -1.8985 0
M  V30 23385 C 2171.41 0.791343 -1.78877 0
M  V30 23386 O 2172.62 1.22598 -2.42244 0
M  V30 23387 C 2171.07 -1.1679 -3.40424 0
M  V30 23388 C 2170.68 -2.6664 -3.6001 0
M  V30 23389 C 2172.43 -0.920124 -4.14408 0
M  V30 23390 C 2170.33 -3.0886 -5.04341 0
M  V30 23391 H 2169.26 -0.251086 -0.710965 0
M  V30 23392 H 2171.91 -1.21478 -1.37533 0
M  V30 23393 H 2170.3 -0.562349 -3.91987 0
M  V30 23394 H 2171.47 -3.32634 -3.18891 0
M  V30 23395 H 2169.79 -2.89419 -2.99376 0
M  V30 23396 H 2172.38 -1.21113 -5.20803 0
M  V30 23397 H 2172.73 0.143641 -4.16052 0
M  V30 23398 H 2173.26 -1.4884 -3.68906 0
M  V30 23399 H 2170 -4.14458 -5.07844 0
M  V30 23400 H 2169.52 -2.47577 -5.4632 0
M  V30 23401 H 2171.2 -3.00772 -5.7284 0
M  V30 23402 N 2171.33 1.37038 -0.778354 0
M  V30 23403 C 2172.56 2.03792 -0.357266 0
M  V30 23404 C 2172.97 1.587 1.02272 0
M  V30 23405 O 2172.33 0.771294 1.654 0
M  V30 23406 C 2172.38 3.59293 -0.398808 0
M  V30 23407 O 2172.1 4.02737 -1.72437 0
M  V30 23408 C 2173.6 4.43288 0.0330462 0
M  V30 23409 H 2170.82 0.654304 -0.148753 0
M  V30 23410 H 2173.37 1.75239 -1.05412 0
M  V30 23411 H 2171.52 3.86596 0.249525 0
M  V30 23412 H 2171.93 4.97286 -1.66754 0
M  V30 23413 H 2173.41 5.5198 -0.0471696 0
M  V30 23414 H 2173.89 4.25606 1.08428 0
M  V30 23415 H 2174.49 4.21225 -0.58735 0
M  V30 23416 N 2172.81 0.529439 1.48441 0
M  V30 23417 C 2173.75 -0.233627 2.29615 0
M  V30 23418 C 2174.72 -0.934301 1.37332 0
M  V30 23419 O 2175.91 -0.935433 1.66296 0
M  V30 23420 C 2173.05 -1.27491 3.20687 0
M  V30 23421 C 2172.16 -0.583135 4.28046 0
M  V30 23422 C 2171.3 -1.6073 5.06299 0
M  V30 23423 C 2170.34 -0.898962 6.05463 0
M  V30 23424 N 2169.47 -1.86865 6.76776 0
M  V30 23425 H 2174.31 0.464768 2.94353 0
M  V30 23426 H 2171.85 0.241037 1.45112 0
M  V30 23427 H 2173.81 -1.89092 3.71887 0
M  V30 23428 H 2172.44 -1.9417 2.57872 0
M  V30 23429 H 2171.49 0.146804 3.80117 0
M  V30 23430 H 2172.8 -0.0269268 4.98793 0
M  V30 23431 H 2171.96 -2.29761 5.61511 0
M  V30 23432 H 2170.7 -2.19741 4.35391 0
M  V30 23433 H 2169.7 -0.194579 5.49456 0
M  V30 23434 H 2170.93 -0.314978 6.78369 0
M  V30 23435 H 2168.87 -2.44784 6.08619 0
M  V30 23436 H 2168.79 -1.36386 7.43596 0
M  V30 23437 H 2170.06 -2.55096 7.36577 0
M  V30 23438 N 2174.29 -1.55364 0.264547 0
M  V30 23439 C 2175.2 -2.25763 -0.637821 0
M  V30 23440 C 2176.21 -1.27983 -1.17883 0
M  V30 23441 O 2177.39 -1.60897 -1.21136 0
M  V30 23442 C 2174.45 -2.95689 -1.81021 0
M  V30 23443 C 2173.51 -4.08923 -1.30693 0
M  V30 23444 C 2172.75 -4.75505 -2.42344 0
M  V30 23445 O 2172.97 -4.41244 -3.61469 0
M  V30 23446 O 2171.9 -5.63667 -2.111 0
M  V30 23447 H 2175.73 -3.03624 -0.0678471 0
M  V30 23448 H 2173.31 -1.49365 0.0323545 0
M  V30 23449 H 2175.2 -3.39671 -2.49402 0
M  V30 23450 H 2173.87 -2.20754 -2.36747 0
M  V30 23451 H 2172.78 -3.6942 -0.589885 0
M  V30 23452 H 2174.11 -4.85728 -0.795542 0
M  V30 23453 N 2175.76 0.00833021 -1.57598 0
M  V30 23454 C 2176.69 1.0015 -2.10932 0
M  V30 23455 C 2177.67 1.36385 -1.01653 0
M  V30 23456 O 2178.86 1.44906 -1.2929 0
M  V30 23457 C 2175.99 2.296 -2.60578 0
M  V30 23458 C 2174.94 2.07551 -3.74308 0
M  V30 23459 C 2174.27 3.42942 -4.10238 0
M  V30 23460 C 2175.57 1.44484 -5.01918 0
M  V30 23461 H 2177.26 0.557461 -2.94164 0
M  V30 23462 H 2174.81 0.266703 -1.41509 0
M  V30 23463 H 2176.76 2.99428 -2.96515 0
M  V30 23464 H 2175.49 2.76103 -1.74456 0
M  V30 23465 H 2174.15 1.40152 -3.38752 0
M  V30 23466 H 2173.79 3.87132 -3.21151 0
M  V30 23467 H 2173.49 3.29007 -4.86855 0
M  V30 23468 H 2175.02 4.14098 -4.48726 0
M  V30 23469 H 2176.43 2.04256 -5.35679 0
M  V30 23470 H 2174.83 1.41063 -5.83285 0
M  V30 23471 H 2175.9 0.413049 -4.83138 0
M  V30 23472 N 2177.24 1.55075 0.280956 0
M  V30 23473 C 2178.17 1.90416 1.35145 0
M  V30 23474 C 2179.15 0.765149 1.51919 0
M  V30 23475 O 2180.34 1.02261 1.65095 0
M  V30 23476 C 2177.47 2.16909 2.71233 0
M  V30 23477 C 2176.42 3.32739 2.692 0
M  V30 23478 C 2175.75 3.44695 4.08766 0
M  V30 23479 C 2177.05 4.69338 2.2917 0
M  V30 23480 H 2178.74 2.80078 1.05815 0
M  V30 23481 H 2176.29 1.34758 0.507584 0
M  V30 23482 H 2178.24 2.40219 3.46226 0
M  V30 23483 H 2176.96 1.24039 3.02129 0
M  V30 23484 H 2175.62 3.09385 1.96664 0
M  V30 23485 H 2175.27 2.49305 4.36871 0
M  V30 23486 H 2174.97 4.22568 4.08301 0
M  V30 23487 H 2176.5 3.70288 4.85509 0
M  V30 23488 H 2177.91 4.92246 2.93883 0
M  V30 23489 H 2176.31 5.5007 2.39882 0
M  V30 23490 H 2177.38 4.68698 1.24297 0
M  V30 23491 N 2178.72 -0.545102 1.47873 0
M  V30 23492 C 2179.67 -1.67209 1.61691 0
M  V30 23493 C 2180.66 -1.62345 0.483792 0
M  V30 23494 O 2181.87 -1.67384 0.662009 0
M  V30 23495 H 2178.24 -0.553487 0.509073 0
M  V30 23496 H 2180.21 -1.52694 2.56373 0
M  V30 23497 C 2178.96 -3.05531 1.65971 0
M  V30 23498 H 2178.29 -3.09961 2.52516 0
M  V30 23499 H 2179.73 -3.84043 1.79686 0
M  V30 23500 C 2178.18 -3.34572 0.39536 0
M  V30 23501 O 2178.71 -3.98597 -0.498334 0
M  V30 23502 N 2176.92 -2.89327 0.271672 0
M  V30 23503 H 2176.47 -2.37403 0.999874 0
M  V30 23504 H 2176.43 -3.09129 -0.573311 0
M  V30 23505 N 2180.2 -1.36208 -0.792797 0
M  V30 23506 C 2181.14 -1.30258 -1.90529 0
M  V30 23507 C 2182.11 -0.171903 -1.65208 0
M  V30 23508 O 2183.3 -0.357869 -1.87414 0
M  V30 23509 C 2180.44 -1.09434 -3.27289 0
M  V30 23510 C 2179.55 -2.31548 -3.64705 0
M  V30 23511 C 2178.69 -2.03763 -4.90565 0
M  V30 23512 C 2177.73 -3.21855 -5.20649 0
M  V30 23513 N 2176.86 -2.93756 -6.37692 0
M  V30 23514 H 2181.7 -2.25385 -1.9495 0
M  V30 23515 H 2179.24 -1.12022 -0.953389 0
M  V30 23516 H 2181.2 -0.953883 -4.06149 0
M  V30 23517 H 2179.83 -0.179641 -3.223 0
M  V30 23518 H 2178.88 -2.56409 -2.80996 0
M  V30 23519 H 2180.19 -3.19685 -3.82888 0
M  V30 23520 H 2179.35 -1.86627 -5.77283 0
M  V30 23521 H 2178.09 -1.12931 -4.74445 0
M  V30 23522 H 2177.09 -3.39553 -4.32416 0
M  V30 23523 H 2178.32 -4.13507 -5.38691 0
M  V30 23524 H 2176.26 -2.05533 -6.2297 0
M  V30 23525 H 2176.18 -3.75431 -6.56192 0
M  V30 23526 H 2177.45 -2.80192 -7.27401 0
M  V30 23527 N 2181.68 1.01656 -1.20431 0
M  V30 23528 C 2183.09 1.27562 -0.959176 0
M  V30 23529 C 2183.29 1.98235 0.361268 0
M  V30 23530 O 2182.35 2.27772 1.08979 0
M  V30 23531 C 2183.66 2.11061 -2.14181 0
M  V30 23532 C 2185.21 2.24327 -2.1828 0
M  V30 23533 C 2185.68 3.11204 -3.3603 0
M  V30 23534 N 2187.17 3.18793 -3.36044 0
M  V30 23535 C 2187.91 3.86239 -4.23801 0
M  V30 23536 N 2187.41 4.55811 -5.21736 0
M  V30 23537 N 2189.2 3.82763 -4.11642 0
M  V30 23538 H 2181.35 0.542057 -2.05367 0
M  V30 23539 H 2183.61 0.30186 -0.898657 0
M  V30 23540 H 2183.32 1.66468 -3.09808 0
M  V30 23541 H 2183.19 3.11798 -2.12278 0
M  V30 23542 H 2185.58 2.68145 -1.23216 0
M  V30 23543 H 2185.66 1.23099 -2.24232 0
M  V30 23544 H 2185.3 2.68092 -4.3138 0
M  V30 23545 H 2185.23 4.1252 -3.27315 0
M  V30 23546 H 2187.73 2.69255 -2.6516 0
M  V30 23547 H 2188.04 5.04944 -5.85023 0
M  V30 23548 H 2186.38 4.54635 -5.25673 0
M  V30 23549 H 2189.57 3.27557 -3.34401 0
M  V30 23550 H 2189.75 4.3505 -4.80245 0
M  V30 23551 N 2183.15 1.01021 1.20965 0
M  V30 23552 C 2184.4 0.6945 1.89792 0
M  V30 23553 C 2184.72 -0.77766 1.78822 0
M  V30 23554 O 2183.99 -1.55883 1.18648 0
M  V30 23555 H 2182.57 0.253892 0.702529 0
M  V30 23556 H 2185.23 1.28043 1.46938 0
M  V30 23557 H 2184.33 0.972254 2.9657 0
M  V30 23558 N 2184.63 -1.36623 0.78561 0
M  V30 23559 C 2185.88 -1.99342 0.356255 0
M  V30 23560 C 2186.21 -1.62355 -1.07103 0
M  V30 23561 O 2185.46 -0.868184 -1.75388 0
M  V30 23562 C 2185.76 -3.54391 0.462776 0
M  V30 23563 C 2185.43 -4.11186 1.85031 0
M  V30 23564 C 2184.09 -4.2641 2.22997 0
M  V30 23565 C 2186.44 -4.42184 2.75904 0
M  V30 23566 C 2183.77 -4.69941 3.51244 0
M  V30 23567 C 2186.12 -4.87145 4.03575 0
M  V30 23568 C 2184.78 -5.00575 4.41567 0
M  V30 23569 H 2184.05 -0.729443 0.130363 0
M  V30 23570 H 2186.7 -1.63173 1.00233 0
M  V30 23571 H 2185.01 -3.9089 -0.266811 0
M  V30 23572 H 2186.7 -4.00845 0.111658 0
M  V30 23573 H 2183.29 -3.99774 1.54528 0
M  V30 23574 H 2187.48 -4.29994 2.47827 0
M  V30 23575 H 2182.73 -4.78526 3.80556 0
M  V30 23576 H 2186.91 -5.10094 4.74106 0
M  V30 23577 H 2184.53 -5.34064 5.40999 0
M  V30 23578 N 2186.11 -0.537304 -1.48158 0
M  V30 23579 C 2187.52 -0.0987274 -1.86439 0
M  V30 23580 C 2187.87 1.32599 -1.4461 0
M  V30 23581 O 2187 1.99427 -0.840112 0
M  V30 23582 C 2187.59 -0.172391 -3.38361 0
M  V30 23583 C 2186.15 0.211031 -3.75808 0
M  V30 23584 C 2185.3 -0.528892 -2.7221 0
M  V30 23585 H 2188.25 -0.74815 -1.39959 0
M  V30 23586 H 2188.27 0.614074 -3.75512 0
M  V30 23587 H 2187.78 -1.20942 -3.68774 0
M  V30 23588 H 2185.88 1.24993 -3.51009 0
M  V30 23589 H 2186 -0.133675 -4.78913 0
M  V30 23590 H 2184.36 0.0257117 -2.54687 0
M  V30 23591 H 2185.14 -1.5667 -3.05466 0
M  V30 23592 N 2187.59 1.55221 -0.272782 0
M  V30 23593 C 2188.55 2.21137 0.602593 0
M  V30 23594 C 2189.55 1.1885 1.08311 0
M  V30 23595 O 2190.74 1.4377 0.983663 0
M  V30 23596 C 2187.87 2.87548 1.8311 0
M  V30 23597 H 2189.07 2.99888 0.0271068 0
M  V30 23598 H 2186.62 1.56283 -0.0233836 0
M  V30 23599 H 2187.35 2.12802 2.44716 0
M  V30 23600 H 2187.14 3.62502 1.49449 0
M  V30 23601 H 2188.63 3.37914 2.45365 0
M  V30 23602 N 2189.07 2.77022e-05 1.576 0
M  V30 23603 C 2190.32 -0.684007 1.89748 0
M  V30 23604 C 2190.63 -1.74935 0.875041 0
M  V30 23605 O 2191.83 -2.48802 1.08674 0
M  V30 23606 C 2190.29 -1.26778 3.36831 0
M  V30 23607 C 2189.9 -0.23725 4.47371 0
M  V30 23608 C 2191.64 -1.93 3.78089 0
M  V30 23609 C 2189.55 -0.831011 5.85532 0
M  V30 23610 H 2188.48 -0.259241 0.708033 0
M  V30 23611 H 2191.13 0.0605762 1.834 0
M  V30 23612 H 2189.51 -2.06303 3.38017 0
M  V30 23613 H 2190.69 0.53341 4.57702 0
M  V30 23614 H 2189 0.324536 4.15133 0
M  V30 23615 H 2191.6 -2.38328 4.78648 0
M  V30 23616 H 2191.94 -2.76058 3.11605 0
M  V30 23617 H 2192.47 -1.20209 3.79203 0
M  V30 23618 H 2189.21 -0.0392145 6.55488 0
M  V30 23619 H 2188.73 -1.57083 5.78865 0
M  V30 23620 H 2190.41 -1.32963 6.3319 0
M  V30 23621 N 2190.54 -1.55222 -0.272728 0
M  V30 23622 C 2191.96 -1.47068 -0.619933 0
M  V30 23623 C 2192.16 -0.685012 -1.89499 0
M  V30 23624 O 2191.22 -0.203975 -2.51675 0
M  V30 23625 C 2192.53 -2.91283 -0.746642 0
M  V30 23626 C 2194.08 -3.01499 -0.840678 0
M  V30 23627 C 2194.55 -4.46968 -0.999161 0
M  V30 23628 N 2196.04 -4.50798 -1.06468 0
M  V30 23629 C 2196.78 -5.60572 -1.20611 0
M  V30 23630 N 2196.27 -6.80211 -1.31471 0
M  V30 23631 N 2198.07 -5.48315 -1.23723 0
M  V30 23632 H 2190.22 -2.04757 0.564642 0
M  V30 23633 H 2192.48 -0.92852 0.191194 0
M  V30 23634 H 2192.19 -3.51496 0.119815 0
M  V30 23635 H 2192.06 -3.40314 -1.62684 0
M  V30 23636 H 2194.45 -2.41382 -1.6976 0
M  V30 23637 H 2194.53 -2.5572 0.0641323 0
M  V30 23638 H 2194.17 -5.07688 -0.146895 0
M  V30 23639 H 2194.1 -4.90404 -1.91862 0
M  V30 23640 H 2196.59 -3.64617 -0.993132 0
M  V30 23641 H 2196.91 -7.59624 -1.42098 0
M  V30 23642 H 2195.25 -6.83022 -1.28475 0
M  V30 23643 H 2198.44 -4.53787 -1.14869 0
M  V30 23644 H 2198.62 -6.33909 -1.34401 0
M  V30 23645 N 2192.02 0.537252 -1.4816 0
M  V30 23646 C 2193.3 1.29837 -1.46294 0
M  V30 23647 C 2193.68 2.10409 -0.17065 0
M  V30 23648 O 2193.03 2.12194 0.847709 0
M  V30 23649 C 2193.24 2.18598 -2.72058 0
M  V30 23650 C 2194.59 2.78974 -3.20092 0
M  V30 23651 O 2195.61 2.28889 -2.72925 0
M  V30 23652 O 2194.47 3.70057 -4.02144 0
M  V30 23653 H 2191.56 0.585637 -0.583916 0
M  V30 23654 H 2194.11 0.554506 -1.60385 0
M  V30 23655 H 2192.88 1.58795 -3.57631 0
M  V30 23656 H 2192.5 3.00244 -2.60651 0
M  V30 23657 N 2193.5 1.36626 0.785562 0
M  V30 23658 C 2194.73 1.34038 1.57217 0
M  V30 23659 C 2195.14 -0.079473 1.89033 0
M  V30 23660 O 2194.48 -1.04786 1.50883 0
M  V30 23661 C 2194.54 2.10046 2.91755 0
M  V30 23662 C 2194.21 3.59109 2.82648 0
M  V30 23663 C 2195.2 4.53279 2.54626 0
M  V30 23664 C 2192.89 4.02047 3.01104 0
M  V30 23665 C 2194.88 5.88364 2.45167 0
M  V30 23666 C 2192.57 5.37222 2.91267 0
M  V30 23667 C 2193.57 6.30193 2.63337 0
M  V30 23668 O 2193.26 7.62884 2.53501 0
M  V30 23669 H 2192.99 0.461274 0.494169 0
M  V30 23670 H 2195.54 1.80372 0.982601 0
M  V30 23671 H 2193.77 1.58381 3.52778 0
M  V30 23672 H 2195.46 2.00267 3.53055 0
M  V30 23673 H 2196.23 4.21418 2.40066 0
M  V30 23674 H 2192.11 3.30053 3.21848 0
M  V30 23675 H 2195.65 6.609 2.23287 0
M  V30 23676 H 2191.55 5.68689 3.0539 0
M  V30 23677 H 2192.32 7.7305 2.68953 0
M  V30 23678 N 2194.98 -1.01016 1.20969 0
M  V30 23679 C 2195.93 -2.08088 0.931857 0
M  V30 23680 C 2196.91 -1.60518 -0.11087 0
M  V30 23681 O 2198.1 -1.76732 0.0973702 0
M  V30 23682 C 2195.23 -3.39745 0.492779 0
M  V30 23683 C 2194.32 -3.93998 1.56929 0
M  V30 23684 N 2194.71 -4.21681 2.79319 0
M  V30 23685 C 2193.01 -4.22217 1.43696 0
M  V30 23686 C 2193.71 -4.65521 3.48805 0
M  V30 23687 N 2192.69 -4.68185 2.76232 0
M  V30 23688 H 2196.49 -2.27408 1.86179 0
M  V30 23689 H 2194 -1.19043 1.10465 0
M  V30 23690 H 2196 -4.15991 0.275117 0
M  V30 23691 H 2194.66 -3.21834 -0.430453 0
M  V30 23692 H 2195.67 -4.10391 3.1591 0
M  V30 23693 H 2192.35 -4.13471 0.57862 0
M  V30 23694 H 2193.74 -4.95706 4.53569 0
M  V30 23695 N 2196.46 -1.01661 -1.20428 0
M  V30 23696 C 2197.7 -0.70595 -1.89796 0
M  V30 23697 C 2198.03 0.764408 -1.78849 0
M  V30 23698 O 2197.29 1.571 -1.16697 0
M  V30 23699 C 2197.59 -1.0872 -3.40462 0
M  V30 23700 C 2197.25 -2.55377 -3.71609 0
M  V30 23701 C 2195.91 -2.95448 -3.79821 0
M  V30 23702 C 2198.27 -3.50319 -3.85909 0
M  V30 23703 C 2195.59 -4.29402 -3.99789 0
M  V30 23704 C 2197.95 -4.83961 -4.07387 0
M  V30 23705 C 2196.61 -5.23739 -4.13828 0
M  V30 23706 H 2195.88 -0.258325 -0.694513 0
M  V30 23707 H 2198.53 -1.27719 -1.42689 0
M  V30 23708 H 2196.83 -0.434378 -3.89385 0
M  V30 23709 H 2198.53 -0.82453 -3.92432 0
M  V30 23710 H 2195.12 -2.23327 -3.65818 0
M  V30 23711 H 2199.3 -3.2052 -3.7892 0
M  V30 23712 H 2194.56 -4.59775 -4.0301 0
M  V30 23713 H 2198.73 -5.57454 -4.17394 0
M  V30 23714 H 2196.36 -6.27549 -4.29053 0
M  V30 23715 N 2197.93 1.36205 -0.792844 0
M  V30 23716 C 2199.18 1.99445 -0.367365 0
M  V30 23717 C 2199.51 1.62776 1.05914 0
M  V30 23718 O 2198.79 0.884241 1.73238 0
M  V30 23719 C 2199.07 3.56102 -0.535107 0
M  V30 23720 C 2198.92 4.02614 -2.00555 0
M  V30 23721 C 2200.24 4.40074 0.0477417 0
M  V30 23722 H 2197.36 0.724539 -0.134954 0
M  V30 23723 H 2200 1.61566 -0.999822 0
M  V30 23724 H 2198.15 3.885 0.003295 0
M  V30 23725 H 2199.83 3.80688 -2.60527 0
M  V30 23726 H 2198.07 3.54028 -2.50693 0
M  V30 23727 H 2198.74 5.11561 -2.07386 0
M  V30 23728 H 2201.22 4.14056 -0.411895 0
M  V30 23729 H 2200.09 5.4881 -0.0996301 0
M  V30 23730 H 2200.35 4.27144 1.14018 0
M  V30 23731 N 2199.41 0.545154 1.47871 0
M  V30 23732 C 2200.36 -0.222471 2.31534 0
M  V30 23733 C 2201.35 -0.92096 1.42178 0
M  V30 23734 O 2202.56 -0.843617 1.59007 0
M  V30 23735 H 2198.94 -0.0906147 0.746521 0
M  V30 23736 H 2200.91 0.502511 2.94138 0
M  V30 23737 C 2199.66 -1.24693 3.24572 0
M  V30 23738 H 2198.98 -0.718875 3.93284 0
M  V30 23739 H 2200.42 -1.75516 3.85967 0
M  V30 23740 C 2198.88 -2.28852 2.47241 0
M  V30 23741 O 2199.41 -3.35565 2.20814 0
M  V30 23742 N 2197.61 -2.02462 2.08465 0
M  V30 23743 H 2197.16 -1.15696 2.30157 0
M  V30 23744 H 2197.12 -2.72372 1.57038 0
M  V30 23745 N 2200.89 -1.55074 0.28101 0
M  V30 23746 C 2201.85 -2.21453 -0.590858 0
M  V30 23747 C 2202.85 -1.19423 -1.07679 0
M  V30 23748 O 2204.04 -1.44289 -0.976025 0
M  V30 23749 C 2201.18 -2.88515 -1.81582 0
M  V30 23750 H 2202.37 -2.99898 -0.0112027 0
M  V30 23751 H 2199.92 -1.56268 0.0316713 0
M  V30 23752 H 2200.66 -2.14097 -2.43584 0
M  V30 23753 H 2200.44 -3.63289 -1.47524 0
M  V30 23754 H 2201.93 -3.39211 -2.43569 0
M  V30 23755 N 2202.37 -0.00838561 -1.57598 0
M  V30 23756 C 2203.6 0.685456 -1.95216 0
M  V30 23757 C 2204.01 1.6684 -0.883736 0
M  V30 23758 O 2203.37 1.81989 0.136533 0
M  V30 23759 C 2203.42 1.41001 -3.32868 0
M  V30 23760 O 2203.14 0.466475 -4.35609 0
M  V30 23761 C 2204.64 2.19759 -3.84995 0
M  V30 23762 H 2201.86 0.190381 -0.643425 0
M  V30 23763 H 2204.41 -0.0619966 -2.04406 0
M  V30 23764 H 2202.56 2.10902 -3.2496 0
M  V30 23765 H 2202.98 0.978608 -5.1529 0
M  V30 23766 H 2204.45 2.6594 -4.83715 0
M  V30 23767 H 2204.93 3.0279 -3.18142 0
M  V30 23768 H 2205.53 1.54857 -3.96105 0
M  V30 23769 N 2203.85 1.55365 0.264492 0
M  V30 23770 C 2204.76 1.91936 1.34899 0
M  V30 23771 C 2205.77 0.81762 1.53594 0
M  V30 23772 O 2206.95 1.11745 1.67556 0
M  V30 23773 C 2204.01 2.19126 2.68672 0
M  V30 23774 C 2203.08 3.42634 2.58651 0
M  V30 23775 C 2202.31 3.68517 3.86045 0
M  V30 23776 O 2202.53 2.96765 4.87121 0
M  V30 23777 O 2201.47 4.62051 3.85736 0
M  V30 23778 H 2205.29 2.84272 1.06878 0
M  V30 23779 H 2202.88 1.4202 0.46375 0
M  V30 23780 H 2204.76 2.38001 3.47755 0
M  V30 23781 H 2203.43 1.29971 2.96461 0
M  V30 23782 H 2202.34 3.29086 1.77914 0
M  V30 23783 H 2203.67 4.32035 2.3581 0
M  V30 23784 N 2205.33 -0.529387 1.48443 0
M  V30 23785 C 2206.24 -1.66081 1.65693 0
M  V30 23786 C 2207.25 -1.65426 0.539461 0
M  V30 23787 O 2208.43 -1.84367 0.810605 0
M  V30 23788 C 2205.49 -3.02542 1.69321 0
M  V30 23789 C 2204.55 -3.14047 2.927 0
M  V30 23790 C 2203.79 -4.43998 2.96144 0
M  V30 23791 O 2204.01 -5.31131 2.07982 0
M  V30 23792 O 2202.94 -4.59881 3.8832 0
M  V30 23793 H 2206.77 -1.54464 2.61485 0
M  V30 23794 H 2204.35 -0.702544 1.31851 0
M  V30 23795 H 2206.24 -3.83698 1.74224 0
M  V30 23796 H 2204.91 -3.14481 0.767022 0
M  V30 23797 H 2203.82 -2.32184 2.93328 0
M  V30 23798 H 2205.15 -3.07023 3.84704 0
M  V30 23799 N 2206.8 -1.37041 -0.778305 0
M  V30 23800 C 2208.03 -1.35235 -1.57246 0
M  V30 23801 C 2208.45 0.0615238 -1.87999 0
M  V30 23802 O 2207.81 1.0367 -1.48736 0
M  V30 23803 C 2207.86 -2.19172 -2.86349 0
M  V30 23804 O 2206.96 -1.59184 -3.80439 0
M  V30 23805 H 2206.3 -0.46237 -0.47656 0
M  V30 23806 H 2208.83 -1.80476 -0.963821 0
M  V30 23807 H 2208.84 -2.32151 -3.35514 0
M  V30 23808 H 2207.52 -3.21947 -2.63293 0
M  V30 23809 H 2206.1 -1.55209 -3.39064 0
M  V30 23810 N 2208.28 1.00373 -1.21503 0
M  V30 23811 C 2209.56 1.71435 -0.941775 0
M  V30 23812 C 2209.94 2.03915 0.546078 0
M  V30 23813 O 2209.29 1.71387 1.51125 0
M  V30 23814 C 2209.5 2.97286 -1.82817 0
M  V30 23815 C 2210.84 3.70289 -2.07777 0
M  V30 23816 O 2211.87 3.0727 -1.80176 0
M  V30 23817 O 2210.73 4.83642 -2.54465 0
M  V30 23818 H 2207.82 0.747756 -0.353256 0
M  V30 23819 H 2210.37 1.06105 -1.32438 0
M  V30 23820 H 2209.14 2.69704 -2.83506 0
M  V30 23821 H 2208.76 3.70356 -1.44646 0
M  V30 23822 N 2209.76 1.02298 1.19887 0
M  V30 23823 C 2210.72 0.60339 2.21115 0
M  V30 23824 C 2211.72 -0.329856 1.5738 0
M  V30 23825 O 2212.91 -0.117672 1.73802 0
M  V30 23826 C 2210.04 -0.117932 3.40696 0
M  V30 23827 H 2211.24 1.49898 2.59751 0
M  V30 23828 H 2208.79 0.813491 1.33462 0
M  V30 23829 H 2209.53 -1.02814 3.07571 0
M  V30 23830 H 2209.31 0.552579 3.88187 0
M  V30 23831 H 2210.8 -0.398623 4.15693 0
M  V30 23832 N 2211.24 -1.35782 0.800057 0
M  V30 23833 C 2212.17 -2.32459 0.220225 0
M  V30 23834 C 2213.15 -1.57162 -0.650702 0
M  V30 23835 O 2214.33 -1.85264 -0.582326 0
M  V30 23836 C 2211.46 -3.41403 -0.637293 0
M  V30 23837 C 2210.42 -4.27788 0.134606 0
M  V30 23838 C 2209.74 -5.27994 -0.844192 0
M  V30 23839 C 2211.04 -5.05086 1.32988 0
M  V30 23840 H 2212.74 -2.81201 1.02792 0
M  V30 23841 H 2210.28 -1.35198 0.495741 0
M  V30 23842 H 2212.24 -4.08033 -1.05295 0
M  V30 23843 H 2210.96 -2.91253 -1.4778 0
M  V30 23844 H 2209.62 -3.62729 0.53136 0
M  V30 23845 H 2209.27 -4.74114 -1.68002 0
M  V30 23846 H 2208.97 -5.86661 -0.332081 0
M  V30 23847 H 2210.49 -5.97496 -1.25819 0
M  V30 23848 H 2211.91 -5.64697 0.989439 0
M  V30 23849 H 2210.3 -5.73217 1.77603 0
M  V30 23850 H 2211.37 -4.36108 2.11986 0
M  V30 23851 N 2212.72 -0.552988 -1.4758 0
M  V30 23852 C 2213.68 0.186565 -2.28439 0
M  V30 23853 C 2214.68 0.846626 -1.36707 0
M  V30 23854 O 2215.87 0.703136 -1.59379 0
M  V30 23855 C 2213 1.27234 -3.16266 0
M  V30 23856 H 2214.19 -0.523661 -2.95293 0
M  V30 23857 H 2211.75 -0.309772 -1.532 0
M  V30 23858 H 2212.48 2.0151 -2.54095 0
M  V30 23859 H 2212.27 0.8039 -3.83771 0
M  V30 23860 H 2213.76 1.79189 -3.77201 0
M  V30 23861 N 2214.19 1.54923 -0.28923 0
M  V30 23862 C 2215.14 2.23076 0.592075 0
M  V30 23863 C 2216.11 1.20917 1.13879 0
M  V30 23864 O 2217.3 1.49502 1.18549 0
M  V30 23865 C 2214.44 2.96626 1.76371 0
M  V30 23866 C 2213.55 4.13535 1.24951 0
M  V30 23867 C 2212.68 4.74695 2.38407 0
M  V30 23868 C 2211.72 5.8377 1.84062 0
M  V30 23869 N 2210.86 6.38934 2.91045 0
M  V30 23870 H 2215.7 2.98 0.00426799 0
M  V30 23871 H 2213.24 1.47097 -0.00966114 0
M  V30 23872 H 2215.19 3.37494 2.45262 0
M  V30 23873 H 2213.82 2.24101 2.32333 0
M  V30 23874 H 2212.88 3.7769 0.453241 0
M  V30 23875 H 2214.19 4.92153 0.811576 0
M  V30 23876 H 2213.34 5.18355 3.15267 0
M  V30 23877 H 2212.08 3.95383 2.85523 0
M  V30 23878 H 2211.09 5.39546 1.05687 0
M  V30 23879 H 2212.31 6.64959 1.37865 0
M  V30 23880 H 2210.26 5.62511 3.37516 0
M  V30 23881 H 2210.17 7.12866 2.51712 0
M  V30 23882 H 2211.44 6.87252 3.67838 0
M  V30 23883 N 2215.67 0.0167433 1.57591 0
M  V30 23884 C 2216.6 -0.96782 2.12498 0
M  V30 23885 C 2217.58 -1.3475 1.03809 0
M  V30 23886 O 2218.77 -1.4283 1.31579 0
M  V30 23887 C 2215.9 -2.25426 2.64198 0
M  V30 23888 C 2214.85 -2.0157 3.77563 0
M  V30 23889 C 2214.18 -3.36372 4.15642 0
M  V30 23890 C 2215.48 -1.36481 5.04153 0
M  V30 23891 H 2217.17 -0.510591 2.95014 0
M  V30 23892 H 2214.72 -0.244156 1.41915 0
M  V30 23893 H 2216.67 -2.94672 3.01241 0
M  V30 23894 H 2215.39 -2.73292 1.78826 0
M  V30 23895 H 2214.05 -1.34745 3.40939 0
M  V30 23896 H 2213.7 -3.81973 3.27269 0
M  V30 23897 H 2213.4 -3.2122 4.92028 0
M  V30 23898 H 2214.93 -4.06907 4.55258 0
M  V30 23899 H 2216.34 -1.95708 5.38861 0
M  V30 23900 H 2214.74 -1.31765 5.85455 0
M  V30 23901 H 2215.81 -0.336134 4.83734 0
M  V30 23902 N 2217.15 -1.55503 -0.256249 0
M  V30 23903 C 2218.57 -1.47717 -0.604299 0
M  V30 23904 C 2218.77 -0.705072 -1.88762 0
M  V30 23905 O 2217.82 -0.230657 -2.51444 0
M  V30 23906 C 2219.14 -2.92058 -0.715705 0
M  V30 23907 C 2220.68 -3.02374 -0.808653 0
M  V30 23908 C 2221.16 -4.48003 -0.951698 0
M  V30 23909 N 2222.65 -4.51902 -1.0168 0
M  V30 23910 C 2223.38 -5.61819 -1.14658 0
M  V30 23911 N 2222.88 -6.81567 -1.24249 0
M  V30 23912 N 2224.67 -5.49596 -1.17901 0
M  V30 23913 H 2216.82 -2.04147 0.586327 0
M  V30 23914 H 2219.09 -0.92644 0.201031 0
M  V30 23915 H 2218.79 -3.51349 0.157089 0
M  V30 23916 H 2218.67 -3.42021 -1.59065 0
M  V30 23917 H 2221.05 -2.43169 -1.6719 0
M  V30 23918 H 2221.14 -2.55637 0.0912512 0
M  V30 23919 H 2220.78 -5.07815 -0.0930398 0
M  V30 23920 H 2220.71 -4.92412 -1.8665 0
M  V30 23921 H 2223.2 -3.65649 -0.954404 0
M  V30 23922 H 2223.51 -7.61088 -1.34033 0
M  V30 23923 H 2221.86 -6.84346 -1.21224 0
M  V30 23924 H 2225.05 -4.5498 -1.10049 0
M  V30 23925 H 2225.22 -6.35299 -1.2767 0
M  V30 23926 N 2218.63 0.521507 -1.48721 0
M  V30 23927 C 2219.58 1.62524 -1.63874 0
M  V30 23928 C 2220.55 1.58996 -0.480587 0
M  V30 23929 O 2221.73 1.77293 -0.705116 0
M  V30 23930 C 2218.87 3.00756 -1.69232 0
M  V30 23931 C 2217.98 3.14455 -2.96212 0
M  V30 23932 C 2217.12 4.43298 -2.92678 0
M  V30 23933 C 2216.16 4.50556 -4.14326 0
M  V30 23934 N 2215.29 5.70798 -4.0882 0
M  V30 23935 H 2220.13 1.48913 -2.58126 0
M  V30 23936 H 2217.67 0.724856 -1.28001 0
M  V30 23937 H 2219.63 3.8085 -1.70321 0
M  V30 23938 H 2218.26 3.13119 -0.784641 0
M  V30 23939 H 2217.31 2.27558 -3.0483 0
M  V30 23940 H 2218.62 3.15679 -3.86197 0
M  V30 23941 H 2217.78 5.31691 -2.92215 0
M  V30 23942 H 2216.52 4.44608 -2.00437 0
M  V30 23943 H 2215.52 3.60568 -4.15055 0
M  V30 23944 H 2216.75 4.50977 -5.07737 0
M  V30 23945 H 2214.69 5.7299 -3.19404 0
M  V30 23946 H 2214.61 5.73552 -4.92519 0
M  V30 23947 H 2215.88 6.61455 -4.12429 0
M  V30 23948 N 2220.11 1.37452 0.771027 0
M  V30 23949 C 2221.33 1.35895 1.56013 0
M  V30 23950 C 2221.75 -0.0555192 1.88718 0
M  V30 23951 O 2221.11 -1.0175 1.51503 0
M  V30 23952 C 2221.16 2.19806 2.86997 0
M  V30 23953 O 2220.88 3.55742 2.55694 0
M  V30 23954 C 2222.38 2.26237 3.81224 0
M  V30 23955 H 2219.6 0.465461 0.483308 0
M  V30 23956 H 2222.14 1.80801 0.955579 0
M  V30 23957 H 2220.3 1.78408 3.43874 0
M  V30 23958 H 2220.71 3.99735 3.39577 0
M  V30 23959 H 2222.19 2.89271 4.70134 0
M  V30 23960 H 2222.66 1.271 4.20407 0
M  V30 23961 H 2223.27 2.67951 3.30276 0
M  V30 23962 N 2221.58 -0.997276 1.22033 0
M  V30 23963 C 2222.83 -1.73037 1.0364 0
M  V30 23964 C 2223.15 -1.90828 -0.429442 0
M  V30 23965 O 2224.35 -2.61419 -0.732949 0
M  V30 23966 C 2222.81 -3.11314 1.80588 0
M  V30 23967 C 2222.42 -3.01469 3.31392 0
M  V30 23968 C 2224.16 -3.88698 1.70628 0
M  V30 23969 C 2222.07 -4.34873 4.00798 0
M  V30 23970 H 2221 -0.648779 0.38419 0
M  V30 23971 H 2223.65 -1.11366 1.45842 0
M  V30 23972 H 2222.03 -3.73641 1.31182 0
M  V30 23973 H 2223.2 -2.48333 3.88159 0
M  V30 23974 H 2221.52 -2.37569 3.4198 0
M  V30 23975 H 2224.12 -4.87431 2.19808 0
M  V30 23976 H 2224.46 -4.1094 0.665895 0
M  V30 23977 H 2224.99 -3.3304 2.17553 0
M  V30 23978 H 2221.73 -4.17832 5.05071 0
M  V30 23979 H 2221.25 -4.87939 3.4882 0
M  V30 23980 H 2222.93 -5.0364 4.06147 0
M  V30 23981 N 2223.06 -1.02932 -1.19343 0
M  V30 23982 C 2224.31 -0.721289 -1.88362 0
M  V30 23983 C 2224.62 0.753223 -1.80516 0
M  V30 23984 O 2225.83 1.17432 -2.4479 0
M  V30 23985 C 2224.29 -1.23984 -3.3787 0
M  V30 23986 C 2223.89 -2.74217 -3.54273 0
M  V30 23987 C 2225.64 -1.00782 -4.12363 0
M  V30 23988 C 2223.55 -3.19488 -4.97676 0
M  V30 23989 H 2222.48 -0.26611 -0.70548 0
M  V30 23990 H 2225.13 -1.24368 -1.34926 0
M  V30 23991 H 2223.51 -0.645369 -3.90706 0
M  V30 23992 H 2224.68 -3.39323 -3.11763 0
M  V30 23993 H 2223 -2.95704 -2.93169 0
M  V30 23994 H 2225.59 -1.32133 -5.18117 0
M  V30 23995 H 2225.94 0.0553576 -4.16263 0
M  V30 23996 H 2226.47 -1.56632 -3.65666 0
M  V30 23997 H 2223.21 -4.25137 -4.98938 0
M  V30 23998 H 2222.73 -2.5911 -5.40946 0
M  V30 23999 H 2224.41 -3.12855 -5.66331 0
M  V30 24000 N 2224.54 1.35356 -0.807246 0
M  V30 24001 C 2225.49 2.31684 -0.206181 0
M  V30 24002 C 2226.48 1.56664 0.644418 0
M  V30 24003 O 2227.69 1.71787 0.537508 0
M  V30 24004 H 2224.06 0.750472 -0.0479138 0
M  V30 24005 H 2226.03 2.79922 -1.03373 0
M  V30 24006 C 2224.78 3.41942 0.630152 0
M  V30 24007 H 2224.11 3.99797 -0.0150261 0
M  V30 24008 H 2225.55 4.1162 1.01709 0
M  V30 24009 C 2224.01 2.85038 1.79596 0
M  V30 24010 O 2224.54 2.78642 2.89346 0
M  V30 24011 N 2222.74 2.42077 1.6077 0
M  V30 24012 H 2222.29 2.47479 0.714965 0
M  V30 24013 H 2222.25 2.04353 2.38929 0
M  V30 24014 N 2226.02 0.560807 1.47284 0
M  V30 24015 C 2226.93 -0.187913 2.33846 0
M  V30 24016 C 2227.94 -0.908267 1.48413 0
M  V30 24017 O 2229.12 -0.876357 1.81334 0
M  V30 24018 C 2226.19 -1.20245 3.2518 0
M  V30 24019 C 2225.25 -0.489133 4.26504 0
M  V30 24020 C 2224.48 -1.45533 5.13474 0
M  V30 24021 O 2224.7 -2.69041 5.02964 0
M  V30 24022 O 2223.64 -0.977859 5.93904 0
M  V30 24023 H 2227.46 0.52223 2.99176 0
M  V30 24024 H 2225.05 0.321389 1.45902 0
M  V30 24025 H 2226.93 -1.78799 3.81587 0
M  V30 24026 H 2225.6 -1.89445 2.62474 0
M  V30 24027 H 2224.51 0.137693 3.73847 0
M  V30 24028 H 2225.84 0.161485 4.91935 0
M  V30 24029 N 2227.5 -1.54768 0.297442 0
M  V30 24030 C 2228.72 -2.04941 -0.318399 0
M  V30 24031 C 2229.15 -1.17347 -1.47007 0
M  V30 24032 O 2228.5 -0.17679 -1.80436 0
M  V30 24033 C 2228.55 -3.52593 -0.755687 0
M  V30 24034 O 2227.66 -3.68032 -1.86082 0
M  V30 24035 H 2227 -0.661061 -0.0624094 0
M  V30 24036 H 2229.53 -1.99851 0.43825 0
M  V30 24037 H 2229.54 -3.94378 -1.04545 0
M  V30 24038 H 2228.21 -4.15809 0.0867964 0
M  V30 24039 H 2226.79 -3.38152 -1.57188 0
M  V30 24040 N 2228.97 -0.0251005 -1.5758 0
M  V30 24041 C 2229.9 0.956538 -2.13008 0
M  V30 24042 C 2230.89 1.34198 -1.04523 0
M  V30 24043 O 2232.07 1.42131 -1.32335 0
M  V30 24044 C 2229.2 2.24022 -2.6539 0
M  V30 24045 C 2228.15 1.99565 -3.78626 0
M  V30 24046 C 2227.48 3.34163 -4.1742 0
M  V30 24047 C 2228.78 1.33805 -5.0487 0
M  V30 24048 H 2230.47 0.494939 -2.95281 0
M  V30 24049 H 2228.02 0.236627 -1.42043 0
M  V30 24050 H 2229.97 2.93071 -3.02799 0
M  V30 24051 H 2228.7 2.7234 -1.80273 0
M  V30 24052 H 2227.36 1.32935 -3.41649 0
M  V30 24053 H 2227 3.80232 -3.29291 0
M  V30 24054 H 2226.7 3.18606 -4.93724 0
M  V30 24055 H 2228.23 4.04486 -4.57409 0
M  V30 24056 H 2229.64 1.92848 -5.39891 0
M  V30 24057 H 2228.04 1.28659 -5.86146 0
M  V30 24058 H 2229.11 0.310476 -4.83905 0
M  V30 24059 N 2230.45 1.55637 0.247999 0
M  V30 24060 C 2231.4 1.91047 1.3268 0
M  V30 24061 C 2232.39 0.789427 1.49881 0
M  V30 24062 O 2233.6 0.974034 1.51369 0
M  V30 24063 H 2229.98 0.606742 0.444261 0
M  V30 24064 H 2231.95 2.81117 1.0008 0
M  V30 24065 C 2230.7 2.22069 2.67546 0
M  V30 24066 H 2230.02 3.0783 2.55109 0
M  V30 24067 H 2231.46 2.50749 3.41908 0
M  V30 24068 C 2229.92 1.03666 3.20554 0
M  V30 24069 O 2230.45 0.284086 4.00694 0
M  V30 24070 N 2228.65 0.827579 2.78567 0
M  V30 24071 H 2228.2 1.44127 2.13507 0
M  V30 24072 H 2228.16 0.0370356 3.14378 0
M  V30 24073 N 2231.93 -0.513613 1.48996 0
M  V30 24074 C 2233.18 -1.26851 1.57845 0
M  V30 24075 C 2233.51 -1.92761 0.259535 0
M  V30 24076 O 2232.76 -1.80693 -0.751559 0
M  V30 24077 C 2233.06 -2.36726 2.6776 0
M  V30 24078 C 2232.73 -1.8836 4.09672 0
M  V30 24079 C 2231.39 -1.74888 4.48294 0
M  V30 24080 C 2233.74 -1.52012 4.9854 0
M  V30 24081 C 2231.07 -1.23428 5.7357 0
M  V30 24082 C 2233.42 -1.02009 6.24321 0
M  V30 24083 C 2232.08 -0.871661 6.61784 0
M  V30 24084 H 2231.35 -0.464182 0.577595 0
M  V30 24085 H 2234 -0.571334 1.82779 0
M  V30 24086 H 2232.31 -3.12181 2.36749 0
M  V30 24087 H 2234 -2.94815 2.71818 0
M  V30 24088 H 2230.59 -1.99802 3.7918 0
M  V30 24089 H 2234.78 -1.61273 4.69366 0
M  V30 24090 H 2230.03 -1.10637 6.01306 0
M  V30 24091 H 2234.21 -0.7296 6.92568 0
M  V30 24092 H 2231.83 -0.470718 7.58741 0
M  V30 24093 N 2233.41 -1.37859 -0.763727 0
M  V30 24094 C 2234.36 -1.34271 -1.87723 0
M  V30 24095 C 2235.33 -0.206908 -1.64806 0
M  V30 24096 O 2236.51 -0.397541 -1.86613 0
M  V30 24097 C 2233.65 -1.16352 -3.24894 0
M  V30 24098 C 2232.76 -2.39231 -3.59711 0
M  V30 24099 C 2231.9 -2.14122 -4.86133 0
M  V30 24100 C 2230.94 -3.32826 -5.13705 0
M  V30 24101 N 2230.08 -3.07217 -6.31318 0
M  V30 24102 H 2234.92 -2.2947 -1.90125 0
M  V30 24103 H 2232.45 -1.14019 -0.929412 0
M  V30 24104 H 2234.41 -1.03982 -4.04034 0
M  V30 24105 H 2233.04 -0.247965 -3.21846 0
M  V30 24106 H 2232.09 -2.62312 -2.75494 0
M  V30 24107 H 2233.4 -3.27734 -3.76021 0
M  V30 24108 H 2232.56 -1.9883 -5.73194 0
M  V30 24109 H 2231.3 -1.22969 -4.71943 0
M  V30 24110 H 2230.3 -3.48649 -4.25116 0
M  V30 24111 H 2231.53 -4.24841 -5.29799 0
M  V30 24112 H 2229.47 -2.18701 -6.18471 0
M  V30 24113 H 2229.39 -3.89265 -6.48081 0
M  V30 24114 H 2230.66 -2.95558 -7.21294 0
M  V30 24115 N 2234.89 0.990791 -1.22561 0
M  V30 24116 C 2236.14 1.72485 -1.04556 0
M  V30 24117 C 2236.45 1.91053 0.419316 0
M  V30 24118 O 2237.66 2.61804 0.719075 0
M  V30 24119 C 2236.11 3.10351 -1.82236 0
M  V30 24120 C 2235.72 2.99707 -3.32986 0
M  V30 24121 C 2237.46 3.87788 -1.72687 0
M  V30 24122 C 2235.37 4.32741 -4.03099 0
M  V30 24123 H 2234.3 0.646732 -0.387626 0
M  V30 24124 H 2236.95 1.10591 -1.46431 0
M  V30 24125 H 2235.33 3.7294 -1.33161 0
M  V30 24126 H 2236.51 2.46271 -3.89471 0
M  V30 24127 H 2234.82 2.35752 -3.43235 0
M  V30 24128 H 2237.42 4.86258 -2.2239 0
M  V30 24129 H 2237.76 4.10581 -0.687679 0
M  V30 24130 H 2238.3 3.31881 -2.19316 0
M  V30 24131 H 2235.03 4.15147 -5.0728 0
M  V30 24132 H 2234.55 4.86082 -3.51403 0
M  V30 24133 H 2236.23 5.01479 -4.08813 0
M  V30 24134 N 2236.37 1.03564 1.18795 0
M  V30 24135 C 2237.78 0.753941 1.40669 0
M  V30 24136 C 2237.98 -0.658652 1.90431 0
M  V30 24137 O 2237.04 -1.42363 2.0854 0
M  V30 24138 C 2238.35 1.79578 2.41189 0
M  V30 24139 C 2239.9 1.81611 2.54925 0
M  V30 24140 C 2240.37 2.84772 3.58704 0
M  V30 24141 N 2241.86 2.83632 3.66207 0
M  V30 24142 C 2242.6 3.60106 4.46219 0
M  V30 24143 N 2242.1 4.46317 5.2988 0
M  V30 24144 N 2243.89 3.48618 4.40933 0
M  V30 24145 H 2236.04 1.94729 0.848187 0
M  V30 24146 H 2238.3 0.842272 0.435066 0
M  V30 24147 H 2238.01 2.80876 2.11664 0
M  V30 24148 H 2237.88 1.62371 3.40464 0
M  V30 24149 H 2240.27 0.809867 2.8377 0
M  V30 24150 H 2240.35 2.02894 1.55781 0
M  V30 24151 H 2239.99 3.85572 3.306 0
M  V30 24152 H 2239.92 2.60745 4.57515 0
M  V30 24153 H 2242.42 2.2111 3.06462 0
M  V30 24154 H 2242.73 5.01392 5.8807 0
M  V30 24155 H 2241.07 4.50386 5.29318 0
M  V30 24156 H 2244.26 2.80674 3.74619 0
M  V30 24157 H 2244.44 4.08467 5.03049 0
M  V30 24158 N 2237.84 -1.34926 0.814413 0
M  V30 24159 C 2239.12 -1.92941 0.321397 0
M  V30 24160 C 2239.5 -1.74355 -1.19011 0
M  V30 24161 O 2238.85 -1.1172 -1.99326 0
M  V30 24162 C 2239.06 -3.41034 0.741383 0
M  V30 24163 C 2240.41 -4.18184 0.73534 0
M  V30 24164 O 2241.43 -3.49582 0.683422 0
M  V30 24165 O 2240.29 -5.40601 0.800798 0
M  V30 24166 H 2237.38 -0.822526 0.0859038 0
M  V30 24167 H 2239.93 -1.43954 0.898634 0
M  V30 24168 H 2238.7 -3.48326 1.78282 0
M  V30 24169 H 2238.32 -3.97356 0.139377 0
M  V30 24170 N 2239.32 -0.56861 -1.46985 0
M  V30 24171 C 2240.25 0.210297 -2.28233 0
M  V30 24172 C 2241.27 0.868743 -1.37683 0
M  V30 24173 O 2242.46 0.740676 -1.62408 0
M  V30 24174 C 2239.56 1.31625 -3.12295 0
M  V30 24175 C 2238.73 0.752425 -4.3088 0
M  V30 24176 C 2237.79 1.7443 -4.96448 0
M  V30 24177 O 2236.81 1.28591 -5.54485 0
M  V30 24178 N 2238.02 3.07804 -4.92176 0
M  V30 24179 H 2240.78 -0.4867 -2.95722 0
M  V30 24180 H 2238.34 -0.405436 -1.56741 0
M  V30 24181 H 2240.33 1.97877 -3.53025 0
M  V30 24182 H 2238.9 1.91631 -2.46974 0
M  V30 24183 H 2238.12 -0.087182 -3.94104 0
M  V30 24184 H 2239.41 0.35527 -5.07558 0
M  V30 24185 H 2238.81 3.47681 -4.46245 0
M  V30 24186 H 2237.37 3.69583 -5.36891 0
M  V30 24187 N 2240.8 1.54608 -0.305646 0
M  V30 24188 C 2241.73 2.2665 0.561442 0
M  V30 24189 C 2242.71 1.26774 1.13412 0
M  V30 24190 O 2243.9 1.55555 1.1626 0
M  V30 24191 C 2241.03 3.01078 1.73116 0
M  V30 24192 C 2239.98 4.0814 1.28863 0
M  V30 24193 C 2239.31 4.70309 2.54388 0
M  V30 24194 C 2240.61 5.20637 0.416487 0
M  V30 24195 H 2242.3 2.99374 -0.0394428 0
M  V30 24196 H 2239.85 1.43986 -0.0204103 0
M  V30 24197 H 2241.8 3.50199 2.34389 0
M  V30 24198 H 2240.52 2.2594 2.35836 0
M  V30 24199 H 2239.18 3.59876 0.698928 0
M  V30 24200 H 2238.83 3.91806 3.15432 0
M  V30 24201 H 2238.53 5.42618 2.25476 0
M  V30 24202 H 2240.05 5.22196 3.16455 0
M  V30 24203 H 2241.47 5.65624 0.935017 0
M  V30 24204 H 2239.86 5.99693 0.220941 0
M  V30 24205 H 2240.93 4.81687 -0.557246 0
M  V30 24206 N 2242.28 0.033457 1.57564 0
M  V30 24207 C 2243.52 -0.645193 1.92263 0
M  V30 24208 C 2243.86 -1.71529 0.910573 0
M  V30 24209 O 2243.13 -1.94388 -0.0660648 0
M  V30 24210 C 2243.41 -1.25765 3.37425 0
M  V30 24211 C 2243.27 -0.196812 4.49369 0
M  V30 24212 C 2244.59 -2.17442 3.82632 0
M  V30 24213 H 2241.71 -0.233073 0.699175 0
M  V30 24214 H 2244.35 0.0916027 1.89779 0
M  V30 24215 H 2242.5 -1.8856 3.39672 0
M  V30 24216 H 2244.17 0.434043 4.59253 0
M  V30 24217 H 2242.41 0.477213 4.31167 0
M  V30 24218 H 2243.08 -0.665027 5.47979 0
M  V30 24219 H 2245.56 -1.64628 3.82148 0
M  V30 24220 H 2244.44 -2.57246 4.84888 0
M  V30 24221 H 2244.7 -3.06734 3.18381 0
M  V30 24222 N 2243.76 -1.55766 -0.239741 0
M  V30 24223 C 2245 -1.78196 -0.968202 0
M  V30 24224 C 2245.33 -0.599971 -1.847 0
M  V30 24225 O 2244.61 0.401491 -1.90311 0
M  V30 24226 C 2244.89 -3.10567 -1.82264 0
M  V30 24227 C 2244.75 -4.39182 -0.971555 0
M  V30 24228 C 2246.06 -3.39226 -2.80382 0
M  V30 24229 H 2243.18 -0.648287 -0.350561 0
M  V30 24230 H 2245.83 -1.88501 -0.238226 0
M  V30 24231 H 2243.98 -3.01913 -2.44501 0
M  V30 24232 H 2245.65 -4.59835 -0.367327 0
M  V30 24233 H 2243.89 -4.3292 -0.2762 0
M  V30 24234 H 2244.56 -5.28201 -1.60337 0
M  V30 24235 H 2247.04 -3.47889 -2.28281 0
M  V30 24236 H 2245.91 -4.3305 -3.37282 0
M  V30 24237 H 2246.17 -2.60491 -3.57207 0
M  V30 24238 N 2245.23 0.505704 -1.49266 0
M  V30 24239 C 2246.48 1.25764 -1.58202 0
M  V30 24240 C 2246.8 1.93142 -0.268516 0
M  V30 24241 O 2246.07 1.82511 0.711801 0
M  V30 24242 H 2244.65 0.467181 -0.582881 0
M  V30 24243 H 2247.31 0.586492 -1.85866 0
M  V30 24244 H 2246.41 2.02407 -2.37566 0
M  V30 24245 N 2246.71 1.38262 0.756405 0
M  V30 24246 C 2247.64 1.3115 1.87969 0
M  V30 24247 C 2248.66 0.224268 1.61248 0
M  V30 24248 O 2249.85 0.481611 1.7188 0
M  V30 24249 C 2246.95 1.00863 3.23543 0
M  V30 24250 C 2246.12 2.20439 3.7779 0
M  V30 24251 C 2245.18 1.8694 4.91874 0
M  V30 24252 O 2244.2 2.59403 5.06654 0
M  V30 24253 N 2245.41 0.822669 5.74641 0
M  V30 24254 H 2248.17 2.27944 1.94581 0
M  V30 24255 H 2245.73 1.32086 0.936211 0
M  V30 24256 H 2247.72 0.765091 3.97402 0
M  V30 24257 H 2246.29 0.128742 3.12335 0
M  V30 24258 H 2245.51 2.60875 2.9553 0
M  V30 24259 H 2246.8 3.00248 4.10766 0
M  V30 24260 H 2246.2 0.221675 5.65266 0
M  V30 24261 H 2244.76 0.639013 6.4866 0
M  V30 24262 N 2248.19 -0.984277 1.23084 0
M  V30 24263 C 2249.12 -2.09409 1.03296 0
M  V30 24264 C 2250.1 -1.7003 -0.0488931 0
M  V30 24265 O 2251.29 -1.93859 0.115001 0
M  V30 24266 C 2248.42 -3.41735 0.619215 0
M  V30 24267 C 2247.37 -3.95001 1.64798 0
M  V30 24268 C 2246.7 -5.23476 1.08979 0
M  V30 24269 C 2248 -4.24708 3.04007 0
M  V30 24270 H 2249.69 -2.26222 1.96123 0
M  V30 24271 H 2247.24 -1.0871 0.944363 0
M  V30 24272 H 2249.19 -4.18795 0.467851 0
M  V30 24273 H 2247.91 -3.24776 -0.344729 0
M  V30 24274 H 2246.57 -3.20082 1.78726 0
M  V30 24275 H 2246.22 -5.02864 0.116948 0
M  V30 24276 H 2245.92 -5.60082 1.77714 0
M  V30 24277 H 2247.44 -6.03161 0.950199 0
M  V30 24278 H 2248.86 -4.92532 2.93402 0
M  V30 24279 H 2247.26 -4.72506 3.69944 0
M  V30 24280 H 2248.33 -3.32135 3.5329 0
M  V30 24281 N 2249.67 -1.04192 -1.18244 0
M  V30 24282 C 2250.92 -0.741227 -1.87587 0
M  V30 24283 C 2251.23 0.734034 -1.81304 0
M  V30 24284 O 2252.44 1.14829 -2.46021 0
M  V30 24285 C 2250.89 -1.27561 -3.36536 0
M  V30 24286 C 2250.5 -2.77959 -3.51344 0
M  V30 24287 C 2252.24 -1.0515 -4.11271 0
M  V30 24288 C 2250.15 -3.24748 -4.94259 0
M  V30 24289 H 2249.08 -0.273578 -0.702617 0
M  V30 24290 H 2251.73 -1.25792 -1.33599 0
M  V30 24291 H 2250.11 -0.686772 -3.89999 0
M  V30 24292 H 2251.29 -3.42611 -3.08147 0
M  V30 24293 H 2249.6 -2.98797 -2.90016 0
M  V30 24294 H 2252.2 -1.3762 -5.16686 0
M  V30 24295 H 2252.54 0.0112042 -4.16298 0
M  V30 24296 H 2253.08 -1.60501 -3.63984 0
M  V30 24297 H 2249.82 -4.30405 -4.94401 0
M  V30 24298 H 2249.34 -2.64833 -5.38167 0
M  V30 24299 H 2251.01 -3.18844 -5.62981 0
M  V30 24300 N 2251.15 1.34492 -0.821557 0
M  V30 24301 C 2252.56 1.80739 -0.467988 0
M  V30 24302 C 2252.91 1.68117 1.01148 0
M  V30 24303 O 2252.03 1.22039 1.78705 0
M  V30 24304 C 2252.63 3.28153 -0.842684 0
M  V30 24305 C 2251.19 3.72484 -0.541504 0
M  V30 24306 C 2250.33 2.56227 -1.06033 0
M  V30 24307 H 2253.29 1.22259 -1.01185 0
M  V30 24308 H 2253.31 3.8022 -0.145943 0
M  V30 24309 H 2252.82 3.37308 -1.91951 0
M  V30 24310 H 2250.92 3.68869 0.52597 0
M  V30 24311 H 2251.03 4.66662 -1.08461 0
M  V30 24312 H 2249.4 2.50099 -0.481936 0
M  V30 24313 H 2250.18 2.68153 -2.14357 0
M  V30 24314 N 2252.62 0.576397 1.46681 0
M  V30 24315 C 2253.9 -0.00699999 1.95599 0
M  V30 24316 C 2254.28 -1.46587 1.51906 0
M  V30 24317 O 2253.63 -2.1525 0.766793 0
M  V30 24318 C 2253.84 0.158466 3.4864 0
M  V30 24319 C 2255.19 0.0230186 4.24594 0
M  V30 24320 O 2256.21 0.0869799 3.56094 0
M  V30 24321 O 2255.07 -0.117919 5.46373 0
M  V30 24322 H 2252.16 -0.0533695 0.825276 0
M  V30 24323 H 2254.71 0.644271 1.56994 0
M  V30 24324 H 2253.48 1.17289 3.73308 0
M  V30 24325 H 2253.11 -0.529531 3.94058 0
M  V30 24326 N 2254.1 -1.54444 0.313841 0
M  V30 24327 C 2255.34 -2.02298 -0.292354 0
M  V30 24328 C 2255.71 -1.19721 -1.50103 0
M  V30 24329 O 2256.91 -1.57334 -2.17944 0
M  V30 24330 C 2255.18 -3.51846 -0.62762 0
M  V30 24331 S 2256.74 -4.21648 -1.21485 0
M  V30 24332 H 2253.56 -0.705406 -0.0890123 0
M  V30 24333 H 2256.16 -1.90375 0.444702 0
M  V30 24334 H 2254.86 -4.09573 0.260337 0
M  V30 24335 H 2254.39 -3.67831 -1.39513 0
M  V30 24336 H 2256.41 -4.28495 -2.50213 0
M  V30 24337 N 2255.58 -0.0418125 -1.57545 0
M  V30 24338 C 2256.81 0.64296 -1.9634 0
M  V30 24339 C 2257.22 1.65461 -0.917566 0
M  V30 24340 O 2256.56 1.83384 0.107715 0
M  V30 24341 C 2256.62 1.39488 -3.31336 0
M  V30 24342 C 2256.29 0.540125 -4.53797 0
M  V30 24343 C 2257.28 -0.189898 -5.19553 0
M  V30 24344 C 2254.97 0.473798 -5.0006 0
M  V30 24345 C 2256.96 -0.974785 -6.29902 0
M  V30 24346 C 2254.65 -0.314784 -6.10289 0
M  V30 24347 C 2255.65 -1.03777 -6.7507 0
M  V30 24348 O 2255.34 -1.8134 -7.8318 0
M  V30 24349 H 2255.07 0.181265 -0.651244 0
M  V30 24350 H 2257.62 -0.101701 -2.05148 0
M  V30 24351 H 2255.85 2.18496 -3.19055 0
M  V30 24352 H 2257.54 1.96898 -3.54945 0
M  V30 24353 H 2258.31 -0.148066 -4.84774 0
M  V30 24354 H 2254.19 1.02612 -4.49435 0
M  V30 24355 H 2257.73 -1.53962 -6.80398 0
M  V30 24356 H 2253.63 -0.358287 -6.44505 0
M  V30 24357 H 2254.4 -1.73452 -7.9991 0
M  V30 24358 N 2257.06 1.55891 0.231477 0
M  V30 24359 C 2258.3 1.78707 0.958738 0
M  V30 24360 C 2258.64 0.609757 1.84379 0
M  V30 24361 O 2257.91 -0.391392 1.90521 0
M  V30 24362 C 2258.2 3.11529 1.80614 0
M  V30 24363 C 2258.05 4.39691 0.948251 0
M  V30 24364 C 2259.37 3.40708 2.78579 0
M  V30 24365 H 2256.49 0.650137 0.347118 0
M  V30 24366 H 2259.13 1.88624 0.228226 0
M  V30 24367 H 2257.28 3.03205 2.42897 0
M  V30 24368 H 2258.95 4.60024 0.342936 0
M  V30 24369 H 2257.19 4.3306 0.253237 0
M  V30 24370 H 2257.86 5.29044 1.57533 0
M  V30 24371 H 2260.34 3.49095 2.26433 0
M  V30 24372 H 2259.22 4.34832 3.34981 0
M  V30 24373 H 2259.48 2.62381 3.55821 0
M  V30 24374 N 2258.54 -0.497781 1.49532 0
M  V30 24375 C 2259.45 -1.62529 1.69179 0
M  V30 24376 C 2260.46 -1.64245 0.574429 0
M  V30 24377 O 2261.64 -1.82606 0.849529 0
M  V30 24378 C 2258.7 -2.98882 1.757 0
M  V30 24379 C 2257.76 -3.07768 2.99295 0
M  V30 24380 C 2257 -4.37616 3.05496 0
M  V30 24381 O 2257.22 -5.26599 2.19201 0
M  V30 24382 O 2256.15 -4.51541 3.97988 0
M  V30 24383 H 2259.98 -1.48883 2.64703 0
M  V30 24384 H 2257.57 -0.674418 1.33312 0
M  V30 24385 H 2259.45 -3.79916 1.82324 0
M  V30 24386 H 2258.12 -3.12784 0.833555 0
M  V30 24387 H 2257.03 -2.2591 2.98187 0
M  V30 24388 H 2258.36 -2.98794 3.9113 0
M  V30 24389 N 2260.01 -1.38661 -0.749062 0
M  V30 24390 C 2260.94 -1.38976 -1.87637 0
M  V30 24391 C 2261.93 -0.255034 -1.68177 0
M  V30 24392 O 2263.11 -0.458787 -1.88703 0
M  V30 24393 C 2260.24 -1.21857 -3.2522 0
M  V30 24394 C 2259.19 -2.32581 -3.59291 0
M  V30 24395 C 2258.52 -2.00563 -4.9566 0
M  V30 24396 C 2259.82 -3.74857 -3.63703 0
M  V30 24397 H 2261.51 -2.33313 -1.87631 0
M  V30 24398 H 2259.06 -1.12305 -0.90131 0
M  V30 24399 H 2261.01 -1.20702 -4.03744 0
M  V30 24400 H 2259.74 -0.239832 -3.25718 0
M  V30 24401 H 2258.4 -2.3293 -2.83089 0
M  V30 24402 H 2258.04 -1.01162 -4.92722 0
M  V30 24403 H 2257.74 -2.74723 -5.19424 0
M  V30 24404 H 2259.27 -2.01034 -5.76557 0
M  V30 24405 H 2260.68 -3.76514 -4.32331 0
M  V30 24406 H 2259.08 -4.48259 -3.98978 0
M  V30 24407 H 2260.15 -4.06846 -2.63826 0
M  V30 24408 N 2261.49 0.977736 -1.23605 0
M  V30 24409 C 2262.4 2.10468 -1.03636 0
M  V30 24410 C 2263.42 1.73989 0.0199129 0
M  V30 24411 O 2264.6 2.00629 -0.176112 0
M  V30 24412 C 2261.66 3.40876 -0.63282 0
M  V30 24413 C 2260.72 3.91364 -1.76444 0
M  V30 24414 C 2259.95 5.15548 -1.38006 0
M  V30 24415 O 2260.18 5.69782 -0.265457 0
M  V30 24416 O 2259.11 5.6017 -2.2021 0
M  V30 24417 H 2262.94 2.30204 -1.9809 0
M  V30 24418 H 2260.52 1.08849 -1.02334 0
M  V30 24419 H 2262.4 4.19313 -0.418834 0
M  V30 24420 H 2261.08 3.22463 0.282697 0
M  V30 24421 H 2259.99 3.14032 -2.03309 0
M  V30 24422 H 2261.32 4.14236 -2.65837 0
M  V30 24423 N 2262.97 1.04818 1.1769 0
M  V30 24424 C 2263.92 0.645836 2.2158 0
M  V30 24425 C 2264.89 -0.35013 1.62368 0
M  V30 24426 O 2266.07 -0.2424 1.89254 0
M  V30 24427 C 2263.21 0.0228174 3.45092 0
M  V30 24428 C 2262.33 1.06716 4.18612 0
M  V30 24429 C 2261.46 0.411861 5.29601 0
M  V30 24430 C 2260.5 1.44077 5.94902 0
M  V30 24431 N 2259.64 0.809904 6.97413 0
M  V30 24432 H 2264.48 1.53624 2.5535 0
M  V30 24433 H 2262.01 0.768386 1.25436 0
M  V30 24434 H 2263.97 -0.355807 4.1568 0
M  V30 24435 H 2262.6 -0.831067 3.11918 0
M  V30 24436 H 2261.65 1.56366 3.46777 0
M  V30 24437 H 2262.97 1.84835 4.6329 0
M  V30 24438 H 2262.12 -0.0205557 6.06697 0
M  V30 24439 H 2260.86 -0.401352 4.86046 0
M  V30 24440 H 2259.86 1.88325 5.1654 0
M  V30 24441 H 2261.09 2.25582 6.40538 0
M  V30 24442 H 2259.04 0.0171339 6.55998 0
M  V30 24443 H 2258.95 1.52869 7.40383 0
M  V30 24444 H 2260.22 0.402136 7.78462 0
M  V30 24445 N 2264.45 -1.34055 0.828678 0
M  V30 24446 C 2265.7 -1.97366 0.415863 0
M  V30 24447 C 2266.01 -1.66412 -1.02793 0
M  V30 24448 O 2267.22 -2.23258 -1.54493 0
M  V30 24449 C 2265.67 -3.53172 0.692663 0
M  V30 24450 C 2265.28 -3.93013 2.15045 0
M  V30 24451 C 2267.03 -4.23085 0.346296 0
M  V30 24452 C 2264.93 -5.41754 2.37184 0
M  V30 24453 H 2263.86 -0.738568 0.151768 0
M  V30 24454 H 2266.51 -1.52817 1.01584 0
M  V30 24455 H 2264.9 -3.95994 0.022446 0
M  V30 24456 H 2266.07 -3.6128 2.8603 0
M  V30 24457 H 2264.38 -3.36053 2.45881 0
M  V30 24458 H 2266.98 -5.32455 0.489464 0
M  V30 24459 H 2267.32 -4.10205 -0.70977 0
M  V30 24460 H 2267.86 -3.85759 0.971326 0
M  V30 24461 H 2264.6 -5.59627 3.41317 0
M  V30 24462 H 2264.12 -5.74983 1.70749 0
M  V30 24463 H 2265.8 -6.0851 2.19829 0
M  V30 24464 N 2265.93 -0.584167 -1.46374 0
M  V30 24465 C 2267.18 -0.0680095 -2.01585 0
M  V30 24466 C 2267.49 1.30042 -1.46111 0
M  V30 24467 O 2268.7 1.908 -1.93151 0
M  V30 24468 C 2267.15 -0.070984 -3.5983 0
M  V30 24469 C 2266.76 -1.43782 -4.243 0
M  V30 24470 C 2268.5 0.391154 -4.22694 0
M  V30 24471 C 2266.41 -1.39845 -5.74628 0
M  V30 24472 H 2265.34 -0.0216553 -0.753689 0
M  V30 24473 H 2267.99 -0.736031 -1.68092 0
M  V30 24474 H 2266.37 0.66323 -3.90407 0
M  V30 24475 H 2267.55 -2.19188 -4.05331 0
M  V30 24476 H 2265.86 -1.8401 -3.73536 0
M  V30 24477 H 2268.46 0.439431 -5.32891 0
M  V30 24478 H 2268.8 1.40899 -3.91731 0
M  V30 24479 H 2269.34 -0.289043 -3.96749 0
M  V30 24480 H 2266.07 -2.39313 -6.10253 0
M  V30 24481 H 2265.59 -0.686609 -5.95857 0
M  V30 24482 H 2267.27 -1.11198 -6.37373 0
M  V30 24483 N 2267.41 1.54275 -0.322027 0
M  V30 24484 C 2268.34 2.27232 0.537371 0
M  V30 24485 C 2269.32 1.2797 1.12061 0
M  V30 24486 O 2270.5 1.56779 1.14603 0
M  V30 24487 C 2267.63 3.02897 1.69913 0
M  V30 24488 C 2266.59 4.09484 1.24526 0
M  V30 24489 C 2265.91 4.72981 2.49385 0
M  V30 24490 C 2267.21 5.21049 0.361243 0
M  V30 24491 H 2268.91 2.99315 -0.0711932 0
M  V30 24492 H 2266.45 1.43956 -0.0356808 0
M  V30 24493 H 2268.4 3.52666 2.30662 0
M  V30 24494 H 2267.13 2.28429 2.33427 0
M  V30 24495 H 2265.79 3.60597 0.660719 0
M  V30 24496 H 2265.44 3.95129 3.11258 0
M  V30 24497 H 2265.14 5.44979 2.19708 0
M  V30 24498 H 2266.66 5.25523 3.10899 0
M  V30 24499 H 2268.07 5.66584 0.874972 0
M  V30 24500 H 2266.47 5.99894 0.157323 0
M  V30 24501 H 2267.54 4.81069 -0.608304 0
M  V30 24502 N 2268.88 0.0501669 1.5752 0
M  V30 24503 C 2270.11 -0.636962 1.97377 0
M  V30 24504 C 2270.53 -1.63643 0.927495 0
M  V30 24505 O 2269.89 -1.8097 -0.109378 0
M  V30 24506 C 2269.94 -1.30117 3.36306 0
M  V30 24507 O 2269.04 -2.41683 3.3416 0
M  V30 24508 H 2268.38 -0.165667 0.643001 0
M  V30 24509 H 2270.91 0.118269 2.04258 0
M  V30 24510 H 2270.92 -1.65309 3.73011 0
M  V30 24511 H 2269.6 -0.568673 4.11994 0
M  V30 24512 H 2268.18 -2.08446 3.092 0
M  V30 24513 N 2270.36 -1.56011 -0.223207 0
M  V30 24514 C 2271.27 -1.95445 -1.29762 0
M  V30 24515 C 2272.29 -0.858055 -1.51372 0
M  V30 24516 O 2273.46 -1.16148 -1.64534 0
M  V30 24517 C 2270.53 -2.26172 -2.62768 0
M  V30 24518 C 2269.59 -3.49371 -2.49476 0
M  V30 24519 C 2268.82 -3.78623 -3.76139 0
M  V30 24520 O 2269.05 -3.09576 -4.79081 0
M  V30 24521 O 2267.98 -4.72116 -3.7335 0
M  V30 24522 H 2271.81 -2.87006 -0.993039 0
M  V30 24523 H 2269.39 -1.432 -0.425933 0
M  V30 24524 H 2271.27 -2.47137 -3.41323 0
M  V30 24525 H 2269.95 -1.37786 -2.92911 0
M  V30 24526 H 2268.85 -3.33687 -1.69127 0
M  V30 24527 H 2270.19 -4.38135 -2.24273 0
M  V30 24528 N 2271.84 0.489844 -1.49794 0
M  V30 24529 C 2273.26 0.821998 -1.36804 0
M  V30 24530 C 2273.46 1.97291 -0.409687 0
M  V30 24531 O 2272.51 2.52026 0.154569 0
M  V30 24532 C 2273.82 1.1517 -2.7777 0
M  V30 24533 C 2275.37 1.25926 -2.86551 0
M  V30 24534 C 2275.85 1.6222 -4.28309 0
M  V30 24535 N 2277.34 1.69248 -4.31172 0
M  V30 24536 C 2278.07 1.98798 -5.37836 0
M  V30 24537 N 2277.57 2.26495 -6.5473 0
M  V30 24538 N 2279.36 2.00142 -5.25261 0
M  V30 24539 H 2271.51 -0.268918 -2.10691 0
M  V30 24540 H 2273.78 -0.0577447 -0.94624 0
M  V30 24541 H 2273.48 0.379273 -3.49649 0
M  V30 24542 H 2273.36 2.09248 -3.13839 0
M  V30 24543 H 2275.74 2.02239 -2.14903 0
M  V30 24544 H 2275.82 0.298731 -2.5405 0
M  V30 24545 H 2275.47 0.864534 -5.00488 0
M  V30 24546 H 2275.4 2.59392 -4.58283 0
M  V30 24547 H 2277.89 1.49958 -3.46873 0
M  V30 24548 H 2278.2 2.48263 -7.31837 0
M  V30 24549 H 2276.55 2.23927 -6.57937 0
M  V30 24550 H 2279.74 1.77988 -4.32941 0
M  V30 24551 H 2279.91 2.22837 -6.0848 0
M  V30 24552 N 2273.32 1.39056 0.741698 0
M  V30 24553 C 2274.26 1.3724 1.85563 0
M  V30 24554 C 2275.23 0.233101 1.64456 0
M  V30 24555 O 2276.42 0.427179 1.85956 0
M  V30 24556 C 2273.56 1.21506 3.23002 0
M  V30 24557 C 2272.67 2.44924 3.5586 0
M  V30 24558 C 2271.81 2.21829 4.82665 0
M  V30 24559 C 2270.85 3.40957 5.08345 0
M  V30 24560 N 2269.98 3.17222 6.2635 0
M  V30 24561 H 2274.82 2.32465 1.86451 0
M  V30 24562 H 2272.36 1.15483 0.911155 0
M  V30 24563 H 2274.32 1.10397 4.02329 0
M  V30 24564 H 2272.95 0.299137 3.21411 0
M  V30 24565 H 2272 2.66661 2.71286 0
M  V30 24566 H 2273.31 3.33675 3.70759 0
M  V30 24567 H 2272.47 2.07924 5.69959 0
M  V30 24568 H 2271.21 1.30462 4.69927 0
M  V30 24569 H 2270.21 3.55368 4.19516 0
M  V30 24570 H 2271.44 4.33216 5.22973 0
M  V30 24571 H 2269.38 2.28513 6.14913 0
M  V30 24572 H 2269.3 3.99527 6.41806 0
M  V30 24573 H 2270.57 3.06996 7.16501 0
M  V30 24574 N 2274.8 -0.971167 1.24121 0
M  V30 24575 C 2275.74 -2.08642 1.02816 0
M  V30 24576 C 2276.74 -1.69362 -0.0358105 0
M  V30 24577 O 2277.94 -1.7961 0.11846 0
M  V30 24578 H 2274.32 -0.682643 0.31544 0
M  V30 24579 H 2276.29 -2.23775 1.97401 0
M  V30 24580 C 2275.04 -3.41647 0.645934 0
M  V30 24581 H 2274.36 -3.7233 1.45639 0
M  V30 24582 H 2275.8 -4.20593 0.53644 0
M  V30 24583 C 2274.26 -3.30636 -0.646655 0
M  V30 24584 O 2274.79 -3.64266 -1.69332 0
M  V30 24585 N 2273 -2.83776 -0.626065 0
M  V30 24586 H 2272.54 -2.56606 0.226033 0
M  V30 24587 H 2272.5 -2.7679 -1.49112 0
M  V30 24588 N 2276.27 -1.05441 -1.17133 0
M  V30 24589 C 2277.52 -0.76711 -1.87732 0
M  V30 24590 C 2277.85 0.704221 -1.80982 0
M  V30 24591 O 2277.13 1.51517 -1.21954 0
M  V30 24592 C 2277.41 -1.25139 -3.37657 0
M  V30 24593 C 2277.26 -2.78584 -3.53145 0
M  V30 24594 C 2278.58 -0.8524 -4.31766 0
M  V30 24595 H 2275.7 -0.280141 -0.681682 0
M  V30 24596 H 2278.34 -1.30883 -1.3773 0
M  V30 24597 H 2276.49 -0.790536 -3.80372 0
M  V30 24598 H 2278.17 -3.32812 -3.19428 0
M  V30 24599 H 2276.41 -3.17737 -2.9534 0
M  V30 24600 H 2277.08 -3.07531 -4.58398 0
M  V30 24601 H 2279.56 -1.24918 -3.96906 0
M  V30 24602 H 2278.43 -1.21883 -5.35197 0
M  V30 24603 H 2278.69 0.243407 -4.41429 0
M  V30 24604 N 2277.75 1.33613 -0.835776 0
M  V30 24605 C 2279.16 1.80233 -0.487131 0
M  V30 24606 C 2279.51 1.69181 0.993597 0
M  V30 24607 O 2278.64 1.23927 1.77401 0
M  V30 24608 C 2279.23 3.27241 -0.877442 0
M  V30 24609 C 2277.79 3.71889 -0.580981 0
M  V30 24610 C 2276.94 2.55088 -1.08744 0
M  V30 24611 H 2279.89 1.21179 -1.02476 0
M  V30 24612 H 2279.91 3.80044 -0.186262 0
M  V30 24613 H 2279.42 3.35253 -1.95518 0
M  V30 24614 H 2277.53 3.69406 0.486817 0
M  V30 24615 H 2277.64 4.65485 -1.13405 0
M  V30 24616 H 2276 2.49574 -0.508436 0
M  V30 24617 H 2276.79 2.65864 -2.17189 0
M  V30 24618 N 2279.23 0.591922 1.46062 0
M  V30 24619 C 2280.48 0.0786991 2.01546 0
M  V30 24620 C 2280.79 -1.29265 1.46799 0
M  V30 24621 O 2282 -1.89773 1.9416 0
M  V30 24622 C 2280.45 0.0900656 3.59787 0
M  V30 24623 C 2280.06 1.4603 4.23532 0
M  V30 24624 C 2281.81 -0.368732 4.22896 0
M  V30 24625 C 2279.71 1.4289 5.73878 0
M  V30 24626 H 2278.64 0.025652 0.753564 0
M  V30 24627 H 2281.29 0.744935 1.67699 0
M  V30 24628 H 2279.68 -0.642517 3.90753 0
M  V30 24629 H 2280.85 2.21335 4.04163 0
M  V30 24630 H 2279.17 1.85989 3.72555 0
M  V30 24631 H 2281.76 -0.411164 5.33117 0
M  V30 24632 H 2282.11 -1.3882 3.92473 0
M  V30 24633 H 2282.64 0.31008 3.9659 0
M  V30 24634 H 2279.38 2.42546 6.08976 0
M  V30 24635 H 2278.9 0.718199 5.95485 0
M  V30 24636 H 2280.58 1.14577 6.36774 0
M  V30 24637 N 2280.71 -1.54102 0.330204 0
M  V30 24638 C 2281.62 -2.28265 -0.541493 0
M  V30 24639 C 2282.63 -1.32868 -1.12349 0
M  V30 24640 O 2283.81 -1.6589 -1.14203 0
M  V30 24641 C 2280.88 -3.03101 -1.68317 0
M  V30 24642 C 2279.94 -4.14098 -1.13231 0
M  V30 24643 C 2279.17 -4.85356 -2.21958 0
M  V30 24644 O 2279.39 -4.56178 -3.42429 0
M  V30 24645 O 2278.33 -5.72113 -1.87003 0
M  V30 24646 H 2282.15 -3.03639 0.0609914 0
M  V30 24647 H 2279.74 -1.49093 0.0956762 0
M  V30 24648 H 2281.62 -3.49944 -2.34771 0
M  V30 24649 H 2280.29 -2.30597 -2.27171 0
M  V30 24650 H 2279.2 -3.7159 -0.432671 0
M  V30 24651 H 2280.53 -4.88665 -0.588812 0
M  V30 24652 N 2282.19 -0.0585199 -1.57491 0
M  V30 24653 C 2283.43 0.613615 -1.92979 0
M  V30 24654 C 2283.76 1.70415 -0.937491 0
M  V30 24655 O 2283.02 1.95639 0.0490436 0
M  V30 24656 C 2283.32 1.24182 -3.35132 0
M  V30 24657 C 2282.98 0.278747 -4.50038 0
M  V30 24658 C 2281.64 0.0137601 -4.81198 0
M  V30 24659 C 2284 -0.380868 -5.19807 0
M  V30 24660 C 2281.32 -0.918153 -5.79471 0
M  V30 24661 C 2283.68 -1.30102 -6.19077 0
M  V30 24662 C 2282.34 -1.57461 -6.48662 0
M  V30 24663 H 2281.61 0.224537 -0.706161 0
M  V30 24664 H 2284.26 -0.126567 -1.91081 0
M  V30 24665 H 2282.56 2.05743 -3.33432 0
M  V30 24666 H 2284.26 1.76894 -3.59874 0
M  V30 24667 H 2280.85 0.495464 -4.25727 0
M  V30 24668 H 2285.03 -0.189245 -4.95939 0
M  V30 24669 H 2280.29 -1.13751 -6.00725 0
M  V30 24670 H 2284.46 -1.81816 -6.72247 0
M  V30 24671 H 2282.09 -2.29834 -7.24624 0
M  V30 24672 N 2283.66 1.56128 0.21493 0
M  V30 24673 C 2285.08 1.69563 0.781357 0
M  V30 24674 C 2285.43 0.661682 1.84706 0
M  V30 24675 O 2284.55 -0.18589 2.156 0
M  V30 24676 C 2285.15 3.07418 1.42406 0
M  V30 24677 C 2283.71 3.22686 1.9378 0
M  V30 24678 C 2282.85 2.65498 0.800391 0
M  V30 24679 H 2285.8 1.58697 -0.00983423 0
M  V30 24680 H 2285.82 3.03644 2.29304 0
M  V30 24681 H 2285.34 3.82649 0.648192 0
M  V30 24682 H 2283.44 2.52336 2.74148 0
M  V30 24683 H 2283.55 4.29976 2.11322 0
M  V30 24684 H 2281.91 2.24152 1.20946 0
M  V30 24685 H 2282.7 3.4328 0.0370867 0
M  V30 24686 N 2285.14 -0.481893 1.50052 0
M  V30 24687 C 2286.39 -1.23658 1.60738 0
M  V30 24688 C 2286.72 -1.9184 0.30182 0
M  V30 24689 O 2286 -1.81621 -0.695993 0
M  V30 24690 C 2286.28 -2.28869 2.78013 0
M  V30 24691 C 2286.13 -1.65062 4.18419 0
M  V30 24692 C 2287.45 -3.30274 2.90873 0
M  V30 24693 H 2284.57 -0.448218 0.585038 0
M  V30 24694 H 2287.21 -0.531914 1.82403 0
M  V30 24695 H 2285.36 -2.88969 2.59672 0
M  V30 24696 H 2287.03 -1.08642 4.48324 0
M  V30 24697 H 2285.28 -0.954074 4.23178 0
M  V30 24698 H 2285.95 -2.41465 4.96385 0
M  V30 24699 H 2288.42 -2.80186 3.07628 0
M  V30 24700 H 2287.3 -4.01231 3.74573 0
M  V30 24701 H 2287.56 -3.93751 2.01028 0
M  V30 24702 N 2286.62 -1.39448 -0.734313 0
M  V30 24703 C 2287.87 -1.3602 -1.48935 0
M  V30 24704 C 2288.18 0.0408662 -1.95557 0
M  V30 24705 O 2289.39 0.197733 -2.70779 0
M  V30 24706 C 2287.84 -2.3896 -2.69121 0
M  V30 24707 C 2287.45 -3.84784 -2.29445 0
M  V30 24708 C 2289.2 -2.44609 -3.46939 0
M  V30 24709 C 2287.1 -4.79365 -3.46358 0
M  V30 24710 H 2286.03 -0.505682 -0.559287 0
M  V30 24711 H 2288.68 -1.65097 -0.800954 0
M  V30 24712 H 2287.07 -2.02954 -3.40038 0
M  V30 24713 H 2288.24 -4.29834 -1.6607 0
M  V30 24714 H 2286.56 -3.82436 -1.64716 0
M  V30 24715 H 2289.15 -3.12464 -4.33902 0
M  V30 24716 H 2289.5 -1.47082 -3.89451 0
M  V30 24717 H 2290.03 -2.79512 -2.83051 0
M  V30 24718 H 2286.77 -5.78156 -3.08895 0
M  V30 24719 H 2286.29 -4.38993 -4.08711 0
M  V30 24720 H 2287.97 -4.98299 -4.12683 0
M  V30 24721 N 2288.1 0.964571 -1.24635 0
M  V30 24722 C 2289.38 1.68352 -0.995839 0
M  V30 24723 C 2289.76 2.05549 0.480927 0
M  V30 24724 O 2289.1 1.76108 1.45596 0
M  V30 24725 C 2289.31 2.91319 -1.92182 0
M  V30 24726 C 2290.66 3.63491 -2.19453 0
M  V30 24727 O 2291.69 3.01382 -1.89861 0
M  V30 24728 O 2290.54 4.75302 -2.69723 0
M  V30 24729 H 2287.64 0.736139 -0.376867 0
M  V30 24730 H 2290.18 1.01838 -1.35746 0
M  V30 24731 H 2288.96 2.60548 -2.91943 0
M  V30 24732 H 2288.58 3.65566 -1.56356 0
M  V30 24733 N 2289.58 1.0606 1.16572 0
M  V30 24734 C 2290.99 0.78361 1.39039 0
M  V30 24735 C 2291.19 -0.618111 1.91785 0
M  V30 24736 O 2290.25 -1.37907 2.11513 0
M  V30 24737 C 2291.56 1.84654 2.37326 0
M  V30 24738 C 2293.11 1.86977 2.51015 0
M  V30 24739 C 2293.58 2.92317 3.52583 0
M  V30 24740 N 2295.08 2.91336 3.60108 0
M  V30 24741 C 2295.81 3.6949 4.3848 0
M  V30 24742 N 2295.31 4.57456 5.20294 0
M  V30 24743 N 2297.1 3.57892 4.33439 0
M  V30 24744 H 2289.25 1.96485 0.806691 0
M  V30 24745 H 2291.51 0.851311 0.417102 0
M  V30 24746 H 2291.22 2.85303 2.05658 0
M  V30 24747 H 2291.09 1.69556 3.36943 0
M  V30 24748 H 2293.48 0.869876 2.81988 0
M  V30 24749 H 2293.56 2.06153 1.51442 0
M  V30 24750 H 2293.21 3.92498 3.22348 0
M  V30 24751 H 2293.14 2.70391 4.51881 0
M  V30 24752 H 2295.63 2.27561 3.01703 0
M  V30 24753 H 2295.94 5.13753 5.77302 0
M  V30 24754 H 2294.28 4.61513 5.19645 0
M  V30 24755 H 2297.48 2.88557 3.68581 0
M  V30 24756 H 2297.65 4.19046 4.94272 0
M  V30 24757 N 2291.06 -1.33168 0.84285 0
M  V30 24758 C 2292 -2.29133 0.276925 0
M  V30 24759 C 2292.97 -1.54513 -0.609499 0
M  V30 24760 O 2294.16 -1.82793 -0.546923 0
M  V30 24761 C 2291.3 -3.4087 -0.538647 0
M  V30 24762 C 2290.41 -4.30393 0.372245 0
M  V30 24763 C 2289.55 -5.29249 -0.454815 0
M  V30 24764 C 2288.58 -6.10412 0.454218 0
M  V30 24765 N 2287.72 -7.01301 -0.334952 0
M  V30 24766 H 2292.56 -2.76932 1.10057 0
M  V30 24767 H 2290.1 -1.36262 0.554185 0
M  V30 24768 H 2292.06 -4.04362 -1.02702 0
M  V30 24769 H 2290.69 -2.94253 -1.32722 0
M  V30 24770 H 2289.74 -3.67588 0.978944 0
M  V30 24771 H 2291.05 -4.8718 1.07039 0
M  V30 24772 H 2290.2 -5.98287 -1.00684 0
M  V30 24773 H 2288.94 -4.7305 -1.18638 0
M  V30 24774 H 2287.95 -5.40289 1.01823 0
M  V30 24775 H 2289.17 -6.68695 1.18421 0
M  V30 24776 H 2287.12 -6.47545 -1.04982 0
M  V30 24777 H 2287.04 -7.55387 0.304395 0
M  V30 24778 H 2288.3 -7.7464 -0.869088 0
M  V30 24779 N 2292.53 -0.599659 -1.45746 0
M  V30 24780 C 2293.95 -0.262668 -1.57424 0
M  V30 24781 C 2294.15 1.2349 -1.59224 0
M  V30 24782 O 2293.21 2.01753 -1.51828 0
M  V30 24783 C 2294.52 -0.926845 -2.8606 0
M  V30 24784 C 2296.07 -0.90202 -2.99721 0
M  V30 24785 C 2296.54 -1.54606 -4.31116 0
M  V30 24786 N 2298.03 -1.51118 -4.37856 0
M  V30 24787 C 2298.77 -1.97873 -5.38177 0
M  V30 24788 N 2298.26 -2.52677 -6.45078 0
M  V30 24789 N 2300.06 -1.88688 -5.29484 0
M  V30 24790 H 2292.21 -1.57213 -1.42821 0
M  V30 24791 H 2294.47 -0.658117 -0.682338 0
M  V30 24792 H 2294.18 -1.981 -2.90602 0
M  V30 24793 H 2294.05 -0.445304 -3.74562 0
M  V30 24794 H 2296.44 0.143565 -2.94751 0
M  V30 24795 H 2296.52 -1.42175 -2.1265 0
M  V30 24796 H 2296.16 -2.59093 -4.36845 0
M  V30 24797 H 2296.09 -1.00141 -5.16991 0
M  V30 24798 H 2298.58 -1.11074 -3.61208 0
M  V30 24799 H 2298.9 -2.86167 -7.17864 0
M  V30 24800 H 2297.24 -2.56712 -6.45851 0
M  V30 24801 H 2300.43 -1.45617 -4.44874 0
M  V30 24802 H 2300.61 -2.2544 -6.0752 0
M  V30 24803 N 2294.01 1.53925 -0.338371 0
M  V30 24804 C 2294.94 2.2779 0.51324 0
M  V30 24805 C 2295.92 1.29151 1.10698 0
M  V30 24806 O 2297.11 1.57986 1.12934 0
M  V30 24807 C 2294.24 3.04682 1.66691 0
M  V30 24808 C 2293.19 4.10782 1.20176 0
M  V30 24809 C 2292.52 4.756 2.44355 0
M  V30 24810 C 2293.82 5.21403 0.305958 0
M  V30 24811 H 2295.51 2.99223 -0.102936 0
M  V30 24812 H 2293.06 1.4391 -0.0509472 0
M  V30 24813 H 2295.01 3.55092 2.26909 0
M  V30 24814 H 2293.73 2.30892 2.30991 0
M  V30 24815 H 2292.39 3.61277 0.622436 0
M  V30 24816 H 2292.04 3.98408 3.0705 0
M  V30 24817 H 2291.74 5.47279 2.13916 0
M  V30 24818 H 2293.27 5.28791 3.05307 0
M  V30 24819 H 2294.68 5.6748 0.814829 0
M  V30 24820 H 2293.08 6.00027 0.0936874 0
M  V30 24821 H 2294.15 4.80397 -0.659294 0
M  V30 24822 N 2295.49 0.0668712 1.57458 0
M  V30 24823 C 2296.42 -0.899726 2.1547 0
M  V30 24824 C 2297.4 -1.31379 1.08044 0
M  V30 24825 O 2298.59 -1.38572 1.36057 0
M  V30 24826 C 2295.72 -2.16907 2.71236 0
M  V30 24827 C 2294.67 -1.89456 3.83784 0
M  V30 24828 C 2294 -3.22978 4.26133 0
M  V30 24829 C 2295.3 -1.20372 5.0824 0
M  V30 24830 H 2296.99 -0.416477 2.96489 0
M  V30 24831 H 2294.54 -0.198883 1.4262 0
M  V30 24832 H 2296.49 -2.84939 3.10463 0
M  V30 24833 H 2295.21 -2.67465 1.8743 0
M  V30 24834 H 2293.87 -1.2383 3.45053 0
M  V30 24835 H 2293.52 -3.71368 3.39256 0
M  V30 24836 H 2293.22 -3.05404 5.01998 0
M  V30 24837 H 2294.74 -3.92217 4.67973 0
M  V30 24838 H 2296.16 -1.78466 5.44814 0
M  V30 24839 H 2294.55 -1.13073 5.89351 0
M  V30 24840 H 2295.62 -0.182068 4.84558 0
M  V30 24841 N 2296.97 -1.56239 -0.206647 0
M  V30 24842 C 2297.9 -1.90132 -1.27994 0
M  V30 24843 C 2298.91 -0.790908 -1.42297 0
M  V30 24844 O 2300.1 -1.06928 -1.42929 0
M  V30 24845 C 2297.2 -2.10796 -2.65364 0
M  V30 24846 C 2296.37 -3.41891 -2.72818 0
M  V30 24847 C 2295.43 -3.51806 -3.91304 0
M  V30 24848 O 2294.46 -4.24722 -3.78946 0
M  V30 24849 N 2295.66 -2.84043 -5.0626 0
M  V30 24850 H 2298.43 -2.82793 -0.992394 0
M  V30 24851 H 2295.99 -1.56967 -0.396624 0
M  V30 24852 H 2297.98 -2.1473 -3.43035 0
M  V30 24853 H 2296.55 -1.2469 -2.86655 0
M  V30 24854 H 2295.77 -3.49926 -1.81509 0
M  V30 24855 H 2297.06 -4.28222 -2.74779 0
M  V30 24856 H 2296.46 -2.24609 -5.19199 0
M  V30 24857 H 2295.01 -2.93619 -5.8192 0
M  V30 24858 N 2298.45 0.473929 -1.50305 0
M  V30 24859 C 2299.38 1.58039 -1.71889 0
M  V30 24860 C 2300.36 1.60343 -0.567827 0
M  V30 24861 O 2301.54 1.76654 -0.806654 0
M  V30 24862 C 2298.67 2.9638 -1.81041 0
M  V30 24863 C 2297.63 3.08943 -2.96206 0
M  V30 24864 C 2296.95 4.48904 -2.90498 0
M  V30 24865 C 2298.25 2.86427 -4.36757 0
M  V30 24866 H 2299.95 1.4023 -2.6453 0
M  V30 24867 H 2297.49 0.673178 -1.27296 0
M  V30 24868 H 2299.44 3.73711 -1.94726 0
M  V30 24869 H 2298.17 3.1534 -0.850202 0
M  V30 24870 H 2296.83 2.34045 -2.82168 0
M  V30 24871 H 2296.48 4.64778 -1.92329 0
M  V30 24872 H 2296.18 4.58246 -3.6781 0
M  V30 24873 H 2297.7 5.28259 -3.06227 0
M  V30 24874 H 2299.11 3.53509 -4.51336 0
M  V30 24875 H 2297.51 3.07216 -5.15498 0
M  V30 24876 H 2298.58 1.82308 -4.49324 0
M  V30 24877 N 2299.92 1.39835 0.726907 0
M  V30 24878 C 2301.17 1.37703 1.48882 0
M  V30 24879 C 2301.5 -0.024451 1.94185 0
M  V30 24880 O 2300.78 -0.990956 1.67363 0
M  V30 24881 C 2301.06 2.35655 2.72284 0
M  V30 24882 C 2300.91 3.84779 2.32949 0
M  V30 24883 C 2302.23 2.31312 3.7441 0
M  V30 24884 H 2299.35 0.501509 0.540053 0
M  V30 24885 H 2301.99 1.70887 0.830516 0
M  V30 24886 H 2300.14 2.07487 3.28453 0
M  V30 24887 H 2301.82 4.23729 1.82349 0
M  V30 24888 H 2300.06 4.01162 1.65081 0
M  V30 24889 H 2300.73 4.48816 3.21354 0
M  V30 24890 H 2303.21 2.56237 3.27844 0
M  V30 24891 H 2302.08 3.01916 4.58408 0
M  V30 24892 H 2302.34 1.32089 4.21906 0
M  V30 24893 N 2301.4 -0.957948 1.25144 0
M  V30 24894 C 2302.82 -1.2284 1.01894 0
M  V30 24895 C 2303.02 -1.99733 -0.266276 0
M  V30 24896 O 2302.07 -2.32712 -0.979872 0
M  V30 24897 C 2303.39 -2.00602 2.24008 0
M  V30 24898 C 2304.93 -2.13658 2.28734 0
M  V30 24899 C 2305.41 -2.94817 3.50495 0
M  V30 24900 N 2306.9 -3.02397 3.50871 0
M  V30 24901 C 2307.64 -3.65579 4.41746 0
M  V30 24902 N 2307.13 -4.30399 5.42889 0
M  V30 24903 N 2308.92 -3.62687 4.29435 0
M  V30 24904 H 2301.08 -0.443456 2.07719 0
M  V30 24905 H 2303.34 -0.258641 0.912036 0
M  V30 24906 H 2303.04 -1.51497 3.17398 0
M  V30 24907 H 2302.92 -3.01315 2.26912 0
M  V30 24908 H 2305.31 -2.61961 1.35869 0
M  V30 24909 H 2305.39 -1.12261 2.2985 0
M  V30 24910 H 2305.03 -2.47205 4.4368 0
M  V30 24911 H 2304.96 -3.96433 3.46624 0
M  V30 24912 H 2307.45 -2.56297 2.77705 0
M  V30 24913 H 2307.76 -4.76456 6.08448 0
M  V30 24914 H 2306.11 -4.29037 5.46765 0
M  V30 24915 H 2309.3 -3.1123 3.49648 0
M  V30 24916 H 2309.47 -4.11641 5.00455 0
M  V30 24917 N 2302.88 -1.06677 -1.16008 0
M  V30 24918 C 2303.79 -0.692218 -2.24155 0
M  V30 24919 C 2304.81 0.293483 -1.71507 0
M  V30 24920 O 2305.98 0.141826 -2.009 0
M  V30 24921 C 2303.05 -0.0884741 -3.46587 0
M  V30 24922 C 2302.11 -1.12654 -4.14255 0
M  V30 24923 C 2301.34 -0.551509 -5.30843 0
M  V30 24924 O 2301.56 0.634556 -5.66859 0
M  V30 24925 O 2300.5 -1.29308 -5.87846 0
M  V30 24926 H 2304.32 -1.59392 -2.58511 0
M  V30 24927 H 2301.91 -0.839282 -1.23598 0
M  V30 24928 H 2303.79 0.246287 -4.2068 0
M  V30 24929 H 2302.47 0.786657 -3.13996 0
M  V30 24930 H 2301.37 -1.51354 -3.42115 0
M  V30 24931 H 2302.71 -1.97333 -4.50911 0
M  V30 24932 N 2304.36 1.32719 -0.8499 0
M  V30 24933 C 2305.31 2.30911 -0.279785 0
M  V30 24934 C 2306.3 1.58635 0.59425 0
M  V30 24935 O 2307.51 1.7341 0.482583 0
M  V30 24936 H 2303.88 0.748568 -0.0717653 0
M  V30 24937 H 2305.85 2.76492 -1.12227 0
M  V30 24938 C 2304.6 3.43774 0.521047 0
M  V30 24939 H 2303.92 3.99547 -0.142211 0
M  V30 24940 H 2305.36 4.14648 0.88562 0
M  V30 24941 C 2303.82 2.90608 1.70437 0
M  V30 24942 O 2304.35 2.87707 2.80335 0
M  V30 24943 N 2302.56 2.4707 1.52987 0
M  V30 24944 H 2302.11 2.49629 0.63587 0
M  V30 24945 H 2302.06 2.11851 2.32307 0
M  V30 24946 N 2305.84 0.60738 1.45426 0
M  V30 24947 C 2306.77 -0.149711 2.28711 0
M  V30 24948 C 2307.78 -0.831933 1.39938 0
M  V30 24949 O 2308.97 -0.697356 1.64314 0
M  V30 24950 C 2306.07 -1.23299 3.15675 0
M  V30 24951 C 2305.24 -0.63792 4.32723 0
M  V30 24952 C 2304.3 -1.61206 5.00898 0
M  V30 24953 O 2303.33 -1.13844 5.57699 0
M  V30 24954 N 2304.53 -2.94646 5.00164 0
M  V30 24955 H 2307.3 0.564934 2.94327 0
M  V30 24956 H 2304.86 0.446851 1.55611 0
M  V30 24957 H 2306.85 -1.88447 3.58148 0
M  V30 24958 H 2305.42 -1.85016 2.51968 0
M  V30 24959 H 2304.64 0.191641 3.93734 0
M  V30 24960 H 2305.93 -0.220575 5.08322 0
M  V30 24961 H 2305.32 -3.35727 4.55306 0
M  V30 24962 H 2303.88 -3.55218 5.46501 0
M  V30 24963 N 2307.31 -1.53743 0.34653 0
M  V30 24964 C 2308.24 -2.28059 -0.501153 0
M  V30 24965 C 2309.23 -1.29736 -1.10011 0
M  V30 24966 O 2310.41 -1.58583 -1.12094 0
M  V30 24967 C 2307.54 -3.05562 -1.65073 0
M  V30 24968 C 2306.49 -4.11413 -1.17996 0
M  V30 24969 C 2305.82 -4.76889 -2.41829 0
M  V30 24970 C 2307.12 -5.21558 -0.278303 0
M  V30 24971 H 2308.81 -2.99164 0.118803 0
M  V30 24972 H 2306.36 -1.43881 0.0585784 0
M  V30 24973 H 2308.31 -3.56291 -2.25022 0
M  V30 24974 H 2307.04 -2.32113 -2.29763 0
M  V30 24975 H 2305.7 -3.61602 -0.603268 0
M  V30 24976 H 2305.34 -4.00031 -3.04933 0
M  V30 24977 H 2305.04 -5.48405 -2.1101 0
M  V30 24978 H 2306.57 -5.30403 -3.02499 0
M  V30 24979 H 2307.98 -5.67904 -0.784723 0
M  V30 24980 H 2306.38 -6.00068 -0.0618652 0
M  V30 24981 H 2307.45 -4.80041 0.684761 0
M  V30 24982 N 2308.79 -0.0752207 -1.5742 0
M  V30 24983 C 2309.72 0.920446 -2.09906 0
M  V30 24984 C 2310.74 1.25916 -1.03194 0
M  V30 24985 O 2311.93 1.21575 -1.30697 0
M  V30 24986 C 2309.03 2.2353 -2.5473 0
M  V30 24987 C 2308.2 2.07491 -3.85053 0
M  V30 24988 C 2307.26 3.22311 -4.15935 0
M  V30 24989 O 2306.28 2.97151 -4.85479 0
M  V30 24990 N 2307.49 4.47507 -3.69753 0
M  V30 24991 H 2310.25 0.472307 -2.95955 0
M  V30 24992 H 2307.81 0.110416 -1.61523 0
M  V30 24993 H 2309.8 2.99255 -2.72449 0
M  V30 24994 H 2308.37 2.59831 -1.738 0
M  V30 24995 H 2307.59 1.16213 -3.76681 0
M  V30 24996 H 2308.88 1.94029 -4.70351 0
M  V30 24997 H 2308.28 4.70835 -3.13578 0
M  V30 24998 H 2306.84 5.20248 -3.92665 0
M  V30 24999 N 2310.27 1.56347 0.198358 0
M  V30 25000 C 2311.2 1.97312 1.24861 0
M  V30 25001 C 2312.18 0.844602 1.4765 0
M  V30 25002 O 2313.37 1.10868 1.59442 0
M  V30 25003 C 2310.5 2.30982 2.59354 0
M  V30 25004 C 2309.45 3.46541 2.51183 0
M  V30 25005 C 2308.78 3.65878 3.8992 0
M  V30 25006 C 2310.08 4.80826 2.03969 0
M  V30 25007 H 2311.77 2.85293 0.908202 0
M  V30 25008 H 2309.32 1.37259 0.435438 0
M  V30 25009 H 2311.27 2.58234 3.33006 0
M  V30 25010 H 2309.99 1.3988 2.95129 0
M  V30 25011 H 2308.65 3.19374 1.79988 0
M  V30 25012 H 2308.3 2.72112 4.23041 0
M  V30 25013 H 2308 4.43617 3.85328 0
M  V30 25014 H 2309.52 3.95503 4.65198 0
M  V30 25015 H 2310.94 5.07132 2.67377 0
M  V30 25016 H 2309.34 5.62012 2.10387 0
M  V30 25017 H 2310.41 4.74628 0.992778 0
M  V30 25018 N 2311.75 -0.465951 1.50554 0
M  V30 25019 C 2313.03 -1.22709 1.52322 0
M  V30 25020 C 2313.41 -2.09355 0.270844 0
M  V30 25021 O 2312.75 -2.15997 -0.745503 0
M  V30 25022 C 2312.96 -2.05369 2.82178 0
M  V30 25023 C 2314.31 -2.63384 3.33037 0
M  V30 25024 O 2315.34 -2.15607 2.83535 0
M  V30 25025 O 2314.19 -3.50449 4.19342 0
M  V30 25026 H 2311.29 -0.557111 0.611193 0
M  V30 25027 H 2313.83 -0.477353 1.62848 0
M  V30 25028 H 2312.61 -1.41551 3.648 0
M  V30 25029 H 2312.23 -2.87466 2.7468 0
M  V30 25030 N 2313.23 -1.40218 -0.719481 0
M  V30 25031 C 2314.14 -1.42483 -1.86375 0
M  V30 25032 C 2315.15 -0.317864 -1.71072 0
M  V30 25033 O 2316.33 -0.561828 -1.93405 0
M  V30 25034 C 2313.39 -1.28183 -3.22133 0
M  V30 25035 C 2312.45 -2.48988 -3.49719 0
M  V30 25036 C 2311.69 -2.35362 -4.79 0
M  V30 25037 O 2311.91 -1.36534 -5.53818 0
M  V30 25038 O 2310.84 -3.24659 -5.06834 0
M  V30 25039 H 2314.67 -2.38971 -1.87421 0
M  V30 25040 H 2312.26 -1.21499 -0.869384 0
M  V30 25041 H 2314.14 -1.22402 -4.03232 0
M  V30 25042 H 2312.81 -0.347991 -3.21824 0
M  V30 25043 H 2311.72 -2.60347 -2.68645 0
M  V30 25044 H 2313.05 -3.4112 -3.54822 0
M  V30 25045 N 2314.7 0.951297 -1.25651 0
M  V30 25046 C 2315.65 2.0698 -1.06122 0
M  V30 25047 C 2316.65 1.69398 0.00886191 0
M  V30 25048 O 2317.85 1.79399 -0.14702 0
M  V30 25049 H 2314.23 0.677538 -0.32626 0
M  V30 25050 H 2316.2 2.20607 -2.00936 0
M  V30 25051 C 2314.95 3.40577 -0.700205 0
M  V30 25052 H 2314.27 3.69966 -1.51544 0
M  V30 25053 H 2315.71 4.19686 -0.603285 0
M  V30 25054 C 2314.17 3.31623 0.593972 0
M  V30 25055 O 2314.7 3.66914 1.63515 0
M  V30 25056 N 2312.91 2.84736 0.58084 0
M  V30 25057 H 2312.45 2.56214 -0.266829 0
M  V30 25058 H 2312.41 2.79128 1.4469 0
M  V30 25059 N 2316.18 1.07291 1.1544 0
M  V30 25060 C 2317.09 0.704096 2.23785 0
M  V30 25061 C 2318.11 -0.284383 1.7166 0
M  V30 25062 O 2319.28 -0.13117 2.00972 0
M  V30 25063 C 2316.35 0.106853 3.46535 0
M  V30 25064 C 2315.41 1.14849 4.13652 0
M  V30 25065 C 2314.64 0.579653 5.30543 0
M  V30 25066 O 2314.87 -0.604485 5.67188 0
M  V30 25067 O 2313.8 1.32424 5.87152 0
M  V30 25068 H 2317.63 1.60761 2.57662 0
M  V30 25069 H 2315.21 0.845825 1.23151 0
M  V30 25070 H 2317.09 -0.223974 4.20804 0
M  V30 25071 H 2315.77 -0.769994 3.14409 0
M  V30 25072 H 2314.68 1.53166 3.41308 0
M  V30 25073 H 2316.01 1.99722 4.49858 0
M  V30 25074 N 2317.66 -1.32267 0.856927 0
M  V30 25075 C 2318.59 -2.31316 0.318621 0
M  V30 25076 C 2319.57 -1.5978 -0.583459 0
M  V30 25077 O 2320.76 -1.87567 -0.503226 0
M  V30 25078 C 2317.89 -3.43799 -0.491918 0
M  V30 25079 C 2316.84 -4.26832 0.315924 0
M  V30 25080 C 2316.17 -5.31099 -0.619492 0
M  V30 25081 C 2317.47 -4.98991 1.54291 0
M  V30 25082 H 2319.16 -2.76589 1.14626 0
M  V30 25083 H 2316.71 -1.32973 0.552637 0
M  V30 25084 H 2318.66 -4.12132 -0.878939 0
M  V30 25085 H 2317.38 -2.97259 -1.35294 0
M  V30 25086 H 2316.04 -3.60149 0.684728 0
M  V30 25087 H 2315.69 -4.80813 -1.47742 0
M  V30 25088 H 2315.39 -5.87541 -0.0829589 0
M  V30 25089 H 2316.91 -6.02295 -1.00364 0
M  V30 25090 H 2318.33 -5.59993 1.22806 0
M  V30 25091 H 2316.73 -5.65168 2.01755 0
M  V30 25092 H 2317.8 -4.26724 2.30292 0
M  V30 25093 N 2319.14 -0.615084 -1.45102 0
M  V30 25094 C 2320.55 -0.197416 -1.85653 0
M  V30 25095 C 2320.9 1.24747 -1.51435 0
M  V30 25096 O 2320.03 1.94693 -0.944643 0
M  V30 25097 C 2320.62 -0.351507 -3.36972 0
M  V30 25098 C 2319.18 0.0115268 -3.76398 0
M  V30 25099 C 2318.33 -0.672441 -2.69023 0
M  V30 25100 H 2321.28 -0.821287 -1.35796 0
M  V30 25101 H 2321.3 0.41416 -3.78239 0
M  V30 25102 H 2320.81 -1.4032 -3.61845 0
M  V30 25103 H 2318.91 1.06211 -3.57141 0
M  V30 25104 H 2319.02 -0.387349 -4.77532 0
M  V30 25105 H 2317.39 -0.109328 -2.54465 0
M  V30 25106 H 2318.17 -1.72642 -2.96732 0
M  V30 25107 N 2320.62 1.53557 -0.354678 0
M  V30 25108 C 2321.57 2.22151 0.51314 0
M  V30 25109 C 2322.55 1.21283 1.05732 0
M  V30 25110 O 2323.74 1.4678 0.989176 0
M  V30 25111 C 2320.87 3.00612 1.65792 0
M  V30 25112 C 2319.96 4.08847 1.12714 0
M  V30 25113 N 2320.35 5.04796 0.318474 0
M  V30 25114 C 2318.65 4.23358 1.40299 0
M  V30 25115 C 2319.35 5.81693 0.0291202 0
M  V30 25116 N 2318.32 5.40009 0.623796 0
M  V30 25117 H 2322.13 2.93688 -0.111637 0
M  V30 25118 H 2319.64 1.61589 -0.16212 0
M  V30 25119 H 2321.64 3.48262 2.2917 0
M  V30 25120 H 2320.3 2.30604 2.28587 0
M  V30 25121 H 2321.31 5.17883 -0.0414001 0
M  V30 25122 H 2317.99 3.64573 2.03452 0
M  V30 25123 H 2319.38 6.68997 -0.623926 0
M  V30 25124 N 2322.1 0.083568 1.57378 0
M  V30 25125 C 2323.06 -0.864922 2.12254 0
M  V30 25126 C 2324.06 -1.21856 1.04918 0
M  V30 25127 O 2325.25 -1.14989 1.30855 0
M  V30 25128 C 2322.38 -2.16456 2.63362 0
M  V30 25129 H 2323.57 -0.388623 2.97371 0
M  V30 25130 H 2321.13 -0.16529 1.55424 0
M  V30 25131 H 2321.86 -2.68596 1.81732 0
M  V30 25132 H 2321.65 -1.92081 3.41829 0
M  V30 25133 H 2323.14 -2.84331 3.05852 0
M  V30 25134 N 2323.57 -1.5645 -0.190064 0
M  V30 25135 C 2324.82 -1.81186 -0.911021 0
M  V30 25136 C 2325.15 -0.658428 -1.82697 0
M  V30 25137 O 2324.43 0.340741 -1.91492 0
M  V30 25138 C 2324.71 -3.16208 -1.72291 0
M  V30 25139 C 2324.56 -4.42051 -0.831341 0
M  V30 25140 C 2325.88 -3.47974 -2.69448 0
M  V30 25141 H 2323 -0.659112 -0.329758 0
M  V30 25142 H 2325.64 -1.89163 -0.178135 0
M  V30 25143 H 2323.79 -3.09539 -2.34773 0
M  V30 25144 H 2325.47 -4.60771 -0.220848 0
M  V30 25145 H 2323.71 -4.33579 -0.13833 0
M  V30 25146 H 2324.38 -5.33034 -1.43451 0
M  V30 25147 H 2326.86 -3.54976 -2.17097 0
M  V30 25148 H 2325.73 -4.43561 -3.23334 0
M  V30 25149 H 2325.99 -2.71723 -3.48739 0
M  V30 25150 N 2325.05 0.45796 -1.50799 0
M  V30 25151 C 2326 1.5522 -1.67006 0
M  V30 25152 C 2326.99 1.52116 -0.524367 0
M  V30 25153 O 2328.18 1.58918 -0.779373 0
M  V30 25154 C 2325.31 2.93572 -1.77961 0
M  V30 25155 C 2324.39 3.01511 -2.98249 0
M  V30 25156 N 2324.78 2.79234 -4.21737 0
M  V30 25157 C 2323.08 3.32657 -2.97078 0
M  V30 25158 C 2323.78 2.9248 -5.02822 0
M  V30 25159 N 2322.76 3.23255 -4.37044 0
M  V30 25160 H 2326.56 1.36716 -2.60165 0
M  V30 25161 H 2324.07 0.664926 -1.48164 0
M  V30 25162 H 2326.07 3.72267 -1.87677 0
M  V30 25163 H 2324.73 3.13113 -0.859689 0
M  V30 25164 H 2325.74 2.54559 -4.51021 0
M  V30 25165 H 2322.42 3.58102 -2.14637 0
M  V30 25166 H 2323.81 2.79385 -6.11059 0
M  V30 25167 N 2326.53 1.40598 0.712035 0
M  V30 25168 C 2327.78 1.39068 1.47195 0
M  V30 25169 C 2328.1 -0.00580472 1.94499 0
M  V30 25170 O 2327.36 -0.990991 1.68754 0
M  V30 25171 C 2327.66 2.3297 2.71035 0
M  V30 25172 C 2327.32 3.80152 2.42477 0
M  V30 25173 C 2325.99 4.20251 2.34399 0
M  V30 25174 C 2328.34 4.73147 2.1859 0
M  V30 25175 C 2325.67 5.51375 2.00506 0
M  V30 25176 C 2328.02 6.04573 1.86209 0
M  V30 25177 C 2326.68 6.43711 1.76615 0
M  V30 25178 H 2325.95 0.508886 0.538625 0
M  V30 25179 H 2328.6 1.73278 0.815294 0
M  V30 25180 H 2326.9 1.91957 3.41555 0
M  V30 25181 H 2328.6 2.29067 3.29134 0
M  V30 25182 H 2325.19 3.48384 2.49652 0
M  V30 25183 H 2329.38 4.42983 2.23785 0
M  V30 25184 H 2324.63 5.80597 1.91618 0
M  V30 25185 H 2328.81 6.76144 1.6674 0
M  V30 25186 H 2326.43 7.4523 1.5012 0
M  V30 25187 N 2328.01 -0.94462 1.26153 0
M  V30 25188 C 2328.94 -2.06017 1.09906 0
M  V30 25189 C 2329.92 -1.70099 0.00522528 0
M  V30 25190 O 2331.1 -1.93395 0.176617 0
M  V30 25191 C 2328.23 -3.39592 0.727622 0
M  V30 25192 C 2327.19 -3.89558 1.77281 0
M  V30 25193 C 2326.51 -5.19744 1.25578 0
M  V30 25194 C 2327.81 -4.14822 3.17365 0
M  V30 25195 H 2329.51 -2.19868 2.03221 0
M  V30 25196 H 2327.05 -1.0565 0.97847 0
M  V30 25197 H 2329.01 -4.17094 0.60085 0
M  V30 25198 H 2327.73 -3.25708 -0.241229 0
M  V30 25199 H 2326.39 -3.14234 1.88819 0
M  V30 25200 H 2326.04 -5.02237 0.276872 0
M  V30 25201 H 2325.74 -5.54144 1.95443 0
M  V30 25202 H 2327.26 -5.99833 1.14161 0
M  V30 25203 H 2328.68 -4.82949 3.08923 0
M  V30 25204 H 2327.07 -4.60497 3.84789 0
M  V30 25205 H 2328.14 -3.20728 3.63678 0
M  V30 25206 N 2329.49 -1.07901 -1.1487 0
M  V30 25207 C 2330.43 -0.698766 -2.21856 0
M  V30 25208 C 2331.43 0.293057 -1.66846 0
M  V30 25209 O 2332.63 0.156173 -1.79321 0
M  V30 25210 H 2329.01 -0.207912 -0.722687 0
M  V30 25211 H 2330.98 -1.61058 -2.51203 0
M  V30 25212 C 2329.73 -0.118641 -3.47498 0
M  V30 25213 H 2329.05 -0.872982 -3.90153 0
M  V30 25214 H 2330.49 0.109684 -4.23858 0
M  V30 25215 C 2328.95 1.14215 -3.16949 0
M  V30 25216 O 2329.48 2.22779 -3.34264 0
M  V30 25217 N 2327.69 1.05051 -2.70948 0
M  V30 25218 H 2327.23 0.166993 -2.57058 0
M  V30 25219 H 2327.19 1.89487 -2.50883 0
M  V30 25220 N 2330.96 1.31811 -0.863929 0
M  V30 25221 C 2331.87 2.32428 -0.318502 0
M  V30 25222 C 2332.89 1.64452 0.568467 0
M  V30 25223 O 2334.07 1.9592 0.466625 0
M  V30 25224 C 2331.13 3.43413 0.476295 0
M  V30 25225 C 2330.19 4.27061 -0.437915 0
M  V30 25226 C 2329.42 5.32746 0.319045 0
M  V30 25227 O 2329.65 5.48996 1.54789 0
M  V30 25228 O 2328.58 6.01049 -0.319967 0
M  V30 25229 H 2332.41 2.80989 -1.15234 0
M  V30 25230 H 2329.99 1.356 -0.627126 0
M  V30 25231 H 2331.87 4.11076 0.927084 0
M  V30 25232 H 2330.55 2.97025 1.28678 0
M  V30 25233 H 2329.46 3.62174 -0.937077 0
M  V30 25234 H 2330.79 4.76998 -1.21383 0
M  V30 25235 N 2332.44 0.62277 1.44773 0
M  V30 25236 C 2333.67 0.129004 2.06998 0
M  V30 25237 C 2334.09 -1.18387 1.46172 0
M  V30 25238 O 2333.45 -1.72433 0.560037 0
M  V30 25239 C 2333.5 0.0188985 3.60595 0
M  V30 25240 O 2332.6 -1.02732 3.99399 0
M  V30 25241 H 2331.94 0.0809659 0.659045 0
M  V30 25242 H 2334.47 0.857083 1.85783 0
M  V30 25243 H 2334.48 -0.174404 4.07627 0
M  V30 25244 H 2333.16 0.977455 4.04251 0
M  V30 25245 H 2331.73 -0.809262 3.64013 0
M  V30 25246 N 2333.92 -1.53367 0.362817 0
M  V30 25247 C 2335.17 -2.00818 -0.22729 0
M  V30 25248 C 2335.49 -1.25188 -1.49509 0
M  V30 25249 O 2334.76 -0.364382 -1.92481 0
M  V30 25250 H 2333.34 -0.741919 -0.0869792 0
M  V30 25251 H 2336 -1.88681 0.488414 0
M  V30 25252 H 2335.1 -3.08748 -0.456219 0
M  V30 25253 N 2335.4 -0.091913 -1.57332 0
M  V30 25254 C 2336.64 0.573391 -1.94525 0
M  V30 25255 C 2336.98 1.68031 -0.973607 0
M  V30 25256 O 2336.25 1.94499 -0.00612645 0
M  V30 25257 C 2336.54 1.13155 -3.4186 0
M  V30 25258 C 2336.39 0.0298956 -4.4979 0
M  V30 25259 C 2337.71 2.03091 -3.90438 0
M  V30 25260 H 2334.83 0.206963 -0.707344 0
M  V30 25261 H 2337.47 -0.161975 -1.89308 0
M  V30 25262 H 2335.62 1.75824 -3.46436 0
M  V30 25263 H 2337.29 -0.604193 -4.57326 0
M  V30 25264 H 2335.53 -0.636909 -4.29099 0
M  V30 25265 H 2336.2 0.46119 -5.5007 0
M  V30 25266 H 2338.68 1.50331 -3.87995 0
M  V30 25267 H 2337.56 2.39072 -4.94101 0
M  V30 25268 H 2337.82 2.94707 -3.29546 0
M  V30 25269 N 2336.88 1.56548 0.181765 0
M  V30 25270 C 2337.81 1.98625 1.22761 0
M  V30 25271 C 2338.79 0.860215 1.46746 0
M  V30 25272 O 2339.97 1.12553 1.58257 0
M  V30 25273 C 2337.1 2.3372 2.5689 0
M  V30 25274 C 2336.06 3.49186 2.47494 0
M  V30 25275 C 2335.38 3.69993 3.86017 0
M  V30 25276 C 2336.68 4.82963 1.98857 0
M  V30 25277 H 2338.38 2.8624 0.877892 0
M  V30 25278 H 2335.92 1.37713 0.420856 0
M  V30 25279 H 2337.88 2.61752 3.30248 0
M  V30 25280 H 2336.6 1.43002 2.93629 0
M  V30 25281 H 2335.26 3.21265 1.7659 0
M  V30 25282 H 2334.91 2.76584 4.20132 0
M  V30 25283 H 2334.61 4.47679 3.80601 0
M  V30 25284 H 2336.13 4.00415 4.60977 0
M  V30 25285 H 2337.54 5.09939 2.61983 0
M  V30 25286 H 2335.94 5.64212 2.04414 0
M  V30 25287 H 2337.01 4.75654 0.942381 0
M  V30 25288 N 2338.35 -0.449957 1.5104 0
M  V30 25289 C 2339.28 -1.55284 1.74382 0
M  V30 25290 C 2340.27 -1.59419 0.593264 0
M  V30 25291 O 2341.45 -1.75349 0.834656 0
M  V30 25292 C 2338.58 -2.93463 1.85734 0
M  V30 25293 C 2337.53 -3.04192 3.01083 0
M  V30 25294 C 2336.86 -4.44226 2.97603 0
M  V30 25295 C 2338.16 -2.79442 4.41259 0
M  V30 25296 H 2339.85 -1.36003 2.66727 0
M  V30 25297 H 2337.4 -0.652842 1.28351 0
M  V30 25298 H 2339.35 -3.70566 2.00646 0
M  V30 25299 H 2338.08 -3.13947 0.900262 0
M  V30 25300 H 2336.74 -2.29526 2.85855 0
M  V30 25301 H 2336.38 -4.61659 1.99699 0
M  V30 25302 H 2336.08 -4.52337 3.75054 0
M  V30 25303 H 2337.61 -5.2332 3.14592 0
M  V30 25304 H 2339.02 -3.46284 4.56903 0
M  V30 25305 H 2337.42 -2.98976 5.2032 0
M  V30 25306 H 2338.49 -1.75137 4.52167 0
M  V30 25307 N 2339.83 -1.40974 -0.704569 0
M  V30 25308 C 2340.78 -1.38584 -1.81048 0
M  V30 25309 C 2341.77 -0.261613 -1.58759 0
M  V30 25310 O 2342.96 -0.501586 -1.69744 0
M  V30 25311 C 2340.09 -1.26163 -3.19277 0
M  V30 25312 C 2339.17 -2.43411 -3.47292 0
M  V30 25313 N 2339.56 -3.68887 -3.46058 0
M  V30 25314 C 2337.86 -2.3703 -3.778 0
M  V30 25315 C 2338.56 -4.46599 -3.72726 0
M  V30 25316 N 2337.54 -3.76588 -3.92023 0
M  V30 25317 H 2341.34 -2.33528 -1.78443 0
M  V30 25318 H 2338.86 -1.34902 -0.904175 0
M  V30 25319 H 2340.85 -1.22533 -3.98486 0
M  V30 25320 H 2339.51 -0.321958 -3.231 0
M  V30 25321 H 2340.52 -4.01897 -3.26649 0
M  V30 25322 H 2337.2 -1.51488 -3.89047 0
M  V30 25323 H 2338.59 -5.55498 -3.77983 0
M  V30 25324 N 2341.31 0.937917 -1.26653 0
M  V30 25325 C 2342.56 1.68448 -1.1239 0
M  V30 25326 C 2342.89 1.91643 0.332174 0
M  V30 25327 O 2342.14 1.49727 1.26017 0
M  V30 25328 C 2342.44 3.06292 -1.84174 0
M  V30 25329 C 2342.11 3.02843 -3.34061 0
M  V30 25330 C 2340.77 3.01609 -3.74947 0
M  V30 25331 C 2343.12 2.94903 -4.29746 0
M  V30 25332 C 2340.45 2.90206 -5.099 0
M  V30 25333 C 2342.8 2.8504 -5.64743 0
M  V30 25334 C 2341.46 2.82151 -6.04935 0
M  V30 25335 H 2340.73 0.616396 -0.411263 0
M  V30 25336 H 2343.38 1.09456 -1.57136 0
M  V30 25337 H 2341.69 3.68928 -1.31906 0
M  V30 25338 H 2343.38 3.62912 -1.70575 0
M  V30 25339 H 2339.97 3.04584 -3.0154 0
M  V30 25340 H 2344.16 2.94962 -3.99138 0
M  V30 25341 H 2339.41 2.86349 -5.40199 0
M  V30 25342 H 2343.59 2.77861 -6.38566 0
M  V30 25343 H 2341.21 2.73071 -7.09462 0
M  V30 25344 N 2342.79 1.08509 1.14296 0
M  V30 25345 C 2343.72 0.673897 2.19069 0
M  V30 25346 C 2344.73 -0.279549 1.60382 0
M  V30 25347 O 2345.92 -0.067044 1.78374 0
M  V30 25348 C 2343.02 -0.0290383 3.38888 0
M  V30 25349 C 2342.2 0.943569 4.27101 0
M  V30 25350 C 2341.25 0.275768 5.25477 0
M  V30 25351 O 2340.28 0.9205 5.61708 0
M  V30 25352 N 2341.48 -0.973913 5.72272 0
M  V30 25353 H 2344.25 1.57525 2.54963 0
M  V30 25354 H 2341.81 0.97131 1.29527 0
M  V30 25355 H 2343.8 -0.486759 4.01762 0
M  V30 25356 H 2342.37 -0.832502 3.01311 0
M  V30 25357 H 2341.59 1.5801 3.61146 0
M  V30 25358 H 2342.88 1.6026 4.82902 0
M  V30 25359 H 2342.28 -1.51745 5.44968 0
M  V30 25360 H 2340.83 -1.37511 6.37129 0
M  V30 25361 N 2344.27 -1.31351 0.870907 0
M  V30 25362 C 2345.54 -1.91405 0.40294 0
M  V30 25363 C 2345.92 -1.79246 -1.11509 0
M  V30 25364 O 2345.27 -1.20073 -1.94409 0
M  V30 25365 C 2345.48 -3.37583 0.88536 0
M  V30 25366 C 2346.83 -4.14689 0.912044 0
M  V30 25367 O 2347.85 -3.46369 0.831076 0
M  V30 25368 O 2346.71 -5.36718 1.02936 0
M  V30 25369 H 2343.81 -0.818143 0.120713 0
M  V30 25370 H 2346.35 -1.40013 0.958881 0
M  V30 25371 H 2345.12 -3.40451 1.92895 0
M  V30 25372 H 2344.75 -3.96407 0.307783 0
M  V30 25373 N 2345.74 -0.630439 -1.44441 0
M  V30 25374 C 2347.16 -0.217096 -1.85434 0
M  V30 25375 C 2347.51 1.23133 -1.5275 0
M  V30 25376 O 2346.63 1.9368 -0.965239 0
M  V30 25377 C 2347.23 -0.387227 -3.3658 0
M  V30 25378 C 2345.79 -0.0283959 -3.76389 0
M  V30 25379 C 2344.93 -0.700937 -2.68295 0
M  V30 25380 H 2347.88 -0.835644 -1.34917 0
M  V30 25381 H 2347.9 0.37402 -3.78657 0
M  V30 25382 H 2347.42 -1.4415 -3.60336 0
M  V30 25383 H 2345.52 1.02417 -3.58248 0
M  V30 25384 H 2345.63 -0.437976 -4.77094 0
M  V30 25385 H 2343.99 -0.136312 -2.54335 0
M  V30 25386 H 2344.78 -1.75779 -2.94884 0
M  V30 25387 N 2347.22 1.53172 -0.370945 0
M  V30 25388 C 2348.19 2.24521 0.460739 0
M  V30 25389 C 2349.19 1.25498 1.00534 0
M  V30 25390 O 2350.38 1.49734 0.89024 0
M  V30 25391 C 2347.51 2.98611 1.64452 0
M  V30 25392 H 2348.7 2.99453 -0.163665 0
M  V30 25393 H 2346.25 1.55817 -0.122726 0
M  V30 25394 H 2346.99 2.27934 2.30687 0
M  V30 25395 H 2346.77 3.71272 1.26092 0
M  V30 25396 H 2348.26 3.52834 2.23378 0
M  V30 25397 N 2348.7 0.100255 1.57281 0
M  V30 25398 C 2349.63 -0.853819 2.1733 0
M  V30 25399 C 2350.61 -1.29058 1.10806 0
M  V30 25400 O 2351.8 -1.35655 1.38966 0
M  V30 25401 C 2348.93 -2.11104 2.75776 0
M  V30 25402 C 2347.88 -1.81273 3.87717 0
M  V30 25403 C 2347.21 -3.13867 4.32888 0
M  V30 25404 C 2348.51 -1.09565 5.10679 0
M  V30 25405 H 2350.2 -0.353493 2.97306 0
M  V30 25406 H 2347.75 -0.168587 1.4301 0
M  V30 25407 H 2349.7 -2.7829 3.16437 0
M  V30 25408 H 2348.42 -2.63429 1.93061 0
M  V30 25409 H 2347.08 -1.16483 3.47602 0
M  V30 25410 H 2346.73 -3.64089 3.47057 0
M  V30 25411 H 2346.43 -2.94687 5.08363 0
M  V30 25412 H 2347.95 -3.82202 4.76187 0
M  V30 25413 H 2349.37 -1.66869 5.48477 0
M  V30 25414 H 2347.77 -1.00546 5.91617 0
M  V30 25415 H 2348.84 -0.0792447 4.84835 0
M  V30 25416 N 2350.18 -1.56643 -0.17346 0
M  V30 25417 C 2351.11 -1.92804 -1.23932 0
M  V30 25418 C 2352.12 -0.820914 -1.40588 0
M  V30 25419 O 2353.31 -1.09936 -1.40629 0
M  V30 25420 C 2350.41 -2.16378 -2.60833 0
M  V30 25421 C 2349.59 -3.47601 -2.65504 0
M  V30 25422 C 2348.65 -3.60027 -3.83754 0
M  V30 25423 O 2347.67 -4.32665 -3.69851 0
M  V30 25424 N 2348.87 -2.94718 -5.00122 0
M  V30 25425 H 2351.64 -2.84834 -0.932186 0
M  V30 25426 H 2349.2 -1.57773 -0.36324 0
M  V30 25427 H 2351.19 -2.21958 -3.38403 0
M  V30 25428 H 2349.76 -1.30743 -2.83946 0
M  V30 25429 H 2348.98 -3.53697 -1.74045 0
M  V30 25430 H 2350.27 -4.33954 -2.65634 0
M  V30 25431 H 2349.67 -2.35572 -5.14318 0
M  V30 25432 H 2348.22 -3.05896 -5.75561 0
M  V30 25433 N 2351.66 0.44194 -1.51277 0
M  V30 25434 C 2352.59 1.54358 -1.75203 0
M  V30 25435 C 2353.57 1.59102 -0.60171 0
M  V30 25436 O 2354.75 1.74903 -0.843944 0
M  V30 25437 C 2351.88 2.92474 -1.87287 0
M  V30 25438 C 2350.84 3.02591 -3.02692 0
M  V30 25439 C 2350.16 4.42641 -2.99955 0
M  V30 25440 C 2351.46 2.77098 -4.42735 0
M  V30 25441 H 2353.16 1.34587 -2.67445 0
M  V30 25442 H 2350.7 0.646026 -1.28695 0
M  V30 25443 H 2352.66 3.69497 -2.02609 0
M  V30 25444 H 2351.38 3.13465 -0.916899 0
M  V30 25445 H 2350.04 2.28007 -2.87069 0
M  V30 25446 H 2349.69 4.60594 -2.02144 0
M  V30 25447 H 2349.39 4.50341 -3.77447 0
M  V30 25448 H 2350.91 5.21644 -3.17363 0
M  V30 25449 H 2352.33 3.43856 -4.58733 0
M  V30 25450 H 2350.72 2.96213 -5.21899 0
M  V30 25451 H 2351.79 1.72736 -4.5309 0
M  V30 25452 N 2353.14 1.41345 0.697083 0
M  V30 25453 C 2354.36 1.44173 1.49093 0
M  V30 25454 C 2354.79 0.0481899 1.88038 0
M  V30 25455 O 2354.14 -0.948216 1.54527 0
M  V30 25456 C 2354.19 2.35495 2.73084 0
M  V30 25457 O 2353.3 1.81094 3.70511 0
M  V30 25458 H 2352.64 0.489369 0.448792 0
M  V30 25459 H 2355.17 1.85789 0.856959 0
M  V30 25460 H 2355.18 2.51317 3.21409 0
M  V30 25461 H 2353.85 3.3675 2.44075 0
M  V30 25462 H 2352.43 1.74714 3.29438 0
M  V30 25463 N 2354.61 -0.931187 1.27148 0
M  V30 25464 C 2355.89 -1.65653 1.04012 0
M  V30 25465 C 2356.27 -2.06752 -0.426261 0
M  V30 25466 O 2355.62 -1.79906 -1.40876 0
M  V30 25467 C 2355.83 -2.86121 1.99839 0
M  V30 25468 C 2357.18 -3.57545 2.29013 0
M  V30 25469 O 2358.2 -2.96243 1.97784 0
M  V30 25470 O 2357.06 -4.67984 2.8223 0
M  V30 25471 H 2354.15 -0.725888 0.396252 0
M  V30 25472 H 2356.7 -0.982032 1.38399 0
M  V30 25473 H 2355.47 -2.52716 2.98748 0
M  V30 25474 H 2355.09 -3.61292 1.65993 0
M  V30 25475 N 2356.09 -1.09114 -1.13719 0
M  V30 25476 C 2357.02 -0.749423 -2.21147 0
M  V30 25477 C 2358 0.271446 -1.6792 0
M  V30 25478 O 2359.19 0.140217 -1.93693 0
M  V30 25479 C 2356.32 -0.16572 -3.46904 0
M  V30 25480 C 2355.27 -1.11574 -4.13201 0
M  V30 25481 C 2354.6 -0.393903 -5.33247 0
M  V30 25482 C 2355.9 -2.45686 -4.60908 0
M  V30 25483 H 2357.59 -1.64763 -2.49987 0
M  V30 25484 H 2355.14 -0.793647 -1.20155 0
M  V30 25485 H 2357.09 0.0853919 -4.21313 0
M  V30 25486 H 2355.81 0.767658 -3.1745 0
M  V30 25487 H 2354.47 -1.35208 -3.40756 0
M  V30 25488 H 2354.12 0.543511 -5.00055 0
M  V30 25489 H 2353.82 -1.02731 -5.7855 0
M  V30 25490 H 2355.35 -0.151015 -6.10413 0
M  V30 25491 H 2356.76 -2.26278 -5.26755 0
M  V30 25492 H 2355.16 -3.04785 -5.16939 0
M  V30 25493 H 2356.23 -3.06684 -3.75597 0
M  V30 25494 N 2357.57 1.30887 -0.877861 0
M  V30 25495 C 2358.8 2.0029 -0.506714 0
M  V30 25496 C 2359.21 1.6602 0.90742 0
M  V30 25497 O 2358.55 0.889698 1.60717 0
M  V30 25498 C 2358.61 3.54571 -0.593292 0
M  V30 25499 C 2358.28 4.12337 -1.97046 0
M  V30 25500 C 2359.27 4.2886 -2.93897 0
M  V30 25501 C 2356.96 4.47882 -2.27391 0
M  V30 25502 C 2358.95 4.80128 -4.19232 0
M  V30 25503 C 2356.64 4.98851 -3.52974 0
M  V30 25504 C 2357.64 5.14926 -4.4871 0
M  V30 25505 O 2357.33 5.64798 -5.72066 0
M  V30 25506 H 2357.06 0.647231 -0.195111 0
M  V30 25507 H 2359.61 1.67908 -1.18304 0
M  V30 25508 H 2357.84 3.86447 0.139989 0
M  V30 25509 H 2359.53 4.05222 -0.234443 0
M  V30 25510 H 2360.3 4.01709 -2.71763 0
M  V30 25511 H 2356.18 4.34642 -1.53647 0
M  V30 25512 H 2359.72 4.9259 -4.93964 0
M  V30 25513 H 2355.62 5.25437 -3.74948 0
M  V30 25514 H 2356.38 5.83153 -5.74347 0
M  V30 25515 N 2359.05 0.638091 1.44105 0
M  V30 25516 C 2360.29 0.145366 2.01978 0
M  V30 25517 C 2360.62 -1.23529 1.50236 0
M  V30 25518 O 2359.88 -1.83522 0.679581 0
M  V30 25519 C 2360.18 0.0887955 3.5729 0
M  V30 25520 C 2359.84 1.40916 4.28315 0
M  V30 25521 C 2358.5 1.77077 4.47434 0
M  V30 25522 C 2360.86 2.28039 4.68666 0
M  V30 25523 C 2358.18 3.00056 5.04166 0
M  V30 25524 C 2360.54 3.50295 5.2676 0
M  V30 25525 C 2359.2 3.86671 5.44097 0
M  V30 25526 H 2358.47 0.0531931 0.739088 0
M  V30 25527 H 2361.12 0.825791 1.7278 0
M  V30 25528 H 2359.42 -0.675027 3.85941 0
M  V30 25529 H 2361.12 -0.309075 3.99807 0
M  V30 25530 H 2357.71 1.11777 4.13768 0
M  V30 25531 H 2361.89 2.01396 4.53601 0
M  V30 25532 H 2357.15 3.28307 5.15776 0
M  V30 25533 H 2361.32 4.18033 5.56975 0
M  V30 25534 H 2358.95 4.82045 5.87824 0
M  V30 25535 N 2360.53 -1.52973 0.379063 0
M  V30 25536 C 2361.77 -2.01744 -0.206692 0
M  V30 25537 C 2362.1 -1.26542 -1.47312 0
M  V30 25538 O 2361.38 -0.362937 -1.91084 0
M  V30 25539 C 2361.66 -3.56819 -0.485003 0
M  V30 25540 C 2361.52 -4.42701 0.795997 0
M  V30 25541 C 2362.83 -4.21076 -1.27995 0
M  V30 25542 H 2359.95 -0.733311 -0.0736478 0
M  V30 25543 H 2362.6 -1.83121 0.506613 0
M  V30 25544 H 2360.75 -3.72818 -1.09266 0
M  V30 25545 H 2362.42 -4.38473 1.43315 0
M  V30 25546 H 2360.66 -4.10125 1.41351 0
M  V30 25547 H 2361.33 -5.49192 0.556044 0
M  V30 25548 H 2363.81 -4.08992 -0.765795 0
M  V30 25549 H 2362.68 -5.29581 -1.44343 0
M  V30 25550 H 2362.94 -3.7803 -2.29229 0
M  V30 25551 N 2362 -0.108595 -1.57225 0
M  V30 25552 C 2362.91 0.859363 -2.18294 0
M  V30 25553 C 2363.93 1.30036 -1.15614 0
M  V30 25554 O 2365.11 1.36549 -1.48041 0
M  V30 25555 C 2362.17 2.09553 -2.76204 0
M  V30 25556 C 2361.23 1.70745 -3.93884 0
M  V30 25557 C 2360.46 2.88469 -4.49023 0
M  V30 25558 O 2360.69 4.03592 -4.03075 0
M  V30 25559 O 2359.62 2.66155 -5.39857 0
M  V30 25560 H 2363.45 0.369716 -3.01441 0
M  V30 25561 H 2361.03 0.116473 -1.48945 0
M  V30 25562 H 2362.91 2.81972 -3.13161 0
M  V30 25563 H 2361.59 2.57544 -1.96094 0
M  V30 25564 H 2360.5 0.95465 -3.61714 0
M  V30 25565 H 2361.83 1.27505 -4.75398 0
M  V30 25566 N 2363.48 1.56732 0.16515 0
M  V30 25567 C 2364.89 1.71963 0.727016 0
M  V30 25568 C 2365.24 0.72011 1.82507 0
M  V30 25569 O 2364.37 -0.117204 2.16082 0
M  V30 25570 C 2364.96 3.11793 1.32554 0
M  V30 25571 C 2363.52 3.28688 1.83416 0
M  V30 25572 C 2362.67 2.6791 0.71552 0
M  V30 25573 H 2365.62 1.58585 -0.0603175 0
M  V30 25574 H 2365.64 3.10786 2.19528 0
M  V30 25575 H 2365.15 3.84517 0.526127 0
M  V30 25576 H 2363.25 2.6093 2.65981 0
M  V30 25577 H 2363.37 4.36482 1.97536 0
M  V30 25578 H 2361.73 2.27886 1.13754 0
M  V30 25579 H 2362.51 3.43224 -0.0721439 0
M  V30 25580 N 2364.96 -0.433911 1.51509 0
M  V30 25581 C 2365.91 -1.52693 1.73071 0
M  V30 25582 C 2366.88 -1.55923 0.572469 0
M  V30 25583 O 2368.06 -1.7288 0.807284 0
M  V30 25584 C 2365.2 -2.90378 1.86479 0
M  V30 25585 C 2364.32 -2.96651 3.14042 0
M  V30 25586 C 2363.45 -4.2548 3.18026 0
M  V30 25587 C 2362.49 -4.25633 4.3989 0
M  V30 25588 N 2361.63 -5.45992 4.41404 0
M  V30 25589 H 2366.47 -1.33611 2.66369 0
M  V30 25590 H 2364 -0.648994 1.32009 0
M  V30 25591 H 2365.96 -3.70272 1.92236 0
M  V30 25592 H 2364.59 -3.08011 0.965864 0
M  V30 25593 H 2363.64 -2.09399 3.17579 0
M  V30 25594 H 2364.95 -2.92626 4.03945 0
M  V30 25595 H 2364.11 -5.13749 3.22717 0
M  V30 25596 H 2362.85 -4.32166 2.26018 0
M  V30 25597 H 2361.85 -3.35755 4.35371 0
M  V30 25598 H 2363.08 -4.20607 5.33166 0
M  V30 25599 H 2361.02 -5.53393 3.52268 0
M  V30 25600 H 2360.94 -5.43861 5.2512 0
M  V30 25601 H 2362.21 -6.36284 4.50292 0
M  V30 25602 N 2366.44 -1.41713 -0.689577 0
M  V30 25603 C 2367.68 -1.42602 -1.45039 0
M  V30 25604 C 2368.04 -0.0364102 -1.92366 0
M  V30 25605 O 2367.33 0.938815 -1.67023 0
M  V30 25606 C 2367.53 -2.37252 -2.67294 0
M  V30 25607 C 2367.36 -3.85278 -2.31928 0
M  V30 25608 C 2366.13 -4.5392 -2.22002 0
M  V30 25609 C 2368.32 -4.76096 -1.94518 0
M  V30 25610 N 2366.31 -5.87046 -1.79584 0
M  V30 25611 C 2367.68 -5.98216 -1.62905 0
M  V30 25612 C 2369.73 -4.63687 -1.8138 0
M  V30 25613 C 2368.43 -7.09308 -1.19474 0
M  V30 25614 C 2370.46 -5.74747 -1.39354 0
M  V30 25615 C 2369.82 -6.95969 -1.08656 0
M  V30 25616 H 2365.92 -0.577023 -0.527796 0
M  V30 25617 H 2368.51 -1.7763 -0.797234 0
M  V30 25618 H 2366.68 -2.0431 -3.30321 0
M  V30 25619 H 2368.41 -2.2882 -3.33802 0
M  V30 25620 H 2365.16 -4.07936 -2.40593 0
M  V30 25621 H 2365.59 -6.57617 -1.6084 0
M  V30 25622 H 2370.23 -3.70458 -2.03766 0
M  V30 25623 H 2367.95 -8.02397 -0.958336 0
M  V30 25624 H 2371.53 -5.67152 -1.2973 0
M  V30 25625 H 2370.41 -7.80447 -0.766279 0
M  V30 25626 N 2367.92 0.924431 -1.2764 0
M  V30 25627 C 2368.85 2.04242 -1.1317 0
M  V30 25628 C 2369.83 1.70069 -0.0322859 0
M  V30 25629 O 2371.01 1.9309 -0.207362 0
M  V30 25630 C 2368.14 3.38392 -0.781556 0
M  V30 25631 C 2367.1 3.86688 -1.83456 0
M  V30 25632 C 2366.42 5.17681 -1.33831 0
M  V30 25633 C 2367.72 4.0972 -3.23924 0
M  V30 25634 H 2369.42 2.16607 -2.06693 0
M  V30 25635 H 2366.96 1.0408 -0.995155 0
M  V30 25636 H 2368.92 4.16086 -0.66713 0
M  V30 25637 H 2367.64 3.2605 0.189381 0
M  V30 25638 H 2366.3 3.1119 -1.93794 0
M  V30 25639 H 2365.95 5.01733 -0.356738 0
M  V30 25640 H 2365.65 5.50965 -2.04234 0
M  V30 25641 H 2367.17 5.97941 -1.23689 0
M  V30 25642 H 2368.58 4.77973 -3.16567 0
M  V30 25643 H 2366.98 4.54317 -3.92067 0
M  V30 25644 H 2368.05 3.14901 -3.68735 0
M  V30 25645 N 2369.39 1.09715 1.13139 0
M  V30 25646 C 2370.63 0.844716 1.86129 0
M  V30 25647 C 2371 -0.618459 1.81767 0
M  V30 25648 O 2372.2 -0.986946 2.50026 0
M  V30 25649 C 2370.47 1.36883 3.30148 0
M  V30 25650 S 2372.03 1.25071 4.20598 0
M  V30 25651 H 2368.85 0.305438 0.64205 0
M  V30 25652 H 2371.45 1.40112 1.36341 0
M  V30 25653 H 2370.15 2.42791 3.30878 0
M  V30 25654 H 2369.68 0.808681 3.84999 0
M  V30 25655 H 2371.7 0.203574 4.95782 0
M  V30 25656 N 2370.87 -1.30419 0.88479 0
M  V30 25657 C 2371.82 -2.28136 0.349682 0
M  V30 25658 C 2372.79 -1.56374 -0.560034 0
M  V30 25659 O 2373.97 -1.84441 -0.488492 0
M  V30 25660 C 2371.11 -3.42411 -0.429929 0
M  V30 25661 C 2370.23 -4.28991 0.508983 0
M  V30 25662 C 2369.36 -5.30428 -0.286208 0
M  V30 25663 C 2368.4 -6.08658 0.648186 0
M  V30 25664 N 2367.54 -7.02011 -0.111669 0
M  V30 25665 H 2372.38 -2.73291 1.18811 0
M  V30 25666 H 2369.92 -1.34429 0.597255 0
M  V30 25667 H 2371.87 -4.07424 -0.897851 0
M  V30 25668 H 2370.5 -2.98326 -1.23294 0
M  V30 25669 H 2369.56 -3.64287 1.09539 0
M  V30 25670 H 2370.87 -4.83528 1.22484 0
M  V30 25671 H 2370.02 -6.01188 -0.815992 0
M  V30 25672 H 2368.76 -4.76585 -1.03528 0
M  V30 25673 H 2367.77 -5.36776 1.1896 0
M  V30 25674 H 2368.99 -6.64589 1.39635 0
M  V30 25675 H 2366.94 -6.50557 -0.843281 0
M  V30 25676 H 2366.85 -7.54036 0.544561 0
M  V30 25677 H 2368.12 -7.77013 -0.622202 0
M  V30 25678 N 2372.35 -0.645724 -1.43764 0
M  V30 25679 C 2373.6 -0.153448 -2.01115 0
M  V30 25680 C 2373.91 1.23728 -1.51495 0
M  V30 25681 O 2375.12 1.82437 -2.0107 0
M  V30 25682 C 2373.57 -0.223536 -3.59205 0
M  V30 25683 C 2373.18 -1.61649 -4.1782 0
M  V30 25684 C 2374.93 0.211523 -4.23973 0
M  V30 25685 C 2372.83 -1.64091 -5.6818 0
M  V30 25686 H 2371.76 -0.0536024 -0.752092 0
M  V30 25687 H 2374.41 -0.806662 -1.64819 0
M  V30 25688 H 2372.8 0.497049 -3.92868 0
M  V30 25689 H 2373.97 -2.36183 -3.9567 0
M  V30 25690 H 2372.29 -1.99688 -3.65395 0
M  V30 25691 H 2374.88 0.213018 -5.34276 0
M  V30 25692 H 2375.23 1.24158 -3.97354 0
M  V30 25693 H 2375.76 -0.457058 -3.95166 0
M  V30 25694 H 2372.5 -2.64981 -5.99554 0
M  V30 25695 H 2372.02 -0.938715 -5.92409 0
M  V30 25696 H 2373.7 -1.38131 -6.32083 0
M  V30 25697 N 2373.83 1.5277 -0.38717 0
M  V30 25698 C 2374.76 2.22809 0.493084 0
M  V30 25699 C 2375.74 1.228 1.06578 0
M  V30 25700 O 2376.92 1.51779 1.11783 0
M  V30 25701 C 2374.05 2.93965 1.68232 0
M  V30 25702 C 2373.1 4.08225 1.23508 0
M  V30 25703 S 2373.93 5.35055 0.218386 0
M  V30 25704 C 2375.09 6.09731 1.41346 0
M  V30 25705 H 2375.32 2.97126 -0.101678 0
M  V30 25706 H 2372.85 1.53446 -0.17135 0
M  V30 25707 H 2374.81 3.35571 2.36437 0
M  V30 25708 H 2373.47 2.19332 2.24838 0
M  V30 25709 H 2372.66 4.57106 2.12296 0
M  V30 25710 H 2372.27 3.68622 0.631979 0
M  V30 25711 H 2374.56 6.35774 2.3409 0
M  V30 25712 H 2375.5 7.01485 0.965613 0
M  V30 25713 H 2375.91 5.40476 1.6293 0
M  V30 25714 N 2375.31 0.116931 1.57166 0
M  V30 25715 C 2376.27 -0.819705 2.14041 0
M  V30 25716 C 2377.27 -1.19603 1.07479 0
M  V30 25717 O 2378.46 -1.12188 1.33265 0
M  V30 25718 C 2375.59 -2.10821 2.67894 0
M  V30 25719 H 2376.78 -0.325459 2.98129 0
M  V30 25720 H 2374.34 -0.132285 1.55739 0
M  V30 25721 H 2375.07 -2.64681 1.87388 0
M  V30 25722 H 2374.86 -1.84787 3.45827 0
M  V30 25723 H 2376.35 -2.7778 3.11814 0
M  V30 25724 N 2376.78 -1.56818 -0.156836 0
M  V30 25725 C 2377.72 -1.94108 -1.2188 0
M  V30 25726 C 2378.73 -0.835779 -1.39709 0
M  V30 25727 O 2379.92 -1.11421 -1.39455 0
M  V30 25728 C 2377.02 -2.19132 -2.58523 0
M  V30 25729 C 2376.19 -3.50397 -2.61802 0
M  V30 25730 C 2375.25 -3.64077 -3.79913 0
M  V30 25731 O 2374.28 -4.36563 -3.65241 0
M  V30 25732 N 2375.48 -3.00006 -4.96967 0
M  V30 25733 H 2378.24 -2.85807 -0.901923 0
M  V30 25734 H 2375.8 -1.58149 -0.346486 0
M  V30 25735 H 2377.8 -2.25534 -3.3603 0
M  V30 25736 H 2376.37 -1.33747 -2.82543 0
M  V30 25737 H 2375.59 -3.55523 -1.70284 0
M  V30 25738 H 2376.87 -4.36747 -2.61016 0
M  V30 25739 H 2376.27 -2.41013 -5.1179 0
M  V30 25740 H 2374.83 -3.11984 -5.72284 0
M  V30 25741 N 2378.26 0.425871 -1.51737 0
M  V30 25742 C 2379.51 1.17133 -1.64203 0
M  V30 25743 C 2379.82 1.92074 -0.369739 0
M  V30 25744 O 2381.03 2.68912 -0.373945 0
M  V30 25745 C 2379.49 2.13086 -2.90039 0
M  V30 25746 C 2379.09 1.4374 -4.24315 0
M  V30 25747 C 2380.84 2.87994 -3.11865 0
M  V30 25748 C 2378.75 2.38243 -5.41289 0
M  V30 25749 H 2377.68 0.440933 -0.611632 0
M  V30 25750 H 2380.33 0.437296 -1.78213 0
M  V30 25751 H 2378.71 2.89972 -2.69689 0
M  V30 25752 H 2379.88 0.723328 -4.55087 0
M  V30 25753 H 2378.2 0.809393 -4.08458 0
M  V30 25754 H 2380.79 3.5881 -3.96433 0
M  V30 25755 H 2381.14 3.49995 -2.2541 0
M  V30 25756 H 2381.67 2.18212 -3.32609 0
M  V30 25757 H 2378.41 1.80914 -6.3004 0
M  V30 25758 H 2377.93 3.07671 -5.14878 0
M  V30 25759 H 2379.61 2.99129 -5.73699 0
M  V30 25760 N 2379.74 1.42077 0.682052 0
M  V30 25761 C 2380.67 1.4777 1.80793 0
M  V30 25762 C 2381.65 0.334983 1.66769 0
M  V30 25763 O 2382.84 0.548297 1.86299 0
M  V30 25764 C 2379.97 1.37235 3.19036 0
M  V30 25765 C 2378.92 2.49459 3.47785 0
M  V30 25766 C 2378.25 2.23983 4.85526 0
M  V30 25767 C 2379.55 3.91783 3.45404 0
M  V30 25768 H 2381.24 2.42 1.76285 0
M  V30 25769 H 2378.79 1.16477 0.846701 0
M  V30 25770 H 2380.74 1.39828 3.97525 0
M  V30 25771 H 2379.46 0.394964 3.24203 0
M  V30 25772 H 2378.12 2.46171 2.71653 0
M  V30 25773 H 2377.77 1.24556 4.87334 0
M  V30 25774 H 2377.47 2.99193 5.05725 0
M  V30 25775 H 2378.99 2.28314 5.66308 0
M  V30 25776 H 2380.41 3.96712 4.13875 0
M  V30 25777 H 2378.81 4.66784 3.77137 0
M  V30 25778 H 2379.88 4.1897 2.44115 0
M  V30 25779 N 2381.22 -0.917649 1.28129 0
M  V30 25780 C 2382.45 -1.70024 1.17895 0
M  V30 25781 C 2382.86 -1.8696 -0.262925 0
M  V30 25782 O 2382.22 -1.39382 -1.17809 0
M  V30 25783 C 2382.27 -3.09449 1.86878 0
M  V30 25784 O 2381.99 -2.933 3.25433 0
M  V30 25785 C 2383.49 -4.03811 1.82897 0
M  V30 25786 H 2380.71 -0.531609 0.409429 0
M  V30 25787 H 2383.26 -1.1488 1.69183 0
M  V30 25788 H 2381.41 -3.61423 1.3947 0
M  V30 25789 H 2381.83 -3.81516 3.59924 0
M  V30 25790 H 2383.3 -4.9912 2.3576 0
M  V30 25791 H 2383.78 -4.31844 0.800488 0
M  V30 25792 H 2384.38 -3.57765 2.29965 0
M  V30 25793 N 2382.7 -1.10314 -1.12555 0
M  V30 25794 C 2383.94 -0.846043 -1.84309 0
M  V30 25795 C 2384.28 0.626827 -1.83806 0
M  V30 25796 O 2383.55 1.46209 -1.2827 0
M  V30 25797 C 2383.83 -1.39347 -3.32046 0
M  V30 25798 C 2383.69 -2.93311 -3.41011 0
M  V30 25799 C 2385.01 -1.03476 -4.27762 0
M  V30 25800 H 2382.13 -0.308801 -0.669187 0
M  V30 25801 H 2384.77 -1.36607 -1.32055 0
M  V30 25802 H 2382.92 -0.951153 -3.76677 0
M  V30 25803 H 2384.59 -3.4606 -3.05025 0
M  V30 25804 H 2382.83 -3.29978 -2.81598 0
M  V30 25805 H 2383.5 -3.26696 -4.44942 0
M  V30 25806 H 2385.98 -1.4164 -3.91251 0
M  V30 25807 H 2384.86 -1.44472 -5.29546 0
M  V30 25808 H 2385.12 0.0559627 -4.42065 0
M  V30 25809 N 2384.18 1.29948 -0.891694 0
M  V30 25810 C 2385.12 2.27947 -0.361776 0
M  V30 25811 C 2386.09 1.56669 0.551733 0
M  V30 25812 O 2387.28 1.84697 0.478703 0
M  V30 25813 C 2384.42 3.42635 0.411764 0
M  V30 25814 C 2383.53 4.28715 -0.531726 0
M  V30 25815 C 2382.67 5.30573 0.258074 0
M  V30 25816 C 2381.7 6.08306 -0.680455 0
M  V30 25817 N 2380.84 7.02061 0.0744379 0
M  V30 25818 H 2385.68 2.72657 -1.20259 0
M  V30 25819 H 2383.22 1.34111 -0.604376 0
M  V30 25820 H 2385.18 4.07895 0.876232 0
M  V30 25821 H 2383.81 2.98976 1.2171 0
M  V30 25822 H 2382.86 3.63701 -1.1147 0
M  V30 25823 H 2384.17 4.82871 -1.25046 0
M  V30 25824 H 2383.32 6.01612 0.784098 0
M  V30 25825 H 2382.06 4.77127 1.00999 0
M  V30 25826 H 2381.07 5.36138 -1.21805 0
M  V30 25827 H 2382.29 6.63839 -1.43157 0
M  V30 25828 H 2380.24 6.50995 0.808769 0
M  V30 25829 H 2380.16 7.53737 -0.584542 0
M  V30 25830 H 2381.42 7.77332 0.580986 0
M  V30 25831 N 2385.65 0.653339 1.4342 0
M  V30 25832 C 2386.9 0.167027 2.02111 0
M  V30 25833 C 2387.23 -1.21589 1.51425 0
M  V30 25834 O 2386.51 -1.81179 0.707421 0
M  V30 25835 C 2386.79 0.178011 3.5966 0
M  V30 25836 C 2386.64 1.59485 4.20576 0
M  V30 25837 C 2387.96 -0.485523 4.37414 0
M  V30 25838 H 2385.08 0.0621686 0.734373 0
M  V30 25839 H 2387.72 0.834046 1.70715 0
M  V30 25840 H 2385.87 -0.389964 3.86538 0
M  V30 25841 H 2387.55 2.21343 4.04728 0
M  V30 25842 H 2385.79 2.1421 3.77222 0
M  V30 25843 H 2386.46 1.55439 5.29663 0
M  V30 25844 H 2388.94 -0.00227214 4.161 0
M  V30 25845 H 2387.81 -0.44711 5.47076 0
M  V30 25846 H 2388.07 -1.55966 4.13675 0
M  V30 25847 N 2387.13 -1.52563 0.395266 0
M  V30 25848 C 2388.04 -2.30356 -0.444191 0
M  V30 25849 C 2389.06 -1.37513 -1.06612 0
M  V30 25850 O 2390.23 -1.70585 -1.07064 0
M  V30 25851 C 2387.3 -3.09967 -1.5531 0
M  V30 25852 C 2386.36 -4.18528 -0.95566 0
M  V30 25853 C 2385.59 -4.94333 -2.01173 0
M  V30 25854 O 2385.82 -4.70291 -3.22773 0
M  V30 25855 O 2384.75 -5.7953 -1.62569 0
M  V30 25856 H 2388.58 -3.03107 0.18972 0
M  V30 25857 H 2386.16 -1.48553 0.158826 0
M  V30 25858 H 2388.04 -3.59586 -2.19718 0
M  V30 25859 H 2386.72 -2.40024 -2.17187 0
M  V30 25860 H 2385.62 -3.7309 -0.274678 0
M  V30 25861 H 2386.96 -4.90723 -0.381023 0
M  V30 25862 N 2388.61 -0.125265 -1.57101 0
M  V30 25863 C 2389.86 0.530164 -1.95022 0
M  V30 25864 C 2390.18 1.66814 -1.00985 0
M  V30 25865 O 2389.45 1.95784 -0.0673037 0
M  V30 25866 H 2388.03 0.19884 -0.72005 0
M  V30 25867 H 2390.69 -0.195674 -1.93915 0
M  V30 25868 H 2389.79 0.920629 -2.98213 0
M  V30 25869 N 2390.09 1.56899 0.148518 0
M  V30 25870 C 2391.33 1.85072 0.867618 0
M  V30 25871 C 2391.69 0.709348 1.78416 0
M  V30 25872 O 2392.89 0.872094 2.5426 0
M  V30 25873 C 2391.16 3.18423 1.623 0
M  V30 25874 S 2392.72 3.68148 2.38774 0
M  V30 25875 H 2389.54 0.649097 0.290162 0
M  V30 25876 H 2392.14 1.95082 0.127721 0
M  V30 25877 H 2390.85 3.99463 0.941122 0
M  V30 25878 H 2390.38 3.11415 2.40384 0
M  V30 25879 H 2392.39 3.37291 3.63936 0
M  V30 25880 N 2391.57 -0.417818 1.51961 0
M  V30 25881 C 2392.98 -0.996972 1.57852 0
M  V30 25882 C 2393.33 -1.91788 0.413747 0
M  V30 25883 O 2392.45 -2.113 -0.467019 0
M  V30 25884 C 2393.05 -1.81491 2.86088 0
M  V30 25885 C 2391.61 -2.34423 2.94487 0
M  V30 25886 C 2390.75 -1.14165 2.52709 0
M  V30 25887 H 2393.7 -0.198364 1.57455 0
M  V30 25888 H 2393.73 -2.67143 2.70952 0
M  V30 25889 H 2393.24 -1.1444 3.70844 0
M  V30 25890 H 2391.34 -3.04872 2.14206 0
M  V30 25891 H 2391.45 -2.65884 3.98551 0
M  V30 25892 H 2389.82 -1.49297 2.06355 0
M  V30 25893 H 2390.6 -0.486939 3.39829 0
M  V30 25894 N 2393.04 -1.42436 -0.674508 0
M  V30 25895 C 2393.99 -1.45937 -1.78804 0
M  V30 25896 C 2394.96 -0.3113 -1.63157 0
M  V30 25897 O 2396.15 -0.515415 -1.83707 0
M  V30 25898 C 2393.29 -1.36779 -3.16837 0
M  V30 25899 C 2392.4 -2.61623 -3.43769 0
M  V30 25900 C 2391.53 -2.44605 -4.71531 0
M  V30 25901 C 2390.57 -3.64822 -4.91499 0
M  V30 25902 N 2389.71 -3.46744 -6.10502 0
M  V30 25903 H 2394.55 -2.41097 -1.75147 0
M  V30 25904 H 2392.09 -1.19699 -0.855019 0
M  V30 25905 H 2394.04 -1.29466 -3.96603 0
M  V30 25906 H 2392.67 -0.452145 -3.19618 0
M  V30 25907 H 2391.73 -2.79301 -2.58254 0
M  V30 25908 H 2393.04 -3.50984 -3.54417 0
M  V30 25909 H 2392.19 -2.3488 -5.59389 0
M  V30 25910 H 2390.93 -1.52734 -4.63167 0
M  V30 25911 H 2389.94 -3.74979 -4.02083 0
M  V30 25912 H 2391.16 -4.57674 -5.01708 0
M  V30 25913 H 2389.11 -2.57591 -6.0331 0
M  V30 25914 H 2389.02 -4.29693 -6.22013 0
M  V30 25915 H 2390.29 -3.40832 -7.01038 0
M  V30 25916 N 2394.52 0.910841 -1.28614 0
M  V30 25917 C 2395.47 2.00024 -1.09427 0
M  V30 25918 C 2396.46 1.60891 -0.0170361 0
M  V30 25919 O 2397.65 1.75399 -0.237503 0
M  V30 25920 C 2394.78 3.34755 -0.761199 0
M  V30 25921 C 2393.86 3.80281 -1.87742 0
M  V30 25922 N 2394.25 3.98151 -3.11945 0
M  V30 25923 C 2392.55 4.09463 -1.76793 0
M  V30 25924 C 2393.25 4.36331 -3.84695 0
M  V30 25925 N 2392.23 4.44753 -3.12563 0
M  V30 25926 H 2396.03 2.11895 -2.03661 0
M  V30 25927 H 2393.54 1.09889 -1.19575 0
M  V30 25928 H 2395.54 4.1249 -0.604815 0
M  V30 25929 H 2394.2 3.24237 0.173346 0
M  V30 25930 H 2395.21 3.8399 -3.47523 0
M  V30 25931 H 2391.89 4.07565 -0.905356 0
M  V30 25932 H 2393.28 4.58095 -4.91526 0
M  V30 25933 N 2396 1.10909 1.11969 0
M  V30 25934 C 2397.41 0.871475 1.65113 0
M  V30 25935 C 2397.76 -0.597321 1.86886 0
M  V30 25936 O 2396.89 -1.45813 1.59899 0
M  V30 25937 C 2397.48 1.57545 2.99942 0
M  V30 25938 C 2396.04 1.38441 3.50016 0
M  V30 25939 C 2395.19 1.62168 2.24938 0
M  V30 25940 H 2398.14 1.26612 0.956829 0
M  V30 25941 H 2398.16 1.01728 3.66649 0
M  V30 25942 H 2397.67 2.64443 2.84062 0
M  V30 25943 H 2395.77 0.337279 3.7107 0
M  V30 25944 H 2395.89 2.12972 4.29162 0
M  V30 25945 H 2394.25 1.04471 2.32288 0
M  V30 25946 H 2395.03 2.70328 2.11607 0
M  V30 25947 N 2397.48 -1.29474 0.898573 0
M  V30 25948 C 2398.43 -2.27752 0.373859 0
M  V30 25949 C 2399.4 -1.56959 -0.543417 0
M  V30 25950 O 2400.58 -1.84949 -0.468902 0
M  V30 25951 C 2397.72 -3.42848 -0.393588 0
M  V30 25952 C 2396.83 -4.28427 0.554454 0
M  V30 25953 C 2395.97 -5.30702 -0.229933 0
M  V30 25954 C 2395.01 -6.07937 0.712706 0
M  V30 25955 N 2394.14 -7.0209 -0.0372049 0
M  V30 25956 H 2398.98 -2.72015 1.21703 0
M  V30 25957 H 2396.52 -1.33788 0.611479 0
M  V30 25958 H 2398.48 -4.08354 -0.854588 0
M  V30 25959 H 2397.11 -2.99617 -1.20122 0
M  V30 25960 H 2396.16 -3.63105 1.13397 0
M  V30 25961 H 2397.47 -4.82202 1.27605 0
M  V30 25962 H 2396.63 -6.02019 -0.752182 0
M  V30 25963 H 2395.37 -4.77656 -0.984674 0
M  V30 25964 H 2394.37 -5.35484 1.24646 0
M  V30 25965 H 2395.6 -6.63071 1.46676 0
M  V30 25966 H 2393.54 -6.51415 -0.774233 0
M  V30 25967 H 2393.46 -7.53416 0.624506 0
M  V30 25968 H 2394.73 -7.77629 -0.539754 0
M  V30 25969 N 2398.96 -0.660936 -1.43071 0
M  V30 25970 C 2400.2 -0.17713 -2.01322 0
M  V30 25971 C 2400.53 1.21587 -1.52452 0
M  V30 25972 O 2399.8 1.81371 -0.740354 0
M  V30 25973 H 2398.38 -0.0624935 -0.744381 0
M  V30 25974 H 2401.04 -0.854336 -1.75177 0
M  V30 25975 H 2400.13 -0.167695 -3.11649 0
M  V30 25976 N 2400.43 1.52351 -0.403352 0
M  V30 25977 C 2401.68 2.00934 0.175632 0
M  V30 25978 C 2402 1.29359 1.46716 0
M  V30 25979 O 2403.2 1.68727 2.12705 0
M  V30 25980 C 2401.66 3.58059 0.363549 0
M  V30 25981 C 2401.27 4.38545 -0.915549 0
M  V30 25982 C 2403.01 4.1489 0.898137 0
M  V30 25983 C 2400.92 5.873 -0.695139 0
M  V30 25984 H 2399.85 0.750798 0.0694102 0
M  V30 25985 H 2402.5 1.75742 -0.52791 0
M  V30 25986 H 2400.88 3.79557 1.12928 0
M  V30 25987 H 2402.05 4.28809 -1.68698 0
M  V30 25988 H 2400.37 3.93004 -1.37612 0
M  V30 25989 H 2402.97 5.237 1.07898 0
M  V30 25990 H 2403.31 3.71876 1.8712 0
M  V30 25991 H 2403.84 3.97338 0.191612 0
M  V30 25992 H 2400.58 6.34663 -1.6396 0
M  V30 25993 H 2400.1 5.99789 0.0371062 0
M  V30 25994 H 2401.78 6.46132 -0.335084 0
M  V30 25995 N 2401.91 0.133594 1.57033 0
M  V30 25996 C 2403.16 -0.520734 1.94862 0
M  V30 25997 C 2403.47 -1.6689 1.02015 0
M  V30 25998 O 2404.68 -2.38696 1.29369 0
M  V30 25999 C 2403.14 -0.977748 3.46364 0
M  V30 26000 C 2402.74 0.142753 4.47773 0
M  V30 26001 C 2404.49 -1.60263 3.93085 0
M  V30 26002 C 2402.4 -0.331779 5.90469 0
M  V30 26003 H 2401.33 -0.198302 0.727456 0
M  V30 26004 H 2403.98 0.215791 1.82227 0
M  V30 26005 H 2402.36 -1.76913 3.54285 0
M  V30 26006 H 2403.53 0.919396 4.51535 0
M  V30 26007 H 2401.85 0.675196 4.10889 0
M  V30 26008 H 2404.44 -1.96905 4.97124 0
M  V30 26009 H 2404.79 -2.48656 3.3388 0
M  V30 26010 H 2405.32 -0.876385 3.88026 0
M  V30 26011 H 2402.06 0.516456 6.53462 0
M  V30 26012 H 2401.58 -1.07459 5.90095 0
M  V30 26013 H 2403.26 -0.788219 6.42181 0
M  V30 26014 N 2403.39 -1.56975 -0.140195 0
M  V30 26015 C 2404.62 -1.88253 -0.870381 0
M  V30 26016 C 2405.04 -0.723342 -1.73636 0
M  V30 26017 O 2404.4 0.326859 -1.78329 0
M  V30 26018 C 2404.45 -3.18157 -1.69731 0
M  V30 26019 O 2403.55 -3.0257 -2.80224 0
M  V30 26020 H 2402.89 -0.618324 -0.242014 0
M  V30 26021 H 2405.42 -2.04193 -0.128963 0
M  V30 26022 H 2405.43 -3.50349 -2.09093 0
M  V30 26023 H 2404.11 -4.02127 -1.06145 0
M  V30 26024 H 2402.68 -2.81801 -2.44219 0
M  V30 26025 N 2404.87 0.409753 -1.5218 0
M  V30 26026 C 2406.28 0.748326 -1.40969 0
M  V30 26027 C 2406.48 1.94842 -0.513691 0
M  V30 26028 O 2405.54 2.52491 0.0207582 0
M  V30 26029 C 2406.85 1.00285 -2.83485 0
M  V30 26030 C 2408.4 1.1056 -2.92823 0
M  V30 26031 C 2408.88 1.39288 -4.36306 0
M  V30 26032 N 2410.37 1.46155 -4.39537 0
M  V30 26033 C 2411.1 1.70009 -5.47617 0
M  V30 26034 N 2410.6 1.91471 -6.65816 0
M  V30 26035 N 2412.39 1.72018 -5.35132 0
M  V30 26036 H 2404.54 -0.380222 -2.08969 0
M  V30 26037 H 2406.81 -0.107822 -0.941848 0
M  V30 26038 H 2406.51 0.193399 -3.51168 0
M  V30 26039 H 2406.39 1.92318 -3.2449 0
M  V30 26040 H 2408.77 1.90564 -2.25321 0
M  V30 26041 H 2408.85 0.163645 -2.55276 0
M  V30 26042 H 2408.5 0.59802 -5.04367 0
M  V30 26043 H 2408.43 2.34735 -4.71389 0
M  V30 26044 H 2410.92 1.31361 -3.54334 0
M  V30 26045 H 2411.23 2.09121 -7.43968 0
M  V30 26046 H 2409.58 1.88737 -6.68882 0
M  V30 26047 H 2412.77 1.54788 -4.41767 0
M  V30 26048 H 2412.94 1.90269 -6.19436 0
M  V30 26049 N 2406.35 1.42792 0.666944 0
M  V30 26050 C 2407.76 1.25891 0.981005 0
M  V30 26051 C 2407.96 0.16873 2.00792 0
M  V30 26052 O 2407.02 -0.457426 2.48322 0
M  V30 26053 C 2408.33 2.61851 1.47833 0
M  V30 26054 C 2409.88 2.6927 1.5957 0
M  V30 26055 C 2410.35 4.05616 2.12697 0
M  V30 26056 N 2411.85 4.0761 2.20019 0
M  V30 26057 C 2412.58 5.09931 2.62218 0
M  V30 26058 N 2412.08 6.22631 3.03813 0
M  V30 26059 N 2413.87 4.97286 2.62036 0
M  V30 26060 H 2406.02 2.12396 -0.0128264 0
M  V30 26061 H 2408.28 0.946296 0.0568091 0
M  V30 26062 H 2407.99 3.42522 0.798239 0
M  V30 26063 H 2407.86 2.86309 2.45574 0
M  V30 26064 H 2410.25 1.8894 2.26684 0
M  V30 26065 H 2410.33 2.48592 0.602976 0
M  V30 26066 H 2409.98 4.86406 1.46189 0
M  V30 26067 H 2409.91 4.2365 3.12775 0
M  V30 26068 H 2412.4 3.26253 1.90702 0
M  V30 26069 H 2412.71 6.96549 3.34722 0
M  V30 26070 H 2411.05 6.26124 3.01651 0
M  V30 26071 H 2414.25 4.08312 2.28908 0
M  V30 26072 H 2414.42 5.7716 2.94603 0
M  V30 26073 N 2407.82 -0.904008 1.29095 0
M  V30 26074 C 2409.1 -1.63409 1.07503 0
M  V30 26075 C 2409.48 -2.07609 -0.38231 0
M  V30 26076 O 2408.83 -1.82854 -1.37028 0
M  V30 26077 C 2409.04 -2.81818 2.05863 0
M  V30 26078 C 2410.39 -3.52607 2.36545 0
M  V30 26079 O 2411.41 -2.91981 2.04024 0
M  V30 26080 O 2410.27 -4.61892 2.92093 0
M  V30 26081 H 2407.36 -0.71732 0.41156 0
M  V30 26082 H 2409.91 -0.952455 1.40451 0
M  V30 26083 H 2408.68 -2.46322 3.04041 0
M  V30 26084 H 2408.31 -3.5769 1.73619 0
M  V30 26085 N 2409.3 -1.11501 -1.11379 0
M  V30 26086 C 2410.55 -0.865544 -1.83402 0
M  V30 26087 C 2410.88 0.607296 -1.8446 0
M  V30 26088 O 2410.16 1.4484 -1.29814 0
M  V30 26089 C 2410.44 -1.42861 -3.30549 0
M  V30 26090 C 2410.29 -2.96912 -3.37881 0
M  V30 26091 C 2411.61 -1.08007 -4.26641 0
M  V30 26092 H 2408.73 -0.315882 -0.665874 0
M  V30 26093 H 2411.37 -1.38 -1.30598 0
M  V30 26094 H 2409.52 -0.991051 -3.75647 0
M  V30 26095 H 2411.19 -3.49276 -3.01337 0
M  V30 26096 H 2409.44 -3.32946 -2.78082 0
M  V30 26097 H 2410.11 -3.31397 -4.41452 0
M  V30 26098 H 2412.58 -1.45782 -3.89727 0
M  V30 26099 H 2411.46 -1.50081 -5.27984 0
M  V30 26100 H 2411.72 0.00907266 -4.42099 0
M  V30 26101 N 2410.78 1.28995 -0.905426 0
M  V30 26102 C 2411.69 2.31297 -0.392286 0
M  V30 26103 C 2412.71 1.66177 0.51586 0
M  V30 26104 O 2413.88 1.97305 0.404059 0
M  V30 26105 C 2410.95 3.44754 0.3668 0
M  V30 26106 C 2410.01 4.25451 -0.57356 0
M  V30 26107 C 2409.24 5.33491 0.149394 0
M  V30 26108 O 2409.47 5.53643 1.37245 0
M  V30 26109 O 2408.4 5.99727 -0.511024 0
M  V30 26110 H 2412.23 2.77181 -1.24115 0
M  V30 26111 H 2409.81 1.33537 -0.669949 0
M  V30 26112 H 2411.69 4.13817 0.795834 0
M  V30 26113 H 2410.37 3.00968 1.19163 0
M  V30 26114 H 2409.27 3.59009 -1.05182 0
M  V30 26115 H 2410.61 4.72895 -1.36497 0
M  V30 26116 N 2412.26 0.668514 1.42719 0
M  V30 26117 C 2413.21 -0.0137083 2.30796 0
M  V30 26118 C 2414.18 -0.799151 1.45612 0
M  V30 26119 O 2415.36 -0.772671 1.74455 0
M  V30 26120 C 2412.5 -0.963448 3.31378 0
M  V30 26121 C 2411.61 -0.172493 4.31655 0
M  V30 26122 C 2410.75 -1.11741 5.19314 0
M  V30 26123 C 2409.79 -0.317779 6.11275 0
M  V30 26124 N 2408.93 -1.21508 6.91506 0
M  V30 26125 H 2413.77 0.743212 2.88583 0
M  V30 26126 H 2411.3 0.378251 1.42154 0
M  V30 26127 H 2413.26 -1.52785 3.88217 0
M  V30 26128 H 2411.89 -1.68707 2.75205 0
M  V30 26129 H 2410.94 0.50844 3.76987 0
M  V30 26130 H 2412.25 0.448615 4.96779 0
M  V30 26131 H 2411.41 -1.75195 5.80854 0
M  V30 26132 H 2410.15 -1.77241 4.54353 0
M  V30 26133 H 2409.15 0.330014 5.48809 0
M  V30 26134 H 2410.38 0.333036 6.78283 0
M  V30 26135 H 2408.32 -1.8566 6.29179 0
M  V30 26136 H 2408.24 -0.648903 7.5321 0
M  V30 26137 H 2409.51 -1.83729 7.57538 0
M  V30 26138 N 2413.74 -1.52135 0.411426 0
M  V30 26139 C 2414.98 -2.01838 -0.16361 0
M  V30 26140 C 2415.31 -1.29694 -1.44948 0
M  V30 26141 O 2414.57 -0.392465 -1.91724 0
M  V30 26142 C 2414.87 -3.54482 -0.45581 0
M  V30 26143 C 2414.53 -4.44767 0.741133 0
M  V30 26144 C 2413.19 -4.69166 1.06944 0
M  V30 26145 C 2415.55 -4.97903 1.54083 0
M  V30 26146 C 2412.87 -5.43947 2.1986 0
M  V30 26147 C 2415.23 -5.73921 2.66077 0
M  V30 26148 C 2413.89 -5.96591 2.99392 0
M  V30 26149 H 2413.16 -0.738577 -0.0598691 0
M  V30 26150 H 2415.81 -1.83332 0.553315 0
M  V30 26151 H 2414.11 -3.71179 -1.25433 0
M  V30 26152 H 2415.81 -3.90451 -0.913734 0
M  V30 26153 H 2412.4 -4.25957 0.475267 0
M  V30 26154 H 2416.58 -4.7896 1.30042 0
M  V30 26155 H 2411.84 -5.5972 2.46016 0
M  V30 26156 H 2416.01 -6.1409 3.2843 0
M  V30 26157 H 2413.64 -6.54318 3.87003 0
M  V30 26158 N 2415.22 -0.14192 -1.5696 0
M  V30 26159 C 2416.15 0.795898 -2.19517 0
M  V30 26160 C 2417.13 1.26075 -1.14189 0
M  V30 26161 O 2418.31 1.31923 -1.42513 0
M  V30 26162 C 2415.44 2.03718 -2.81276 0
M  V30 26163 C 2414.4 1.70929 -3.92387 0
M  V30 26164 C 2413.72 3.02279 -4.41057 0
M  V30 26165 C 2415.02 0.959864 -5.13404 0
M  V30 26166 H 2416.72 0.274543 -2.98139 0
M  V30 26167 H 2414.26 0.130611 -1.43406 0
M  V30 26168 H 2416.21 2.69802 -3.23705 0
M  V30 26169 H 2414.94 2.58218 -1.99978 0
M  V30 26170 H 2413.6 1.07226 -3.50568 0
M  V30 26171 H 2413.25 3.54759 -3.56588 0
M  V30 26172 H 2412.95 2.81105 -5.15998 0
M  V30 26173 H 2414.47 3.69443 -4.86153 0
M  V30 26174 H 2415.88 1.52269 -5.52709 0
M  V30 26175 H 2414.28 0.848253 -5.94075 0
M  V30 26176 H 2415.35 -0.0493287 -4.84875 0
M  V30 26177 N 2416.69 1.57047 0.131868 0
M  V30 26178 C 2417.92 1.88712 0.860385 0
M  V30 26179 C 2418.34 0.732541 1.7325 0
M  V30 26180 O 2417.7 -0.317397 1.785 0
M  V30 26181 C 2417.75 3.19052 1.68042 0
M  V30 26182 O 2416.85 3.04052 2.78615 0
M  V30 26183 H 2416.19 0.619599 0.238732 0
M  V30 26184 H 2418.72 2.04259 0.118133 0
M  V30 26185 H 2418.73 3.51452 2.07232 0
M  V30 26186 H 2417.41 4.02684 1.04011 0
M  V30 26187 H 2415.99 2.83092 2.42721 0
M  V30 26188 N 2418.17 -0.401677 1.52395 0
M  V30 26189 C 2419.12 -1.48988 1.7627 0
M  V30 26190 C 2420.09 -1.54674 0.605413 0
M  V30 26191 O 2421.27 -1.71129 0.843772 0
M  V30 26192 C 2418.41 -2.86357 1.92597 0
M  V30 26193 C 2417.53 -2.89922 3.20264 0
M  V30 26194 C 2416.66 -4.18638 3.2698 0
M  V30 26195 C 2415.7 -4.16206 4.48819 0
M  V30 26196 N 2414.84 -5.36506 4.52886 0
M  V30 26197 H 2419.68 -1.2793 2.69143 0
M  V30 26198 H 2417.21 -0.620847 1.33356 0
M  V30 26199 H 2419.17 -3.66111 2.00046 0
M  V30 26200 H 2417.8 -3.05893 1.03098 0
M  V30 26201 H 2416.85 -2.02615 3.21949 0
M  V30 26202 H 2418.17 -2.83991 4.10061 0
M  V30 26203 H 2417.32 -5.06789 3.33542 0
M  V30 26204 H 2416.06 -4.27274 2.35134 0
M  V30 26205 H 2415.06 -3.26445 4.42395 0
M  V30 26206 H 2416.29 -4.09204 5.41968 0
M  V30 26207 H 2414.24 -5.45796 3.63927 0
M  V30 26208 H 2414.15 -5.326 5.36538 0
M  V30 26209 H 2415.42 -6.26589 4.63688 0
M  V30 26210 N 2419.65 -1.43144 -0.659362 0
M  V30 26211 C 2420.6 -1.47825 -1.77246 0
M  V30 26212 C 2421.57 -0.328587 -1.62817 0
M  V30 26213 O 2422.75 -0.534871 -1.8315 0
M  V30 26214 C 2419.89 -1.40131 -3.15368 0
M  V30 26215 C 2419 -2.65255 -3.40975 0
M  V30 26216 C 2418.14 -2.49593 -4.6891 0
M  V30 26217 C 2417.18 -3.70015 -4.87602 0
M  V30 26218 N 2416.32 -3.532 -6.0679 0
M  V30 26219 H 2421.16 -2.42941 -1.7258 0
M  V30 26220 H 2418.69 -1.20599 -0.842275 0
M  V30 26221 H 2420.65 -1.33666 -3.95208 0
M  V30 26222 H 2419.28 -0.48602 -3.1912 0
M  V30 26223 H 2418.33 -2.82025 -2.55277 0
M  V30 26224 H 2419.64 -3.54724 -3.50674 0
M  V30 26225 H 2418.8 -2.408 -5.56866 0
M  V30 26226 H 2417.54 -1.57638 -4.61521 0
M  V30 26227 H 2416.54 -3.79222 -3.98083 0
M  V30 26228 H 2417.77 -4.6297 -4.96826 0
M  V30 26229 H 2415.71 -2.63975 -6.00544 0
M  V30 26230 H 2415.63 -4.36266 -6.1742 0
M  V30 26231 H 2416.9 -3.48248 -6.97383 0
M  V30 26232 N 2421.13 0.897149 -1.29572 0
M  V30 26233 C 2422.54 1.17839 -1.07639 0
M  V30 26234 C 2422.74 2.00776 0.170678 0
M  V30 26235 O 2421.8 2.37122 0.867727 0
M  V30 26236 C 2423.11 1.89686 -2.33323 0
M  V30 26237 C 2424.66 2.02501 -2.38668 0
M  V30 26238 C 2425.14 2.77759 -3.64162 0
M  V30 26239 N 2426.63 2.85312 -3.64899 0
M  V30 26240 C 2427.36 3.44086 -4.58685 0
M  V30 26241 N 2426.86 4.04007 -5.62806 0
M  V30 26242 N 2428.65 3.41785 -4.46251 0
M  V30 26243 H 2420.8 0.343846 -2.09598 0
M  V30 26244 H 2423.06 0.214832 -0.923337 0
M  V30 26245 H 2422.77 1.36181 -3.24265 0
M  V30 26246 H 2422.64 2.90145 -2.4103 0
M  V30 26247 H 2425.03 2.5518 -1.48213 0
M  V30 26248 H 2425.11 1.01166 -2.34945 0
M  V30 26249 H 2424.76 2.25755 -4.54969 0
M  V30 26250 H 2424.69 3.79444 -3.65144 0
M  V30 26251 H 2427.18 2.42756 -2.89617 0
M  V30 26252 H 2427.49 4.46884 -6.30488 0
M  V30 26253 H 2425.84 4.02462 -5.66612 0
M  V30 26254 H 2429.03 2.94193 -3.64099 0
M  V30 26255 H 2429.2 3.87295 -5.19525 0
M  V30 26256 N 2422.61 1.1209 1.10786 0
M  V30 26257 C 2423.55 0.785445 2.17024 0
M  V30 26258 C 2424.52 -0.246162 1.64266 0
M  V30 26259 O 2425.71 -0.121551 1.90412 0
M  V30 26260 C 2422.85 0.242237 3.44249 0
M  V30 26261 C 2421.96 1.33122 4.10977 0
M  V30 26262 C 2421.1 0.747833 5.2591 0
M  V30 26263 C 2420.13 1.81619 5.84535 0
M  V30 26264 N 2419.27 1.25179 6.90851 0
M  V30 26265 H 2424.11 1.69553 2.45063 0
M  V30 26266 H 2421.65 0.846603 1.20296 0
M  V30 26267 H 2423.61 -0.0907293 4.17101 0
M  V30 26268 H 2422.24 -0.631016 3.16572 0
M  V30 26269 H 2421.29 1.78103 3.3613 0
M  V30 26270 H 2422.6 2.13925 4.50597 0
M  V30 26271 H 2421.75 0.365322 6.05599 0
M  V30 26272 H 2420.49 -0.0914331 4.87614 0
M  V30 26273 H 2419.5 2.20794 5.03518 0
M  V30 26274 H 2420.72 2.65861 6.24896 0
M  V30 26275 H 2418.67 0.434289 6.54561 0
M  V30 26276 H 2418.59 1.99645 7.29162 0
M  V30 26277 H 2419.85 0.896395 7.74329 0
M  V30 26278 N 2424.08 -1.28513 0.912254 0
M  V30 26279 C 2425.33 -1.95038 0.544633 0
M  V30 26280 C 2425.66 -1.71824 -0.911405 0
M  V30 26281 O 2424.91 -1.0314 -1.66315 0
M  V30 26282 C 2425.21 -3.48367 0.798453 0
M  V30 26283 C 2424.88 -3.91678 2.23381 0
M  V30 26284 C 2423.54 -4.03214 2.62624 0
M  V30 26285 C 2425.89 -4.13873 3.16794 0
M  V30 26286 C 2423.22 -4.34323 3.94437 0
M  V30 26287 C 2425.57 -4.46461 4.48169 0
M  V30 26288 C 2424.24 -4.56208 4.87268 0
M  V30 26289 H 2423.51 -0.713696 0.199295 0
M  V30 26290 H 2426.15 -1.52877 1.15329 0
M  V30 26291 H 2424.46 -3.91654 0.106977 0
M  V30 26292 H 2426.16 -3.97955 0.493211 0
M  V30 26293 H 2422.75 -3.83225 1.91929 0
M  V30 26294 H 2426.93 -4.04415 2.87684 0
M  V30 26295 H 2422.19 -4.40075 4.24434 0
M  V30 26296 H 2426.36 -4.62583 5.20567 0
M  V30 26297 H 2423.99 -4.80068 5.89439 0
M  V30 26298 N 2425.56 -0.676073 -1.42362 0
M  V30 26299 C 2426.97 -0.27598 -1.84649 0
M  V30 26300 C 2427.32 1.18212 -1.5659 0
M  V30 26301 O 2426.45 1.90512 -1.02637 0
M  V30 26302 C 2427.04 -0.494112 -3.35178 0
M  V30 26303 C 2425.6 -0.148127 -3.76108 0
M  V30 26304 C 2424.75 -0.785938 -2.65929 0
M  V30 26305 H 2427.7 -0.878144 -1.3219 0
M  V30 26306 H 2427.72 0.253363 -3.79656 0
M  V30 26307 H 2427.23 -1.55541 -3.55568 0
M  V30 26308 H 2425.34 0.909678 -3.61325 0
M  V30 26309 H 2425.45 -0.589538 -4.75459 0
M  V30 26310 H 2423.81 -0.217158 -2.53773 0
M  V30 26311 H 2424.6 -1.85072 -2.89142 0
M  V30 26312 N 2427.04 1.51915 -0.419488 0
M  V30 26313 C 2427.99 2.27292 0.400887 0
M  V30 26314 C 2428.96 1.30133 1.03221 0
M  V30 26315 O 2430.14 1.59011 1.05452 0
M  V30 26316 C 2427.28 3.10507 1.50597 0
M  V30 26317 C 2426.4 4.22637 0.894546 0
M  V30 26318 C 2425.53 4.93192 1.97319 0
M  V30 26319 C 2424.57 5.97269 1.33925 0
M  V30 26320 N 2423.71 6.61302 2.35848 0
M  V30 26321 H 2428.55 2.96964 -0.248304 0
M  V30 26322 H 2426.08 1.46486 -0.134292 0
M  V30 26323 H 2428.04 3.57066 2.15777 0
M  V30 26324 H 2426.67 2.42985 2.12505 0
M  V30 26325 H 2425.72 3.80173 0.131516 0
M  V30 26326 H 2427.04 4.97261 0.391553 0
M  V30 26327 H 2426.19 5.43209 2.70202 0
M  V30 26328 H 2424.93 4.18159 2.50987 0
M  V30 26329 H 2423.93 5.46562 0.5958 0
M  V30 26330 H 2425.16 6.7425 0.810133 0
M  V30 26331 H 2423.1 5.89092 2.88629 0
M  V30 26332 H 2423.02 7.31633 1.9039 0
M  V30 26333 H 2424.29 7.15954 3.08269 0
M  V30 26334 N 2428.52 0.150242 1.56882 0
M  V30 26335 C 2429.47 -0.805274 2.18216 0
M  V30 26336 C 2430.46 -1.25294 1.14008 0
M  V30 26337 O 2431.67 -1.22104 1.32252 0
M  V30 26338 H 2428.04 -0.277901 0.698767 0
M  V30 26339 H 2430.01 -0.26381 2.97232 0
M  V30 26340 C 2428.76 -2.03304 2.82069 0
M  V30 26341 H 2428.08 -1.69756 3.61971 0
M  V30 26342 H 2429.52 -2.68097 3.28481 0
M  V30 26343 C 2427.98 -2.84312 1.80744 0
M  V30 26344 O 2428.51 -3.80764 1.27989 0
M  V30 26345 N 2426.72 -2.4891 1.49974 0
M  V30 26346 H 2426.27 -1.70539 1.93065 0
M  V30 26347 H 2426.22 -3.03403 0.82427 0
M  V30 26348 N 2430 -1.57115 -0.123538 0
M  V30 26349 C 2431.23 -1.8852 -0.8452 0
M  V30 26350 C 2431.63 -0.739095 -1.74167 0
M  V30 26351 O 2430.98 0.299323 -1.81245 0
M  V30 26352 C 2431.04 -3.14891 -1.73446 0
M  V30 26353 C 2430.7 -4.45637 -1.01277 0
M  V30 26354 C 2431.7 -5.18682 -0.355683 0
M  V30 26355 C 2429.39 -4.92341 -0.995293 0
M  V30 26356 C 2431.38 -6.36649 0.309226 0
M  V30 26357 C 2429.07 -6.10227 -0.326583 0
M  V30 26358 C 2430.06 -6.82229 0.324526 0
M  V30 26359 O 2429.75 -7.97873 0.982578 0
M  V30 26360 H 2429.48 -0.628659 -0.248523 0
M  V30 26361 H 2432.04 -2.05084 -0.113871 0
M  V30 26362 H 2430.27 -2.94398 -2.50732 0
M  V30 26363 H 2431.96 -3.32354 -2.33015 0
M  V30 26364 H 2432.72 -4.83656 -0.360833 0
M  V30 26365 H 2428.6 -4.36205 -1.49151 0
M  V30 26366 H 2432.15 -6.92787 0.818022 0
M  V30 26367 H 2428.04 -6.4471 -0.319181 0
M  V30 26368 H 2428.81 -8.13684 0.886597 0
M  V30 26369 N 2431.47 0.393589 -1.52606 0
M  V30 26370 C 2432.41 1.50199 -1.71801 0
M  V30 26371 C 2433.39 1.5244 -0.565769 0
M  V30 26372 O 2434.57 1.70914 -0.795017 0
M  V30 26373 C 2431.7 2.88682 -1.77145 0
M  V30 26374 C 2430.74 3.04287 -2.98851 0
M  V30 26375 S 2431.58 2.75968 -4.58914 0
M  V30 26376 C 2432.73 4.16652 -4.67067 0
M  V30 26377 H 2432.96 1.33691 -2.65545 0
M  V30 26378 H 2430.5 0.58617 -1.42841 0
M  V30 26379 H 2432.46 3.68486 -1.8091 0
M  V30 26380 H 2431.12 3.0252 -0.845022 0
M  V30 26381 H 2430.31 4.05641 -2.99118 0
M  V30 26382 H 2429.91 2.32369 -2.93054 0
M  V30 26383 H 2432.2 5.10515 -4.454 0
M  V30 26384 H 2433.15 4.21402 -5.69057 0
M  V30 26385 H 2433.55 4.02347 -3.95951 0
M  V30 26386 N 2432.95 1.43492 0.651762 0
M  V30 26387 C 2434.18 1.48843 1.44431 0
M  V30 26388 C 2434.6 0.107988 1.8779 0
M  V30 26389 O 2433.96 -0.898574 1.57465 0
M  V30 26390 C 2434.01 2.44063 2.65453 0
M  V30 26391 O 2433.11 1.9279 3.64562 0
M  V30 26392 H 2432.45 0.503399 0.432996 0
M  V30 26393 H 2434.98 1.88421 0.797418 0
M  V30 26394 H 2434.99 2.61416 3.1325 0
M  V30 26395 H 2433.67 3.44344 2.33238 0
M  V30 26396 H 2432.25 1.85106 3.23713 0
M  V30 26397 N 2434.43 -0.890264 1.30046 0
M  V30 26398 C 2435.36 -2.00089 1.1179 0
M  V30 26399 C 2436.38 -1.62679 0.0626593 0
M  V30 26400 O 2437.56 -1.7582 0.308143 0
M  V30 26401 C 2434.66 -3.31975 0.681585 0
M  V30 26402 C 2433.84 -3.97855 1.81742 0
M  V30 26403 C 2432.9 -5.08038 1.37054 0
M  V30 26404 O 2431.92 -5.29957 2.07687 0
M  V30 26405 N 2433.12 -5.79976 0.246627 0
M  V30 26406 H 2435.89 -2.16302 2.07445 0
M  V30 26407 H 2433.45 -1.06303 1.22112 0
M  V30 26408 H 2435.44 -4.03044 0.365746 0
M  V30 26409 H 2434.01 -3.12065 -0.182773 0
M  V30 26410 H 2433.23 -3.20028 2.30165 0
M  V30 26411 H 2434.52 -4.3861 2.57873 0
M  V30 26412 H 2433.92 -5.64665 -0.342051 0
M  V30 26413 H 2432.48 -6.51799 -0.00978981 0
M  V30 26414 N 2435.91 -1.12676 -1.1019 0
M  V30 26415 C 2437.14 -0.905245 -1.85712 0
M  V30 26416 C 2437.55 0.549076 -1.81057 0
M  V30 26417 O 2436.89 1.39149 -1.1993 0
M  V30 26418 C 2436.95 -1.30522 -3.34969 0
M  V30 26419 C 2436.62 -2.77135 -3.6338 0
M  V30 26420 C 2437.61 -3.7532 -3.59766 0
M  V30 26421 C 2435.3 -3.14103 -3.91975 0
M  V30 26422 C 2437.29 -5.08486 -3.84345 0
M  V30 26423 C 2434.98 -4.47451 -4.1621 0
M  V30 26424 C 2435.98 -5.44451 -4.12386 0
M  V30 26425 O 2435.66 -6.75394 -4.36002 0
M  V30 26426 H 2435.4 -0.323234 -0.593714 0
M  V30 26427 H 2437.95 -1.50115 -1.40195 0
M  V30 26428 H 2436.18 -0.65253 -3.81155 0
M  V30 26429 H 2437.87 -1.05743 -3.91884 0
M  V30 26430 H 2438.64 -3.48105 -3.3771 0
M  V30 26431 H 2434.51 -2.39209 -3.94081 0
M  V30 26432 H 2438.06 -5.84188 -3.81275 0
M  V30 26433 H 2433.96 -4.74393 -4.37746 0
M  V30 26434 H 2434.72 -6.81378 -4.53504 0
M  V30 26435 N 2437.39 1.28028 -0.919057 0
M  V30 26436 C 2438.63 1.94747 -0.554969 0
M  V30 26437 C 2438.96 1.72305 0.90228 0
M  V30 26438 O 2438.22 1.04021 1.65766 0
M  V30 26439 C 2438.52 3.47939 -0.816917 0
M  V30 26440 C 2438.18 3.90488 -2.25455 0
M  V30 26441 C 2436.84 4.01816 -2.64759 0
M  V30 26442 C 2439.2 4.12188 -3.18984 0
M  V30 26443 C 2436.52 4.32225 -3.96734 0
M  V30 26444 C 2438.88 4.44078 -4.5053 0
M  V30 26445 C 2437.54 4.53618 -4.89681 0
M  V30 26446 H 2436.81 0.712629 -0.203077 0
M  V30 26447 H 2439.46 1.52263 -1.16139 0
M  V30 26448 H 2437.76 3.91592 -0.127746 0
M  V30 26449 H 2439.46 3.97688 -0.514308 0
M  V30 26450 H 2436.05 3.82202 -1.93958 0
M  V30 26451 H 2440.23 4.02884 -2.89824 0
M  V30 26452 H 2435.49 4.37818 -4.26762 0
M  V30 26453 H 2439.66 4.59816 -5.23013 0
M  V30 26454 H 2437.29 4.76935 -5.91977 0
M  V30 26455 N 2438.86 0.683613 1.42002 0
M  V30 26456 C 2439.81 0.0107714 2.30797 0
M  V30 26457 C 2440.78 -0.783662 1.46451 0
M  V30 26458 O 2441.97 -0.754125 1.75264 0
M  V30 26459 C 2439.11 -0.928247 3.32382 0
M  V30 26460 C 2438.22 -0.1267 4.31814 0
M  V30 26461 C 2437.35 -1.06227 5.2047 0
M  V30 26462 C 2436.39 -0.252927 6.11577 0
M  V30 26463 N 2435.53 -1.14167 6.92756 0
M  V30 26464 H 2440.37 0.773778 2.87779 0
M  V30 26465 H 2437.91 0.393307 1.41744 0
M  V30 26466 H 2439.87 -1.48659 3.89816 0
M  V30 26467 H 2438.5 -1.65778 2.76979 0
M  V30 26468 H 2437.55 0.548396 3.76426 0
M  V30 26469 H 2438.86 0.501279 4.96275 0
M  V30 26470 H 2438.01 -1.69025 5.8268 0
M  V30 26471 H 2436.75 -1.72412 4.56207 0
M  V30 26472 H 2435.76 0.388204 5.48428 0
M  V30 26473 H 2436.98 0.404958 6.77892 0
M  V30 26474 H 2434.93 -1.78976 6.31113 0
M  V30 26475 H 2434.85 -0.568979 7.53856 0
M  V30 26476 H 2436.11 -1.75684 7.59444 0
M  V30 26477 N 2440.34 -1.5169 0.427538 0
M  V30 26478 C 2441.27 -2.30394 -0.379559 0
M  V30 26479 C 2442.25 -1.35385 -1.0298 0
M  V30 26480 O 2443.44 -1.64302 -1.03531 0
M  V30 26481 C 2440.57 -3.13883 -1.48644 0
M  V30 26482 C 2439.52 -4.1709 -0.960221 0
M  V30 26483 C 2438.85 -4.89037 -2.1621 0
M  V30 26484 C 2440.15 -5.223 -0.00144499 0
M  V30 26485 H 2441.84 -2.98114 0.277216 0
M  V30 26486 H 2439.39 -1.43368 0.134764 0
M  V30 26487 H 2441.34 -3.67718 -2.0582 0
M  V30 26488 H 2440.07 -2.43966 -2.17136 0
M  V30 26489 H 2438.73 -3.64292 -0.410742 0
M  V30 26490 H 2438.37 -4.15633 -2.83299 0
M  V30 26491 H 2438.07 -5.58819 -1.81644 0
M  V30 26492 H 2439.6 -5.45692 -2.73958 0
M  V30 26493 H 2441.01 -5.71265 -0.482586 0
M  V30 26494 H 2439.41 -5.99552 0.256305 0
M  V30 26495 H 2440.48 -4.75736 0.938258 0
M  V30 26496 N 2441.82 -0.15856 -1.568 0
M  V30 26497 C 2442.75 0.77257 -2.20349 0
M  V30 26498 C 2443.73 1.24857 -1.1552 0
M  V30 26499 O 2444.92 1.30404 -1.43905 0
M  V30 26500 C 2442.05 2.00724 -2.83421 0
M  V30 26501 C 2441 1.66758 -3.94177 0
M  V30 26502 C 2440.33 2.97584 -4.44238 0
M  V30 26503 C 2441.63 0.905357 -5.14393 0
M  V30 26504 H 2443.32 0.242906 -2.98413 0
M  V30 26505 H 2440.87 0.115393 -1.43537 0
M  V30 26506 H 2442.82 2.66354 -3.26548 0
M  V30 26507 H 2441.54 2.56082 -2.02705 0
M  V30 26508 H 2440.2 1.03502 -3.51686 0
M  V30 26509 H 2439.85 3.50957 -3.60331 0
M  V30 26510 H 2439.55 2.75617 -5.1895 0
M  V30 26511 H 2441.08 3.64266 -4.90044 0
M  V30 26512 H 2442.49 1.46398 -5.54293 0
M  V30 26513 H 2440.89 0.785195 -5.94941 0
M  V30 26514 H 2441.96 -0.100753 -4.84795 0
M  V30 26515 N 2443.3 1.57178 0.115204 0
M  V30 26516 C 2444.21 2.0392 1.1599 0
M  V30 26517 C 2445.23 0.960293 1.45101 0
M  V30 26518 O 2446.4 1.27207 1.56142 0
M  V30 26519 C 2443.47 2.43736 2.46563 0
M  V30 26520 C 2442.53 3.65727 2.24815 0
M  V30 26521 C 2441.76 4.03635 3.49163 0
M  V30 26522 O 2441.98 3.41843 4.56617 0
M  V30 26523 O 2440.92 4.96714 3.3994 0
M  V30 26524 H 2444.74 2.93165 0.792968 0
M  V30 26525 H 2442.33 1.45794 0.326274 0
M  V30 26526 H 2444.21 2.70063 3.23487 0
M  V30 26527 H 2442.89 1.57636 2.82723 0
M  V30 26528 H 2441.79 3.44545 1.45738 0
M  V30 26529 H 2443.13 4.52544 1.93558 0
M  V30 26530 N 2444.78 -0.38549 1.52813 0
M  V30 26531 C 2445.72 -1.4711 1.77841 0
M  V30 26532 C 2446.69 -1.54023 0.621784 0
M  V30 26533 O 2447.88 -1.70224 0.861876 0
M  V30 26534 C 2445.02 -2.84298 1.95623 0
M  V30 26535 C 2444.13 -2.86509 3.23321 0
M  V30 26536 C 2443.27 -4.15146 3.31401 0
M  V30 26537 C 2442.31 -4.11423 4.53208 0
M  V30 26538 N 2441.44 -5.31672 4.58551 0
M  V30 26539 H 2446.28 -1.25069 2.70484 0
M  V30 26540 H 2443.82 -0.606668 1.34007 0
M  V30 26541 H 2445.78 -3.63969 2.03918 0
M  V30 26542 H 2444.41 -3.04782 1.06337 0
M  V30 26543 H 2443.46 -1.99189 3.2408 0
M  V30 26544 H 2444.77 -2.79626 4.1305 0
M  V30 26545 H 2443.93 -5.03222 3.38898 0
M  V30 26546 H 2442.67 -4.24756 2.39652 0
M  V30 26547 H 2441.67 -3.21734 4.45833 0
M  V30 26548 H 2442.9 -4.03432 5.46278 0
M  V30 26549 H 2440.84 -5.41905 3.69695 0
M  V30 26550 H 2440.76 -5.26879 5.42157 0
M  V30 26551 H 2442.03 -6.21636 4.70307 0
M  V30 26552 N 2446.26 -1.43835 -0.644143 0
M  V30 26553 C 2447.5 -1.45932 -1.40392 0
M  V30 26554 C 2447.83 -0.0869999 -1.94305 0
M  V30 26555 O 2447.09 0.909347 -1.7329 0
M  V30 26556 C 2447.38 -2.45636 -2.59611 0
M  V30 26557 C 2447.05 -3.91288 -2.24063 0
M  V30 26558 C 2445.71 -4.30956 -2.14081 0
M  V30 26559 C 2448.06 -4.83037 -1.95766 0
M  V30 26560 C 2445.39 -5.60313 -1.73971 0
M  V30 26561 C 2447.74 -6.12769 -1.57152 0
M  V30 26562 C 2446.41 -6.51404 -1.45702 0
M  V30 26563 H 2445.68 -0.534005 -0.513732 0
M  V30 26564 H 2448.33 -1.7697 -0.731693 0
M  V30 26565 H 2446.63 -2.08034 -3.32008 0
M  V30 26566 H 2448.33 -2.4451 -3.1783 0
M  V30 26567 H 2444.92 -3.59899 -2.32746 0
M  V30 26568 H 2449.1 -4.53156 -2.02395 0
M  V30 26569 H 2444.36 -5.89078 -1.63699 0
M  V30 26570 H 2448.53 -6.83329 -1.34291 0
M  V30 26571 H 2446.16 -7.51544 -1.14393 0
M  V30 26572 N 2447.73 0.883355 -1.30517 0
M  V30 26573 C 2448.67 1.99494 -1.12849 0
M  V30 26574 C 2449.68 1.62644 -0.0712857 0
M  V30 26575 O 2450.87 1.75654 -0.317462 0
M  V30 26576 C 2447.97 3.31609 -0.699181 0
M  V30 26577 C 2447.14 3.96886 -1.83849 0
M  V30 26578 C 2446.2 5.07304 -1.39746 0
M  V30 26579 O 2445.23 5.28849 -2.10494 0
M  V30 26580 N 2446.43 5.79837 -0.277381 0
M  V30 26581 H 2449.19 2.15199 -2.08589 0
M  V30 26582 H 2446.75 1.05654 -1.22674 0
M  V30 26583 H 2448.75 4.02844 -0.387115 0
M  V30 26584 H 2447.32 3.12158 0.166221 0
M  V30 26585 H 2446.54 3.18803 -2.31859 0
M  V30 26586 H 2447.82 4.37237 -2.60195 0
M  V30 26587 H 2447.22 5.64838 0.3121 0
M  V30 26588 H 2445.78 6.51795 -0.0247768 0
M  V30 26589 N 2449.21 1.13259 1.09591 0
M  V30 26590 C 2450.46 0.887949 1.81103 0
M  V30 26591 C 2450.77 -0.587639 1.86564 0
M  V30 26592 O 2451.98 -0.94916 2.54368 0
M  V30 26593 C 2450.44 1.539 3.25335 0
M  V30 26594 C 2450.04 3.05 3.28145 0
M  V30 26595 C 2451.79 1.37499 4.01615 0
M  V30 26596 C 2449.69 3.62998 4.6689 0
M  V30 26597 H 2448.62 0.328546 0.678656 0
M  V30 26598 H 2451.28 1.3601 1.2318 0
M  V30 26599 H 2449.66 0.994514 3.83309 0
M  V30 26600 H 2450.83 3.66014 2.79947 0
M  V30 26601 H 2449.15 3.20898 2.65355 0
M  V30 26602 H 2451.74 1.78244 5.04116 0
M  V30 26603 H 2452.09 0.319643 4.15071 0
M  V30 26604 H 2452.62 1.88918 3.50078 0
M  V30 26605 H 2449.36 4.68331 4.58635 0
M  V30 26606 H 2448.88 3.06761 5.1542 0
M  V30 26607 H 2450.56 3.62573 5.35864 0
M  V30 26608 N 2450.69 -1.27539 0.925834 0
M  V30 26609 C 2451.65 -2.25165 0.428168 0
M  V30 26610 C 2452.65 -1.5431 -0.452234 0
M  V30 26611 O 2453.84 -1.72344 -0.253578 0
M  V30 26612 C 2450.97 -3.38723 -0.384689 0
M  V30 26613 H 2452.17 -2.70704 1.29071 0
M  V30 26614 H 2449.72 -1.39429 0.706347 0
M  V30 26615 H 2450.46 -2.98563 -1.26613 0
M  V30 26616 H 2450.24 -3.91324 0.246523 0
M  V30 26617 H 2451.73 -4.11288 -0.723317 0
M  V30 26618 N 2452.17 -0.691135 -1.41637 0
M  V30 26619 C 2453.1 -0.037289 -2.3347 0
M  V30 26620 C 2454.08 0.771921 -1.51576 0
M  V30 26621 O 2455.26 0.725788 -1.80128 0
M  V30 26622 C 2452.39 0.903005 -3.35355 0
M  V30 26623 C 2451.35 0.201213 -4.27527 0
M  V30 26624 C 2450.67 1.25556 -5.1975 0
M  V30 26625 C 2451.97 -0.92978 -5.13958 0
M  V30 26626 H 2453.67 -0.804278 -2.88395 0
M  V30 26627 H 2451.21 -0.388214 -1.38668 0
M  V30 26628 H 2453.17 1.36962 -3.98521 0
M  V30 26629 H 2451.89 1.70161 -2.7877 0
M  V30 26630 H 2450.55 -0.24533 -3.65778 0
M  V30 26631 H 2450.2 2.04658 -4.59483 0
M  V30 26632 H 2449.9 0.791026 -5.82251 0
M  V30 26633 H 2451.42 1.72278 -5.85792 0
M  V30 26634 H 2452.84 -0.543647 -5.70717 0
M  V30 26635 H 2451.23 -1.32113 -5.85377 0
M  V30 26636 H 2452.3 -1.77141 -4.51386 0
M  V30 26637 N 2453.65 1.51461 -0.435577 0
M  V30 26638 C 2455.06 1.86679 0.0279543 0
M  V30 26639 C 2455.41 1.35283 1.42102 0
M  V30 26640 O 2454.53 0.702914 2.04666 0
M  V30 26641 C 2455.13 3.38751 0.0575031 0
M  V30 26642 C 2453.69 3.73511 0.465441 0
M  V30 26643 C 2452.83 2.7517 -0.343045 0
M  V30 26644 H 2455.78 1.44711 -0.651499 0
M  V30 26645 H 2455.81 3.70482 0.867356 0
M  V30 26646 H 2455.32 3.76128 -0.956514 0
M  V30 26647 H 2453.42 3.41723 1.48513 0
M  V30 26648 H 2453.53 4.78717 0.191462 0
M  V30 26649 H 2451.9 2.53926 0.198397 0
M  V30 26650 H 2452.68 3.15389 -1.3559 0
M  V30 26651 N 2455.12 0.166873 1.56714 0
M  V30 26652 C 2456.37 -0.479284 1.95923 0
M  V30 26653 C 2456.69 -1.64689 1.05532 0
M  V30 26654 O 2457.89 -2.35898 1.34403 0
M  V30 26655 C 2456.35 -0.904059 3.4836 0
M  V30 26656 C 2455.96 0.2377 4.47369 0
M  V30 26657 C 2457.7 -1.51889 3.96396 0
M  V30 26658 C 2455.61 -0.206458 5.9104 0
M  V30 26659 H 2454.54 -0.182827 0.731499 0
M  V30 26660 H 2457.19 0.254395 1.81728 0
M  V30 26661 H 2455.57 -1.69359 3.57958 0
M  V30 26662 H 2456.74 1.01497 4.49483 0
M  V30 26663 H 2455.06 0.7622 4.09365 0
M  V30 26664 H 2457.66 -1.86316 5.01189 0
M  V30 26665 H 2458 -2.41518 3.39079 0
M  V30 26666 H 2458.53 -0.793882 3.89798 0
M  V30 26667 H 2455.27 0.654949 6.5222 0
M  V30 26668 H 2454.79 -0.949178 5.92242 0
M  V30 26669 H 2456.47 -0.651826 6.43708 0
M  V30 26670 N 2456.6 -1.57237 -0.106866 0
M  V30 26671 C 2457.85 -1.85119 -0.810889 0
M  V30 26672 C 2458.17 -0.753858 -1.79839 0
M  V30 26673 O 2457.44 0.221022 -1.94649 0
M  V30 26674 H 2456.02 -0.68303 -0.302454 0
M  V30 26675 H 2458.68 -1.94686 -0.0912982 0
M  V30 26676 H 2457.78 -2.81454 -1.3487 0
M  V30 26677 N 2458.08 0.377381 -1.53015 0
M  V30 26678 C 2458.99 1.48571 -1.81559 0
M  V30 26679 C 2460.01 1.59161 -0.70313 0
M  V30 26680 O 2461.18 1.75278 -0.991951 0
M  V30 26681 C 2458.25 2.83975 -1.98895 0
M  V30 26682 C 2457.31 2.83011 -3.22806 0
M  V30 26683 C 2456.54 4.11956 -3.39305 0
M  V30 26684 O 2456.76 5.07515 -2.60354 0
M  V30 26685 O 2455.7 4.18487 -4.32611 0
M  V30 26686 H 2459.52 1.27377 -2.75697 0
M  V30 26687 H 2457.11 0.566349 -1.38249 0
M  V30 26688 H 2458.99 3.64226 -2.11937 0
M  V30 26689 H 2457.67 3.05171 -1.07947 0
M  V30 26690 H 2456.57 2.015 -3.15196 0
M  V30 26691 H 2457.91 2.66768 -4.13637 0
M  V30 26692 N 2459.56 1.44175 0.636506 0
M  V30 26693 C 2460.47 1.53107 1.77751 0
M  V30 26694 C 2461.48 0.417063 1.68928 0
M  V30 26695 O 2462.66 0.673633 1.898 0
M  V30 26696 C 2459.73 1.46747 3.14112 0
M  V30 26697 C 2458.79 2.68954 3.34607 0
M  V30 26698 C 2458.02 2.62888 4.64463 0
M  V30 26699 O 2458.24 1.68591 5.44916 0
M  V30 26700 O 2457.18 3.53656 4.87043 0
M  V30 26701 H 2461 2.49492 1.73169 0
M  V30 26702 H 2458.59 1.26361 0.797068 0
M  V30 26703 H 2460.47 1.45703 3.95409 0
M  V30 26704 H 2459.14 0.535032 3.19248 0
M  V30 26705 H 2458.05 2.75567 2.53009 0
M  V30 26706 H 2459.38 3.61226 3.3433 0
M  V30 26707 N 2461.04 -0.876421 1.30983 0
M  V30 26708 C 2462.27 -1.65947 1.23066 0
M  V30 26709 C 2462.67 -1.88059 -0.207504 0
M  V30 26710 O 2462.02 -1.43428 -1.14779 0
M  V30 26711 C 2462.08 -3.0533 1.89773 0
M  V30 26712 C 2461.74 -3.06354 3.39111 0
M  V30 26713 C 2462.74 -2.84784 4.34965 0
M  V30 26714 C 2460.43 -3.2768 3.80699 0
M  V30 26715 C 2462.42 -2.84509 5.7038 0
M  V30 26716 C 2460.11 -3.27033 5.16229 0
M  V30 26717 C 2461.1 -3.05474 6.1088 0
M  V30 26718 O 2460.79 -3.0466 7.43934 0
M  V30 26719 H 2460.52 -0.524317 0.426694 0
M  V30 26720 H 2463.08 -1.10268 1.73292 0
M  V30 26721 H 2461.31 -3.62708 1.34088 0
M  V30 26722 H 2463 -3.65825 1.75859 0
M  V30 26723 H 2463.76 -2.68096 4.04165 0
M  V30 26724 H 2459.64 -3.43493 3.07463 0
M  V30 26725 H 2463.19 -2.676 6.44233 0
M  V30 26726 H 2459.08 -3.43259 5.46666 0
M  V30 26727 H 2459.85 -3.20767 7.53028 0
M  V30 26728 N 2462.51 -1.13839 -1.08989 0
M  V30 26729 C 2463.44 -0.842545 -2.17769 0
M  V30 26730 C 2464.43 0.199981 -1.6892 0
M  V30 26731 O 2465.61 0.0579389 -1.94114 0
M  V30 26732 C 2462.74 -0.312705 -3.45889 0
M  V30 26733 C 2461.69 -1.28999 -4.08097 0
M  V30 26734 C 2461.02 -0.619716 -5.31097 0
M  V30 26735 C 2462.32 -2.65013 -4.50073 0
M  V30 26736 H 2464.01 -1.75217 -2.42774 0
M  V30 26737 H 2461.56 -0.843895 -1.16681 0
M  V30 26738 H 2463.51 -0.0933784 -4.21297 0
M  V30 26739 H 2462.24 0.632326 -3.2042 0
M  V30 26740 H 2460.9 -1.49539 -3.34714 0
M  V30 26741 H 2460.54 0.330931 -5.0191 0
M  V30 26742 H 2460.24 -1.27177 -5.73672 0
M  V30 26743 H 2461.77 -0.409776 -6.09223 0
M  V30 26744 H 2463.18 -2.48416 -5.16684 0
M  V30 26745 H 2461.58 -3.26436 -5.03547 0
M  V30 26746 H 2462.65 -3.22338 -3.62252 0
M  V30 26747 N 2463.99 1.27046 -0.932584 0
M  V30 26748 C 2464.92 2.29065 -0.452942 0
M  V30 26749 C 2465.9 1.6291 0.48931 0
M  V30 26750 O 2467.09 1.90182 0.393013 0
M  V30 26751 C 2464.22 3.46082 0.290637 0
M  V30 26752 C 2463.17 4.24264 -0.564242 0
M  V30 26753 C 2462.5 5.33808 0.308793 0
M  V30 26754 C 2463.8 4.89146 -1.83121 0
M  V30 26755 H 2465.49 2.69435 -1.30557 0
M  V30 26756 H 2463.04 1.29525 -0.629224 0
M  V30 26757 H 2464.99 4.16555 0.63716 0
M  V30 26758 H 2463.72 3.04642 1.17733 0
M  V30 26759 H 2462.37 3.55544 -0.89354 0
M  V30 26760 H 2462.02 4.88609 1.19458 0
M  V30 26761 H 2461.72 5.87026 -0.259736 0
M  V30 26762 H 2463.25 6.07122 0.650777 0
M  V30 26763 H 2464.66 5.5188 -1.55246 0
M  V30 26764 H 2463.06 5.52444 -2.34363 0
M  V30 26765 H 2464.13 4.12572 -2.5478 0
M  V30 26766 N 2465.47 0.698636 1.41269 0
M  V30 26767 C 2466.72 0.231243 2.01477 0
M  V30 26768 C 2467.05 -1.1671 1.55217 0
M  V30 26769 O 2466.32 -1.78837 0.764703 0
M  V30 26770 C 2466.61 0.292344 3.58911 0
M  V30 26771 C 2466.46 1.72785 4.15289 0
M  V30 26772 C 2467.78 -0.346117 4.38737 0
M  V30 26773 H 2464.9 0.0855006 0.732024 0
M  V30 26774 H 2467.54 0.887936 1.67975 0
M  V30 26775 H 2465.69 -0.266792 3.87583 0
M  V30 26776 H 2467.36 2.34107 3.97482 0
M  V30 26777 H 2465.61 2.26103 3.70216 0
M  V30 26778 H 2466.28 1.72211 5.24449 0
M  V30 26779 H 2468.75 0.130108 4.15897 0
M  V30 26780 H 2467.63 -0.272836 5.48222 0
M  V30 26781 H 2467.89 -1.42727 4.18427 0
M  V30 26782 N 2466.95 -1.51228 0.443603 0
M  V30 26783 C 2468.36 -1.86691 -0.0180538 0
M  V30 26784 C 2468.71 -1.36035 -1.41382 0
M  V30 26785 O 2467.84 -0.713758 -2.0429 0
M  V30 26786 C 2468.43 -3.38777 -0.0395375 0
M  V30 26787 C 2466.99 -3.73753 -0.445627 0
M  V30 26788 C 2466.14 -2.74984 0.357633 0
M  V30 26789 H 2469.09 -1.44363 0.659164 0
M  V30 26790 H 2469.11 -3.70937 -0.847696 0
M  V30 26791 H 2468.62 -3.75616 0.976448 0
M  V30 26792 H 2466.72 -3.42506 -1.46698 0
M  V30 26793 H 2466.83 -4.78812 -0.166071 0
M  V30 26794 H 2465.2 -2.54028 -0.184928 0
M  V30 26795 H 2465.98 -3.14665 1.37261 0
M  V30 26796 N 2468.43 -0.175182 -1.56623 0
M  V30 26797 C 2469.65 0.478102 -2.01814 0
M  V30 26798 C 2470.08 1.55755 -1.0546 0
M  V30 26799 O 2469.43 1.81267 -0.0347758 0
M  V30 26800 C 2469.48 1.02981 -3.45583 0
M  V30 26801 O 2468.59 2.14364 -3.52309 0
M  V30 26802 H 2467.93 0.114047 -0.654132 0
M  V30 26803 H 2470.46 -0.280209 -2.02672 0
M  V30 26804 H 2470.47 1.35145 -3.84967 0
M  V30 26805 H 2469.14 0.239483 -4.1521 0
M  V30 26806 H 2467.72 1.83216 -3.24786 0
M  V30 26807 N 2469.91 1.57292 0.0985263 0
M  V30 26808 C 2471.13 1.90494 0.820163 0
M  V30 26809 C 2471.56 0.769125 1.71657 0
M  V30 26810 O 2470.91 -0.279463 1.79133 0
M  V30 26811 C 2470.96 3.22545 1.61236 0
M  V30 26812 O 2470.07 3.09893 2.72103 0
M  V30 26813 H 2469.41 0.624524 0.225536 0
M  V30 26814 H 2471.94 2.04463 0.0747799 0
M  V30 26815 H 2471.95 3.55769 1.99731 0
M  V30 26816 H 2470.62 4.048 0.954464 0
M  V30 26817 H 2469.2 2.88177 2.36662 0
M  V30 26818 N 2471.38 -0.369261 1.53213 0
M  V30 26819 C 2472.31 -1.45823 1.82368 0
M  V30 26820 C 2473.29 -1.5605 0.676935 0
M  V30 26821 O 2474.48 -1.70678 0.926431 0
M  V30 26822 C 2471.61 -2.83205 2.01028 0
M  V30 26823 C 2470.56 -2.87805 3.16785 0
M  V30 26824 C 2469.89 -4.27826 3.20732 0
M  V30 26825 C 2471.19 -2.55659 4.55451 0
M  V30 26826 H 2472.88 -1.21674 2.73562 0
M  V30 26827 H 2470.43 -0.583888 1.31631 0
M  V30 26828 H 2472.38 -3.59409 2.20007 0
M  V30 26829 H 2471.11 -3.08734 1.06541 0
M  V30 26830 H 2469.77 -2.14051 2.9762 0
M  V30 26831 H 2469.41 -4.50425 2.23889 0
M  V30 26832 H 2469.11 -4.3182 3.98504 0
M  V30 26833 H 2470.64 -5.05909 3.4189 0
M  V30 26834 H 2472.05 -3.21578 4.74616 0
M  V30 26835 H 2470.45 -2.70975 5.35437 0
M  V30 26836 H 2471.52 -1.50922 4.60815 0
M  V30 26837 N 2472.86 -1.4451 -0.628851 0
M  V30 26838 C 2474.09 -1.51122 -1.42045 0
M  V30 26839 C 2474.51 -0.13785 -1.87594 0
M  V30 26840 O 2473.87 0.873409 -1.58875 0
M  V30 26841 C 2473.92 -2.48256 -2.61537 0
M  V30 26842 O 2473.02 -1.98566 -3.61449 0
M  V30 26843 H 2472.36 -0.510224 -0.424933 0
M  V30 26844 H 2474.89 -1.89666 -0.767341 0
M  V30 26845 H 2474.9 -2.66366 -3.09052 0
M  V30 26846 H 2473.58 -3.48011 -2.2773 0
M  V30 26847 H 2472.15 -1.90232 -3.20727 0
M  V30 26848 N 2474.34 0.869463 -1.31446 0
M  V30 26849 C 2475.62 1.60501 -1.11797 0
M  V30 26850 C 2476 2.0855 0.327131 0
M  V30 26851 O 2475.34 1.86423 1.32132 0
M  V30 26852 C 2475.55 2.76261 -2.13262 0
M  V30 26853 C 2476.9 3.46211 -2.45811 0
M  V30 26854 O 2477.93 2.86469 -2.11693 0
M  V30 26855 O 2476.79 4.53985 -3.04236 0
M  V30 26856 H 2473.88 0.706156 -0.430433 0
M  V30 26857 H 2476.43 0.914882 -1.42927 0
M  V30 26858 H 2475.2 2.38174 -3.10465 0
M  V30 26859 H 2474.82 3.52961 -1.83042 0
M  V30 26860 N 2475.82 1.14415 1.08383 0
M  V30 26861 C 2476.77 0.799907 2.13508 0
M  V30 26862 C 2477.75 -0.211031 1.5951 0
M  V30 26863 O 2478.94 -0.0133383 1.76995 0
M  V30 26864 C 2476.07 0.279357 3.42161 0
M  V30 26865 C 2475.16 1.31983 4.0304 0
M  V30 26866 N 2475.55 2.52403 4.38322 0
M  V30 26867 C 2473.85 1.17011 4.30377 0
M  V30 26868 C 2474.55 3.19011 4.86422 0
M  V30 26869 N 2473.52 2.46414 4.84542 0
M  V30 26870 H 2477.33 1.71594 2.38606 0
M  V30 26871 H 2474.84 1.02804 1.25718 0
M  V30 26872 H 2476.84 0.0144421 4.16897 0
M  V30 26873 H 2475.5 -0.630867 3.18512 0
M  V30 26874 H 2476.51 2.89628 4.29343 0
M  V30 26875 H 2473.19 0.318927 4.1628 0
M  V30 26876 H 2474.58 4.21683 5.23099 0
M  V30 26877 N 2477.3 -1.26549 0.939309 0
M  V30 26878 C 2478.71 -1.46148 0.64133 0
M  V30 26879 C 2478.91 -1.84681 -0.805931 0
M  V30 26880 O 2477.97 -1.96737 -1.58275 0
M  V30 26881 C 2479.28 -2.54526 1.60115 0
M  V30 26882 C 2480.83 -2.68379 1.61064 0
M  V30 26883 C 2481.3 -3.79927 2.55772 0
M  V30 26884 N 2482.79 -3.87317 2.54046 0
M  V30 26885 C 2483.53 -4.73079 3.24012 0
M  V30 26886 N 2483.03 -5.63242 4.03398 0
M  V30 26887 N 2484.82 -4.66909 3.12974 0
M  V30 26888 H 2476.97 -0.998252 1.8748 0
M  V30 26889 H 2479.23 -0.499764 0.805568 0
M  V30 26890 H 2478.94 -2.33034 2.63416 0
M  V30 26891 H 2478.81 -3.52146 1.35177 0
M  V30 26892 H 2481.2 -2.89246 0.584886 0
M  V30 26893 H 2481.28 -1.71209 1.90056 0
M  V30 26894 H 2480.92 -3.59813 3.58465 0
M  V30 26895 H 2480.85 -4.7655 2.24071 0
M  V30 26896 H 2483.35 -3.22854 1.96401 0
M  V30 26897 H 2483.66 -6.25571 4.53741 0
M  V30 26898 H 2482 -5.63 4.07499 0
M  V30 26899 H 2485.19 -3.95472 2.50439 0
M  V30 26900 H 2485.37 -5.33526 3.67769 0
M  V30 26901 N 2478.77 -0.706118 -1.40896 0
M  V30 26902 C 2480.18 -0.315085 -1.84022 0
M  V30 26903 C 2480.54 1.14863 -1.59062 0
M  V30 26904 O 2479.66 1.88292 -1.06655 0
M  V30 26905 C 2480.26 -0.565097 -3.34054 0
M  V30 26906 C 2478.81 -0.227872 -3.7571 0
M  V30 26907 C 2477.96 -0.842168 -2.64202 0
M  V30 26908 H 2480.91 -0.905986 -1.30298 0
M  V30 26909 H 2480.93 0.172776 -3.80108 0
M  V30 26910 H 2480.45 -1.63048 -3.52189 0
M  V30 26911 H 2478.55 0.832831 -3.63173 0
M  V30 26912 H 2478.66 -0.690257 -4.74102 0
M  V30 26913 H 2477.02 -0.270938 -2.53255 0
M  V30 26914 H 2477.81 -1.91163 -2.85152 0
M  V30 26915 N 2480.25 1.50991 -0.451617 0
M  V30 26916 C 2481.5 2.025 0.110202 0
M  V30 26917 C 2481.83 1.33426 1.41107 0
M  V30 26918 O 2481.11 0.453692 1.89135 0
M  V30 26919 C 2481.39 3.58727 0.314208 0
M  V30 26920 C 2481.24 4.38399 -1.00631 0
M  V30 26921 C 2482.56 4.26704 1.07759 0
M  V30 26922 H 2479.68 0.73599 0.0385767 0
M  V30 26923 H 2482.32 1.80496 -0.593406 0
M  V30 26924 H 2480.47 3.77607 0.913535 0
M  V30 26925 H 2482.14 4.31136 -1.64072 0
M  V30 26926 H 2480.39 4.02914 -1.60757 0
M  V30 26927 H 2481.06 5.45914 -0.817437 0
M  V30 26928 H 2483.53 4.1218 0.569788 0
M  V30 26929 H 2482.41 5.35865 1.18911 0
M  V30 26930 H 2482.67 3.88536 2.10932 0
M  V30 26931 N 2481.73 0.183486 1.56528 0
M  V30 26932 C 2482.98 -0.458477 1.9642 0
M  V30 26933 C 2483.29 -1.6356 1.07273 0
M  V30 26934 O 2484.5 -2.3446 1.36897 0
M  V30 26935 C 2482.95 -0.86706 3.49299 0
M  V30 26936 C 2482.56 0.285136 4.47092 0
M  V30 26937 C 2484.31 -1.47676 3.97985 0
M  V30 26938 C 2482.21 -0.143758 5.91225 0
M  V30 26939 H 2481.14 -0.175058 0.733397 0
M  V30 26940 H 2483.79 0.273656 1.81448 0
M  V30 26941 H 2482.18 -1.65552 3.59734 0
M  V30 26942 H 2483.35 1.06258 4.48381 0
M  V30 26943 H 2481.66 0.805575 4.08533 0
M  V30 26944 H 2484.26 -1.8099 5.03137 0
M  V30 26945 H 2484.6 -2.37908 3.41622 0
M  V30 26946 H 2485.14 -0.752494 3.90618 0
M  V30 26947 H 2481.88 0.724089 6.51488 0
M  V30 26948 H 2481.4 -0.886309 5.93215 0
M  V30 26949 H 2483.08 -0.583515 6.44363 0
M  V30 26950 N 2483.21 -1.57342 -0.0901833 0
M  V30 26951 C 2484.12 -2.0574 -1.12731 0
M  V30 26952 C 2485.13 -0.983256 -1.43555 0
M  V30 26953 O 2486.31 -1.29675 -1.54099 0
M  V30 26954 C 2483.37 -2.47628 -2.42655 0
M  V30 26955 C 2482.44 -3.69258 -2.18969 0
M  V30 26956 C 2481.67 -4.09139 -3.42697 0
M  V30 26957 O 2481.89 -3.49065 -4.51121 0
M  V30 26958 O 2480.83 -5.02059 -3.31994 0
M  V30 26959 H 2484.65 -2.94389 -0.746228 0
M  V30 26960 H 2482.24 -1.46294 -0.303038 0
M  V30 26961 H 2484.12 -2.75175 -3.1915 0
M  V30 26962 H 2482.79 -1.62114 -2.8018 0
M  V30 26963 H 2481.7 -3.4682 -1.40238 0
M  V30 26964 H 2483.03 -4.55566 -1.86334 0
M  V30 26965 N 2484.69 0.36113 -1.53407 0
M  V30 26966 C 2485.62 1.44853 -1.83139 0
M  V30 26967 C 2486.6 1.55689 -0.685201 0
M  V30 26968 O 2487.78 1.70184 -0.93547 0
M  V30 26969 C 2484.91 2.82135 -2.02527 0
M  V30 26970 C 2483.87 2.8612 -3.18307 0
M  V30 26971 C 2483.19 4.26119 -3.22996 0
M  V30 26972 C 2484.49 2.5324 -4.56801 0
M  V30 26973 H 2486.19 1.20221 -2.74203 0
M  V30 26974 H 2483.73 0.576899 -1.31939 0
M  V30 26975 H 2485.69 3.58237 -2.2191 0
M  V30 26976 H 2484.41 3.08164 -1.08177 0
M  V30 26977 H 2483.07 2.12469 -2.98751 0
M  V30 26978 H 2482.72 4.49231 -2.26275 0
M  V30 26979 H 2482.42 4.29701 -4.00788 0
M  V30 26980 H 2483.94 5.04088 -3.44568 0
M  V30 26981 H 2485.35 3.19056 -4.76315 0
M  V30 26982 H 2483.75 2.68131 -5.36866 0
M  V30 26983 H 2484.82 1.48476 -4.61609 0
M  V30 26984 N 2486.16 1.44842 0.621179 0
M  V30 26985 C 2487.58 1.42779 1.20296 0
M  V30 26986 C 2487.93 0.148293 1.95639 0
M  V30 26987 O 2487.05 -0.750857 2.02956 0
M  V30 26988 C 2487.65 2.58661 2.18815 0
M  V30 26989 C 2486.21 2.59761 2.72399 0
M  V30 26990 C 2485.35 2.34776 1.47566 0
M  V30 26991 H 2488.3 1.53278 0.41127 0
M  V30 26992 H 2488.32 2.31983 3.01603 0
M  V30 26993 H 2487.84 3.51769 1.63951 0
M  V30 26994 H 2485.94 1.70621 3.31239 0
M  V30 26995 H 2486.05 3.58561 3.17759 0
M  V30 26996 H 2484.41 1.84064 1.76047 0
M  V30 26997 H 2485.2 3.30012 0.945896 0
M  V30 26998 N 2487.64 -0.862479 1.31905 0
M  V30 26999 C 2488.59 -1.95825 1.16775 0
M  V30 27000 C 2489.58 -1.60717 0.076738 0
M  V30 27001 O 2490.77 -1.74397 0.302437 0
M  V30 27002 C 2487.9 -3.31699 0.884916 0
M  V30 27003 C 2486.98 -3.73051 2.01726 0
M  V30 27004 N 2487.37 -3.86299 3.26507 0
M  V30 27005 C 2485.67 -4.0262 1.91868 0
M  V30 27006 C 2486.37 -4.21753 4.00624 0
M  V30 27007 N 2485.35 -4.32846 3.28854 0
M  V30 27008 H 2489.15 -2.0419 2.11385 0
M  V30 27009 H 2486.67 -1.05375 1.23571 0
M  V30 27010 H 2488.66 -4.09961 0.757492 0
M  V30 27011 H 2487.32 -3.24657 -0.0528877 0
M  V30 27012 H 2488.33 -3.70827 3.61535 0
M  V30 27013 H 2485.01 -4.03924 1.056 0
M  V30 27014 H 2486.4 -4.39537 5.0819 0
M  V30 27015 N 2489.12 -1.14988 -1.07775 0
M  V30 27016 C 2490.36 -0.932559 -1.81887 0
M  V30 27017 C 2490.72 0.531032 -1.8451 0
M  V30 27018 O 2491.93 0.866532 -2.5445 0
M  V30 27019 C 2490.2 -1.52479 -3.23241 0
M  V30 27020 S 2491.76 -1.44996 -4.14152 0
M  V30 27021 H 2488.57 -0.335723 -0.626746 0
M  V30 27022 H 2491.18 -1.46457 -1.29501 0
M  V30 27023 H 2489.88 -2.58301 -3.18918 0
M  V30 27024 H 2489.41 -0.991448 -3.80702 0
M  V30 27025 H 2491.43 -0.439886 -4.94246 0
M  V30 27026 N 2490.6 1.26049 -0.946007 0
M  V30 27027 C 2491.51 2.29932 -0.465673 0
M  V30 27028 C 2492.52 1.67734 0.462731 0
M  V30 27029 O 2493.7 1.98491 0.341083 0
M  V30 27030 C 2490.77 3.45747 0.256933 0
M  V30 27031 C 2489.83 4.23411 -0.708623 0
M  V30 27032 C 2489.06 5.33696 -0.0204074 0
M  V30 27033 O 2489.28 5.57729 1.19562 0
M  V30 27034 O 2488.22 5.97797 -0.701564 0
M  V30 27035 H 2492.04 2.73092 -1.32871 0
M  V30 27036 H 2489.63 1.31338 -0.712094 0
M  V30 27037 H 2491.51 4.16139 0.663779 0
M  V30 27038 H 2490.18 3.04607 1.09528 0
M  V30 27039 H 2489.09 3.55481 -1.16551 0
M  V30 27040 H 2490.42 4.68313 -1.51473 0
M  V30 27041 N 2492.08 0.71358 1.4052 0
M  V30 27042 C 2493.02 0.0485636 2.32549 0
M  V30 27043 C 2494.02 -0.749193 1.51932 0
M  V30 27044 O 2495.22 -0.652787 1.67746 0
M  V30 27045 H 2491.6 -0.00309817 0.751994 0
M  V30 27046 H 2493.57 0.841494 2.86289 0
M  V30 27047 C 2492.32 -0.860628 3.36881 0
M  V30 27048 H 2491.64 -0.256176 3.98978 0
M  V30 27049 H 2493.08 -1.29393 4.03774 0
M  V30 27050 C 2491.54 -1.98516 2.72201 0
M  V30 27051 O 2492.07 -3.07579 2.58375 0
M  V30 27052 N 2490.28 -1.76819 2.30615 0
M  V30 27053 H 2489.82 -0.881175 2.4206 0
M  V30 27054 H 2489.78 -2.5224 1.87677 0
M  V30 27055 N 2493.55 -1.50749 0.459618 0
M  V30 27056 C 2494.78 -2.0716 -0.0996455 0
M  V30 27057 C 2495.2 -1.32251 -1.33758 0
M  V30 27058 O 2494.56 -0.366818 -1.7755 0
M  V30 27059 C 2494.61 -3.58612 -0.378163 0
M  V30 27060 O 2493.71 -3.85663 -1.46074 0
M  V30 27061 H 2493.06 -0.663953 0.00792559 0
M  V30 27062 H 2495.59 -1.94089 0.647363 0
M  V30 27063 H 2495.6 -4.0323 -0.622064 0
M  V30 27064 H 2494.27 -4.12554 0.526512 0
M  V30 27065 H 2492.85 -3.52892 -1.20505 0
M  V30 27066 N 2495.03 -0.191784 -1.56429 0
M  V30 27067 C 2495.94 0.742442 -2.22542 0
M  V30 27068 C 2496.96 1.23725 -1.22345 0
M  V30 27069 O 2498.13 1.2851 -1.55071 0
M  V30 27070 C 2495.2 1.94617 -2.86923 0
M  V30 27071 C 2494.26 1.49626 -4.02381 0
M  V30 27072 C 2493.49 2.64261 -4.63683 0
M  V30 27073 O 2493.72 3.81659 -4.23902 0
M  V30 27074 O 2492.65 2.37164 -5.53206 0
M  V30 27075 H 2496.48 0.209409 -3.02977 0
M  V30 27076 H 2494.06 0.037357 -1.49353 0
M  V30 27077 H 2495.94 2.64976 -3.27667 0
M  V30 27078 H 2494.62 2.46787 -2.0947 0
M  V30 27079 H 2493.53 0.761571 -3.66266 0
M  V30 27080 H 2494.86 1.02126 -4.81488 0
M  V30 27081 N 2496.51 1.57387 0.0818378 0
M  V30 27082 C 2497.76 1.85939 0.781648 0
M  V30 27083 C 2498.07 0.782989 1.79245 0
M  V30 27084 O 2499.28 0.956032 2.54111 0
M  V30 27085 C 2497.73 3.29791 1.44103 0
M  V30 27086 C 2497.34 4.45535 0.469318 0
M  V30 27087 C 2499.09 3.67553 2.12379 0
M  V30 27088 C 2496.99 5.80425 1.13404 0
M  V30 27089 H 2495.92 0.693611 0.29567 0
M  V30 27090 H 2498.57 1.83467 0.0347729 0
M  V30 27091 H 2496.96 3.26844 2.23582 0
M  V30 27092 H 2498.13 4.59855 -0.294936 0
M  V30 27093 H 2496.45 4.16259 -0.108456 0
M  V30 27094 H 2499.04 4.65622 2.6287 0
M  V30 27095 H 2499.39 2.96845 2.91871 0
M  V30 27096 H 2499.92 3.72447 1.39744 0
M  V30 27097 H 2496.66 6.544 0.379656 0
M  V30 27098 H 2496.18 5.69924 1.8694 0
M  V30 27099 H 2497.86 6.25428 1.65675 0
M  V30 27100 N 2497.99 -0.35299 1.53596 0
M  V30 27101 C 2499.24 -1.09165 1.69605 0
M  V30 27102 C 2499.55 -1.90091 0.460959 0
M  V30 27103 O 2500.76 -2.66822 0.501821 0
M  V30 27104 C 2499.21 -1.99005 2.99875 0
M  V30 27105 C 2498.82 -1.23331 4.30689 0
M  V30 27106 C 2500.56 -2.72786 3.25251 0
M  V30 27107 C 2498.47 -2.12146 5.5204 0
M  V30 27108 H 2497.4 -0.41125 0.631973 0
M  V30 27109 H 2500.05 -0.351771 1.80097 0
M  V30 27110 H 2498.43 -2.76775 2.83217 0
M  V30 27111 H 2499.61 -0.505376 4.5802 0
M  V30 27112 H 2497.92 -0.613591 4.11854 0
M  V30 27113 H 2500.52 -3.39487 4.13101 0
M  V30 27114 H 2500.86 -3.38841 2.41852 0
M  V30 27115 H 2501.4 -2.02094 3.42641 0
M  V30 27116 H 2498.14 -1.50648 6.37954 0
M  V30 27117 H 2497.66 -2.82755 5.28971 0
M  V30 27118 H 2499.33 -2.71417 5.87318 0
M  V30 27119 N 2499.47 -1.45169 -0.613489 0
M  V30 27120 C 2500.72 -1.48153 -1.36871 0
M  V30 27121 C 2501.03 -0.125017 -1.952 0
M  V30 27122 O 2502.24 -0.0324653 -2.71481 0
M  V30 27123 C 2500.69 -2.60909 -2.47901 0
M  V30 27124 C 2500.3 -4.02846 -1.96009 0
M  V30 27125 C 2502.04 -2.73132 -3.2496 0
M  V30 27126 C 2499.95 -5.06994 -3.04485 0
M  V30 27127 H 2498.88 -0.551262 -0.514418 0
M  V30 27128 H 2501.53 -1.71291 -0.658152 0
M  V30 27129 H 2499.91 -2.31042 -3.21614 0
M  V30 27130 H 2501.09 -4.42362 -1.29044 0
M  V30 27131 H 2499.4 -3.9502 -1.31712 0
M  V30 27132 H 2502 -3.48113 -4.05859 0
M  V30 27133 H 2502.34 -1.7956 -3.75585 0
M  V30 27134 H 2502.88 -3.02495 -2.58344 0
M  V30 27135 H 2499.61 -6.02255 -2.58784 0
M  V30 27136 H 2499.13 -4.72053 -3.70036 0
M  V30 27137 H 2500.81 -5.31481 -3.68967 0
M  V30 27138 N 2500.95 0.855472 -1.32361 0
M  V30 27139 C 2502.36 1.14355 -1.11334 0
M  V30 27140 C 2502.56 2.01217 0.106716 0
M  V30 27141 O 2501.62 2.39762 0.791849 0
M  V30 27142 C 2502.93 1.82167 -2.3924 0
M  V30 27143 C 2504.48 1.94805 -2.44989 0
M  V30 27144 C 2504.95 2.66033 -3.72814 0
M  V30 27145 N 2506.44 2.73558 -3.73791 0
M  V30 27146 C 2507.18 3.29319 -4.694 0
M  V30 27147 N 2506.68 3.85897 -5.75374 0
M  V30 27148 N 2508.47 3.27415 -4.56898 0
M  V30 27149 H 2500.62 0.27699 -2.10586 0
M  V30 27150 H 2502.88 0.185348 -0.929704 0
M  V30 27151 H 2502.59 1.25796 -3.28433 0
M  V30 27152 H 2502.46 2.8233 -2.50139 0
M  V30 27153 H 2504.85 2.50336 -1.56256 0
M  V30 27154 H 2504.93 0.936406 -2.38044 0
M  V30 27155 H 2504.57 2.11166 -4.61921 0
M  V30 27156 H 2504.5 3.67635 -3.7703 0
M  V30 27157 H 2507 2.33419 -2.97193 0
M  V30 27158 H 2507.31 4.26599 -6.44386 0
M  V30 27159 H 2505.65 3.84232 -5.7913 0
M  V30 27160 H 2508.84 2.82461 -3.73274 0
M  V30 27161 H 2509.02 3.70571 -5.31584 0
M  V30 27162 N 2502.42 1.15558 1.07164 0
M  V30 27163 C 2503.35 0.877084 2.16401 0
M  V30 27164 C 2504.33 -0.173082 1.69217 0
M  V30 27165 O 2505.52 -0.0270498 1.94181 0
M  V30 27166 C 2502.65 0.367693 3.45348 0
M  V30 27167 C 2501.6 1.35475 4.05993 0
M  V30 27168 C 2500.93 0.704131 5.30043 0
M  V30 27169 C 2502.23 2.7214 4.45799 0
M  V30 27170 H 2503.92 1.79057 2.39956 0
M  V30 27171 H 2501.47 0.862351 1.15323 0
M  V30 27172 H 2503.42 0.160391 4.21095 0
M  V30 27173 H 2502.15 -0.58127 3.21386 0
M  V30 27174 H 2500.81 1.54845 3.32293 0
M  V30 27175 H 2500.45 -0.25104 5.02373 0
M  V30 27176 H 2500.15 1.36287 5.71576 0
M  V30 27177 H 2501.68 0.506647 6.08494 0
M  V30 27178 H 2503.09 2.56604 5.12667 0
M  V30 27179 H 2501.49 3.34406 4.9829 0
M  V30 27180 H 2502.56 3.2806 3.57078 0
M  V30 27181 N 2503.9 -1.25546 0.952678 0
M  V30 27182 C 2505.13 -1.96995 0.622626 0
M  V30 27183 C 2505.54 -1.71028 -0.809082 0
M  V30 27184 O 2504.88 -0.981888 -1.55257 0
M  V30 27185 C 2504.94 -3.50508 0.799008 0
M  V30 27186 C 2504.61 -4.00148 2.20751 0
M  V30 27187 C 2505.61 -4.10995 3.18401 0
M  V30 27188 C 2503.29 -4.33863 2.53117 0
M  V30 27189 C 2505.28 -4.54869 4.46512 0
M  V30 27190 C 2502.97 -4.77423 3.81458 0
M  V30 27191 C 2503.97 -4.87889 4.77968 0
M  V30 27192 O 2503.66 -5.30484 6.04022 0
M  V30 27193 H 2503.39 -0.634754 0.232514 0
M  V30 27194 H 2505.94 -1.60725 1.27893 0
M  V30 27195 H 2504.17 -3.86605 0.0855582 0
M  V30 27196 H 2505.86 -4.03166 0.470301 0
M  V30 27197 H 2506.63 -3.85181 2.94721 0
M  V30 27198 H 2502.51 -4.24945 1.78726 0
M  V30 27199 H 2506.05 -4.62953 5.21843 0
M  V30 27200 H 2501.95 -5.02683 4.04945 0
M  V30 27201 H 2502.72 -5.48675 6.0737 0
M  V30 27202 N 2505.38 -0.721022 -1.40139 0
M  V30 27203 C 2506.29 -0.0731443 -2.34486 0
M  V30 27204 C 2507.31 0.737696 -1.57588 0
M  V30 27205 O 2508.48 0.669396 -1.8995 0
M  V30 27206 C 2505.55 0.833597 -3.36529 0
M  V30 27207 C 2504.61 0.0120918 -4.29298 0
M  V30 27208 C 2503.84 0.875649 -5.26468 0
M  V30 27209 O 2504.06 2.11476 -5.29749 0
M  V30 27210 O 2503 0.311745 -6.01092 0
M  V30 27211 H 2506.82 -0.851495 -2.91519 0
M  V30 27212 H 2504.41 -0.481552 -1.41426 0
M  V30 27213 H 2506.29 1.35282 -3.99095 0
M  V30 27214 H 2504.97 1.591 -2.81902 0
M  V30 27215 H 2503.87 -0.552327 -3.7 0
M  V30 27216 H 2505.21 -0.707214 -4.87093 0
M  V30 27217 N 2506.86 1.50503 -0.467606 0
M  V30 27218 C 2507.79 2.2511 0.374284 0
M  V30 27219 C 2508.77 1.28277 0.999188 0
M  V30 27220 O 2509.95 1.57491 1.0358 0
M  V30 27221 C 2507.08 3.0247 1.52413 0
M  V30 27222 C 2506.13 4.14198 1.01695 0
M  V30 27223 S 2506.96 5.3546 -0.0655419 0
M  V30 27224 C 2508.11 6.16366 1.08827 0
M  V30 27225 H 2508.35 2.96169 -0.259035 0
M  V30 27226 H 2505.88 1.52322 -0.252448 0
M  V30 27227 H 2507.84 3.47632 2.18316 0
M  V30 27228 H 2506.5 2.30942 2.12896 0
M  V30 27229 H 2505.69 4.67717 1.87768 0
M  V30 27230 H 2505.29 3.71454 0.435692 0
M  V30 27231 H 2507.59 6.47288 2.0006 0
M  V30 27232 H 2508.53 7.05618 0.592414 0
M  V30 27233 H 2508.94 5.48352 1.34052 0
M  V30 27234 N 2508.34 0.200077 1.56325 0
M  V30 27235 C 2509.75 -0.311638 1.84081 0
M  V30 27236 C 2510.1 -1.61029 1.1209 0
M  V30 27237 O 2509.22 -2.12977 0.383358 0
M  V30 27238 C 2509.82 -0.572201 3.33933 0
M  V30 27239 C 2508.38 -1.02827 3.62082 0
M  V30 27240 C 2507.52 -0.0795852 2.77186 0
M  V30 27241 H 2510.47 0.423756 1.52938 0
M  V30 27242 H 2510.5 -1.4209 3.52974 0
M  V30 27243 H 2510.01 0.373147 3.86302 0
M  V30 27244 H 2508.11 -1.98773 3.15151 0
M  V30 27245 H 2508.22 -0.917541 4.70232 0
M  V30 27246 H 2506.59 -0.582404 2.47952 0
M  V30 27247 H 2507.37 0.860297 3.32346 0
M  V30 27248 N 2509.81 -1.57429 -0.0734901 0
M  V30 27249 C 2511.04 -1.91114 -0.784796 0
M  V30 27250 C 2511.45 -0.794131 -1.71727 0
M  V30 27251 O 2510.79 0.24151 -1.82106 0
M  V30 27252 C 2510.86 -3.2025 -1.63341 0
M  V30 27253 C 2510.52 -4.48633 -0.870478 0
M  V30 27254 C 2511.52 -5.19551 -0.190489 0
M  V30 27255 C 2509.2 -4.95258 -0.838155 0
M  V30 27256 C 2511.2 -6.35343 0.511615 0
M  V30 27257 C 2508.88 -6.10957 -0.132279 0
M  V30 27258 C 2509.88 -6.80851 0.541408 0
M  V30 27259 O 2509.57 -7.94343 1.23592 0
M  V30 27260 H 2509.3 -0.636248 -0.228397 0
M  V30 27261 H 2511.86 -2.05343 -0.0485678 0
M  V30 27262 H 2510.09 -3.02226 -2.41239 0
M  V30 27263 H 2511.77 -3.39599 -2.22323 0
M  V30 27264 H 2512.54 -4.84559 -0.206778 0
M  V30 27265 H 2508.42 -4.40729 -1.35198 0
M  V30 27266 H 2511.96 -6.89834 1.03801 0
M  V30 27267 H 2507.86 -6.45399 -0.11391 0
M  V30 27268 H 2508.63 -8.10452 1.14502 0
M  V30 27269 N 2511.29 0.344839 -1.53781 0
M  V30 27270 C 2512.54 1.08523 -1.70965 0
M  V30 27271 C 2512.87 1.88682 -0.472159 0
M  V30 27272 O 2512.12 1.87927 0.546083 0
M  V30 27273 C 2512.42 2.05501 -2.92411 0
M  V30 27274 C 2512.09 1.41663 -4.28068 0
M  V30 27275 C 2510.75 1.23982 -4.64954 0
M  V30 27276 C 2513.1 0.956636 -5.12346 0
M  V30 27277 C 2510.43 0.589175 -5.83734 0
M  V30 27278 C 2512.78 0.319904 -6.31791 0
M  V30 27279 C 2511.44 0.130764 -6.67372 0
M  V30 27280 H 2510.71 0.397113 -0.625605 0
M  V30 27281 H 2513.36 0.364657 -1.87996 0
M  V30 27282 H 2511.67 2.83935 -2.69978 0
M  V30 27283 H 2513.36 2.62779 -3.029 0
M  V30 27284 H 2509.95 1.56422 -3.99036 0
M  V30 27285 H 2514.14 1.08109 -4.84382 0
M  V30 27286 H 2509.39 0.431237 -6.09877 0
M  V30 27287 H 2513.57 -0.0446296 -6.96386 0
M  V30 27288 H 2511.19 -0.375452 -7.59272 0
M  V30 27289 N 2512.77 1.45492 0.605781 0
M  V30 27290 C 2514.18 1.44047 1.18775 0
M  V30 27291 C 2514.53 0.169035 1.9547 0
M  V30 27292 O 2513.66 -0.729288 2.03741 0
M  V30 27293 C 2514.25 2.60967 2.1606 0
M  V30 27294 C 2512.81 2.62636 2.69628 0
M  V30 27295 C 2511.96 2.36327 1.45068 0
M  V30 27296 H 2514.91 1.53706 0.39499 0
M  V30 27297 H 2514.93 2.35168 2.99125 0
M  V30 27298 H 2514.44 3.53488 1.60211 0
M  V30 27299 H 2512.54 1.74125 3.29411 0
M  V30 27300 H 2512.66 3.61911 3.13938 0
M  V30 27301 H 2511.02 1.8592 1.74085 0
M  V30 27302 H 2511.8 3.30996 0.910841 0
M  V30 27303 N 2514.25 -0.848441 1.32813 0
M  V30 27304 C 2515.18 -1.9616 1.16604 0
M  V30 27305 C 2516.16 -1.62474 0.063914 0
M  V30 27306 O 2517.34 -1.8716 0.22438 0
M  V30 27307 C 2514.47 -3.29444 0.786391 0
M  V30 27308 C 2513.52 -3.82106 1.89465 0
M  V30 27309 S 2514.35 -4.04943 3.50402 0
M  V30 27310 C 2515.51 -5.41192 3.14423 0
M  V30 27311 H 2515.74 -2.09608 2.10836 0
M  V30 27312 H 2513.27 -1.00113 1.17545 0
M  V30 27313 H 2515.23 -4.06465 0.574116 0
M  V30 27314 H 2513.89 -3.138 -0.137163 0
M  V30 27315 H 2513.08 -4.78523 1.58215 0
M  V30 27316 H 2512.69 -3.11949 2.0631 0
M  V30 27317 H 2514.98 -6.23671 2.64653 0
M  V30 27318 H 2515.92 -5.77409 4.09884 0
M  V30 27319 H 2516.33 -5.05491 2.51275 0
M  V30 27320 N 2515.73 -1.16125 -1.06549 0
M  V30 27321 C 2516.97 -0.939299 -1.78946 0
M  V30 27322 C 2517.3 0.534443 -1.87533 0
M  V30 27323 O 2516.57 1.3883 -1.38213 0
M  V30 27324 H 2515.15 -0.344534 -0.662801 0
M  V30 27325 H 2517.81 -1.46344 -1.28722 0
M  V30 27326 H 2516.9 -1.35577 -2.81114 0
M  V30 27327 N 2517.2 1.25039 -0.959323 0
M  V30 27328 C 2518.45 1.92883 -0.616645 0
M  V30 27329 C 2518.78 1.75089 0.847006 0
M  V30 27330 O 2518.03 1.09242 1.62372 0
M  V30 27331 C 2518.33 3.45163 -0.927197 0
M  V30 27332 C 2518 3.83118 -2.37764 0
M  V30 27333 C 2516.66 3.93189 -2.77408 0
M  V30 27334 C 2519.01 4.01831 -3.31936 0
M  V30 27335 C 2516.34 4.19385 -4.10285 0
M  V30 27336 C 2518.69 4.2952 -4.6443 0
M  V30 27337 C 2517.36 4.37809 -5.03865 0
M  V30 27338 H 2516.63 0.705808 -0.225646 0
M  V30 27339 H 2519.27 1.48491 -1.20924 0
M  V30 27340 H 2517.58 3.90987 -0.252263 0
M  V30 27341 H 2519.28 3.95851 -0.640569 0
M  V30 27342 H 2515.87 3.75838 -2.0602 0
M  V30 27343 H 2520.05 3.9346 -3.02495 0
M  V30 27344 H 2515.31 4.24019 -4.40474 0
M  V30 27345 H 2519.48 4.42944 -5.37377 0
M  V30 27346 H 2517.11 4.5786 -6.06851 0
M  V30 27347 N 2518.68 0.728444 1.39755 0
M  V30 27348 C 2519.93 0.282797 2.01424 0
M  V30 27349 C 2520.28 -1.11558 1.56756 0
M  V30 27350 O 2519.58 -1.74847 0.783513 0
M  V30 27351 C 2519.77 0.315839 3.56002 0
M  V30 27352 C 2519.6 1.71589 4.15677 0
M  V30 27353 C 2518.37 2.32658 4.48551 0
M  V30 27354 C 2520.57 2.66836 4.39662 0
M  V30 27355 N 2518.55 3.64886 4.93692 0
M  V30 27356 C 2519.92 3.83789 4.86936 0
M  V30 27357 C 2521.98 2.64683 4.2172 0
M  V30 27358 C 2520.68 4.98913 5.18149 0
M  V30 27359 C 2522.7 3.78945 4.54043 0
M  V30 27360 C 2522.07 4.94632 5.01517 0
M  V30 27361 H 2518.17 0.149597 0.767558 0
M  V30 27362 H 2520.75 0.953006 1.69782 0
M  V30 27363 H 2518.92 -0.323989 3.87046 0
M  V30 27364 H 2520.65 -0.147737 4.0443 0
M  V30 27365 H 2517.41 1.84641 4.36125 0
M  V30 27366 H 2517.83 4.32754 5.20628 0
M  V30 27367 H 2522.47 1.7644 3.84225 0
M  V30 27368 H 2520.19 5.8779 5.54552 0
M  V30 27369 H 2523.78 3.78569 4.41788 0
M  V30 27370 H 2522.66 5.81581 5.26055 0
M  V30 27371 N 2520.16 -1.50253 0.475581 0
M  V30 27372 C 2521.39 -2.07255 -0.0776678 0
M  V30 27373 C 2521.81 -1.33662 -1.32348 0
M  V30 27374 O 2521.17 -0.385628 -1.77151 0
M  V30 27375 C 2521.22 -3.58993 -0.340106 0
M  V30 27376 O 2520.32 -3.87191 -1.41975 0
M  V30 27377 H 2519.66 -0.663831 0.0149673 0
M  V30 27378 H 2522.19 -1.93391 0.667912 0
M  V30 27379 H 2522.2 -4.03867 -0.579261 0
M  V30 27380 H 2520.88 -4.11972 0.570239 0
M  V30 27381 H 2519.45 -3.5415 -1.16756 0
M  V30 27382 N 2521.64 -0.208365 -1.56217 0
M  V30 27383 C 2523.05 0.147262 -1.58919 0
M  V30 27384 C 2523.25 1.59996 -1.22489 0
M  V30 27385 O 2522.31 2.33789 -0.95389 0
M  V30 27386 C 2523.62 -0.167101 -3.00235 0
M  V30 27387 C 2525.17 -0.108274 -3.12813 0
M  V30 27388 C 2525.65 -0.396129 -4.56284 0
M  V30 27389 N 2527.14 -0.345223 -4.61912 0
M  V30 27390 C 2527.87 -0.541624 -5.70836 0
M  V30 27391 N 2527.37 -0.799089 -6.88176 0
M  V30 27392 N 2529.16 -0.474966 -5.6009 0
M  V30 27393 H 2521.31 -1.15617 -1.78175 0
M  V30 27394 H 2523.58 -0.46246 -0.827547 0
M  V30 27395 H 2523.28 -1.17486 -3.31496 0
M  V30 27396 H 2523.16 0.524118 -3.73541 0
M  V30 27397 H 2525.54 0.890107 -2.81356 0
M  V30 27398 H 2525.62 -0.832771 -2.41865 0
M  V30 27399 H 2525.27 -1.39189 -4.88456 0
M  V30 27400 H 2525.2 0.349409 -5.2544 0
M  V30 27401 H 2527.69 -0.153383 -3.77589 0
M  V30 27402 H 2528 -0.937405 -7.67094 0
M  V30 27403 H 2526.35 -0.836135 -6.89952 0
M  V30 27404 H 2529.54 -0.274146 -4.67297 0
M  V30 27405 H 2529.71 -0.63144 -6.44916 0
M  V30 27406 N 2523.12 1.57465 0.0651402 0
M  V30 27407 C 2524.05 2.07184 1.0769 0
M  V30 27408 C 2525.03 0.966697 1.39961 0
M  V30 27409 O 2526.21 1.23982 1.49472 0
M  V30 27410 C 2523.34 2.52131 2.38845 0
M  V30 27411 C 2522.3 3.66582 2.2091 0
M  V30 27412 C 2521.62 3.97608 3.57508 0
M  V30 27413 C 2522.92 4.96383 1.62485 0
M  V30 27414 H 2524.62 2.91964 0.663148 0
M  V30 27415 H 2522.16 1.40455 0.317544 0
M  V30 27416 H 2524.12 2.85528 3.09923 0
M  V30 27417 H 2522.84 1.64389 2.82213 0
M  V30 27418 H 2521.5 3.33479 1.52273 0
M  V30 27419 H 2521.15 3.06986 3.98458 0
M  V30 27420 H 2520.85 4.74678 3.46345 0
M  V30 27421 H 2522.37 4.33506 4.30006 0
M  V30 27422 H 2523.78 5.27967 2.23435 0
M  V30 27423 H 2522.18 5.7782 1.61999 0
M  V30 27424 H 2523.25 4.81334 0.586956 0
M  V30 27425 N 2524.59 -0.336679 1.53962 0
M  V30 27426 C 2525.84 -1.0736 1.70753 0
M  V30 27427 C 2526.16 -1.89591 0.481094 0
M  V30 27428 O 2527.36 -2.66275 0.530093 0
M  V30 27429 C 2525.82 -1.95813 3.01969 0
M  V30 27430 C 2525.43 -1.18756 4.31973 0
M  V30 27431 C 2527.17 -2.69321 3.28126 0
M  V30 27432 C 2525.08 -2.06279 5.54259 0
M  V30 27433 H 2524.01 -0.404523 0.636299 0
M  V30 27434 H 2526.66 -0.332649 1.8046 0
M  V30 27435 H 2525.04 -2.73755 2.86136 0
M  V30 27436 H 2526.21 -0.456768 4.58531 0
M  V30 27437 H 2524.53 -0.569873 4.12482 0
M  V30 27438 H 2527.13 -3.35087 4.16678 0
M  V30 27439 H 2527.47 -3.36257 2.45432 0
M  V30 27440 H 2528 -1.98448 3.44765 0
M  V30 27441 H 2524.74 -1.43873 6.39516 0
M  V30 27442 H 2524.26 -2.77128 5.3194 0
M  V30 27443 H 2525.94 -2.65172 5.90163 0
M  V30 27444 N 2526.07 -1.45812 -0.598057 0
M  V30 27445 C 2527.02 -1.55558 -1.72929 0
M  V30 27446 C 2528.01 -0.42495 -1.63983 0
M  V30 27447 O 2529.22 -0.601235 -1.69662 0
M  V30 27448 H 2525.6 -0.488789 -0.57148 0
M  V30 27449 H 2527.57 -2.50702 -1.61837 0
M  V30 27450 C 2526.32 -1.54848 -3.11316 0
M  V30 27451 H 2525.64 -2.41178 -3.18863 0
M  V30 27452 H 2527.08 -1.65724 -3.90271 0
M  V30 27453 C 2525.54 -0.274486 -3.3578 0
M  V30 27454 O 2526.07 0.641708 -3.96541 0
M  V30 27455 N 2524.27 -0.16719 -2.90119 0
M  V30 27456 H 2523.82 -0.913638 -2.40854 0
M  V30 27457 H 2523.78 0.684382 -3.06861 0
M  V30 27458 N 2527.55 0.841385 -1.33261 0
M  V30 27459 C 2528.97 1.13167 -1.1254 0
M  V30 27460 C 2529.17 2.01319 0.0853683 0
M  V30 27461 O 2528.22 2.40589 0.766374 0
M  V30 27462 C 2529.54 1.79619 -2.41159 0
M  V30 27463 C 2531.08 1.92196 -2.47042 0
M  V30 27464 C 2531.56 2.62064 -3.75615 0
M  V30 27465 N 2533.05 2.69578 -3.76672 0
M  V30 27466 C 2533.78 3.24322 -4.72867 0
M  V30 27467 N 2533.28 3.79773 -5.79435 0
M  V30 27468 N 2535.07 3.2255 -4.60345 0
M  V30 27469 H 2527.22 0.254639 -2.10868 0
M  V30 27470 H 2529.49 0.175476 -0.931618 0
M  V30 27471 H 2529.19 1.22305 -3.29749 0
M  V30 27472 H 2529.07 2.79661 -2.53119 0
M  V30 27473 H 2531.45 2.48664 -1.58903 0
M  V30 27474 H 2531.54 0.911106 -2.39024 0
M  V30 27475 H 2531.18 2.06255 -4.64135 0
M  V30 27476 H 2531.11 3.63616 -3.80909 0
M  V30 27477 H 2533.6 2.30254 -2.99652 0
M  V30 27478 H 2533.91 4.19741 -6.48874 0
M  V30 27479 H 2532.26 3.78067 -5.83172 0
M  V30 27480 H 2535.45 2.78486 -3.76249 0
M  V30 27481 H 2535.62 3.64912 -5.35484 0
M  V30 27482 N 2529.03 1.16688 1.05932 0
M  V30 27483 C 2529.96 0.899986 2.15459 0
M  V30 27484 C 2530.94 -0.155124 1.69391 0
M  V30 27485 O 2532.13 -0.00645279 1.94199 0
M  V30 27486 C 2529.26 0.404301 3.44939 0
M  V30 27487 C 2528.21 1.39774 4.04533 0
M  V30 27488 C 2527.54 0.760309 5.29267 0
M  V30 27489 C 2528.84 2.76853 4.42888 0
M  V30 27490 H 2530.53 1.81592 2.38043 0
M  V30 27491 H 2528.08 0.874534 1.14402 0
M  V30 27492 H 2530.03 0.205045 4.20901 0
M  V30 27493 H 2528.75 -0.54715 3.21984 0
M  V30 27494 H 2527.41 1.58361 3.30632 0
M  V30 27495 H 2527.06 -0.197743 5.02611 0
M  V30 27496 H 2526.76 1.42342 5.70099 0
M  V30 27497 H 2528.28 0.571157 6.07923 0
M  V30 27498 H 2529.7 2.62028 5.09916 0
M  V30 27499 H 2528.09 3.39672 4.94715 0
M  V30 27500 H 2529.16 3.31829 3.53578 0
M  V30 27501 N 2530.51 -1.24529 0.96594 0
M  V30 27502 C 2531.44 -2.27783 0.513516 0
M  V30 27503 C 2532.42 -1.6415 -0.445945 0
M  V30 27504 O 2533.6 -1.91157 -0.342451 0
M  V30 27505 C 2530.73 -3.46731 -0.198778 0
M  V30 27506 C 2529.69 -4.22619 0.67653 0
M  V30 27507 C 2529.01 -5.34439 -0.167154 0
M  V30 27508 C 2530.31 -4.84119 1.96026 0
M  V30 27509 H 2532.01 -2.65879 1.37654 0
M  V30 27510 H 2529.55 -1.27811 0.663344 0
M  V30 27511 H 2531.51 -4.18098 -0.526493 0
M  V30 27512 H 2530.23 -3.07656 -1.09614 0
M  V30 27513 H 2528.89 -3.5305 0.987492 0
M  V30 27514 H 2528.54 -4.91604 -1.06462 0
M  V30 27515 H 2528.24 -5.86131 0.415284 0
M  V30 27516 H 2529.76 -6.08634 -0.489581 0
M  V30 27517 H 2531.18 -5.4757 1.69823 0
M  V30 27518 H 2529.57 -5.46036 2.48927 0
M  V30 27519 H 2530.64 -4.05672 2.65629 0
M  V30 27520 N 2531.99 -0.735845 -1.39367 0
M  V30 27521 C 2532.9 -0.0980105 -2.34395 0
M  V30 27522 C 2533.91 0.72094 -1.58362 0
M  V30 27523 O 2535.09 0.649211 -1.90649 0
M  V30 27524 C 2532.15 0.797857 -3.37395 0
M  V30 27525 C 2531.21 -0.0334417 -4.29287 0
M  V30 27526 C 2530.45 0.819761 -5.27367 0
M  V30 27527 O 2530.67 2.05845 -5.31962 0
M  V30 27528 O 2529.6 0.247973 -6.01389 0
M  V30 27529 H 2533.43 -0.882366 -2.90599 0
M  V30 27530 H 2531.01 -0.496525 -1.40908 0
M  V30 27531 H 2532.9 1.31041 -4.00507 0
M  V30 27532 H 2531.57 1.56101 -2.83574 0
M  V30 27533 H 2530.48 -0.59154 -3.69394 0
M  V30 27534 H 2531.81 -0.758837 -4.86315 0
M  V30 27535 N 2533.46 1.49999 -0.483543 0
M  V30 27536 C 2534.71 2.01582 0.0688748 0
M  V30 27537 C 2535.03 1.36954 1.39653 0
M  V30 27538 O 2536.23 1.79765 2.03462 0
M  V30 27539 C 2534.69 3.59483 0.173238 0
M  V30 27540 C 2534.3 4.33075 -1.14672 0
M  V30 27541 C 2536.04 4.19068 0.67695 0
M  V30 27542 C 2533.95 5.8279 -1.00548 0
M  V30 27543 H 2532.88 0.753422 0.0295144 0
M  V30 27544 H 2535.53 1.72697 -0.620325 0
M  V30 27545 H 2533.91 3.85009 0.926501 0
M  V30 27546 H 2535.08 4.19264 -1.91192 0
M  V30 27547 H 2533.4 3.85156 -1.58251 0
M  V30 27548 H 2536 5.28684 0.799859 0
M  V30 27549 H 2536.34 3.81272 1.67144 0
M  V30 27550 H 2536.87 3.97795 -0.0192782 0
M  V30 27551 H 2533.61 6.2508 -1.97371 0
M  V30 27552 H 2533.13 5.99142 -0.280881 0
M  V30 27553 H 2534.81 6.43447 -0.677113 0
M  V30 27554 N 2534.94 0.216646 1.56104 0
M  V30 27555 C 2536.17 -0.424426 2.03011 0
M  V30 27556 C 2536.59 -1.52905 1.09553 0
M  V30 27557 O 2535.95 -1.81111 0.0828232 0
M  V30 27558 C 2536 -0.937822 3.48191 0
M  V30 27559 O 2535.1 -2.04948 3.57869 0
M  V30 27560 H 2534.44 -0.096664 0.656926 0
M  V30 27561 H 2536.97 0.333845 2.01858 0
M  V30 27562 H 2536.98 -1.2489 3.88415 0
M  V30 27563 H 2535.66 -0.129313 4.15699 0
M  V30 27564 H 2534.23 -1.74541 3.2953 0
M  V30 27565 N 2536.42 -1.57498 -0.0567885 0
M  V30 27566 C 2537.83 -1.76563 -0.606827 0
M  V30 27567 C 2538.18 -0.844125 -1.77113 0
M  V30 27568 O 2537.31 -0.0319291 -2.16376 0
M  V30 27569 C 2537.9 -3.20184 -1.1076 0
M  V30 27570 C 2536.46 -3.40542 -1.60338 0
M  V30 27571 C 2535.61 -2.72202 -0.529263 0
M  V30 27572 H 2538.56 -1.57793 0.16942 0
M  V30 27573 H 2538.58 -3.2517 -1.97597 0
M  V30 27574 H 2538.09 -3.87228 -0.259992 0
M  V30 27575 H 2536.19 -2.78633 -2.47374 0
M  V30 27576 H 2536.31 -4.49053 -1.66998 0
M  V30 27577 H 2534.67 -2.35181 -0.977852 0
M  V30 27578 H 2535.45 -3.41912 0.308412 0
M  V30 27579 N 2537.9 0.328509 -1.54138 0
M  V30 27580 C 2539.13 1.08512 -1.75808 0
M  V30 27581 C 2539.54 1.82355 -0.504312 0
M  V30 27582 O 2538.88 1.75754 0.53442 0
M  V30 27583 C 2538.94 2.13243 -2.89427 0
M  V30 27584 C 2538.6 1.58842 -4.28507 0
M  V30 27585 C 2539.6 1.0328 -5.09538 0
M  V30 27586 C 2537.29 1.63235 -4.75037 0
M  V30 27587 C 2539.28 0.528338 -6.35207 0
M  V30 27588 C 2536.97 1.12401 -6.00674 0
M  V30 27589 C 2537.97 0.572942 -6.80593 0
M  V30 27590 O 2537.65 0.0722279 -8.03868 0
M  V30 27591 H 2537.39 0.328818 -0.590639 0
M  V30 27592 H 2539.94 0.381833 -2.0182 0
M  V30 27593 H 2538.17 2.87174 -2.58975 0
M  V30 27594 H 2539.86 2.74587 -2.98926 0
M  V30 27595 H 2540.62 0.991977 -4.74747 0
M  V30 27596 H 2536.5 2.05067 -4.12878 0
M  V30 27597 H 2540.05 0.0975548 -6.97532 0
M  V30 27598 H 2535.94 1.16189 -6.34957 0
M  V30 27599 H 2536.71 0.188114 -8.18284 0
M  V30 27600 N 2539.38 1.46127 0.590316 0
M  V30 27601 C 2540.31 1.5062 1.71431 0
M  V30 27602 C 2541.29 0.360976 1.58542 0
M  V30 27603 O 2542.47 0.564017 1.79864 0
M  V30 27604 C 2539.6 1.37758 3.09419 0
M  V30 27605 C 2538.64 2.56366 3.4085 0
M  V30 27606 S 2539.48 4.18761 3.33766 0
M  V30 27607 C 2540.63 4.08395 4.74304 0
M  V30 27608 H 2540.87 2.45719 1.6736 0
M  V30 27609 H 2538.4 1.3392 0.768427 0
M  V30 27610 H 2540.36 1.31025 3.89028 0
M  V30 27611 H 2539.02 0.441004 3.10989 0
M  V30 27612 H 2538.21 2.43339 4.41364 0
M  V30 27613 H 2537.81 2.6005 2.68793 0
M  V30 27614 H 2540.1 3.74605 5.64515 0
M  V30 27615 H 2541.05 5.0888 4.92388 0
M  V30 27616 H 2541.46 3.39768 4.50797 0
M  V30 27617 N 2540.85 -0.834306 1.33705 0
M  V30 27618 C 2541.78 -1.95961 1.26971 0
M  V30 27619 C 2542.76 -1.69443 0.149366 0
M  V30 27620 O 2543.95 -1.91203 0.339885 0
M  V30 27621 C 2541.08 -3.32204 1.01281 0
M  V30 27622 C 2540.03 -3.73132 2.09658 0
M  V30 27623 C 2539.36 -5.07232 1.69175 0
M  V30 27624 C 2540.66 -3.86432 3.51379 0
M  V30 27625 H 2542.35 -2.01854 2.21123 0
M  V30 27626 H 2539.9 -0.969775 1.06449 0
M  V30 27627 H 2541.85 -4.10502 0.952178 0
M  V30 27628 H 2540.58 -3.26581 0.0356777 0
M  V30 27629 H 2539.24 -2.97101 2.14771 0
M  V30 27630 H 2538.88 -4.98084 0.701524 0
M  V30 27631 H 2538.58 -5.35587 2.41704 0
M  V30 27632 H 2540.11 -5.88 1.64586 0
M  V30 27633 H 2541.52 -4.5503 3.48742 0
M  V30 27634 H 2539.92 -4.26229 4.22432 0
M  V30 27635 H 2540.99 -2.88752 3.89552 0
M  V30 27636 N 2542.33 -1.17248 -1.05312 0
M  V30 27637 C 2543.56 -0.98518 -1.82507 0
M  V30 27638 C 2543.98 0.461756 -1.82344 0
M  V30 27639 O 2543.34 1.33053 -1.23153 0
M  V30 27640 C 2543.39 -1.52935 -3.26563 0
M  V30 27641 O 2542.49 -0.742296 -4.05665 0
M  V30 27642 H 2541.83 -0.349879 -0.564341 0
M  V30 27643 H 2544.36 -1.55718 -1.32715 0
M  V30 27644 H 2544.37 -1.5511 -3.77366 0
M  V30 27645 H 2543.05 -2.58262 -3.25996 0
M  V30 27646 H 2541.62 -0.791858 -3.64395 0
M  V30 27647 N 2543.81 1.24015 -0.972531 0
M  V30 27648 C 2545.06 1.91838 -0.63581 0
M  V30 27649 C 2545.38 1.76346 0.832281 0
M  V30 27650 O 2544.65 1.13798 1.59458 0
M  V30 27651 H 2543.23 0.710005 -0.232169 0
M  V30 27652 H 2545.89 1.50806 -1.23464 0
M  V30 27653 H 2544.99 2.99419 -0.880597 0
M  V30 27654 N 2545.29 0.743226 1.38974 0
M  V30 27655 C 2546.7 0.419691 1.53983 0
M  V30 27656 C 2546.9 -1.06847 1.70839 0
M  V30 27657 O 2545.96 -1.85457 1.71353 0
M  V30 27658 C 2547.27 1.2099 2.75285 0
M  V30 27659 C 2548.82 1.19894 2.89127 0
M  V30 27660 C 2549.3 1.97188 4.13377 0
M  V30 27661 N 2550.79 1.94396 4.20434 0
M  V30 27662 C 2551.52 2.51005 5.15542 0
M  V30 27663 N 2551.02 3.16285 6.16389 0
M  V30 27664 N 2552.81 2.40992 5.07818 0
M  V30 27665 H 2544.96 1.70782 1.26282 0
M  V30 27666 H 2547.23 0.723417 0.612676 0
M  V30 27667 H 2546.93 2.26327 2.692 0
M  V30 27668 H 2546.81 0.819824 3.68183 0
M  V30 27669 H 2549.19 0.153657 2.947 0
M  V30 27670 H 2549.27 1.62845 1.9727 0
M  V30 27671 H 2548.92 3.01722 4.08566 0
M  V30 27672 H 2548.85 1.51638 5.04295 0
M  V30 27673 H 2551.34 1.46845 3.48202 0
M  V30 27674 H 2551.65 3.56927 6.85436 0
M  V30 27675 H 2550 3.20377 6.16752 0
M  V30 27676 H 2553.19 1.89629 4.2797 0
M  V30 27677 H 2553.36 2.85408 5.81761 0
M  V30 27678 N 2546.77 -1.4974 0.491491 0
M  V30 27679 C 2547.68 -2.32715 -0.296794 0
M  V30 27680 C 2548.69 -1.44015 -0.97651 0
M  V30 27681 O 2549.87 -1.77048 -0.959992 0
M  V30 27682 C 2546.93 -3.19217 -1.35283 0
M  V30 27683 C 2545.99 -4.23758 -0.687557 0
M  V30 27684 C 2545.23 -5.06126 -1.69328 0
M  V30 27685 O 2545.45 -4.89866 -2.92211 0
M  V30 27686 O 2544.38 -5.88696 -1.25384 0
M  V30 27687 H 2548.21 -3.01287 0.382101 0
M  V30 27688 H 2545.8 -1.47243 0.252979 0
M  V30 27689 H 2547.68 -3.72831 -1.96404 0
M  V30 27690 H 2546.35 -2.53351 -2.01482 0
M  V30 27691 H 2545.26 -3.74082 -0.0368502 0
M  V30 27692 H 2546.59 -4.92153 -0.0681701 0
M  V30 27693 N 2548.24 -0.224922 -1.55987 0
M  V30 27694 C 2549.66 0.130398 -1.59066 0
M  V30 27695 C 2549.86 1.58688 -1.24179 0
M  V30 27696 O 2548.92 2.32764 -0.978633 0
M  V30 27697 C 2550.23 -0.198935 -3.00041 0
M  V30 27698 C 2551.78 -0.141446 -3.1268 0
M  V30 27699 C 2552.25 -0.444502 -4.55838 0
M  V30 27700 N 2553.74 -0.394196 -4.6152 0
M  V30 27701 C 2554.48 -0.602138 -5.7023 0
M  V30 27702 N 2553.97 -0.872035 -6.8729 0
M  V30 27703 N 2555.77 -0.534344 -5.59554 0
M  V30 27704 H 2547.92 -1.17501 -1.76939 0
M  V30 27705 H 2550.18 -0.471212 -0.822596 0
M  V30 27706 H 2549.89 -1.20995 -3.30232 0
M  V30 27707 H 2549.76 0.48447 -3.74076 0
M  V30 27708 H 2552.15 0.860215 -2.82284 0
M  V30 27709 H 2552.23 -0.858377 -2.40968 0
M  V30 27710 H 2551.87 -1.44362 -4.86952 0
M  V30 27711 H 2551.8 0.29366 -5.25781 0
M  V30 27712 H 2554.29 -0.193422 -3.77405 0
M  V30 27713 H 2554.61 -1.01871 -7.66056 0
M  V30 27714 H 2552.95 -0.909266 -6.89026 0
M  V30 27715 H 2556.14 -0.323694 -4.66979 0
M  V30 27716 H 2556.32 -0.699806 -6.4421 0
M  V30 27717 N 2549.72 1.57526 0.0484352 0
M  V30 27718 C 2550.69 2.04271 1.03952 0
M  V30 27719 C 2551.69 0.943519 1.30209 0
M  V30 27720 O 2552.88 1.20773 1.25537 0
M  V30 27721 C 2550.01 2.44323 2.37737 0
M  V30 27722 H 2551.2 2.93076 0.63613 0
M  V30 27723 H 2548.75 1.53495 0.294784 0
M  V30 27724 H 2549.49 1.58615 2.82863 0
M  V30 27725 H 2549.27 3.24555 2.20015 0
M  V30 27726 H 2550.76 2.80983 3.08931 0
M  V30 27727 N 2551.2 -0.32033 1.5431 0
M  V30 27728 C 2552.13 -1.39947 1.86915 0
M  V30 27729 C 2553.11 -1.53817 0.726238 0
M  V30 27730 O 2554.3 -1.67644 0.980262 0
M  V30 27731 C 2551.43 -2.76666 2.09936 0
M  V30 27732 C 2550.38 -2.77581 3.25781 0
M  V30 27733 C 2549.71 -4.17406 3.34181 0
M  V30 27734 C 2551.01 -2.4104 4.63354 0
M  V30 27735 H 2552.7 -1.12909 2.77294 0
M  V30 27736 H 2550.25 -0.541715 1.33422 0
M  V30 27737 H 2552.2 -3.52228 2.3133 0
M  V30 27738 H 2550.92 -3.05188 1.1631 0
M  V30 27739 H 2549.58 -2.04474 3.04279 0
M  V30 27740 H 2549.23 -4.43074 2.38106 0
M  V30 27741 H 2548.93 -4.18923 4.1204 0
M  V30 27742 H 2550.45 -4.94776 3.57812 0
M  V30 27743 H 2551.87 -3.06315 4.84607 0
M  V30 27744 H 2550.27 -2.53803 5.43787 0
M  V30 27745 H 2551.34 -1.36185 4.65383 0
M  V30 27746 N 2552.68 -1.46438 -0.582558 0
M  V30 27747 C 2554.09 -1.31396 -0.905939 0
M  V30 27748 C 2554.29 -0.285511 -1.99467 0
M  V30 27749 O 2553.35 0.311869 -2.50567 0
M  V30 27750 C 2554.66 -2.70024 -1.32315 0
M  V30 27751 C 2556.21 -2.78116 -1.43599 0
M  V30 27752 C 2556.69 -4.17326 -1.88687 0
M  V30 27753 N 2558.18 -4.19744 -1.9588 0
M  V30 27754 C 2558.91 -5.24351 -2.32042 0
M  V30 27755 N 2558.41 -6.39285 -2.66995 0
M  V30 27756 N 2560.2 -5.11718 -2.32597 0
M  V30 27757 H 2552.35 -2.1196 0.136638 0
M  V30 27758 H 2554.62 -0.947999 -0.0015407 0
M  V30 27759 H 2554.32 -3.46593 -0.597181 0
M  V30 27760 H 2554.2 -3.0014 -2.28464 0
M  V30 27761 H 2556.58 -2.01835 -2.15282 0
M  V30 27762 H 2556.66 -2.51684 -0.457014 0
M  V30 27763 H 2556.31 -4.94102 -1.17582 0
M  V30 27764 H 2556.24 -4.41165 -2.87543 0
M  V30 27765 H 2558.73 -3.36817 -1.71356 0
M  V30 27766 H 2559.04 -7.1488 -2.93542 0
M  V30 27767 H 2557.39 -6.42646 -2.64633 0
M  V30 27768 H 2560.58 -4.20963 -2.04713 0
M  V30 27769 H 2560.75 -5.93354 -2.60452 0
M  V30 27770 N 2554.16 0.827204 -1.34146 0
M  V30 27771 C 2555.57 1.39964 -1.23559 0
M  V30 27772 C 2555.92 1.95695 0.140697 0
M  V30 27773 O 2555.04 1.89725 1.04084 0
M  V30 27774 C 2555.64 2.54437 -2.23712 0
M  V30 27775 C 2554.2 3.07601 -2.1693 0
M  V30 27776 C 2553.34 1.80452 -2.10552 0
M  V30 27777 H 2556.3 0.631965 -1.45574 0
M  V30 27778 H 2556.32 3.32408 -1.85163 0
M  V30 27779 H 2555.83 2.13845 -3.2387 0
M  V30 27780 H 2553.93 3.52709 -1.20113 0
M  V30 27781 H 2554.04 3.66982 -3.07995 0
M  V30 27782 H 2552.41 2.01175 -1.56207 0
M  V30 27783 H 2553.19 1.4204 -3.12537 0
M  V30 27784 N 2555.63 1.17805 1.04688 0
M  V30 27785 C 2556.58 0.895673 2.14664 0
M  V30 27786 C 2557.58 -0.14165 1.68807 0
M  V30 27787 O 2558.78 0.00591078 1.79999 0
M  V30 27788 H 2555.16 0.272134 0.701033 0
M  V30 27789 H 2557.13 1.83021 2.35682 0
M  V30 27790 C 2555.88 0.431023 3.45018 0
M  V30 27791 H 2555.2 1.2207 3.80708 0
M  V30 27792 H 2556.64 0.272376 4.23124 0
M  V30 27793 C 2555.1 -0.85215 3.25945 0
M  V30 27794 O 2555.63 -1.9178 3.52964 0
M  V30 27795 N 2553.84 -0.802297 2.79305 0
M  V30 27796 H 2553.38 0.0651241 2.57518 0
M  V30 27797 H 2553.34 -1.66129 2.66924 0
M  V30 27798 N 2557.11 -1.23497 0.979094 0
M  V30 27799 C 2558.53 -1.44033 0.687501 0
M  V30 27800 C 2558.73 -1.87151 -0.746768 0
M  V30 27801 O 2557.78 -2.01672 -1.51936 0
M  V30 27802 C 2559.1 -2.49304 1.68131 0
M  V30 27803 C 2560.65 -2.63119 1.69521 0
M  V30 27804 C 2561.12 -3.71598 2.67729 0
M  V30 27805 N 2562.61 -3.79039 2.6624 0
M  V30 27806 C 2563.35 -4.62531 3.38899 0
M  V30 27807 N 2562.84 -5.50123 4.21113 0
M  V30 27808 N 2564.64 -4.56716 3.2767 0
M  V30 27809 H 2556.79 -0.938101 1.90561 0
M  V30 27810 H 2559.05 -0.473883 0.82106 0
M  V30 27811 H 2558.76 -2.24536 2.70697 0
M  V30 27812 H 2558.63 -3.47668 1.46312 0
M  V30 27813 H 2561.02 -2.87239 0.676612 0
M  V30 27814 H 2561.1 -1.65076 1.95406 0
M  V30 27815 H 2560.74 -3.48227 3.6973 0
M  V30 27816 H 2560.67 -4.6918 2.39119 0
M  V30 27817 H 2563.16 -3.16443 2.06573 0
M  V30 27818 H 2563.48 -6.10819 4.73414 0
M  V30 27819 H 2561.82 -5.49751 4.25204 0
M  V30 27820 H 2565.01 -3.87304 2.62893 0
M  V30 27821 H 2565.18 -5.21556 3.84556 0
M  V30 27822 N 2558.59 -0.750586 -1.38578 0
M  V30 27823 C 2559.52 -0.069354 -2.28095 0
M  V30 27824 C 2560.5 0.731465 -1.45218 0
M  V30 27825 O 2561.69 0.71073 -1.74588 0
M  V30 27826 C 2558.81 0.908653 -3.26284 0
M  V30 27827 C 2557.86 0.194432 -4.26057 0
M  V30 27828 S 2558.69 -1.10266 -5.24024 0
M  V30 27829 C 2559.85 -0.127652 -6.2577 0
M  V30 27830 H 2560.08 -0.82845 -2.85524 0
M  V30 27831 H 2557.61 -0.543039 -1.44535 0
M  V30 27832 H 2559.57 1.46759 -3.83369 0
M  V30 27833 H 2558.23 1.6407 -2.67843 0
M  V30 27834 H 2557.43 0.935033 -4.95251 0
M  V30 27835 H 2557.03 -0.292902 -3.72851 0
M  V30 27836 H 2559.32 0.707398 -6.73797 0
M  V30 27837 H 2560.26 -0.787168 -7.03711 0
M  V30 27838 H 2560.67 0.251704 -5.63939 0
M  V30 27839 N 2560.07 1.49477 -0.499425 0
M  V30 27840 C 2561.3 2.06556 0.0424476 0
M  V30 27841 C 2561.71 1.3602 1.31511 0
M  V30 27842 O 2561.05 0.431749 1.78554 0
M  V30 27843 C 2561.11 3.57611 0.368012 0
M  V30 27844 C 2560.78 4.49824 -0.80671 0
M  V30 27845 C 2561.77 4.91433 -1.69676 0
M  V30 27846 C 2559.46 4.92142 -1.00507 0
M  V30 27847 C 2561.45 5.74097 -2.76933 0
M  V30 27848 C 2559.14 5.74583 -2.08082 0
M  V30 27849 C 2560.14 6.15464 -2.9613 0
M  V30 27850 O 2559.83 6.96257 -4.01848 0
M  V30 27851 H 2559.56 0.675798 -0.0165284 0
M  V30 27852 H 2562.11 1.93265 -0.695531 0
M  V30 27853 H 2560.34 3.68905 1.15956 0
M  V30 27854 H 2562.03 3.96936 0.848311 0
M  V30 27855 H 2562.8 4.59385 -1.55532 0
M  V30 27856 H 2558.68 4.59824 -0.329117 0
M  V30 27857 H 2562.22 6.05926 -3.45686 0
M  V30 27858 H 2558.12 6.06043 -2.22221 0
M  V30 27859 H 2558.88 7.1456 -3.99182 0
M  V30 27860 N 2561.55 0.233191 1.55865 0
M  V30 27861 C 2562.79 -0.389113 1.99643 0
M  V30 27862 C 2563.15 -1.56556 1.11839 0
M  V30 27863 O 2562.44 -1.90836 0.170882 0
M  V30 27864 C 2562.64 -0.861663 3.46858 0
M  V30 27865 C 2562.46 0.267454 4.48904 0
M  V30 27866 C 2561.23 0.737665 4.99887 0
M  V30 27867 C 2563.43 1.08975 5.02622 0
M  V30 27868 N 2561.41 1.84062 5.85657 0
M  V30 27869 C 2562.79 2.04135 5.85431 0
M  V30 27870 C 2564.84 1.12787 4.84957 0
M  V30 27871 C 2563.54 3.028 6.5246 0
M  V30 27872 C 2565.57 2.10276 5.52755 0
M  V30 27873 C 2564.93 3.04174 6.35341 0
M  V30 27874 H 2561.03 -0.108728 0.774404 0
M  V30 27875 H 2563.61 0.34763 1.91571 0
M  V30 27876 H 2561.79 -1.56773 3.55354 0
M  V30 27877 H 2563.52 -1.45776 3.77533 0
M  V30 27878 H 2560.27 0.324205 4.72489 0
M  V30 27879 H 2560.7 2.39446 6.33242 0
M  V30 27880 H 2565.34 0.415823 4.2075 0
M  V30 27881 H 2563.06 3.74961 7.15842 0
M  V30 27882 H 2566.64 2.13914 5.41047 0
M  V30 27883 H 2565.52 3.78378 6.86877 0
M  V30 27884 N 2563.03 -1.57549 -0.0400806 0
M  V30 27885 C 2564.44 -1.54621 -0.395529 0
M  V30 27886 C 2564.64 -0.95783 -1.77279 0
M  V30 27887 O 2563.7 -0.574074 -2.45887 0
M  V30 27888 C 2565.01 -2.99124 -0.307482 0
M  V30 27889 C 2566.56 -3.10619 -0.38537 0
M  V30 27890 C 2567.03 -4.56832 -0.326892 0
M  V30 27891 N 2568.52 -4.61589 -0.386021 0
M  V30 27892 C 2569.26 -5.72247 -0.36349 0
M  V30 27893 N 2568.76 -6.92176 -0.293899 0
M  V30 27894 N 2570.55 -5.60585 -0.412405 0
M  V30 27895 H 2562.7 -1.9415 0.861359 0
M  V30 27896 H 2564.96 -0.890015 0.326461 0
M  V30 27897 H 2564.67 -3.45855 0.638522 0
M  V30 27898 H 2564.54 -3.60638 -1.10545 0
M  V30 27899 H 2566.93 -2.63842 -1.3218 0
M  V30 27900 H 2567.01 -2.51957 0.441755 0
M  V30 27901 H 2566.65 -5.04274 0.605827 0
M  V30 27902 H 2566.58 -5.13393 -1.17198 0
M  V30 27903 H 2569.08 -3.75297 -0.442766 0
M  V30 27904 H 2569.39 -7.72287 -0.281504 0
M  V30 27905 H 2567.73 -6.94513 -0.26011 0
M  V30 27906 H 2570.92 -4.65788 -0.464687 0
M  V30 27907 H 2571.1 -6.46817 -0.391378 0
M  V30 27908 N 2564.5 0.312142 -1.54478 0
M  V30 27909 C 2565.44 1.40595 -1.81013 0
M  V30 27910 C 2566.45 1.47334 -0.692572 0
M  V30 27911 O 2567.64 1.49852 -0.969873 0
M  V30 27912 C 2564.74 2.79051 -1.92312 0
M  V30 27913 C 2563.91 2.95378 -3.22599 0
M  V30 27914 C 2562.97 4.14264 -3.24455 0
M  V30 27915 O 2562 4.0688 -3.98042 0
M  V30 27916 N 2563.2 5.2436 -2.49052 0
M  V30 27917 H 2565.96 1.18192 -2.7541 0
M  V30 27918 H 2563.52 0.502175 -1.53915 0
M  V30 27919 H 2565.52 3.5681 -1.90968 0
M  V30 27920 H 2564.09 2.94452 -1.0496 0
M  V30 27921 H 2563.31 2.04825 -3.36809 0
M  V30 27922 H 2564.59 3.03191 -4.08599 0
M  V30 27923 H 2563.99 5.33237 -1.88877 0
M  V30 27924 H 2562.55 6.00495 -2.53473 0
M  V30 27925 N 2565.98 1.46745 0.574784 0
M  V30 27926 C 2567.23 1.52163 1.33006 0
M  V30 27927 C 2567.55 0.178126 1.94185 0
M  V30 27928 O 2566.82 -0.796165 1.78992 0
M  V30 27929 H 2565.4 0.560454 0.493863 0
M  V30 27930 H 2568.06 1.82928 0.672557 0
M  V30 27931 H 2567.16 2.27866 2.13269 0
M  V30 27932 N 2567.46 -0.820078 1.34583 0
M  V30 27933 C 2568.71 -1.57149 1.2644 0
M  V30 27934 C 2569.02 -1.94919 -0.163076 0
M  V30 27935 O 2570.23 -2.69013 -0.366675 0
M  V30 27936 C 2568.68 -2.83537 2.21663 0
M  V30 27937 C 2568.29 -2.53058 3.69683 0
M  V30 27938 C 2570.04 -3.61557 2.22434 0
M  V30 27939 C 2567.94 -3.75656 4.56767 0
M  V30 27940 H 2566.87 -0.589815 0.469718 0
M  V30 27941 H 2569.52 -0.902628 1.59765 0
M  V30 27942 H 2567.91 -3.52064 1.81293 0
M  V30 27943 H 2569.08 -1.92624 4.18608 0
M  V30 27944 H 2567.39 -1.88309 3.71387 0
M  V30 27945 H 2569.99 -4.52592 2.84718 0
M  V30 27946 H 2570.33 -3.97887 1.22441 0
M  V30 27947 H 2570.87 -2.99977 2.61264 0
M  V30 27948 H 2567.61 -3.44445 5.57708 0
M  V30 27949 H 2567.13 -4.35363 4.12576 0
M  V30 27950 H 2568.81 -4.43036 4.71517 0
M  V30 27951 N 2568.94 -1.18359 -1.04062 0
M  V30 27952 C 2570.17 -1.00241 -1.80652 0
M  V30 27953 C 2570.58 0.45233 -1.83713 0
M  V30 27954 O 2569.92 1.32596 -1.27137 0
M  V30 27955 C 2569.98 -1.48094 -3.2758 0
M  V30 27956 C 2569.64 -2.96008 -3.48179 0
M  V30 27957 C 2570.64 -3.93862 -3.39365 0
M  V30 27958 C 2568.33 -3.34439 -3.74774 0
M  V30 27959 C 2570.32 -5.28144 -3.56851 0
M  V30 27960 C 2568.01 -4.68884 -3.91907 0
M  V30 27961 C 2569.01 -5.65545 -3.82946 0
M  V30 27962 O 2568.69 -6.97556 -3.99588 0
M  V30 27963 H 2568.43 -0.354251 -0.575745 0
M  V30 27964 H 2570.98 -1.57335 -1.32041 0
M  V30 27965 H 2569.21 -0.853654 -3.7716 0
M  V30 27966 H 2570.9 -1.26367 -3.85728 0
M  V30 27967 H 2571.66 -3.65517 -3.18783 0
M  V30 27968 H 2567.54 -2.59762 -3.80847 0
M  V30 27969 H 2571.09 -6.03577 -3.49773 0
M  V30 27970 H 2566.98 -4.9693 -4.11984 0
M  V30 27971 H 2567.75 -7.0446 -4.16748 0
M  V30 27972 N 2570.42 1.22976 -0.98563 0
M  V30 27973 C 2571.35 2.26938 -0.549689 0
M  V30 27974 C 2572.33 1.64839 0.419774 0
M  V30 27975 O 2573.51 1.91677 0.311997 0
M  V30 27976 C 2570.64 3.47003 0.143591 0
M  V30 27977 C 2569.6 4.2149 -0.74368 0
M  V30 27978 C 2568.92 5.34637 0.0821087 0
M  V30 27979 C 2570.22 4.80939 -2.03703 0
M  V30 27980 H 2571.92 2.63655 -1.41867 0
M  V30 27981 H 2569.46 1.2674 -0.683594 0
M  V30 27982 H 2571.41 4.18883 0.459911 0
M  V30 27983 H 2570.14 3.09361 1.04706 0
M  V30 27984 H 2568.8 3.51434 -1.04353 0
M  V30 27985 H 2568.45 4.93236 0.986272 0
M  V30 27986 H 2568.15 5.85396 -0.50848 0
M  V30 27987 H 2569.67 6.09336 0.39269 0
M  V30 27988 H 2571.08 5.44799 -1.78513 0
M  V30 27989 H 2569.48 5.42007 -2.57583 0
M  V30 27990 H 2570.55 4.01394 -2.72049 0
M  V30 27991 N 2571.89 0.757924 1.38178 0
M  V30 27992 C 2572.84 0.122523 2.32277 0
M  V30 27993 C 2573.84 -0.700478 1.54239 0
M  V30 27994 O 2575.04 -0.599089 1.69738 0
M  V30 27995 H 2571.42 0.0208275 0.751712 0
M  V30 27996 H 2573.39 0.932148 2.83467 0
M  V30 27997 C 2572.14 -0.753016 3.39448 0
M  V30 27998 H 2571.46 -0.129114 3.99591 0
M  V30 27999 H 2572.9 -1.16482 4.07686 0
M  V30 28000 C 2571.36 -1.89755 2.78378 0
M  V30 28001 O 2571.89 -2.99204 2.6803 0
M  V30 28002 N 2570.09 -1.69392 2.36124 0
M  V30 28003 H 2569.64 -0.803719 2.44741 0
M  V30 28004 H 2569.6 -2.46141 1.95606 0
M  V30 28005 N 2573.37 -1.4921 0.507345 0
M  V30 28006 C 2574.62 -2.03382 -0.0269375 0
M  V30 28007 C 2574.97 -1.37959 -1.34108 0
M  V30 28008 O 2574.27 -0.508384 -1.84732 0
M  V30 28009 C 2574.46 -3.56663 -0.22945 0
M  V30 28010 C 2574.29 -4.36943 1.06351 0
M  V30 28011 C 2573.06 -4.78726 1.61709 0
M  V30 28012 C 2575.26 -4.7514 1.96841 0
M  V30 28013 N 2573.24 -5.43458 2.85529 0
M  V30 28014 C 2574.61 -5.39656 3.0524 0
M  V30 28015 C 2576.67 -4.57079 1.97442 0
M  V30 28016 C 2575.37 -5.88021 4.14275 0
M  V30 28017 C 2577.39 -5.06409 3.05457 0
M  V30 28018 C 2576.76 -5.70931 4.12574 0
M  V30 28019 H 2572.86 -0.781382 0.031081 0
M  V30 28020 H 2575.44 -1.82304 0.683611 0
M  V30 28021 H 2573.61 -3.77612 -0.90906 0
M  V30 28022 H 2575.34 -3.97475 -0.761307 0
M  V30 28023 H 2572.1 -4.59139 1.16141 0
M  V30 28024 H 2572.52 -5.80405 3.48509 0
M  V30 28025 H 2577.16 -4.06595 1.15931 0
M  V30 28026 H 2574.88 -6.37522 4.9658 0
M  V30 28027 H 2578.47 -4.9424 3.06949 0
M  V30 28028 H 2577.35 -6.08411 4.94778 0
M  V30 28029 N 2574.85 -0.241454 -1.55739 0
M  V30 28030 C 2576.08 0.392076 -2.0366 0
M  V30 28031 C 2576.5 1.51142 -1.11971 0
M  V30 28032 O 2575.86 1.80956 -0.111626 0
M  V30 28033 C 2575.91 0.882309 -3.49639 0
M  V30 28034 O 2575.01 1.99229 -3.61084 0
M  V30 28035 H 2574.35 0.0862006 -0.658381 0
M  V30 28036 H 2576.88 -0.365917 -2.01301 0
M  V30 28037 H 2576.89 1.18695 -3.90353 0
M  V30 28038 H 2575.57 0.063163 -4.15852 0
M  V30 28039 H 2574.14 1.69276 -3.32265 0
M  V30 28040 N 2576.33 1.57568 0.0317248 0
M  V30 28041 C 2577.74 1.77506 0.57866 0
M  V30 28042 C 2578.09 0.872195 1.75748 0
M  V30 28043 O 2577.22 0.0663487 2.16298 0
M  V30 28044 C 2577.81 3.21905 1.05652 0
M  V30 28045 C 2576.37 3.4305 1.549 0
M  V30 28046 C 2575.52 2.7301 0.485891 0
M  V30 28047 H 2578.47 1.57504 -0.194502 0
M  V30 28048 H 2578.49 3.28273 1.92399 0
M  V30 28049 H 2578 3.87593 0.198354 0
M  V30 28050 H 2576.1 2.82534 2.4291 0
M  V30 28051 H 2576.21 4.51653 1.59833 0
M  V30 28052 H 2574.58 2.36707 0.940313 0
M  V30 28053 H 2575.36 3.41378 -0.362769 0
M  V30 28054 N 2577.81 -0.303946 1.54641 0
M  V30 28055 C 2578.72 -1.3974 1.88441 0
M  V30 28056 C 2579.73 -1.55625 0.778266 0
M  V30 28057 O 2580.91 -1.70345 1.07445 0
M  V30 28058 C 2577.97 -2.74162 2.12217 0
M  V30 28059 C 2577.03 -2.67287 3.35941 0
M  V30 28060 C 2576.27 -3.95298 3.58573 0
M  V30 28061 O 2576.49 -4.94515 2.84272 0
M  V30 28062 O 2575.42 -3.9737 4.52085 0
M  V30 28063 H 2579.25 -1.14078 2.8146 0
M  V30 28064 H 2576.84 -0.499744 1.40794 0
M  V30 28065 H 2578.72 -3.53699 2.29073 0
M  V30 28066 H 2577.39 -2.99673 1.22384 0
M  V30 28067 H 2576.3 -1.86232 3.24451 0
M  V30 28068 H 2577.63 -2.46729 4.25894 0
M  V30 28069 N 2579.28 -1.47047 -0.566994 0
M  V30 28070 C 2580.25 -1.58362 -1.65693 0
M  V30 28071 C 2581.25 -0.459469 -1.54096 0
M  V30 28072 O 2582.44 -0.724253 -1.5843 0
M  V30 28073 C 2579.57 -1.51885 -3.05195 0
M  V30 28074 H 2580.76 -2.55512 -1.57014 0
M  V30 28075 H 2578.32 -1.35092 -0.786125 0
M  V30 28076 H 2579.05 -0.560729 -3.19416 0
M  V30 28077 H 2578.84 -2.33461 -3.15021 0
M  V30 28078 H 2580.33 -1.6292 -3.84508 0
M  V30 28079 N 2580.76 0.812929 -1.35016 0
M  V30 28080 C 2581.99 1.59886 -1.30844 0
M  V30 28081 C 2582.4 1.88835 0.117542 0
M  V30 28082 O 2581.74 1.48741 1.07805 0
M  V30 28083 C 2581.81 2.95928 -2.04125 0
M  V30 28084 C 2581.47 2.89826 -3.53341 0
M  V30 28085 C 2582.47 2.63707 -4.48057 0
M  V30 28086 C 2580.15 3.09143 -3.95899 0
M  V30 28087 C 2582.15 2.56971 -5.83305 0
M  V30 28088 C 2579.83 3.02031 -5.31244 0
M  V30 28089 C 2580.83 2.7598 -6.24759 0
M  V30 28090 O 2580.52 2.68819 -7.57622 0
M  V30 28091 H 2580.25 0.503362 -0.451224 0
M  V30 28092 H 2582.8 1.01874 -1.78356 0
M  V30 28093 H 2581.03 3.55898 -1.51241 0
M  V30 28094 H 2582.72 3.57018 -1.93113 0
M  V30 28095 H 2583.49 2.48508 -4.16496 0
M  V30 28096 H 2579.37 3.28433 -3.23501 0
M  V30 28097 H 2582.91 2.36558 -6.56267 0
M  V30 28098 H 2578.81 3.16786 -5.62421 0
M  V30 28099 H 2579.58 2.84474 -7.67474 0
M  V30 28100 N 2582.24 1.18909 1.03433 0
M  V30 28101 C 2583.48 0.999422 1.783 0
M  V30 28102 C 2583.84 -0.462186 1.86354 0
M  V30 28103 O 2585.05 -0.771497 2.5749 0
M  V30 28104 C 2583.32 1.64371 3.17359 0
M  V30 28105 S 2584.88 1.60267 4.08485 0
M  V30 28106 H 2581.69 0.358753 0.613854 0
M  V30 28107 H 2584.3 1.51163 1.23976 0
M  V30 28108 H 2583 2.6996 3.09111 0
M  V30 28109 H 2582.53 1.13206 3.7676 0
M  V30 28110 H 2584.55 0.623019 4.92273 0
M  V30 28111 N 2583.72 -1.22452 0.992137 0
M  V30 28112 C 2584.65 -2.26643 0.561716 0
M  V30 28113 C 2585.63 -1.65059 -0.411026 0
M  V30 28114 O 2586.81 -1.9184 -0.301827 0
M  V30 28115 C 2583.94 -3.47074 -0.125186 0
M  V30 28116 C 2582.9 -4.21089 0.766022 0
M  V30 28117 C 2582.22 -5.34673 -0.0537544 0
M  V30 28118 C 2583.52 -4.79852 2.0625 0
M  V30 28119 H 2585.22 -2.62899 1.43263 0
M  V30 28120 H 2582.76 -1.26376 0.690305 0
M  V30 28121 H 2584.72 -4.19121 -0.43769 0
M  V30 28122 H 2583.44 -3.09912 -1.03064 0
M  V30 28123 H 2582.1 -3.50876 1.06216 0
M  V30 28124 H 2581.75 -4.93752 -0.960101 0
M  V30 28125 H 2581.45 -5.85118 0.539517 0
M  V30 28126 H 2582.97 -6.09536 -0.36037 0
M  V30 28127 H 2584.39 -5.43845 1.814 0
M  V30 28128 H 2582.78 -5.40633 2.60453 0
M  V30 28129 H 2583.85 -3.99946 2.74174 0
M  V30 28130 N 2585.2 -0.765242 -1.37774 0
M  V30 28131 C 2586.44 -0.327107 -2.00145 0
M  V30 28132 C 2586.78 1.09172 -1.60609 0
M  V30 28133 O 2586.05 1.74984 -0.849158 0
M  V30 28134 C 2586.33 -0.463252 -3.57108 0
M  V30 28135 C 2586.19 -1.92402 -4.06573 0
M  V30 28136 C 2587.51 0.136396 -4.39889 0
M  V30 28137 H 2584.62 -0.120329 -0.727111 0
M  V30 28138 H 2587.27 -0.967068 -1.63548 0
M  V30 28139 H 2585.42 0.0815675 -3.88414 0
M  V30 28140 H 2587.09 -2.52805 -3.85859 0
M  V30 28141 H 2585.33 -2.43509 -3.59007 0
M  V30 28142 H 2586 -1.97038 -5.15636 0
M  V30 28143 H 2588.48 -0.328389 -4.14802 0
M  V30 28144 H 2587.35 0.0109617 -5.48899 0
M  V30 28145 H 2587.62 1.226 -4.24761 0
M  V30 28146 N 2586.67 1.48939 -0.515251 0
M  V30 28147 C 2587.92 2.02086 0.0241316 0
M  V30 28148 C 2588.24 1.39593 1.36157 0
M  V30 28149 O 2587.51 0.556154 1.8784 0
M  V30 28150 H 2586.09 0.746905 0.0119072 0
M  V30 28151 H 2588.76 1.82811 -0.675734 0
M  V30 28152 H 2587.85 3.11771 0.143331 0
M  V30 28153 N 2588.15 0.249709 1.55609 0
M  V30 28154 C 2589.38 -0.381269 2.03865 0
M  V30 28155 C 2589.8 -1.50546 1.12771 0
M  V30 28156 O 2589.16 -1.80894 0.121221 0
M  V30 28157 C 2589.21 -0.863754 3.50102 0
M  V30 28158 O 2588.31 -1.97311 3.62135 0
M  V30 28159 H 2587.65 -0.0827079 0.658829 0
M  V30 28160 H 2590.18 0.376587 2.01104 0
M  V30 28161 H 2590.19 -1.16623 3.90977 0
M  V30 28162 H 2588.87 -0.0411085 4.1588 0
M  V30 28163 H 2587.45 -1.67512 3.33158 0
M  V30 28164 N 2589.63 -1.57583 -0.0233682 0
M  V30 28165 C 2590.54 -2.10336 -1.03904 0
M  V30 28166 C 2591.56 -1.04326 -1.39256 0
M  V30 28167 O 2592.73 -1.36094 -1.4846 0
M  V30 28168 C 2589.8 -2.57697 -2.31933 0
M  V30 28169 C 2588.86 -3.78213 -2.0311 0
M  V30 28170 C 2588.09 -4.23306 -3.25036 0
M  V30 28171 O 2588.32 -3.67884 -4.3591 0
M  V30 28172 O 2587.25 -5.15688 -3.10402 0
M  V30 28173 H 2591.08 -2.9729 -0.620695 0
M  V30 28174 H 2588.66 -1.47448 -0.240717 0
M  V30 28175 H 2590.54 -2.88464 -3.07191 0
M  V30 28176 H 2589.22 -1.73852 -2.73052 0
M  V30 28177 H 2588.12 -3.52456 -1.25402 0
M  V30 28178 H 2589.46 -4.63059 -1.66844 0
M  V30 28179 N 2591.11 0.29574 -1.548 0
M  V30 28180 C 2592.36 1.03181 -1.74589 0
M  V30 28181 C 2592.69 1.86743 -0.532995 0
M  V30 28182 O 2591.96 1.8874 0.469838 0
M  V30 28183 C 2592.25 1.93342 -3.03794 0
M  V30 28184 C 2592.1 1.12925 -4.35394 0
M  V30 28185 C 2593.42 2.92429 -3.28897 0
M  V30 28186 H 2590.54 0.373704 -0.635228 0
M  V30 28187 H 2593.18 0.306027 -1.87519 0
M  V30 28188 H 2591.33 2.55227 -2.92902 0
M  V30 28189 H 2593 0.532863 -4.58212 0
M  V30 28190 H 2591.24 0.432092 -4.31643 0
M  V30 28191 H 2591.92 1.79275 -5.22077 0
M  V30 28192 H 2594.39 2.40674 -3.39434 0
M  V30 28193 H 2593.27 3.52675 -4.20609 0
M  V30 28194 H 2593.53 3.66366 -2.47444 0
M  V30 28195 N 2592.59 1.47346 0.559187 0
M  V30 28196 C 2593.52 1.62561 1.67619 0
M  V30 28197 C 2594.5 0.475115 1.6333 0
M  V30 28198 O 2595.68 0.704214 1.80982 0
M  V30 28199 C 2592.81 1.6378 3.06257 0
M  V30 28200 C 2591.77 2.78036 3.25392 0
M  V30 28201 C 2591.09 2.64326 4.64796 0
M  V30 28202 C 2592.39 4.19646 3.10957 0
M  V30 28203 H 2594.09 2.56069 1.55142 0
M  V30 28204 H 2591.63 1.23234 0.74494 0
M  V30 28205 H 2593.59 1.73015 3.84244 0
M  V30 28206 H 2592.31 0.668306 3.19689 0
M  V30 28207 H 2590.97 2.68308 2.49812 0
M  V30 28208 H 2590.62 1.65409 4.75025 0
M  V30 28209 H 2590.32 3.40977 4.78549 0
M  V30 28210 H 2591.84 2.75487 5.44921 0
M  V30 28211 H 2593.26 4.30361 3.78764 0
M  V30 28212 H 2591.65 4.97068 3.3622 0
M  V30 28213 H 2592.72 4.38152 2.07729 0
M  V30 28214 N 2594.07 -0.805758 1.35445 0
M  V30 28215 C 2595.34 -1.54985 1.19328 0
M  V30 28216 C 2595.72 -2.09873 -0.227257 0
M  V30 28217 O 2595.07 -1.92514 -1.23087 0
M  V30 28218 C 2595.28 -2.65771 2.262 0
M  V30 28219 C 2596.63 -3.34089 2.62049 0
M  V30 28220 O 2597.65 -2.76042 2.2512 0
M  V30 28221 O 2596.51 -4.38953 3.2555 0
M  V30 28222 H 2593.61 -0.684815 0.463635 0
M  V30 28223 H 2596.15 -0.845648 1.47129 0
M  V30 28224 H 2594.92 -2.2309 3.21475 0
M  V30 28225 H 2594.55 -3.43826 1.99673 0
M  V30 28226 N 2595.54 -1.19456 -1.02801 0
M  V30 28227 C 2596.49 -0.929711 -2.13211 0
M  V30 28228 C 2597.49 0.114776 -1.69011 0
M  V30 28229 O 2598.69 -0.0345463 -1.79967 0
M  V30 28230 H 2595.07 -0.283252 -0.696615 0
M  V30 28231 H 2597.04 -1.86747 -2.3274 0
M  V30 28232 C 2595.79 -0.485858 -3.44289 0
M  V30 28233 H 2595.11 -1.28112 -3.78718 0
M  V30 28234 H 2596.55 -0.339656 -4.22637 0
M  V30 28235 C 2595.01 0.800187 -3.27259 0
M  V30 28236 O 2595.54 1.8614 -3.5597 0
M  V30 28237 N 2593.74 0.75776 -2.80547 0
M  V30 28238 H 2593.29 -0.106085 -2.57381 0
M  V30 28239 H 2593.25 1.61862 -2.69533 0
M  V30 28240 N 2597.02 1.21924 -0.998617 0
M  V30 28241 C 2597.97 2.21878 -0.524782 0
M  V30 28242 C 2598.96 1.55585 0.410143 0
M  V30 28243 O 2600.15 1.75419 0.236032 0
M  V30 28244 C 2597.28 3.42956 0.153576 0
M  V30 28245 C 2596.36 4.16448 -0.801991 0
M  V30 28246 N 2596.75 4.66608 -1.95219 0
M  V30 28247 C 2595.05 4.41683 -0.619049 0
M  V30 28248 C 2595.75 5.2271 -2.55243 0
M  V30 28249 N 2594.73 5.11706 -1.8346 0
M  V30 28250 H 2598.53 2.58308 -1.40193 0
M  V30 28251 H 2596.04 1.37659 -0.861614 0
M  V30 28252 H 2598.04 4.13763 0.510461 0
M  V30 28253 H 2596.7 3.08038 1.02679 0
M  V30 28254 H 2597.71 4.62387 -2.33279 0
M  V30 28255 H 2594.39 4.16983 0.207621 0
M  V30 28256 H 2595.78 5.7202 -3.52481 0
M  V30 28257 N 2598.5 0.772537 1.37367 0
M  V30 28258 C 2599.91 0.402525 1.82309 0
M  V30 28259 C 2600.26 -1.07144 1.64362 0
M  V30 28260 O 2599.39 -1.82988 1.15517 0
M  V30 28261 C 2599.98 0.723835 3.30977 0
M  V30 28262 C 2598.54 0.406868 3.74195 0
M  V30 28263 C 2597.69 0.967264 2.59883 0
M  V30 28264 H 2600.64 0.967121 1.25827 0
M  V30 28265 H 2600.66 0.0087752 3.80499 0
M  V30 28266 H 2600.17 1.79666 3.44008 0
M  V30 28267 H 2598.27 -0.658608 3.66733 0
M  V30 28268 H 2598.39 0.915671 4.70268 0
M  V30 28269 H 2596.75 0.39146 2.51674 0
M  V30 28270 H 2597.53 2.04551 2.75706 0
M  V30 28271 N 2599.98 -1.48664 0.523142 0
M  V30 28272 C 2600.89 -2.33292 -0.247365 0
M  V30 28273 C 2601.9 -1.46054 -0.945743 0
M  V30 28274 O 2603.08 -1.79045 -0.922221 0
M  V30 28275 C 2600.14 -3.22015 -1.28481 0
M  V30 28276 C 2599.21 -4.25121 -0.597517 0
M  V30 28277 C 2598.44 -5.09604 -1.58554 0
M  V30 28278 O 2598.66 -4.95954 -2.81754 0
M  V30 28279 O 2597.6 -5.91223 -1.12869 0
M  V30 28280 H 2601.42 -3.00408 0.445922 0
M  V30 28281 H 2599.01 -1.46673 0.284154 0
M  V30 28282 H 2600.89 -3.76914 -1.88452 0
M  V30 28283 H 2599.56 -2.57567 -1.96063 0
M  V30 28284 H 2598.47 -3.74076 0.0425064 0
M  V30 28285 H 2599.8 -4.92187 0.0362382 0
M  V30 28286 N 2601.46 -0.257958 -1.55475 0
M  V30 28287 C 2602.68 0.370453 -2.04065 0
M  V30 28288 C 2603.11 1.49946 -1.13568 0
M  V30 28289 O 2602.46 1.80827 -0.130812 0
M  V30 28290 C 2602.51 0.845176 -3.50555 0
M  V30 28291 O 2601.62 1.95388 -3.63177 0
M  V30 28292 H 2600.96 0.0792128 -0.659258 0
M  V30 28293 H 2603.49 -0.387247 -2.00902 0
M  V30 28294 H 2603.5 1.14548 -3.9159 0
M  V30 28295 H 2602.17 0.0190528 -4.15896 0
M  V30 28296 H 2600.75 1.65742 -3.34042 0
M  V30 28297 N 2602.93 1.57593 0.0150108 0
M  V30 28298 C 2604.18 1.89907 0.702968 0
M  V30 28299 C 2604.51 0.856975 1.74603 0
M  V30 28300 O 2603.76 -0.140252 1.95197 0
M  V30 28301 C 2604.06 3.28975 1.3968 0
M  V30 28302 C 2603.73 4.48247 0.488378 0
M  V30 28303 C 2602.39 4.8061 0.238216 0
M  V30 28304 C 2604.74 5.21017 -0.137973 0
M  V30 28305 C 2602.07 5.83123 -0.64684 0
M  V30 28306 C 2604.42 6.24472 -1.01081 0
M  V30 28307 C 2603.09 6.55301 -1.2703 0
M  V30 28308 H 2602.36 0.694918 0.257234 0
M  V30 28309 H 2605 1.91464 -0.0372927 0
M  V30 28310 H 2603.31 3.23472 2.21073 0
M  V30 28311 H 2605.01 3.51231 1.93489 0
M  V30 28312 H 2601.6 4.22952 0.693519 0
M  V30 28313 H 2605.78 4.96282 0.042308 0
M  V30 28314 H 2601.04 6.05377 -0.856044 0
M  V30 28315 H 2605.21 6.79997 -1.50259 0
M  V30 28316 H 2602.84 7.34557 -1.95782 0
M  V30 28317 N 2604.41 -0.287527 1.54955 0
M  V30 28318 C 2605.34 -1.35951 1.89841 0
M  V30 28319 C 2606.32 -1.52242 0.758702 0
M  V30 28320 O 2607.51 -1.65527 1.0156 0
M  V30 28321 C 2604.64 -2.72151 2.15758 0
M  V30 28322 C 2603.59 -2.70608 3.31595 0
M  V30 28323 C 2602.92 -4.10223 3.42959 0
M  V30 28324 C 2604.22 -2.31157 4.68363 0
M  V30 28325 H 2605.91 -1.07002 2.79627 0
M  V30 28326 H 2603.46 -0.513292 1.34541 0
M  V30 28327 H 2605.41 -3.47242 2.38749 0
M  V30 28328 H 2604.14 -3.02652 1.22757 0
M  V30 28329 H 2602.79 -1.97974 3.08548 0
M  V30 28330 H 2602.44 -4.37924 2.47451 0
M  V30 28331 H 2602.14 -4.10089 4.20833 0
M  V30 28332 H 2603.67 -4.87074 3.68227 0
M  V30 28333 H 2605.08 -2.95967 4.90995 0
M  V30 28334 H 2603.48 -2.42212 5.49048 0
M  V30 28335 H 2604.55 -1.26283 4.68167 0
M  V30 28336 N 2605.89 -1.47641 -0.551365 0
M  V30 28337 C 2606.84 -1.60566 -1.65793 0
M  V30 28338 C 2607.81 -0.448456 -1.59931 0
M  V30 28339 O 2608.99 -0.669253 -1.78677 0
M  V30 28340 C 2606.13 -1.63139 -3.04105 0
M  V30 28341 C 2605.25 -2.89817 -3.2036 0
M  V30 28342 C 2604.38 -2.83688 -4.49104 0
M  V30 28343 C 2603.42 -4.05164 -4.58812 0
M  V30 28344 N 2602.56 -3.97237 -5.78919 0
M  V30 28345 H 2607.4 -2.55073 -1.54084 0
M  V30 28346 H 2604.93 -1.26515 -0.750498 0
M  V30 28347 H 2606.89 -1.62613 -3.84204 0
M  V30 28348 H 2605.52 -0.721396 -3.14636 0
M  V30 28349 H 2604.57 -3.00183 -2.33654 0
M  V30 28350 H 2605.89 -3.79759 -3.23396 0
M  V30 28351 H 2605.04 -2.81444 -5.3747 0
M  V30 28352 H 2603.78 -1.91438 -4.48556 0
M  V30 28353 H 2602.78 -4.07707 -3.68857 0
M  V30 28354 H 2604.01 -4.98548 -4.61115 0
M  V30 28355 H 2601.95 -3.07795 -5.79308 0
M  V30 28356 H 2601.87 -4.80863 -5.83358 0
M  V30 28357 H 2603.14 -3.99019 -6.6963 0
M  V30 28358 N 2607.37 0.798563 -1.3587 0
M  V30 28359 C 2608.62 1.55118 -1.28924 0
M  V30 28360 C 2608.93 1.95154 0.132046 0
M  V30 28361 O 2610.14 2.69562 0.323831 0
M  V30 28362 C 2608.59 2.79975 -2.26146 0
M  V30 28363 C 2608.2 2.47145 -3.73662 0
M  V30 28364 C 2609.94 3.57972 -2.28158 0
M  V30 28365 C 2607.85 3.68342 -4.62686 0
M  V30 28366 H 2606.78 0.582267 -0.479042 0
M  V30 28367 H 2609.43 0.877097 -1.61181 0
M  V30 28368 H 2607.81 3.49135 -1.86871 0
M  V30 28369 H 2608.99 1.8594 -4.21619 0
M  V30 28370 H 2607.3 1.82377 -3.74336 0
M  V30 28371 H 2609.9 4.48005 -2.91883 0
M  V30 28372 H 2610.24 3.95889 -1.28755 0
M  V30 28373 H 2610.78 2.95782 -2.66003 0
M  V30 28374 H 2607.52 3.35528 -5.63117 0
M  V30 28375 H 2607.04 4.28744 -4.1945 0
M  V30 28376 H 2608.71 4.35478 -4.78506 0
M  V30 28377 N 2608.85 1.19999 1.02166 0
M  V30 28378 C 2610.07 1.03252 1.79295 0
M  V30 28379 C 2610.49 -0.41847 1.84104 0
M  V30 28380 O 2609.85 -1.29061 1.29033 0
M  V30 28381 C 2609.9 1.60324 3.24004 0
M  V30 28382 O 2609.62 2.99745 3.19507 0
M  V30 28383 C 2611.12 1.4846 4.17701 0
M  V30 28384 H 2608.34 0.363502 0.56401 0
M  V30 28385 H 2610.88 1.58975 1.28636 0
M  V30 28386 H 2609.04 1.08733 3.71828 0
M  V30 28387 H 2609.45 3.26733 4.103 0
M  V30 28388 H 2610.93 1.93162 5.171 0
M  V30 28389 H 2611.4 0.436269 4.37028 0
M  V30 28390 H 2612.01 1.99217 3.75756 0
M  V30 28391 N 2610.32 -1.21392 1.00507 0
M  V30 28392 C 2611.57 -1.90743 0.688826 0
M  V30 28393 C 2611.9 -1.77915 -0.778455 0
M  V30 28394 O 2611.18 -1.15584 -1.56431 0
M  V30 28395 C 2611.46 -3.42543 1.11069 0
M  V30 28396 C 2611.31 -3.64362 2.63743 0
M  V30 28397 C 2612.63 -4.34922 0.673135 0
M  V30 28398 H 2609.75 -0.692683 0.251714 0
M  V30 28399 H 2612.39 -1.43024 1.25076 0
M  V30 28400 H 2610.54 -3.83315 0.632575 0
M  V30 28401 H 2612.22 -3.32916 3.19319 0
M  V30 28402 H 2610.46 -3.08225 3.05253 0
M  V30 28403 H 2611.13 -4.70722 2.88313 0
M  V30 28404 H 2613.61 -4.01732 1.08399 0
M  V30 28405 H 2612.48 -5.39779 0.996478 0
M  V30 28406 H 2612.74 -4.40045 -0.425731 0
M  V30 28407 N 2611.8 -0.779811 -1.36955 0
M  V30 28408 C 2613.21 -0.412188 -1.82093 0
M  V30 28409 C 2613.56 1.0627 -1.64927 0
M  V30 28410 O 2612.69 1.82373 -1.16486 0
M  V30 28411 C 2613.28 -0.741377 -3.30589 0
M  V30 28412 C 2611.84 -0.426707 -3.73973 0
M  V30 28413 C 2610.99 -0.981032 -2.59367 0
M  V30 28414 H 2613.94 -0.97378 -1.25312 0
M  V30 28415 H 2613.96 -0.0289539 -3.80489 0
M  V30 28416 H 2613.47 -1.81488 -3.43051 0
M  V30 28417 H 2611.58 0.63915 -3.67077 0
M  V30 28418 H 2611.69 -0.940597 -4.69776 0
M  V30 28419 H 2610.05 -0.404802 -2.51463 0
M  V30 28420 H 2610.84 -2.0601 -2.74618 0
M  V30 28421 N 2613.28 1.48384 -0.531019 0
M  V30 28422 C 2614.51 2.074 0.000693079 0
M  V30 28423 C 2614.93 1.38482 1.27296 0
M  V30 28424 O 2614.29 0.451111 1.75598 0
M  V30 28425 C 2614.34 3.60007 0.206634 0
M  V30 28426 O 2613.44 3.92193 1.27507 0
M  V30 28427 H 2612.78 0.662818 -0.0395946 0
M  V30 28428 H 2615.31 1.90779 -0.739228 0
M  V30 28429 H 2615.32 4.05739 0.428969 0
M  V30 28430 H 2614 4.09572 -0.722747 0
M  V30 28431 H 2612.57 3.5824 1.03531 0
M  V30 28432 N 2614.76 0.2662 1.55336 0
M  V30 28433 C 2616 -0.354423 2.01304 0
M  V30 28434 C 2616.36 -1.53713 1.15049 0
M  V30 28435 O 2617.56 -2.22679 1.50558 0
M  V30 28436 C 2615.83 -0.735518 3.4975 0
M  V30 28437 S 2617.39 -1.34394 4.17713 0
M  V30 28438 H 2614.21 -0.110662 0.702335 0
M  V30 28439 H 2616.81 0.38595 1.91652 0
M  V30 28440 H 2615.52 0.134268 4.1018 0
M  V30 28441 H 2615.05 -1.50758 3.63367 0
M  V30 28442 H 2617.06 -2.63271 4.20598 0
M  V30 28443 N 2616.24 -1.57599 -0.0066531 0
M  V30 28444 C 2617.65 -1.55425 -0.362642 0
M  V30 28445 C 2617.85 -0.995218 -1.75207 0
M  V30 28446 O 2616.91 -0.626101 -2.44614 0
M  V30 28447 C 2618.22 -2.99709 -0.243965 0
M  V30 28448 C 2619.77 -3.11366 -0.319396 0
M  V30 28449 C 2620.24 -4.57423 -0.229918 0
M  V30 28450 N 2621.74 -4.62304 -0.288024 0
M  V30 28451 C 2622.47 -5.72889 -0.242026 0
M  V30 28452 N 2621.97 -6.92644 -0.147012 0
M  V30 28453 N 2623.76 -5.61334 -0.293404 0
M  V30 28454 H 2615.91 -1.9228 0.902347 0
M  V30 28455 H 2618.17 -0.88289 0.345266 0
M  V30 28456 H 2617.88 -3.44423 0.711739 0
M  V30 28457 H 2617.75 -3.62901 -1.02871 0
M  V30 28458 H 2620.14 -2.66586 -1.26554 0
M  V30 28459 H 2620.22 -2.50963 0.495099 0
M  V30 28460 H 2619.87 -5.02875 0.712654 0
M  V30 28461 H 2619.8 -5.15763 -1.06281 0
M  V30 28462 H 2622.29 -3.76152 -0.36306 0
M  V30 28463 H 2622.6 -7.7271 -0.117627 0
M  V30 28464 H 2620.94 -6.94909 -0.112735 0
M  V30 28465 H 2624.14 -4.66669 -0.365782 0
M  V30 28466 H 2624.31 -6.47502 -0.25409 0
M  V30 28467 N 2617.72 0.279305 -1.55105 0
M  V30 28468 C 2618.66 1.34509 -1.87552 0
M  V30 28469 C 2619.63 1.49374 -0.72641 0
M  V30 28470 O 2620.82 1.63883 -0.977092 0
M  V30 28471 C 2617.96 2.70147 -2.14743 0
M  V30 28472 C 2617.07 2.63556 -3.4229 0
M  V30 28473 C 2616.21 3.91331 -3.59213 0
M  V30 28474 C 2615.24 3.79225 -4.80474 0
M  V30 28475 N 2614.38 4.98821 -4.94087 0
M  V30 28476 H 2619.22 1.06138 -2.78458 0
M  V30 28477 H 2616.76 0.512912 -1.37868 0
M  V30 28478 H 2618.72 3.49057 -2.28507 0
M  V30 28479 H 2617.35 2.96733 -1.2708 0
M  V30 28480 H 2616.4 1.76391 -3.37032 0
M  V30 28481 H 2617.71 2.50508 -4.31332 0
M  V30 28482 H 2616.86 4.78681 -3.72759 0
M  V30 28483 H 2615.6 4.07238 -2.68344 0
M  V30 28484 H 2614.61 2.90258 -4.66937 0
M  V30 28485 H 2615.83 3.64842 -5.72772 0
M  V30 28486 H 2613.78 5.15151 -4.06148 0
M  V30 28487 H 2613.7 4.88279 -5.77165 0
M  V30 28488 H 2614.96 5.87761 -5.12013 0
M  V30 28489 N 2619.19 1.47931 0.543528 0
M  V30 28490 C 2620.44 1.5495 1.29749 0
M  V30 28491 C 2620.76 0.219276 1.93763 0
M  V30 28492 O 2620.03 -0.758019 1.8064 0
M  V30 28493 H 2618.61 0.570803 0.481864 0
M  V30 28494 H 2621.27 1.84314 0.633604 0
M  V30 28495 H 2620.37 2.32338 2.08388 0
M  V30 28496 N 2620.67 -0.791347 1.36292 0
M  V30 28497 C 2621.91 -1.56236 1.31794 0
M  V30 28498 C 2622.28 -1.91728 -0.102204 0
M  V30 28499 O 2623.48 -2.67423 -0.271712 0
M  V30 28500 C 2621.75 -2.80638 2.21308 0
M  V30 28501 S 2623.31 -3.709 2.34475 0
M  V30 28502 H 2620.12 -0.535122 0.468151 0
M  V30 28503 H 2622.73 -0.932216 1.71843 0
M  V30 28504 H 2621.43 -2.52612 3.23443 0
M  V30 28505 H 2620.96 -3.48626 1.82272 0
M  V30 28506 H 2622.98 -4.71671 1.54082 0
M  V30 28507 N 2622.15 -1.2054 -1.01528 0
M  V30 28508 C 2623.4 -1.0106 -1.74556 0
M  V30 28509 C 2623.71 0.457723 -1.90169 0
M  V30 28510 O 2624.92 0.771676 -2.60303 0
M  V30 28511 C 2623.37 -1.75946 -3.1396 0
M  V30 28512 C 2622.98 -3.2688 -3.06355 0
M  V30 28513 C 2624.73 -1.64839 -3.91188 0
M  V30 28514 C 2622.63 -3.94299 -4.40775 0
M  V30 28515 H 2621.56 -0.374517 -0.654411 0
M  V30 28516 H 2624.21 -1.44173 -1.13518 0
M  V30 28517 H 2622.6 -1.2562 -3.75547 0
M  V30 28518 H 2623.77 -3.8443 -2.54068 0
M  V30 28519 H 2622.08 -3.38415 -2.42619 0
M  V30 28520 H 2624.68 -2.12548 -4.9064 0
M  V30 28521 H 2625.02 -0.604818 -4.11883 0
M  V30 28522 H 2625.56 -2.12585 -3.36233 0
M  V30 28523 H 2622.3 -4.98813 -4.25283 0
M  V30 28524 H 2621.82 -3.41538 -4.93064 0
M  V30 28525 H 2623.5 -3.98626 -5.09614 0
M  V30 28526 N 2623.63 1.20858 -1.01149 0
M  V30 28527 C 2624.56 2.25721 -0.597702 0
M  V30 28528 C 2625.54 1.65692 0.384714 0
M  V30 28529 O 2626.72 1.92296 0.271269 0
M  V30 28530 C 2623.85 3.4723 0.0699539 0
M  V30 28531 C 2622.81 4.19817 -0.832917 0
M  V30 28532 C 2622.13 5.34691 -0.0313142 0
M  V30 28533 C 2623.43 4.7651 -2.13858 0
M  V30 28534 H 2625.13 2.60587 -1.47428 0
M  V30 28535 H 2622.67 1.25261 -0.710323 0
M  V30 28536 H 2624.63 4.19764 0.370956 0
M  V30 28537 H 2623.35 3.11512 0.981205 0
M  V30 28538 H 2622.01 3.49142 -1.11784 0
M  V30 28539 H 2621.66 4.95217 0.881428 0
M  V30 28540 H 2621.36 5.84186 -0.632536 0
M  V30 28541 H 2622.88 6.10032 0.263353 0
M  V30 28542 H 2624.3 5.4089 -1.90029 0
M  V30 28543 H 2622.69 5.36421 -2.69022 0
M  V30 28544 H 2623.76 3.95533 -2.80502 0
M  V30 28545 N 2625.11 0.787064 1.3654 0
M  V30 28546 C 2626.04 0.198033 2.32659 0
M  V30 28547 C 2627.02 -0.665669 1.56534 0
M  V30 28548 O 2628.2 -0.599978 1.84699 0
M  V30 28549 C 2625.33 -0.669841 3.40779 0
M  V30 28550 C 2624.29 0.0937791 4.27897 0
M  V30 28551 C 2623.61 -0.894536 5.27164 0
M  V30 28552 C 2624.91 1.28163 5.06332 0
M  V30 28553 H 2626.61 1.00104 2.82169 0
M  V30 28554 H 2624.15 0.482817 1.35665 0
M  V30 28555 H 2626.1 -1.09184 4.0701 0
M  V30 28556 H 2624.83 -1.50553 2.8983 0
M  V30 28557 H 2623.49 0.496724 3.63219 0
M  V30 28558 H 2623.14 -1.72519 4.72489 0
M  V30 28559 H 2622.84 -0.388046 5.86317 0
M  V30 28560 H 2624.36 -1.31515 5.96269 0
M  V30 28561 H 2625.77 0.93551 5.65616 0
M  V30 28562 H 2624.17 1.72125 5.74885 0
M  V30 28563 H 2625.24 2.07815 4.38111 0
M  V30 28564 N 2626.58 -1.48101 0.53888 0
M  V30 28565 C 2627.83 -2.02098 0.00802152 0
M  V30 28566 C 2628.15 -1.41741 -1.33919 0
M  V30 28567 O 2627.42 -0.585967 -1.86931 0
M  V30 28568 H 2626 -0.747 -2.30875e-05 0
M  V30 28569 H 2628.66 -1.81713 0.704732 0
M  V30 28570 H 2627.76 -3.11959 -0.0937124 0
M  V30 28571 N 2628.06 -0.274434 -1.55192 0
M  V30 28572 C 2628.99 0.646556 -2.19892 0
M  V30 28573 C 2630.01 1.11799 -1.18342 0
M  V30 28574 O 2631.2 1.04001 -1.45072 0
M  V30 28575 C 2628.3 1.89388 -2.81044 0
M  V30 28576 C 2627.47 1.56936 -4.08277 0
M  V30 28577 C 2626.53 2.66908 -4.53483 0
M  V30 28578 O 2625.55 2.33123 -5.19271 0
M  V30 28579 N 2626.76 3.96953 -4.23566 0
M  V30 28580 H 2629.52 0.092816 -2.99556 0
M  V30 28581 H 2627.08 -0.0955067 -1.61618 0
M  V30 28582 H 2629.07 2.62251 -3.08231 0
M  V30 28583 H 2627.64 2.35668 -2.05376 0
M  V30 28584 H 2626.86 0.674587 -3.88385 0
M  V30 28585 H 2628.15 1.32756 -4.91175 0
M  V30 28586 H 2627.55 4.27222 -3.70807 0
M  V30 28587 H 2626.11 4.66197 -4.55526 0
M  V30 28588 N 2629.54 1.576 -0.00170483 0
M  V30 28589 C 2630.79 1.90924 0.683798 0
M  V30 28590 C 2631.12 0.875829 1.73329 0
M  V30 28591 O 2630.39 -0.105216 1.94215 0
M  V30 28592 C 2630.68 3.34822 1.32537 0
M  V30 28593 C 2630.53 4.48881 0.287309 0
M  V30 28594 C 2631.85 3.78173 2.25107 0
M  V30 28595 H 2628.97 0.694337 0.247112 0
M  V30 28596 H 2631.61 1.89925 -0.0533483 0
M  V30 28597 H 2629.76 3.35804 1.95366 0
M  V30 28598 H 2631.43 4.60035 -0.341427 0
M  V30 28599 H 2629.67 4.32041 -0.390246 0
M  V30 28600 H 2630.35 5.46528 0.775297 0
M  V30 28601 H 2632.82 3.78753 1.72294 0
M  V30 28602 H 2631.7 4.79606 2.66963 0
M  V30 28603 H 2631.96 3.12136 3.13087 0
M  V30 28604 N 2631.02 -0.271076 1.55251 0
M  V30 28605 C 2632.26 -1.00391 1.76209 0
M  V30 28606 C 2632.6 -1.85871 0.562636 0
M  V30 28607 O 2631.87 -1.89464 -0.439752 0
M  V30 28608 C 2632.15 -1.88484 3.06832 0
M  V30 28609 C 2632.01 -1.05984 4.37135 0
M  V30 28610 C 2633.33 -2.8716 3.33508 0
M  V30 28611 H 2630.45 -0.363551 0.641093 0
M  V30 28612 H 2633.09 -0.276156 1.87982 0
M  V30 28613 H 2631.24 -2.50535 2.96925 0
M  V30 28614 H 2632.91 -0.459898 4.59002 0
M  V30 28615 H 2631.15 -0.363367 4.32275 0
M  V30 28616 H 2631.82 -1.70946 5.24863 0
M  V30 28617 H 2634.3 -2.35244 3.4322 0
M  V30 28618 H 2633.18 -3.45939 4.26166 0
M  V30 28619 H 2633.44 -3.62383 2.53241 0
M  V30 28620 N 2632.5 -1.48217 -0.535675 0
M  V30 28621 C 2633.77 -1.46432 -1.29681 0
M  V30 28622 C 2634.15 -0.172889 -2.10391 0
M  V30 28623 O 2633.5 0.845451 -2.12284 0
M  V30 28624 C 2633.71 -2.72291 -2.18309 0
M  V30 28625 C 2635.06 -3.20388 -2.78633 0
M  V30 28626 O 2636.08 -2.73168 -2.28599 0
M  V30 28627 O 2634.94 -4.02538 -3.69629 0
M  V30 28628 H 2632.04 -0.584539 -0.585016 0
M  V30 28629 H 2634.58 -1.60444 -0.552799 0
M  V30 28630 H 2633.35 -3.578 -1.58415 0
M  V30 28631 H 2632.98 -2.60971 -2.99967 0
M  V30 28632 N 2633.97 0.784108 -1.3671 0
M  V30 28633 C 2634.92 1.88684 -1.27994 0
M  V30 28634 C 2635.91 1.59996 -0.17031 0
M  V30 28635 O 2637.1 1.72337 -0.403601 0
M  V30 28636 C 2634.23 3.25975 -1.0768 0
M  V30 28637 C 2633.32 3.60656 -2.23133 0
M  V30 28638 N 2633.71 3.66606 -3.48474 0
M  V30 28639 C 2632 3.90748 -2.15015 0
M  V30 28640 C 2632.71 3.97678 -4.24532 0
M  V30 28641 N 2631.68 4.12937 -3.53531 0
M  V30 28642 H 2635.48 1.91518 -2.22931 0
M  V30 28643 H 2633 0.97991 -1.29505 0
M  V30 28644 H 2634.99 4.04847 -0.995222 0
M  V30 28645 H 2633.65 3.24413 -0.136487 0
M  V30 28646 H 2634.67 3.49118 -3.8254 0
M  V30 28647 H 2631.34 3.97081 -1.2897 0
M  V30 28648 H 2632.73 4.0916 -5.32952 0
M  V30 28649 N 2635.45 1.21076 1.00888 0
M  V30 28650 C 2636.7 1.01984 1.74018 0
M  V30 28651 C 2637.01 -0.447631 1.90409 0
M  V30 28652 O 2638.22 -0.75786 2.60708 0
M  V30 28653 C 2636.68 1.77609 3.13023 0
M  V30 28654 C 2636.28 3.285 3.04617 0
M  V30 28655 C 2638.03 1.66911 3.90309 0
M  V30 28656 C 2635.94 3.96631 4.38678 0
M  V30 28657 H 2634.87 0.377982 0.652415 0
M  V30 28658 H 2637.52 1.44773 1.12752 0
M  V30 28659 H 2635.9 1.2761 3.74875 0
M  V30 28660 H 2637.07 3.85772 2.52025 0
M  V30 28661 H 2635.39 3.39697 2.40821 0
M  V30 28662 H 2637.98 2.15147 4.89506 0
M  V30 28663 H 2638.33 0.626652 4.11557 0
M  V30 28664 H 2638.86 2.14365 3.35101 0
M  V30 28665 H 2635.6 5.01061 4.22632 0
M  V30 28666 H 2635.12 3.44148 4.91245 0
M  V30 28667 H 2636.8 4.01323 5.07493 0
M  V30 28668 N 2636.93 -1.2032 1.01789 0
M  V30 28669 C 2638.21 -1.85413 0.62301 0
M  V30 28670 C 2638.59 -1.91007 -0.898853 0
M  V30 28671 O 2637.94 -1.41887 -1.79109 0
M  V30 28672 C 2638.15 -3.24982 1.27231 0
M  V30 28673 C 2639.49 -4.01253 1.38857 0
M  V30 28674 O 2640.52 -3.3434 1.22863 0
M  V30 28675 O 2639.38 -5.21087 1.64715 0
M  V30 28676 H 2636.47 -0.798529 0.21513 0
M  V30 28677 H 2639.02 -1.27899 1.11535 0
M  V30 28678 H 2637.79 -3.15683 2.31215 0
M  V30 28679 H 2637.41 -3.90129 0.767138 0
M  V30 28680 N 2638.41 -0.794293 -1.3612 0
M  V30 28681 C 2639.63 -0.379907 -2.03891 0
M  V30 28682 C 2640.06 0.997223 -1.5949 0
M  V30 28683 O 2639.42 1.64338 -0.765681 0
M  V30 28684 C 2639.46 -0.457505 -3.57686 0
M  V30 28685 O 2638.57 0.533728 -4.08932 0
M  V30 28686 H 2637.91 -0.160552 -0.644297 0
M  V30 28687 H 2640.44 -1.07676 -1.73974 0
M  V30 28688 H 2640.45 -0.322864 -4.06721 0
M  V30 28689 H 2639.12 -1.46206 -3.89354 0
M  V30 28690 H 2637.7 0.360344 -3.71155 0
M  V30 28691 N 2639.89 1.47813 -0.546727 0
M  V30 28692 C 2640.82 2.32682 0.195276 0
M  V30 28693 C 2641.8 1.43141 0.918956 0
M  V30 28694 O 2642.98 1.72009 0.90147 0
M  V30 28695 C 2640.11 3.24702 1.23231 0
M  V30 28696 C 2639.07 4.23401 0.625743 0
M  V30 28697 C 2638.39 5.04672 1.76665 0
M  V30 28698 C 2639.69 5.2066 -0.413606 0
M  V30 28699 H 2641.39 2.94968 -0.513236 0
M  V30 28700 H 2638.93 1.41844 -0.248266 0
M  V30 28701 H 2640.89 3.8291 1.75948 0
M  V30 28702 H 2639.61 2.60449 1.97063 0
M  V30 28703 H 2638.27 3.66404 0.119958 0
M  V30 28704 H 2637.92 4.36831 2.49375 0
M  V30 28705 H 2637.62 5.71487 1.36663 0
M  V30 28706 H 2639.14 5.65736 2.29728 0
M  V30 28707 H 2640.55 5.73294 0.0271035 0
M  V30 28708 H 2638.95 5.9562 -0.731929 0
M  V30 28709 H 2640.02 4.66776 -1.31334 0
M  V30 28710 N 2641.36 0.28266 1.55044 0
M  V30 28711 C 2642.3 -0.643071 2.18952 0
M  V30 28712 C 2643.28 -1.14662 1.15289 0
M  V30 28713 O 2644.46 -1.2182 1.43848 0
M  V30 28714 C 2641.59 -1.87784 2.81878 0
M  V30 28715 C 2640.63 -1.50912 3.98908 0
M  V30 28716 S 2641.47 -0.58079 5.32341 0
M  V30 28717 C 2642.62 -1.82376 5.9874 0
M  V30 28718 H 2642.85 -0.100086 2.97131 0
M  V30 28719 H 2640.39 0.0668786 1.54255 0
M  V30 28720 H 2642.35 -2.58653 3.18762 0
M  V30 28721 H 2641.01 -2.39197 2.03577 0
M  V30 28722 H 2640.2 -2.42811 4.41655 0
M  V30 28723 H 2639.8 -0.880546 3.63486 0
M  V30 28724 H 2642.09 -2.76673 6.18432 0
M  V30 28725 H 2643.04 -1.43918 6.9332 0
M  V30 28726 H 2643.44 -1.99213 5.2818 0
M  V30 28727 N 2642.84 -1.57597 0.0100627 0
M  V30 28728 C 2643.75 -2.12492 -0.994189 0
M  V30 28729 C 2644.77 -1.07256 -1.37011 0
M  V30 28730 O 2645.94 -1.39212 -1.4554 0
M  V30 28731 C 2643.01 -2.62559 -2.26415 0
M  V30 28732 C 2642.07 -3.82436 -1.95042 0
M  V30 28733 C 2641.3 -4.30105 -3.15983 0
M  V30 28734 O 2641.53 -3.77048 -4.28009 0
M  V30 28735 O 2640.46 -5.22156 -2.99393 0
M  V30 28736 H 2644.29 -2.98539 -0.557496 0
M  V30 28737 H 2641.87 -1.47925 -0.209387 0
M  V30 28738 H 2643.75 -2.94915 -3.01004 0
M  V30 28739 H 2642.43 -1.79605 -2.69303 0
M  V30 28740 H 2641.34 -3.55037 -1.17898 0
M  V30 28741 H 2642.67 -4.66494 -1.56984 0
M  V30 28742 N 2644.32 0.262839 -1.55393 0
M  V30 28743 C 2645.23 1.34694 -1.9208 0
M  V30 28744 C 2646.25 1.53506 -0.819254 0
M  V30 28745 O 2647.42 1.67437 -1.11924 0
M  V30 28746 C 2644.49 2.68439 -2.19412 0
M  V30 28747 C 2643.55 2.58286 -3.42909 0
M  V30 28748 C 2642.78 3.85653 -3.68928 0
M  V30 28749 O 2643 4.86805 -2.97283 0
M  V30 28750 O 2641.94 3.85244 -4.62462 0
M  V30 28751 H 2645.76 1.06576 -2.84386 0
M  V30 28752 H 2643.35 0.462239 -1.42069 0
M  V30 28753 H 2645.23 3.47502 -2.38371 0
M  V30 28754 H 2643.91 2.96323 -1.30287 0
M  V30 28755 H 2642.81 1.77564 -3.29275 0
M  V30 28756 H 2644.15 2.3535 -4.32286 0
M  V30 28757 N 2645.8 1.48499 0.527807 0
M  V30 28758 C 2647.04 1.57838 1.28292 0
M  V30 28759 C 2647.4 0.249977 1.90769 0
M  V30 28760 O 2646.69 -0.747371 1.76423 0
M  V30 28761 C 2646.89 2.65489 2.39271 0
M  V30 28762 C 2646.72 4.08668 1.87672 0
M  V30 28763 C 2645.49 4.75781 1.70178 0
M  V30 28764 C 2647.68 4.94765 1.404 0
M  V30 28765 N 2645.67 6.03368 1.13228 0
M  V30 28766 C 2647.04 6.12615 0.954108 0
M  V30 28767 C 2649.09 4.80973 1.28723 0
M  V30 28768 C 2647.79 7.18192 0.399023 0
M  V30 28769 C 2649.82 5.86674 0.746141 0
M  V30 28770 C 2649.18 7.03734 0.306334 0
M  V30 28771 H 2645.28 0.632107 0.460397 0
M  V30 28772 H 2647.87 1.85389 0.594881 0
M  V30 28773 H 2646.04 2.39756 3.05568 0
M  V30 28774 H 2647.77 2.645 3.06303 0
M  V30 28775 H 2644.52 4.32148 1.93765 0
M  V30 28776 H 2644.95 6.71418 0.867569 0
M  V30 28777 H 2649.59 3.9081 1.61331 0
M  V30 28778 H 2647.31 8.08077 0.0606258 0
M  V30 28779 H 2650.89 5.78056 0.65894 0
M  V30 28780 H 2649.77 7.84129 -0.105845 0
M  V30 28781 N 2647.28 -0.776847 1.37123 0
M  V30 28782 C 2648.52 -1.53522 1.3205 0
M  V30 28783 C 2648.85 -1.9426 -0.096529 0
M  V30 28784 O 2648.11 -1.63947 -1.06863 0
M  V30 28785 C 2648.41 -2.81607 2.20073 0
M  V30 28786 C 2648.07 -2.59947 3.68427 0
M  V30 28787 C 2646.73 -2.53747 4.08859 0
M  V30 28788 C 2649.09 -2.40423 4.62435 0
M  V30 28789 C 2646.41 -2.26008 5.41421 0
M  V30 28790 C 2648.77 -2.14209 5.95229 0
M  V30 28791 C 2647.43 -2.06451 6.34771 0
M  V30 28792 H 2646.7 -0.561777 0.483206 0
M  V30 28793 H 2649.35 -0.895238 1.69286 0
M  V30 28794 H 2647.65 -3.50138 1.75815 0
M  V30 28795 H 2649.35 -3.39461 2.13464 0
M  V30 28796 H 2645.94 -2.65632 3.36359 0
M  V30 28797 H 2650.12 -2.44206 4.32062 0
M  V30 28798 H 2645.38 -2.18494 5.71026 0
M  V30 28799 H 2649.55 -1.981 6.6763 0
M  V30 28800 H 2647.18 -1.8472 7.37416 0
M  V30 28801 N 2648.76 -1.2161 -1.00244 0
M  V30 28802 C 2650.17 -1.03314 -1.55509 0
M  V30 28803 C 2650.52 0.406299 -1.91947 0
M  V30 28804 O 2649.64 1.28989 -1.73755 0
M  V30 28805 C 2650.24 -1.86918 -2.82573 0
M  V30 28806 C 2648.8 -1.72947 -3.34315 0
M  V30 28807 C 2647.94 -1.83972 -2.07484 0
M  V30 28808 H 2650.89 -1.35594 -0.824615 0
M  V30 28809 H 2650.92 -1.38094 -3.54557 0
M  V30 28810 H 2650.43 -2.91676 -2.56021 0
M  V30 28811 H 2648.53 -0.708834 -3.65795 0
M  V30 28812 H 2648.64 -2.55062 -4.05562 0
M  V30 28813 H 2647.01 -1.27308 -2.20601 0
M  V30 28814 H 2647.79 -2.90243 -1.83341 0
M  V30 28815 N 2650.23 1.19778 -1.02425 0
M  V30 28816 C 2651.48 1.88969 -0.716603 0
M  V30 28817 C 2651.8 1.79718 0.756737 0
M  V30 28818 O 2651.07 1.20459 1.54488 0
M  V30 28819 H 2649.65 0.699519 -0.262074 0
M  V30 28820 H 2652.31 1.45434 -1.2975 0
M  V30 28821 H 2651.41 2.95415 -1.0068 0
M  V30 28822 N 2651.71 0.801501 1.35697 0
M  V30 28823 C 2652.64 0.222699 2.32436 0
M  V30 28824 C 2653.62 -0.649029 1.57231 0
M  V30 28825 O 2654.81 -0.580354 1.85325 0
M  V30 28826 C 2651.94 -0.633659 3.4147 0
M  V30 28827 C 2650.89 0.139158 4.27774 0
M  V30 28828 C 2650.22 -0.838573 5.28083 0
M  V30 28829 C 2651.52 1.33526 5.04944 0
M  V30 28830 H 2653.21 1.03091 2.81092 0
M  V30 28831 H 2650.76 0.497179 1.35145 0
M  V30 28832 H 2652.71 -1.0486 4.08145 0
M  V30 28833 H 2651.43 -1.4747 2.91411 0
M  V30 28834 H 2650.09 0.53522 3.62672 0
M  V30 28835 H 2649.74 -1.67498 4.74293 0
M  V30 28836 H 2649.44 -0.325837 5.86696 0
M  V30 28837 H 2650.97 -1.25183 5.9763 0
M  V30 28838 H 2652.38 0.995448 5.64592 0
M  V30 28839 H 2650.78 1.78212 5.73027 0
M  V30 28840 H 2651.85 2.1245 4.35882 0
M  V30 28841 N 2653.19 -1.47521 0.554558 0
M  V30 28842 C 2654.12 -2.32782 -0.182933 0
M  V30 28843 C 2655.1 -1.43626 -0.911352 0
M  V30 28844 O 2656.29 -1.72485 -0.892336 0
M  V30 28845 C 2653.42 -3.25351 -1.21507 0
M  V30 28846 C 2652.37 -4.23727 -0.603281 0
M  V30 28847 C 2651.7 -5.05602 -1.73986 0
M  V30 28848 C 2653 -5.20433 0.441212 0
M  V30 28849 H 2654.69 -2.94692 0.528872 0
M  V30 28850 H 2652.24 -1.4171 0.255784 0
M  V30 28851 H 2654.19 -3.83838 -1.73915 0
M  V30 28852 H 2652.91 -2.61491 -1.95679 0
M  V30 28853 H 2651.57 -3.66462 -0.100525 0
M  V30 28854 H 2651.22 -4.38147 -2.47055 0
M  V30 28855 H 2650.92 -5.72203 -1.3363 0
M  V30 28856 H 2652.44 -5.66946 -2.26725 0
M  V30 28857 H 2653.86 -5.733 0.00330008 0
M  V30 28858 H 2652.25 -5.95223 0.763506 0
M  V30 28859 H 2653.32 -4.66073 1.33807 0
M  V30 28860 N 2654.67 -0.290879 -1.54892 0
M  V30 28861 C 2655.58 0.59941 -2.26813 0
M  V30 28862 C 2656.59 1.15694 -1.29965 0
M  V30 28863 O 2657.77 1.18388 -1.6293 0
M  V30 28864 C 2654.83 1.75976 -2.98719 0
M  V30 28865 C 2653.9 1.23733 -4.11082 0
M  V30 28866 C 2653.13 2.34238 -4.7955 0
M  V30 28867 O 2653.35 3.53928 -4.47316 0
M  V30 28868 O 2652.29 2.01502 -5.67169 0
M  V30 28869 H 2656.11 0.0163027 -3.03696 0
M  V30 28870 H 2653.7 -0.0577018 -1.49289 0
M  V30 28871 H 2655.58 2.43601 -3.43855 0
M  V30 28872 H 2654.25 2.32966 -2.24741 0
M  V30 28873 H 2653.16 0.527098 -3.70368 0
M  V30 28874 H 2654.49 0.712984 -4.87009 0
M  V30 28875 N 2656.15 1.57589 -0.0184203 0
M  V30 28876 C 2657.39 1.90533 0.661816 0
M  V30 28877 C 2657.71 0.895397 1.73902 0
M  V30 28878 O 2658.91 1.1157 2.47516 0
M  V30 28879 C 2657.37 3.38288 1.22838 0
M  V30 28880 C 2656.98 4.47618 0.185024 0
M  V30 28881 C 2658.72 3.80316 1.88575 0
M  V30 28882 C 2656.63 5.86462 0.76262 0
M  V30 28883 H 2655.56 0.71101 0.25096 0
M  V30 28884 H 2658.21 1.83317 -0.0819757 0
M  V30 28885 H 2656.59 3.40401 2.02344 0
M  V30 28886 H 2657.77 4.57049 -0.58679 0
M  V30 28887 H 2656.08 4.14726 -0.372962 0
M  V30 28888 H 2658.68 4.81397 2.32726 0
M  V30 28889 H 2659.02 3.14806 2.72402 0
M  V30 28890 H 2659.55 3.8058 1.15775 0
M  V30 28891 H 2656.29 6.55489 -0.0372865 0
M  V30 28892 H 2655.81 5.80659 1.50317 0
M  V30 28893 H 2657.49 6.34699 1.25565 0
M  V30 28894 N 2657.62 -0.254594 1.5553 0
M  V30 28895 C 2658.9 -1.00608 1.67742 0
M  V30 28896 C 2659.28 -2.03646 0.556029 0
M  V30 28897 O 2658.63 -2.24193 -0.441544 0
M  V30 28898 C 2658.84 -1.64635 3.07728 0
M  V30 28899 C 2660.19 -2.15109 3.66078 0
M  V30 28900 O 2661.21 -1.74589 3.10479 0
M  V30 28901 O 2660.07 -2.89485 4.63531 0
M  V30 28902 H 2657.16 -0.467816 0.681966 0
M  V30 28903 H 2659.71 -0.24899 1.67863 0
M  V30 28904 H 2658.48 -0.900667 3.80793 0
M  V30 28905 H 2658.1 -2.46984 3.11584 0
M  V30 28906 N 2659.1 -1.48777 -0.519925 0
M  V30 28907 C 2660.35 -1.56557 -1.27172 0
M  V30 28908 C 2660.66 -0.248904 -1.9401 0
M  V30 28909 O 2661.87 -0.205051 -2.70725 0
M  V30 28910 C 2660.33 -2.76146 -2.30806 0
M  V30 28911 C 2659.93 -4.14496 -1.69992 0
M  V30 28912 C 2661.68 -2.93245 -3.06932 0
M  V30 28913 C 2659.58 -5.25332 -2.71626 0
M  V30 28914 H 2658.51 -0.582862 -0.478318 0
M  V30 28915 H 2661.17 -1.7513 -0.547885 0
M  V30 28916 H 2659.55 -2.51028 -3.06269 0
M  V30 28917 H 2660.72 -4.49674 -1.0065 0
M  V30 28918 H 2659.04 -4.02597 -1.06323 0
M  V30 28919 H 2661.63 -3.73219 -3.82899 0
M  V30 28920 H 2661.98 -2.03082 -3.63405 0
M  V30 28921 H 2662.51 -3.18312 -2.38584 0
M  V30 28922 H 2659.25 -6.17493 -2.19959 0
M  V30 28923 H 2658.77 -4.9463 -3.39266 0
M  V30 28924 H 2660.45 -5.53871 -3.3442 0
M  V30 28925 N 2660.58 0.769564 -1.37534 0
M  V30 28926 C 2661.82 1.54119 -1.34263 0
M  V30 28927 C 2662.18 1.91866 0.0716884 0
M  V30 28928 O 2663.38 2.67822 0.229133 0
M  V30 28929 C 2661.66 2.77082 -2.25744 0
M  V30 28930 S 2663.21 3.67123 -2.40346 0
M  V30 28931 H 2660.03 0.527607 -0.476605 0
M  V30 28932 H 2662.63 0.904759 -1.73304 0
M  V30 28933 H 2661.34 2.47434 -3.27421 0
M  V30 28934 H 2660.87 3.45683 -1.87795 0
M  V30 28935 H 2662.88 4.6916 -1.61566 0
M  V30 28936 N 2662.06 1.22139 0.995977 0
M  V30 28937 C 2663.31 1.04203 1.73165 0
M  V30 28938 C 2663.63 -0.424197 1.9033 0
M  V30 28939 O 2662.9 -1.30536 1.46072 0
M  V30 28940 H 2661.48 0.382591 0.641586 0
M  V30 28941 H 2664.14 1.536 1.19971 0
M  V30 28942 H 2663.24 1.51736 2.72732 0
M  V30 28943 N 2663.54 -1.19233 1.03059 0
M  V30 28944 C 2664.45 -2.26178 0.622962 0
M  V30 28945 C 2665.46 -1.70523 -0.346083 0
M  V30 28946 O 2666.64 -2.00369 -0.203537 0
M  V30 28947 C 2663.7 -3.46695 -0.0181454 0
M  V30 28948 C 2662.76 -4.17524 0.998619 0
M  V30 28949 C 2662 -5.32288 0.388011 0
M  V30 28950 O 2662.22 -5.6464 -0.808569 0
M  V30 28951 O 2661.15 -5.91544 1.11171 0
M  V30 28952 H 2664.98 -2.6329 1.51368 0
M  V30 28953 H 2662.57 -1.2612 0.800878 0
M  V30 28954 H 2664.45 -4.19723 -0.375532 0
M  V30 28955 H 2663.12 -3.11428 -0.88284 0
M  V30 28956 H 2662.03 -3.46608 1.40762 0
M  V30 28957 H 2663.36 -4.56766 1.83374 0
M  V30 28958 N 2665.01 -0.808686 -1.3527 0
M  V30 28959 C 2666.26 -0.389267 -1.98316 0
M  V30 28960 C 2666.58 1.04764 -1.64467 0
M  V30 28961 O 2665.85 1.72514 -0.928205 0
M  V30 28962 H 2664.43 -0.140947 -0.733582 0
M  V30 28963 H 2667.1 -1.03499 -1.65148 0
M  V30 28964 H 2666.19 -0.496685 -3.08122 0
M  V30 28965 N 2666.49 1.47225 -0.562374 0
M  V30 28966 C 2667.4 2.33866 0.185425 0
M  V30 28967 C 2668.42 1.4851 0.906687 0
M  V30 28968 O 2669.59 1.81427 0.874426 0
M  V30 28969 C 2666.66 3.25308 1.19899 0
M  V30 28970 C 2665.72 4.26556 0.484594 0
M  V30 28971 C 2664.95 5.13629 1.44987 0
M  V30 28972 O 2665.18 5.0325 2.68506 0
M  V30 28973 O 2664.11 5.94007 0.971538 0
M  V30 28974 H 2667.94 2.99121 -0.525413 0
M  V30 28975 H 2665.52 1.45868 -0.322942 0
M  V30 28976 H 2667.4 3.81778 1.78393 0
M  V30 28977 H 2666.08 2.62675 1.89165 0
M  V30 28978 H 2664.99 3.73832 -0.141671 0
M  V30 28979 H 2666.32 4.91918 -0.16672 0
M  V30 28980 N 2667.97 0.299089 1.54736 0
M  V30 28981 C 2669.2 -0.313411 2.04512 0
M  V30 28982 C 2669.61 -1.47665 1.17646 0
M  V30 28983 O 2668.97 -1.81382 0.201672 0
M  V30 28984 C 2669.02 -0.77148 3.53172 0
M  V30 28985 O 2668.74 0.345456 4.36736 0
M  V30 28986 C 2670.24 -1.44933 4.18938 0
M  V30 28987 H 2667.46 -0.0683666 0.667508 0
M  V30 28988 H 2670.01 0.438164 1.99751 0
M  V30 28989 H 2668.16 -1.47308 3.583 0
M  V30 28990 H 2668.58 -0.0108297 5.24499 0
M  V30 28991 H 2670.05 -1.72102 5.24485 0
M  V30 28992 H 2670.53 -2.38876 3.68558 0
M  V30 28993 H 2671.13 -0.790955 4.1788 0
M  V30 28994 N 2669.45 -1.57577 0.0267774 0
M  V30 28995 C 2670.38 -2.1311 -0.95427 0
M  V30 28996 C 2671.36 -1.04665 -1.34086 0
M  V30 28997 O 2672.54 -1.32486 -1.4199 0
M  V30 28998 C 2669.67 -2.65628 -2.23739 0
M  V30 28999 C 2668.63 -3.78839 -1.99162 0
M  V30 29000 C 2667.95 -4.17775 -3.33719 0
M  V30 29001 C 2669.25 -5.05012 -1.33268 0
M  V30 29002 H 2670.95 -2.95333 -0.491796 0
M  V30 29003 H 2668.49 -1.42068 -0.235115 0
M  V30 29004 H 2670.45 -3.03111 -2.92748 0
M  V30 29005 H 2669.17 -1.80563 -2.72148 0
M  V30 29006 H 2667.83 -3.4179 -1.32571 0
M  V30 29007 H 2667.48 -3.29695 -3.79882 0
M  V30 29008 H 2667.18 -4.94063 -3.18081 0
M  V30 29009 H 2668.7 -4.57839 -4.03999 0
M  V30 29010 H 2670.12 -5.40096 -1.92273 0
M  V30 29011 H 2668.51 -5.86282 -1.28035 0
M  V30 29012 H 2669.58 -4.83938 -0.305326 0
M  V30 29013 N 2670.93 0.246342 -1.55663 0
M  V30 29014 C 2671.86 1.3087 -1.93379 0
M  V30 29015 C 2672.84 1.50177 -0.798799 0
M  V30 29016 O 2674.02 1.62776 -1.05913 0
M  V30 29017 C 2671.15 2.66334 -2.22897 0
M  V30 29018 C 2670.11 2.61721 -3.38653 0
M  V30 29019 C 2669.43 4.00986 -3.53715 0
M  V30 29020 C 2670.73 2.18658 -4.74327 0
M  V30 29021 H 2672.43 0.995502 -2.82365 0
M  V30 29022 H 2669.97 0.47744 -1.35855 0
M  V30 29023 H 2671.93 3.4079 -2.47872 0
M  V30 29024 H 2670.65 2.99291 -1.30738 0
M  V30 29025 H 2669.31 1.89723 -3.13689 0
M  V30 29026 H 2668.96 4.31209 -2.58975 0
M  V30 29027 H 2668.66 3.98787 -4.31558 0
M  V30 29028 H 2670.18 4.7714 -3.81011 0
M  V30 29029 H 2671.59 2.82845 -4.9867 0
M  V30 29030 H 2669.99 2.27569 -5.55277 0
M  V30 29031 H 2671.06 1.13826 -4.71351 0
M  V30 29032 N 2672.4 1.4905 0.512027 0
M  V30 29033 C 2673.35 1.64905 1.61477 0
M  V30 29034 C 2674.32 0.490701 1.58686 0
M  V30 29035 O 2675.51 0.716391 1.7684 0
M  V30 29036 C 2672.65 1.71144 2.99673 0
M  V30 29037 C 2671.76 2.98209 3.12563 0
M  V30 29038 C 2670.89 2.95495 4.41425 0
M  V30 29039 C 2669.93 4.17187 4.47908 0
M  V30 29040 N 2669.07 4.12447 5.68183 0
M  V30 29041 H 2673.91 2.59069 1.47267 0
M  V30 29042 H 2671.45 1.2846 0.716691 0
M  V30 29043 H 2673.41 1.72742 3.79758 0
M  V30 29044 H 2672.04 0.804563 3.12613 0
M  V30 29045 H 2671.09 3.06273 2.25613 0
M  V30 29046 H 2672.4 3.88199 3.13214 0
M  V30 29047 H 2671.55 2.95595 5.29819 0
M  V30 29048 H 2670.29 2.03264 4.43323 0
M  V30 29049 H 2669.3 4.17343 3.57918 0
M  V30 29050 H 2670.52 5.10598 4.47735 0
M  V30 29051 H 2668.47 3.23046 5.70944 0
M  V30 29052 H 2668.39 4.96161 5.70404 0
M  V30 29053 H 2669.65 4.16633 6.58815 0
M  V30 29054 N 2673.88 -0.762259 1.3794 0
M  V30 29055 C 2674.83 -1.8758 1.3447 0
M  V30 29056 C 2675.8 -1.64784 0.208662 0
M  V30 29057 O 2676.98 -1.8657 0.399527 0
M  V30 29058 C 2674.12 -3.2477 1.16698 0
M  V30 29059 C 2673.24 -3.59457 2.39614 0
M  V30 29060 C 2672.37 -4.85905 2.1464 0
M  V30 29061 C 2671.41 -5.13351 3.33373 0
M  V30 29062 N 2670.55 -6.30991 3.07888 0
M  V30 29063 H 2675.39 -1.89881 2.29672 0
M  V30 29064 H 2672.93 -0.928199 1.14118 0
M  V30 29065 H 2674.88 -4.03923 1.04412 0
M  V30 29066 H 2673.51 -3.2182 0.25139 0
M  V30 29067 H 2672.57 -2.75214 2.62605 0
M  V30 29068 H 2673.88 -3.75672 3.28134 0
M  V30 29069 H 2673.03 -5.72982 1.9944 0
M  V30 29070 H 2671.77 -4.71811 1.23472 0
M  V30 29071 H 2670.78 -4.24745 3.49101 0
M  V30 29072 H 2672 -5.29347 4.25404 0
M  V30 29073 H 2669.95 -6.18237 2.19359 0
M  V30 29074 H 2669.86 -6.47666 3.89955 0
M  V30 29075 H 2671.13 -7.20979 2.96326 0
M  V30 29076 N 2675.36 -1.22666 -0.989486 0
M  V30 29077 C 2676.61 -1.0649 -1.73296 0
M  V30 29078 C 2676.96 0.395405 -1.88293 0
M  V30 29079 O 2676.25 1.28908 -1.4175 0
M  V30 29080 C 2676.45 -1.71351 -3.13646 0
M  V30 29081 C 2676.28 -3.23538 -3.12336 0
M  V30 29082 C 2675.05 -3.92659 -3.18037 0
M  V30 29083 C 2677.25 -4.20427 -2.96218 0
M  V30 29084 N 2675.23 -5.31903 -3.06516 0
M  V30 29085 C 2676.6 -5.46525 -2.92763 0
M  V30 29086 C 2678.65 -4.11276 -2.80635 0
M  V30 29087 C 2677.36 -6.64523 -2.7532 0
M  V30 29088 C 2679.38 -5.28928 -2.64554 0
M  V30 29089 C 2678.74 -6.53947 -2.61789 0
M  V30 29090 H 2674.84 -0.444137 -0.643635 0
M  V30 29091 H 2677.43 -1.55258 -1.17486 0
M  V30 29092 H 2675.6 -1.25128 -3.67692 0
M  V30 29093 H 2677.33 -1.48235 -3.76574 0
M  V30 29094 H 2674.09 -3.43679 -3.25855 0
M  V30 29095 H 2674.51 -6.04879 -3.04056 0
M  V30 29096 H 2679.15 -3.15403 -2.81569 0
M  V30 29097 H 2676.87 -7.60542 -2.73132 0
M  V30 29098 H 2680.46 -5.23682 -2.53473 0
M  V30 29099 H 2679.34 -7.43452 -2.49497 0
M  V30 29100 N 2676.84 1.18685 -1.0369 0
M  V30 29101 C 2677.8 2.20396 -0.629154 0
M  V30 29102 C 2678.8 1.57755 0.311467 0
M  V30 29103 O 2679.99 1.73928 0.0973801 0
M  V30 29104 C 2677.12 3.4081 0.0781632 0
M  V30 29105 H 2678.32 2.57984 -1.52919 0
M  V30 29106 H 2675.87 1.32503 -0.829011 0
M  V30 29107 H 2676.61 3.0875 0.992178 0
M  V30 29108 H 2676.39 3.87515 -0.597845 0
M  V30 29109 H 2677.88 4.1613 0.350082 0
M  V30 29110 N 2678.32 0.815849 1.34839 0
M  V30 29111 C 2679.25 0.247339 2.32186 0
M  V30 29112 C 2680.23 -0.632316 1.57911 0
M  V30 29113 O 2681.41 -0.560665 1.85931 0
M  V30 29114 C 2678.54 -0.597406 3.42123 0
M  V30 29115 C 2677.5 0.184521 4.27602 0
M  V30 29116 C 2676.82 -0.782516 5.28943 0
M  V30 29117 C 2678.12 1.38874 5.03499 0
M  V30 29118 H 2679.82 1.06066 2.79983 0
M  V30 29119 H 2677.36 0.511485 1.3461 0
M  V30 29120 H 2679.32 -1.00526 4.09234 0
M  V30 29121 H 2678.04 -1.44371 2.92958 0
M  V30 29122 H 2676.7 0.573656 3.62084 0
M  V30 29123 H 2676.35 -1.62458 4.76043 0
M  V30 29124 H 2676.05 -0.263592 5.87008 0
M  V30 29125 H 2677.57 -1.18837 5.98924 0
M  V30 29126 H 2678.99 1.05527 5.63504 0
M  V30 29127 H 2677.38 1.8428 5.71105 0
M  V30 29128 H 2678.45 2.17061 4.33604 0
M  V30 29129 N 2679.8 -1.46924 0.570174 0
M  V30 29130 C 2681.03 -2.06524 0.0561514 0
M  V30 29131 C 2681.43 -1.4214 -1.24872 0
M  V30 29132 O 2680.78 -0.516448 -1.76291 0
M  V30 29133 C 2680.84 -3.5896 -0.196971 0
M  V30 29134 C 2680.5 -4.45462 1.02041 0
M  V30 29135 C 2681.5 -4.82778 1.9293 0
M  V30 29136 C 2679.18 -4.86786 1.23873 0
M  V30 29137 C 2681.18 -5.6023 3.04008 0
M  V30 29138 C 2678.87 -5.64 2.35259 0
M  V30 29139 C 2679.86 -6.00635 3.25157 0
M  V30 29140 O 2679.55 -6.76291 4.3461 0
M  V30 29141 H 2679.28 -0.67424 0.0487528 0
M  V30 29142 H 2681.84 -1.89727 0.786948 0
M  V30 29143 H 2680.07 -3.74017 -0.982234 0
M  V30 29144 H 2681.76 -4.00532 -0.657962 0
M  V30 29145 H 2682.52 -4.51441 1.77273 0
M  V30 29146 H 2678.4 -4.5773 0.54813 0
M  V30 29147 H 2681.95 -5.88743 3.74202 0
M  V30 29148 H 2677.84 -5.9475 2.50883 0
M  V30 29149 H 2678.61 -6.94701 4.3282 0
M  V30 29150 N 2681.27 -0.307291 -1.54575 0
M  V30 29151 C 2682.5 0.305343 -2.0514 0
M  V30 29152 C 2682.92 1.46257 -1.18281 0
M  V30 29153 O 2682.28 1.8032 -0.188275 0
M  V30 29154 C 2682.33 0.733221 -3.53067 0
M  V30 29155 O 2681.43 1.83735 -3.69209 0
M  V30 29156 H 2680.77 0.0581989 -0.661445 0
M  V30 29157 H 2683.3 -0.450966 -1.99568 0
M  V30 29158 H 2683.31 1.02032 -3.95036 0
M  V30 29159 H 2681.99 -0.113271 -4.15746 0
M  V30 29160 H 2680.57 1.55031 -3.39146 0
M  V30 29161 N 2682.75 1.57561 -0.0351337 0
M  V30 29162 C 2684 1.92047 0.642195 0
M  V30 29163 C 2684.33 0.91209 1.71788 0
M  V30 29164 O 2683.58 -0.0780809 1.95544 0
M  V30 29165 C 2683.88 3.33252 1.29143 0
M  V30 29166 C 2683.55 4.49574 0.345525 0
M  V30 29167 C 2682.21 4.81125 0.0851929 0
M  V30 29168 C 2684.56 5.20315 -0.303661 0
M  V30 29169 C 2681.89 5.8077 -0.832029 0
M  V30 29170 C 2684.24 6.2094 -1.20897 0
M  V30 29171 C 2682.9 6.50928 -1.47814 0
M  V30 29172 H 2682.17 0.70275 0.234996 0
M  V30 29173 H 2684.82 1.91248 -0.0981865 0
M  V30 29174 H 2683.13 3.30341 2.1067 0
M  V30 29175 H 2684.82 3.57209 1.82217 0
M  V30 29176 H 2681.41 4.24944 0.558609 0
M  V30 29177 H 2685.6 4.96165 -0.115602 0
M  V30 29178 H 2680.85 6.02348 -1.04821 0
M  V30 29179 H 2685.03 6.74872 -1.71816 0
M  V30 29180 H 2682.65 7.27956 -2.19052 0
M  V30 29181 N 2684.23 -0.238084 1.55791 0
M  V30 29182 C 2685.18 -1.3146 1.91888 0
M  V30 29183 C 2686.17 -1.49376 0.798955 0
M  V30 29184 O 2687.38 -1.50746 0.983652 0
M  V30 29185 H 2683.75 -0.440389 0.609559 0
M  V30 29186 H 2685.72 -0.982876 2.81748 0
M  V30 29187 C 2684.47 -2.66126 2.23768 0
M  V30 29188 H 2683.8 -2.53144 3.09449 0
M  V30 29189 H 2685.24 -3.40304 2.52921 0
M  V30 29190 C 2683.69 -3.19888 1.05705 0
M  V30 29191 O 2684.22 -4.00505 0.309594 0
M  V30 29192 N 2682.43 -2.78034 0.8453 0
M  V30 29193 H 2681.98 -2.12585 1.45483 0
M  V30 29194 H 2681.94 -3.14348 0.0570525 0
M  V30 29195 N 2685.71 -1.4932 -0.504115 0
M  V30 29196 C 2686.98 -1.49149 -1.26546 0
M  V30 29197 C 2687.36 -0.217477 -2.09977 0
M  V30 29198 O 2686.71 0.800232 -2.14029 0
M  V30 29199 C 2686.92 -2.7686 -2.12484 0
M  V30 29200 C 2688.27 -3.26226 -2.71775 0
M  V30 29201 O 2689.29 -2.77956 -2.22753 0
M  V30 29202 O 2688.15 -4.10287 -3.61008 0
M  V30 29203 H 2685.25 -0.596817 -0.572485 0
M  V30 29204 H 2687.79 -1.6158 -0.518642 0
M  V30 29205 H 2686.57 -3.61079 -1.50789 0
M  V30 29206 H 2686.19 -2.67275 -2.94364 0
M  V30 29207 N 2687.19 0.754933 -1.38342 0
M  V30 29208 C 2688.43 1.51103 -1.3421 0
M  V30 29209 C 2688.75 1.94882 0.0677291 0
M  V30 29210 O 2688.02 1.67546 1.01515 0
M  V30 29211 H 2686.6 0.560484 -0.493828 0
M  V30 29212 H 2689.27 0.897476 -1.73007 0
M  V30 29213 H 2688.36 2.40256 -1.99207 0
M  V30 29214 N 2688.66 1.23189 0.982967 0
M  V30 29215 C 2689.57 1.02743 2.10905 0
M  V30 29216 C 2690.59 -0.0272883 1.73979 0
M  V30 29217 O 2691.77 0.167605 2.00701 0
M  V30 29218 C 2688.83 0.618364 3.41141 0
M  V30 29219 C 2687.89 1.74784 3.92109 0
M  V30 29220 C 2687.12 1.35819 5.16129 0
M  V30 29221 O 2687.35 0.241301 5.69889 0
M  V30 29222 O 2686.28 2.17834 5.61099 0
M  V30 29223 H 2690.11 1.97112 2.31042 0
M  V30 29224 H 2687.69 1.01871 1.09282 0
M  V30 29225 H 2689.57 0.401056 4.19487 0
M  V30 29226 H 2688.25 -0.296364 3.2234 0
M  V30 29227 H 2687.16 2.01976 3.14891 0
M  V30 29228 H 2688.49 2.64079 4.15359 0
M  V30 29229 N 2690.14 -1.18133 1.04318 0
M  V30 29230 C 2691.05 -2.25504 0.646916 0
M  V30 29231 C 2692.07 -1.70881 -0.327977 0
M  V30 29232 O 2693.24 -2.00573 -0.182273 0
M  V30 29233 C 2690.31 -3.46695 0.0186273 0
M  V30 29234 C 2689.37 -4.16441 1.04285 0
M  V30 29235 C 2688.6 -5.31846 0.444445 0
M  V30 29236 O 2688.83 -5.65466 -0.748636 0
M  V30 29237 O 2687.76 -5.90332 1.17439 0
M  V30 29238 H 2691.59 -2.61669 1.54152 0
M  V30 29239 H 2689.17 -1.25264 0.81421 0
M  V30 29240 H 2691.05 -4.20098 -0.330994 0
M  V30 29241 H 2689.73 -3.12347 -0.84976 0
M  V30 29242 H 2688.63 -3.45095 1.44431 0
M  V30 29243 H 2689.97 -4.54795 1.88208 0
M  V30 29244 N 2691.62 -0.822988 -1.34405 0
M  V30 29245 C 2692.57 -0.217248 -2.26963 0
M  V30 29246 C 2693.55 0.618519 -1.48537 0
M  V30 29247 O 2694.75 0.473088 -1.7056 0
M  V30 29248 C 2691.88 0.619914 -3.37657 0
M  V30 29249 C 2690.96 -0.226485 -4.23495 0
M  V30 29250 N 2691.35 -1.29752 -4.88874 0
M  V30 29251 C 2689.65 -0.0108338 -4.45999 0
M  V30 29252 C 2690.35 -1.81563 -5.52639 0
M  V30 29253 N 2689.33 -1.11952 -5.31947 0
M  V30 29254 H 2693.13 -1.03651 -2.75016 0
M  V30 29255 H 2690.64 -0.665803 -1.48124 0
M  V30 29256 H 2692.64 1.07004 -4.02934 0
M  V30 29257 H 2691.3 1.43734 -2.91154 0
M  V30 29258 H 2692.31 -1.68032 -4.89883 0
M  V30 29259 H 2688.99 0.774422 -4.10255 0
M  V30 29260 H 2690.38 -2.71167 -6.1475 0
M  V30 29261 N 2693.1 1.4662 -0.577957 0
M  V30 29262 C 2694.03 2.28362 0.195761 0
M  V30 29263 C 2695.04 1.38234 0.859958 0
M  V30 29264 O 2696.23 1.62876 0.73032 0
M  V30 29265 C 2693.33 3.13127 1.29634 0
M  V30 29266 C 2692.51 4.3135 0.724974 0
M  V30 29267 C 2691.56 4.97549 1.71265 0
M  V30 29268 O 2690.59 5.55292 1.25057 0
M  V30 29269 N 2691.79 4.94126 3.04663 0
M  V30 29270 H 2694.56 2.95406 -0.50552 0
M  V30 29271 H 2692.12 1.5648 -0.415408 0
M  V30 29272 H 2694.11 3.54278 1.95625 0
M  V30 29273 H 2692.68 2.48189 1.90055 0
M  V30 29274 H 2691.9 3.9404 -0.112274 0
M  V30 29275 H 2693.19 5.07774 0.322945 0
M  V30 29276 H 2692.59 4.4845 3.44832 0
M  V30 29277 H 2691.14 5.39233 3.66157 0
M  V30 29278 N 2694.58 0.315484 1.5441 0
M  V30 29279 C 2695.52 -0.554127 2.24049 0
M  V30 29280 C 2696.49 -1.1181 1.22832 0
M  V30 29281 O 2697.68 -1.15994 1.51493 0
M  V30 29282 C 2694.82 -1.71311 2.99577 0
M  V30 29283 C 2693.93 -1.17914 4.15596 0
M  V30 29284 C 2693.07 -2.30316 4.78673 0
M  V30 29285 C 2692.11 -1.74127 5.8681 0
M  V30 29286 N 2691.24 -2.80159 6.43782 0
M  V30 29287 H 2696.08 0.0463126 2.97964 0
M  V30 29288 H 2693.62 0.0346267 1.47059 0
M  V30 29289 H 2695.58 -2.39499 3.41608 0
M  V30 29290 H 2694.21 -2.28496 2.28012 0
M  V30 29291 H 2693.26 -0.38907 3.78405 0
M  V30 29292 H 2694.57 -0.727925 4.9346 0
M  V30 29293 H 2693.73 -3.06423 5.23631 0
M  V30 29294 H 2692.46 -2.78771 4.00173 0
M  V30 29295 H 2691.47 -0.96514 5.41262 0
M  V30 29296 H 2692.69 -1.26559 6.67203 0
M  V30 29297 H 2690.64 -3.2792 5.68159 0
M  V30 29298 H 2690.56 -2.39576 7.17035 0
M  V30 29299 H 2691.83 -3.5612 6.93397 0
M  V30 29300 N 2696.05 -1.5754 0.0434891 0
M  V30 29301 C 2697.3 -1.91562 -0.63142 0
M  V30 29302 C 2697.62 -0.92295 -1.72456 0
M  V30 29303 O 2698.82 -1.15494 -2.4571 0
M  V30 29304 C 2697.28 -3.402 -1.17441 0
M  V30 29305 C 2696.89 -4.47855 -0.113788 0
M  V30 29306 C 2698.63 -3.83267 -1.825 0
M  V30 29307 C 2696.54 -5.87601 -0.669222 0
M  V30 29308 H 2695.47 -0.714912 -0.239617 0
M  V30 29309 H 2698.12 -1.83163 0.111129 0
M  V30 29310 H 2696.5 -3.43577 -1.96903 0
M  V30 29311 H 2697.67 -4.56057 0.659428 0
M  V30 29312 H 2695.99 -4.14081 0.438894 0
M  V30 29313 H 2698.59 -4.85038 -2.25038 0
M  V30 29314 H 2698.93 -3.191 -2.6736 0
M  V30 29315 H 2699.46 -3.82374 -1.09706 0
M  V30 29316 H 2696.2 -6.55347 0.141564 0
M  V30 29317 H 2695.72 -5.82977 -1.4106 0
M  V30 29318 H 2697.4 -6.36616 -1.15451 0
M  V30 29319 N 2697.53 0.229818 -1.55915 0
M  V30 29320 C 2698.46 1.28811 -1.94756 0
M  V30 29321 C 2699.44 1.49322 -0.814683 0
M  V30 29322 O 2700.63 1.61644 -1.07634 0
M  V30 29323 C 2697.76 2.63955 -2.2571 0
M  V30 29324 C 2696.71 2.58114 -3.4141 0
M  V30 29325 C 2696.04 3.97212 -3.57948 0
M  V30 29326 C 2697.34 2.13615 -4.76619 0
M  V30 29327 H 2699.03 0.965497 -2.83405 0
M  V30 29328 H 2696.58 0.463004 -1.36353 0
M  V30 29329 H 2698.53 3.38141 -2.51472 0
M  V30 29330 H 2697.26 2.97888 -1.33905 0
M  V30 29331 H 2695.91 1.86386 -3.15683 0
M  V30 29332 H 2695.56 4.28438 -2.63534 0
M  V30 29333 H 2695.26 3.94188 -4.35764 0
M  V30 29334 H 2696.79 4.73072 -3.8605 0
M  V30 29335 H 2698.2 2.7754 -5.01642 0
M  V30 29336 H 2696.6 2.21667 -5.57659 0
M  V30 29337 H 2697.67 1.0882 -4.72532 0
M  V30 29338 N 2699.01 1.49585 0.49619 0
M  V30 29339 C 2699.94 1.69524 1.60573 0
M  V30 29340 C 2700.92 0.543962 1.61168 0
M  V30 29341 O 2702.11 0.780341 1.77832 0
M  V30 29342 C 2699.24 1.76622 2.99035 0
M  V30 29343 C 2698.19 2.91587 3.13307 0
M  V30 29344 C 2697.52 2.83802 4.53167 0
M  V30 29345 C 2698.82 4.32457 2.92879 0
M  V30 29346 H 2700.51 2.62419 1.44141 0
M  V30 29347 H 2698.06 1.26283 0.692001 0
M  V30 29348 H 2700.01 1.89156 3.76561 0
M  V30 29349 H 2698.73 0.803296 3.16567 0
M  V30 29350 H 2697.39 2.78662 2.38208 0
M  V30 29351 H 2697.04 1.85408 4.67582 0
M  V30 29352 H 2696.74 3.60967 4.63656 0
M  V30 29353 H 2698.26 2.98351 5.32747 0
M  V30 29354 H 2699.68 4.46039 3.6017 0
M  V30 29355 H 2698.08 5.10881 3.14835 0
M  V30 29356 H 2699.15 4.46568 1.88958 0
M  V30 29357 N 2700.49 -0.747586 1.3874 0
M  V30 29358 C 2701.77 -1.49784 1.25794 0
M  V30 29359 C 2702.15 -2.10648 -0.138038 0
M  V30 29360 O 2701.49 -1.97562 -1.14811 0
M  V30 29361 C 2701.7 -2.55938 2.37269 0
M  V30 29362 C 2703.05 -3.22674 2.75983 0
M  V30 29363 O 2704.08 -2.66246 2.36625 0
M  V30 29364 O 2702.93 -4.2475 3.43875 0
M  V30 29365 H 2700.03 -0.664535 0.492263 0
M  V30 29366 H 2702.57 -0.782484 1.50583 0
M  V30 29367 H 2701.35 -2.09255 3.30648 0
M  V30 29368 H 2700.97 -3.35048 2.14077 0
M  V30 29369 N 2701.97 -1.23709 -0.97642 0
M  V30 29370 C 2703.24 -0.979729 -1.69295 0
M  V30 29371 C 2703.62 0.500519 -2.05081 0
M  V30 29372 O 2702.97 1.4727 -1.7471 0
M  V30 29373 C 2703.18 -1.89394 -2.9314 0
M  V30 29374 C 2704.53 -2.15974 -3.65569 0
M  V30 29375 O 2705.55 -1.86976 -3.0318 0
M  V30 29376 O 2704.41 -2.65175 -4.77854 0
M  V30 29377 H 2701.51 -0.369825 -0.739702 0
M  V30 29378 H 2704.05 -1.34769 -1.03129 0
M  V30 29379 H 2702.82 -2.89443 -2.63322 0
M  V30 29380 H 2702.45 -1.5286 -3.67042 0
M  V30 29381 N 2703.44 1.17579 -1.04943 0
M  V30 29382 C 2704.37 2.23705 -0.669211 0
M  V30 29383 C 2705.36 1.66832 0.331806 0
M  V30 29384 O 2706.54 1.93062 0.209954 0
M  V30 29385 C 2703.67 3.47276 -0.04055 0
M  V30 29386 C 2702.62 4.16955 -0.966057 0
M  V30 29387 C 2701.95 5.34321 -0.201406 0
M  V30 29388 C 2703.25 4.69465 -2.2891 0
M  V30 29389 H 2704.94 2.55765 -1.55643 0
M  V30 29390 H 2702.49 1.22938 -0.749815 0
M  V30 29391 H 2704.44 4.20732 0.237224 0
M  V30 29392 H 2703.17 3.14476 0.881603 0
M  V30 29393 H 2701.83 3.45408 -1.22835 0
M  V30 29394 H 2701.47 4.9777 0.723432 0
M  V30 29395 H 2701.17 5.81877 -0.81807 0
M  V30 29396 H 2702.7 6.10561 0.0691426 0
M  V30 29397 H 2704.11 5.3457 -2.07141 0
M  V30 29398 H 2702.51 5.27591 -2.85951 0
M  V30 29399 H 2703.58 3.86409 -2.92944 0
M  V30 29400 N 2704.92 0.830104 1.33967 0
M  V30 29401 C 2705.86 0.202222 2.27302 0
M  V30 29402 C 2706.83 -0.645554 1.49236 0
M  V30 29403 O 2708.02 -0.607731 1.78435 0
M  V30 29404 C 2705.14 -0.716874 3.31027 0
M  V30 29405 C 2704.19 0.0543021 4.26465 0
M  V30 29406 S 2705.02 1.40631 5.16704 0
M  V30 29407 C 2706.18 0.492277 6.23961 0
M  V30 29408 H 2706.41 0.99351 2.80208 0
M  V30 29409 H 2703.95 0.626384 1.41123 0
M  V30 29410 H 2705.9 -1.24158 3.91274 0
M  V30 29411 H 2704.56 -1.48175 2.76953 0
M  V30 29412 H 2703.76 -0.644698 4.9986 0
M  V30 29413 H 2703.36 0.509787 3.70509 0
M  V30 29414 H 2705.65 -0.313351 6.76775 0
M  V30 29415 H 2706.59 1.19611 6.97925 0
M  V30 29416 H 2707 0.0775168 5.64447 0
M  V30 29417 N 2706.4 -1.46311 0.585725 0
M  V30 29418 C 2707.35 -2.30339 -0.145795 0
M  V30 29419 C 2708.32 -1.40799 -0.88119 0
M  V30 29420 O 2709.5 -1.69746 -0.871263 0
M  V30 29421 C 2706.64 -3.2532 -1.15155 0
M  V30 29422 C 2705.76 -4.2996 -0.419292 0
M  V30 29423 C 2704.89 -5.12067 -1.41284 0
M  V30 29424 C 2703.93 -6.08453 -0.667154 0
M  V30 29425 N 2703.07 -6.83417 -1.60891 0
M  V30 29426 H 2707.91 -2.92364 0.576807 0
M  V30 29427 H 2705.44 -1.44086 0.296262 0
M  V30 29428 H 2707.4 -3.78835 -1.74757 0
M  V30 29429 H 2706.03 -2.65097 -1.84183 0
M  V30 29430 H 2705.08 -3.79279 0.291817 0
M  V30 29431 H 2706.4 -4.98532 0.163521 0
M  V30 29432 H 2705.55 -5.69873 -2.08157 0
M  V30 29433 H 2704.29 -4.43463 -2.02958 0
M  V30 29434 H 2703.29 -5.49798 0.0153323 0
M  V30 29435 H 2704.52 -6.79077 -0.0557623 0
M  V30 29436 H 2702.47 -6.1752 -2.2137 0
M  V30 29437 H 2702.38 -7.48261 -1.07898 0
M  V30 29438 H 2703.65 -7.45779 -2.26789 0
M  V30 29439 N 2707.88 -0.323668 -1.54241 0
M  V30 29440 C 2708.83 0.542237 -2.2434 0
M  V30 29441 C 2709.8 1.11157 -1.23423 0
M  V30 29442 O 2710.98 1.15189 -1.52106 0
M  V30 29443 C 2708.12 1.6972 -3.00482 0
M  V30 29444 C 2707.23 1.15709 -4.16216 0
M  V30 29445 C 2706.37 2.27774 -4.79888 0
M  V30 29446 C 2705.41 1.71012 -5.87725 0
M  V30 29447 N 2704.55 2.76741 -6.45259 0
M  V30 29448 H 2709.39 -0.0621137 -2.97935 0
M  V30 29449 H 2706.92 -0.0424252 -1.47039 0
M  V30 29450 H 2708.88 2.37684 -3.42874 0
M  V30 29451 H 2707.51 2.27283 -2.29221 0
M  V30 29452 H 2706.56 0.368996 -3.78606 0
M  V30 29453 H 2707.87 0.701745 -4.93839 0
M  V30 29454 H 2707.03 3.03642 -5.25249 0
M  V30 29455 H 2705.77 2.76645 -4.01645 0
M  V30 29456 H 2704.77 0.936422 -5.41767 0
M  V30 29457 H 2706 1.23018 -6.67865 0
M  V30 29458 H 2703.94 3.24902 -5.6989 0
M  V30 29459 H 2703.86 2.3577 -7.18296 0
M  V30 29460 H 2705.13 3.52437 -6.95276 0
M  V30 29461 N 2709.36 1.57515 -0.0518432 0
M  V30 29462 C 2710.32 2.10468 0.90751 0
M  V30 29463 C 2711.32 1.02442 1.23945 0
M  V30 29464 O 2712.51 1.28512 1.17602 0
M  V30 29465 C 2709.64 2.58948 2.21718 0
M  V30 29466 H 2710.84 2.96528 0.448457 0
M  V30 29467 H 2708.39 1.55059 0.19657 0
M  V30 29468 H 2709.12 1.76283 2.72203 0
M  V30 29469 H 2708.91 3.3789 1.98929 0
M  V30 29470 H 2710.4 3.00061 2.90436 0
M  V30 29471 N 2710.84 -0.221546 1.56035 0
M  V30 29472 C 2711.75 -1.29554 1.95583 0
M  V30 29473 C 2712.76 -1.5128 0.859665 0
M  V30 29474 O 2713.94 -1.64411 1.16323 0
M  V30 29475 C 2711 -2.62527 2.26452 0
M  V30 29476 C 2710.06 -2.49104 3.49637 0
M  V30 29477 C 2709.3 -3.75735 3.79023 0
M  V30 29478 O 2709.52 -4.78752 3.10086 0
M  V30 29479 O 2708.45 -3.72847 4.72513 0
M  V30 29480 H 2712.28 -0.989984 2.87111 0
M  V30 29481 H 2709.86 -0.424409 1.43245 0
M  V30 29482 H 2711.75 -3.4106 2.475 0
M  V30 29483 H 2710.42 -2.92764 1.38097 0
M  V30 29484 H 2709.33 -1.68771 3.33867 0
M  V30 29485 H 2710.66 -2.23806 4.38374 0
M  V30 29486 N 2712.31 -1.49846 -0.48825 0
M  V30 29487 C 2713.22 -1.7021 -1.61448 0
M  V30 29488 C 2714.24 -0.584875 -1.63876 0
M  V30 29489 O 2715.42 -0.861139 -1.82061 0
M  V30 29490 C 2712.48 -1.77599 -2.97757 0
M  V30 29491 C 2711.54 -3.01249 -3.05856 0
M  V30 29492 C 2710.77 -3.08276 -4.35662 0
M  V30 29493 O 2711 -2.2255 -5.25193 0
M  V30 29494 O 2709.93 -4.00855 -4.48998 0
M  V30 29495 H 2713.76 -2.65645 -1.47194 0
M  V30 29496 H 2711.34 -1.33738 -0.665916 0
M  V30 29497 H 2713.22 -1.84739 -3.78747 0
M  V30 29498 H 2711.9 -0.853454 -3.12246 0
M  V30 29499 H 2710.81 -2.9962 -2.24006 0
M  V30 29500 H 2712.14 -3.93025 -2.96298 0
M  V30 29501 N 2713.79 0.740218 -1.39135 0
M  V30 29502 C 2715.04 1.49671 -1.35805 0
M  V30 29503 C 2715.36 1.94943 0.0470554 0
M  V30 29504 O 2714.63 1.68613 0.997318 0
M  V30 29505 H 2713.21 0.555215 -0.499745 0
M  V30 29506 H 2715.87 0.879076 -1.73949 0
M  V30 29507 H 2714.97 2.3813 -2.01744 0
M  V30 29508 N 2715.27 1.24225 0.969846 0
M  V30 29509 C 2716.55 0.988693 1.68773 0
M  V30 29510 C 2716.93 -0.489636 2.05343 0
M  V30 29511 O 2716.27 -1.46342 1.75489 0
M  V30 29512 C 2716.48 1.90946 2.92131 0
M  V30 29513 C 2717.83 2.1791 3.64418 0
M  V30 29514 O 2718.86 1.88581 3.02185 0
M  V30 29515 O 2717.72 2.67706 4.76441 0
M  V30 29516 H 2714.81 0.373743 0.73773 0
M  V30 29517 H 2717.36 1.35314 1.02413 0
M  V30 29518 H 2716.13 2.90836 2.61783 0
M  V30 29519 H 2715.75 1.54805 3.66226 0
M  V30 29520 N 2716.75 -1.1702 1.05565 0
M  V30 29521 C 2717.68 -2.23347 0.681065 0
M  V30 29522 C 2718.66 -1.67006 -0.322954 0
M  V30 29523 O 2719.84 -1.9317 -0.199712 0
M  V30 29524 C 2716.97 -3.4725 0.0589663 0
M  V30 29525 C 2715.93 -4.16437 0.988155 0
M  V30 29526 C 2715.25 -5.34206 0.22974 0
M  V30 29527 C 2716.55 -4.68245 2.31396 0
M  V30 29528 H 2718.25 -2.54936 1.56997 0
M  V30 29529 H 2715.79 -1.22539 0.756324 0
M  V30 29530 H 2717.75 -4.20852 -0.214908 0
M  V30 29531 H 2716.47 -3.14939 -0.864913 0
M  V30 29532 H 2715.13 -3.44752 1.24666 0
M  V30 29533 H 2714.78 -4.98147 -0.697024 0
M  V30 29534 H 2714.48 -5.81435 0.848917 0
M  V30 29535 H 2716 -6.10589 -0.0367621 0
M  V30 29536 H 2717.42 -5.33464 2.09973 0
M  V30 29537 H 2715.81 -5.26067 2.88745 0
M  V30 29538 H 2716.88 -3.8485 2.94989 0
M  V30 29539 N 2718.23 -0.837197 -1.33524 0
M  V30 29540 C 2719.16 -0.284246 -2.31763 0
M  V30 29541 C 2720.14 0.607114 -1.58897 0
M  V30 29542 O 2721.32 0.531015 -1.86799 0
M  V30 29543 C 2718.45 0.542901 -3.4303 0
M  V30 29544 C 2717.41 -0.252526 -4.27254 0
M  V30 29545 C 2716.73 0.698266 -5.30121 0
M  V30 29546 C 2718.03 -1.46866 -5.01226 0
M  V30 29547 H 2719.73 -1.10507 -2.7826 0
M  V30 29548 H 2717.27 -0.532836 -1.33779 0
M  V30 29549 H 2719.22 0.940024 -4.10782 0
M  V30 29550 H 2717.95 1.39692 -2.95218 0
M  V30 29551 H 2716.61 -0.631188 -3.61125 0
M  V30 29552 H 2716.26 1.54864 -4.78567 0
M  V30 29553 H 2715.96 0.170171 -5.87354 0
M  V30 29554 H 2717.48 1.09294 -6.00739 0
M  V30 29555 H 2718.89 -1.14479 -5.61754 0
M  V30 29556 H 2717.29 -1.93343 -5.68101 0
M  V30 29557 H 2718.36 -2.23932 -4.30096 0
M  V30 29558 N 2719.7 1.45999 -0.593476 0
M  V30 29559 C 2720.95 2.02629 -0.0833111 0
M  V30 29560 C 2721.28 1.46268 1.27747 0
M  V30 29561 O 2720.56 0.631898 1.83949 0
M  V30 29562 C 2720.84 3.60088 -0.0291389 0
M  V30 29563 C 2720.69 4.26811 -1.41958 0
M  V30 29564 C 2722.01 4.35032 0.665979 0
M  V30 29565 H 2719.13 0.736316 -0.031749 0
M  V30 29566 H 2721.77 1.74018 -0.762742 0
M  V30 29567 H 2719.92 3.84595 0.549464 0
M  V30 29568 H 2721.6 4.13535 -2.04418 0
M  V30 29569 H 2719.84 3.85757 -1.98429 0
M  V30 29570 H 2720.51 5.35637 -1.33405 0
M  V30 29571 H 2722.99 4.15735 0.174328 0
M  V30 29572 H 2721.86 5.44759 0.672945 0
M  V30 29573 H 2722.12 4.06872 1.72938 0
M  V30 29574 N 2721.18 0.331843 1.54067 0
M  V30 29575 C 2722.13 -0.545781 2.26106 0
M  V30 29576 C 2723.12 -1.1117 1.27818 0
M  V30 29577 O 2724.33 -1.05879 1.45567 0
M  V30 29578 H 2720.71 -0.19467 0.726366 0
M  V30 29579 H 2722.68 0.0839834 2.98282 0
M  V30 29580 C 2721.43 -1.69087 3.03817 0
M  V30 29581 H 2720.75 -1.26466 3.79271 0
M  V30 29582 H 2722.19 -2.28037 3.57457 0
M  V30 29583 C 2720.65 -2.61339 2.12611 0
M  V30 29584 O 2721.18 -3.63277 1.71443 0
M  V30 29585 N 2719.38 -2.2976 1.77929 0
M  V30 29586 H 2718.93 -1.46905 2.11605 0
M  V30 29587 H 2718.89 -2.91745 1.17185 0
M  V30 29588 N 2722.66 -1.57485 0.0601958 0
M  V30 29589 C 2724.07 -1.80578 -0.474185 0
M  V30 29590 C 2724.42 -0.973177 -1.70363 0
M  V30 29591 O 2723.55 -0.192344 -2.15543 0
M  V30 29592 C 2724.14 -3.27518 -0.867044 0
M  V30 29593 C 2722.7 -3.51497 -1.34635 0
M  V30 29594 C 2721.85 -2.75378 -0.325892 0
M  V30 29595 H 2724.8 -1.56102 0.286001 0
M  V30 29596 H 2724.82 -3.38932 -1.72932 0
M  V30 29597 H 2724.33 -3.8809 0.0279609 0
M  V30 29598 H 2722.43 -2.96216 -2.26025 0
M  V30 29599 H 2722.55 -4.60203 -1.33228 0
M  V30 29600 H 2720.91 -2.41787 -0.800706 0
M  V30 29601 H 2721.69 -3.38682 0.561185 0
M  V30 29602 N 2724.14 0.213268 -1.5615 0
M  V30 29603 C 2725.42 0.961251 -1.70351 0
M  V30 29604 C 2725.8 2.021 -0.609827 0
M  V30 29605 O 2725.14 2.25285 0.381948 0
M  V30 29606 C 2725.35 1.56418 -3.11985 0
M  V30 29607 C 2726.7 2.05328 -3.71653 0
M  V30 29608 O 2727.73 1.66296 -3.14998 0
M  V30 29609 O 2726.58 2.77094 -4.71043 0
M  V30 29610 H 2723.68 0.44957 -0.694129 0
M  V30 29611 H 2726.22 0.204397 -1.68465 0
M  V30 29612 H 2725 0.799389 -3.83048 0
M  V30 29613 H 2724.62 2.38636 -3.18023 0
M  V30 29614 N 2725.62 1.50103 0.480296 0
M  V30 29615 C 2726.55 1.64436 1.59666 0
M  V30 29616 C 2727.56 0.526177 1.54062 0
M  V30 29617 O 2728.75 0.79902 1.59618 0
M  V30 29618 C 2725.85 1.60425 2.98525 0
M  V30 29619 C 2725.02 2.88123 3.29095 0
M  V30 29620 C 2724.08 2.76881 4.47463 0
M  V30 29621 O 2723.11 3.50833 4.48224 0
M  V30 29622 N 2724.31 1.89816 5.48589 0
M  V30 29623 H 2727.08 2.60726 1.47791 0
M  V30 29624 H 2724.64 1.47452 0.668554 0
M  V30 29625 H 2726.63 1.5053 3.75663 0
M  V30 29626 H 2725.2 0.719089 3.04217 0
M  V30 29627 H 2724.42 3.12215 2.40656 0
M  V30 29628 H 2725.71 3.7274 3.46327 0
M  V30 29629 H 2725.1 1.29029 5.50788 0
M  V30 29630 H 2723.66 1.8583 6.24748 0
M  V30 29631 N 2727.09 -0.732829 1.39526 0
M  V30 29632 C 2728.51 -1.3112 1.32908 0
M  V30 29633 C 2728.86 -1.96199 -0.00555259 0
M  V30 29634 O 2727.98 -1.96444 -0.907672 0
M  V30 29635 C 2728.58 -2.38422 2.40708 0
M  V30 29636 C 2727.14 -2.91927 2.37604 0
M  V30 29637 C 2726.28 -1.65519 2.22483 0
M  V30 29638 H 2729.23 -0.530181 1.49582 0
M  V30 29639 H 2729.25 -3.18863 2.07622 0
M  V30 29640 H 2728.77 -1.91027 3.37832 0
M  V30 29641 H 2726.87 -3.43597 1.44125 0
M  V30 29642 H 2726.98 -3.44894 3.32544 0
M  V30 29643 H 2725.34 -1.89937 1.69694 0
M  V30 29644 H 2726.13 -1.20173 3.2158 0
M  V30 29645 N 2728.57 -1.24737 -0.963244 0
M  V30 29646 C 2729.99 -1.01373 -1.23271 0
M  V30 29647 C 2730.19 0.274741 -1.99618 0
M  V30 29648 O 2729.24 0.989728 -2.32294 0
M  V30 29649 C 2730.56 -2.23155 -2.0155 0
M  V30 29650 C 2732.11 -2.27827 -2.14625 0
M  V30 29651 C 2732.58 -3.49242 -2.963 0
M  V30 29652 N 2734.07 -3.49586 -3.03881 0
M  V30 29653 C 2734.81 -4.40193 -3.67448 0
M  V30 29654 N 2734.3 -5.4106 -4.32696 0
M  V30 29655 N 2736.1 -4.27894 -3.64504 0
M  V30 29656 H 2728.25 -2.07529 -0.452258 0
M  V30 29657 H 2730.51 -0.910931 -0.262504 0
M  V30 29658 H 2730.22 -3.16753 -1.52841 0
M  V30 29659 H 2730.09 -2.25633 -3.02274 0
M  V30 29660 H 2732.48 -1.34757 -2.62535 0
M  V30 29661 H 2732.56 -2.29372 -1.13234 0
M  V30 29662 H 2732.2 -4.42628 -2.49084 0
M  V30 29663 H 2732.13 -3.4494 -3.97899 0
M  V30 29664 H 2734.62 -2.76616 -2.57472 0
M  V30 29665 H 2734.94 -6.06423 -4.79031 0
M  V30 29666 H 2733.28 -5.44942 -4.31351 0
M  V30 29667 H 2736.47 -3.48326 -3.12709 0
M  V30 29668 H 2736.64 -4.98706 -4.13759 0
M  V30 29669 N 2730.05 1.16459 -1.06184 0
M  V30 29670 C 2730.98 2.22982 -0.6929 0
M  V30 29671 C 2731.96 1.67175 0.314092 0
M  V30 29672 O 2733.15 1.93274 0.189465 0
M  V30 29673 C 2730.28 3.47214 -0.077381 0
M  V30 29674 C 2729.23 4.15907 -1.01023 0
M  V30 29675 C 2728.56 5.34077 -0.258067 0
M  V30 29676 C 2729.86 4.67011 -2.33876 0
M  V30 29677 H 2731.55 2.54099 -1.58347 0
M  V30 29678 H 2729.1 1.22136 -0.762812 0
M  V30 29679 H 2731.05 4.2096 0.192586 0
M  V30 29680 H 2729.77 3.15394 0.848199 0
M  V30 29681 H 2728.43 3.44086 -1.26492 0
M  V30 29682 H 2728.08 4.9851 0.670596 0
M  V30 29683 H 2727.78 5.80977 -0.87974 0
M  V30 29684 H 2729.3 6.106 0.00438055 0
M  V30 29685 H 2730.72 5.32343 -2.12799 0
M  V30 29686 H 2729.12 5.24528 -2.91531 0
M  V30 29687 H 2730.19 3.8328 -2.97025 0
M  V30 29688 N 2731.53 0.844266 1.33079 0
M  V30 29689 C 2732.76 0.456238 2.01807 0
M  V30 29690 C 2733.17 -0.944102 1.635 0
M  V30 29691 O 2732.53 -1.61442 0.851049 0
M  V30 29692 C 2732.58 0.573576 3.56921 0
M  V30 29693 O 2732.3 1.91874 3.93847 0
M  V30 29694 C 2733.8 0.183203 4.42921 0
M  V30 29695 H 2731.02 0.180489 0.64627 0
M  V30 29696 H 2733.57 1.13833 1.69889 0
M  V30 29697 H 2731.72 -0.0606686 3.87352 0
M  V30 29698 H 2732.13 1.90811 4.88561 0
M  V30 29699 H 2733.61 0.316337 5.51093 0
M  V30 29700 H 2734.09 -0.875401 4.30387 0
M  V30 29701 H 2734.69 0.7921 4.17859 0
M  V30 29702 N 2733.01 -1.45682 0.60121 0
M  V30 29703 C 2734.26 -2.01492 0.0915307 0
M  V30 29704 C 2734.57 -1.47619 -1.28328 0
M  V30 29705 O 2735.77 -1.95365 -1.88533 0
M  V30 29706 C 2734.23 -3.59723 0.112973 0
M  V30 29707 C 2733.84 -4.22593 1.48724 0
M  V30 29708 C 2735.58 -4.23122 -0.341797 0
M  V30 29709 C 2733.49 -5.72957 1.46541 0
M  V30 29710 H 2732.42 -0.753385 0.0304497 0
M  V30 29711 H 2735.07 -1.67221 0.755597 0
M  V30 29712 H 2733.45 -3.91154 -0.617623 0
M  V30 29713 H 2734.63 -4.02745 2.23904 0
M  V30 29714 H 2732.94 -3.71363 1.88357 0
M  V30 29715 H 2735.54 -5.33368 -0.37721 0
M  V30 29716 H 2735.88 -3.93349 -1.36318 0
M  V30 29717 H 2736.41 -3.96384 0.335326 0
M  V30 29718 H 2733.15 -6.07419 2.46419 0
M  V30 29719 H 2732.67 -5.95015 0.756102 0
M  V30 29720 H 2734.35 -6.36032 1.18629 0
M  V30 29721 N 2734.48 -0.340009 -1.53889 0
M  V30 29722 C 2735.9 0.144638 -1.86139 0
M  V30 29723 C 2736.25 1.50283 -1.26132 0
M  V30 29724 O 2735.37 2.08661 -0.573552 0
M  V30 29725 C 2735.97 0.269226 -3.37729 0
M  V30 29726 C 2734.53 0.698103 -3.6987 0
M  V30 29727 C 2733.67 -0.170298 -2.76777 0
M  V30 29728 H 2736.62 -0.55973 -1.48502 0
M  V30 29729 H 2736.64 1.09734 -3.64333 0
M  V30 29730 H 2736.16 -0.719433 -3.81374 0
M  V30 29731 H 2734.26 1.69591 -3.31767 0
M  V30 29732 H 2734.37 0.490449 -4.76583 0
M  V30 29733 H 2732.73 0.356799 -2.52188 0
M  V30 29734 H 2733.52 -1.15603 -3.23251 0
M  V30 29735 N 2735.96 1.57451 -0.0685468 0
M  V30 29736 C 2737.21 1.92542 0.600864 0
M  V30 29737 C 2737.53 0.950269 1.70966 0
M  V30 29738 O 2738.73 1.19388 2.43842 0
M  V30 29739 C 2737.19 3.42025 1.12013 0
M  V30 29740 C 2736.8 4.4798 0.042524 0
M  V30 29741 C 2738.54 3.86122 1.7638 0
M  V30 29742 C 2736.45 5.88592 0.575655 0
M  V30 29743 H 2735.38 0.718634 0.228213 0
M  V30 29744 H 2738.03 1.82963 -0.140255 0
M  V30 29745 H 2736.41 3.46666 1.91412 0
M  V30 29746 H 2737.58 4.5495 -0.7319 0
M  V30 29747 H 2735.9 4.1333 -0.504715 0
M  V30 29748 H 2738.5 4.88557 2.17293 0
M  V30 29749 H 2738.84 3.23313 2.62249 0
M  V30 29750 H 2739.37 3.8407 1.03608 0
M  V30 29751 H 2736.11 6.55039 -0.245807 0
M  V30 29752 H 2735.63 5.85147 1.31767 0
M  V30 29753 H 2737.31 6.38372 1.05309 0
M  V30 29754 N 2737.44 -0.204984 1.56261 0
M  V30 29755 C 2738.67 -0.947479 1.84493 0
M  V30 29756 C 2739.09 -1.76478 0.650925 0
M  V30 29757 O 2738.45 -1.76825 -0.400319 0
M  V30 29758 C 2738.5 -1.82742 3.10866 0
M  V30 29759 O 2737.6 -2.92495 2.90724 0
M  V30 29760 H 2736.94 -0.267375 0.607788 0
M  V30 29761 H 2739.47 -0.213287 2.03485 0
M  V30 29762 H 2739.48 -2.23401 3.41403 0
M  V30 29763 H 2738.16 -1.22683 3.97394 0
M  V30 29764 H 2736.73 -2.55662 2.71461 0
M  V30 29765 N 2738.92 -1.50356 -0.472329 0
M  V30 29766 C 2739.85 -1.65281 -1.58792 0
M  V30 29767 C 2740.86 -0.53434 -1.53781 0
M  V30 29768 O 2742.05 -0.807474 -1.59192 0
M  V30 29769 C 2739.15 -1.62006 -2.9767 0
M  V30 29770 C 2738.33 -2.89864 -3.27563 0
M  V30 29771 C 2737.39 -2.7925 -4.45989 0
M  V30 29772 O 2736.41 -3.53205 -4.46357 0
M  V30 29773 N 2737.61 -1.92723 -5.47575 0
M  V30 29774 H 2740.38 -2.61506 -1.46406 0
M  V30 29775 H 2737.94 -1.47804 -0.660725 0
M  V30 29776 H 2739.93 -1.5252 -3.7486 0
M  V30 29777 H 2738.5 -0.735213 -3.03831 0
M  V30 29778 H 2737.72 -3.13487 -2.38997 0
M  V30 29779 H 2739.01 -3.74571 -3.44346 0
M  V30 29780 H 2738.41 -1.31949 -5.50096 0
M  V30 29781 H 2736.96 -1.89141 -6.23754 0
M  V30 29782 N 2740.4 0.725419 -1.39912 0
M  V30 29783 C 2741.65 1.48066 -1.36965 0
M  V30 29784 C 2741.96 1.95579 0.0284134 0
M  V30 29785 O 2743.17 2.70899 0.180487 0
M  V30 29786 C 2741.62 2.67594 -2.40669 0
M  V30 29787 C 2741.23 2.2699 -3.86238 0
M  V30 29788 C 2742.97 3.45375 -2.46813 0
M  V30 29789 C 2740.88 3.43298 -4.8156 0
M  V30 29790 H 2739.81 0.556056 -0.509233 0
M  V30 29791 H 2742.46 0.790425 -1.65604 0
M  V30 29792 H 2740.84 3.38739 -2.05115 0
M  V30 29793 H 2742.02 1.63329 -4.30883 0
M  V30 29794 H 2740.33 1.62278 -3.83477 0
M  V30 29795 H 2742.93 4.31903 -3.1522 0
M  V30 29796 H 2743.27 3.88507 -1.49559 0
M  V30 29797 H 2743.81 2.81266 -2.81308 0
M  V30 29798 H 2740.54 3.05207 -5.80111 0
M  V30 29799 H 2740.06 4.05908 -4.41587 0
M  V30 29800 H 2741.74 4.09501 -5.00917 0
M  V30 29801 N 2741.88 1.25246 0.956615 0
M  V30 29802 C 2742.84 1.05541 2.03455 0
M  V30 29803 C 2743.84 0.00889143 1.60798 0
M  V30 29804 O 2745.03 0.250895 1.72384 0
M  V30 29805 C 2742.16 0.602024 3.35542 0
M  V30 29806 H 2743.35 2.01227 2.22369 0
M  V30 29807 H 2740.91 1.07625 1.13343 0
M  V30 29808 H 2741.64 -0.357528 3.22323 0
M  V30 29809 H 2741.43 1.35749 3.67851 0
M  V30 29810 H 2742.92 0.485527 4.14768 0
M  V30 29811 N 2743.35 -1.15894 1.068 0
M  V30 29812 C 2744.76 -1.68147 0.811384 0
M  V30 29813 C 2745.12 -1.84612 -0.664307 0
M  V30 29814 O 2744.24 -1.54538 -1.51483 0
M  V30 29815 C 2744.84 -3.05426 1.46629 0
M  V30 29816 C 2743.39 -3.54779 1.25732 0
M  V30 29817 C 2742.54 -2.30638 1.53953 0
M  V30 29818 H 2745.49 -1.00185 1.2308 0
M  V30 29819 H 2745.51 -3.70078 0.884435 0
M  V30 29820 H 2745.03 -2.93411 2.5403 0
M  V30 29821 H 2743.13 -3.72045 0.203286 0
M  V30 29822 H 2743.24 -4.3656 1.97362 0
M  V30 29823 H 2741.6 -2.35904 0.960291 0
M  V30 29824 H 2742.39 -2.21215 2.62524 0
M  V30 29825 N 2744.83 -0.851312 -1.32629 0
M  V30 29826 C 2746.11 -0.374482 -1.91982 0
M  V30 29827 C 2746.49 1.14158 -1.7757 0
M  V30 29828 O 2745.84 1.9617 -1.17174 0
M  V30 29829 C 2746.05 -0.835148 -3.3886 0
M  V30 29830 C 2747.39 -0.850383 -4.15997 0
M  V30 29831 O 2748.42 -0.779566 -3.47565 0
M  V30 29832 O 2747.28 -0.949575 -5.38187 0
M  V30 29833 H 2744.37 -0.108554 -0.819845 0
M  V30 29834 H 2746.92 -0.937991 -1.41421 0
M  V30 29835 H 2745.69 -1.8782 -3.43278 0
M  V30 29836 H 2745.31 -0.248902 -3.9682 0
M  V30 29837 N 2746.31 1.45361 -0.608928 0
M  V30 29838 C 2747.24 2.33301 0.0964116 0
M  V30 29839 C 2748.22 1.46909 0.857418 0
M  V30 29840 O 2749.41 1.75678 0.827704 0
M  V30 29841 C 2746.54 3.29637 1.09348 0
M  V30 29842 C 2745.49 4.25674 0.445601 0
M  V30 29843 C 2744.82 5.11711 1.55101 0
M  V30 29844 C 2746.12 5.18437 -0.634063 0
M  V30 29845 H 2747.81 2.92526 -0.63788 0
M  V30 29846 H 2745.36 1.40663 -0.308203 0
M  V30 29847 H 2747.31 3.90028 1.59549 0
M  V30 29848 H 2746.03 2.68573 1.85839 0
M  V30 29849 H 2744.69 3.66583 -0.0355542 0
M  V30 29850 H 2744.34 4.47014 2.30623 0
M  V30 29851 H 2744.04 5.76769 1.12301 0
M  V30 29852 H 2745.56 5.74971 2.05527 0
M  V30 29853 H 2746.98 5.72893 -0.216074 0
M  V30 29854 H 2745.37 5.91979 -0.983893 0
M  V30 29855 H 2746.44 4.60785 -1.51013 0
M  V30 29856 N 2747.79 0.348166 1.53706 0
M  V30 29857 C 2749.04 -0.247957 2.0017 0
M  V30 29858 C 2749.35 -1.51284 1.23986 0
M  V30 29859 O 2750.56 -2.18649 1.6095 0
M  V30 29860 C 2749.01 -0.492396 3.56516 0
M  V30 29861 C 2748.62 0.756854 4.41561 0
M  V30 29862 C 2750.36 -1.04712 4.11382 0
M  V30 29863 C 2748.27 0.48296 5.89425 0
M  V30 29864 H 2747.2 -0.096432 0.747808 0
M  V30 29865 H 2749.85 0.464211 1.77531 0
M  V30 29866 H 2748.23 -1.26538 3.75239 0
M  V30 29867 H 2749.41 1.5313 4.34612 0
M  V30 29868 H 2747.72 1.23355 3.97709 0
M  V30 29869 H 2750.32 -1.26708 5.1947 0
M  V30 29870 H 2750.66 -2.00405 3.64889 0
M  V30 29871 H 2751.2 -0.334731 3.96389 0
M  V30 29872 H 2747.93 1.40973 6.40162 0
M  V30 29873 H 2747.45 -0.253311 5.99265 0
M  V30 29874 H 2749.13 0.10193 6.4692 0
M  V30 29875 N 2749.27 -1.57412 0.0768958 0
M  V30 29876 C 2750.2 -2.16038 -0.885988 0
M  V30 29877 C 2751.18 -1.08878 -1.30689 0
M  V30 29878 O 2752.36 -1.36936 -1.37703 0
M  V30 29879 C 2749.49 -2.72611 -2.15175 0
M  V30 29880 C 2748.45 -3.84983 -1.87008 0
M  V30 29881 C 2747.77 -4.28181 -3.20258 0
M  V30 29882 C 2749.07 -5.08996 -1.17134 0
M  V30 29883 H 2750.77 -2.96748 -0.397589 0
M  V30 29884 H 2748.31 -1.42744 -0.189798 0
M  V30 29885 H 2750.26 -3.12271 -2.82957 0
M  V30 29886 H 2748.99 -1.8913 -2.66266 0
M  V30 29887 H 2747.65 -3.45835 -1.2163 0
M  V30 29888 H 2747.3 -3.41614 -3.69201 0
M  V30 29889 H 2747 -5.03933 -3.02201 0
M  V30 29890 H 2748.52 -4.7046 -3.89229 0
M  V30 29891 H 2749.93 -5.4594 -1.74993 0
M  V30 29892 H 2748.33 -5.90059 -1.09318 0
M  V30 29893 H 2749.4 -4.84664 -0.15121 0
M  V30 29894 N 2750.74 0.196695 -1.56368 0
M  V30 29895 C 2751.71 1.22743 -1.93563 0
M  V30 29896 C 2752.71 1.38522 -0.81659 0
M  V30 29897 O 2753.9 1.36362 -1.08403 0
M  V30 29898 C 2751.03 2.59708 -2.20827 0
M  V30 29899 H 2752.22 0.909536 -2.85775 0
M  V30 29900 H 2749.78 0.438148 -1.50033 0
M  V30 29901 H 2750.51 2.96554 -1.31248 0
M  V30 29902 H 2750.3 2.49626 -3.02372 0
M  V30 29903 H 2751.79 3.34039 -2.50614 0
M  V30 29904 N 2752.22 1.50604 0.464349 0
M  V30 29905 C 2753.5 1.52452 1.22547 0
M  V30 29906 C 2753.88 0.273072 2.09326 0
M  V30 29907 O 2753.23 -0.743204 2.16076 0
M  V30 29908 C 2753.44 2.82397 2.05069 0
M  V30 29909 C 2754.79 3.33317 2.6303 0
M  V30 29910 O 2755.81 2.83764 2.15305 0
M  V30 29911 O 2754.67 4.19715 3.50003 0
M  V30 29912 H 2751.76 0.611785 0.55646 0
M  V30 29913 H 2754.31 1.62899 0.47562 0
M  V30 29914 H 2753.08 3.6495 1.41163 0
M  V30 29915 H 2752.7 2.74985 2.87174 0
M  V30 29916 N 2753.7 -0.717989 1.40295 0
M  V30 29917 C 2754.63 -1.84495 1.43122 0
M  V30 29918 C 2755.61 -1.67567 0.292433 0
M  V30 29919 O 2756.8 -1.87634 0.500707 0
M  V30 29920 C 2753.93 -3.22425 1.29071 0
M  V30 29921 C 2752.88 -3.54021 2.40527 0
M  V30 29922 C 2752.21 -4.91069 2.11555 0
M  V30 29923 C 2753.51 -3.55262 3.82865 0
M  V30 29924 H 2755.2 -1.82387 2.37435 0
M  V30 29925 H 2752.75 -0.87607 1.14285 0
M  V30 29926 H 2754.7 -4.00955 1.29665 0
M  V30 29927 H 2753.42 -3.25103 0.312328 0
M  V30 29928 H 2752.08 -2.7783 2.39178 0
M  V30 29929 H 2751.73 -4.90347 1.12113 0
M  V30 29930 H 2751.43 -5.13175 2.86225 0
M  V30 29931 H 2752.95 -5.71935 2.13827 0
M  V30 29932 H 2754.37 -4.23837 3.86051 0
M  V30 29933 H 2752.77 -3.88894 4.57035 0
M  V30 29934 H 2753.84 -2.54698 4.12622 0
M  V30 29935 N 2755.18 -1.25752 -0.94996 0
M  V30 29936 C 2756.59 -1.09817 -1.50987 0
M  V30 29937 C 2756.94 0.324522 -1.93498 0
M  V30 29938 O 2756.07 1.21503 -1.7907 0
M  V30 29939 C 2756.66 -1.98734 -2.74391 0
M  V30 29940 C 2755.22 -1.86971 -3.26678 0
M  V30 29941 C 2754.37 -1.92606 -1.99495 0
M  V30 29942 H 2757.32 -1.3897 -0.766362 0
M  V30 29943 H 2757.34 -1.53007 -3.48381 0
M  V30 29944 H 2756.85 -3.02272 -2.4342 0
M  V30 29945 H 2754.95 -0.863343 -3.6246 0
M  V30 29946 H 2755.06 -2.72034 -3.94379 0
M  V30 29947 H 2753.43 -1.3655 -2.15003 0
M  V30 29948 H 2754.21 -2.97758 -1.70866 0
M  V30 29949 N 2756.66 1.15326 -1.07413 0
M  V30 29950 C 2758.07 1.38115 -0.799783 0
M  V30 29951 C 2758.27 1.92494 0.595687 0
M  V30 29952 O 2757.33 2.13108 1.35429 0
M  V30 29953 C 2758.64 2.35155 -1.87411 0
M  V30 29954 C 2760.19 2.48816 -1.89894 0
M  V30 29955 C 2760.66 3.49148 -2.96412 0
M  V30 29956 N 2762.16 3.56684 -2.95518 0
M  V30 29957 C 2762.89 4.34138 -3.74582 0
M  V30 29958 N 2762.39 5.1492 -4.63497 0
M  V30 29959 N 2764.18 4.29233 -3.62926 0
M  V30 29960 H 2756.33 0.783705 -1.97413 0
M  V30 29961 H 2758.59 0.407139 -0.85612 0
M  V30 29962 H 2758.3 2.02315 -2.87683 0
M  V30 29963 H 2758.17 3.34941 -1.73476 0
M  V30 29964 H 2760.56 2.80953 -0.902726 0
M  V30 29965 H 2760.64 1.49026 -2.07906 0
M  V30 29966 H 2760.29 3.17745 -3.96233 0
M  V30 29967 H 2760.22 4.48695 -2.75646 0
M  V30 29968 H 2762.71 2.99026 -2.31066 0
M  V30 29969 H 2763.02 5.71267 -5.20455 0
M  V30 29970 H 2761.36 5.14224 -4.67546 0
M  V30 29971 H 2764.56 3.65189 -2.92839 0
M  V30 29972 H 2764.73 4.89348 -4.24786 0
M  V30 29973 N 2758.13 0.858334 1.32176 0
M  V30 29974 C 2759.08 0.294483 2.30728 0
M  V30 29975 C 2760.08 -0.584137 1.5901 0
M  V30 29976 O 2761.28 -0.471531 1.73714 0
M  V30 29977 H 2757.66 0.0765303 0.748096 0
M  V30 29978 H 2759.63 1.13985 2.75772 0
M  V30 29979 C 2758.38 -0.499147 3.44099 0
M  V30 29980 H 2757.7 0.167649 3.99448 0
M  V30 29981 H 2759.14 -0.8592 4.15203 0
M  V30 29982 C 2757.6 -1.68583 2.91687 0
M  V30 29983 O 2758.13 -2.78498 2.89486 0
M  V30 29984 N 2756.34 -1.51411 2.48039 0
M  V30 29985 H 2755.88 -0.619962 2.50028 0
M  V30 29986 H 2755.84 -2.30953 2.13326 0
M  V30 29987 N 2759.61 -1.45036 0.616628 0
M  V30 29988 C 2760.86 -2.01384 0.112897 0
M  V30 29989 C 2761.17 -1.48971 -1.26755 0
M  V30 29990 O 2762.38 -1.97354 -1.86451 0
M  V30 29991 C 2760.84 -3.59583 0.15112 0
M  V30 29992 C 2760.44 -4.20992 1.53198 0
M  V30 29993 C 2762.19 -4.2346 -0.2969 0
M  V30 29994 C 2760.1 -5.7137 1.5261 0
M  V30 29995 H 2759.03 -0.75302 0.0384387 0
M  V30 29996 H 2761.68 -1.66411 0.773291 0
M  V30 29997 H 2760.06 -3.91787 -0.576101 0
M  V30 29998 H 2761.23 -4.00348 2.28163 0
M  V30 29999 H 2759.55 -3.69344 1.92286 0
M  V30 30000 H 2762.14 -5.33738 -0.320618 0
M  V30 30001 H 2762.49 -3.94772 -1.32138 0
M  V30 30002 H 2763.02 -3.96006 0.377349 0
M  V30 30003 H 2759.76 -6.04771 2.52848 0
M  V30 30004 H 2759.28 -5.9418 0.819168 0
M  V30 30005 H 2760.96 -6.34738 1.25368 0
M  V30 30006 N 2761.09 -0.356312 -1.53519 0
M  V30 30007 C 2762.02 0.537874 -2.2177 0
M  V30 30008 C 2763 1.0903 -1.20628 0
M  V30 30009 O 2764.19 1.14818 -1.49496 0
M  V30 30010 C 2761.31 1.74121 -2.90516 0
M  V30 30011 C 2760.36 1.31708 -4.05654 0
M  V30 30012 S 2761.19 0.326142 -5.34506 0
M  V30 30013 C 2762.35 1.53602 -6.0676 0
M  V30 30014 H 2762.58 -0.0417934 -2.97271 0
M  V30 30015 H 2760.11 -0.140399 -1.5376 0
M  V30 30016 H 2762.07 2.4315 -3.30739 0
M  V30 30017 H 2760.73 2.29211 -2.14758 0
M  V30 30018 H 2759.93 2.21463 -4.52736 0
M  V30 30019 H 2759.53 0.706119 -3.67274 0
M  V30 30020 H 2761.82 2.46852 -6.30928 0
M  V30 30021 H 2762.76 1.10675 -6.99397 0
M  V30 30022 H 2763.17 1.73786 -5.37083 0
M  V30 30023 N 2762.57 1.57369 -0.0852427 0
M  V30 30024 C 2763.5 2.16505 0.874518 0
M  V30 30025 C 2764.48 1.0957 1.30109 0
M  V30 30026 O 2765.66 1.37665 1.36975 0
M  V30 30027 C 2762.79 2.73749 2.13726 0
M  V30 30028 C 2761.75 3.85969 1.84964 0
M  V30 30029 C 2761.07 4.29873 3.17983 0
M  V30 30030 C 2762.37 5.0961 1.14433 0
M  V30 30031 H 2764.07 2.96955 0.381847 0
M  V30 30032 H 2761.61 1.42842 0.182225 0
M  V30 30033 H 2763.57 3.13768 2.81297 0
M  V30 30034 H 2762.29 1.90539 2.65259 0
M  V30 30035 H 2760.95 3.46475 1.19794 0
M  V30 30036 H 2760.6 3.43567 3.67384 0
M  V30 30037 H 2760.3 5.05528 2.99525 0
M  V30 30038 H 2761.82 4.72518 3.86729 0
M  V30 30039 H 2763.24 5.4686 1.72096 0
M  V30 30040 H 2761.63 5.9063 1.06187 0
M  V30 30041 H 2762.7 4.84738 0.125505 0
M  V30 30042 N 2764.05 -0.188399 1.5647 0
M  V30 30043 C 2764.99 -1.25289 1.95973 0
M  V30 30044 C 2765.99 -1.46758 0.846073 0
M  V30 30045 O 2767.19 -1.4754 1.03111 0
M  V30 30046 H 2763.57 -0.420773 0.623261 0
M  V30 30047 H 2765.54 -0.892742 2.84733 0
M  V30 30048 C 2764.29 -2.58873 2.32121 0
M  V30 30049 H 2763.61 -2.4317 3.17345 0
M  V30 30050 H 2765.05 -3.32086 2.63619 0
M  V30 30051 C 2763.51 -3.16363 1.15828 0
M  V30 30052 O 2764.04 -3.99318 0.436855 0
M  V30 30053 N 2762.25 -2.75204 0.933327 0
M  V30 30054 H 2761.79 -2.07849 1.52173 0
M  V30 30055 H 2761.75 -3.14008 0.157031 0
M  V30 30056 N 2765.53 -1.50848 -0.456355 0
M  V30 30057 C 2766.47 -1.71332 -1.57315 0
M  V30 30058 C 2767.47 -0.579315 -1.59186 0
M  V30 30059 O 2768.67 -0.760209 -1.63159 0
M  V30 30060 H 2765.05 -0.541033 -0.52229 0
M  V30 30061 H 2767.02 -2.64986 -1.37205 0
M  V30 30062 C 2765.77 -1.83816 -2.95139 0
M  V30 30063 H 2765.09 -2.70472 -2.94423 0
M  V30 30064 H 2766.53 -2.02168 -3.72698 0
M  V30 30065 C 2764.99 -0.593282 -3.31635 0
M  V30 30066 O 2765.52 0.260827 -4.00852 0
M  V30 30067 N 2763.73 -0.442953 -2.87204 0
M  V30 30068 H 2763.27 -1.13905 -2.31049 0
M  V30 30069 H 2763.23 0.388785 -3.11987 0
M  V30 30070 N 2767 0.710538 -1.40674 0
M  V30 30071 C 2768.28 1.46396 -1.29721 0
M  V30 30072 C 2768.66 2.1094 0.0821399 0
M  V30 30073 O 2768.01 2.00536 1.09533 0
M  V30 30074 C 2768.22 2.49558 -2.43971 0
M  V30 30075 C 2769.57 3.15243 -2.84441 0
M  V30 30076 O 2770.59 2.59879 -2.43601 0
M  V30 30077 O 2769.45 4.15483 -3.55015 0
M  V30 30078 H 2766.54 0.65125 -0.509709 0
M  V30 30079 H 2769.09 0.742285 -1.52605 0
M  V30 30080 H 2767.86 2.00415 -3.3608 0
M  V30 30081 H 2767.48 3.29254 -2.22885 0
M  V30 30082 N 2768.48 1.26254 0.943277 0
M  V30 30083 C 2769.39 1.09401 2.0753 0
M  V30 30084 C 2770.41 0.0280755 1.73977 0
M  V30 30085 O 2771.58 0.231372 2.00067 0
M  V30 30086 C 2768.65 0.726582 3.39001 0
M  V30 30087 C 2767.71 1.8717 3.8635 0
M  V30 30088 C 2766.94 1.52171 5.11546 0
M  V30 30089 O 2767.17 0.422485 5.68833 0
M  V30 30090 O 2766.1 2.35575 5.53885 0
M  V30 30091 H 2769.93 2.04363 2.24654 0
M  V30 30092 H 2767.51 1.05297 1.05986 0
M  V30 30093 H 2769.39 0.534309 4.17999 0
M  V30 30094 H 2768.07 -0.193664 3.2312 0
M  V30 30095 H 2766.97 2.11892 3.08306 0
M  V30 30096 H 2768.31 2.77159 4.06748 0
M  V30 30097 N 2769.96 -1.14755 1.08024 0
M  V30 30098 C 2770.89 -2.21852 0.728287 0
M  V30 30099 C 2771.87 -1.67654 -0.287457 0
M  V30 30100 O 2773.06 -1.93551 -0.158693 0
M  V30 30101 C 2770.19 -3.47047 0.13261 0
M  V30 30102 C 2769.14 -4.14247 1.07627 0
M  V30 30103 C 2768.47 -5.33599 0.343001 0
M  V30 30104 C 2769.77 -4.63231 2.41276 0
M  V30 30105 H 2771.46 -2.51548 1.6237 0
M  V30 30106 H 2769.01 -1.20907 0.782146 0
M  V30 30107 H 2770.96 -4.21213 -0.125591 0
M  V30 30108 H 2769.68 -3.16703 -0.797915 0
M  V30 30109 H 2768.34 -3.4203 1.3195 0
M  V30 30110 H 2767.99 -4.99514 -0.591203 0
M  V30 30111 H 2767.69 -5.79504 0.972057 0
M  V30 30112 H 2769.21 -6.1053 0.0927611 0
M  V30 30113 H 2770.63 -5.28891 2.21241 0
M  V30 30114 H 2769.02 -5.19824 2.99839 0
M  V30 30115 H 2770.09 -3.78506 3.03086 0
M  V30 30116 N 2771.44 -0.865331 -1.31719 0
M  V30 30117 C 2772.35 -0.320976 -2.32394 0
M  V30 30118 C 2773.36 0.566717 -1.64512 0
M  V30 30119 O 2774.54 0.46454 -1.95969 0
M  V30 30120 C 2771.6 0.47264 -3.43463 0
M  V30 30121 C 2770.67 -0.44246 -4.27014 0
M  V30 30122 C 2769.9 0.313375 -5.32779 0
M  V30 30123 O 2770.12 1.54205 -5.4916 0
M  V30 30124 O 2769.06 -0.326363 -6.01015 0
M  V30 30125 H 2772.88 -1.15533 -2.80866 0
M  V30 30126 H 2770.47 -0.628569 -1.35534 0
M  V30 30127 H 2772.35 0.922709 -4.11174 0
M  V30 30128 H 2771.02 1.28362 -2.97161 0
M  V30 30129 H 2769.93 -0.94093 -3.62074 0
M  V30 30130 H 2771.26 -1.21891 -4.76868 0
M  V30 30131 N 2772.92 1.44707 -0.624311 0
M  V30 30132 C 2774.16 2.02107 -0.126086 0
M  V30 30133 C 2774.49 1.4905 1.24957 0
M  V30 30134 O 2773.75 0.662038 1.84162 0
M  V30 30135 C 2774.04 3.57358 -0.0546981 0
M  V30 30136 C 2773.71 4.2964 -1.36823 0
M  V30 30137 C 2772.37 4.49103 -1.728 0
M  V30 30138 C 2774.72 4.7082 -2.23557 0
M  V30 30139 C 2772.05 5.07006 -2.95231 0
M  V30 30140 C 2774.4 5.30079 -3.45253 0
M  V30 30141 C 2773.07 5.47762 -3.81461 0
M  V30 30142 H 2772.34 0.739562 -0.0461382 0
M  V30 30143 H 2774.99 1.7356 -0.809267 0
M  V30 30144 H 2773.29 3.8528 0.711824 0
M  V30 30145 H 2774.99 3.99494 0.347211 0
M  V30 30146 H 2771.58 4.14816 -1.07824 0
M  V30 30147 H 2775.76 4.55502 -1.97058 0
M  V30 30148 H 2771.02 5.18885 -3.2337 0
M  V30 30149 H 2775.19 5.60939 -4.12699 0
M  V30 30150 H 2772.82 5.92397 -4.76414 0
M  V30 30151 N 2774.39 0.364449 1.53328 0
M  V30 30152 C 2775.3 -0.490512 2.29415 0
M  V30 30153 C 2776.32 -1.09361 1.35337 0
M  V30 30154 O 2777.5 -1.1048 1.68393 0
M  V30 30155 C 2774.56 -1.61524 3.06775 0
M  V30 30156 C 2773.62 -1.03979 4.16518 0
M  V30 30157 C 2772.85 -2.11091 4.9018 0
M  V30 30158 O 2773.08 -3.32183 4.63693 0
M  V30 30159 O 2772.01 -1.74212 5.76137 0
M  V30 30160 H 2775.84 0.128613 3.03428 0
M  V30 30161 H 2773.42 0.128864 1.48843 0
M  V30 30162 H 2775.3 -2.26918 3.55086 0
M  V30 30163 H 2773.98 -2.21978 2.356 0
M  V30 30164 H 2772.89 -0.34979 3.72461 0
M  V30 30165 H 2774.22 -0.479814 4.89856 0
M  V30 30166 N 2775.87 -1.57322 0.0935872 0
M  V30 30167 C 2776.8 -2.10966 -0.895886 0
M  V30 30168 C 2777.82 -1.04656 -1.24703 0
M  V30 30169 O 2779.01 -1.32107 -1.20041 0
M  V30 30170 C 2776.11 -2.57322 -2.20542 0
M  V30 30171 C 2775.28 -3.87449 -2.02983 0
M  V30 30172 C 2774.34 -4.19668 -3.17435 0
M  V30 30173 O 2773.36 -4.88914 -2.91465 0
M  V30 30174 N 2774.57 -3.7495 -4.43162 0
M  V30 30175 H 2777.33 -2.96486 -0.437736 0
M  V30 30176 H 2774.89 -1.61641 -0.0915579 0
M  V30 30177 H 2776.88 -2.75923 -2.96055 0
M  V30 30178 H 2775.45 -1.7682 -2.57785 0
M  V30 30179 H 2774.67 -3.78011 -1.11809 0
M  V30 30180 H 2775.96 -4.72583 -1.88527 0
M  V30 30181 H 2775.36 -3.19051 -4.67143 0
M  V30 30182 H 2773.92 -3.98709 -5.1563 0
M  V30 30183 N 2777.35 0.180099 -1.56568 0
M  V30 30184 C 2778.31 1.20683 -1.94854 0
M  V30 30185 C 2779.31 1.37648 -0.831237 0
M  V30 30186 O 2780.5 1.35204 -1.09843 0
M  V30 30187 C 2777.63 2.57351 -2.2357 0
M  V30 30188 H 2778.83 0.879174 -2.86724 0
M  V30 30189 H 2776.38 0.42221 -1.50489 0
M  V30 30190 H 2777.12 2.95146 -1.34386 0
M  V30 30191 H 2776.9 2.46405 -3.05003 0
M  V30 30192 H 2778.39 3.31362 -2.54143 0
M  V30 30193 N 2778.83 1.51088 0.448349 0
M  V30 30194 C 2780.24 1.55812 1.02857 0
M  V30 30195 C 2780.59 0.375023 1.92582 0
M  V30 30196 O 2779.71 -0.509496 2.10317 0
M  V30 30197 C 2780.31 2.82374 1.87218 0
M  V30 30198 C 2778.87 2.89704 2.40309 0
M  V30 30199 C 2778.02 2.50357 1.19233 0
M  V30 30200 H 2780.97 1.57024 0.230047 0
M  V30 30201 H 2780.99 2.65514 2.72548 0
M  V30 30202 H 2780.5 3.68463 1.21888 0
M  V30 30203 H 2778.6 2.0802 3.09125 0
M  V30 30204 H 2778.71 3.93113 2.7386 0
M  V30 30205 H 2777.08 2.03305 1.53424 0
M  V30 30206 H 2777.86 3.38779 0.555308 0
M  V30 30207 N 2780.31 -0.703068 1.41049 0
M  V30 30208 C 2781.22 -1.847 1.44648 0
M  V30 30209 C 2782.23 -1.70689 0.337808 0
M  V30 30210 O 2783.41 -1.92736 0.584361 0
M  V30 30211 C 2780.47 -3.20615 1.31934 0
M  V30 30212 C 2779.53 -3.46789 2.53053 0
M  V30 30213 C 2778.77 -4.7622 2.40936 0
M  V30 30214 O 2778.99 -5.52187 1.42988 0
M  V30 30215 O 2777.92 -5.0301 3.30552 0
M  V30 30216 H 2781.75 -1.84619 2.41142 0
M  V30 30217 H 2779.34 -0.855145 1.22506 0
M  V30 30218 H 2781.22 -4.01776 1.27099 0
M  V30 30219 H 2779.89 -3.21396 0.385525 0
M  V30 30220 H 2778.8 -2.65589 2.63464 0
M  V30 30221 H 2780.13 -3.50816 3.45237 0
M  V30 30222 N 2781.78 -1.26752 -0.936569 0
M  V30 30223 C 2783.03 -1.12569 -1.68329 0
M  V30 30224 C 2783.36 0.330134 -1.91678 0
M  V30 30225 O 2782.61 1.25858 -1.49861 0
M  V30 30226 C 2782.91 -1.84499 -3.06096 0
M  V30 30227 C 2782.58 -3.34384 -3.02487 0
M  V30 30228 C 2781.24 -3.75268 -3.0121 0
M  V30 30229 C 2783.59 -4.3006 -2.94445 0
M  V30 30230 C 2780.92 -5.10208 -2.89663 0
M  V30 30231 C 2783.27 -5.65046 -2.84439 0
M  V30 30232 C 2781.94 -6.05235 -2.81508 0
M  V30 30233 H 2781.21 -0.411918 -0.615958 0
M  V30 30234 H 2783.85 -1.57252 -1.09289 0
M  V30 30235 H 2782.16 -1.32299 -3.68788 0
M  V30 30236 H 2783.86 -1.70961 -3.6273 0
M  V30 30237 H 2780.45 -3.01864 -3.04263 0
M  V30 30238 H 2784.63 -3.99452 -2.94537 0
M  V30 30239 H 2779.89 -5.40503 -2.85774 0
M  V30 30240 H 2784.06 -6.38861 -2.77181 0
M  V30 30241 H 2781.69 -7.09752 -2.72316 0
M  V30 30242 N 2783.26 1.1418 -1.08631 0
M  V30 30243 C 2784.19 2.21462 -0.740042 0
M  V30 30244 C 2785.17 1.67804 0.278562 0
M  V30 30245 O 2786.36 1.93632 0.148427 0
M  V30 30246 C 2783.49 3.46972 -0.151013 0
M  V30 30247 C 2782.44 4.1367 -1.09822 0
M  V30 30248 C 2781.77 5.33409 -0.371294 0
M  V30 30249 C 2783.07 4.61945 -2.4373 0
M  V30 30250 H 2784.76 2.50683 -1.63701 0
M  V30 30251 H 2782.31 1.2049 -0.788547 0
M  V30 30252 H 2784.26 4.21273 0.103251 0
M  V30 30253 H 2782.99 3.17122 0.781108 0
M  V30 30254 H 2781.64 3.41326 -1.33762 0
M  V30 30255 H 2781.29 4.9982 0.564704 0
M  V30 30256 H 2780.99 5.7898 -1.00278 0
M  V30 30257 H 2782.52 6.10472 -0.125138 0
M  V30 30258 H 2783.93 5.2771 -2.24043 0
M  V30 30259 H 2782.33 5.18226 -3.02591 0
M  V30 30260 H 2783.4 3.76894 -3.05089 0
M  V30 30261 N 2784.74 0.872304 1.31258 0
M  V30 30262 C 2785.67 0.345595 2.30928 0
M  V30 30263 C 2786.65 -0.564772 1.6045 0
M  V30 30264 O 2787.84 -0.481301 1.88141 0
M  V30 30265 C 2784.97 -0.451762 3.44349 0
M  V30 30266 C 2783.92 0.365716 4.26435 0
M  V30 30267 C 2783.25 -0.557469 5.31786 0
M  V30 30268 C 2784.55 1.60104 4.97156 0
M  V30 30269 H 2786.24 1.17846 2.75232 0
M  V30 30270 H 2783.79 0.568117 1.32319 0
M  V30 30271 H 2785.74 -0.830782 4.13129 0
M  V30 30272 H 2784.46 -1.31816 2.98818 0
M  V30 30273 H 2783.12 0.726712 3.59325 0
M  V30 30274 H 2782.77 -1.42121 4.82505 0
M  V30 30275 H 2782.47 -0.0143845 5.87598 0
M  V30 30276 H 2783.99 -0.933281 6.03425 0
M  V30 30277 H 2785.41 1.29333 5.58521 0
M  V30 30278 H 2783.81 2.08337 5.62775 0
M  V30 30279 H 2784.88 2.35257 4.24007 0
M  V30 30280 N 2786.22 -1.44374 0.631976 0
M  V30 30281 C 2787.47 -2.01638 0.136532 0
M  V30 30282 C 2787.79 -1.49971 -1.24634 0
M  V30 30283 O 2787.06 -0.703662 -1.82826 0
M  V30 30284 H 2785.64 -0.745489 0.0474834 0
M  V30 30285 H 2788.3 -1.76863 0.818868 0
M  V30 30286 H 2787.4 -3.11924 0.104872 0
M  V30 30287 N 2787.7 -0.372575 -1.53133 0
M  V30 30288 C 2788.97 0.271659 -1.93704 0
M  V30 30289 C 2789.35 1.65797 -1.3067 0
M  V30 30290 O 2788.7 2.23647 -0.468419 0
M  V30 30291 C 2788.91 0.314842 -3.47577 0
M  V30 30292 C 2790.26 0.551838 -4.20999 0
M  V30 30293 O 2791.28 0.395758 -3.53995 0
M  V30 30294 O 2790.14 0.856295 -5.3975 0
M  V30 30295 H 2787.24 0.164571 -0.81046 0
M  V30 30296 H 2789.78 -0.425867 -1.64269 0
M  V30 30297 H 2788.55 -0.65686 -3.85747 0
M  V30 30298 H 2788.18 1.05798 -3.83266 0
M  V30 30299 N 2789.17 1.5727 -0.101929 0
M  V30 30300 C 2790.42 1.94214 0.559057 0
M  V30 30301 C 2790.74 0.984978 1.68295 0
M  V30 30302 O 2790.01 0.0382319 1.95863 0
M  V30 30303 H 2788.59 0.717018 0.209508 0
M  V30 30304 H 2791.26 1.94184 -0.166866 0
M  V30 30305 H 2790.35 2.96813 0.964798 0
M  V30 30306 N 2790.65 -0.171793 1.56661 0
M  V30 30307 C 2791.88 -0.908132 1.86461 0
M  V30 30308 C 2792.3 -1.75058 0.688212 0
M  V30 30309 O 2791.66 -1.77635 -0.362722 0
M  V30 30310 C 2791.71 -1.76107 3.14672 0
M  V30 30311 O 2790.81 -2.86263 2.96863 0
M  V30 30312 H 2790.15 -0.254423 0.613323 0
M  V30 30313 H 2792.68 -0.170077 2.03892 0
M  V30 30314 H 2792.69 -2.16109 3.46065 0
M  V30 30315 H 2791.37 -1.14226 3.99907 0
M  V30 30316 H 2789.95 -2.49847 2.76823 0
M  V30 30317 N 2792.13 -1.51324 -0.44033 0
M  V30 30318 C 2793.38 -1.63844 -1.19002 0
M  V30 30319 C 2793.71 -0.353244 -1.91265 0
M  V30 30320 O 2792.96 0.662532 -1.84144 0
M  V30 30321 C 2793.26 -2.78988 -2.23385 0
M  V30 30322 C 2792.93 -4.18372 -1.68155 0
M  V30 30323 C 2791.59 -4.56291 -1.52815 0
M  V30 30324 C 2793.94 -5.05361 -1.27515 0
M  V30 30325 C 2791.27 -5.78907 -0.953055 0
M  V30 30326 C 2793.62 -6.28554 -0.714364 0
M  V30 30327 C 2792.28 -6.65248 -0.547844 0
M  V30 30328 H 2791.55 -0.599548 -0.435458 0
M  V30 30329 H 2794.2 -1.85348 -0.481505 0
M  V30 30330 H 2792.51 -2.51694 -3.00263 0
M  V30 30331 H 2794.2 -2.85874 -2.81206 0
M  V30 30332 H 2790.79 -3.88474 -1.8107 0
M  V30 30333 H 2794.98 -4.76674 -1.38188 0
M  V30 30334 H 2790.23 -6.05987 -0.811775 0
M  V30 30335 H 2794.41 -6.95302 -0.390937 0
M  V30 30336 H 2792.03 -7.60134 -0.100088 0
M  V30 30337 N 2793.61 0.695578 -1.41419 0
M  V30 30338 C 2794.86 1.45274 -1.40498 0
M  V30 30339 C 2795.18 1.94994 -0.0149881 0
M  V30 30340 O 2794.45 1.71701 0.94317 0
M  V30 30341 H 2793.03 0.539035 -0.517156 0
M  V30 30342 H 2795.69 0.82329 -1.76658 0
M  V30 30343 H 2794.79 2.31591 -2.09218 0
M  V30 30344 N 2795.09 1.27247 0.929833 0
M  V30 30345 C 2796.31 1.16377 1.71672 0
M  V30 30346 C 2796.74 -0.275991 1.86064 0
M  V30 30347 O 2796.1 -1.1999 1.35912 0
M  V30 30348 C 2796.14 1.85008 3.09523 0
M  V30 30349 O 2795.25 1.1466 3.9614 0
M  V30 30350 H 2794.59 0.404873 0.526283 0
M  V30 30351 H 2797.12 1.68278 1.16378 0
M  V30 30352 H 2797.13 1.92283 3.59849 0
M  V30 30353 H 2795.8 2.89744 2.98364 0
M  V30 30354 H 2794.38 1.15439 3.54582 0
M  V30 30355 N 2796.57 -1.13603 1.09235 0
M  V30 30356 C 2797.81 -1.85108 0.828417 0
M  V30 30357 C 2798.14 -1.83199 -0.644337 0
M  V30 30358 O 2797.42 -1.26869 -1.47426 0
M  V30 30359 C 2797.7 -3.3336 1.36172 0
M  V30 30360 C 2797.56 -3.43794 2.90044 0
M  V30 30361 C 2798.87 -4.2873 0.993895 0
M  V30 30362 H 2795.99 -0.672103 0.302402 0
M  V30 30363 H 2798.64 -1.33352 1.35341 0
M  V30 30364 H 2796.79 -3.77567 0.915166 0
M  V30 30365 H 2798.46 -3.08313 3.43134 0
M  V30 30366 H 2796.7 -2.84733 3.27276 0
M  V30 30367 H 2797.37 -4.48039 3.22436 0
M  V30 30368 H 2799.85 -3.92585 1.379 0
M  V30 30369 H 2798.72 -5.309 1.39413 0
M  V30 30370 H 2798.98 -4.41991 -0.0981429 0
M  V30 30371 N 2798.04 -0.879253 -1.30793 0
M  V30 30372 C 2799.27 -0.508845 -2.00236 0
M  V30 30373 C 2799.68 0.905653 -1.66116 0
M  V30 30374 O 2799.02 1.60623 -0.891408 0
M  V30 30375 C 2799.09 -0.597065 -3.54507 0
M  V30 30376 C 2798.75 -1.97484 -4.12127 0
M  V30 30377 C 2799.75 -2.94353 -4.28547 0
M  V30 30378 C 2797.43 -2.27868 -4.4764 0
M  V30 30379 C 2799.43 -4.19743 -4.79682 0
M  V30 30380 C 2797.11 -3.53505 -4.98475 0
M  V30 30381 C 2798.11 -4.49257 -5.14448 0
M  V30 30382 O 2797.8 -5.72666 -5.64188 0
M  V30 30383 H 2797.53 -0.1958 -0.647023 0
M  V30 30384 H 2800.09 -1.18483 -1.67782 0
M  V30 30385 H 2798.32 0.135877 -3.86461 0
M  V30 30386 H 2800 -0.238756 -4.05197 0
M  V30 30387 H 2800.77 -2.7219 -4.01419 0
M  V30 30388 H 2796.65 -1.54109 -4.34478 0
M  V30 30389 H 2800.19 -4.94488 -4.92064 0
M  V30 30390 H 2796.09 -3.75507 -5.25038 0
M  V30 30391 H 2796.86 -5.74968 -5.82541 0
M  V30 30392 N 2799.52 1.44037 -0.639624 0
M  V30 30393 C 2800.94 1.56639 -0.305981 0
M  V30 30394 C 2801.14 1.62569 1.19052 0
M  V30 30395 O 2800.19 1.57334 1.9749 0
M  V30 30396 C 2801.51 2.83395 -1.00538 0
M  V30 30397 C 2803.05 2.97119 -0.984331 0
M  V30 30398 C 2803.53 4.26689 -1.66436 0
M  V30 30399 N 2805.02 4.33522 -1.63135 0
M  V30 30400 C 2805.76 5.32515 -2.12639 0
M  V30 30401 N 2805.25 6.37865 -2.70371 0
M  V30 30402 N 2807.04 5.24079 -2.03218 0
M  V30 30403 H 2799.2 1.38431 -1.61092 0
M  V30 30404 H 2801.46 0.66393 -0.676684 0
M  V30 30405 H 2801.16 2.85028 -2.06039 0
M  V30 30406 H 2801.04 3.73192 -0.548428 0
M  V30 30407 H 2803.43 2.95034 0.0622273 0
M  V30 30408 H 2803.51 2.08648 -1.47985 0
M  V30 30409 H 2803.15 4.29534 -2.71041 0
M  V30 30410 H 2803.08 5.14032 -1.1436 0
M  V30 30411 H 2805.57 3.58007 -1.20993 0
M  V30 30412 H 2805.88 7.09699 -3.05855 0
M  V30 30413 H 2804.23 6.38526 -2.74425 0
M  V30 30414 H 2807.42 4.40689 -1.5783 0
M  V30 30415 H 2807.59 6.01072 -2.42108 0
M  V30 30416 N 2801 0.380691 1.52933 0
M  V30 30417 C 2801.96 -0.446433 2.2481 0
M  V30 30418 C 2802.96 -0.997325 1.26135 0
M  V30 30419 O 2804.15 -0.880687 1.50298 0
M  V30 30420 C 2801.28 -1.62548 2.99652 0
M  V30 30421 H 2802.48 0.182729 2.99343 0
M  V30 30422 H 2800.03 0.132645 1.55736 0
M  V30 30423 H 2800.77 -2.29231 2.29399 0
M  V30 30424 H 2800.55 -1.23726 3.72068 0
M  V30 30425 H 2802.04 -2.21127 3.5425 0
M  V30 30426 N 2802.48 -1.57214 0.110268 0
M  V30 30427 C 2803.44 -2.13691 -0.828771 0
M  V30 30428 C 2804.44 -1.06971 -1.20057 0
M  V30 30429 O 2805.63 -1.32788 -1.12752 0
M  V30 30430 C 2802.76 -2.66998 -2.11955 0
M  V30 30431 H 2803.96 -2.97988 -0.338094 0
M  V30 30432 H 2801.51 -1.55682 -0.138886 0
M  V30 30433 H 2802.24 -1.86265 -2.65473 0
M  V30 30434 H 2802.03 -3.4504 -1.86252 0
M  V30 30435 H 2803.52 -3.10634 -2.79099 0
M  V30 30436 N 2803.96 0.163482 -1.5675 0
M  V30 30437 C 2805.19 0.892904 -1.86308 0
M  V30 30438 C 2805.59 1.75991 -0.694531 0
M  V30 30439 O 2804.94 1.80425 0.345352 0
M  V30 30440 C 2805 1.81404 -3.10375 0
M  V30 30441 C 2804.66 1.12585 -4.42915 0
M  V30 30442 C 2805.66 0.48757 -5.17609 0
M  V30 30443 C 2803.34 1.12027 -4.89648 0
M  V30 30444 C 2805.34 -0.147102 -6.3723 0
M  V30 30445 C 2803.03 0.481776 -6.09198 0
M  V30 30446 C 2804.02 -0.150798 -6.82834 0
M  V30 30447 O 2803.71 -0.779205 -8.00115 0
M  V30 30448 H 2803.44 0.264441 -0.622131 0
M  V30 30449 H 2806 0.166027 -2.04728 0
M  V30 30450 H 2804.23 2.58143 -2.87922 0
M  V30 30451 H 2805.92 2.41398 -3.26316 0
M  V30 30452 H 2806.68 0.483803 -4.82581 0
M  V30 30453 H 2802.56 1.60204 -4.32268 0
M  V30 30454 H 2806.11 -0.641447 -6.94645 0
M  V30 30455 H 2802 0.483153 -6.43689 0
M  V30 30456 H 2802.77 -0.679232 -8.15677 0
M  V30 30457 N 2805.43 1.51555 0.432299 0
M  V30 30458 C 2806.34 1.76085 1.5502 0
M  V30 30459 C 2807.36 0.645294 1.61592 0
M  V30 30460 O 2808.54 0.928117 1.7874 0
M  V30 30461 C 2805.6 1.88528 2.90961 0
M  V30 30462 C 2804.66 3.12393 2.94464 0
M  V30 30463 C 2803.89 3.24233 4.23921 0
M  V30 30464 O 2804.12 2.41889 5.16571 0
M  V30 30465 O 2803.05 4.17243 4.33811 0
M  V30 30466 H 2806.88 2.70925 1.37234 0
M  V30 30467 H 2804.46 1.36118 0.615821 0
M  V30 30468 H 2806.34 1.98669 3.7163 0
M  V30 30469 H 2805.02 0.968755 3.08864 0
M  V30 30470 H 2803.93 3.07727 2.12732 0
M  V30 30471 H 2805.26 4.03751 2.81507 0
M  V30 30472 N 2806.91 -0.688069 1.41786 0
M  V30 30473 C 2808.16 -1.44527 1.41267 0
M  V30 30474 C 2808.48 -1.94984 0.0253289 0
M  V30 30475 O 2807.75 -1.72198 -0.934051 0
M  V30 30476 H 2806.33 -0.536285 0.520007 0
M  V30 30477 H 2808.99 -0.81391 1.77092 0
M  V30 30478 H 2808.09 -2.30478 2.10443 0
M  V30 30479 N 2808.39 -1.27739 -0.923072 0
M  V30 30480 C 2809.3 -1.12688 -2.05763 0
M  V30 30481 C 2810.32 -0.0557503 -1.73911 0
M  V30 30482 O 2811.49 -0.263172 -1.99673 0
M  V30 30483 C 2808.56 -0.780422 -3.37802 0
M  V30 30484 C 2807.62 -1.93293 -3.83323 0
M  V30 30485 C 2806.85 -1.6029 -5.09061 0
M  V30 30486 O 2807.07 -0.512928 -5.68089 0
M  V30 30487 O 2806.01 -2.44357 -5.50067 0
M  V30 30488 H 2809.83 -2.07911 -2.21375 0
M  V30 30489 H 2807.42 -1.06969 -1.04297 0
M  V30 30490 H 2809.3 -0.600742 -4.17096 0
M  V30 30491 H 2807.98 0.142234 -3.23387 0
M  V30 30492 H 2806.88 -2.1677 -3.04896 0
M  V30 30493 H 2808.22 -2.83595 -4.02287 0
M  V30 30494 N 2809.87 1.13022 -1.09836 0
M  V30 30495 C 2810.78 2.22161 -0.75377 0
M  V30 30496 C 2811.79 1.72251 0.246074 0
M  V30 30497 O 2812.97 2.01215 0.0863697 0
M  V30 30498 C 2810.04 3.46211 -0.184019 0
M  V30 30499 C 2809.1 4.10991 -1.24035 0
M  V30 30500 C 2808.33 5.2912 -0.69769 0
M  V30 30501 O 2808.55 5.68394 0.477992 0
M  V30 30502 O 2807.49 5.84056 -1.4547 0
M  V30 30503 H 2811.31 2.54017 -1.66461 0
M  V30 30504 H 2808.9 1.21236 -0.873047 0
M  V30 30505 H 2810.78 4.21199 0.130183 0
M  V30 30506 H 2809.45 3.16046 0.699767 0
M  V30 30507 H 2808.36 3.37811 -1.60731 0
M  V30 30508 H 2809.69 4.45297 -2.09693 0
M  V30 30509 N 2811.35 0.886177 1.30325 0
M  V30 30510 C 2812.59 0.505975 1.96387 0
M  V30 30511 C 2812.93 -0.942682 1.69786 0
M  V30 30512 O 2812.2 -1.66629 1.00325 0
M  V30 30513 C 2812.48 0.782887 3.51487 0
M  V30 30514 C 2812.34 2.28226 3.87599 0
M  V30 30515 C 2813.66 0.260205 4.3933 0
M  V30 30516 H 2810.77 0.185305 0.713324 0
M  V30 30517 H 2813.42 1.11039 1.54176 0
M  V30 30518 H 2811.57 0.268467 3.87571 0
M  V30 30519 H 2813.24 2.86518 3.61532 0
M  V30 30520 H 2811.48 2.74843 3.35625 0
M  V30 30521 H 2812.15 2.42662 4.95802 0
M  V30 30522 H 2814.63 0.700517 4.10161 0
M  V30 30523 H 2813.5 0.483276 5.46768 0
M  V30 30524 H 2813.77 -0.838598 4.34074 0
M  V30 30525 N 2812.82 -1.43695 0.647253 0
M  V30 30526 C 2813.79 -2.29168 -0.0384698 0
M  V30 30527 C 2814.79 -1.41895 -0.756462 0
M  V30 30528 O 2815.98 -1.63592 -0.598613 0
M  V30 30529 C 2813.11 -3.23831 -1.06519 0
M  V30 30530 H 2814.3 -2.91289 0.713496 0
M  V30 30531 H 2811.86 -1.50876 0.40818 0
M  V30 30532 H 2812.59 -2.66593 -1.84659 0
M  V30 30533 H 2812.38 -3.88165 -0.554079 0
M  V30 30534 H 2813.87 -3.87998 -1.54425 0
M  V30 30535 N 2814.3 -0.388796 -1.52729 0
M  V30 30536 C 2815.55 0.193842 -2.01871 0
M  V30 30537 C 2815.88 1.46503 -1.27477 0
M  V30 30538 O 2815.16 1.90849 -0.375096 0
M  V30 30539 C 2815.44 0.462273 -3.5712 0
M  V30 30540 C 2815.29 -0.824169 -4.42185 0
M  V30 30541 C 2816.61 1.25311 -4.21883 0
M  V30 30542 H 2813.73 0.068977 -0.733765 0
M  V30 30543 H 2816.37 -0.518263 -1.82795 0
M  V30 30544 H 2814.52 1.06889 -3.73506 0
M  V30 30545 H 2816.19 -1.46104 -4.37552 0
M  V30 30546 H 2814.44 -1.43959 -4.09216 0
M  V30 30547 H 2815.11 -0.591002 -5.48827 0
M  V30 30548 H 2817.58 0.739738 -4.09472 0
M  V30 30549 H 2816.46 1.40968 -5.3049 0
M  V30 30550 H 2816.72 2.26817 -3.79482 0
M  V30 30551 N 2815.78 1.57153 -0.118604 0
M  V30 30552 C 2816.73 2.15292 0.831751 0
M  V30 30553 C 2817.7 1.07781 1.26383 0
M  V30 30554 O 2818.88 1.35686 1.34141 0
M  V30 30555 C 2816.02 2.7563 2.07659 0
M  V30 30556 C 2815.14 3.97447 1.69292 0
M  V30 30557 C 2814.27 4.45874 2.88739 0
M  V30 30558 C 2813.31 5.60223 2.46609 0
M  V30 30559 N 2812.45 6.03395 3.58969 0
M  V30 30560 H 2817.29 2.96177 0.329131 0
M  V30 30561 H 2814.82 1.46325 0.150766 0
M  V30 30562 H 2816.78 3.08743 2.80595 0
M  V30 30563 H 2815.41 1.97435 2.5538 0
M  V30 30564 H 2814.46 3.70497 0.862309 0
M  V30 30565 H 2815.78 4.80372 1.3433 0
M  V30 30566 H 2814.93 4.80894 3.699 0
M  V30 30567 H 2813.67 3.61898 3.26927 0
M  V30 30568 H 2812.67 5.24808 1.6388 0
M  V30 30569 H 2813.9 6.45965 2.09539 0
M  V30 30570 H 2811.84 5.22361 3.96831 0
M  V30 30571 H 2811.76 6.81174 3.2793 0
M  V30 30572 H 2813.03 6.43053 4.40571 0
M  V30 30573 N 2817.26 -0.155167 1.56834 0
M  V30 30574 C 2818.51 -0.867535 1.8209 0
M  V30 30575 C 2818.82 -1.82702 0.698522 0
M  V30 30576 O 2820.03 -2.58294 0.836453 0
M  V30 30577 C 2818.48 -1.59331 3.2271 0
M  V30 30578 C 2818.09 -0.676641 4.42861 0
M  V30 30579 C 2819.83 -2.29294 3.57246 0
M  V30 30580 C 2817.74 -1.40357 5.74503 0
M  V30 30581 H 2816.67 -0.327703 0.679063 0
M  V30 30582 H 2819.32 -0.120319 1.83105 0
M  V30 30583 H 2817.7 -2.38586 3.16058 0
M  V30 30584 H 2818.88 0.0801006 4.6073 0
M  V30 30585 H 2817.19 -0.0858397 4.16312 0
M  V30 30586 H 2819.79 -2.84304 4.52852 0
M  V30 30587 H 2820.13 -3.05401 2.82906 0
M  V30 30588 H 2820.67 -1.56966 3.65522 0
M  V30 30589 H 2817.41 -0.684509 6.51916 0
M  V30 30590 H 2816.93 -2.13323 5.60583 0
M  V30 30591 H 2818.6 -1.9467 6.17019 0
M  V30 30592 N 2818.74 -1.51782 -0.424256 0
M  V30 30593 C 2819.98 -1.65097 -1.17257 0
M  V30 30594 C 2820.31 -0.37351 -1.9088 0
M  V30 30595 O 2819.57 0.642964 -1.84836 0
M  V30 30596 C 2819.87 -2.81341 -2.20413 0
M  V30 30597 C 2819.53 -4.20132 -1.63708 0
M  V30 30598 C 2818.19 -4.57886 -1.47967 0
M  V30 30599 C 2820.55 -5.06685 -1.22148 0
M  V30 30600 C 2817.87 -5.79886 -0.891601 0
M  V30 30601 C 2820.23 -6.29276 -0.647657 0
M  V30 30602 C 2818.89 -6.65792 -0.477254 0
M  V30 30603 H 2818.16 -0.604133 -0.429074 0
M  V30 30604 H 2820.81 -1.85848 -0.461819 0
M  V30 30605 H 2819.11 -2.54864 -2.97576 0
M  V30 30606 H 2820.81 -2.88841 -2.78158 0
M  V30 30607 H 2817.4 -3.90372 -1.76939 0
M  V30 30608 H 2821.58 -4.78112 -1.33125 0
M  V30 30609 H 2816.84 -6.06814 -0.747456 0
M  V30 30610 H 2821.01 -6.95677 -0.317169 0
M  V30 30611 H 2818.64 -7.60198 -0.0194599 0
M  V30 30612 N 2820.21 0.68054 -1.42149 0
M  V30 30613 C 2821.16 1.8155 -1.45404 0
M  V30 30614 C 2822.16 1.66147 -0.330389 0
M  V30 30615 O 2823.36 1.72825 -0.503134 0
M  V30 30616 H 2819.74 0.598522 -0.455275 0
M  V30 30617 H 2821.71 1.75922 -2.41027 0
M  V30 30618 C 2820.46 3.19669 -1.36774 0
M  V30 30619 H 2819.78 3.32145 -2.2253 0
M  V30 30620 H 2821.22 3.99117 -1.43113 0
M  V30 30621 C 2819.68 3.36801 -0.0818344 0
M  V30 30622 O 2820.21 3.92218 0.867638 0
M  V30 30623 N 2818.42 2.906 -0.000850892 0
M  V30 30624 H 2817.96 2.45688 -0.774275 0
M  V30 30625 H 2817.92 3.0244 0.858908 0
M  V30 30626 N 2821.69 1.28226 0.916285 0
M  V30 30627 C 2822.64 1.11935 2.01839 0
M  V30 30628 C 2823.61 0.0171896 1.66091 0
M  V30 30629 O 2824.79 0.181651 1.89933 0
M  V30 30630 C 2821.93 0.784563 3.36063 0
M  V30 30631 C 2821.05 1.96551 3.84697 0
M  V30 30632 C 2820.18 1.57157 5.0742 0
M  V30 30633 C 2819.22 2.71932 5.48379 0
M  V30 30634 N 2818.36 2.33048 6.62294 0
M  V30 30635 H 2823.2 2.06236 2.15106 0
M  V30 30636 H 2820.74 1.02649 1.05364 0
M  V30 30637 H 2822.69 0.571221 4.13271 0
M  V30 30638 H 2821.32 -0.121508 3.22571 0
M  V30 30639 H 2820.38 2.29106 3.03669 0
M  V30 30640 H 2821.69 2.8261 4.11015 0
M  V30 30641 H 2820.84 1.32015 5.92163 0
M  V30 30642 H 2819.58 0.682238 4.82905 0
M  V30 30643 H 2818.59 2.97776 4.62179 0
M  V30 30644 H 2819.81 3.61504 5.74884 0
M  V30 30645 H 2817.76 1.46581 6.39414 0
M  V30 30646 H 2817.67 3.12643 6.88324 0
M  V30 30647 H 2818.94 2.11183 7.50348 0
M  V30 30648 N 2823.17 -1.12438 1.10433 0
M  V30 30649 C 2824.12 -2.16253 0.722416 0
M  V30 30650 C 2825.1 -1.58646 -0.268399 0
M  V30 30651 O 2826.3 -1.76832 -0.0771379 0
M  V30 30652 C 2823.43 -3.42946 0.155823 0
M  V30 30653 C 2822.51 -4.07536 1.17368 0
M  V30 30654 N 2822.9 -4.47137 2.36437 0
M  V30 30655 C 2821.2 -4.34316 1.0142 0
M  V30 30656 C 2821.9 -4.97607 3.01268 0
M  V30 30657 N 2820.88 -4.93111 2.28786 0
M  V30 30658 H 2824.68 -2.44637 1.6288 0
M  V30 30659 H 2822.19 -1.29342 0.982054 0
M  V30 30660 H 2824.19 -4.16679 -0.135863 0
M  V30 30661 H 2822.85 -3.16031 -0.745283 0
M  V30 30662 H 2823.86 -4.39506 2.73962 0
M  V30 30663 H 2820.54 -4.17159 0.168647 0
M  V30 30664 H 2821.93 -5.37961 4.02551 0
M  V30 30665 N 2824.65 -0.893076 -1.29853 0
M  V30 30666 C 2825.88 -0.530823 -1.99975 0
M  V30 30667 C 2826.29 0.88277 -1.66891 0
M  V30 30668 O 2825.65 1.58172 -0.91038 0
M  V30 30669 C 2825.7 -0.705649 -3.54546 0
M  V30 30670 O 2825.42 -2.0636 -3.86455 0
M  V30 30671 C 2826.92 -0.347464 -4.41936 0
M  V30 30672 H 2824.14 -0.20435 -0.639126 0
M  V30 30673 H 2826.69 -1.2006 -1.65547 0
M  V30 30674 H 2824.84 -0.0831366 -3.87311 0
M  V30 30675 H 2825.26 -2.08812 -4.81142 0
M  V30 30676 H 2826.73 -0.520654 -5.49539 0
M  V30 30677 H 2827.21 0.715063 -4.3334 0
M  V30 30678 H 2827.81 -0.94664 -4.14631 0
M  V30 30679 N 2826.13 1.4335 -0.654865 0
M  V30 30680 C 2827.35 2.0666 -0.175082 0
M  V30 30681 C 2827.78 1.48772 1.15102 0
M  V30 30682 O 2827.14 0.598309 1.71143 0
M  V30 30683 C 2827.18 3.60463 -0.0992178 0
M  V30 30684 O 2826.29 4.01589 0.938099 0
M  V30 30685 H 2825.63 0.657078 -0.0956263 0
M  V30 30686 H 2828.16 1.83828 -0.898254 0
M  V30 30687 H 2828.17 4.07914 0.0835603 0
M  V30 30688 H 2826.84 4.01973 -1.06726 0
M  V30 30689 H 2825.42 3.65725 0.727976 0
M  V30 30690 N 2827.61 0.39689 1.52521 0
M  V30 30691 C 2828.54 -0.425901 2.29583 0
M  V30 30692 C 2829.52 -1.05686 1.33283 0
M  V30 30693 O 2830.7 -1.0682 1.62182 0
M  V30 30694 C 2827.83 -1.54938 3.10824 0
M  V30 30695 C 2826.79 -1.04406 4.1507 0
M  V30 30696 C 2826.11 -2.26019 4.84582 0
M  V30 30697 C 2827.41 -0.106675 5.22191 0
M  V30 30698 H 2829.11 0.217097 2.98612 0
M  V30 30699 H 2826.65 0.105852 1.4361 0
M  V30 30700 H 2828.6 -2.13186 3.63496 0
M  V30 30701 H 2827.33 -2.22007 2.39542 0
M  V30 30702 H 2825.99 -0.484054 3.6339 0
M  V30 30703 H 2825.64 -2.91616 4.09841 0
M  V30 30704 H 2825.34 -1.92866 5.55046 0
M  V30 30705 H 2826.86 -2.84897 5.40061 0
M  V30 30706 H 2828.27 -0.597584 5.70177 0
M  V30 30707 H 2826.67 0.135458 5.99947 0
M  V30 30708 H 2827.74 0.842218 4.7753 0
M  V30 30709 N 2829.08 -1.57088 0.126936 0
M  V30 30710 C 2830.5 -1.5794 -0.229614 0
M  V30 30711 C 2830.7 -1.14013 -1.66143 0
M  V30 30712 O 2829.76 -0.831161 -2.38428 0
M  V30 30713 C 2831.07 -3.00698 0.0109177 0
M  V30 30714 C 2832.62 -3.12953 -0.054363 0
M  V30 30715 C 2833.09 -4.57725 0.158577 0
M  V30 30716 N 2834.58 -4.63081 0.104817 0
M  V30 30717 C 2835.32 -5.72879 0.244371 0
M  V30 30718 N 2834.81 -6.91398 0.440537 0
M  V30 30719 N 2836.61 -5.61801 0.183385 0
M  V30 30720 H 2828.76 -1.8394 1.06206 0
M  V30 30721 H 2831.02 -0.850453 0.418849 0
M  V30 30722 H 2830.73 -3.37152 1.00108 0
M  V30 30723 H 2830.6 -3.70314 -0.717447 0
M  V30 30724 H 2832.99 -2.76352 -1.03506 0
M  V30 30725 H 2833.07 -2.45864 0.70601 0
M  V30 30726 H 2832.71 -4.95026 1.13628 0
M  V30 30727 H 2832.64 -5.22915 -0.621878 0
M  V30 30728 H 2835.13 -3.77876 -0.0429634 0
M  V30 30729 H 2835.45 -7.70927 0.537672 0
M  V30 30730 H 2833.79 -6.93364 0.476609 0
M  V30 30731 H 2836.98 -4.6809 0.0310384 0
M  V30 30732 H 2837.16 -6.47325 0.295585 0
M  V30 30733 N 2830.56 0.146848 -1.56914 0
M  V30 30734 C 2831.49 1.18306 -2.0131 0
M  V30 30735 C 2832.47 1.44793 -0.89269 0
M  V30 30736 O 2833.66 1.55711 -1.16051 0
M  V30 30737 C 2830.79 2.5162 -2.39384 0
M  V30 30738 C 2829.74 2.39654 -3.54612 0
M  V30 30739 C 2829.07 3.77679 -3.785 0
M  V30 30740 C 2830.37 1.8805 -4.87273 0
M  V30 30741 H 2832.06 0.813913 -2.88125 0
M  V30 30742 H 2829.61 0.390075 -1.38616 0
M  V30 30743 H 2831.56 3.24336 -2.69043 0
M  V30 30744 H 2830.28 2.90371 -1.49507 0
M  V30 30745 H 2828.94 1.6939 -3.25119 0
M  V30 30746 H 2828.59 4.13866 -2.85874 0
M  V30 30747 H 2828.29 3.70535 -4.56046 0
M  V30 30748 H 2829.82 4.51944 -4.10584 0
M  V30 30749 H 2831.23 2.50559 -5.15648 0
M  V30 30750 H 2829.63 1.91795 -5.68625 0
M  V30 30751 H 2830.7 0.836193 -4.77636 0
M  V30 30752 N 2832.04 1.52005 0.4162 0
M  V30 30753 C 2832.97 1.77797 1.51362 0
M  V30 30754 C 2833.95 0.628628 1.58058 0
M  V30 30755 O 2835.14 0.873509 1.73446 0
M  V30 30756 C 2832.27 1.92224 2.89253 0
M  V30 30757 C 2831.22 3.07785 2.9741 0
M  V30 30758 C 2830.55 3.07424 4.37486 0
M  V30 30759 C 2831.85 4.47374 2.69543 0
M  V30 30760 H 2833.54 2.69691 1.30028 0
M  V30 30761 H 2831.09 1.29773 0.624089 0
M  V30 30762 H 2833.04 2.08851 3.66004 0
M  V30 30763 H 2831.76 0.969972 3.11864 0
M  V30 30764 H 2830.42 2.90897 2.23102 0
M  V30 30765 H 2830.07 2.09933 4.57097 0
M  V30 30766 H 2829.77 3.85037 4.4387 0
M  V30 30767 H 2831.29 3.26171 5.16183 0
M  V30 30768 H 2832.71 4.64503 3.3602 0
M  V30 30769 H 2831.1 5.26851 2.87312 0
M  V30 30770 H 2832.17 4.55956 1.65021 0
M  V30 30771 N 2833.52 -0.672992 1.42508 0
M  V30 30772 C 2834.93 -0.986333 1.25474 0
M  V30 30773 C 2835.13 -2.00862 0.160217 0
M  V30 30774 O 2834.19 -2.48126 -0.467949 0
M  V30 30775 C 2835.5 -1.48942 2.61222 0
M  V30 30776 C 2837.05 -1.6071 2.68591 0
M  V30 30777 C 2837.53 -2.14414 4.0471 0
M  V30 30778 N 2839.02 -2.21745 4.06674 0
M  V30 30779 C 2839.75 -2.64377 5.08814 0
M  V30 30780 N 2839.25 -3.06449 6.21338 0
M  V30 30781 N 2841.04 -2.64142 4.96171 0
M  V30 30782 H 2833.19 0.00382266 2.124 0
M  V30 30783 H 2835.45 -0.06082 0.946047 0
M  V30 30784 H 2835.16 -0.812752 3.4218 0
M  V30 30785 H 2835.03 -2.46786 2.85266 0
M  V30 30786 H 2837.42 -2.27483 1.87978 0
M  V30 30787 H 2837.5 -0.613509 2.48334 0
M  V30 30788 H 2837.15 -1.4825 4.85782 0
M  V30 30789 H 2837.08 -3.14568 4.22321 0
M  V30 30790 H 2839.57 -1.92084 3.25442 0
M  V30 30791 H 2839.88 -3.37672 6.95124 0
M  V30 30792 H 2838.23 -3.04302 6.2484 0
M  V30 30793 H 2841.42 -2.30637 4.07338 0
M  V30 30794 H 2841.59 -2.97047 5.75906 0
M  V30 30795 N 2835 -1.2871 -0.909472 0
M  V30 30796 C 2835.93 -1.08807 -2.01727 0
M  V30 30797 C 2836.94 -0.0385025 -1.62754 0
M  V30 30798 O 2838.13 -0.282008 -1.76258 0
M  V30 30799 C 2835.23 -0.632228 -3.32951 0
M  V30 30800 C 2834.4 -1.75816 -4.00509 0
M  V30 30801 C 2833.46 -1.29497 -5.10017 0
M  V30 30802 O 2832.49 -1.99796 -5.32982 0
M  V30 30803 N 2833.69 -0.160502 -5.80278 0
M  V30 30804 H 2836.45 -2.04211 -2.19358 0
M  V30 30805 H 2834.02 -1.2052 -1.08104 0
M  V30 30806 H 2836.01 -0.305873 -4.03542 0
M  V30 30807 H 2834.58 0.229079 -3.1176 0
M  V30 30808 H 2833.8 -2.25389 -3.23409 0
M  V30 30809 H 2835.09 -2.51333 -4.4239 0
M  V30 30810 H 2834.48 0.425838 -5.64095 0
M  V30 30811 H 2833.04 0.106549 -6.51713 0
M  V30 30812 N 2836.47 1.1185 -1.11028 0
M  V30 30813 C 2837.38 2.21349 -0.777291 0
M  V30 30814 C 2838.4 1.72502 0.227791 0
M  V30 30815 O 2839.58 2.01295 0.0650233 0
M  V30 30816 C 2836.64 3.45997 -0.220729 0
M  V30 30817 C 2835.7 4.09653 -1.28387 0
M  V30 30818 C 2834.93 5.2835 -0.753771 0
M  V30 30819 O 2835.16 5.68869 0.417679 0
M  V30 30820 O 2834.09 5.82481 -1.51657 0
M  V30 30821 H 2837.92 2.52237 -1.69146 0
M  V30 30822 H 2835.5 1.20304 -0.885857 0
M  V30 30823 H 2837.38 4.21313 0.0855016 0
M  V30 30824 H 2836.06 3.1677 0.666207 0
M  V30 30825 H 2834.97 3.36087 -1.64305 0
M  V30 30826 H 2836.3 4.43048 -2.14404 0
M  V30 30827 N 2837.95 0.89995 1.29378 0
M  V30 30828 C 2838.88 0.3945 2.30143 0
M  V30 30829 C 2839.86 -0.530611 1.61612 0
M  V30 30830 O 2841.05 -0.441286 1.8912 0
M  V30 30831 C 2838.18 -0.378619 3.4523 0
M  V30 30832 C 2837.13 0.456087 4.25563 0
M  V30 30833 C 2836.46 -0.444544 5.32849 0
M  V30 30834 C 2837.76 1.70613 4.93648 0
M  V30 30835 H 2839.45 1.23657 2.7267 0
M  V30 30836 H 2837 0.596057 1.31085 0
M  V30 30837 H 2838.95 -0.742964 4.14799 0
M  V30 30838 H 2837.67 -1.25448 3.01547 0
M  V30 30839 H 2836.33 0.802767 3.57703 0
M  V30 30840 H 2835.98 -1.31854 4.85411 0
M  V30 30841 H 2835.68 0.110257 5.87497 0
M  V30 30842 H 2837.21 -0.805076 6.05269 0
M  V30 30843 H 2838.62 1.41151 5.55652 0
M  V30 30844 H 2837.02 2.20227 5.58229 0
M  V30 30845 H 2838.09 2.44197 4.18922 0
M  V30 30846 N 2839.43 -1.43001 0.662458 0
M  V30 30847 C 2840.68 -2.02001 0.179893 0
M  V30 30848 C 2841.01 -1.52197 -1.20623 0
M  V30 30849 O 2840.28 -0.718943 -1.80725 0
M  V30 30850 C 2840.57 -3.59539 0.200908 0
M  V30 30851 C 2840.42 -4.19552 1.6216 0
M  V30 30852 C 2841.74 -4.37714 -0.457661 0
M  V30 30853 H 2838.86 -0.733963 0.0668434 0
M  V30 30854 H 2841.5 -1.70181 0.8449 0
M  V30 30855 H 2839.65 -3.86778 -0.365343 0
M  V30 30856 H 2841.32 -4.03311 2.23915 0
M  V30 30857 H 2839.57 -3.7585 2.16608 0
M  V30 30858 H 2840.24 -5.28662 1.58809 0
M  V30 30859 H 2842.71 -4.16093 0.0242226 0
M  V30 30860 H 2841.59 -5.4735 -0.412267 0
M  V30 30861 H 2841.85 -4.1466 -1.53329 0
M  V30 30862 N 2840.91 -0.404973 -1.52308 0
M  V30 30863 C 2842.15 0.17242 -2.02066 0
M  V30 30864 C 2842.49 1.45143 -1.29024 0
M  V30 30865 O 2841.76 1.9044 -0.395317 0
M  V30 30866 C 2842.05 0.42437 -3.57591 0
M  V30 30867 C 2841.9 -0.871022 -4.41286 0
M  V30 30868 C 2843.22 1.2083 -4.23188 0
M  V30 30869 H 2840.34 0.0611906 -0.734455 0
M  V30 30870 H 2842.98 -0.537622 -1.82235 0
M  V30 30871 H 2841.13 1.02922 -3.74619 0
M  V30 30872 H 2842.8 -1.50736 -4.35977 0
M  V30 30873 H 2841.04 -1.48292 -4.07667 0
M  V30 30874 H 2841.71 -0.649179 -5.48169 0
M  V30 30875 H 2844.19 0.696266 -4.10233 0
M  V30 30876 H 2843.07 1.35333 -5.31955 0
M  V30 30877 H 2843.33 2.2278 -3.81866 0
M  V30 30878 N 2842.39 1.57018 -0.135265 0
M  V30 30879 C 2843.32 2.19178 0.805196 0
M  V30 30880 C 2844.3 1.13654 1.26558 0
M  V30 30881 O 2845.48 1.41953 1.32526 0
M  V30 30882 C 2842.61 2.8041 2.04909 0
M  V30 30883 C 2841.57 3.91658 1.72591 0
M  V30 30884 C 2840.89 4.39772 3.04146 0
M  V30 30885 C 2842.19 5.12993 0.981619 0
M  V30 30886 H 2843.89 2.9802 0.287179 0
M  V30 30887 H 2841.43 1.4335 0.136689 0
M  V30 30888 H 2843.39 3.22558 2.71172 0
M  V30 30889 H 2842.11 1.98882 2.59063 0
M  V30 30890 H 2840.77 3.50111 1.08711 0
M  V30 30891 H 2840.42 3.55081 3.56267 0
M  V30 30892 H 2840.12 5.14801 2.8329 0
M  V30 30893 H 2841.64 4.84582 3.715 0
M  V30 30894 H 2843.05 5.52058 1.5461 0
M  V30 30895 H 2841.45 5.9371 0.873428 0
M  V30 30896 H 2842.52 4.84891 -0.028774 0
M  V30 30897 N 2843.86 -0.138524 1.5699 0
M  V30 30898 C 2845.1 -0.855816 1.85621 0
M  V30 30899 C 2845.47 -1.77961 0.720694 0
M  V30 30900 O 2846.67 -2.53699 0.888266 0
M  V30 30901 C 2844.94 -1.60269 3.1945 0
M  V30 30902 S 2846.5 -2.36425 3.6966 0
M  V30 30903 H 2843.32 -0.286024 0.650931 0
M  V30 30904 H 2845.92 -0.115297 1.9516 0
M  V30 30905 H 2844.62 -0.915667 4.00055 0
M  V30 30906 H 2844.15 -2.38396 3.12939 0
M  V30 30907 H 2846.17 -3.61781 3.39602 0
M  V30 30908 N 2845.34 -1.52224 -0.408133 0
M  V30 30909 C 2846.29 -1.72019 -1.49645 0
M  V30 30910 C 2847.28 -0.574095 -1.5031 0
M  V30 30911 O 2848.47 -0.8312 -1.56269 0
M  V30 30912 C 2845.6 -1.87517 -2.87563 0
M  V30 30913 C 2844.68 -3.08 -2.91542 0
M  V30 30914 N 2845.07 -4.3069 -2.65217 0
M  V30 30915 C 2843.37 -3.07854 -3.2271 0
M  V30 30916 C 2844.07 -5.12167 -2.7579 0
M  V30 30917 N 2843.05 -4.47436 -3.08711 0
M  V30 30918 H 2846.85 -2.64519 -1.28089 0
M  V30 30919 H 2844.37 -1.5027 -0.615853 0
M  V30 30920 H 2846.36 -1.99815 -3.65896 0
M  V30 30921 H 2845.02 -0.962169 -3.10117 0
M  V30 30922 H 2846.03 -4.59146 -2.39593 0
M  V30 30923 H 2842.71 -2.26295 -3.50852 0
M  V30 30924 H 2844.1 -6.19915 -2.59144 0
M  V30 30925 N 2846.82 0.665425 -1.42863 0
M  V30 30926 C 2847.75 1.79056 -1.4987 0
M  V30 30927 C 2848.73 1.66367 -0.354423 0
M  V30 30928 O 2849.92 1.85646 -0.570002 0
M  V30 30929 C 2847.05 3.17413 -1.40949 0
M  V30 30930 C 2846 3.4485 -2.53501 0
M  V30 30931 C 2845.33 4.82879 -2.29634 0
M  V30 30932 C 2846.63 3.40808 -3.95787 0
M  V30 30933 H 2848.32 1.73449 -2.44041 0
M  V30 30934 H 2845.87 0.83305 -1.17458 0
M  V30 30935 H 2847.82 3.95866 -1.44457 0
M  V30 30936 H 2846.54 3.2372 -0.432773 0
M  V30 30937 H 2845.2 2.68761 -2.49325 0
M  V30 30938 H 2844.85 4.85848 -1.30235 0
M  V30 30939 H 2844.55 5.02199 -3.05074 0
M  V30 30940 H 2846.07 5.63605 -2.34907 0
M  V30 30941 H 2847.49 4.09217 -4.01515 0
M  V30 30942 H 2845.89 3.71664 -4.71154 0
M  V30 30943 H 2846.96 2.39209 -4.21791 0
M  V30 30944 N 2848.3 1.29191 0.902633 0
M  V30 30945 C 2849.25 1.10698 1.99324 0
M  V30 30946 C 2850.23 0.0272804 1.60877 0
M  V30 30947 O 2851.42 0.248666 1.75245 0
M  V30 30948 C 2848.55 0.782499 3.34263 0
M  V30 30949 C 2847.64 1.90159 3.79078 0
M  V30 30950 N 2848.03 3.14473 3.96157 0
M  V30 30951 C 2846.33 1.79396 4.08329 0
M  V30 30952 C 2847.03 3.87465 4.33873 0
M  V30 30953 N 2846.01 3.15389 4.42754 0
M  V30 30954 H 2849.81 2.05006 2.10593 0
M  V30 30955 H 2847.32 1.20273 1.09125 0
M  V30 30956 H 2849.32 0.631068 4.12096 0
M  V30 30957 H 2847.98 -0.152697 3.24341 0
M  V30 30958 H 2848.99 3.49961 3.81769 0
M  V30 30959 H 2845.67 0.931289 4.06981 0
M  V30 30960 H 2847.06 4.94433 4.54956 0
M  V30 30961 N 2849.78 -1.1126 1.1162 0
M  V30 30962 C 2850.73 -2.15474 0.745312 0
M  V30 30963 C 2851.71 -1.58921 -0.251557 0
M  V30 30964 O 2852.9 -1.76904 -0.0583782 0
M  V30 30965 C 2850.03 -3.42762 0.192189 0
M  V30 30966 C 2849.12 -4.06268 1.21684 0
M  V30 30967 N 2849.51 -4.44604 2.41166 0
M  V30 30968 C 2847.81 -4.33215 1.06021 0
M  V30 30969 C 2848.51 -4.94383 3.06529 0
M  V30 30970 N 2847.48 -4.90656 2.34003 0
M  V30 30971 H 2851.29 -2.42896 1.65466 0
M  V30 30972 H 2848.8 -1.28294 0.995717 0
M  V30 30973 H 2850.8 -4.16799 -0.0916606 0
M  V30 30974 H 2849.46 -3.16804 -0.711722 0
M  V30 30975 H 2850.47 -4.36575 2.78608 0
M  V30 30976 H 2847.14 -4.16957 0.212883 0
M  V30 30977 H 2848.53 -5.33662 4.08234 0
M  V30 30978 N 2851.25 -0.906798 -1.28899 0
M  V30 30979 C 2852.67 -0.583871 -1.77335 0
M  V30 30980 C 2853.02 0.900667 -1.74306 0
M  V30 30981 O 2852.14 1.7044 -1.33338 0
M  V30 30982 C 2852.74 -1.0531 -3.22017 0
M  V30 30983 C 2851.3 -0.781213 -3.68204 0
M  V30 30984 C 2850.44 -1.22378 -2.48835 0
M  V30 30985 H 2853.39 -1.08879 -1.1546 0
M  V30 30986 H 2853.41 -0.391481 -3.78481 0
M  V30 30987 H 2852.93 -2.13359 -3.24191 0
M  V30 30988 H 2851.03 0.286365 -3.71498 0
M  V30 30989 H 2851.14 -1.38408 -4.58672 0
M  V30 30990 H 2849.5 -0.642637 -2.46459 0
M  V30 30991 H 2850.29 -2.31247 -2.53732 0
M  V30 30992 N 2852.73 1.42648 -0.670032 0
M  V30 30993 C 2853.96 2.06462 -0.196991 0
M  V30 30994 C 2854.38 1.49985 1.13517 0
M  V30 30995 O 2853.74 0.616427 1.70499 0
M  V30 30996 C 2853.79 3.60338 -0.137444 0
M  V30 30997 O 2852.89 4.02561 0.895452 0
M  V30 30998 H 2852.23 0.656027 -0.10259 0
M  V30 30999 H 2854.76 1.82864 -0.917701 0
M  V30 31000 H 2854.77 4.0798 0.0402908 0
M  V30 31001 H 2853.45 4.00818 -1.10984 0
M  V30 31002 H 2852.03 3.66477 0.689145 0
M  V30 31003 N 2854.21 0.413044 1.52091 0
M  V30 31004 C 2855.14 -0.401527 2.30022 0
M  V30 31005 C 2856.12 -1.04267 1.34397 0
M  V30 31006 O 2857.31 -1.05094 1.63306 0
M  V30 31007 C 2854.44 -1.51632 3.1245 0
M  V30 31008 C 2853.39 -0.999977 4.16154 0
M  V30 31009 C 2852.72 -2.20867 4.86952 0
M  V30 31010 C 2854.02 -0.0512839 5.22275 0
M  V30 31011 H 2855.71 0.248757 2.98365 0
M  V30 31012 H 2853.26 0.121077 1.4349 0
M  V30 31013 H 2855.21 -2.09319 3.65737 0
M  V30 31014 H 2853.93 -2.19454 2.41883 0
M  V30 31015 H 2852.59 -0.445485 3.63883 0
M  V30 31016 H 2852.24 -2.87252 4.1291 0
M  V30 31017 H 2851.94 -1.86968 5.57061 0
M  V30 31018 H 2853.47 -2.79153 5.43053 0
M  V30 31019 H 2854.88 -0.537076 5.70779 0
M  V30 31020 H 2853.28 0.199082 5.9977 0
M  V30 31021 H 2854.35 0.892819 4.7661 0
M  V30 31022 N 2855.69 -1.56945 0.143591 0
M  V30 31023 C 2856.94 -1.9519 -0.508316 0
M  V30 31024 C 2857.25 -1.03076 -1.66237 0
M  V30 31025 O 2858.46 -1.30886 -2.37868 0
M  V30 31026 C 2856.91 -3.4698 -0.955674 0
M  V30 31027 C 2856.52 -4.47673 0.171261 0
M  V30 31028 C 2858.27 -3.94098 -1.57756 0
M  V30 31029 C 2856.17 -5.90668 -0.294175 0
M  V30 31030 H 2855.1 -0.728704 -0.193666 0
M  V30 31031 H 2857.75 -1.82086 0.227389 0
M  V30 31032 H 2856.14 -3.55404 -1.74654 0
M  V30 31033 H 2857.31 -4.5094 0.948129 0
M  V30 31034 H 2855.62 -4.10451 0.701345 0
M  V30 31035 H 2858.22 -4.98368 -1.93736 0
M  V30 31036 H 2858.56 -3.35457 -2.46525 0
M  V30 31037 H 2859.1 -3.88576 -0.85166 0
M  V30 31038 H 2855.84 -6.5312 0.558054 0
M  V30 31039 H 2855.36 -5.90768 -1.03699 0
M  V30 31040 H 2857.04 -6.4267 -0.747313 0
M  V30 31041 N 2857.17 0.130197 -1.57061 0
M  V30 31042 C 2858.39 0.858376 -1.88803 0
M  V30 31043 C 2858.82 1.73172 -0.734384 0
M  V30 31044 O 2858.18 1.78534 0.315497 0
M  V30 31045 C 2858.22 1.67702 -3.19231 0
M  V30 31046 O 2857.33 2.78291 -3.04348 0
M  V30 31047 H 2856.67 0.238072 -0.619853 0
M  V30 31048 H 2859.2 0.115959 -2.04271 0
M  V30 31049 H 2859.21 2.06858 -3.51673 0
M  V30 31050 H 2857.88 1.03583 -4.02795 0
M  V30 31051 H 2856.46 2.4242 -2.8335 0
M  V30 31052 N 2858.65 1.52438 0.400055 0
M  V30 31053 C 2859.58 1.79393 1.49467 0
M  V30 31054 C 2860.56 0.645357 1.57382 0
M  V30 31055 O 2861.74 0.891856 1.7251 0
M  V30 31056 C 2858.87 1.95282 2.87198 0
M  V30 31057 C 2857.83 3.10922 2.94129 0
M  V30 31058 C 2857.15 3.12047 4.34201 0
M  V30 31059 C 2858.45 4.50208 2.64783 0
M  V30 31060 H 2860.15 2.71055 1.2716 0
M  V30 31061 H 2857.69 1.30428 0.61029 0
M  V30 31062 H 2859.64 2.12721 3.63769 0
M  V30 31063 H 2858.37 1.00299 3.10818 0
M  V30 31064 H 2857.03 2.93247 2.20004 0
M  V30 31065 H 2856.68 2.14769 4.54844 0
M  V30 31066 H 2856.38 3.89723 4.39761 0
M  V30 31067 H 2857.9 3.31628 5.12694 0
M  V30 31068 H 2859.31 4.68041 3.31075 0
M  V30 31069 H 2857.71 5.29869 2.81708 0
M  V30 31070 H 2858.78 4.57681 1.60176 0
M  V30 31071 N 2860.12 -0.657839 1.43214 0
M  V30 31072 C 2861.05 -1.78259 1.50818 0
M  V30 31073 C 2862.03 -1.66176 0.363241 0
M  V30 31074 O 2863.22 -1.85342 0.579839 0
M  V30 31075 C 2860.35 -3.16661 1.4263 0
M  V30 31076 C 2859.3 -3.43501 2.55326 0
M  V30 31077 C 2858.63 -4.81654 2.32192 0
M  V30 31078 C 2859.93 -3.38704 3.97589 0
M  V30 31079 H 2861.62 -1.72152 2.44957 0
M  V30 31080 H 2859.17 -0.826809 1.17898 0
M  V30 31081 H 2861.12 -3.95095 1.46555 0
M  V30 31082 H 2859.85 -3.23486 0.449934 0
M  V30 31083 H 2858.51 -2.67435 2.50747 0
M  V30 31084 H 2858.15 -4.8515 1.32809 0
M  V30 31085 H 2857.85 -5.00574 3.07733 0
M  V30 31086 H 2859.38 -5.62352 2.37893 0
M  V30 31087 H 2860.79 -4.07082 4.0368 0
M  V30 31088 H 2859.19 -3.6916 4.73118 0
M  V30 31089 H 2860.26 -2.36968 4.23053 0
M  V30 31090 N 2861.6 -1.29668 -0.895769 0
M  V30 31091 C 2862.56 -1.15128 -1.98187 0
M  V30 31092 C 2863.56 -0.0855999 -1.60572 0
M  V30 31093 O 2864.75 -0.332856 -1.7099 0
M  V30 31094 C 2861.89 -0.76143 -3.32288 0
M  V30 31095 H 2863.08 -2.11607 -2.12514 0
M  V30 31096 H 2860.63 -1.1291 -1.08079 0
M  V30 31097 H 2861.37 0.203336 -3.23662 0
M  V30 31098 H 2861.15 -1.53145 -3.60956 0
M  V30 31099 H 2862.64 -0.682865 -4.11979 0
M  V30 31100 N 2863.08 1.10667 -1.12208 0
M  V30 31101 C 2864.04 2.15122 -0.790905 0
M  V30 31102 C 2865.04 1.5963 0.19359 0
M  V30 31103 O 2866.23 1.74171 -0.0319034 0
M  V30 31104 C 2863.36 3.40451 -0.174857 0
M  V30 31105 H 2864.56 2.4593 -1.71635 0
M  V30 31106 H 2862.11 1.25989 -0.925015 0
M  V30 31107 H 2862.85 3.15259 0.760422 0
M  V30 31108 H 2862.63 3.82013 -0.883647 0
M  V30 31109 H 2864.12 4.1758 0.0404428 0
M  V30 31110 N 2864.56 0.913621 1.28416 0
M  V30 31111 C 2865.81 0.545628 1.94595 0
M  V30 31112 C 2866.13 -0.913637 1.72272 0
M  V30 31113 O 2865.4 -1.64593 1.06236 0
M  V30 31114 H 2863.98 0.198796 0.720062 0
M  V30 31115 H 2866.64 1.16295 1.56402 0
M  V30 31116 H 2865.73 0.739965 3.03201 0
M  V30 31117 N 2866.04 -1.4229 0.677588 0
M  V30 31118 C 2867.28 -2.00724 0.198209 0
M  V30 31119 C 2867.6 -1.54214 -1.20323 0
M  V30 31120 O 2868.8 -2.05084 -1.77912 0
M  V30 31121 C 2867.26 -3.58618 0.303495 0
M  V30 31122 C 2866.87 -4.14116 1.70916 0
M  V30 31123 C 2868.61 -4.24339 -0.117029 0
M  V30 31124 C 2866.52 -5.64384 1.76706 0
M  V30 31125 H 2865.45 -0.750712 0.0703422 0
M  V30 31126 H 2868.1 -1.62981 0.843176 0
M  V30 31127 H 2866.48 -3.93878 -0.409413 0
M  V30 31128 H 2867.66 -3.9031 2.44938 0
M  V30 31129 H 2865.97 -3.60857 2.07778 0
M  V30 31130 H 2868.57 -5.34617 -0.0939531 0
M  V30 31131 H 2868.91 -4.00021 -1.15276 0
M  V30 31132 H 2869.44 -3.94049 0.544969 0
M  V30 31133 H 2866.18 -5.93503 2.78271 0
M  V30 31134 H 2865.7 -5.90171 1.07044 0
M  V30 31135 H 2867.38 -6.28849 1.52177 0
M  V30 31136 N 2867.51 -0.421104 -1.5187 0
M  V30 31137 C 2868.93 -0.0725678 -1.59435 0
M  V30 31138 C 2869.13 1.41641 -1.43318 0
M  V30 31139 O 2868.19 2.18459 -1.26618 0
M  V30 31140 C 2869.5 -0.578184 -2.95089 0
M  V30 31141 C 2871.05 -0.537203 -3.08356 0
M  V30 31142 C 2871.52 -1.01952 -4.46508 0
M  V30 31143 N 2873.01 -0.976837 -4.52783 0
M  V30 31144 C 2873.75 -1.32109 -5.57974 0
M  V30 31145 N 2873.24 -1.73739 -6.70661 0
M  V30 31146 N 2875.04 -1.24029 -5.48246 0
M  V30 31147 H 2867.19 -1.3901 -1.60593 0
M  V30 31148 H 2869.45 -0.571816 -0.756128 0
M  V30 31149 H 2869.16 -1.61935 -3.12202 0
M  V30 31150 H 2869.03 0.00571743 -3.772 0
M  V30 31151 H 2871.42 0.49494 -2.9092 0
M  V30 31152 H 2871.5 -1.15731 -2.28123 0
M  V30 31153 H 2871.14 -2.05005 -4.64688 0
M  V30 31154 H 2871.07 -0.376116 -5.25255 0
M  V30 31155 H 2873.56 -0.670916 -3.71897 0
M  V30 31156 H 2873.88 -1.98287 -7.46929 0
M  V30 31157 H 2872.22 -1.77653 -6.71911 0
M  V30 31158 H 2875.41 -0.913836 -4.59093 0
M  V30 31159 H 2875.59 -1.51187 -6.30116 0
M  V30 31160 N 2868.99 1.56866 -0.151912 0
M  V30 31161 C 2870.4 1.83035 0.368096 0
M  V30 31162 C 2870.75 1.07085 1.644 0
M  V30 31163 O 2869.88 0.317685 2.14055 0
M  V30 31164 C 2870.47 3.32016 0.674617 0
M  V30 31165 C 2869.03 3.58749 1.13913 0
M  V30 31166 C 2868.18 2.7681 0.164784 0
M  V30 31167 H 2871.13 1.54169 -0.376526 0
M  V30 31168 H 2871.15 3.48438 1.52877 0
M  V30 31169 H 2870.66 3.87267 -0.254181 0
M  V30 31170 H 2868.77 3.0889 2.0837 0
M  V30 31171 H 2868.88 4.67188 1.06171 0
M  V30 31172 H 2867.24 2.46044 0.658376 0
M  V30 31173 H 2868.03 3.34834 -0.757691 0
M  V30 31174 N 2870.47 -0.121866 1.57128 0
M  V30 31175 C 2871.89 -0.475313 1.52358 0
M  V30 31176 C 2872.09 -1.82015 0.864449 0
M  V30 31177 O 2871.14 -2.48538 0.445572 0
M  V30 31178 C 2872.46 -0.462448 2.97123 0
M  V30 31179 C 2874 -0.546201 3.08197 0
M  V30 31180 C 2874.48 -0.563753 4.54517 0
M  V30 31181 N 2875.97 -0.625272 4.5896 0
M  V30 31182 C 2876.7 -0.660254 5.69586 0
M  V30 31183 N 2876.2 -0.653054 6.89715 0
M  V30 31184 N 2877.99 -0.703045 5.57686 0
M  V30 31185 H 2870.14 0.759344 1.98363 0
M  V30 31186 H 2872.41 0.279788 0.905772 0
M  V30 31187 H 2872.11 0.458005 3.48705 0
M  V30 31188 H 2871.99 -1.2913 3.54409 0
M  V30 31189 H 2874.37 -1.45707 2.56619 0
M  V30 31190 H 2874.46 0.310279 2.53911 0
M  V30 31191 H 2874.1 0.343063 5.0674 0
M  V30 31192 H 2874.03 -1.43708 5.06612 0
M  V30 31193 H 2876.52 -0.637117 3.72491 0
M  V30 31194 H 2876.83 -0.68229 7.69782 0
M  V30 31195 H 2875.18 -0.620524 6.92224 0
M  V30 31196 H 2878.37 -0.706013 4.62745 0
M  V30 31197 H 2878.54 -0.726839 6.43911 0
M  V30 31198 N 2871.95 -1.52648 -0.391965 0
M  V30 31199 C 2872.88 -1.71961 -1.50016 0
M  V30 31200 C 2873.86 -0.567391 -1.52379 0
M  V30 31201 O 2875.04 -0.796836 -1.7083 0
M  V30 31202 C 2872.17 -1.77453 -2.88493 0
M  V30 31203 C 2871.22 -2.99174 -3.03969 0
M  V30 31204 S 2872.05 -4.59207 -2.75479 0
M  V30 31205 C 2873.21 -4.6751 -4.16155 0
M  V30 31206 H 2873.44 -2.65687 -1.33408 0
M  V30 31207 H 2870.97 -1.42903 -0.584649 0
M  V30 31208 H 2872.93 -1.81302 -3.68293 0
M  V30 31209 H 2871.59 -0.848241 -3.0243 0
M  V30 31210 H 2870.78 -2.99549 -4.05322 0
M  V30 31211 H 2870.39 -2.93301 -2.32057 0
M  V30 31212 H 2872.68 -4.45943 -5.1004 0
M  V30 31213 H 2873.62 -5.69505 -4.20796 0
M  V30 31214 H 2874.03 -3.96379 -4.01926 0
M  V30 31215 N 2873.43 0.650235 -1.43561 0
M  V30 31216 C 2874.36 1.77457 -1.51761 0
M  V30 31217 C 2875.34 1.65981 -0.372048 0
M  V30 31218 O 2876.52 1.85031 -0.58966 0
M  V30 31219 C 2873.65 3.159 -1.44307 0
M  V30 31220 C 2872.61 3.42142 -2.57144 0
M  V30 31221 C 2871.93 4.80416 -2.34743 0
M  V30 31222 C 2873.23 3.36591 -3.99379 0
M  V30 31223 H 2874.93 1.70851 -2.45866 0
M  V30 31224 H 2872.47 0.820545 -1.18335 0
M  V30 31225 H 2874.43 3.94312 -1.48648 0
M  V30 31226 H 2873.15 3.23243 -0.467083 0
M  V30 31227 H 2871.81 2.66102 -2.52161 0
M  V30 31228 H 2871.46 4.84439 -1.3538 0
M  V30 31229 H 2871.16 4.98935 -3.10384 0
M  V30 31230 H 2872.68 5.61082 -2.40872 0
M  V30 31231 H 2874.09 4.04935 -4.05833 0
M  V30 31232 H 2872.49 3.66646 -4.7507 0
M  V30 31233 H 2873.56 2.34721 -4.24304 0
M  V30 31234 N 2874.9 1.30141 0.88888 0
M  V30 31235 C 2876.15 1.18915 1.64278 0
M  V30 31236 C 2876.48 -0.256443 1.92499 0
M  V30 31237 O 2875.76 -1.18395 1.54314 0
M  V30 31238 C 2876.04 2.0141 2.98506 0
M  V30 31239 C 2875.89 3.54168 2.77282 0
M  V30 31240 C 2877.21 1.84889 3.9938 0
M  V30 31241 H 2874.33 0.433343 0.59614 0
M  V30 31242 H 2876.97 1.59732 1.02887 0
M  V30 31243 H 2875.12 1.66729 3.50904 0
M  V30 31244 H 2876.8 3.98888 2.31702 0
M  V30 31245 H 2875.04 3.78547 2.1186 0
M  V30 31246 H 2875.71 4.07175 3.7271 0
M  V30 31247 H 2878.19 2.15202 3.56128 0
M  V30 31248 H 2877.06 2.44943 4.91217 0
M  V30 31249 H 2877.32 0.806979 4.34673 0
M  V30 31250 N 2876.38 -1.1007 1.12794 0
M  V30 31251 C 2877.32 -2.15767 0.742959 0
M  V30 31252 C 2878.29 -1.60381 -0.267686 0
M  V30 31253 O 2879.48 -1.87813 -0.160749 0
M  V30 31254 C 2876.6 -3.38551 0.100303 0
M  V30 31255 C 2875.65 -4.12642 1.07838 0
M  V30 31256 S 2876.48 -4.67715 2.60773 0
M  V30 31257 C 2877.64 -5.93807 1.97849 0
M  V30 31258 H 2877.87 -2.48089 1.63826 0
M  V30 31259 H 2875.41 -1.21916 0.947407 0
M  V30 31260 H 2877.36 -4.0965 -0.264103 0
M  V30 31261 H 2876.02 -3.04461 -0.772169 0
M  V30 31262 H 2875.22 -5.00693 0.576413 0
M  V30 31263 H 2874.82 -3.47373 1.38592 0
M  V30 31264 H 2877.11 -6.64446 1.32352 0
M  V30 31265 H 2878.05 -6.48672 2.83955 0
M  V30 31266 H 2878.46 -5.46015 1.43276 0
M  V30 31267 N 2877.86 -0.920419 -1.2793 0
M  V30 31268 C 2878.77 -0.419253 -2.30823 0
M  V30 31269 C 2879.79 0.496432 -1.66768 0
M  V30 31270 O 2880.96 0.381005 -1.97763 0
M  V30 31271 C 2878.03 0.326541 -3.45159 0
M  V30 31272 C 2877.09 -0.623173 -4.24753 0
M  V30 31273 C 2876.32 0.0871234 -5.33629 0
M  V30 31274 O 2876.54 1.30774 -5.55207 0
M  V30 31275 O 2875.48 -0.58098 -5.9909 0
M  V30 31276 H 2879.3 -1.27342 -2.75713 0
M  V30 31277 H 2876.89 -0.685488 -1.32746 0
M  V30 31278 H 2878.77 0.747486 -4.14718 0
M  V30 31279 H 2877.45 1.15643 -3.02338 0
M  V30 31280 H 2876.35 -1.09365 -3.57757 0
M  V30 31281 H 2877.69 -1.42007 -4.71269 0
M  V30 31282 N 2879.34 1.41929 -0.685124 0
M  V30 31283 C 2880.27 2.33484 -0.0273917 0
M  V30 31284 C 2881.25 1.51248 0.778339 0
M  V30 31285 O 2882.43 1.79818 0.733417 0
M  V30 31286 C 2879.56 3.34969 0.917213 0
M  V30 31287 C 2878.52 4.27438 0.219334 0
M  V30 31288 C 2877.84 5.19213 1.27758 0
M  V30 31289 C 2879.14 5.14347 -0.907984 0
M  V30 31290 H 2880.84 2.88733 -0.792045 0
M  V30 31291 H 2878.38 1.38832 -0.382332 0
M  V30 31292 H 2880.34 3.97937 1.3865 0
M  V30 31293 H 2879.06 2.78046 1.71341 0
M  V30 31294 H 2877.72 3.65879 -0.229822 0
M  V30 31295 H 2877.37 4.58611 2.06604 0
M  V30 31296 H 2877.07 5.81911 0.815701 0
M  V30 31297 H 2878.59 5.85057 1.7476 0
M  V30 31298 H 2880.01 5.70942 -0.519448 0
M  V30 31299 H 2878.4 5.85932 -1.29631 0
M  V30 31300 H 2879.47 4.52133 -1.75226 0
M  V30 31301 N 2880.82 0.429152 1.51644 0
M  V30 31302 C 2881.78 -0.374686 2.26117 0
M  V30 31303 C 2882.78 -0.956691 1.29244 0
M  V30 31304 O 2883.97 -0.832425 1.53024 0
M  V30 31305 C 2881.1 -1.52932 3.04671 0
M  V30 31306 H 2882.29 0.277871 2.9861 0
M  V30 31307 H 2879.85 0.182124 1.55235 0
M  V30 31308 H 2880.58 -2.21817 2.36575 0
M  V30 31309 H 2880.37 -1.11826 3.75816 0
M  V30 31310 H 2881.86 -2.09745 3.61105 0
M  V30 31311 N 2882.29 -1.56783 0.160229 0
M  V30 31312 C 2883.52 -2.01349 -0.497338 0
M  V30 31313 C 2883.94 -1.03969 -1.56755 0
M  V30 31314 O 2883.3 -0.0174773 -1.81292 0
M  V30 31315 C 2883.35 -3.44584 -1.06274 0
M  V30 31316 O 2882.45 -3.50247 -2.17717 0
M  V30 31317 H 2881.8 -0.653014 -0.120284 0
M  V30 31318 H 2884.33 -2.0293 0.260857 0
M  V30 31319 H 2884.34 -3.8366 -1.38812 0
M  V30 31320 H 2883.01 -4.14963 -0.279093 0
M  V30 31321 H 2881.59 -3.23023 -1.86307 0
M  V30 31322 N 2883.77 0.113531 -1.57191 0
M  V30 31323 C 2884.72 1.13898 -2.00738 0
M  V30 31324 C 2885.69 1.40844 -0.880465 0
M  V30 31325 O 2886.88 1.52618 -1.1451 0
M  V30 31326 C 2884.02 2.45895 -2.42136 0
M  V30 31327 C 2883.13 2.25838 -3.68268 0
M  V30 31328 C 2882.26 3.51103 -3.98623 0
M  V30 31329 C 2881.3 3.26227 -5.17921 0
M  V30 31330 N 2880.44 4.4371 -5.44119 0
M  V30 31331 H 2885.28 0.760626 -2.88129 0
M  V30 31332 H 2882.82 0.364074 -1.42523 0
M  V30 31333 H 2884.77 3.22904 -2.64176 0
M  V30 31334 H 2883.4 2.81612 -1.5778 0
M  V30 31335 H 2882.46 1.39719 -3.53812 0
M  V30 31336 H 2883.77 2.03436 -4.55428 0
M  V30 31337 H 2882.92 4.36528 -4.21341 0
M  V30 31338 H 2881.66 3.76541 -3.09949 0
M  V30 31339 H 2880.67 2.39193 -4.95042 0
M  V30 31340 H 2881.89 3.02154 -6.08177 0
M  V30 31341 H 2879.84 4.69258 -4.58402 0
M  V30 31342 H 2879.75 4.24433 -6.25614 0
M  V30 31343 H 2881.02 5.30253 -5.7136 0
M  V30 31344 N 2885.25 1.52854 0.383864 0
M  V30 31345 C 2886.5 1.67816 1.12616 0
M  V30 31346 C 2886.82 0.423174 1.90353 0
M  V30 31347 O 2886.09 -0.562521 1.8765 0
M  V30 31348 H 2884.67 0.618609 0.418727 0
M  V30 31349 H 2887.33 1.89985 0.434917 0
M  V30 31350 H 2886.43 2.53094 1.8262 0
M  V30 31351 N 2886.73 -0.642612 1.43904 0
M  V30 31352 C 2887.95 -1.43481 1.4976 0
M  V30 31353 C 2888.38 -1.87717 0.119944 0
M  V30 31354 O 2887.74 -1.58034 -0.88853 0
M  V30 31355 C 2887.79 -2.63894 2.45749 0
M  V30 31356 O 2886.89 -3.63327 1.95108 0
M  V30 31357 H 2886.23 -0.429782 0.506146 0
M  V30 31358 H 2888.76 -0.785404 1.88925 0
M  V30 31359 H 2888.77 -3.1158 2.63405 0
M  V30 31360 H 2887.45 -2.3104 3.45822 0
M  V30 31361 H 2886.02 -3.22528 1.87163 0
M  V30 31362 N 2888.21 -1.30611 -0.881966 0
M  V30 31363 C 2889.14 -1.19823 -2.00411 0
M  V30 31364 C 2890.12 -0.0881836 -1.69871 0
M  V30 31365 O 2891.3 -0.270734 -1.92304 0
M  V30 31366 C 2888.43 -0.892389 -3.35639 0
M  V30 31367 C 2887.39 -1.9607 -3.80448 0
M  V30 31368 C 2886.71 -1.50779 -5.13001 0
M  V30 31369 C 2888.01 -3.3722 -3.98849 0
M  V30 31370 H 2889.71 -2.13703 -2.09694 0
M  V30 31371 H 2887.25 -1.02884 -1.00752 0
M  V30 31372 H 2889.21 -0.80357 -4.13667 0
M  V30 31373 H 2887.93 0.0820807 -3.26497 0
M  V30 31374 H 2886.59 -2.03921 -3.0465 0
M  V30 31375 H 2886.24 -0.521504 -5.00289 0
M  V30 31376 H 2885.94 -2.22238 -5.43952 0
M  V30 31377 H 2887.46 -1.43281 -5.93551 0
M  V30 31378 H 2888.88 -3.32111 -4.67306 0
M  V30 31379 H 2887.27 -4.06792 -4.41181 0
M  V30 31380 H 2888.34 -3.78889 -3.02608 0
M  V30 31381 N 2889.69 1.0947 -1.13376 0
M  V30 31382 C 2890.96 1.78205 -0.80636 0
M  V30 31383 C 2891.34 1.9908 0.702156 0
M  V30 31384 O 2890.69 1.59185 1.63928 0
M  V30 31385 C 2890.9 3.10535 -1.59276 0
M  V30 31386 C 2892.25 3.8525 -1.78516 0
M  V30 31387 O 2893.27 3.20285 -1.55871 0
M  V30 31388 O 2892.13 5.01875 -2.16296 0
M  V30 31389 H 2889.23 0.772838 -0.294364 0
M  V30 31390 H 2891.77 1.16031 -1.23835 0
M  V30 31391 H 2890.54 2.90823 -2.61797 0
M  V30 31392 H 2890.17 3.80434 -1.15568 0
M  V30 31393 N 2891.16 0.92719 1.2744 0
M  V30 31394 C 2892.58 0.627355 1.46753 0
M  V30 31395 C 2892.78 -0.823517 1.83903 0
M  V30 31396 O 2891.84 -1.60145 1.95217 0
M  V30 31397 C 2893.15 1.57679 2.56043 0
M  V30 31398 C 2894.7 1.58496 2.69904 0
M  V30 31399 C 2895.17 2.52135 3.82351 0
M  V30 31400 N 2896.66 2.50339 3.89724 0
M  V30 31401 C 2897.4 3.19483 4.76149 0
M  V30 31402 N 2896.89 3.98005 5.67066 0
M  V30 31403 N 2898.69 3.08504 4.69874 0
M  V30 31404 H 2890.84 1.86519 1.0161 0
M  V30 31405 H 2893.1 0.800762 0.507429 0
M  V30 31406 H 2892.81 2.6118 2.35537 0
M  V30 31407 H 2892.68 1.3181 3.5342 0
M  V30 31408 H 2895.07 0.557259 2.89791 0
M  V30 31409 H 2895.15 1.88413 1.73015 0
M  V30 31410 H 2894.79 3.55015 3.63217 0
M  V30 31411 H 2894.72 2.19514 4.78666 0
M  V30 31412 H 2897.21 1.93312 3.24714 0
M  V30 31413 H 2897.53 4.47751 6.29872 0
M  V30 31414 H 2895.87 4.02108 5.66863 0
M  V30 31415 H 2899.06 2.46653 3.97844 0
M  V30 31416 H 2899.24 3.62661 5.37011 0
M  V30 31417 N 2892.64 -1.41564 0.692641 0
M  V30 31418 C 2893.57 -2.33466 0.0397735 0
M  V30 31419 C 2894.55 -1.51658 -0.770307 0
M  V30 31420 O 2895.74 -1.80205 -0.723871 0
M  V30 31421 C 2892.87 -3.35451 -0.899436 0
M  V30 31422 C 2891.82 -4.27548 -0.196663 0
M  V30 31423 C 2891.15 -5.19883 -1.25003 0
M  V30 31424 C 2892.45 -5.13858 0.935248 0
M  V30 31425 H 2894.14 -2.88309 0.807346 0
M  V30 31426 H 2891.69 -1.38627 0.389689 0
M  V30 31427 H 2893.64 -3.98667 -1.36538 0
M  V30 31428 H 2892.36 -2.78951 -1.69864 0
M  V30 31429 H 2891.02 -3.65752 0.249222 0
M  V30 31430 H 2890.67 -4.597 -2.04169 0
M  V30 31431 H 2890.37 -5.82335 -0.784829 0
M  V30 31432 H 2891.9 -5.85975 -1.71655 0
M  V30 31433 H 2893.31 -5.70658 0.54972 0
M  V30 31434 H 2891.71 -5.85236 1.32736 0
M  V30 31435 H 2892.78 -4.51197 1.77621 0
M  V30 31436 N 2894.12 -0.437188 -1.51415 0
M  V30 31437 C 2895.05 0.364881 -2.30631 0
M  V30 31438 C 2896.03 1.02116 -1.36038 0
M  V30 31439 O 2897.22 1.02482 -1.64958 0
M  V30 31440 C 2894.35 1.46642 -3.14823 0
M  V30 31441 C 2893.3 0.933644 -4.17693 0
M  V30 31442 C 2892.63 2.13092 -4.90404 0
M  V30 31443 C 2893.93 -0.0318119 -5.2229 0
M  V30 31444 H 2895.62 -0.296193 -2.97931 0
M  V30 31445 H 2893.17 -0.14389 -1.43279 0
M  V30 31446 H 2895.12 2.03474 -3.69021 0
M  V30 31447 H 2893.84 2.15578 -2.45344 0
M  V30 31448 H 2892.5 0.387538 -3.64546 0
M  V30 31449 H 2892.15 2.80647 -4.17428 0
M  V30 31450 H 2891.85 1.78082 -5.59965 0
M  V30 31451 H 2893.37 2.70478 -5.47425 0
M  V30 31452 H 2894.79 0.446202 -5.71561 0
M  V30 31453 H 2893.18 -0.294475 -5.99377 0
M  V30 31454 H 2894.25 -0.968531 -4.75129 0
M  V30 31455 N 2895.6 1.56696 -0.168541 0
M  V30 31456 C 2896.53 2.15 0.794211 0
M  V30 31457 C 2897.54 1.10487 1.19568 0
M  V30 31458 O 2898.73 1.37684 1.13602 0
M  V30 31459 C 2895.83 2.67551 2.08014 0
M  V30 31460 C 2895 3.96692 1.84267 0
M  V30 31461 C 2894.06 4.34335 2.97051 0
M  V30 31462 O 2893.09 5.02263 2.67806 0
M  V30 31463 N 2894.29 3.95667 4.24768 0
M  V30 31464 H 2897.06 2.98237 0.29578 0
M  V30 31465 H 2894.62 1.61894 0.0143326 0
M  V30 31466 H 2896.61 2.89734 2.82554 0
M  V30 31467 H 2895.18 1.88918 2.49056 0
M  V30 31468 H 2894.4 3.82915 0.93646 0
M  V30 31469 H 2895.69 4.8104 1.65765 0
M  V30 31470 H 2895.09 3.40976 4.51389 0
M  V30 31471 H 2893.64 4.22857 4.9602 0
M  V30 31472 N 2897.08 -0.105193 1.57249 0
M  V30 31473 C 2898.01 -1.15432 1.9801 0
M  V30 31474 C 2899.02 -1.36886 0.88126 0
M  V30 31475 O 2900.21 -1.35716 1.15946 0
M  V30 31476 C 2897.31 -2.51179 2.27513 0
M  V30 31477 C 2896.48 -2.50141 3.58815 0
M  V30 31478 C 2895.54 -3.67738 3.76371 0
M  V30 31479 O 2894.57 -3.50691 4.48335 0
M  V30 31480 N 2895.77 -4.86835 3.16183 0
M  V30 31481 H 2898.53 -0.807469 2.88617 0
M  V30 31482 H 2896.1 -0.294302 1.59203 0
M  V30 31483 H 2898.09 -3.28433 2.3646 0
M  V30 31484 H 2896.66 -2.77993 1.42964 0
M  V30 31485 H 2895.88 -1.58503 3.6093 0
M  V30 31486 H 2897.17 -2.46516 4.45093 0
M  V30 31487 H 2896.56 -5.03589 2.5771 0
M  V30 31488 H 2895.12 -5.61718 3.30631 0
M  V30 31489 N 2898.55 -1.53055 -0.375752 0
M  V30 31490 C 2899.83 -1.59338 -1.1345 0
M  V30 31491 C 2900.21 -0.394651 -2.07378 0
M  V30 31492 O 2899.56 0.615962 -2.20041 0
M  V30 31493 C 2899.77 -2.93872 -1.88255 0
M  V30 31494 C 2901.12 -3.48086 -2.43149 0
M  V30 31495 O 2902.14 -2.95834 -1.98395 0
M  V30 31496 O 2901 -4.39407 -3.24937 0
M  V30 31497 H 2898.09 -0.643188 -0.519845 0
M  V30 31498 H 2900.64 -1.65394 -0.379836 0
M  V30 31499 H 2899.41 -3.7256 -1.19645 0
M  V30 31500 H 2899.04 -2.91261 -2.70653 0
M  V30 31501 N 2900.03 0.634971 -1.44242 0
M  V30 31502 C 2900.98 1.74712 -1.50813 0
M  V30 31503 C 2901.95 1.62236 -0.356175 0
M  V30 31504 O 2903.13 1.82215 -0.56588 0
M  V30 31505 C 2900.27 3.12945 -1.45464 0
M  V30 31506 C 2899.39 3.36424 -2.71004 0
M  V30 31507 C 2898.52 4.64607 -2.57516 0
M  V30 31508 C 2897.56 4.81251 -3.78237 0
M  V30 31509 N 2896.7 6.00708 -3.63448 0
M  V30 31510 H 2901.54 1.68432 -2.45835 0
M  V30 31511 H 2899.08 0.821685 -1.22011 0
M  V30 31512 H 2901.03 3.92882 -1.40354 0
M  V30 31513 H 2899.66 3.18249 -0.540114 0
M  V30 31514 H 2898.72 2.50453 -2.86317 0
M  V30 31515 H 2900.03 3.44603 -3.60625 0
M  V30 31516 H 2899.18 5.52699 -2.50217 0
M  V30 31517 H 2897.92 4.58779 -1.65449 0
M  V30 31518 H 2896.93 3.91589 -3.85925 0
M  V30 31519 H 2898.15 4.88896 -4.71336 0
M  V30 31520 H 2896.1 5.95977 -2.7413 0
M  V30 31521 H 2896.01 6.09927 -4.46683 0
M  V30 31522 H 2897.28 6.91372 -3.60035 0
M  V30 31523 N 2901.51 1.31076 0.875027 0
M  V30 31524 C 2902.47 1.18266 1.96331 0
M  V30 31525 C 2903.47 0.111135 1.60415 0
M  V30 31526 O 2904.66 0.360017 1.70439 0
M  V30 31527 C 2901.8 0.814198 3.31034 0
M  V30 31528 H 2902.99 2.14961 2.09121 0
M  V30 31529 H 2900.54 1.14615 1.06269 0
M  V30 31530 H 2901.28 -0.151818 3.23944 0
M  V30 31531 H 2901.06 1.58869 3.58473 0
M  V30 31532 H 2902.55 0.748321 4.10841 0
M  V30 31533 N 2902.99 -1.08867 1.13955 0
M  V30 31534 C 2904.21 -1.85451 0.928592 0
M  V30 31535 C 2904.64 -1.80838 -0.51761 0
M  V30 31536 O 2904 -1.19003 -1.36777 0
M  V30 31537 C 2904.04 -3.31111 1.4282 0
M  V30 31538 O 2903.15 -4.07755 0.617201 0
M  V30 31539 H 2902.49 -0.574833 0.33236 0
M  V30 31540 H 2905.02 -1.3744 1.51563 0
M  V30 31541 H 2905.03 -3.81957 1.43432 0
M  V30 31542 H 2903.7 -3.33784 2.48115 0
M  V30 31543 H 2902.28 -3.66658 0.67943 0
M  V30 31544 N 2904.47 -0.933936 -1.26946 0
M  V30 31545 C 2905.4 -0.45538 -2.29016 0
M  V30 31546 C 2906.38 0.487576 -1.62962 0
M  V30 31547 O 2907.56 0.390989 -1.90223 0
M  V30 31548 C 2904.69 0.286954 -3.46113 0
M  V30 31549 C 2903.65 -0.568757 -4.24204 0
M  V30 31550 C 2902.97 0.303112 -5.3384 0
M  V30 31551 C 2904.27 -1.83642 -4.88951 0
M  V30 31552 H 2905.97 -1.30843 -2.69296 0
M  V30 31553 H 2903.51 -0.630602 -1.29458 0
M  V30 31554 H 2905.47 0.632726 -4.16623 0
M  V30 31555 H 2904.19 1.17409 -3.04767 0
M  V30 31556 H 2902.85 -0.897323 -3.55449 0
M  V30 31557 H 2902.5 1.18938 -4.88736 0
M  V30 31558 H 2902.2 -0.265983 -5.86998 0
M  V30 31559 H 2903.72 0.644316 -6.07191 0
M  V30 31560 H 2905.13 -1.55833 -5.51715 0
M  V30 31561 H 2903.53 -2.3495 -5.52194 0
M  V30 31562 H 2904.6 -2.55219 -4.123 0
M  V30 31563 N 2905.94 1.41194 -0.700139 0
M  V30 31564 C 2907.17 2.05477 -0.242215 0
M  V30 31565 C 2907.59 1.52704 1.11026 0
M  V30 31566 O 2906.94 0.677157 1.69472 0
M  V30 31567 C 2907 3.60966 -0.196334 0
M  V30 31568 O 2906.72 4.11788 -1.49539 0
M  V30 31569 C 2908.22 4.42402 0.282024 0
M  V30 31570 H 2905.44 0.661627 -0.11176 0
M  V30 31571 H 2907.98 1.80884 -0.954007 0
M  V30 31572 H 2906.14 3.84583 0.466312 0
M  V30 31573 H 2906.55 5.05868 -1.38554 0
M  V30 31574 H 2908.02 5.51373 0.262996 0
M  V30 31575 H 2908.5 4.18842 1.32166 0
M  V30 31576 H 2909.11 4.23859 -0.349787 0
M  V30 31577 N 2907.42 0.445212 1.51181 0
M  V30 31578 C 2908.84 0.0979234 1.59299 0
M  V30 31579 C 2909.04 -1.39343 1.45553 0
M  V30 31580 O 2908.09 -2.16417 1.30077 0
M  V30 31581 C 2909.41 0.625057 2.94132 0
M  V30 31582 C 2910.96 0.586191 3.07462 0
M  V30 31583 C 2911.43 1.09043 4.4483 0
M  V30 31584 N 2912.92 1.04875 4.51171 0
M  V30 31585 C 2913.66 1.40969 5.55801 0
M  V30 31586 N 2913.15 1.84387 6.67812 0
M  V30 31587 N 2914.95 1.32736 5.46203 0
M  V30 31588 H 2907.1 1.41547 1.58361 0
M  V30 31589 H 2909.36 0.583773 0.746936 0
M  V30 31590 H 2909.07 1.66881 3.09586 0
M  V30 31591 H 2908.94 0.0542925 3.77161 0
M  V30 31592 H 2911.33 -0.448594 2.9167 0
M  V30 31593 H 2911.41 1.19345 2.26253 0
M  V30 31594 H 2911.05 2.12372 4.61368 0
M  V30 31595 H 2910.98 0.459631 5.2459 0
M  V30 31596 H 2913.47 0.729997 3.70782 0
M  V30 31597 H 2913.79 2.10145 7.43679 0
M  V30 31598 H 2912.13 1.8832 6.69 0
M  V30 31599 H 2915.32 0.986758 4.57581 0
M  V30 31600 H 2915.49 1.61193 6.27631 0
M  V30 31601 N 2908.9 -1.56605 0.176849 0
M  V30 31602 C 2910.13 -2.01426 -0.472793 0
M  V30 31603 C 2910.54 -1.05706 -1.56434 0
M  V30 31604 O 2909.9 -0.05884 -1.82405 0
M  V30 31605 C 2909.95 -3.46036 -1.04601 0
M  V30 31606 O 2909.67 -4.381 0.00197309 0
M  V30 31607 C 2911.17 -4.06285 -1.77333 0
M  V30 31608 H 2908.39 -0.660093 -0.120492 0
M  V30 31609 H 2910.94 -2.02571 0.280202 0
M  V30 31610 H 2909.09 -3.45648 -1.74947 0
M  V30 31611 H 2909.51 -5.22799 -0.422026 0
M  V30 31612 H 2910.98 -5.09377 -2.12694 0
M  V30 31613 H 2911.46 -3.48694 -2.67037 0
M  V30 31614 H 2912.06 -4.10393 -1.11616 0
M  V30 31615 N 2910.38 0.0968524 -1.57302 0
M  V30 31616 C 2911.31 1.11842 -2.04972 0
M  V30 31617 C 2912.29 1.4188 -0.938303 0
M  V30 31618 O 2913.47 1.5194 -1.20946 0
M  V30 31619 C 2910.6 2.43877 -2.47268 0
M  V30 31620 C 2909.56 2.28251 -3.62057 0
M  V30 31621 C 2908.88 3.65447 -3.90324 0
M  V30 31622 C 2910.18 1.72453 -4.93009 0
M  V30 31623 H 2911.88 0.721836 -2.90568 0
M  V30 31624 H 2909.42 0.345778 -1.39787 0
M  V30 31625 H 2911.38 3.15612 -2.79225 0
M  V30 31626 H 2910.1 2.85467 -1.58669 0
M  V30 31627 H 2908.76 1.58961 -3.30344 0
M  V30 31628 H 2908.41 4.04562 -2.98896 0
M  V30 31629 H 2908.11 3.55838 -4.67603 0
M  V30 31630 H 2909.63 4.38652 -4.24755 0
M  V30 31631 H 2911.05 2.34027 -5.23359 0
M  V30 31632 H 2909.44 1.73608 -5.74439 0
M  V30 31633 H 2910.51 0.683814 -4.80054 0
M  V30 31634 N 2911.86 1.53252 0.36763 0
M  V30 31635 C 2912.79 1.75827 1.47029 0
M  V30 31636 C 2913.8 0.639007 1.49735 0
M  V30 31637 O 2914.99 0.91522 1.53251 0
M  V30 31638 C 2912.09 1.82127 2.85802 0
M  V30 31639 C 2911.26 3.11741 3.06816 0
M  V30 31640 C 2910.32 3.0931 4.25692 0
M  V30 31641 O 2909.35 3.83115 4.20965 0
M  V30 31642 N 2910.55 2.29986 5.32998 0
M  V30 31643 H 2913.32 2.7097 1.28044 0
M  V30 31644 H 2910.88 1.52005 0.557336 0
M  V30 31645 H 2912.87 1.77981 3.63462 0
M  V30 31646 H 2911.44 0.942769 2.98045 0
M  V30 31647 H 2910.66 3.29206 2.16834 0
M  V30 31648 H 2911.95 3.97403 3.17724 0
M  V30 31649 H 2911.34 1.6953 5.397 0
M  V30 31650 H 2909.9 2.3166 6.09243 0
M  V30 31651 N 2913.34 -0.627313 1.44577 0
M  V30 31652 C 2914.29 -1.7329 1.48171 0
M  V30 31653 C 2915.27 -1.57112 0.347072 0
M  V30 31654 O 2916.46 -1.66784 0.592634 0
M  V30 31655 C 2913.59 -3.11988 1.43241 0
M  V30 31656 C 2912.68 -3.33623 2.61833 0
M  V30 31657 N 2913.07 -3.25606 3.87059 0
M  V30 31658 C 2911.37 -3.64431 2.57111 0
M  V30 31659 C 2912.07 -3.48032 4.66099 0
M  V30 31660 N 2911.04 -3.71088 3.97234 0
M  V30 31661 H 2914.84 -1.65555 2.42835 0
M  V30 31662 H 2912.36 -0.82991 1.39593 0
M  V30 31663 H 2914.36 -3.91278 1.439 0
M  V30 31664 H 2913.02 -3.20886 0.496189 0
M  V30 31665 H 2914.03 -3.0444 4.18971 0
M  V30 31666 H 2910.7 -3.80287 1.72302 0
M  V30 31667 H 2912.09 -3.47394 5.75123 0
M  V30 31668 N 2914.81 -1.31539 -0.868063 0
M  V30 31669 C 2916.23 -1.10237 -1.15412 0
M  V30 31670 C 2916.43 0.125912 -2.01106 0
M  V30 31671 O 2915.49 0.814691 -2.38996 0
M  V30 31672 C 2916.8 -2.37491 -1.84441 0
M  V30 31673 C 2918.35 -2.43119 -1.97134 0
M  V30 31674 C 2918.82 -3.70259 -2.69578 0
M  V30 31675 N 2920.31 -3.71164 -2.77113 0
M  V30 31676 C 2921.05 -4.66236 -3.33783 0
M  V30 31677 N 2920.54 -5.71666 -3.9137 0
M  V30 31678 N 2922.34 -4.53753 -3.31759 0
M  V30 31679 H 2914.49 -2.10312 -0.297072 0
M  V30 31680 H 2916.75 -0.927893 -0.194211 0
M  V30 31681 H 2916.46 -3.27218 -1.28924 0
M  V30 31682 H 2916.33 -2.47433 -2.84704 0
M  V30 31683 H 2918.72 -1.5386 -2.51815 0
M  V30 31684 H 2918.8 -2.3714 -0.959078 0
M  V30 31685 H 2918.44 -4.59885 -2.15564 0
M  V30 31686 H 2918.37 -3.73505 -3.71216 0
M  V30 31687 H 2920.86 -2.94953 -2.36244 0
M  V30 31688 H 2921.18 -6.40286 -4.32729 0
M  V30 31689 H 2919.52 -5.75437 -3.8974 0
M  V30 31690 H 2922.71 -3.70562 -2.8601 0
M  V30 31691 H 2922.89 -5.28023 -3.75627 0
M  V30 31692 N 2916.29 1.08262 -1.1453 0
M  V30 31693 C 2917.54 1.80055 -0.909024 0
M  V30 31694 C 2917.85 1.87237 0.565826 0
M  V30 31695 O 2919.06 2.55459 0.919409 0
M  V30 31696 C 2917.52 3.23517 -1.57687 0
M  V30 31697 C 2917.12 3.24563 -3.08808 0
M  V30 31698 C 2918.87 3.99983 -1.42177 0
M  V30 31699 C 2916.77 4.62622 -3.68422 0
M  V30 31700 H 2915.7 0.674775 -0.336444 0
M  V30 31701 H 2918.36 1.21585 -1.37439 0
M  V30 31702 H 2916.74 3.82122 -1.03918 0
M  V30 31703 H 2917.91 2.75656 -3.69256 0
M  V30 31704 H 2916.23 2.61592 -3.23973 0
M  V30 31705 H 2918.82 5.02002 -1.84115 0
M  V30 31706 H 2919.17 4.1467 -0.368062 0
M  V30 31707 H 2919.7 3.4785 -1.9299 0
M  V30 31708 H 2916.44 4.53138 -4.73652 0
M  V30 31709 H 2915.96 5.11805 -3.12755 0
M  V30 31710 H 2917.64 5.31596 -3.68802 0
M  V30 31711 N 2917.77 0.940655 1.26449 0
M  V30 31712 C 2918.73 0.454417 2.2465 0
M  V30 31713 C 2919.73 -0.434195 1.54827 0
M  V30 31714 O 2920.92 -0.233447 1.72629 0
M  V30 31715 C 2918.05 -0.345133 3.39148 0
M  V30 31716 H 2919.25 1.32221 2.69179 0
M  V30 31717 H 2916.8 0.722571 1.38595 0
M  V30 31718 H 2917.54 -1.2312 3.0002 0
M  V30 31719 H 2917.32 0.292175 3.9101 0
M  V30 31720 H 2918.81 -0.675269 4.12104 0
M  V30 31721 N 2919.25 -1.40821 0.707617 0
M  V30 31722 C 2920.18 -2.33411 0.0645335 0
M  V30 31723 C 2921.16 -1.52467 -0.754179 0
M  V30 31724 O 2922.34 -1.80962 -0.704717 0
M  V30 31725 C 2919.47 -3.36386 -0.863806 0
M  V30 31726 C 2918.43 -4.27732 -0.151305 0
M  V30 31727 C 2917.75 -5.2118 -1.19482 0
M  V30 31728 C 2919.05 -5.12837 0.989697 0
M  V30 31729 H 2920.75 -2.87437 0.83788 0
M  V30 31730 H 2918.29 -1.38206 0.404371 0
M  V30 31731 H 2920.25 -4.00093 -1.32302 0
M  V30 31732 H 2918.97 -2.80737 -1.66896 0
M  V30 31733 H 2917.63 -3.65467 0.288001 0
M  V30 31734 H 2917.28 -4.6184 -1.99281 0
M  V30 31735 H 2916.98 -5.83135 -0.723021 0
M  V30 31736 H 2918.5 -5.87763 -1.6543 0
M  V30 31737 H 2919.92 -5.70043 0.610215 0
M  V30 31738 H 2918.31 -5.83795 1.38936 0
M  V30 31739 H 2919.38 -4.49288 1.82397 0
M  V30 31740 N 2920.73 -0.453223 -1.50943 0
M  V30 31741 C 2921.68 0.368428 -2.25004 0
M  V30 31742 C 2922.66 0.976692 -1.27865 0
M  V30 31743 O 2923.85 0.892201 -1.52869 0
M  V30 31744 C 2920.98 1.46008 -3.10703 0
M  V30 31745 C 2920.07 0.860433 -4.1528 0
M  V30 31746 N 2920.46 -0.00858501 -5.05799 0
M  V30 31747 C 2918.76 1.12632 -4.31544 0
M  V30 31748 C 2919.46 -0.347053 -5.80664 0
M  V30 31749 N 2918.43 0.27333 -5.42912 0
M  V30 31750 H 2922.23 -0.301297 -2.92352 0
M  V30 31751 H 2919.75 -0.266261 -1.60202 0
M  V30 31752 H 2921.75 2.06173 -3.62351 0
M  V30 31753 H 2920.41 2.13198 -2.44901 0
M  V30 31754 H 2921.42 -0.376168 -5.16532 0
M  V30 31755 H 2918.09 1.79453 -3.76965 0
M  V30 31756 H 2919.48 -1.05518 -6.63563 0
M  V30 31757 N 2922.2 1.56509 -0.185151 0
M  V30 31758 C 2923.45 1.97586 0.456899 0
M  V30 31759 C 2923.78 1.07164 1.61955 0
M  V30 31760 O 2923.06 0.12158 1.9412 0
M  V30 31761 C 2923.34 3.47974 0.926604 0
M  V30 31762 C 2923.19 4.49174 -0.237176 0
M  V30 31763 C 2924.51 4.01806 1.79554 0
M  V30 31764 H 2921.63 0.718383 0.164606 0
M  V30 31765 H 2924.27 1.88013 -0.274072 0
M  V30 31766 H 2922.42 3.56263 1.54947 0
M  V30 31767 H 2924.1 4.52933 -0.87462 0
M  V30 31768 H 2922.34 4.24561 -0.890521 0
M  V30 31769 H 2923.01 5.51838 0.133827 0
M  V30 31770 H 2925.49 3.96235 1.27033 0
M  V30 31771 H 2924.36 5.07422 2.09318 0
M  V30 31772 H 2924.62 3.4646 2.74623 0
M  V30 31773 N 2923.68 -0.0885089 1.57351 0
M  V30 31774 C 2924.64 -1.09117 2.01559 0
M  V30 31775 C 2925.64 -1.32568 0.910076 0
M  V30 31776 O 2926.83 -1.2857 1.17539 0
M  V30 31777 C 2923.97 -2.43878 2.38194 0
M  V30 31778 H 2925.16 -0.71051 2.91362 0
M  V30 31779 H 2922.71 -0.333752 1.52695 0
M  V30 31780 H 2923.45 -2.86808 1.51365 0
M  V30 31781 H 2923.23 -2.28203 3.1885 0
M  V30 31782 H 2924.72 -3.15981 2.7303 0
M  V30 31783 N 2925.16 -1.53445 -0.359498 0
M  V30 31784 C 2926.44 -1.60532 -1.11753 0
M  V30 31785 C 2926.82 -0.416624 -2.06948 0
M  V30 31786 O 2926.16 0.592589 -2.20682 0
M  V30 31787 C 2926.37 -2.95853 -1.85128 0
M  V30 31788 C 2927.72 -3.50645 -2.39444 0
M  V30 31789 O 2928.75 -2.97922 -1.95246 0
M  V30 31790 O 2927.61 -4.42829 -3.20258 0
M  V30 31791 H 2924.7 -0.648665 -0.512994 0
M  V30 31792 H 2927.25 -1.65788 -0.362272 0
M  V30 31793 H 2926.02 -3.73808 -1.15687 0
M  V30 31794 H 2925.64 -2.94115 -2.67548 0
M  V30 31795 N 2926.64 0.619637 -1.44908 0
M  V30 31796 C 2927.89 1.37623 -1.48001 0
M  V30 31797 C 2928.21 1.94641 -0.118329 0
M  V30 31798 O 2927.48 1.76459 0.850829 0
M  V30 31799 H 2926.06 0.510864 -0.545002 0
M  V30 31800 H 2928.72 0.728491 -1.80773 0
M  V30 31801 H 2927.81 2.20175 -2.212 0
M  V30 31802 N 2928.12 1.31997 0.861075 0
M  V30 31803 C 2929.05 1.22997 1.98479 0
M  V30 31804 C 2930.03 0.115198 1.69709 0
M  V30 31805 O 2931.21 0.301294 1.91849 0
M  V30 31806 C 2928.34 0.945674 3.34177 0
M  V30 31807 C 2927.3 2.02098 3.7728 0
M  V30 31808 C 2926.62 1.58921 5.10537 0
M  V30 31809 C 2927.92 3.43522 3.93433 0
M  V30 31810 H 2929.62 2.17012 2.06268 0
M  V30 31811 H 2927.16 1.04473 0.991025 0
M  V30 31812 H 2929.12 0.869279 4.12337 0
M  V30 31813 H 2927.84 -0.0301275 3.26586 0
M  V30 31814 H 2926.5 2.08742 3.01368 0
M  V30 31815 H 2926.15 0.60103 4.99396 0
M  V30 31816 H 2925.85 2.30864 5.40348 0
M  V30 31817 H 2927.37 1.52706 5.91196 0
M  V30 31818 H 2928.78 3.39503 4.61964 0
M  V30 31819 H 2927.18 4.13759 4.34653 0
M  V30 31820 H 2928.25 3.83655 2.96542 0
M  V30 31821 N 2929.59 -1.07653 1.15103 0
M  V30 31822 C 2931.01 -1.32277 0.893027 0
M  V30 31823 C 2931.21 -1.9614 -0.461667 0
M  V30 31824 O 2930.27 -2.21931 -1.20427 0
M  V30 31825 C 2931.58 -2.21686 2.03165 0
M  V30 31826 C 2933.13 -2.35143 2.06583 0
M  V30 31827 C 2933.6 -3.27899 3.1976 0
M  V30 31828 N 2935.09 -3.35479 3.19388 0
M  V30 31829 C 2935.83 -4.07302 4.03599 0
M  V30 31830 N 2935.32 -4.81767 4.97868 0
M  V30 31831 N 2937.12 -4.03212 3.91633 0
M  V30 31832 H 2929.27 -0.64585 2.02343 0
M  V30 31833 H 2931.53 -0.347195 0.882133 0
M  V30 31834 H 2931.24 -1.82016 3.00937 0
M  V30 31835 H 2931.11 -3.22195 1.96138 0
M  V30 31836 H 2933.5 -2.74067 1.09412 0
M  V30 31837 H 2933.58 -1.34349 2.17678 0
M  V30 31838 H 2933.22 -2.89694 4.1718 0
M  V30 31839 H 2933.15 -4.2864 3.05901 0
M  V30 31840 H 2935.64 -2.82398 2.51117 0
M  V30 31841 H 2935.96 -5.34057 5.58572 0
M  V30 31842 H 2934.3 -4.80794 5.01859 0
M  V30 31843 H 2937.49 -3.44148 3.17301 0
M  V30 31844 H 2937.67 -4.58922 4.57487 0
M  V30 31845 N 2931.07 -0.947348 -1.25949 0
M  V30 31846 C 2932.3 -0.61427 -1.97257 0
M  V30 31847 C 2932.71 0.816325 -1.70683 0
M  V30 31848 O 2932.05 1.55672 -0.975298 0
M  V30 31849 C 2932.12 -0.784142 -3.50844 0
M  V30 31850 C 2931.78 -2.19053 -4.0108 0
M  V30 31851 C 2932.78 -3.16656 -4.12341 0
M  V30 31852 C 2930.46 -2.51276 -4.34932 0
M  V30 31853 C 2932.46 -4.4458 -4.56758 0
M  V30 31854 C 2930.14 -3.79431 -4.79036 0
M  V30 31855 C 2931.14 -4.75896 -4.89911 0
M  V30 31856 O 2930.83 -6.01768 -5.33039 0
M  V30 31857 H 2930.56 -0.229822 -0.635734 0
M  V30 31858 H 2933.11 -1.2721 -1.61266 0
M  V30 31859 H 2931.34 -0.0691689 -3.86638 0
M  V30 31860 H 2933.03 -0.453206 -4.03362 0
M  V30 31861 H 2933.8 -2.93086 -3.86427 0
M  V30 31862 H 2929.68 -1.76923 -4.25698 0
M  V30 31863 H 2933.22 -5.19876 -4.65161 0
M  V30 31864 H 2929.12 -4.02811 -5.04395 0
M  V30 31865 H 2929.89 -6.05039 -5.51245 0
M  V30 31866 N 2932.55 1.40444 -0.715075 0
M  V30 31867 C 2933.48 2.33373 -0.0769109 0
M  V30 31868 C 2934.46 1.52865 0.746082 0
M  V30 31869 O 2935.65 1.81334 0.69511 0
M  V30 31870 C 2932.78 3.3684 0.845955 0
M  V30 31871 C 2931.73 4.27807 0.128619 0
M  V30 31872 C 2931.06 5.21806 1.16716 0
M  V30 31873 C 2932.36 5.12305 -1.01688 0
M  V30 31874 H 2934.05 2.86988 -0.853112 0
M  V30 31875 H 2931.6 1.37989 -0.411694 0
M  V30 31876 H 2933.55 4.00789 1.30178 0
M  V30 31877 H 2932.27 2.81618 1.65405 0
M  V30 31878 H 2930.93 3.65309 -0.307378 0
M  V30 31879 H 2930.58 4.6289 1.96829 0
M  V30 31880 H 2930.28 5.8351 0.692085 0
M  V30 31881 H 2931.8 5.88632 1.6231 0
M  V30 31882 H 2933.22 5.69712 -0.640437 0
M  V30 31883 H 2931.62 5.8305 -1.4203 0
M  V30 31884 H 2932.69 4.48314 -1.84777 0
M  V30 31885 N 2934.03 0.461222 1.507 0
M  V30 31886 C 2934.98 -0.35649 2.25196 0
M  V30 31887 C 2935.96 -0.969897 1.28381 0
M  V30 31888 O 2937.15 -0.884081 1.5334 0
M  V30 31889 C 2934.28 -1.44359 3.11473 0
M  V30 31890 C 2933.37 -0.838397 4.1573 0
M  V30 31891 N 2933.76 0.0354087 5.05788 0
M  V30 31892 C 2932.06 -1.10342 4.32135 0
M  V30 31893 C 2932.76 0.377842 5.80472 0
M  V30 31894 N 2931.74 -0.244534 5.4305 0
M  V30 31895 H 2935.54 0.316797 2.92188 0
M  V30 31896 H 2933.05 0.274753 1.60059 0
M  V30 31897 H 2935.05 -2.04248 3.6344 0
M  V30 31898 H 2933.71 -2.11896 2.46028 0
M  V30 31899 H 2934.72 0.403556 5.16325 0
M  V30 31900 H 2931.4 -1.77452 3.77912 0
M  V30 31901 H 2932.79 1.09036 6.62994 0
M  V30 31902 N 2935.51 -1.56408 0.193449 0
M  V30 31903 C 2936.73 -2.02358 -0.454517 0
M  V30 31904 C 2937.16 -1.07271 -1.54514 0
M  V30 31905 O 2936.51 -0.055928 -1.81214 0
M  V30 31906 C 2936.56 -3.46761 -0.989408 0
M  V30 31907 O 2935.67 -3.54787 -2.10238 0
M  V30 31908 H 2935.01 -0.655419 -0.106405 0
M  V30 31909 H 2937.54 -2.02331 0.303842 0
M  V30 31910 H 2937.55 -3.86518 -1.30643 0
M  V30 31911 H 2936.22 -4.15461 -0.19101 0
M  V30 31912 H 2934.8 -3.26903 -1.79413 0
M  V30 31913 N 2936.98 0.0801629 -1.57396 0
M  V30 31914 C 2937.95 1.08047 -2.02135 0
M  V30 31915 C 2938.95 1.32083 -0.917093 0
M  V30 31916 O 2940.14 1.27945 -1.18219 0
M  V30 31917 C 2937.27 2.42612 -2.39484 0
M  V30 31918 H 2938.46 0.695049 -2.91735 0
M  V30 31919 H 2936.02 0.32565 -1.5287 0
M  V30 31920 H 2936.75 2.86002 -1.52884 0
M  V30 31921 H 2936.54 2.26509 -3.20056 0
M  V30 31922 H 2938.03 3.14529 -2.74702 0
M  V30 31923 N 2938.46 1.53634 0.351355 0
M  V30 31924 C 2939.4 1.75878 1.45404 0
M  V30 31925 C 2940.37 0.607593 1.50821 0
M  V30 31926 O 2941.56 0.841848 1.68657 0
M  V30 31927 C 2938.68 1.85039 2.83687 0
M  V30 31928 C 2937.73 3.07128 2.9593 0
M  V30 31929 S 2938.56 4.6635 2.63207 0
M  V30 31930 C 2939.72 4.7838 4.03613 0
M  V30 31931 H 2939.95 2.69131 1.26317 0
M  V30 31932 H 2937.49 1.44403 0.546556 0
M  V30 31933 H 2939.44 1.91003 3.63357 0
M  V30 31934 H 2938.1 0.928127 3.00074 0
M  V30 31935 H 2937.3 3.1019 3.97238 0
M  V30 31936 H 2936.9 2.9935 2.24199 0
M  V30 31937 H 2939.19 4.59309 4.98038 0
M  V30 31938 H 2940.13 5.80462 4.05549 0
M  V30 31939 H 2940.54 4.06896 3.91275 0
M  V30 31940 N 2939.94 -0.611943 1.45234 0
M  V30 31941 C 2941.19 -1.36713 1.48298 0
M  V30 31942 C 2941.5 -1.95187 0.127094 0
M  V30 31943 O 2942.71 -2.71477 0.0353543 0
M  V30 31944 C 2941.16 -2.47623 2.61172 0
M  V30 31945 C 2940.77 -1.9558 4.03054 0
M  V30 31946 C 2942.52 -3.24669 2.73478 0
M  V30 31947 C 2940.42 -3.03945 5.07318 0
M  V30 31948 H 2939.35 -0.513831 0.551809 0
M  V30 31949 H 2942 -0.656329 1.71361 0
M  V30 31950 H 2940.39 -3.21368 2.31384 0
M  V30 31951 H 2941.56 -1.28573 4.42499 0
M  V30 31952 H 2939.88 -1.31291 3.9516 0
M  V30 31953 H 2942.47 -4.05488 3.48545 0
M  V30 31954 H 2942.82 -3.75394 1.79959 0
M  V30 31955 H 2943.35 -2.58022 3.02769 0
M  V30 31956 H 2940.09 -2.58143 6.0253 0
M  V30 31957 H 2939.61 -3.69533 4.72446 0
M  V30 31958 H 2941.29 -3.68401 5.31874 0
M  V30 31959 N 2941.42 -1.32452 -0.854063 0
M  V30 31960 C 2942.67 -1.224 -1.60316 0
M  V30 31961 C 2942.98 0.212629 -1.94441 0
M  V30 31962 O 2944.19 0.435019 -2.67992 0
M  V30 31963 C 2942.64 -2.14376 -2.89087 0
M  V30 31964 C 2942.25 -3.63123 -2.62384 0
M  V30 31965 C 2943.99 -2.13161 -3.671 0
M  V30 31966 C 2941.9 -4.47059 -3.87159 0
M  V30 31967 H 2940.83 -0.454555 -0.601578 0
M  V30 31968 H 2943.48 -1.57416 -0.942995 0
M  V30 31969 H 2941.86 -1.72274 -3.56564 0
M  V30 31970 H 2943.04 -4.1357 -2.03215 0
M  V30 31971 H 2941.35 -3.66475 -1.977 0
M  V30 31972 H 2943.95 -2.73108 -4.59691 0
M  V30 31973 H 2944.29 -1.12275 -4.00874 0
M  V30 31974 H 2944.83 -2.53545 -3.06528 0
M  V30 31975 H 2941.57 -5.48761 -3.58526 0
M  V30 31976 H 2941.09 -4.01362 -4.45722 0
M  V30 31977 H 2942.76 -4.60089 -4.54892 0
M  V30 31978 N 2942.9 1.07041 -1.15672 0
M  V30 31979 C 2944.13 1.83145 -0.956115 0
M  V30 31980 C 2944.54 1.82503 0.498937 0
M  V30 31981 O 2943.88 1.23722 1.35789 0
M  V30 31982 C 2943.94 3.31242 -1.39709 0
M  V30 31983 C 2943.6 3.55599 -2.87051 0
M  V30 31984 C 2944.6 3.49279 -3.85098 0
M  V30 31985 C 2942.29 3.83164 -3.24793 0
M  V30 31986 C 2944.28 3.70176 -5.18891 0
M  V30 31987 C 2941.97 4.03713 -4.58758 0
M  V30 31988 C 2942.97 3.97215 -5.55616 0
M  V30 31989 O 2942.65 4.17211 -6.87161 0
M  V30 31990 H 2942.39 0.584574 -0.339484 0
M  V30 31991 H 2944.94 1.36002 -1.53924 0
M  V30 31992 H 2943.17 3.7921 -0.757393 0
M  V30 31993 H 2944.86 3.88819 -1.16509 0
M  V30 31994 H 2945.62 3.27982 -3.57286 0
M  V30 31995 H 2941.5 3.87335 -2.49986 0
M  V30 31996 H 2945.05 3.6502 -5.9448 0
M  V30 31997 H 2940.94 4.24497 -4.86285 0
M  V30 31998 H 2941.71 4.34541 -6.93625 0
M  V30 31999 N 2944.38 0.954014 1.25445 0
M  V30 32000 C 2945.79 0.658342 1.45389 0
M  V30 32001 C 2945.99 -0.784323 1.85609 0
M  V30 32002 O 2945.05 -1.55968 1.9857 0
M  V30 32003 C 2946.36 1.63074 2.52641 0
M  V30 32004 C 2947.91 1.64185 2.66481 0
M  V30 32005 C 2948.38 2.60188 3.76917 0
M  V30 32006 N 2949.87 2.58549 3.84326 0
M  V30 32007 C 2950.61 3.29511 4.69265 0
M  V30 32008 N 2950.11 4.09944 5.58496 0
M  V30 32009 N 2951.9 3.18401 4.63225 0
M  V30 32010 H 2944.05 1.88632 0.976304 0
M  V30 32011 H 2946.31 0.811345 0.490329 0
M  V30 32012 H 2946.02 2.66118 2.29944 0
M  V30 32013 H 2945.89 1.39277 3.50545 0
M  V30 32014 H 2948.28 0.618603 2.88543 0
M  V30 32015 H 2948.36 1.92041 1.68979 0
M  V30 32016 H 2948 3.62639 3.55605 0
M  V30 32017 H 2947.93 2.29618 4.73902 0
M  V30 32018 H 2950.43 2.00156 3.2054 0
M  V30 32019 H 2950.74 4.61011 6.20233 0
M  V30 32020 H 2949.08 4.14042 5.58206 0
M  V30 32021 H 2952.27 2.55037 3.92522 0
M  V30 32022 H 2952.45 3.7397 5.29198 0
M  V30 32023 N 2945.85 -1.40063 0.722513 0
M  V30 32024 C 2947.13 -1.94657 0.191863 0
M  V30 32025 C 2947.51 -1.6602 -1.30386 0
M  V30 32026 O 2946.86 -0.981624 -2.0634 0
M  V30 32027 C 2947.07 -3.45223 0.512039 0
M  V30 32028 C 2948.42 -4.2216 0.454501 0
M  V30 32029 O 2949.44 -3.53365 0.4485 0
M  V30 32030 O 2948.3 -5.44741 0.438082 0
M  V30 32031 H 2945.39 -0.826426 0.0307966 0
M  V30 32032 H 2947.94 -1.49632 0.800519 0
M  V30 32033 H 2946.71 -3.59452 1.54628 0
M  V30 32034 H 2946.33 -3.974 -0.126227 0
M  V30 32035 N 2947.33 -0.469207 -1.50453 0
M  V30 32036 C 2948.26 0.315879 -2.31354 0
M  V30 32037 C 2949.24 0.99207 -1.38174 0
M  V30 32038 O 2950.43 0.989604 -1.67094 0
M  V30 32039 C 2947.56 1.39931 -3.17862 0
M  V30 32040 C 2946.51 0.844835 -4.19579 0
M  V30 32041 C 2945.84 2.02642 -4.94814 0
M  V30 32042 C 2947.14 -0.14259 -5.22105 0
M  V30 32043 H 2948.83 -0.359322 -2.97236 0
M  V30 32044 H 2946.38 -0.174249 -1.42942 0
M  V30 32045 H 2948.33 1.95601 -3.73254 0
M  V30 32046 H 2947.05 2.10326 -2.49861 0
M  V30 32047 H 2945.71 0.310125 -3.65286 0
M  V30 32048 H 2945.36 2.7173 -4.23287 0
M  V30 32049 H 2945.06 1.66164 -5.63616 0
M  V30 32050 H 2946.59 2.58805 -5.53039 0
M  V30 32051 H 2948 0.324865 -5.72379 0
M  V30 32052 H 2946.4 -0.421546 -5.98618 0
M  V30 32053 H 2947.47 -1.06909 -4.72968 0
M  V30 32054 N 2948.81 1.56303 -0.201741 0
M  V30 32055 C 2949.76 2.19398 0.71646 0
M  V30 32056 C 2950.73 1.14328 1.20492 0
M  V30 32057 O 2951.91 1.42606 1.2676 0
M  V30 32058 C 2949.05 2.8625 1.92757 0
M  V30 32059 C 2948.16 4.05862 1.47986 0
M  V30 32060 C 2947.3 4.60552 2.64698 0
M  V30 32061 C 2946.34 5.72508 2.16566 0
M  V30 32062 N 2945.48 6.21575 3.2648 0
M  V30 32063 H 2950.32 2.97505 0.171672 0
M  V30 32064 H 2947.85 1.46919 0.0729902 0
M  V30 32065 H 2949.81 3.23183 2.63835 0
M  V30 32066 H 2948.44 2.10695 2.44556 0
M  V30 32067 H 2947.49 3.74548 0.664704 0
M  V30 32068 H 2948.8 4.86817 1.08678 0
M  V30 32069 H 2947.96 4.99825 3.43889 0
M  V30 32070 H 2946.7 3.78719 3.07284 0
M  V30 32071 H 2945.7 5.32757 1.35831 0
M  V30 32072 H 2946.93 6.56164 1.75003 0
M  V30 32073 H 2944.87 5.42662 3.68584 0
M  V30 32074 H 2944.79 6.97599 2.91361 0
M  V30 32075 H 2946.06 6.65503 4.05865 0
M  V30 32076 N 2950.29 -0.0718147 1.57436 0
M  V30 32077 C 2951.7 -0.623647 1.75976 0
M  V30 32078 C 2952.05 -1.7791 0.827186 0
M  V30 32079 O 2951.17 -2.16397 0.0112805 0
M  V30 32080 C 2951.77 -1.1381 3.19112 0
M  V30 32081 C 2950.33 -1.6358 3.38996 0
M  V30 32082 C 2949.48 -0.555213 2.71685 0
M  V30 32083 H 2952.43 0.154356 1.57948 0
M  V30 32084 H 2952.45 -2.00691 3.2327 0
M  V30 32085 H 2951.96 -0.29693 3.86962 0
M  V30 32086 H 2950.06 -2.50022 2.7626 0
M  V30 32087 H 2950.17 -1.71276 4.47439 0
M  V30 32088 H 2948.54 -1.00025 2.34237 0
M  V30 32089 H 2949.32 0.275772 3.42191 0
M  V30 32090 N 2951.77 -1.53818 -0.343203 0
M  V30 32091 C 2952.72 -1.78211 -1.42214 0
M  V30 32092 C 2953.7 -0.63733 -1.47739 0
M  V30 32093 O 2954.89 -0.896732 -1.52603 0
M  V30 32094 C 2952.02 -1.99545 -2.79351 0
M  V30 32095 C 2951.11 -3.20088 -2.78216 0
M  V30 32096 N 2951.5 -4.41551 -2.46711 0
M  V30 32097 C 2949.8 -3.21264 -3.09362 0
M  V30 32098 C 2950.5 -5.23403 -2.53819 0
M  V30 32099 N 2949.47 -4.60126 -2.89456 0
M  V30 32100 H 2953.27 -2.69714 -1.16754 0
M  V30 32101 H 2950.79 -1.52747 -0.551565 0
M  V30 32102 H 2952.79 -2.15154 -3.57091 0
M  V30 32103 H 2951.45 -1.09283 -3.05757 0
M  V30 32104 H 2952.46 -4.68895 -2.19904 0
M  V30 32105 H 2949.13 -2.40972 -3.40938 0
M  V30 32106 H 2950.52 -6.30348 -2.32618 0
M  V30 32107 N 2953.24 0.604233 -1.45557 0
M  V30 32108 C 2954.19 1.73587 -1.54823 0
M  V30 32109 C 2955.19 1.64162 -0.417995 0
M  V30 32110 O 2956.39 1.69915 -0.594037 0
M  V30 32111 H 2952.77 0.573547 -0.486362 0
M  V30 32112 H 2954.74 1.62899 -2.50013 0
M  V30 32113 C 2953.49 3.11969 -1.53527 0
M  V30 32114 H 2952.81 3.19882 -2.39824 0
M  V30 32115 H 2954.25 3.9097 -1.64068 0
M  V30 32116 C 2952.71 3.35893 -0.26025 0
M  V30 32117 O 2953.24 3.96266 0.658512 0
M  V30 32118 N 2951.44 2.90187 -0.15489 0
M  V30 32119 H 2950.99 2.41239 -0.90342 0
M  V30 32120 H 2950.95 3.06568 0.697384 0
M  V30 32121 N 2954.72 1.32903 0.847027 0
M  V30 32122 C 2955.97 1.24081 1.60411 0
M  V30 32123 C 2956.3 -0.195071 1.93218 0
M  V30 32124 O 2955.58 -1.13425 1.58003 0
M  V30 32125 C 2955.86 2.10805 2.91947 0
M  V30 32126 C 2955.71 3.6281 2.65874 0
M  V30 32127 C 2957.03 1.97501 3.93295 0
M  V30 32128 H 2954.15 0.452089 0.582052 0
M  V30 32129 H 2956.79 1.62924 0.977534 0
M  V30 32130 H 2954.94 1.77808 3.45422 0
M  V30 32131 H 2956.61 4.06058 2.18894 0
M  V30 32132 H 2954.86 3.85096 1.99709 0
M  V30 32133 H 2955.53 4.18826 3.59567 0
M  V30 32134 H 2958 2.26423 3.49101 0
M  V30 32135 H 2956.88 2.60446 4.83176 0
M  V30 32136 H 2957.14 0.944858 4.31885 0
M  V30 32137 N 2956.2 -1.06426 1.16238 0
M  V30 32138 C 2957.13 -2.15838 0.890845 0
M  V30 32139 C 2958.11 -1.69324 -0.162303 0
M  V30 32140 O 2959.3 -1.94194 -0.014685 0
M  V30 32141 C 2956.43 -3.45107 0.389675 0
M  V30 32142 C 2955.38 -4.05122 1.38058 0
M  V30 32143 C 2954.71 -5.29584 0.737867 0
M  V30 32144 C 2956.01 -4.44058 2.74973 0
M  V30 32145 H 2957.7 -2.38811 1.80582 0
M  V30 32146 H 2955.25 -1.14772 0.869677 0
M  V30 32147 H 2957.2 -4.20984 0.187201 0
M  V30 32148 H 2955.92 -3.21749 -0.560794 0
M  V30 32149 H 2954.58 -3.313 1.56958 0
M  V30 32150 H 2954.23 -5.02523 -0.219047 0
M  V30 32151 H 2953.93 -5.70697 1.39924 0
M  V30 32152 H 2955.45 -6.08159 0.545381 0
M  V30 32153 H 2956.87 -5.11022 2.59864 0
M  V30 32154 H 2955.26 -4.9615 3.37572 0
M  V30 32155 H 2956.33 -3.54982 3.30327 0
M  V30 32156 N 2957.68 -0.960653 -1.24937 0
M  V30 32157 C 2958.61 -0.503855 -2.27999 0
M  V30 32158 C 2959.59 0.4529 -1.6396 0
M  V30 32159 O 2960.77 0.350552 -1.9101 0
M  V30 32160 C 2957.9 0.213474 -3.46643 0
M  V30 32161 C 2956.86 -0.658609 -4.22902 0
M  V30 32162 C 2956.18 0.189808 -5.34363 0
M  V30 32163 C 2957.48 -1.93972 -4.84946 0
M  V30 32164 H 2959.18 -1.36526 -2.6646 0
M  V30 32165 H 2956.72 -0.65792 -1.28091 0
M  V30 32166 H 2958.68 0.544212 -4.17871 0
M  V30 32167 H 2957.4 1.10918 -3.07189 0
M  V30 32168 H 2956.06 -0.972517 -3.53465 0
M  V30 32169 H 2955.71 1.08545 -4.91149 0
M  V30 32170 H 2955.41 -0.390434 -5.86301 0
M  V30 32171 H 2956.93 0.515377 -6.08421 0
M  V30 32172 H 2958.35 -1.67501 -5.48285 0
M  V30 32173 H 2956.74 -2.4661 -5.47086 0
M  V30 32174 H 2957.81 -2.63907 -4.06794 0
M  V30 32175 N 2959.16 1.39677 -0.729931 0
M  V30 32176 C 2960.4 2.00615 -0.275657 0
M  V30 32177 C 2960.73 1.57909 1.13557 0
M  V30 32178 O 2959.99 0.79682 1.78744 0
M  V30 32179 C 2960.29 3.55968 -0.319627 0
M  V30 32180 C 2959.95 4.18307 -1.68316 0
M  V30 32181 C 2958.61 4.35048 -2.05637 0
M  V30 32182 C 2960.97 4.5294 -2.57865 0
M  V30 32183 C 2958.29 4.8371 -3.32026 0
M  V30 32184 C 2960.65 5.03008 -3.83621 0
M  V30 32185 C 2959.31 5.17957 -4.21042 0
M  V30 32186 H 2958.58 0.734102 -0.10087 0
M  V30 32187 H 2961.23 1.67079 -0.93578 0
M  V30 32188 H 2959.53 3.89498 0.424072 0
M  V30 32189 H 2961.23 4.00969 0.04992 0
M  V30 32190 H 2957.82 4.05675 -1.38297 0
M  V30 32191 H 2962 4.3963 -2.30303 0
M  V30 32192 H 2957.26 4.93469 -3.60969 0
M  V30 32193 H 2961.43 5.28781 -4.53171 0
M  V30 32194 H 2959.06 5.55426 -5.19044 0
M  V30 32195 N 2960.63 0.47718 1.50202 0
M  V30 32196 C 2961.86 -0.0732126 2.0677 0
M  V30 32197 C 2962.28 -1.32966 1.34035 0
M  V30 32198 O 2961.63 -1.77802 0.411444 0
M  V30 32199 C 2961.69 -0.355117 3.59752 0
M  V30 32200 O 2961.41 0.8515 4.29745 0
M  V30 32201 C 2962.91 -0.951801 4.32961 0
M  V30 32202 H 2960.13 0.00980103 0.670928 0
M  V30 32203 H 2962.67 0.66771 1.93292 0
M  V30 32204 H 2960.83 -1.04598 3.73012 0
M  V30 32205 H 2961.24 0.599799 5.21059 0
M  V30 32206 H 2962.71 -1.09878 5.40954 0
M  V30 32207 H 2963.19 -1.94349 3.93859 0
M  V30 32208 H 2963.8 -0.299134 4.24247 0
M  V30 32209 N 2962.11 -1.56194 0.210027 0
M  V30 32210 C 2963.04 -2.2277 -0.699707 0
M  V30 32211 C 2964.02 -1.19562 -1.20991 0
M  V30 32212 O 2965.21 -1.48114 -1.25602 0
M  V30 32213 C 2962.34 -2.89867 -1.91297 0
M  V30 32214 C 2961.29 -3.99447 -1.53708 0
M  V30 32215 C 2960.62 -4.53782 -2.82818 0
M  V30 32216 C 2961.92 -5.17092 -0.735746 0
M  V30 32217 H 2963.61 -2.9905 -0.144663 0
M  V30 32218 H 2961.16 -1.43839 -0.0681392 0
M  V30 32219 H 2963.11 -3.35129 -2.55474 0
M  V30 32220 H 2961.84 -2.11015 -2.49279 0
M  V30 32221 H 2960.49 -3.54899 -0.918829 0
M  V30 32222 H 2960.14 -3.71675 -3.3892 0
M  V30 32223 H 2959.84 -5.27731 -2.58406 0
M  V30 32224 H 2961.37 -5.01755 -3.47957 0
M  V30 32225 H 2962.78 -5.58806 -1.28095 0
M  V30 32226 H 2961.18 -5.97201 -0.589167 0
M  V30 32227 H 2962.25 -4.84202 0.260089 0
M  V30 32228 N 2963.59 0.0634645 -1.57472 0
M  V30 32229 C 2964.82 0.772611 -1.9161 0
M  V30 32230 C 2965.23 1.71218 -0.805049 0
M  V30 32231 O 2964.57 1.82256 0.229909 0
M  V30 32232 C 2964.63 1.61298 -3.21284 0
M  V30 32233 C 2964.3 0.841894 -4.49178 0
M  V30 32234 C 2965.29 0.157403 -5.19662 0
M  V30 32235 C 2962.98 0.806603 -4.95781 0
M  V30 32236 C 2964.97 -0.552059 -6.35005 0
M  V30 32237 C 2962.66 0.0933738 -6.11029 0
M  V30 32238 C 2963.66 -0.584749 -6.80492 0
M  V30 32239 O 2963.35 -1.28647 -7.9354 0
M  V30 32240 H 2963.08 0.224341 -0.637689 0
M  V30 32241 H 2965.63 0.0354918 -2.05369 0
M  V30 32242 H 2963.86 2.3931 -3.03756 0
M  V30 32243 H 2965.55 2.20156 -3.41007 0
M  V30 32244 H 2966.32 0.175921 -4.84681 0
M  V30 32245 H 2962.2 1.32389 -4.41581 0
M  V30 32246 H 2965.74 -1.08192 -6.89159 0
M  V30 32247 H 2961.64 0.0728123 -6.45459 0
M  V30 32248 H 2962.41 -1.1966 -8.09706 0
M  V30 32249 N 2965.07 1.53998 0.33504 0
M  V30 32250 C 2966.48 1.63012 0.910162 0
M  V30 32251 C 2966.83 0.516843 1.8927 0
M  V30 32252 O 2965.96 -0.352085 2.13517 0
M  V30 32253 C 2966.55 2.95483 1.65756 0
M  V30 32254 C 2965.11 3.06732 2.18157 0
M  V30 32255 C 2964.26 2.58512 1.00334 0
M  V30 32256 H 2967.21 1.58298 0.112937 0
M  V30 32257 H 2967.23 2.85 2.52102 0
M  V30 32258 H 2966.74 3.76489 0.942204 0
M  V30 32259 H 2964.84 2.30377 2.92843 0
M  V30 32260 H 2964.95 4.12344 2.43945 0
M  V30 32261 H 2963.32 2.14126 1.37921 0
M  V30 32262 H 2964.1 3.41965 0.30248 0
M  V30 32263 N 2966.55 -0.596505 1.45875 0
M  V30 32264 C 2967.49 -1.72764 1.55742 0
M  V30 32265 C 2968.49 -1.63938 0.426695 0
M  V30 32266 O 2969.69 -1.69598 0.60304 0
M  V30 32267 H 2966.07 -0.57096 0.489397 0
M  V30 32268 H 2968.04 -1.6157 2.50874 0
M  V30 32269 C 2966.79 -3.11151 1.55179 0
M  V30 32270 H 2966.11 -3.18606 2.41517 0
M  V30 32271 H 2967.55 -3.90094 1.66139 0
M  V30 32272 C 2966.01 -3.35751 0.27806 0
M  V30 32273 O 2966.54 -3.96609 -0.637488 0
M  V30 32274 N 2964.75 -2.90101 0.170278 0
M  V30 32275 H 2964.29 -2.40756 0.916201 0
M  V30 32276 H 2964.25 -3.06934 -0.681116 0
M  V30 32277 N 2968.02 -1.3335 -0.839967 0
M  V30 32278 C 2968.99 -1.2343 -1.93126 0
M  V30 32279 C 2969.99 -0.153627 -1.60064 0
M  V30 32280 O 2971.18 -0.405079 -1.69425 0
M  V30 32281 C 2968.31 -0.901679 -3.28759 0
M  V30 32282 H 2969.5 -2.2043 -2.03348 0
M  V30 32283 H 2967.06 -1.17393 -1.03192 0
M  V30 32284 H 2967.79 0.0658768 -3.24233 0
M  V30 32285 H 2967.58 -1.68317 -3.54135 0
M  V30 32286 H 2969.07 -0.856985 -4.08712 0
M  V30 32287 N 2969.5 1.05808 -1.16801 0
M  V30 32288 C 2970.47 2.11574 -0.881433 0
M  V30 32289 C 2971.47 1.60308 0.125711 0
M  V30 32290 O 2972.66 1.73879 -0.105746 0
M  V30 32291 C 2969.79 3.39403 -0.319097 0
M  V30 32292 H 2970.98 2.38429 -1.81911 0
M  V30 32293 H 2968.53 1.21952 -0.977619 0
M  V30 32294 H 2969.27 3.182 0.626026 0
M  V30 32295 H 2969.05 3.77922 -1.04488 0
M  V30 32296 H 2970.54 4.17376 -0.136704 0
M  V30 32297 N 2970.98 0.967265 1.24426 0
M  V30 32298 C 2972.23 0.624512 1.91788 0
M  V30 32299 C 2972.54 -0.844098 1.76449 0
M  V30 32300 O 2973.75 -1.29735 2.38497 0
M  V30 32301 C 2972.2 1.06632 3.43741 0
M  V30 32302 C 2971.81 2.55835 3.67767 0
M  V30 32303 C 2973.56 0.796694 4.16957 0
M  V30 32304 C 2971.46 2.93751 5.13288 0
M  V30 32305 H 2970.39 0.229869 0.718106 0
M  V30 32306 H 2973.04 1.17341 1.41079 0
M  V30 32307 H 2971.43 0.445732 3.93483 0
M  V30 32308 H 2972.6 3.2302 3.28625 0
M  V30 32309 H 2970.92 2.80404 3.07836 0
M  V30 32310 H 2973.51 1.05598 5.24169 0
M  V30 32311 H 2973.86 -0.26709 4.15442 0
M  V30 32312 H 2974.39 1.37823 3.73162 0
M  V30 32313 H 2971.13 3.99199 5.19924 0
M  V30 32314 H 2970.65 2.3125 5.53429 0
M  V30 32315 H 2972.33 2.83633 5.81516 0
M  V30 32316 N 2972.46 -1.39288 0.737328 0
M  V30 32317 C 2973.71 -1.99702 0.283164 0
M  V30 32318 C 2974.02 -1.59178 -1.13674 0
M  V30 32319 O 2975.23 -2.12445 -1.69054 0
M  V30 32320 C 2973.68 -3.57008 0.455324 0
M  V30 32321 C 2973.29 -4.06494 1.88326 0
M  V30 32322 C 2975.04 -4.24453 0.0630532 0
M  V30 32323 C 2972.94 -5.56381 2.00485 0
M  V30 32324 H 2971.87 -0.747053 0.102119 0
M  V30 32325 H 2974.52 -1.59258 0.911543 0
M  V30 32326 H 2972.91 -3.9526 -0.241987 0
M  V30 32327 H 2974.08 -3.79571 2.61272 0
M  V30 32328 H 2972.39 -3.51719 2.22896 0
M  V30 32329 H 2974.99 -5.34535 0.132881 0
M  V30 32330 H 2975.33 -4.04551 -0.982057 0
M  V30 32331 H 2975.87 -3.91383 0.711608 0
M  V30 32332 H 2972.61 -5.81166 3.03193 0
M  V30 32333 H 2972.13 -5.851 1.31979 0
M  V30 32334 H 2973.81 -6.21829 1.78711 0
M  V30 32335 N 2973.94 -0.485139 -1.49947 0
M  V30 32336 C 2974.9 0.290506 -2.27351 0
M  V30 32337 C 2975.9 0.908064 -1.32706 0
M  V30 32338 O 2977.09 0.775058 -1.56008 0
M  V30 32339 C 2974.22 1.41519 -3.10137 0
M  V30 32340 H 2975.42 -0.388506 -2.97373 0
M  V30 32341 H 2972.97 -0.239613 -1.54452 0
M  V30 32342 H 2973.7 2.12883 -2.44645 0
M  V30 32343 H 2973.49 0.978007 -3.79707 0
M  V30 32344 H 2974.98 1.96198 -3.68641 0
M  V30 32345 N 2975.42 1.56081 -0.218307 0
M  V30 32346 C 2976.36 2.20146 0.69315 0
M  V30 32347 C 2977.33 1.156 1.19272 0
M  V30 32348 O 2978.52 1.43942 1.25241 0
M  V30 32349 C 2975.66 2.88278 1.8971 0
M  V30 32350 C 2974.77 4.07409 1.43673 0
M  V30 32351 C 2973.91 4.63334 2.59799 0
M  V30 32352 C 2972.94 5.74773 2.10482 0
M  V30 32353 N 2972.08 6.25003 3.19869 0
M  V30 32354 H 2976.92 2.9767 0.140108 0
M  V30 32355 H 2974.46 1.46988 0.0574034 0
M  V30 32356 H 2976.42 3.25963 2.60392 0
M  V30 32357 H 2975.05 2.13277 2.42307 0
M  V30 32358 H 2974.1 3.75231 0.624941 0
M  V30 32359 H 2975.41 4.87942 1.03508 0
M  V30 32360 H 2974.56 5.03444 3.38569 0
M  V30 32361 H 2973.3 3.81957 3.0325 0
M  V30 32362 H 2972.31 5.34168 1.30173 0
M  V30 32363 H 2973.53 6.57983 1.68034 0
M  V30 32364 H 2971.48 5.46541 3.62808 0
M  V30 32365 H 2971.4 7.0065 2.83946 0
M  V30 32366 H 2972.66 6.6977 3.98784 0
M  V30 32367 N 2976.89 -0.0551124 1.57504 0
M  V30 32368 C 2978.14 -0.749976 1.87238 0
M  V30 32369 C 2978.46 -1.7789 0.8133 0
M  V30 32370 O 2979.66 -2.52451 0.999025 0
M  V30 32371 C 2978.12 -1.38485 3.3219 0
M  V30 32372 C 2977.73 -0.393629 4.46267 0
M  V30 32373 C 2979.47 -2.0611 3.71105 0
M  V30 32374 C 2977.38 -1.03536 5.82266 0
M  V30 32375 H 2976.31 -0.283854 0.698529 0
M  V30 32376 H 2978.96 -0.00362772 1.835 0
M  V30 32377 H 2977.34 -2.18003 3.30592 0
M  V30 32378 H 2978.51 0.372946 4.59288 0
M  V30 32379 H 2976.83 0.179093 4.16015 0
M  V30 32380 H 2979.43 -2.54929 4.70016 0
M  V30 32381 H 2979.77 -2.86791 3.01756 0
M  V30 32382 H 2980.3 -1.33402 3.74765 0
M  V30 32383 H 2977.04 -0.268529 6.5495 0
M  V30 32384 H 2976.56 -1.7724 5.73015 0
M  V30 32385 H 2978.24 -1.55036 6.2815 0
M  V30 32386 N 2978.37 -1.54173 -0.326869 0
M  V30 32387 C 2979.33 -1.82612 -1.38512 0
M  V30 32388 C 2980.33 -0.697796 -1.4487 0
M  V30 32389 O 2981.52 -0.966104 -1.44955 0
M  V30 32390 C 2978.66 -1.98318 -2.77278 0
M  V30 32391 H 2979.85 -2.77161 -1.14551 0
M  V30 32392 H 2977.4 -1.4584 -0.562174 0
M  V30 32393 H 2978.14 -1.05969 -3.06498 0
M  V30 32394 H 2977.92 -2.8042 -2.74056 0
M  V30 32395 H 2979.41 -2.21779 -3.53841 0
M  V30 32396 N 2979.85 0.58876 -1.4619 0
M  V30 32397 C 2981.13 1.34876 -1.41661 0
M  V30 32398 C 2981.51 2.10877 -0.0969284 0
M  V30 32399 O 2980.85 2.09098 0.921431 0
M  V30 32400 C 2981.06 2.27983 -2.64244 0
M  V30 32401 C 2982.41 2.90003 -3.10135 0
M  V30 32402 O 2983.44 2.38298 -2.6475 0
M  V30 32403 O 2982.3 3.83901 -3.8895 0
M  V30 32404 H 2979.39 0.605708 -0.563069 0
M  V30 32405 H 2981.94 0.610281 -1.58347 0
M  V30 32406 H 2980.71 1.71211 -3.51856 0
M  V30 32407 H 2980.33 3.0918 -2.49987 0
M  V30 32408 N 2981.33 1.33794 0.832883 0
M  V30 32409 C 2982.56 1.28456 1.61811 0
M  V30 32410 C 2982.97 -0.145562 1.88639 0
M  V30 32411 O 2982.31 -1.10001 1.47124 0
M  V30 32412 C 2982.37 1.99709 2.98925 0
M  V30 32413 C 2982.03 3.49 2.95039 0
M  V30 32414 C 2983.03 4.44093 2.70329 0
M  V30 32415 C 2980.72 3.91266 3.14986 0
M  V30 32416 C 2982.71 5.79426 2.65602 0
M  V30 32417 C 2980.4 5.26702 3.09884 0
M  V30 32418 C 2981.4 6.20593 2.85224 0
M  V30 32419 O 2981.08 7.53548 2.80037 0
M  V30 32420 H 2980.82 0.443702 0.510005 0
M  V30 32421 H 2983.37 1.76824 1.04511 0
M  V30 32422 H 2981.6 1.45941 3.58103 0
M  V30 32423 H 2983.29 1.87792 3.59846 0
M  V30 32424 H 2984.05 4.12761 2.54663 0
M  V30 32425 H 2979.93 3.1859 3.33199 0
M  V30 32426 H 2983.48 6.52683 2.46274 0
M  V30 32427 H 2979.37 5.57656 3.251 0
M  V30 32428 H 2980.14 7.63167 2.95836 0
M  V30 32429 N 2982.81 -1.05187 1.1736 0
M  V30 32430 C 2984.05 -1.77837 0.960118 0
M  V30 32431 C 2984.37 -1.88144 -0.512521 0
M  V30 32432 O 2983.64 -1.39824 -1.37208 0
M  V30 32433 H 2982.22 -0.658735 0.352246 0
M  V30 32434 H 2984.89 -1.27006 1.47836 0
M  V30 32435 H 2983.98 -2.79513 1.38848 0
M  V30 32436 N 2984.28 -0.97385 -1.23911 0
M  V30 32437 C 2985.53 -0.634674 -1.91454 0
M  V30 32438 C 2985.85 0.834728 -1.76894 0
M  V30 32439 O 2987.05 1.28469 -2.39182 0
M  V30 32440 C 2985.51 -1.08453 -3.4317 0
M  V30 32441 C 2985.12 -2.57782 -3.66405 0
M  V30 32442 C 2986.86 -0.818795 -4.16529 0
M  V30 32443 C 2984.77 -2.96469 -5.11723 0
M  V30 32444 H 2983.7 -0.233674 -0.716877 0
M  V30 32445 H 2986.35 -1.18088 -1.40455 0
M  V30 32446 H 2984.73 -0.466594 -3.93242 0
M  V30 32447 H 2985.9 -3.24759 -3.26907 0
M  V30 32448 H 2984.22 -2.82032 -3.06344 0
M  V30 32449 H 2986.82 -1.08377 -5.23602 0
M  V30 32450 H 2987.16 0.245055 -4.15578 0
M  V30 32451 H 2987.69 -1.398 -3.72426 0
M  V30 32452 H 2984.43 -4.0195 -5.17799 0
M  V30 32453 H 2983.95 -2.34181 -5.52195 0
M  V30 32454 H 2985.63 -2.86713 -5.80004 0
M  V30 32455 N 2985.76 1.38895 -0.744705 0
M  V30 32456 C 2986.72 2.28888 -0.11949 0
M  V30 32457 C 2987.72 1.46769 0.656916 0
M  V30 32458 O 2988.91 1.67327 0.484496 0
M  V30 32459 C 2986.05 3.304 0.839577 0
M  V30 32460 H 2987.24 2.85682 -0.912464 0
M  V30 32461 H 2984.79 1.47706 -0.511145 0
M  V30 32462 H 2985.53 2.7868 1.65855 0
M  V30 32463 H 2985.31 3.9106 0.285364 0
M  V30 32464 H 2986.8 3.97715 1.2733 0
M  V30 32465 N 2987.24 0.493084 1.49688 0
M  V30 32466 C 2988.17 -0.326155 2.26868 0
M  V30 32467 C 2989.19 -0.937674 1.33085 0
M  V30 32468 O 2990.37 -0.822354 1.58429 0
M  V30 32469 C 2987.47 -1.47345 3.05193 0
M  V30 32470 C 2986.65 -0.970692 4.26493 0
M  V30 32471 C 2985.71 -1.99464 4.8693 0
M  V30 32472 O 2984.73 -1.56638 5.47223 0
M  V30 32473 N 2985.93 -3.32448 4.75877 0
M  V30 32474 H 2988.7 0.335599 2.97815 0
M  V30 32475 H 2986.26 0.325157 1.58601 0
M  V30 32476 H 2988.25 -2.15583 3.425 0
M  V30 32477 H 2986.82 -2.0395 2.36904 0
M  V30 32478 H 2986.04 -0.11346 3.94037 0
M  V30 32479 H 2987.33 -0.613068 5.05093 0
M  V30 32480 H 2986.73 -3.69936 4.27976 0
M  V30 32481 H 2985.29 -3.96422 5.1739 0
M  V30 32482 N 2988.72 -1.55963 0.226582 0
M  V30 32483 C 2989.95 -2.02534 -0.407879 0
M  V30 32484 C 2990.36 -1.10557 -1.53538 0
M  V30 32485 O 2989.7 -0.108442 -1.8338 0
M  V30 32486 C 2989.76 -3.45427 -0.996021 0
M  V30 32487 C 2989.43 -4.57 -0.00333619 0
M  V30 32488 C 2990.42 -5.13726 0.798872 0
M  V30 32489 C 2988.11 -5.02164 0.116875 0
M  V30 32490 C 2990.1 -6.14091 1.70795 0
M  V30 32491 C 2987.79 -6.02366 1.02948 0
M  V30 32492 C 2988.79 -6.58206 1.82355 0
M  V30 32493 O 2988.47 -7.56457 2.72081 0
M  V30 32494 H 2988.21 -0.668028 -0.103513 0
M  V30 32495 H 2990.76 -2.02533 0.341973 0
M  V30 32496 H 2988.99 -3.42512 -1.79506 0
M  V30 32497 H 2990.68 -3.75616 -1.53842 0
M  V30 32498 H 2991.45 -4.79679 0.716477 0
M  V30 32499 H 2987.32 -4.58377 -0.491092 0
M  V30 32500 H 2990.87 -6.57603 2.32818 0
M  V30 32501 H 2986.77 -6.35834 1.11287 0
M  V30 32502 H 2987.53 -7.73998 2.66212 0
M  V30 32503 N 2990.2 0.0467589 -1.57531 0
M  V30 32504 C 2991.44 0.746138 -1.90295 0
M  V30 32505 C 2991.8 1.73456 -0.823224 0
M  V30 32506 O 2993 2.48089 -1.03467 0
M  V30 32507 C 2991.27 1.41372 -3.28251 0
M  V30 32508 S 2992.83 2.1447 -3.82816 0
M  V30 32509 H 2989.65 0.247586 -0.6665 0
M  V30 32510 H 2992.25 0.00131707 -1.955 0
M  V30 32511 H 2990.96 0.680866 -4.04713 0
M  V30 32512 H 2990.49 2.19746 -3.26306 0
M  V30 32513 H 2992.5 3.41365 -3.60117 0
M  V30 32514 N 2991.67 1.54344 0.318688 0
M  V30 32515 C 2992.91 1.7451 1.06422 0
M  V30 32516 C 2993.28 0.510605 1.85086 0
M  V30 32517 O 2994.48 0.589693 2.62252 0
M  V30 32518 C 2992.75 2.98831 1.96048 0
M  V30 32519 S 2994.31 3.39921 2.77487 0
M  V30 32520 H 2991.13 0.613593 0.359199 0
M  V30 32521 H 2993.73 1.92527 0.339645 0
M  V30 32522 H 2992.43 3.86822 1.37102 0
M  V30 32523 H 2991.96 2.83351 2.72903 0
M  V30 32524 H 2993.98 2.95603 3.98539 0
M  V30 32525 N 2993.15 -0.580999 1.465 0
M  V30 32526 C 2994.57 -0.90454 1.31492 0
M  V30 32527 C 2994.77 -1.99437 0.287633 0
M  V30 32528 O 2993.82 -2.506 -0.309203 0
M  V30 32529 C 2995.14 -1.32028 2.70165 0
M  V30 32530 C 2996.69 -1.43303 2.78268 0
M  V30 32531 C 2997.16 -1.88242 4.17527 0
M  V30 32532 N 2998.65 -1.95433 4.19953 0
M  V30 32533 C 2999.39 -2.31483 5.24598 0
M  V30 32534 N 2998.88 -2.66314 6.39569 0
M  V30 32535 N 3000.68 -2.32053 5.11965 0
M  V30 32536 H 2992.83 0.138893 2.11945 0
M  V30 32537 H 2995.09 -0.000531864 0.948 0
M  V30 32538 H 2994.8 -0.593493 3.46656 0
M  V30 32539 H 2994.67 -2.28144 3.00383 0
M  V30 32540 H 2997.06 -2.15068 2.02064 0
M  V30 32541 H 2997.14 -0.454336 2.51733 0
M  V30 32542 H 2996.78 -1.17056 4.94227 0
M  V30 32543 H 2996.71 -2.87073 4.41471 0
M  V30 32544 H 2999.2 -1.70998 3.36999 0
M  V30 32545 H 2999.52 -2.92781 7.15192 0
M  V30 32546 H 2997.86 -2.63949 6.42928 0
M  V30 32547 H 3001.05 -2.04265 4.21181 0
M  V30 32548 H 3001.22 -2.5982 5.93631 0
M  V30 32549 N 2994.63 -1.34234 -0.825776 0
M  V30 32550 C 2995.56 -1.19917 -1.94152 0
M  V30 32551 C 2996.54 -0.0914818 -1.62342 0
M  V30 32552 O 2997.73 -0.256115 -1.86752 0
M  V30 32553 C 2994.85 -0.842195 -3.28062 0
M  V30 32554 C 2993.9 -1.95924 -3.78835 0
M  V30 32555 S 2994.73 -3.57225 -3.98937 0
M  V30 32556 C 2995.89 -3.23563 -5.35778 0
M  V30 32557 H 2996.12 -2.14363 -2.05999 0
M  V30 32558 H 2993.65 -1.19227 -0.981032 0
M  V30 32559 H 2995.61 -0.643023 -4.05432 0
M  V30 32560 H 2994.27 0.0838811 -3.13988 0
M  V30 32561 H 2993.47 -1.66314 -4.75768 0
M  V30 32562 H 2993.07 -2.11575 -3.08403 0
M  V30 32563 H 2995.36 -2.752 -6.19089 0
M  V30 32564 H 2996.3 -4.19625 -5.70369 0
M  V30 32565 H 2996.71 -2.59819 -5.01153 0
M  V30 32566 N 2996.11 1.04563 -1.17917 0
M  V30 32567 C 2997.36 1.77326 -0.969536 0
M  V30 32568 C 2997.68 1.88413 0.502536 0
M  V30 32569 O 2996.95 1.4055 1.36465 0
M  V30 32570 H 2995.53 0.656858 -0.355734 0
M  V30 32571 H 2998.19 1.2622 -1.48508 0
M  V30 32572 H 2997.29 2.78773 -1.40329 0
M  V30 32573 N 2997.59 0.980408 1.23393 0
M  V30 32574 C 2998.84 0.644818 1.91115 0
M  V30 32575 C 2999.15 -0.825335 1.77335 0
M  V30 32576 O 3000.35 -1.27199 2.3986 0
M  V30 32577 C 2998.81 1.10272 3.4259 0
M  V30 32578 C 2998.42 2.59722 3.65032 0
M  V30 32579 C 3000.16 0.840873 4.16088 0
M  V30 32580 C 2998.07 2.99179 5.10143 0
M  V30 32581 H 2997 0.237473 0.715628 0
M  V30 32582 H 2999.65 1.18831 1.39827 0
M  V30 32583 H 2998.03 0.487442 3.92989 0
M  V30 32584 H 2999.21 3.26488 3.2518 0
M  V30 32585 H 2997.52 2.83653 3.04844 0
M  V30 32586 H 3000.12 1.11152 5.23019 0
M  V30 32587 H 3000.46 -0.223012 4.15702 0
M  V30 32588 H 3000.99 1.41773 3.71679 0
M  V30 32589 H 2997.73 4.04691 5.1566 0
M  V30 32590 H 2997.25 2.37106 5.50945 0
M  V30 32591 H 2998.93 2.89785 5.78475 0
M  V30 32592 N 2999.06 -1.38498 0.75206 0
M  V30 32593 C 3000.01 -2.3047 0.123328 0
M  V30 32594 C 3000.98 -1.50099 -0.711299 0
M  V30 32595 O 3002.17 -1.78734 -0.667743 0
M  V30 32596 C 2999.31 -3.36514 -0.765026 0
M  V30 32597 C 2998.42 -4.31918 0.0840645 0
M  V30 32598 C 2997.55 -5.25032 -0.807151 0
M  V30 32599 C 2996.59 -6.12083 0.0456659 0
M  V30 32600 N 2995.73 -6.975 -0.802424 0
M  V30 32601 H 3000.57 -2.83662 0.913219 0
M  V30 32602 H 2998.11 -1.39657 0.461974 0
M  V30 32603 H 3000.07 -3.96602 -1.29469 0
M  V30 32604 H 2998.7 -2.84735 -1.52072 0
M  V30 32605 H 2997.75 -3.73304 0.731342 0
M  V30 32606 H 2999.06 -4.93239 0.742737 0
M  V30 32607 H 2998.21 -5.9023 -1.40404 0
M  V30 32608 H 2996.95 -4.64074 -1.49956 0
M  V30 32609 H 2995.96 -5.45882 0.655233 0
M  V30 32610 H 2997.18 -6.7511 0.735113 0
M  V30 32611 H 2995.13 -6.39091 -1.47981 0
M  V30 32612 H 2995.05 -7.55734 -0.200614 0
M  V30 32613 H 2996.31 -7.67109 -1.38433 0
M  V30 32614 N 3000.54 -0.501015 -1.49424 0
M  V30 32615 C 3001.77 0.0403079 -2.06861 0
M  V30 32616 C 3002.19 1.30817 -1.36134 0
M  V30 32617 O 3001.54 1.77124 -0.439678 0
M  V30 32618 C 3001.59 0.297838 -3.60271 0
M  V30 32619 O 3001.31 -0.919761 -4.28336 0
M  V30 32620 C 3002.82 0.8828 -4.34421 0
M  V30 32621 H 3000.04 -0.0204737 -0.670688 0
M  V30 32622 H 3002.58 -0.698376 -1.92206 0
M  V30 32623 H 3000.73 0.986504 -3.74629 0
M  V30 32624 H 3001.15 -0.682619 -5.20039 0
M  V30 32625 H 3002.62 1.01258 -5.42633 0
M  V30 32626 H 3003.1 1.88059 -3.96901 0
M  V30 32627 H 3003.71 0.231602 -4.24669 0
M  V30 32628 N 3002.02 1.5584 -0.234849 0
M  V30 32629 C 3003.25 2.03492 0.400705 0
M  V30 32630 C 3003.67 1.1133 1.51616 0
M  V30 32631 O 3003.03 0.103954 1.81002 0
M  V30 32632 C 3003.08 3.49262 0.897123 0
M  V30 32633 O 3002.18 3.60236 2.00758 0
M  V30 32634 H 3001.52 0.65801 0.0889908 0
M  V30 32635 H 3004.05 2.01455 -0.35738 0
M  V30 32636 H 3004.06 3.89846 1.20349 0
M  V30 32637 H 3002.74 4.15822 0.0807908 0
M  V30 32638 H 3001.31 3.31544 1.70683 0
M  V30 32639 N 3003.5 -0.038404 1.57553 0
M  V30 32640 C 3004.41 -1.05906 2.09335 0
M  V30 32641 C 3005.43 -1.40245 1.02992 0
M  V30 32642 O 3006.6 -1.49752 1.34671 0
M  V30 32643 C 3003.67 -2.34382 2.55472 0
M  V30 32644 C 3002.73 -2.0671 3.76257 0
M  V30 32645 C 3001.96 -3.2906 4.20185 0
M  V30 32646 O 3002.18 -4.39401 3.63708 0
M  V30 32647 O 3001.12 -3.15308 5.12703 0
M  V30 32648 H 3004.94 -0.649035 2.96684 0
M  V30 32649 H 3002.53 -0.254776 1.47212 0
M  V30 32650 H 3004.41 -3.0993 2.85519 0
M  V30 32651 H 3003.09 -2.74698 1.71238 0
M  V30 32652 H 3001.99 -1.2876 3.51243 0
M  V30 32653 H 3003.33 -1.71255 4.61446 0
M  V30 32654 N 3004.98 -1.54511 -0.310498 0
M  V30 32655 C 3006.23 -1.72998 -1.04481 0
M  V30 32656 C 3006.55 -0.513512 -1.88117 0
M  V30 32657 O 3005.82 0.47235 -1.9012 0
M  V30 32658 H 3004.4 -0.637882 -0.388735 0
M  V30 32659 H 3007.06 -1.91844 -0.343777 0
M  V30 32660 H 3006.15 -2.61518 -1.70336 0
M  V30 32661 N 3006.46 0.573222 -1.46806 0
M  V30 32662 C 3007.68 1.35688 -1.56194 0
M  V30 32663 C 3008.1 1.87668 -0.206395 0
M  V30 32664 O 3007.46 1.64136 0.797855 0
M  V30 32665 C 3007.51 2.53787 -2.57438 0
M  V30 32666 O 3007.23 2.03958 -3.87728 0
M  V30 32667 C 3008.73 3.46215 -2.76857 0
M  V30 32668 H 3005.95 0.414183 -0.527914 0
M  V30 32669 H 3008.49 0.695956 -1.92293 0
M  V30 32670 H 3006.65 3.1585 -2.24316 0
M  V30 32671 H 3007.06 2.8094 -4.42914 0
M  V30 32672 H 3008.54 4.25539 -3.51598 0
M  V30 32673 H 3009.01 3.98752 -1.84103 0
M  V30 32674 H 3009.62 2.89981 -3.11113 0
M  V30 32675 N 3007.93 1.3467 0.818645 0
M  V30 32676 C 3009.34 1.24448 1.39174 0
M  V30 32677 C 3009.7 -0.128233 1.9578 0
M  V30 32678 O 3008.82 -1.02874 1.90384 0
M  V30 32679 C 3009.42 2.25328 2.53008 0
M  V30 32680 C 3007.97 2.18884 3.06214 0
M  V30 32681 C 3007.12 2.11697 1.79108 0
M  V30 32682 H 3010.07 1.45974 0.622683 0
M  V30 32683 H 3010.09 1.87275 3.31222 0
M  V30 32684 H 3009.61 3.25225 2.11779 0
M  V30 32685 H 3007.71 1.22357 3.51937 0
M  V30 32686 H 3007.82 3.10325 3.65014 0
M  V30 32687 H 3006.18 1.57484 2.00177 0
M  V30 32688 H 3006.97 3.13435 1.40047 0
M  V30 32689 N 3009.41 -1.03936 1.1847 0
M  V30 32690 C 3010.66 -1.76809 0.978926 0
M  V30 32691 C 3010.98 -1.88677 -0.492537 0
M  V30 32692 O 3010.25 -1.41271 -1.35717 0
M  V30 32693 H 3008.83 -0.654962 0.359213 0
M  V30 32694 H 3011.49 -1.25431 1.49175 0
M  V30 32695 H 3010.59 -2.78025 1.41805 0
M  V30 32696 N 3010.89 -0.986938 -1.22871 0
M  V30 32697 C 3012.14 -0.659457 -1.91461 0
M  V30 32698 C 3012.46 0.807794 -1.76932 0
M  V30 32699 O 3011.72 1.59899 -1.12831 0
M  V30 32700 C 3012.02 -1.00385 -3.43012 0
M  V30 32701 C 3011.68 -2.46239 -3.77726 0
M  V30 32702 C 3010.35 -2.86098 -3.86913 0
M  V30 32703 C 3012.7 -3.40805 -3.94337 0
M  V30 32704 C 3010.03 -4.19525 -4.10141 0
M  V30 32705 C 3012.38 -4.73883 -4.19068 0
M  V30 32706 C 3011.04 -5.13492 -4.26477 0
M  V30 32707 H 3010.31 -0.241313 -0.700606 0
M  V30 32708 H 3012.96 -1.24202 -1.45761 0
M  V30 32709 H 3011.26 -0.339295 -3.90328 0
M  V30 32710 H 3012.96 -0.728588 -3.94325 0
M  V30 32711 H 3009.55 -2.1434 -3.71155 0
M  V30 32712 H 3013.74 -3.11184 -3.86624 0
M  V30 32713 H 3008.99 -4.4981 -4.14102 0
M  V30 32714 H 3013.17 -5.4711 -4.30864 0
M  V30 32715 H 3010.79 -6.16899 -4.44229 0
M  V30 32716 N 3012.37 1.38098 -0.759394 0
M  V30 32717 C 3013.78 1.53483 -0.437633 0
M  V30 32718 C 3013.98 1.72074 1.04846 0
M  V30 32719 O 3013.04 1.73506 1.83445 0
M  V30 32720 C 3014.35 2.73855 -1.24194 0
M  V30 32721 C 3015.9 2.87708 -1.2326 0
M  V30 32722 C 3016.38 4.11048 -2.01999 0
M  V30 32723 N 3017.87 4.18136 -1.99289 0
M  V30 32724 C 3018.6 5.12578 -2.57005 0
M  V30 32725 N 3018.1 6.12656 -3.23457 0
M  V30 32726 N 3019.89 5.04971 -2.46903 0
M  V30 32727 H 3012.04 1.2428 -1.72245 0
M  V30 32728 H 3014.3 0.604192 -0.730518 0
M  V30 32729 H 3014.01 2.66541 -2.29454 0
M  V30 32730 H 3013.88 3.67201 -0.862736 0
M  V30 32731 H 3016.27 2.945 -0.18804 0
M  V30 32732 H 3016.35 1.95356 -1.65136 0
M  V30 32733 H 3016 4.05017 -3.06469 0
M  V30 32734 H 3015.93 5.02491 -1.57513 0
M  V30 32735 H 3018.42 3.46465 -1.50899 0
M  V30 32736 H 3018.73 6.81224 -3.64902 0
M  V30 32737 H 3017.08 6.12971 -3.27553 0
M  V30 32738 H 3020.27 4.25728 -1.94611 0
M  V30 32739 H 3020.44 5.78391 -2.92178 0
M  V30 32740 N 3013.85 0.508932 1.49156 0
M  V30 32741 C 3014.81 -0.254299 2.27785 0
M  V30 32742 C 3015.81 -0.886837 1.34134 0
M  V30 32743 O 3017 -0.75014 1.57221 0
M  V30 32744 C 3014.13 -1.36567 3.1235 0
M  V30 32745 H 3015.32 0.435767 2.96717 0
M  V30 32746 H 3012.88 0.264155 1.54052 0
M  V30 32747 H 3013.61 -2.08964 2.48001 0
M  V30 32748 H 3013.4 -0.917476 3.81215 0
M  V30 32749 H 3014.89 -1.90308 3.71716 0
M  V30 32750 N 3015.32 -1.55714 0.243111 0
M  V30 32751 C 3016.73 -1.8487 -0.260755 0
M  V30 32752 C 3017.09 -1.16488 -1.57877 0
M  V30 32753 O 3016.21 -0.441945 -2.11839 0
M  V30 32754 C 3016.81 -3.35384 -0.479895 0
M  V30 32755 C 3015.36 -3.6478 -0.928031 0
M  V30 32756 C 3014.51 -2.773 -0.00311542 0
M  V30 32757 H 3017.46 -1.51711 0.46577 0
M  V30 32758 H 3017.48 -3.56758 -1.32302 0
M  V30 32759 H 3017 -3.85126 0.479536 0
M  V30 32760 H 3015.1 -3.20513 -1.90006 0
M  V30 32761 H 3015.21 -4.72583 -0.787516 0
M  V30 32762 H 3013.57 -2.49464 -0.513805 0
M  V30 32763 H 3014.36 -3.29847 0.95162 0
M  V30 32764 N 3016.8 0.030048 -1.57571 0
M  V30 32765 C 3017.71 1.04794 -2.09893 0
M  V30 32766 C 3018.73 1.39697 -1.03735 0
M  V30 32767 O 3019.9 1.49036 -1.35464 0
M  V30 32768 C 3016.97 2.33024 -2.56712 0
M  V30 32769 C 3016.03 2.04712 -3.77348 0
M  V30 32770 C 3015.26 3.26827 -4.21924 0
M  V30 32771 O 3015.49 4.37466 -3.66033 0
M  V30 32772 O 3014.42 3.12585 -5.14368 0
M  V30 32773 H 3018.25 0.633292 -2.97024 0
M  V30 32774 H 3015.83 0.246966 -1.47345 0
M  V30 32775 H 3017.71 3.08411 -2.87159 0
M  V30 32776 H 3016.39 2.73786 -1.72693 0
M  V30 32777 H 3015.3 1.26895 -3.51921 0
M  V30 32778 H 3016.63 1.68805 -4.62348 0
M  V30 32779 N 3018.28 1.54674 0.3023 0
M  V30 32780 C 3019.53 1.7415 1.03921 0
M  V30 32781 C 3019.86 0.525074 1.86967 0
M  V30 32782 O 3019.13 -0.477835 1.88539 0
M  V30 32783 C 3019.42 3.02972 1.94628 0
M  V30 32784 C 3019.27 4.34911 1.1477 0
M  V30 32785 C 3020.59 3.27654 2.93821 0
M  V30 32786 H 3017.71 0.633638 0.376394 0
M  V30 32787 H 3020.35 1.87388 0.313974 0
M  V30 32788 H 3018.5 2.91817 2.56466 0
M  V30 32789 H 3020.17 4.57982 0.552282 0
M  V30 32790 H 3018.42 4.31456 0.450386 0
M  V30 32791 H 3019.09 5.21313 1.81486 0
M  V30 32792 H 3021.56 3.3841 2.42111 0
M  V30 32793 H 3020.44 4.1911 3.54455 0
M  V30 32794 H 3020.7 2.45888 3.67412 0
M  V30 32795 N 3019.76 -0.565428 1.47108 0
M  V30 32796 C 3020.72 -1.65525 1.58538 0
M  V30 32797 C 3021.72 -1.54047 0.461108 0
M  V30 32798 O 3022.91 -1.58353 0.725938 0
M  V30 32799 C 3020.04 -3.05033 1.52209 0
M  V30 32800 H 3021.24 -1.56742 2.55679 0
M  V30 32801 H 3018.79 -0.784687 1.35175 0
M  V30 32802 H 3019.52 -3.19356 0.564128 0
M  V30 32803 H 3019.31 -3.14773 2.33796 0
M  V30 32804 H 3020.8 -3.84335 1.63329 0
M  V30 32805 N 3021.24 -1.35102 -0.811492 0
M  V30 32806 C 3022.65 -1.15033 -1.10632 0
M  V30 32807 C 3022.85 0.0405025 -2.01459 0
M  V30 32808 O 3021.91 0.712592 -2.42236 0
M  V30 32809 C 3023.22 -2.451 -1.74203 0
M  V30 32810 C 3024.77 -2.51262 -1.86645 0
M  V30 32811 C 3025.24 -3.81359 -2.53632 0
M  V30 32812 N 3026.74 -3.82583 -2.61121 0
M  V30 32813 C 3027.47 -4.79974 -3.13708 0
M  V30 32814 N 3026.97 -5.87751 -3.66771 0
M  V30 32815 N 3028.76 -4.67416 -3.12216 0
M  V30 32816 H 3020.91 -2.11383 -0.207604 0
M  V30 32817 H 3023.17 -0.935296 -0.154681 0
M  V30 32818 H 3022.88 -3.32391 -1.1493 0
M  V30 32819 H 3022.75 -2.59286 -2.73954 0
M  V30 32820 H 3025.14 -1.64402 -2.45063 0
M  V30 32821 H 3025.22 -2.40994 -0.857636 0
M  V30 32822 H 3024.87 -4.68614 -1.95865 0
M  V30 32823 H 3024.8 -3.88914 -3.5504 0
M  V30 32824 H 3027.29 -3.04707 -2.23522 0
M  V30 32825 H 3027.6 -6.58063 -4.05183 0
M  V30 32826 H 3025.94 -5.91449 -3.64983 0
M  V30 32827 H 3029.14 -3.82359 -2.70035 0
M  V30 32828 H 3029.31 -5.4348 -3.52893 0
M  V30 32829 N 3022.71 1.03306 -1.19019 0
M  V30 32830 C 3023.96 1.76287 -0.988289 0
M  V30 32831 C 3024.28 1.88936 0.482524 0
M  V30 32832 O 3023.55 1.41989 1.34966 0
M  V30 32833 H 3022.13 0.653048 -0.362681 0
M  V30 32834 H 3024.8 1.24638 -1.49838 0
M  V30 32835 H 3023.89 2.77269 -1.43278 0
M  V30 32836 N 3024.19 0.99344 1.22346 0
M  V30 32837 C 3025.14 0.537092 2.26314 0
M  V30 32838 C 3026.13 -0.412516 1.64301 0
M  V30 32839 O 3027.34 -0.284976 1.7773 0
M  V30 32840 H 3023.72 0.155299 0.73579 0
M  V30 32841 H 3025.69 1.42539 2.62155 0
M  V30 32842 C 3024.44 -0.132057 3.47449 0
M  V30 32843 H 3023.76 0.589589 3.95429 0
M  V30 32844 H 3025.2 -0.41481 4.21966 0
M  V30 32845 C 3023.66 -1.36756 3.07895 0
M  V30 32846 O 3024.19 -2.46286 3.17343 0
M  V30 32847 N 3022.39 -1.24301 2.62674 0
M  V30 32848 H 3021.94 -0.351781 2.55187 0
M  V30 32849 H 3021.9 -2.07072 2.36577 0
M  V30 32850 N 3025.67 -1.37693 0.766707 0
M  V30 32851 C 3026.92 -2.0011 0.329236 0
M  V30 32852 C 3027.25 -1.60725 -1.09001 0
M  V30 32853 O 3026.52 -0.851019 -1.74894 0
M  V30 32854 C 3026.81 -3.57058 0.467052 0
M  V30 32855 C 3026.66 -4.06368 1.92835 0
M  V30 32856 C 3027.98 -4.39903 -0.131715 0
M  V30 32857 H 3025.1 -0.726982 0.121103 0
M  V30 32858 H 3027.74 -1.63445 0.968808 0
M  V30 32859 H 3025.89 -3.88423 -0.0774341 0
M  V30 32860 H 3027.56 -3.8559 2.53215 0
M  V30 32861 H 3025.81 -3.58747 2.43891 0
M  V30 32862 H 3026.48 -5.15426 1.97586 0
M  V30 32863 H 3028.95 -4.14767 0.332803 0
M  V30 32864 H 3027.83 -5.489 -0.00512051 0
M  V30 32865 H 3028.09 -4.24891 -1.22148 0
M  V30 32866 N 3027.15 -0.516835 -1.48884 0
M  V30 32867 C 3028.4 0.0239544 -2.01686 0
M  V30 32868 C 3028.71 1.36567 -1.40031 0
M  V30 32869 O 3029.92 1.99407 -1.84253 0
M  V30 32870 C 3028.37 0.0931193 -3.5978 0
M  V30 32871 C 3027.98 -1.24291 -4.30413 0
M  V30 32872 C 3029.72 0.583433 -4.20472 0
M  V30 32873 C 3027.63 -1.13505 -5.80406 0
M  V30 32874 H 3026.56 0.0127243 -0.753893 0
M  V30 32875 H 3029.21 -0.65864 -1.71272 0
M  V30 32876 H 3027.59 0.840509 -3.86977 0
M  V30 32877 H 3028.77 -2.00483 -4.14901 0
M  V30 32878 H 3027.08 -1.66791 -3.81536 0
M  V30 32879 H 3029.68 0.681894 -5.30334 0
M  V30 32880 H 3030.02 1.5861 -3.84901 0
M  V30 32881 H 3030.56 -0.107884 -3.97654 0
M  V30 32882 H 3027.3 -2.11246 -6.20528 0
M  V30 32883 H 3026.82 -0.414272 -5.98368 0
M  V30 32884 H 3028.49 -0.820275 -6.41779 0
M  V30 32885 N 3028.63 1.55583 -0.251365 0
M  V30 32886 C 3029.86 2.03157 0.375606 0
M  V30 32887 C 3030.26 1.12986 1.51759 0
M  V30 32888 O 3029.61 0.137602 1.83184 0
M  V30 32889 C 3029.67 3.46968 0.94094 0
M  V30 32890 C 3029.33 4.56947 -0.069369 0
M  V30 32891 C 3030.33 5.1239 -0.8805 0
M  V30 32892 C 3028.02 5.01915 -0.19675 0
M  V30 32893 C 3030.01 6.11296 -1.80543 0
M  V30 32894 C 3027.7 6.00652 -1.12518 0
M  V30 32895 C 3028.69 6.55222 -1.92804 0
M  V30 32896 O 3028.38 7.52033 -2.84081 0
M  V30 32897 H 3028.11 0.66959 0.0928718 0
M  V30 32898 H 3030.67 2.01964 -0.374151 0
M  V30 32899 H 3028.9 3.45325 1.74034 0
M  V30 32900 H 3030.59 3.78016 1.47846 0
M  V30 32901 H 3031.35 4.78478 -0.7927 0
M  V30 32902 H 3027.23 4.591 0.418106 0
M  V30 32903 H 3030.78 6.53816 -2.43251 0
M  V30 32904 H 3026.67 6.33984 -1.21388 0
M  V30 32905 H 3027.44 7.69665 -2.78492 0
M  V30 32906 N 3030.1 -0.0216912 1.57585 0
M  V30 32907 C 3031.05 -1.03838 2.08136 0
M  V30 32908 C 3032.05 -1.36976 0.996686 0
M  V30 32909 O 3033.25 -1.35795 1.18151 0
M  V30 32910 H 3029.63 -0.352426 0.664304 0
M  V30 32911 H 3031.6 -0.586288 2.92584 0
M  V30 32912 C 3030.35 -2.32844 2.58223 0
M  V30 32913 H 3029.67 -2.08208 3.41306 0
M  V30 32914 H 3031.11 -3.02311 2.97295 0
M  V30 32915 C 3029.57 -3.02323 1.4867 0
M  V30 32916 O 3030.1 -3.92449 0.857144 0
M  V30 32917 N 3028.31 -2.63777 1.21943 0
M  V30 32918 H 3027.85 -1.90571 1.73322 0
M  V30 32919 H 3027.81 -3.10581 0.488578 0
M  V30 32920 N 3031.58 -1.54832 -0.294093 0
M  V30 32921 C 3032.52 -1.82642 -1.38473 0
M  V30 32922 C 3033.53 -0.70972 -1.46516 0
M  V30 32923 O 3034.72 -0.987296 -1.4871 0
M  V30 32924 C 3031.82 -1.95556 -2.76787 0
M  V30 32925 C 3030.99 -3.26025 -2.91593 0
M  V30 32926 C 3030.05 -3.29268 -4.1045 0
M  V30 32927 O 3029.08 -4.02763 -4.02207 0
M  V30 32928 N 3030.28 -2.55154 -5.21418 0
M  V30 32929 H 3033.04 -2.76771 -1.14969 0
M  V30 32930 H 3030.6 -1.54491 -0.484178 0
M  V30 32931 H 3032.6 -1.9512 -3.54557 0
M  V30 32932 H 3031.17 -1.0839 -2.93207 0
M  V30 32933 H 3030.39 -3.39177 -2.0088 0
M  V30 32934 H 3031.67 -4.12109 -2.98402 0
M  V30 32935 H 3031.07 -1.95087 -5.30997 0
M  V30 32936 H 3029.63 -2.60464 -5.97496 0
M  V30 32937 N 3033.06 0.557619 -1.47405 0
M  V30 32938 C 3033.99 1.67993 -1.5592 0
M  V30 32939 C 3035.01 1.56588 -0.445438 0
M  V30 32940 O 3036.2 1.63553 -0.715028 0
M  V30 32941 C 3033.3 3.06455 -1.44702 0
M  V30 32942 C 3032.47 3.43618 -2.70639 0
M  V30 32943 C 3031.53 4.61242 -2.53264 0
M  V30 32944 O 3030.55 4.65843 -3.27076 0
M  V30 32945 N 3031.76 5.57709 -1.61063 0
M  V30 32946 H 3034.52 1.61135 -2.52697 0
M  V30 32947 H 3032.08 0.744245 -1.4378 0
M  V30 32948 H 3034.07 3.82975 -1.30813 0
M  V30 32949 H 3032.64 3.07541 -0.560093 0
M  V30 32950 H 3031.86 2.56549 -2.99293 0
M  V30 32951 H 3033.15 3.65222 -3.54247 0
M  V30 32952 H 3032.55 5.56747 -1.00244 0
M  V30 32953 H 3031.11 6.33558 -1.53126 0
M  V30 32954 N 3034.54 1.35531 0.804316 0
M  V30 32955 C 3035.5 1.28507 1.89786 0
M  V30 32956 C 3036.5 0.196011 1.59601 0
M  V30 32957 O 3037.69 0.449857 1.68291 0
M  V30 32958 C 3034.82 0.988527 3.26253 0
M  V30 32959 H 3036.02 2.25744 1.97432 0
M  V30 32960 H 3033.57 1.20087 1.00044 0
M  V30 32961 H 3034.31 0.0201111 3.24294 0
M  V30 32962 H 3034.09 1.77647 3.49548 0
M  V30 32963 H 3035.58 0.965046 4.06296 0
M  V30 32964 N 3036.02 -1.02674 1.19565 0
M  V30 32965 C 3037.29 -1.73201 0.908887 0
M  V30 32966 C 3037.67 -2.02835 -0.584892 0
M  V30 32967 O 3037.02 -1.68471 -1.54369 0
M  V30 32968 C 3037.23 -3.00721 1.77111 0
M  V30 32969 C 3038.58 -3.74186 2.00673 0
M  V30 32970 O 3039.6 -3.10653 1.7428 0
M  V30 32971 O 3038.46 -4.8841 2.45189 0
M  V30 32972 H 3035.56 -0.754361 0.338922 0
M  V30 32973 H 3038.1 -1.08613 1.30389 0
M  V30 32974 H 3036.88 -2.75065 2.78307 0
M  V30 32975 H 3036.5 -3.73048 1.37552 0
M  V30 32976 N 3037.5 -0.999914 -1.21817 0
M  V30 32977 C 3038.74 -0.680734 -1.91034 0
M  V30 32978 C 3039.07 0.78599 -1.77583 0
M  V30 32979 O 3038.35 1.56919 -1.1492 0
M  V30 32980 C 3038.63 -1.09616 -3.43011 0
M  V30 32981 C 3038.49 -2.62196 -3.65477 0
M  V30 32982 C 3039.8 -0.654692 -4.35203 0
M  V30 32983 H 3036.92 -0.248775 -0.693743 0
M  V30 32984 H 3039.57 -1.24469 -1.43553 0
M  V30 32985 H 3037.72 -0.61632 -3.8358 0
M  V30 32986 H 3039.39 -3.17904 -3.34267 0
M  V30 32987 H 3037.63 -3.03944 -3.09517 0
M  V30 32988 H 3038.3 -2.86315 -4.7194 0
M  V30 32989 H 3040.78 -1.06695 -4.02188 0
M  V30 32990 H 3039.65 -0.973587 -5.40197 0
M  V30 32991 H 3039.91 0.444381 -4.39861 0
M  V30 32992 N 3038.97 1.37284 -0.773999 0
M  V30 32993 C 3040.2 2.03609 -0.350285 0
M  V30 32994 C 3040.61 1.58504 1.03311 0
M  V30 32995 O 3039.95 0.762729 1.67117 0
M  V30 32996 C 3040.02 3.58097 -0.317278 0
M  V30 32997 C 3039.68 4.26342 -1.64564 0
M  V30 32998 C 3040.68 4.50306 -2.59847 0
M  V30 32999 C 3038.36 4.64128 -1.92069 0
M  V30 33000 C 3040.36 5.11115 -3.80842 0
M  V30 33001 C 3038.04 5.24657 -3.13334 0
M  V30 33002 C 3039.04 5.48088 -4.07539 0
M  V30 33003 O 3038.73 6.07351 -5.26669 0
M  V30 33004 H 3038.46 0.660383 -0.144467 0
M  V30 33005 H 3041.02 1.76556 -1.04963 0
M  V30 33006 H 3039.25 3.84206 0.438461 0
M  V30 33007 H 3040.93 4.05822 0.0796714 0
M  V30 33008 H 3041.7 4.21525 -2.39879 0
M  V30 33009 H 3037.58 4.45224 -1.1957 0
M  V30 33010 H 3041.12 5.29319 -4.54386 0
M  V30 33011 H 3037.02 5.52863 -3.33186 0
M  V30 33012 H 3037.79 6.25828 -5.27524 0
M  V30 33013 N 3040.45 0.524724 1.48608 0
M  V30 33014 C 3041.68 -0.00948494 2.07398 0
M  V30 33015 C 3042.1 -1.27882 1.37941 0
M  V30 33016 O 3041.46 -1.75788 0.443664 0
M  V30 33017 C 3041.51 -0.221893 3.59917 0
M  V30 33018 O 3040.61 -1.29169 3.91649 0
M  V30 33019 H 3039.95 0.0367845 0.66298 0
M  V30 33020 H 3042.48 0.731134 1.91091 0
M  V30 33021 H 3042.49 -0.446165 4.05553 0
M  V30 33022 H 3041.17 0.705378 4.09875 0
M  V30 33023 H 3039.74 -1.05049 3.57798 0
M  V30 33024 N 3041.93 -1.55447 0.259613 0
M  V30 33025 C 3043.18 -1.99246 -0.361572 0
M  V30 33026 C 3043.5 -1.1479 -1.57015 0
M  V30 33027 O 3042.76 -0.201759 -1.94657 0
M  V30 33028 C 3043.06 -3.4827 -0.802666 0
M  V30 33029 C 3042.72 -4.49904 0.299551 0
M  V30 33030 C 3041.39 -4.77416 0.602241 0
M  V30 33031 C 3043.74 -5.10657 1.04304 0
M  V30 33032 C 3041.07 -5.62954 1.65227 0
M  V30 33033 C 3043.42 -5.97333 2.08268 0
M  V30 33034 C 3042.08 -6.23174 2.39188 0
M  V30 33035 H 3041.35 -0.729092 -0.132309 0
M  V30 33036 H 3044 -1.8789 0.370092 0
M  V30 33037 H 3042.3 -3.57023 -1.61375 0
M  V30 33038 H 3044 -3.79555 -1.29378 0
M  V30 33039 H 3040.59 -4.28567 0.053501 0
M  V30 33040 H 3044.78 -4.89438 0.822444 0
M  V30 33041 H 3040.03 -5.81225 1.89703 0
M  V30 33042 H 3044.21 -6.43447 2.66362 0
M  V30 33043 H 3041.83 -6.89248 3.20689 0
M  V30 33044 N 3043.41 0.0133338 -1.57594 0
M  V30 33045 C 3044.66 0.699562 -1.89606 0
M  V30 33046 C 3044.98 1.75046 -0.85929 0
M  V30 33047 O 3044.25 1.95618 0.105078 0
M  V30 33048 H 3042.83 0.261373 -0.699781 0
M  V30 33049 H 3045.49 -0.0244386 -1.94885 0
M  V30 33050 H 3044.58 1.17923 -2.88965 0
M  V30 33051 N 3044.89 1.54985 0.285878 0
M  V30 33052 C 3045.82 1.89986 1.35749 0
M  V30 33053 C 3046.8 0.760321 1.52162 0
M  V30 33054 O 3047.98 1.01736 1.65419 0
M  V30 33055 C 3045.11 2.16047 2.71921 0
M  V30 33056 C 3044.07 3.31883 2.70255 0
M  V30 33057 C 3043.39 3.43395 4.09858 0
M  V30 33058 C 3044.69 4.68609 2.30659 0
M  V30 33059 H 3046.39 2.7974 1.06704 0
M  V30 33060 H 3043.93 1.34596 0.51186 0
M  V30 33061 H 3045.88 2.39119 3.46987 0
M  V30 33062 H 3044.61 1.23079 3.02521 0
M  V30 33063 H 3043.27 3.08759 1.97645 0
M  V30 33064 H 3042.92 2.47917 4.3766 0
M  V30 33065 H 3042.62 4.21269 4.09641 0
M  V30 33066 H 3044.14 3.68745 4.86682 0
M  V30 33067 H 3045.55 4.9131 2.95444 0
M  V30 33068 H 3043.95 5.49305 2.41627 0
M  V30 33069 H 3045.02 4.68301 1.25785 0
M  V30 33070 N 3046.36 -0.549794 1.47699 0
M  V30 33071 C 3047.29 -1.6658 1.63625 0
M  V30 33072 C 3048.28 -1.63024 0.485506 0
M  V30 33073 O 3049.46 -1.8053 0.715723 0
M  V30 33074 C 3046.59 -3.05208 1.65726 0
M  V30 33075 C 3045.54 -3.23615 2.80102 0
M  V30 33076 C 3044.87 -4.63104 2.6728 0
M  V30 33077 C 3046.17 -3.08279 4.21618 0
M  V30 33078 H 3047.86 -1.53508 2.57052 0
M  V30 33079 H 3045.41 -0.737078 1.23706 0
M  V30 33080 H 3047.36 -3.83135 1.75458 0
M  V30 33081 H 3046.09 -3.19257 0.688649 0
M  V30 33082 H 3044.75 -2.48099 2.69893 0
M  V30 33083 H 3044.39 -4.73962 1.68431 0
M  V30 33084 H 3044.09 -4.76368 3.44017 0
M  V30 33085 H 3045.62 -5.43156 2.78951 0
M  V30 33086 H 3047.03 -3.76016 4.32764 0
M  V30 33087 H 3045.43 -3.33048 4.99198 0
M  V30 33088 H 3046.5 -2.04934 4.39465 0
M  V30 33089 N 3047.84 -1.35955 -0.797117 0
M  V30 33090 C 3048.77 -1.32326 -1.92385 0
M  V30 33091 C 3049.75 -0.196037 -1.68967 0
M  V30 33092 O 3050.94 -0.392484 -1.90193 0
M  V30 33093 C 3048.07 -1.10404 -3.29285 0
M  V30 33094 C 3047.02 -2.19868 -3.67208 0
M  V30 33095 C 3046.35 -1.83099 -5.02373 0
M  V30 33096 C 3047.65 -3.61902 -3.76595 0
M  V30 33097 H 3049.34 -2.26606 -1.95679 0
M  V30 33098 H 3046.89 -1.09083 -0.94005 0
M  V30 33099 H 3048.84 -1.06502 -4.0772 0
M  V30 33100 H 3047.57 -0.125725 -3.26358 0
M  V30 33101 H 3046.22 -2.22883 -2.91065 0
M  V30 33102 H 3045.87 -0.838614 -4.9596 0
M  V30 33103 H 3045.57 -2.56382 -5.28718 0
M  V30 33104 H 3047.1 -1.80739 -5.83237 0
M  V30 33105 H 3048.51 -3.61157 -4.4524 0
M  V30 33106 H 3046.91 -4.34026 -4.14417 0
M  V30 33107 H 3047.98 -3.97366 -2.77899 0
M  V30 33108 N 3049.32 1.02038 -1.20108 0
M  V30 33109 C 3050.55 1.78925 -1.03293 0
M  V30 33110 C 3050.96 1.84455 0.421082 0
M  V30 33111 O 3050.3 1.2937 1.30419 0
M  V30 33112 C 3050.36 3.25019 -1.53633 0
M  V30 33113 C 3050.03 3.43104 -3.01875 0
M  V30 33114 C 3051.02 3.32631 -3.99566 0
M  V30 33115 C 3048.71 3.69044 -3.40752 0
M  V30 33116 C 3050.7 3.47835 -5.34125 0
M  V30 33117 C 3048.39 3.83892 -4.75468 0
M  V30 33118 C 3049.39 3.73292 -5.71964 0
M  V30 33119 O 3049.08 3.87691 -7.04238 0
M  V30 33120 H 3048.81 0.569649 -0.363972 0
M  V30 33121 H 3051.36 1.29351 -1.59554 0
M  V30 33122 H 3049.59 3.75657 -0.917547 0
M  V30 33123 H 3051.28 3.83528 -1.32896 0
M  V30 33124 H 3052.05 3.12533 -3.70875 0
M  V30 33125 H 3047.93 3.76383 -2.66189 0
M  V30 33126 H 3051.47 3.39478 -6.09427 0
M  V30 33127 H 3047.37 4.0349 -5.03851 0
M  V30 33128 H 3048.14 4.04731 -7.11432 0
M  V30 33129 N 3050.8 1.00636 1.21285 0
M  V30 33130 C 3052.08 0.605289 1.85999 0
M  V30 33131 C 3052.46 -0.917039 1.90141 0
M  V30 33132 O 3051.8 -1.80455 1.40172 0
M  V30 33133 C 3052.01 1.24124 3.26181 0
M  V30 33134 C 3053.36 1.35022 4.0256 0
M  V30 33135 O 3054.39 1.19667 3.35497 0
M  V30 33136 O 3053.24 1.59735 5.22635 0
M  V30 33137 H 3050.34 0.2075 0.800545 0
M  V30 33138 H 3052.88 1.10309 1.28957 0
M  V30 33139 H 3051.66 2.28192 3.17874 0
M  V30 33140 H 3051.28 0.729876 3.90843 0
M  V30 33141 N 3052.28 -1.36872 0.781268 0
M  V30 33142 C 3053.53 -1.98701 0.346555 0
M  V30 33143 C 3053.84 -1.62714 -1.08552 0
M  V30 33144 O 3055.04 -2.17716 -1.6221 0
M  V30 33145 C 3053.5 -3.55379 0.568673 0
M  V30 33146 C 3053.11 -4.00297 2.01163 0
M  V30 33147 C 3054.85 -4.24038 0.198058 0
M  V30 33148 C 3052.76 -5.49721 2.18084 0
M  V30 33149 H 3051.69 -0.743426 0.125834 0
M  V30 33150 H 3054.34 -1.56278 0.961748 0
M  V30 33151 H 3052.72 -3.9583 -0.116116 0
M  V30 33152 H 3053.9 -3.71066 2.73215 0
M  V30 33153 H 3052.21 -3.4445 2.33973 0
M  V30 33154 H 3054.81 -5.33842 0.302872 0
M  V30 33155 H 3055.15 -4.0747 -0.852855 0
M  V30 33156 H 3055.68 -3.88921 0.835764 0
M  V30 33157 H 3052.42 -5.71226 3.21529 0
M  V30 33158 H 3051.94 -5.80605 1.50527 0
M  V30 33159 H 3053.62 -6.15829 1.98404 0
M  V30 33160 N 3053.75 -0.532597 -1.48328 0
M  V30 33161 C 3054.68 0.21747 -2.32485 0
M  V30 33162 C 3055.67 0.932573 -1.42257 0
M  V30 33163 O 3056.85 0.917843 -1.71141 0
M  V30 33164 C 3053.98 1.26324 -3.23511 0
M  V30 33165 C 3052.93 0.666117 -4.22785 0
M  V30 33166 C 3052.26 1.81473 -5.02963 0
M  V30 33167 C 3053.56 -0.363905 -5.21031 0
M  V30 33168 H 3055.25 -0.485066 -2.95445 0
M  V30 33169 H 3052.8 -0.234719 -1.42074 0
M  V30 33170 H 3054.75 1.79594 -3.81214 0
M  V30 33171 H 3053.48 1.99539 -2.58557 0
M  V30 33172 H 3052.14 0.154916 -3.66273 0
M  V30 33173 H 3051.78 2.53532 -4.34431 0
M  V30 33174 H 3051.48 1.4211 -5.70157 0
M  V30 33175 H 3053.01 2.35116 -5.63518 0
M  V30 33176 H 3054.42 0.0818072 -5.73242 0
M  V30 33177 H 3052.82 -0.675061 -5.96291 0
M  V30 33178 H 3053.89 -1.26873 -4.68008 0
M  V30 33179 N 3055.23 1.55307 -0.267853 0
M  V30 33180 C 3056.46 2.0384 0.354551 0
M  V30 33181 C 3056.88 1.14647 1.50005 0
M  V30 33182 O 3056.23 0.165087 1.81752 0
M  V30 33183 C 3056.28 3.51546 0.842479 0
M  V30 33184 O 3056 4.37343 -0.257395 0
M  V30 33185 C 3057.51 4.15933 1.53344 0
M  V30 33186 H 3054.73 0.665995 0.0818014 0
M  V30 33187 H 3057.27 2.00593 -0.39783 0
M  V30 33188 H 3055.42 3.5526 1.54497 0
M  V30 33189 H 3055.84 5.24371 0.116501 0
M  V30 33190 H 3057.31 5.20911 1.82634 0
M  V30 33191 H 3057.79 3.6367 2.46253 0
M  V30 33192 H 3058.4 4.16202 0.874987 0
M  V30 33193 N 3056.71 -0.00497598 1.57599 0
M  V30 33194 C 3057.94 -0.701982 1.94627 0
M  V30 33195 C 3058.35 -1.67583 0.869559 0
M  V30 33196 O 3057.71 -1.81866 -0.151958 0
M  V30 33197 C 3057.76 -1.43818 3.3166 0
M  V30 33198 O 3057.48 -0.50339 4.35198 0
M  V30 33199 C 3058.98 -2.23015 3.83118 0
M  V30 33200 H 3056.2 -0.195829 0.641788 0
M  V30 33201 H 3058.75 0.0446647 2.04451 0
M  V30 33202 H 3056.9 -2.1365 3.2316 0
M  V30 33203 H 3057.32 -1.02226 5.14442 0
M  V30 33204 H 3058.79 -2.70031 4.81443 0
M  V30 33205 H 3059.27 -3.05477 3.15564 0
M  V30 33206 H 3059.87 -1.58209 3.94778 0
M  V30 33207 N 3058.19 -1.55135 -0.277654 0
M  V30 33208 C 3059.44 -1.75175 -1.00788 0
M  V30 33209 C 3059.76 -0.553299 -1.86986 0
M  V30 33210 O 3059.03 0.431917 -1.91079 0
M  V30 33211 H 3057.61 -0.645984 -0.375118 0
M  V30 33212 H 3060.27 -1.9253 -0.303007 0
M  V30 33213 H 3059.37 -2.65073 -1.64751 0
M  V30 33214 N 3059.67 0.541953 -1.47989 0
M  V30 33215 C 3060.91 1.29584 -1.55088 0
M  V30 33216 C 3061.24 1.9374 -0.221338 0
M  V30 33217 O 3060.51 1.80721 0.756096 0
M  V30 33218 H 3059.09 0.481256 -0.571316 0
M  V30 33219 H 3061.75 0.631642 -1.84381 0
M  V30 33220 H 3060.84 2.0814 -2.3256 0
M  V30 33221 N 3061.15 1.36376 0.789896 0
M  V30 33222 C 3062.56 1.16779 1.08788 0
M  V30 33223 C 3062.76 -0.00844695 2.01498 0
M  V30 33224 O 3061.82 -0.673964 2.43339 0
M  V30 33225 C 3063.13 2.4784 1.70281 0
M  V30 33226 C 3064.68 2.54199 1.82624 0
M  V30 33227 C 3065.15 3.85346 2.47532 0
M  V30 33228 N 3066.64 3.86689 2.55001 0
M  V30 33229 C 3067.38 4.84904 3.06033 0
M  V30 33230 N 3066.88 5.93511 3.57374 0
M  V30 33231 N 3068.67 4.72324 3.0474 0
M  V30 33232 H 3060.82 2.11687 0.173948 0
M  V30 33233 H 3063.08 0.937638 0.139781 0
M  V30 33234 H 3062.79 3.34178 1.09627 0
M  V30 33235 H 3062.66 2.63611 2.69794 0
M  V30 33236 H 3065.05 1.6828 2.42417 0
M  V30 33237 H 3065.13 2.42328 0.819187 0
M  V30 33238 H 3064.77 4.71671 1.88385 0
M  V30 33239 H 3064.7 3.94513 3.48808 0
M  V30 33240 H 3067.2 3.08225 2.18646 0
M  V30 33241 H 3067.51 6.64426 3.94662 0
M  V30 33242 H 3065.85 5.97181 3.55528 0
M  V30 33243 H 3069.04 3.86607 2.63918 0
M  V30 33244 H 3069.22 5.49025 3.44202 0
M  V30 33245 N 3062.62 -1.014 1.20647 0
M  V30 33246 C 3063.87 -1.74448 1.01245 0
M  V30 33247 C 3064.19 -1.90218 -0.455699 0
M  V30 33248 O 3065.39 -2.60385 -0.768905 0
M  V30 33249 C 3063.85 -3.13773 1.7628 0
M  V30 33250 C 3063.46 -3.06007 3.27206 0
M  V30 33251 C 3065.2 -3.91013 1.65255 0
M  V30 33252 C 3063.11 -4.40355 3.94767 0
M  V30 33253 H 3062.04 -0.654012 0.375213 0
M  V30 33254 H 3064.69 -1.13365 1.44294 0
M  V30 33255 H 3063.07 -3.75413 1.2602 0
M  V30 33256 H 3064.24 -2.53658 3.847 0
M  V30 33257 H 3062.56 -2.42259 3.38673 0
M  V30 33258 H 3065.16 -4.90413 2.1307 0
M  V30 33259 H 3065.5 -4.11818 0.6092 0
M  V30 33260 H 3066.03 -3.36006 2.12943 0
M  V30 33261 H 3062.77 -4.24752 4.99265 0
M  V30 33262 H 3062.29 -4.927 3.42063 0
M  V30 33263 H 3063.97 -5.09189 3.99168 0
M  V30 33264 N 3064.1 -1.01278 -1.2075 0
M  V30 33265 C 3065.35 -0.700958 -1.90301 0
M  V30 33266 C 3065.68 0.767111 -1.78407 0
M  V30 33267 O 3064.96 1.55691 -1.16578 0
M  V30 33268 C 3065.24 -1.13248 -3.41829 0
M  V30 33269 C 3065.09 -2.66058 -3.62675 0
M  V30 33270 C 3066.41 -0.700814 -4.34484 0
M  V30 33271 H 3063.53 -0.256119 -0.691066 0
M  V30 33272 H 3066.17 -1.25984 -1.42225 0
M  V30 33273 H 3064.32 -0.656969 -3.82905 0
M  V30 33274 H 3065.99 -3.21432 -3.30876 0
M  V30 33275 H 3064.24 -3.0721 -3.06276 0
M  V30 33276 H 3064.91 -2.91304 -4.68877 0
M  V30 33277 H 3067.38 -1.10955 -4.01034 0
M  V30 33278 H 3066.26 -1.03083 -5.39134 0
M  V30 33279 H 3066.52 0.397703 -4.40308 0
M  V30 33280 N 3065.58 1.36456 -0.788516 0
M  V30 33281 C 3066.49 2.3385 -0.187426 0
M  V30 33282 C 3067.51 1.60999 0.659955 0
M  V30 33283 O 3068.68 1.92989 0.575952 0
M  V30 33284 C 3065.75 3.40195 0.668465 0
M  V30 33285 C 3064.81 4.28846 -0.197309 0
M  V30 33286 C 3064.04 5.30112 0.617827 0
M  V30 33287 O 3064.26 5.39433 1.85386 0
M  V30 33288 O 3063.2 6.01897 0.0181958 0
M  V30 33289 H 3067.02 2.87019 -0.992667 0
M  V30 33290 H 3064.61 1.38909 -0.549958 0
M  V30 33291 H 3066.49 4.05218 1.15655 0
M  V30 33292 H 3065.17 2.89327 1.45161 0
M  V30 33293 H 3064.07 3.66866 -0.732135 0
M  V30 33294 H 3065.41 4.83064 -0.943948 0
M  V30 33295 N 3067.06 0.540456 1.48043 0
M  V30 33296 C 3068.31 0.0101722 2.02097 0
M  V30 33297 C 3068.63 -1.33769 1.41884 0
M  V30 33298 O 3067.9 -1.86869 0.587956 0
M  V30 33299 H 3066.48 0.000771847 0.747 0
M  V30 33300 H 3069.14 0.706666 1.81638 0
M  V30 33301 H 3068.23 -0.0903925 3.11969 0
M  V30 33302 N 3068.54 -1.55163 0.276085 0
M  V30 33303 C 3069.47 -2.25537 -0.604593 0
M  V30 33304 C 3070.45 -1.24587 -1.15811 0
M  V30 33305 O 3071.63 -1.53308 -1.19207 0
M  V30 33306 C 3068.76 -2.9772 -1.78831 0
M  V30 33307 C 3067.72 -4.05607 -1.36628 0
M  V30 33308 C 3067.04 -4.65369 -2.63317 0
M  V30 33309 C 3068.34 -5.19747 -0.515767 0
M  V30 33310 H 3070.04 -2.99395 -0.0176957 0
M  V30 33311 H 3067.58 -1.43998 -0.00707096 0
M  V30 33312 H 3069.53 -3.45663 -2.4103 0
M  V30 33313 H 3068.26 -2.21398 -2.40105 0
M  V30 33314 H 3066.92 -3.58476 -0.767478 0
M  V30 33315 H 3066.57 -3.85715 -3.22851 0
M  V30 33316 H 3066.27 -5.38216 -2.3579 0
M  V30 33317 H 3067.79 -5.16062 -3.26363 0
M  V30 33318 H 3069.2 -5.63736 -1.04279 0
M  V30 33319 H 3067.6 -5.99162 -0.335344 0
M  V30 33320 H 3068.67 -4.82663 0.465222 0
M  V30 33321 N 3070.01 -0.00338196 -1.576 0
M  V30 33322 C 3070.96 0.986938 -2.08634 0
M  V30 33323 C 3071.93 1.33925 -0.982514 0
M  V30 33324 O 3073.12 1.43703 -1.25515 0
M  V30 33325 C 3070.26 2.27256 -2.59709 0
M  V30 33326 C 3069.37 1.97898 -3.84006 0
M  V30 33327 C 3068.5 3.20567 -4.23569 0
M  V30 33328 C 3067.54 2.8691 -5.40693 0
M  V30 33329 N 3066.68 4.02126 -5.75534 0
M  V30 33330 H 3071.52 0.544804 -2.92978 0
M  V30 33331 H 3069.06 0.25735 -1.44831 0
M  V30 33332 H 3071.01 3.02418 -2.87401 0
M  V30 33333 H 3069.64 2.69133 -1.78234 0
M  V30 33334 H 3068.7 1.13089 -3.63201 0
M  V30 33335 H 3070.01 1.69093 -4.69264 0
M  V30 33336 H 3069.16 4.04071 -4.52561 0
M  V30 33337 H 3067.9 3.52512 -3.37026 0
M  V30 33338 H 3066.91 2.01814 -5.11421 0
M  V30 33339 H 3068.13 2.56209 -6.28915 0
M  V30 33340 H 3066.08 4.33962 -4.91948 0
M  V30 33341 H 3065.99 3.76857 -6.55374 0
M  V30 33342 H 3067.26 4.8641 -6.09119 0
M  V30 33343 N 3071.49 1.5528 0.269423 0
M  V30 33344 C 3072.74 1.76055 1.00055 0
M  V30 33345 C 3073.07 0.563625 1.86155 0
M  V30 33346 O 3072.32 -0.453773 1.90366 0
M  V30 33347 C 3072.62 3.02086 1.90995 0
M  V30 33348 C 3072.29 4.34468 1.20616 0
M  V30 33349 C 3070.95 4.70447 1.01157 0
M  V30 33350 C 3073.3 5.16402 0.705605 0
M  V30 33351 C 3070.63 5.85913 0.303762 0
M  V30 33352 C 3072.98 6.32599 0.0113726 0
M  V30 33353 C 3071.64 6.67215 -0.194897 0
M  V30 33354 H 3070.91 0.64423 0.366127 0
M  V30 33355 H 3073.56 1.89551 0.272529 0
M  V30 33356 H 3071.87 2.83505 2.7043 0
M  V30 33357 H 3073.56 3.15356 2.47692 0
M  V30 33358 H 3070.15 4.06191 1.36774 0
M  V30 33359 H 3074.34 4.89079 0.843554 0
M  V30 33360 H 3069.59 6.11255 0.133261 0
M  V30 33361 H 3073.77 6.95339 -0.384233 0
M  V30 33362 H 3071.39 7.56537 -0.745334 0
M  V30 33363 N 3072.97 -0.534097 1.48274 0
M  V30 33364 C 3074.38 -1.11607 1.49669 0
M  V30 33365 C 3074.73 -1.94413 0.264173 0
M  V30 33366 O 3073.86 -2.07055 -0.629047 0
M  V30 33367 C 3074.45 -2.03074 2.71194 0
M  V30 33368 C 3073.01 -2.56498 2.75474 0
M  V30 33369 C 3072.16 -1.33368 2.43122 0
M  V30 33370 H 3075.11 -0.319551 1.5545 0
M  V30 33371 H 3075.13 -2.87299 2.49478 0
M  V30 33372 H 3074.64 -1.42779 3.60882 0
M  V30 33373 H 3072.74 -3.20526 1.89984 0
M  V30 33374 H 3072.86 -2.95912 3.76793 0
M  V30 33375 H 3071.22 -1.6481 1.9419 0
M  V30 33376 H 3072 -0.748316 3.35045 0
M  V30 33377 N 3074.45 -1.36793 -0.782652 0
M  V30 33378 C 3075.4 -1.31741 -1.91695 0
M  V30 33379 C 3076.39 -0.208024 -1.68118 0
M  V30 33380 O 3077.6 -0.375424 -1.76041 0
M  V30 33381 H 3073.97 -0.410295 -0.630208 0
M  V30 33382 H 3075.94 -2.27519 -1.93074 0
M  V30 33383 C 3074.69 -1.13035 -3.28814 0
M  V30 33384 H 3074.01 -1.9765 -3.47527 0
M  V30 33385 H 3075.45 -1.13548 -4.08513 0
M  V30 33386 C 3073.91 0.164641 -3.36497 0
M  V30 33387 O 3074.44 1.15209 -3.84824 0
M  V30 33388 N 3072.65 0.211627 -2.89828 0
M  V30 33389 H 3072.2 -0.592564 -2.50692 0
M  V30 33390 H 3072.15 1.07774 -2.95351 0
M  V30 33391 N 3075.93 1.00759 -1.21184 0
M  V30 33392 C 3076.84 2.12933 -0.984729 0
M  V30 33393 C 3077.85 1.73888 0.0623351 0
M  V30 33394 O 3079.03 2.00998 -0.127135 0
M  V30 33395 C 3076.09 3.42318 -0.549507 0
M  V30 33396 C 3075.15 3.95551 -1.66848 0
M  V30 33397 C 3074.39 5.1876 -1.25393 0
M  V30 33398 O 3074.61 5.7026 -0.126433 0
M  V30 33399 O 3073.54 5.65374 -2.06485 0
M  V30 33400 H 3077.37 2.34967 -1.92417 0
M  V30 33401 H 3074.96 1.11312 -0.99649 0
M  V30 33402 H 3076.84 4.2021 -0.316458 0
M  V30 33403 H 3075.51 3.21678 0.361248 0
M  V30 33404 H 3074.42 3.18897 -1.95591 0
M  V30 33405 H 3075.75 4.20595 -2.55657 0
M  V30 33406 N 3077.4 1.01917 1.20211 0
M  V30 33407 C 3078.65 0.709988 1.89646 0
M  V30 33408 C 3078.98 -0.760599 1.79012 0
M  V30 33409 O 3078.23 -1.56851 1.17031 0
M  V30 33410 C 3078.53 1.09444 3.4023 0
M  V30 33411 C 3078.2 2.56167 3.71065 0
M  V30 33412 C 3076.86 2.96256 3.79191 0
M  V30 33413 C 3079.21 3.5114 3.85162 0
M  V30 33414 C 3076.54 4.30251 3.98874 0
M  V30 33415 C 3078.89 4.84827 4.06356 0
M  V30 33416 C 3077.56 5.24619 4.12712 0
M  V30 33417 H 3076.83 0.259803 0.693962 0
M  V30 33418 H 3079.47 1.28023 1.42417 0
M  V30 33419 H 3077.78 0.442664 3.89291 0
M  V30 33420 H 3079.48 0.83288 3.92255 0
M  V30 33421 H 3076.07 2.24106 3.65342 0
M  V30 33422 H 3080.25 3.21326 3.78237 0
M  V30 33423 H 3075.51 4.60631 4.02031 0
M  V30 33424 H 3079.68 5.58341 4.16207 0
M  V30 33425 H 3077.31 6.2846 4.27717 0
M  V30 33426 N 3078.88 -1.36036 0.795742 0
M  V30 33427 C 3080.16 -1.93366 0.294777 0
M  V30 33428 C 3080.54 -1.72698 -1.21402 0
M  V30 33429 O 3079.89 -1.08962 -2.00847 0
M  V30 33430 C 3080.1 -3.42024 0.694314 0
M  V30 33431 C 3081.45 -4.19158 0.67764 0
M  V30 33432 O 3082.47 -3.50491 0.635181 0
M  V30 33433 O 3081.33 -5.41653 0.726222 0
M  V30 33434 H 3078.42 -0.823632 0.0745603 0
M  V30 33435 H 3080.97 -1.45178 0.878711 0
M  V30 33436 H 3079.74 -3.5075 1.73464 0
M  V30 33437 H 3079.36 -3.9751 0.0846037 0
M  V30 33438 N 3080.36 -0.5483 -1.47755 0
M  V30 33439 C 3081.27 0.207732 -2.33678 0
M  V30 33440 C 3082.29 0.920817 -1.47638 0
M  V30 33441 O 3083.46 0.891699 -1.80584 0
M  V30 33442 C 3080.53 1.22997 -3.24149 0
M  V30 33443 C 3079.59 0.525275 -4.26074 0
M  V30 33444 C 3078.82 1.49881 -5.12222 0
M  V30 33445 O 3079.04 2.73296 -5.00665 0
M  V30 33446 O 3077.98 1.02818 -5.93053 0
M  V30 33447 H 3081.8 -0.496847 -2.99608 0
M  V30 33448 H 3079.39 -0.309008 -1.46169 0
M  V30 33449 H 3081.27 1.82027 -3.80058 0
M  V30 33450 H 3079.95 1.91663 -2.60858 0
M  V30 33451 H 3078.85 -0.105993 -3.7395 0
M  V30 33452 H 3080.19 -0.119773 -4.92054 0
M  V30 33453 N 3081.84 1.55014 -0.28431 0
M  V30 33454 C 3082.77 2.25854 0.592624 0
M  V30 33455 C 3083.75 1.25199 1.15149 0
M  V30 33456 O 3084.93 1.53938 1.18392 0
M  V30 33457 C 3082.06 2.98664 1.77249 0
M  V30 33458 C 3081.02 4.06326 1.34475 0
M  V30 33459 C 3080.34 4.66759 2.60845 0
M  V30 33460 C 3081.64 5.20013 0.488196 0
M  V30 33461 H 3083.34 2.994 0.00181779 0
M  V30 33462 H 3080.88 1.44 -0.000565714 0
M  V30 33463 H 3082.84 3.46936 2.39193 0
M  V30 33464 H 3081.56 2.22668 2.38927 0
M  V30 33465 H 3080.22 3.58878 0.748456 0
M  V30 33466 H 3079.87 3.87422 3.20801 0
M  V30 33467 H 3079.57 5.39459 2.32933 0
M  V30 33468 H 3081.09 5.17785 3.23621 0
M  V30 33469 H 3082.51 5.64282 1.01288 0
M  V30 33470 H 3080.9 5.99332 0.303564 0
M  V30 33471 H 3081.97 4.8241 -0.490812 0
M  V30 33472 N 3083.32 0.0117398 1.57596 0
M  V30 33473 C 3084.23 -0.991927 2.12598 0
M  V30 33474 C 3085.24 -1.36897 1.07402 0
M  V30 33475 O 3086.42 -1.45392 1.39367 0
M  V30 33476 C 3083.48 -2.26136 2.628 0
M  V30 33477 C 3082.54 -1.94635 3.82643 0
M  V30 33478 C 3081.78 -3.15526 4.30441 0
M  V30 33479 O 3082 -4.27607 3.77503 0
M  V30 33480 O 3080.93 -2.98837 5.22475 0
M  V30 33481 H 3084.76 -0.554319 2.98598 0
M  V30 33482 H 3082.35 -0.207813 1.47948 0
M  V30 33483 H 3084.23 -3.0069 2.95235 0
M  V30 33484 H 3082.9 -2.69111 1.79891 0
M  V30 33485 H 3081.81 -1.1752 3.55162 0
M  V30 33486 H 3083.14 -1.56488 4.66661 0
M  V30 33487 N 3084.79 -1.55421 -0.261185 0
M  V30 33488 C 3086.04 -1.75786 -0.989042 0
M  V30 33489 C 3086.36 -0.572994 -1.87019 0
M  V30 33490 O 3087.56 -0.659335 -2.63372 0
M  V30 33491 C 3086.02 -3.1116 -1.80852 0
M  V30 33492 C 3085.63 -4.37251 -0.975458 0
M  V30 33493 C 3087.37 -3.40871 -2.52997 0
M  V30 33494 C 3085.28 -5.6366 -1.79 0
M  V30 33495 H 3084.21 -0.655272 -0.373007 0
M  V30 33496 H 3086.86 -1.81867 -0.244235 0
M  V30 33497 H 3085.24 -2.99148 -2.59473 0
M  V30 33498 H 3086.41 -4.60213 -0.23258 0
M  V30 33499 H 3084.73 -4.14771 -0.36801 0
M  V30 33500 H 3087.33 -4.32526 -3.14365 0
M  V30 33501 H 3087.67 -2.6154 -3.23886 0
M  V30 33502 H 3088.2 -3.54034 -1.81396 0
M  V30 33503 H 3084.94 -6.45772 -1.1251 0
M  V30 33504 H 3084.46 -5.44823 -2.50854 0
M  V30 33505 H 3086.14 -6.02395 -2.36072 0
M  V30 33506 N 3086.27 0.526227 -1.48555 0
M  V30 33507 C 3087.2 1.64647 -1.59449 0
M  V30 33508 C 3088.22 1.55608 -0.478553 0
M  V30 33509 O 3089.41 1.62 -0.749559 0
M  V30 33510 C 3086.51 3.03317 -1.5117 0
M  V30 33511 C 3085.68 3.378 -2.77867 0
M  V30 33512 C 3084.74 4.55766 -2.6299 0
M  V30 33513 O 3083.76 4.58801 -3.36884 0
M  V30 33514 N 3084.97 5.54167 -1.72857 0
M  V30 33515 H 3087.73 1.55738 -2.56058 0
M  V30 33516 H 3085.29 0.71358 -1.45326 0
M  V30 33517 H 3087.28 3.80114 -1.38907 0
M  V30 33518 H 3085.85 3.06284 -0.625201 0
M  V30 33519 H 3085.07 2.50143 -3.04667 0
M  V30 33520 H 3086.36 3.57625 -3.61914 0
M  V30 33521 H 3085.76 5.54496 -1.12031 0
M  V30 33522 H 3084.32 6.30167 -1.66531 0
M  V30 33523 N 3087.75 1.37206 0.775387 0
M  V30 33524 C 3089 1.31952 1.53078 0
M  V30 33525 C 3089.32 -0.0966521 1.9476 0
M  V30 33526 O 3088.59 -1.03991 1.6602 0
M  V30 33527 H 3087.17 0.485454 0.567753 0
M  V30 33528 H 3089.83 1.71655 0.92306 0
M  V30 33529 H 3088.93 1.95618 2.43187 0
M  V30 33530 N 3089.23 -1.00115 1.21716 0
M  V30 33531 C 3090.18 -2.08967 0.979874 0
M  V30 33532 C 3091.15 -1.65825 -0.0955033 0
M  V30 33533 O 3092.33 -1.90728 0.0524077 0
M  V30 33534 C 3089.47 -3.40611 0.554817 0
M  V30 33535 C 3088.58 -3.97142 1.70006 0
M  V30 33536 C 3087.72 -5.16911 1.22379 0
M  V30 33537 C 3086.76 -5.6556 2.34111 0
M  V30 33538 N 3085.89 -6.76575 1.87591 0
M  V30 33539 H 3090.73 -2.28599 1.91171 0
M  V30 33540 H 3088.27 -1.12083 0.952665 0
M  V30 33541 H 3090.23 -4.16194 0.289599 0
M  V30 33542 H 3088.86 -3.21004 -0.340016 0
M  V30 33543 H 3087.91 -3.18509 2.07981 0
M  V30 33544 H 3089.22 -4.29237 2.54082 0
M  V30 33545 H 3088.38 -5.99753 0.915463 0
M  V30 33546 H 3087.12 -4.8642 0.353131 0
M  V30 33547 H 3086.12 -4.81312 2.65743 0
M  V30 33548 H 3087.35 -5.98079 3.2168 0
M  V30 33549 H 3085.29 -6.47883 1.02874 0
M  V30 33550 H 3085.21 -7.07944 2.65237 0
M  V30 33551 H 3086.48 -7.62944 1.59803 0
M  V30 33552 N 3090.71 -1.02553 -1.19669 0
M  V30 33553 C 3091.64 -0.624004 -2.25008 0
M  V30 33554 C 3092.62 0.365351 -1.6613 0
M  V30 33555 O 3093.8 0.248809 -1.926 0
M  V30 33556 C 3090.93 0.0294259 -3.47288 0
M  V30 33557 C 3089.89 -0.881854 -4.18817 0
M  V30 33558 C 3089.21 -0.0937128 -5.34618 0
M  V30 33559 C 3090.51 -2.19405 -4.73982 0
M  V30 33560 H 3092.21 -1.50459 -2.58849 0
M  V30 33561 H 3089.75 -0.724893 -1.24424 0
M  V30 33562 H 3091.71 0.321943 -4.20168 0
M  V30 33563 H 3090.43 0.944783 -3.12636 0
M  V30 33564 H 3089.09 -1.15851 -3.47813 0
M  V30 33565 H 3088.74 0.823574 -4.96212 0
M  V30 33566 H 3088.44 -0.70067 -5.83408 0
M  V30 33567 H 3089.96 0.192142 -6.10298 0
M  V30 33568 H 3091.38 -1.96329 -5.38635 0
M  V30 33569 H 3089.77 -2.75263 -5.33245 0
M  V30 33570 H 3090.84 -2.85099 -3.92233 0
M  V30 33571 N 3092.19 1.35612 -0.802945 0
M  V30 33572 C 3093.6 1.81367 -0.443035 0
M  V30 33573 C 3093.95 1.66707 1.03456 0
M  V30 33574 O 3093.07 1.19564 1.8037 0
M  V30 33575 C 3093.67 3.29283 -0.797382 0
M  V30 33576 C 3092.23 3.73195 -0.49012 0
M  V30 33577 C 3091.37 2.57664 -1.02491 0
M  V30 33578 H 3094.32 1.23642 -0.99491 0
M  V30 33579 H 3094.35 3.80385 -0.0935307 0
M  V30 33580 H 3093.86 3.39921 -1.87284 0
M  V30 33581 H 3091.96 3.68109 0.576754 0
M  V30 33582 H 3092.07 4.68112 -1.0202 0
M  V30 33583 H 3090.44 2.50739 -0.447424 0
M  V30 33584 H 3091.22 2.71081 -2.10641 0
M  V30 33585 N 3093.66 0.556128 1.47462 0
M  V30 33586 C 3094.94 -0.0339548 1.95571 0
M  V30 33587 C 3095.32 -1.48666 1.49872 0
M  V30 33588 O 3094.67 -2.16286 0.737057 0
M  V30 33589 C 3094.88 0.110404 3.48825 0
M  V30 33590 C 3096.23 -0.035497 4.24585 0
M  V30 33591 O 3097.25 0.0378982 3.5618 0
M  V30 33592 O 3096.11 -0.193203 5.46158 0
M  V30 33593 H 3093.2 -0.0647376 0.824462 0
M  V30 33594 H 3095.75 0.622575 1.57867 0
M  V30 33595 H 3094.52 1.12133 3.74889 0
M  V30 33596 H 3094.14 -0.583786 3.93291 0
M  V30 33597 N 3095.14 -1.54861 0.292527 0
M  V30 33598 C 3096.55 -1.85606 -0.201808 0
M  V30 33599 C 3096.9 -1.21451 -1.54091 0
M  V30 33600 O 3096.03 -0.509116 -2.10326 0
M  V30 33601 C 3096.62 -3.36741 -0.372952 0
M  V30 33602 C 3095.18 -3.67548 -0.81151 0
M  V30 33603 C 3094.33 -2.77169 0.085107 0
M  V30 33604 H 3097.28 -1.50153 0.5138 0
M  V30 33605 H 3097.3 -3.60787 -1.20885 0
M  V30 33606 H 3096.81 -3.83405 0.601818 0
M  V30 33607 H 3094.91 -3.26395 -1.79713 0
M  V30 33608 H 3095.03 -4.7485 -0.636769 0
M  V30 33609 H 3093.39 -2.50972 -0.43418 0
M  V30 33610 H 3094.17 -3.26653 1.05608 0
M  V30 33611 N 3096.62 -0.0200973 -1.57587 0
M  V30 33612 C 3097.87 0.66147 -1.91709 0
M  V30 33613 C 3098.2 1.72295 -0.895998 0
M  V30 33614 O 3097.47 1.94325 0.0825428 0
M  V30 33615 C 3097.76 1.28621 -3.36346 0
M  V30 33616 C 3097.61 0.234903 -4.49186 0
M  V30 33617 C 3098.93 2.20678 -3.80774 0
M  V30 33618 H 3096.05 0.238992 -0.697174 0
M  V30 33619 H 3098.69 -0.0755098 -1.8985 0
M  V30 33620 H 3096.84 1.91433 -3.38061 0
M  V30 33621 H 3098.51 -0.395091 -4.59605 0
M  V30 33622 H 3096.75 -0.440641 -4.31556 0
M  V30 33623 H 3097.43 0.711462 -5.47396 0
M  V30 33624 H 3099.9 1.67862 -3.80738 0
M  V30 33625 H 3098.78 2.61347 -4.82689 0
M  V30 33626 H 3099.04 3.09423 -3.15769 0
M  V30 33627 N 3098.1 1.55557 0.252939 0
M  V30 33628 C 3099.04 1.89808 1.31307 0
M  V30 33629 C 3100.01 0.751659 1.48119 0
M  V30 33630 O 3101.2 1.00477 1.62201 0
M  V30 33631 C 3098.34 2.19298 2.66463 0
M  V30 33632 C 3097.45 3.46714 2.57708 0
M  V30 33633 C 3096.59 3.65803 3.85177 0
M  V30 33634 C 3095.63 4.86841 3.71015 0
M  V30 33635 N 3094.76 5.02483 4.90363 0
M  V30 33636 H 3099.6 2.80219 1.01397 0
M  V30 33637 H 3097.14 1.38719 0.489438 0
M  V30 33638 H 3099.1 2.34399 3.45128 0
M  V30 33639 H 3097.73 1.32098 2.94533 0
M  V30 33640 H 3096.78 3.39977 1.70645 0
M  V30 33641 H 3098.09 4.35522 2.43151 0
M  V30 33642 H 3097.25 3.8083 4.72285 0
M  V30 33643 H 3095.99 2.75217 4.02625 0
M  V30 33644 H 3094.99 4.71797 2.8229 0
M  V30 33645 H 3096.22 5.78882 3.55068 0
M  V30 33646 H 3094.16 4.14833 5.08183 0
M  V30 33647 H 3094.08 5.85369 4.78413 0
M  V30 33648 H 3095.35 5.21916 5.78986 0
M  V30 33649 N 3099.58 -0.518341 1.48832 0
M  V30 33650 C 3100.49 -1.64845 1.66923 0
M  V30 33651 C 3101.5 -1.65021 0.55174 0
M  V30 33652 O 3102.68 -1.83759 0.824284 0
M  V30 33653 C 3099.74 -3.01275 1.71564 0
M  V30 33654 C 3098.8 -3.11863 2.95025 0
M  V30 33655 C 3098.04 -4.41785 2.99436 0
M  V30 33656 O 3098.26 -5.2957 2.11923 0
M  V30 33657 O 3097.19 -4.56983 3.91727 0
M  V30 33658 H 3101.02 -1.52517 2.62626 0
M  V30 33659 H 3098.6 -0.692726 1.32369 0
M  V30 33660 H 3100.49 -3.82392 1.77071 0
M  V30 33661 H 3099.16 -3.13903 0.790371 0
M  V30 33662 H 3098.07 -2.29997 2.95046 0
M  V30 33663 H 3099.4 -3.04156 3.86976 0
M  V30 33664 N 3101.05 -1.37615 -0.7681 0
M  V30 33665 C 3102.28 -1.3603 -1.55498 0
M  V30 33666 C 3102.69 0.0553941 -1.89119 0
M  V30 33667 O 3102.03 1.02856 -1.52205 0
M  V30 33668 C 3102.1 -2.13744 -2.89057 0
M  V30 33669 C 3101.76 -3.62679 -2.78052 0
M  V30 33670 C 3102.76 -4.56485 -2.48833 0
M  V30 33671 C 3100.44 -4.05849 -2.95959 0
M  V30 33672 C 3102.44 -5.91438 -2.37655 0
M  V30 33673 C 3100.12 -5.40887 -2.84402 0
M  V30 33674 C 3101.12 -6.33495 -2.5529 0
M  V30 33675 O 3100.81 -7.66051 -2.43765 0
M  V30 33676 H 3100.54 -0.467529 -0.488254 0
M  V30 33677 H 3103.1 -1.81609 -0.959551 0
M  V30 33678 H 3101.33 -1.6286 -3.50733 0
M  V30 33679 H 3103.01 -2.04747 -3.50476 0
M  V30 33680 H 3103.78 -4.24441 -2.3468 0
M  V30 33681 H 3099.66 -3.34124 -3.17619 0
M  V30 33682 H 3103.2 -6.6369 -2.14853 0
M  V30 33683 H 3099.1 -5.72532 -2.98123 0
M  V30 33684 H 3099.87 -7.76412 -2.59087 0
M  V30 33685 N 3102.53 0.994677 -1.22245 0
M  V30 33686 C 3103.78 1.73054 -1.04387 0
M  V30 33687 C 3104.1 1.90375 0.422171 0
M  V30 33688 O 3103.37 1.46211 1.30381 0
M  V30 33689 H 3101.95 0.641179 -0.383274 0
M  V30 33690 H 3104.61 1.19808 -1.53728 0
M  V30 33691 H 3103.71 2.7257 -1.52026 0
M  V30 33692 N 3104.01 1.03186 1.19123 0
M  V30 33693 C 3105.25 0.738819 1.9058 0
M  V30 33694 C 3105.61 -0.719596 1.78005 0
M  V30 33695 O 3106.81 -1.12585 2.44086 0
M  V30 33696 C 3105.09 1.1812 3.37317 0
M  V30 33697 S 3106.64 1.01245 4.2696 0
M  V30 33698 H 3103.46 0.268887 0.658195 0
M  V30 33699 H 3106.06 1.32231 1.43997 0
M  V30 33700 H 3104.77 2.2382 3.43995 0
M  V30 33701 H 3104.3 0.59112 3.88934 0
M  V30 33702 H 3106.31 -0.0752686 4.96143 0
M  V30 33703 N 3105.49 -1.35184 0.810125 0
M  V30 33704 C 3106.45 -2.28058 0.22856 0
M  V30 33705 C 3107.45 -1.49736 -0.586142 0
M  V30 33706 O 3108.64 -1.69448 -0.40411 0
M  V30 33707 C 3105.77 -3.34029 -0.680983 0
M  V30 33708 H 3106.97 -2.81003 1.04773 0
M  V30 33709 H 3104.52 -1.45099 0.581036 0
M  V30 33710 H 3105.25 -2.86276 -1.5237 0
M  V30 33711 H 3105.04 -3.91976 -0.0984587 0
M  V30 33712 H 3106.53 -4.03337 -1.08209 0
M  V30 33713 N 3106.97 -0.56394 -1.47165 0
M  V30 33714 C 3108.38 -0.13234 -1.8623 0
M  V30 33715 C 3108.73 1.29969 -1.46978 0
M  V30 33716 O 3107.85 1.97879 -0.875946 0
M  V30 33717 C 3108.45 -0.233394 -3.37995 0
M  V30 33718 C 3107.01 0.143212 -3.76127 0
M  V30 33719 C 3106.15 -0.577905 -2.71211 0
M  V30 33720 H 3109.11 -0.773273 -1.38586 0
M  V30 33721 H 3109.13 0.546243 -3.76559 0
M  V30 33722 H 3108.64 -1.27574 -3.66533 0
M  V30 33723 H 3106.74 1.18641 -3.53207 0
M  V30 33724 H 3106.85 -0.220036 -4.78594 0
M  V30 33725 H 3105.22 -0.0202308 -2.54692 0
M  V30 33726 H 3106 -1.62154 -3.0259 0
M  V30 33727 N 3108.44 1.54704 -0.300735 0
M  V30 33728 C 3109.69 2.01146 0.301947 0
M  V30 33729 C 3110.05 1.1854 1.51546 0
M  V30 33730 O 3109.34 0.253689 1.89913 0
M  V30 33731 C 3109.53 3.50276 0.710046 0
M  V30 33732 C 3109.36 4.47317 -0.46237 0
M  V30 33733 C 3108.13 4.96207 -0.954301 0
M  V30 33734 C 3110.33 4.97409 -1.30725 0
M  V30 33735 N 3108.31 5.77101 -2.09351 0
M  V30 33736 C 3109.68 5.76002 -2.29394 0
M  V30 33737 C 3111.74 4.79595 -1.33765 0
M  V30 33738 C 3110.44 6.38679 -3.30881 0
M  V30 33739 C 3112.47 5.4309 -2.34109 0
M  V30 33740 C 3111.83 6.21515 -3.31508 0
M  V30 33741 H 3107.93 0.778399 0.0749572 0
M  V30 33742 H 3110.51 1.89879 -0.43059 0
M  V30 33743 H 3108.68 3.61834 1.41176 0
M  V30 33744 H 3110.41 3.83514 1.29224 0
M  V30 33745 H 3107.17 4.70633 -0.529321 0
M  V30 33746 H 3107.59 6.22232 -2.6675 0
M  V30 33747 H 3112.24 4.18545 -0.598358 0
M  V30 33748 H 3109.95 6.98863 -4.05729 0
M  V30 33749 H 3113.54 5.31235 -2.37235 0
M  V30 33750 H 3112.42 6.69777 -4.07883 0
M  V30 33751 N 3109.92 0.0284543 1.57574 0
M  V30 33752 C 3111.33 -0.510471 1.79586 0
M  V30 33753 C 3111.68 -1.7229 0.938656 0
M  V30 33754 O 3110.81 -2.15887 0.148878 0
M  V30 33755 C 3111.4 -0.932855 3.25704 0
M  V30 33756 C 3109.96 -1.4169 3.48713 0
M  V30 33757 C 3109.11 -0.381308 2.74666 0
M  V30 33758 H 3112.06 0.254492 1.56646 0
M  V30 33759 H 3112.08 -1.79726 3.35379 0
M  V30 33760 H 3111.59 -0.0502353 3.88067 0
M  V30 33761 H 3109.7 -2.31947 2.91602 0
M  V30 33762 H 3109.81 -1.42473 4.57426 0
M  V30 33763 H 3108.17 -0.849258 2.40124 0
M  V30 33764 H 3108.96 0.492835 3.39744 0
M  V30 33765 N 3111.4 -1.55689 -0.244686 0
M  V30 33766 C 3112.33 -1.85476 -1.32943 0
M  V30 33767 C 3113.31 -0.710047 -1.46277 0
M  V30 33768 O 3114.5 -0.956032 -1.62457 0
M  V30 33769 C 3111.62 -2.04142 -2.70266 0
M  V30 33770 C 3110.67 -3.26785 -2.74069 0
M  V30 33771 S 3111.5 -4.83374 -2.30456 0
M  V30 33772 C 3112.66 -5.05047 -3.697 0
M  V30 33773 H 3112.89 -2.77193 -1.07477 0
M  V30 33774 H 3110.42 -1.47825 -0.445781 0
M  V30 33775 H 3112.38 -2.1558 -3.49336 0
M  V30 33776 H 3111.04 -1.13264 -2.92968 0
M  V30 33777 H 3110.24 -3.36818 -3.74926 0
M  V30 33778 H 3109.84 -3.14084 -2.03045 0
M  V30 33779 H 3112.13 -4.92527 -4.65214 0
M  V30 33780 H 3113.07 -6.0702 -3.64599 0
M  V30 33781 H 3113.48 -4.32883 -3.62315 0
M  V30 33782 N 3112.88 0.510441 -1.49105 0
M  V30 33783 C 3114.12 1.26703 -1.58349 0
M  V30 33784 C 3114.46 1.92381 -0.265155 0
M  V30 33785 O 3113.73 1.8026 0.730526 0
M  V30 33786 C 3114.02 2.34133 -2.73594 0
M  V30 33787 C 3113.87 1.73017 -4.15193 0
M  V30 33788 C 3115.19 3.35765 -2.84517 0
M  V30 33789 H 3112.31 0.459301 -0.576378 0
M  V30 33790 H 3114.95 0.566626 -1.81354 0
M  V30 33791 H 3113.1 2.93872 -2.5411 0
M  V30 33792 H 3114.77 1.17178 -4.46169 0
M  V30 33793 H 3113.01 1.03466 -4.21281 0
M  V30 33794 H 3113.68 2.50894 -4.91687 0
M  V30 33795 H 3116.16 2.86006 -3.02225 0
M  V30 33796 H 3115.04 4.08306 -3.66848 0
M  V30 33797 H 3115.3 3.97516 -1.93478 0
M  V30 33798 N 3114.36 1.38021 0.760791 0
M  V30 33799 C 3115.27 1.36887 1.90523 0
M  V30 33800 C 3116.28 0.266938 1.7194 0
M  V30 33801 O 3117.46 0.504164 1.94988 0
M  V30 33802 C 3114.52 1.18564 3.25797 0
M  V30 33803 C 3113.58 2.38496 3.56956 0
M  V30 33804 C 3112.82 2.21038 4.85776 0
M  V30 33805 O 3113.04 1.20033 5.57627 0
M  V30 33806 O 3111.97 3.09469 5.16248 0
M  V30 33807 H 3115.8 2.33302 1.94433 0
M  V30 33808 H 3113.39 1.18865 0.90507 0
M  V30 33809 H 3115.27 1.10377 4.06688 0
M  V30 33810 H 3113.94 0.252298 3.22715 0
M  V30 33811 H 3112.85 2.52257 2.76256 0
M  V30 33812 H 3114.18 3.30436 3.64792 0
M  V30 33813 N 3115.83 -0.98818 1.22771 0
M  V30 33814 C 3116.78 -2.07916 1.00198 0
M  V30 33815 C 3117.75 -1.65917 -0.0779099 0
M  V30 33816 O 3118.94 -1.90662 0.072634 0
M  V30 33817 C 3116.08 -3.40003 0.590913 0
M  V30 33818 C 3115.19 -3.95317 1.74209 0
M  V30 33819 C 3114.32 -5.15584 1.27855 0
M  V30 33820 C 3113.36 -5.63045 2.40097 0
M  V30 33821 N 3112.5 -6.74548 1.94756 0
M  V30 33822 H 3117.34 -2.26559 1.93585 0
M  V30 33823 H 3114.88 -1.11067 0.964499 0
M  V30 33824 H 3116.84 -4.15863 0.333726 0
M  V30 33825 H 3115.47 -3.21347 -0.30595 0
M  V30 33826 H 3114.52 -3.16285 2.11348 0
M  V30 33827 H 3115.83 -4.26517 2.5862 0
M  V30 33828 H 3114.98 -5.98749 0.979024 0
M  V30 33829 H 3113.72 -4.86018 0.404702 0
M  V30 33830 H 3112.73 -4.78466 2.70833 0
M  V30 33831 H 3113.95 -5.94634 3.28005 0
M  V30 33832 H 3111.9 -6.46756 1.0974 0
M  V30 33833 H 3111.82 -7.05091 2.72731 0
M  V30 33834 H 3113.08 -7.61206 1.67886 0
M  V30 33835 N 3117.31 -1.03816 -1.18575 0
M  V30 33836 C 3118.24 -0.647834 -2.24333 0
M  V30 33837 C 3119.22 0.34771 -1.66508 0
M  V30 33838 O 3120.41 0.228367 -1.92853 0
M  V30 33839 C 3117.54 -0.00741027 -3.47299 0
M  V30 33840 C 3116.49 -0.926226 -4.17858 0
M  V30 33841 C 3115.82 -0.150411 -5.34488 0
M  V30 33842 C 3117.12 -2.2442 -4.71628 0
M  V30 33843 H 3118.81 -1.53196 -2.57238 0
M  V30 33844 H 3116.36 -0.738049 -1.23648 0
M  V30 33845 H 3118.31 0.27736 -4.20486 0
M  V30 33846 H 3117.04 0.911571 -3.13621 0
M  V30 33847 H 3115.69 -1.19534 -3.46565 0
M  V30 33848 H 3115.34 0.770897 -4.97058 0
M  V30 33849 H 3115.04 -0.762509 -5.82632 0
M  V30 33850 H 3116.57 0.127401 -6.10467 0
M  V30 33851 H 3117.98 -2.02031 -5.36523 0
M  V30 33852 H 3116.38 -2.80904 -5.30295 0
M  V30 33853 H 3117.45 -2.89243 -3.89187 0
M  V30 33854 N 3118.79 1.34753 -0.817283 0
M  V30 33855 C 3120.04 1.97712 -0.399115 0
M  V30 33856 C 3120.35 1.65535 1.042 0
M  V30 33857 O 3121.56 2.2194 1.5638 0
M  V30 33858 C 3120.01 3.53746 -0.662696 0
M  V30 33859 C 3119.62 3.94822 -2.11706 0
M  V30 33860 C 3121.37 4.23364 -0.310414 0
M  V30 33861 C 3119.27 5.43746 -2.32582 0
M  V30 33862 H 3118.2 0.739828 -0.145501 0
M  V30 33863 H 3120.85 1.53673 -1.00284 0
M  V30 33864 H 3119.24 3.95998 0.0111276 0
M  V30 33865 H 3120.41 3.63692 -2.82957 0
M  V30 33866 H 3118.73 3.38125 -2.43023 0
M  V30 33867 H 3121.32 5.32851 -0.444304 0
M  V30 33868 H 3121.67 4.09588 0.744522 0
M  V30 33869 H 3122.2 3.86569 -0.938586 0
M  V30 33870 H 3118.94 5.62501 -3.36561 0
M  V30 33871 H 3118.46 5.7641 -1.65868 0
M  V30 33872 H 3120.14 6.10352 -2.14662 0
M  V30 33873 N 3120.27 0.571737 1.46864 0
M  V30 33874 C 3121.22 -0.167767 2.30189 0
M  V30 33875 C 3122.19 -0.894585 1.39951 0
M  V30 33876 O 3123.37 -0.887421 1.68907 0
M  V30 33877 C 3120.51 -1.18254 3.24207 0
M  V30 33878 C 3119.62 -0.4603 4.29541 0
M  V30 33879 C 3118.76 -1.46164 5.10695 0
M  V30 33880 C 3117.8 -0.725184 6.07789 0
M  V30 33881 N 3116.94 -1.67405 6.8185 0
M  V30 33882 H 3121.78 0.548882 2.92901 0
M  V30 33883 H 3119.31 0.282499 1.44362 0
M  V30 33884 H 3121.27 -1.78364 3.7715 0
M  V30 33885 H 3119.9 -1.86704 2.63327 0
M  V30 33886 H 3118.95 0.255612 3.7954 0
M  V30 33887 H 3120.26 0.115942 4.98665 0
M  V30 33888 H 3119.42 -2.13585 5.67861 0
M  V30 33889 H 3118.16 -2.07181 4.41506 0
M  V30 33890 H 3117.16 -0.0371314 5.49787 0
M  V30 33891 H 3118.39 -0.120559 6.78993 0
M  V30 33892 H 3116.33 -2.27252 6.1538 0
M  V30 33893 H 3116.25 -1.15033 7.47197 0
M  V30 33894 H 3117.52 -2.33895 7.43581 0
M  V30 33895 N 3121.75 -1.54542 0.308935 0
M  V30 33896 C 3122.68 -2.21277 -0.597414 0
M  V30 33897 C 3123.69 -1.20803 -1.09135 0
M  V30 33898 O 3124.88 -1.47353 -1.00744 0
M  V30 33899 C 3121.98 -2.85193 -1.8308 0
M  V30 33900 C 3121.15 -4.11671 -1.47803 0
M  V30 33901 C 3120.21 -4.59316 -2.5674 0
M  V30 33902 O 3119.24 -5.24335 -2.21498 0
M  V30 33903 N 3120.44 -4.32304 -3.87419 0
M  V30 33904 H 3123.21 -2.99689 -0.0260656 0
M  V30 33905 H 3120.77 -1.61365 0.131484 0
M  V30 33906 H 3122.76 -3.13996 -2.5532 0
M  V30 33907 H 3121.33 -2.10574 -2.31035 0
M  V30 33908 H 3120.55 -3.89791 -0.587905 0
M  V30 33909 H 3121.84 -4.94011 -1.21782 0
M  V30 33910 H 3121.24 -3.80231 -4.18856 0
M  V30 33911 H 3119.79 -4.65798 -4.55934 0
M  V30 33912 N 3123.23 -0.0368104 -1.57557 0
M  V30 33913 C 3124.47 0.644218 -1.93982 0
M  V30 33914 C 3124.83 1.68849 -0.914012 0
M  V30 33915 O 3126.03 2.42255 -1.16472 0
M  V30 33916 C 3124.3 1.23773 -3.35283 0
M  V30 33917 S 3125.86 1.93876 -3.93646 0
M  V30 33918 H 3122.68 0.211908 -0.678687 0
M  V30 33919 H 3125.28 -0.102315 -1.95232 0
M  V30 33920 H 3123.98 0.46538 -4.07753 0
M  V30 33921 H 3123.52 2.0214 -3.37495 0
M  V30 33922 H 3125.53 3.21797 -3.77705 0
M  V30 33923 N 3124.7 1.55817 0.236426 0
M  V30 33924 C 3125.63 1.94208 1.29636 0
M  V30 33925 C 3126.61 0.808346 1.49666 0
M  V30 33926 O 3127.8 1.06947 1.62098 0
M  V30 33927 C 3124.93 2.24589 2.6491 0
M  V30 33928 C 3123.88 3.40313 2.59559 0
M  V30 33929 C 3123.21 3.56261 3.98726 0
M  V30 33930 C 3124.51 4.7571 2.15633 0
M  V30 33931 H 3126.2 2.82993 0.977503 0
M  V30 33932 H 3123.75 1.36156 0.46878 0
M  V30 33933 H 3125.7 2.50037 3.39204 0
M  V30 33934 H 3124.43 1.32641 2.98453 0
M  V30 33935 H 3123.09 3.1489 1.87722 0
M  V30 33936 H 3122.73 2.61715 4.29551 0
M  V30 33937 H 3122.43 4.34089 3.96031 0
M  V30 33938 H 3123.96 3.84041 4.74705 0
M  V30 33939 H 3125.37 5.00461 2.79664 0
M  V30 33940 H 3123.77 5.56714 2.24029 0
M  V30 33941 H 3124.84 4.72066 1.10822 0
M  V30 33942 N 3126.18 -0.502526 1.49373 0
M  V30 33943 C 3127.13 -1.60424 1.6593 0
M  V30 33944 C 3128.1 -1.58371 0.500795 0
M  V30 33945 O 3129.28 -1.76381 0.727637 0
M  V30 33946 C 3126.42 -2.98577 1.73049 0
M  V30 33947 C 3125.54 -3.10658 3.00193 0
M  V30 33948 C 3124.67 -4.39535 2.983 0
M  V30 33949 C 3123.71 -4.45243 4.2003 0
M  V30 33950 N 3122.85 -5.65546 4.16056 0
M  V30 33951 H 3127.69 -1.45614 2.60001 0
M  V30 33952 H 3125.22 -0.708497 1.28914 0
M  V30 33953 H 3127.18 -3.7865 1.75157 0
M  V30 33954 H 3125.81 -3.12094 0.824452 0
M  V30 33955 H 3124.86 -2.23658 3.07703 0
M  V30 33956 H 3126.18 -3.10735 3.90186 0
M  V30 33957 H 3125.33 -5.27927 2.98962 0
M  V30 33958 H 3124.07 -4.4202 2.06082 0
M  V30 33959 H 3123.07 -3.55253 4.19613 0
M  V30 33960 H 3124.3 -4.44475 5.13438 0
M  V30 33961 H 3122.25 -5.68876 3.26675 0
M  V30 33962 H 3122.16 -5.67233 4.99783 0
M  V30 33963 H 3123.43 -6.56149 4.20819 0
M  V30 33964 N 3127.66 -1.38422 -0.75346 0
M  V30 33965 C 3128.57 -1.37896 -1.89795 0
M  V30 33966 C 3129.59 -0.276053 -1.71796 0
M  V30 33967 O 3130.76 -0.514498 -1.94717 0
M  V30 33968 C 3127.83 -1.2029 -3.25163 0
M  V30 33969 C 3126.89 -2.40386 -3.55687 0
M  V30 33970 C 3126.12 -2.23611 -4.84597 0
M  V30 33971 O 3126.34 -1.22988 -5.56983 0
M  V30 33972 O 3125.28 -3.12203 -5.146 0
M  V30 33973 H 3129.1 -2.34329 -1.93193 0
M  V30 33974 H 3126.69 -1.19343 -0.898754 0
M  V30 33975 H 3128.57 -1.12532 -4.06097 0
M  V30 33976 H 3127.25 -0.269409 -3.22577 0
M  V30 33977 H 3126.15 -2.53718 -2.74914 0
M  V30 33978 H 3127.49 -3.32366 -3.63034 0
M  V30 33979 N 3129.14 0.981655 -1.23294 0
M  V30 33980 C 3130.09 2.09507 -1.01043 0
M  V30 33981 C 3131.08 1.69326 0.0501679 0
M  V30 33982 O 3132.29 1.79704 -0.103228 0
M  V30 33983 H 3128.66 0.685293 -0.309641 0
M  V30 33984 H 3130.63 2.25441 -1.95497 0
M  V30 33985 C 3129.38 3.42183 -0.616945 0
M  V30 33986 H 3128.7 3.73551 -1.42477 0
M  V30 33987 H 3130.14 4.21033 -0.500762 0
M  V30 33988 C 3128.6 3.30076 0.674663 0
M  V30 33989 O 3129.13 3.62817 1.72414 0
M  V30 33990 N 3127.34 2.83235 0.650102 0
M  V30 33991 H 3126.89 2.56789 -0.20427 0
M  V30 33992 H 3126.84 2.75516 1.51454 0
M  V30 33993 N 3130.62 1.04444 1.18022 0
M  V30 33994 C 3132.03 0.777342 1.69748 0
M  V30 33995 C 3132.38 -0.701366 1.83236 0
M  V30 33996 O 3131.5 -1.54565 1.51455 0
M  V30 33997 C 3132.1 1.40446 3.08319 0
M  V30 33998 C 3130.66 1.18559 3.5724 0
M  V30 33999 C 3129.8 1.49275 2.33693 0
M  V30 34000 H 3132.75 1.21036 1.02645 0
M  V30 34001 H 3132.78 0.809694 3.71785 0
M  V30 34002 H 3132.29 2.48067 2.9847 0
M  V30 34003 H 3130.39 0.128287 3.72379 0
M  V30 34004 H 3130.5 1.88526 4.40448 0
M  V30 34005 H 3128.87 0.912568 2.3779 0
M  V30 34006 H 3129.65 2.58014 2.26459 0
M  V30 34007 N 3132.09 -1.34317 0.824418 0
M  V30 34008 C 3133.03 -2.28283 0.204845 0
M  V30 34009 C 3134.04 -1.51095 -0.606136 0
M  V30 34010 O 3135.23 -1.73104 -0.435572 0
M  V30 34011 C 3132.33 -3.30915 -0.731332 0
M  V30 34012 C 3131.5 -4.37384 0.0371491 0
M  V30 34013 C 3130.56 -5.19769 -0.82018 0
M  V30 34014 O 3129.59 -5.68585 -0.264621 0
M  V30 34015 N 3130.79 -5.39625 -2.13975 0
M  V30 34016 H 3133.55 -2.82092 1.01215 0
M  V30 34017 H 3131.11 -1.46857 0.681519 0
M  V30 34018 H 3133.11 -3.82928 -1.30951 0
M  V30 34019 H 3131.68 -2.7749 -1.43938 0
M  V30 34020 H 3130.9 -3.86066 0.796646 0
M  V30 34021 H 3132.18 -5.05641 0.566103 0
M  V30 34022 H 3131.58 -5.01641 -2.61483 0
M  V30 34023 H 3130.14 -5.9475 -2.66675 0
M  V30 34024 N 3133.57 -0.579517 -1.46558 0
M  V30 34025 C 3134.48 0.158119 -2.34067 0
M  V30 34026 C 3135.5 0.889294 -1.49558 0
M  V30 34027 O 3136.67 0.853193 -1.82435 0
M  V30 34028 C 3133.74 1.16094 -3.26685 0
M  V30 34029 C 3132.8 0.43478 -4.27093 0
M  V30 34030 C 3132.03 1.38983 -5.15286 0
M  V30 34031 O 3132.26 2.62615 -5.06349 0
M  V30 34032 O 3131.19 0.902149 -5.95101 0
M  V30 34033 H 3135.02 -0.560286 -2.98487 0
M  V30 34034 H 3132.6 -0.339943 -1.45481 0
M  V30 34035 H 3134.48 1.73925 -3.83833 0
M  V30 34036 H 3133.16 1.86087 -2.64865 0
M  V30 34037 H 3132.06 -0.185289 -3.73641 0
M  V30 34038 H 3133.4 -0.224118 -4.91689 0
M  V30 34039 N 3135.05 1.54376 -0.317127 0
M  V30 34040 C 3136.47 1.5956 0.035738 0
M  V30 34041 C 3136.67 1.33381 1.51036 0
M  V30 34042 O 3135.72 1.11509 2.26544 0
M  V30 34043 C 3137.04 2.98331 -0.376705 0
M  V30 34044 C 3138.58 3.11289 -0.32682 0
M  V30 34045 C 3139.06 4.52395 -0.714327 0
M  V30 34046 N 3140.55 4.58365 -0.667483 0
M  V30 34047 C 3141.28 5.65649 -0.939594 0
M  V30 34048 N 3140.78 6.80901 -1.27851 0
M  V30 34049 N 3142.57 5.55395 -0.865582 0
M  V30 34050 H 3134.72 1.69651 -1.27797 0
M  V30 34051 H 3136.99 0.793171 -0.519214 0
M  V30 34052 H 3136.69 3.22466 -1.40386 0
M  V30 34053 H 3136.57 3.76292 0.261544 0
M  V30 34054 H 3138.95 2.86893 0.69112 0
M  V30 34055 H 3139.04 2.35447 -0.999915 0
M  V30 34056 H 3138.68 4.77523 -1.73015 0
M  V30 34057 H 3138.61 5.26597 -0.0189888 0
M  V30 34058 H 3141.1 3.75591 -0.417128 0
M  V30 34059 H 3141.41 7.58658 -1.47169 0
M  V30 34060 H 3139.76 6.82413 -1.3167 0
M  V30 34061 H 3142.95 4.64234 -0.600346 0
M  V30 34062 H 3143.12 6.3892 -1.08101 0
M  V30 34063 N 3136.53 0.0451655 1.57535 0
M  V30 34064 C 3137.94 -0.491395 1.80117 0
M  V30 34065 C 3138.29 -1.71284 0.956877 0
M  V30 34066 O 3137.42 -2.15717 0.171767 0
M  V30 34067 C 3138.01 -0.898257 3.26675 0
M  V30 34068 C 3136.57 -1.37983 3.50196 0
M  V30 34069 C 3135.72 -0.352154 2.75055 0
M  V30 34070 H 3138.67 0.271092 1.56367 0
M  V30 34071 H 3138.69 -1.76158 3.37266 0
M  V30 34072 H 3138.2 -0.00907278 3.88099 0
M  V30 34073 H 3136.3 -2.28841 2.94045 0
M  V30 34074 H 3136.41 -1.37614 4.58911 0
M  V30 34075 H 3134.78 -0.823742 2.41012 0
M  V30 34076 H 3135.56 0.528841 3.39202 0
M  V30 34077 N 3138.01 -1.5594 -0.228159 0
M  V30 34078 C 3139.23 -1.82722 -0.970586 0
M  V30 34079 C 3139.65 -0.623417 -1.7821 0
M  V30 34080 O 3139.01 0.408032 -1.7788 0
M  V30 34081 C 3139.06 -3.07945 -1.89346 0
M  V30 34082 O 3138.78 -4.2368 -1.11476 0
M  V30 34083 C 3140.28 -3.47666 -2.75033 0
M  V30 34084 H 3137.5 -0.607579 -0.284762 0
M  V30 34085 H 3140.04 -2.03022 -0.245383 0
M  V30 34086 H 3138.2 -2.89639 -2.5727 0
M  V30 34087 H 3138.61 -4.94775 -1.74064 0
M  V30 34088 H 3140.09 -4.3834 -3.35503 0
M  V30 34089 H 3140.56 -2.69113 -3.47095 0
M  V30 34090 H 3141.17 -3.68388 -2.12533 0
M  V30 34091 N 3139.48 0.494597 -1.49638 0
M  V30 34092 C 3140.71 1.27688 -1.63433 0
M  V30 34093 C 3141.13 1.85559 -0.308163 0
M  V30 34094 O 3140.49 1.66171 0.725054 0
M  V30 34095 C 3140.54 2.37835 -2.71048 0
M  V30 34096 O 3139.64 3.41858 -2.30666 0
M  V30 34097 H 3138.99 0.376688 -0.546811 0
M  V30 34098 H 3141.52 0.591378 -1.95867 0
M  V30 34099 H 3141.53 2.83503 -2.93411 0
M  V30 34100 H 3140.2 1.95082 -3.67309 0
M  V30 34101 H 3138.78 3.02065 -2.18658 0
M  V30 34102 N 3140.96 1.3882 0.746109 0
M  V30 34103 C 3141.93 1.36441 1.84165 0
M  V30 34104 C 3142.93 0.263527 1.58626 0
M  V30 34105 O 3144.12 0.52083 1.66232 0
M  V30 34106 C 3141.25 1.12601 3.21767 0
M  V30 34107 H 3142.44 2.33915 1.8768 0
M  V30 34108 H 3139.99 1.24222 0.948603 0
M  V30 34109 H 3140.73 0.157637 3.23917 0
M  V30 34110 H 3140.51 1.92313 3.41699 0
M  V30 34111 H 3142 1.1365 4.01838 0
M  V30 34112 N 3142.44 -0.975103 1.23812 0
M  V30 34113 C 3143.37 -2.07106 0.981815 0
M  V30 34114 C 3144.39 -1.62735 -0.0460925 0
M  V30 34115 O 3145.57 -1.77485 0.19007 0
M  V30 34116 C 3142.67 -3.35785 0.458423 0
M  V30 34117 C 3141.85 -4.09101 1.54774 0
M  V30 34118 C 3140.91 -5.16055 1.02829 0
M  V30 34119 O 3139.93 -5.42641 1.71841 0
M  V30 34120 N 3141.13 -5.80328 -0.141141 0
M  V30 34121 H 3143.9 -2.2967 1.92541 0
M  V30 34122 H 3141.46 -1.14219 1.14742 0
M  V30 34123 H 3143.45 -4.04587 0.0958397 0
M  V30 34124 H 3142.02 -3.10149 -0.390714 0
M  V30 34125 H 3141.24 -3.3468 2.08285 0
M  V30 34126 H 3142.53 -4.54849 2.28014 0
M  V30 34127 H 3141.93 -5.61121 -0.718283 0
M  V30 34128 H 3140.49 -6.5028 -0.444938 0
M  V30 34129 N 3143.92 -1.05068 -1.17467 0
M  V30 34130 C 3145.16 -0.761146 -1.87975 0
M  V30 34131 C 3145.5 0.709963 -1.80757 0
M  V30 34132 O 3144.77 1.51904 -1.21472 0
M  V30 34133 C 3145.06 -1.24066 -3.38053 0
M  V30 34134 C 3144.91 -2.77461 -3.54027 0
M  V30 34135 C 3146.23 -0.838688 -4.32035 0
M  V30 34136 H 3143.35 -0.277975 -0.682568 0
M  V30 34137 H 3145.99 -1.30445 -1.38145 0
M  V30 34138 H 3144.14 -0.778455 -3.80621 0
M  V30 34139 H 3145.81 -3.31796 -3.20483 0
M  V30 34140 H 3144.05 -3.16798 -2.96347 0
M  V30 34141 H 3144.72 -3.06074 -4.59372 0
M  V30 34142 H 3147.2 -1.23658 -3.97301 0
M  V30 34143 H 3146.08 -1.20183 -5.35581 0
M  V30 34144 H 3146.34 0.257421 -4.4135 0
M  V30 34145 N 3145.4 1.33878 -0.831529 0
M  V30 34146 C 3146.64 1.98018 -0.423709 0
M  V30 34147 C 3146.97 1.65897 1.01531 0
M  V30 34148 O 3146.23 0.927213 1.72341 0
M  V30 34149 C 3146.53 3.52616 -0.582795 0
M  V30 34150 C 3146.19 4.04669 -1.98881 0
M  V30 34151 C 3144.85 4.18596 -2.37341 0
M  V30 34152 C 3147.21 4.32565 -2.90753 0
M  V30 34153 C 3144.53 4.57749 -3.66992 0
M  V30 34154 C 3146.89 4.73166 -4.19877 0
M  V30 34155 C 3145.55 4.85299 -4.58303 0
M  V30 34156 H 3144.82 0.724598 -0.155046 0
M  V30 34157 H 3147.47 1.59677 -1.05714 0
M  V30 34158 H 3145.77 3.91571 0.133983 0
M  V30 34159 H 3147.47 4.00235 -0.247646 0
M  V30 34160 H 3144.06 3.94298 -1.68008 0
M  V30 34161 H 3148.24 4.21335 -2.62279 0
M  V30 34162 H 3143.5 4.65334 -3.96579 0
M  V30 34163 H 3147.67 4.93709 -4.91146 0
M  V30 34164 H 3145.3 5.15394 -5.58814 0
M  V30 34165 N 3146.87 0.587281 1.46249 0
M  V30 34166 C 3148.15 0.00753619 1.95599 0
M  V30 34167 C 3148.53 -1.45454 1.52991 0
M  V30 34168 O 3147.88 -2.14674 0.782768 0
M  V30 34169 C 3148.09 0.184371 3.48513 0
M  V30 34170 C 3149.44 0.0545718 4.24565 0
M  V30 34171 O 3150.46 0.113441 3.56019 0
M  V30 34172 O 3149.32 -0.0773115 5.46445 0
M  V30 34173 H 3146.41 -0.047235 0.82565 0
M  V30 34174 H 3148.96 0.655921 1.56511 0
M  V30 34175 H 3147.73 1.2006 3.72426 0
M  V30 34176 H 3147.36 -0.500232 3.94441 0
M  V30 34177 N 3148.35 -1.54206 0.325309 0
M  V30 34178 C 3149.6 -1.9978 -0.277645 0
M  V30 34179 C 3149.91 -1.21726 -1.53108 0
M  V30 34180 O 3151.12 -1.57686 -2.21014 0
M  V30 34181 C 3149.58 -3.55745 -0.545267 0
M  V30 34182 C 3149.18 -4.42635 0.691221 0
M  V30 34183 C 3150.93 -4.09783 -1.10808 0
M  V30 34184 C 3148.84 -5.90077 0.395406 0
M  V30 34185 H 3147.77 -0.746294 -0.107523 0
M  V30 34186 H 3150.42 -1.78201 0.437805 0
M  V30 34187 H 3148.8 -3.73319 -1.32095 0
M  V30 34188 H 3149.97 -4.36838 1.46661 0
M  V30 34189 H 3148.29 -3.99497 1.17437 0
M  V30 34190 H 3150.88 -5.17532 -1.34405 0
M  V30 34191 H 3151.23 -3.61873 -2.05799 0
M  V30 34192 H 3151.76 -3.95849 -0.393538 0
M  V30 34193 H 3148.5 -6.42184 1.31454 0
M  V30 34194 H 3148.02 -5.98823 -0.342245 0
M  V30 34195 H 3149.7 -6.47 0.0058825 0
M  V30 34196 N 3149.83 -0.0535194 -1.57509 0
M  V30 34197 C 3150.76 0.917961 -2.14699 0
M  V30 34198 C 3151.74 1.32291 -1.06926 0
M  V30 34199 O 3152.93 1.3972 -1.34877 0
M  V30 34200 C 3150.06 2.19198 -2.69387 0
M  V30 34201 C 3149.01 1.92703 -3.82164 0
M  V30 34202 C 3148.34 3.26579 -4.23379 0
M  V30 34203 C 3149.64 1.24677 -5.07201 0
M  V30 34204 H 3151.33 0.441598 -2.96125 0
M  V30 34205 H 3148.88 0.210968 -1.42446 0
M  V30 34206 H 3150.83 2.87561 -3.08036 0
M  V30 34207 H 3149.55 2.69044 -1.85156 0
M  V30 34208 H 3148.21 1.26751 -3.43991 0
M  V30 34209 H 3147.86 3.74231 -3.36095 0
M  V30 34210 H 3147.56 3.09649 -4.99391 0
M  V30 34211 H 3149.09 3.9617 -4.6463 0
M  V30 34212 H 3150.5 1.83078 -5.43282 0
M  V30 34213 H 3148.9 1.18065 -5.88371 0
M  V30 34214 H 3149.97 0.223142 -4.84386 0
M  V30 34215 N 3151.31 1.56059 0.219886 0
M  V30 34216 C 3152.26 1.93409 1.29212 0
M  V30 34217 C 3153.25 0.816333 1.48433 0
M  V30 34218 O 3154.46 1.00118 1.49588 0
M  V30 34219 H 3150.83 0.614657 0.433245 0
M  V30 34220 H 3152.8 2.82876 0.949927 0
M  V30 34221 C 3151.55 2.26858 2.63497 0
M  V30 34222 H 3150.88 3.12382 2.49515 0
M  V30 34223 H 3152.32 2.56875 3.37329 0
M  V30 34224 C 3150.77 1.09431 3.18632 0
M  V30 34225 O 3151.3 0.356314 4.00117 0
M  V30 34226 N 3149.51 0.87769 2.77029 0
M  V30 34227 H 3149.06 1.47954 2.10873 0
M  V30 34228 H 3149.02 0.0937345 3.1426 0
M  V30 34229 N 3152.79 -0.486655 1.49898 0
M  V30 34230 C 3154.01 -1.2682 1.64108 0
M  V30 34231 C 3154.44 -1.85392 0.317999 0
M  V30 34232 O 3153.8 -1.66553 -0.716231 0
M  V30 34233 C 3153.84 -2.36394 2.72305 0
M  V30 34234 O 3152.95 -3.4063 2.32475 0
M  V30 34235 H 3152.29 -0.373783 0.548801 0
M  V30 34236 H 3154.82 -0.580983 1.96178 0
M  V30 34237 H 3154.83 -2.81943 2.94911 0
M  V30 34238 H 3153.5 -1.93131 3.68338 0
M  V30 34239 H 3152.08 -3.00901 2.20257 0
M  V30 34240 N 3154.27 -1.39214 -0.738737 0
M  V30 34241 C 3155.23 -1.37415 -1.83438 0
M  V30 34242 C 3156.23 -0.271936 -1.58484 0
M  V30 34243 O 3157.42 -0.529638 -1.65953 0
M  V30 34244 C 3154.55 -1.14306 -3.21165 0
M  V30 34245 H 3155.74 -2.34907 -1.86437 0
M  V30 34246 H 3153.3 -1.24724 -0.942002 0
M  V30 34247 H 3154.03 -0.174813 -3.23828 0
M  V30 34248 H 3153.82 -1.94122 -3.40674 0
M  V30 34249 H 3155.31 -1.1578 -4.01229 0
M  V30 34250 N 3155.74 0.968523 -1.24328 0
M  V30 34251 C 3156.65 2.09692 -1.05197 0
M  V30 34252 C 3157.67 1.73999 0.00698233 0
M  V30 34253 O 3158.85 2.00492 -0.191017 0
M  V30 34254 C 3155.91 3.40396 -0.658134 0
M  V30 34255 C 3154.97 3.90042 -1.79348 0
M  V30 34256 C 3154.2 5.14508 -1.41834 0
M  V30 34257 O 3154.43 5.69569 -0.307793 0
M  V30 34258 O 3153.36 5.58518 -2.24367 0
M  V30 34259 H 3157.19 2.28726 -1.99795 0
M  V30 34260 H 3154.77 1.08086 -1.0314 0
M  V30 34261 H 3156.65 4.18991 -0.449984 0
M  V30 34262 H 3155.33 3.22664 0.258725 0
M  V30 34263 H 3154.24 3.12513 -2.05637 0
M  V30 34264 H 3155.57 4.12249 -2.68908 0
M  V30 34265 N 3157.22 1.0569 1.16908 0
M  V30 34266 C 3158.15 0.683442 2.23274 0
M  V30 34267 C 3159.13 -0.321176 1.6704 0
M  V30 34268 O 3160.32 -0.197657 1.93192 0
M  V30 34269 C 3157.45 0.0626616 3.47243 0
M  V30 34270 C 3156.4 0.992586 4.16331 0
M  V30 34271 C 3155.73 0.235424 5.34181 0
M  V30 34272 C 3157.03 2.31894 4.67998 0
M  V30 34273 H 3158.72 1.57269 2.54768 0
M  V30 34274 H 3156.27 0.757627 1.22458 0
M  V30 34275 H 3158.22 -0.210429 4.20874 0
M  V30 34276 H 3156.94 -0.861561 3.15031 0
M  V30 34277 H 3155.6 1.25032 3.44619 0
M  V30 34278 H 3155.25 -0.691722 4.98221 0
M  V30 34279 H 3154.95 0.855104 5.81345 0
M  V30 34280 H 3156.48 -0.0302644 6.10592 0
M  V30 34281 H 3157.89 2.10541 5.33241 0
M  V30 34282 H 3156.29 2.89305 5.25759 0
M  V30 34283 H 3157.36 2.95398 3.84536 0
M  V30 34284 N 3158.7 -1.33435 0.838617 0
M  V30 34285 C 3159.95 -1.98083 0.434847 0
M  V30 34286 C 3160.28 -1.66277 -1.00328 0
M  V30 34287 O 3159.55 -0.942531 -1.70137 0
M  V30 34288 C 3159.84 -3.54081 0.655664 0
M  V30 34289 C 3159.69 -3.95575 2.14104 0
M  V30 34290 C 3161.01 -4.39983 0.101653 0
M  V30 34291 H 3158.13 -0.719541 0.159468 0
M  V30 34292 H 3160.77 -1.58079 1.05408 0
M  V30 34293 H 3158.92 -3.88287 0.128569 0
M  V30 34294 H 3160.59 -3.71626 2.73298 0
M  V30 34295 H 3158.83 -3.45315 2.62564 0
M  V30 34296 H 3159.51 -5.04228 2.2463 0
M  V30 34297 H 3161.98 -4.1242 0.552195 0
M  V30 34298 H 3160.86 -5.48155 0.285847 0
M  V30 34299 H 3161.12 -4.30768 -0.99454 0
M  V30 34300 N 3160.18 -0.595029 -1.45935 0
M  V30 34301 C 3161.42 -0.0881838 -2.0421 0
M  V30 34302 C 3161.78 1.25275 -1.455 0
M  V30 34303 O 3162.98 1.84957 -1.9505 0
M  V30 34304 C 3161.25 -0.0362974 -3.57382 0
M  V30 34305 S 3162.81 0.411183 -4.36869 0
M  V30 34306 H 3159.63 -0.0434549 -0.709671 0
M  V30 34307 H 3162.23 -0.790304 -1.78814 0
M  V30 34308 H 3160.94 -1.01597 -3.97626 0
M  V30 34309 H 3160.47 0.68821 -3.87333 0
M  V30 34310 H 3162.48 1.66339 -4.67489 0
M  V30 34311 N 3161.66 1.54031 -0.333483 0
M  V30 34312 C 3162.59 2.27625 0.52047 0
M  V30 34313 C 3163.57 1.28799 1.11107 0
M  V30 34314 O 3164.75 1.57627 1.13435 0
M  V30 34315 C 3161.88 3.04152 1.67658 0
M  V30 34316 C 3160.84 4.10398 1.2148 0
M  V30 34317 C 3160.16 4.74821 2.45863 0
M  V30 34318 C 3161.46 5.21303 0.322511 0
M  V30 34319 H 3163.16 2.99254 -0.0934349 0
M  V30 34320 H 3160.7 1.43925 -0.0463779 0
M  V30 34321 H 3162.65 3.5437 2.28035 0
M  V30 34322 H 3161.38 2.30157 2.31722 0
M  V30 34323 H 3160.04 3.61078 0.633903 0
M  V30 34324 H 3159.69 3.97432 3.08313 0
M  V30 34325 H 3159.39 5.46597 2.15652 0
M  V30 34326 H 3160.91 5.27819 3.06985 0
M  V30 34327 H 3162.32 5.67218 0.832842 0
M  V30 34328 H 3160.72 5.99994 0.112737 0
M  V30 34329 H 3161.79 4.80604 -0.644038 0
M  V30 34330 N 3163.13 0.0618717 1.57479 0
M  V30 34331 C 3164.36 -0.618802 1.9743 0
M  V30 34332 C 3164.78 -1.63744 0.939854 0
M  V30 34333 O 3164.13 -1.82347 -0.0746853 0
M  V30 34334 C 3164.18 -1.29622 3.37462 0
M  V30 34335 O 3163.91 -0.318355 4.36942 0
M  V30 34336 C 3165.41 -2.06565 3.92232 0
M  V30 34337 H 3162.63 -0.168433 0.649516 0
M  V30 34338 H 3165.17 0.131339 2.04078 0
M  V30 34339 H 3163.33 -1.99751 3.31931 0
M  V30 34340 H 3163.74 -0.803148 5.18314 0
M  V30 34341 H 3165.21 -2.49369 4.92462 0
M  V30 34342 H 3165.69 -2.91818 3.28236 0
M  V30 34343 H 3166.3 -1.41323 4.01133 0
M  V30 34344 N 3164.61 -1.56173 -0.211607 0
M  V30 34345 C 3166.03 -1.49387 -0.561744 0
M  V30 34346 C 3166.23 -0.758845 -1.86665 0
M  V30 34347 O 3165.28 -0.302578 -2.50681 0
M  V30 34348 C 3166.6 -2.93988 -0.631764 0
M  V30 34349 C 3168.15 -3.04566 -0.721719 0
M  V30 34350 C 3168.62 -4.50545 -0.822996 0
M  V30 34351 N 3170.11 -4.54629 -0.886958 0
M  V30 34352 C 3170.85 -5.64873 -0.985205 0
M  V30 34353 N 3170.34 -6.84846 -1.04678 0
M  V30 34354 N 3172.14 -5.52747 -1.02111 0
M  V30 34355 H 3164.29 -2.02384 0.644556 0
M  V30 34356 H 3166.55 -0.920302 0.227483 0
M  V30 34357 H 3166.26 -3.50755 0.257653 0
M  V30 34358 H 3166.13 -3.46436 -1.49204 0
M  V30 34359 H 3168.52 -2.47858 -1.60157 0
M  V30 34360 H 3168.6 -2.55271 0.16443 0
M  V30 34361 H 3168.24 -5.07873 0.0524403 0
M  V30 34362 H 3168.17 -4.97555 -1.72471 0
M  V30 34363 H 3170.66 -3.68233 -0.849288 0
M  V30 34364 H 3170.98 -7.64615 -1.1218 0
M  V30 34365 H 3169.32 -6.87537 -1.01574 0
M  V30 34366 H 3172.51 -4.57945 -0.969733 0
M  V30 34367 H 3172.68 -6.38695 -1.09423 0
M  V30 34368 N 3166.09 0.478699 -1.50154 0
M  V30 34369 C 3167.51 0.811809 -1.37411 0
M  V30 34370 C 3167.71 1.96981 -0.424338 0
M  V30 34371 O 3166.76 2.52134 0.135836 0
M  V30 34372 C 3168.08 1.13103 -2.78618 0
M  V30 34373 C 3169.62 1.23793 -2.87479 0
M  V30 34374 C 3170.1 1.59033 -4.29503 0
M  V30 34375 N 3171.59 1.66039 -4.32418 0
M  V30 34376 C 3172.32 1.94795 -5.39298 0
M  V30 34377 N 3171.82 2.21623 -6.56395 0
M  V30 34378 N 3173.61 1.96233 -5.26734 0
M  V30 34379 H 3165.76 -0.284568 -2.10485 0
M  V30 34380 H 3168.03 -0.0647751 -0.945784 0
M  V30 34381 H 3167.73 0.353279 -3.49921 0
M  V30 34382 H 3167.61 2.0691 -3.15386 0
M  V30 34383 H 3169.99 2.00637 -2.164 0
M  V30 34384 H 3170.08 0.279843 -2.54265 0
M  V30 34385 H 3169.72 0.827316 -5.01117 0
M  V30 34386 H 3169.65 2.55979 -4.60198 0
M  V30 34387 H 3172.14 1.47376 -3.47978 0
M  V30 34388 H 3172.45 2.42817 -7.33662 0
M  V30 34389 H 3170.8 2.19032 -6.59583 0
M  V30 34390 H 3173.99 1.74766 -4.34252 0
M  V30 34391 H 3174.16 2.18309 -6.10119 0
M  V30 34392 N 3167.57 1.39603 0.731343 0
M  V30 34393 C 3168.82 1.36336 1.48645 0
M  V30 34394 C 3169.13 -0.0367039 1.95566 0
M  V30 34395 O 3170.34 -0.191969 2.7082 0
M  V30 34396 C 3168.79 2.39532 2.68612 0
M  V30 34397 C 3168.4 3.85272 2.28625 0
M  V30 34398 C 3170.14 2.45347 3.46418 0
M  V30 34399 C 3168.05 4.80101 3.45337 0
M  V30 34400 H 3166.98 0.506871 0.558209 0
M  V30 34401 H 3169.63 1.65267 0.797438 0
M  V30 34402 H 3168.01 2.03677 3.39605 0
M  V30 34403 H 3169.19 4.30187 1.65154 0
M  V30 34404 H 3167.5 3.82786 1.63902 0
M  V30 34405 H 3170.1 3.13386 4.33236 0
M  V30 34406 H 3170.44 1.47911 3.89138 0
M  V30 34407 H 3170.98 2.80113 2.82456 0
M  V30 34408 H 3167.72 5.78812 3.07663 0
M  V30 34409 H 3167.24 4.39862 4.07776 0
M  V30 34410 H 3168.91 4.99176 4.11621 0
M  V30 34411 N 3169.05 -0.961916 1.2484 0
M  V30 34412 C 3169.98 -2.07512 1.07056 0
M  V30 34413 C 3170.96 -1.7009 -0.0182166 0
M  V30 34414 O 3172.14 -1.9362 0.149949 0
M  V30 34415 C 3169.27 -3.40563 0.680753 0
M  V30 34416 C 3168.23 -3.91964 1.71895 0
M  V30 34417 C 3167.55 -5.21426 1.18404 0
M  V30 34418 C 3168.85 -4.19156 3.11618 0
M  V30 34419 H 3170.55 -2.22647 2.00171 0
M  V30 34420 H 3168.09 -1.06989 0.963818 0
M  V30 34421 H 3170.05 -4.17883 0.543313 0
M  V30 34422 H 3168.77 -3.25345 -0.286092 0
M  V30 34423 H 3167.43 -3.16806 1.84471 0
M  V30 34424 H 3167.08 -5.02571 0.207632 0
M  V30 34425 H 3166.78 -5.56785 1.87788 0
M  V30 34426 H 3168.3 -6.01349 1.05884 0
M  V30 34427 H 3169.71 -4.8716 3.02238 0
M  V30 34428 H 3168.11 -4.65756 3.78406 0
M  V30 34429 H 3169.18 -3.25709 3.59224 0
M  V30 34430 N 3170.52 -1.06308 -1.16346 0
M  V30 34431 C 3171.45 -0.695273 -2.22909 0
M  V30 34432 C 3172.44 0.312313 -1.67208 0
M  V30 34433 O 3173.62 0.187408 -1.93294 0
M  V30 34434 C 3170.75 -0.0810759 -3.47205 0
M  V30 34435 C 3169.7 -1.01465 -4.15799 0
M  V30 34436 C 3169.03 -0.26375 -5.34049 0
M  V30 34437 C 3170.33 -2.34373 -4.66762 0
M  V30 34438 H 3172.02 -1.58618 -2.53931 0
M  V30 34439 H 3169.57 -0.764111 -1.22055 0
M  V30 34440 H 3171.52 0.188106 -4.2098 0
M  V30 34441 H 3170.25 0.844842 -3.15484 0
M  V30 34442 H 3168.91 -1.26858 -3.43951 0
M  V30 34443 H 3168.55 0.665291 -4.98581 0
M  V30 34444 H 3168.25 -0.885922 -5.80883 0
M  V30 34445 H 3169.78 -0.00211727 -6.106 0
M  V30 34446 H 3171.19 -2.13366 -5.32117 0
M  V30 34447 H 3169.59 -2.92089 -5.24218 0
M  V30 34448 H 3170.66 -2.97433 -3.82964 0
M  V30 34449 N 3172 1.32989 -0.845682 0
M  V30 34450 C 3173.41 1.79866 -0.500512 0
M  V30 34451 C 3173.76 1.69914 0.980997 0
M  V30 34452 O 3172.89 1.25242 1.76475 0
M  V30 34453 C 3173.48 3.26579 -0.901737 0
M  V30 34454 C 3172.04 3.71447 -0.608602 0
M  V30 34455 C 3171.19 2.54273 -1.10637 0
M  V30 34456 H 3174.14 1.20414 -1.03374 0
M  V30 34457 H 3174.16 3.79895 -0.2145 0
M  V30 34458 H 3173.67 3.3379 -1.98004 0
M  V30 34459 H 3171.78 3.69758 0.459351 0
M  V30 34460 H 3171.89 4.64629 -1.16861 0
M  V30 34461 H 3170.25 2.49189 -0.526969 0
M  V30 34462 H 3171.04 2.64243 -2.19159 0
M  V30 34463 N 3173.48 0.60276 1.45618 0
M  V30 34464 C 3174.43 -0.118903 2.30494 0
M  V30 34465 C 3175.4 -0.864698 1.41817 0
M  V30 34466 O 3176.58 -0.851394 1.70751 0
M  V30 34467 C 3173.72 -1.11351 3.26642 0
M  V30 34468 C 3172.84 -0.369085 4.3042 0
M  V30 34469 C 3171.97 -1.35298 5.13681 0
M  V30 34470 C 3171.01 -0.5961 6.0919 0
M  V30 34471 N 3170.15 -1.52904 6.85248 0
M  V30 34472 H 3174.99 0.610887 2.91671 0
M  V30 34473 H 3172.52 0.313057 1.4373 0
M  V30 34474 H 3174.48 -1.70324 3.80849 0
M  V30 34475 H 3173.11 -1.81077 2.67228 0
M  V30 34476 H 3172.16 0.336061 3.78913 0
M  V30 34477 H 3173.48 0.22169 4.98307 0
M  V30 34478 H 3172.63 -2.01492 5.72264 0
M  V30 34479 H 3171.37 -1.97769 4.45801 0
M  V30 34480 H 3170.37 0.079495 5.49743 0
M  V30 34481 H 3171.6 0.0234928 6.79096 0
M  V30 34482 H 3169.54 -2.14148 6.20062 0
M  V30 34483 H 3169.46 -0.991582 7.49469 0
M  V30 34484 H 3170.73 -2.1807 7.48375 0
M  V30 34485 N 3174.96 -1.53852 0.341647 0
M  V30 34486 C 3175.91 -2.26449 -0.531372 0
M  V30 34487 C 3176.9 -1.28523 -1.10354 0
M  V30 34488 O 3178.11 -1.46238 -1.0495 0
M  V30 34489 H 3174.48 -0.727591 -0.190041 0
M  V30 34490 H 3176.45 -2.98222 0.102974 0
M  V30 34491 C 3175.2 -3.04888 -1.67149 0
M  V30 34492 H 3174.52 -3.80068 -1.24049 0
M  V30 34493 H 3175.96 -3.58901 -2.25756 0
M  V30 34494 C 3174.42 -2.14271 -2.5998 0
M  V30 34495 O 3174.95 -1.73753 -3.62178 0
M  V30 34496 N 3173.16 -1.79389 -2.28622 0
M  V30 34497 H 3172.71 -2.12536 -1.45555 0
M  V30 34498 H 3172.66 -1.1904 -2.90993 0
M  V30 34499 N 3176.44 -0.0702223 -1.57443 0
M  V30 34500 C 3177.68 0.600144 -1.93717 0
M  V30 34501 C 3178.02 1.69357 -0.950359 0
M  V30 34502 O 3177.29 1.94489 0.0206781 0
M  V30 34503 C 3177.57 1.17855 -3.40268 0
M  V30 34504 C 3177.43 0.0918785 -4.49706 0
M  V30 34505 C 3178.75 2.08452 -3.87602 0
M  V30 34506 H 3175.86 0.216691 -0.704425 0
M  V30 34507 H 3178.51 -0.135871 -1.89514 0
M  V30 34508 H 3176.66 1.80581 -3.43981 0
M  V30 34509 H 3178.33 -0.541111 -4.58115 0
M  V30 34510 H 3176.57 -0.577714 -4.29936 0
M  V30 34511 H 3177.24 0.536952 -5.49382 0
M  V30 34512 H 3179.72 1.55664 -3.85886 0
M  V30 34513 H 3178.59 2.45859 -4.90759 0
M  V30 34514 H 3178.86 2.9922 -3.25453 0
M  V30 34515 N 3177.91 1.56283 0.203321 0
M  V30 34516 C 3179.16 1.79336 0.923118 0
M  V30 34517 C 3179.48 0.64201 1.84764 0
M  V30 34518 O 3180.68 0.75663 2.60744 0
M  V30 34519 C 3179.14 3.17658 1.69179 0
M  V30 34520 C 3178.75 4.40571 0.812503 0
M  V30 34521 C 3180.49 3.50026 2.40171 0
M  V30 34522 C 3178.4 5.69915 1.57957 0
M  V30 34523 H 3177.33 0.668665 0.34843 0
M  V30 34524 H 3179.98 1.82649 0.176568 0
M  V30 34525 H 3178.36 3.08572 2.48192 0
M  V30 34526 H 3179.53 4.60759 0.0616146 0
M  V30 34527 H 3177.85 4.15851 0.213817 0
M  V30 34528 H 3180.45 4.43896 2.98095 0
M  V30 34529 H 3180.79 2.73381 3.13956 0
M  V30 34530 H 3181.32 3.60523 1.68132 0
M  V30 34531 H 3178.06 6.49503 0.884653 0
M  V30 34532 H 3177.58 5.53758 2.3046 0
M  V30 34533 H 3179.26 6.10741 2.13552 0
M  V30 34534 N 3179.39 -0.470729 1.50406 0
M  V30 34535 C 3180.64 -1.2246 1.61652 0
M  V30 34536 C 3180.97 -1.91611 0.316068 0
M  V30 34537 O 3180.25 -1.82133 -0.682477 0
M  V30 34538 C 3180.53 -2.26796 2.79706 0
M  V30 34539 C 3180.38 -1.61948 4.19634 0
M  V30 34540 C 3181.7 -3.28104 2.93319 0
M  V30 34541 H 3178.82 -0.443857 0.588353 0
M  V30 34542 H 3181.46 -0.518344 1.82793 0
M  V30 34543 H 3179.61 -2.87031 2.61812 0
M  V30 34544 H 3181.29 -1.05308 4.49119 0
M  V30 34545 H 3179.53 -0.922599 4.23876 0
M  V30 34546 H 3180.2 -2.3777 4.98166 0
M  V30 34547 H 3182.68 -2.77892 3.09702 0
M  V30 34548 H 3181.55 -3.98436 3.77544 0
M  V30 34549 H 3181.81 -3.92246 2.03949 0
M  V30 34550 N 3180.87 -1.39989 -0.72393 0
M  V30 34551 C 3181.78 -1.4189 -1.86827 0
M  V30 34552 C 3182.8 -0.312431 -1.71172 0
M  V30 34553 O 3183.97 -0.555685 -1.93582 0
M  V30 34554 C 3181.04 -1.2716 -3.22539 0
M  V30 34555 C 3180.1 -2.47877 -3.50508 0
M  V30 34556 C 3179.33 -2.3384 -4.79744 0
M  V30 34557 O 3179.56 -1.34775 -5.54249 0
M  V30 34558 O 3178.49 -3.23048 -5.07862 0
M  V30 34559 H 3182.32 -2.38375 -1.88179 0
M  V30 34560 H 3179.9 -1.21223 -0.873237 0
M  V30 34561 H 3181.78 -1.21121 -4.03618 0
M  V30 34562 H 3180.46 -0.337771 -3.21933 0
M  V30 34563 H 3179.36 -2.59493 -2.69471 0
M  V30 34564 H 3180.7 -3.39991 -3.55903 0
M  V30 34565 N 3182.35 0.955282 -1.25348 0
M  V30 34566 C 3183.59 1.71465 -1.11262 0
M  V30 34567 C 3183.95 1.88953 0.340726 0
M  V30 34568 O 3185.15 2.6194 0.603394 0
M  V30 34569 C 3183.43 3.06067 -1.84547 0
M  V30 34570 S 3184.98 3.97267 -1.86344 0
M  V30 34571 H 3181.8 0.589373 -0.397693 0
M  V30 34572 H 3184.4 1.13943 -1.58863 0
M  V30 34573 H 3183.11 2.91009 -2.89382 0
M  V30 34574 H 3182.64 3.68652 -1.3733 0
M  V30 34575 H 3184.65 4.87215 -0.940011 0
M  V30 34576 N 3183.83 1.06924 1.1578 0
M  V30 34577 C 3184.76 0.629876 2.19335 0
M  V30 34578 C 3185.74 -0.350635 1.58774 0
M  V30 34579 O 3186.92 -0.258091 1.86725 0
M  V30 34580 C 3184.05 -0.0756931 3.38615 0
M  V30 34581 C 3183.1 0.862576 4.17686 0
M  V30 34582 S 3183.93 2.36125 4.8063 0
M  V30 34583 C 3185.08 1.66736 6.03283 0
M  V30 34584 H 3185.32 1.50718 2.56264 0
M  V30 34585 H 3182.85 0.882798 1.26673 0
M  V30 34586 H 3184.81 -0.47654 4.07725 0
M  V30 34587 H 3183.47 -0.929279 3.00039 0
M  V30 34588 H 3182.66 0.31555 5.03011 0
M  V30 34589 H 3182.26 1.2036 3.54104 0
M  V30 34590 H 3184.56 0.97659 6.70424 0
M  V30 34591 H 3185.5 2.49876 6.62546 0
M  V30 34592 H 3185.91 1.1472 5.5272 0
M  V30 34593 N 3185.31 -1.32538 0.852723 0
M  V30 34594 C 3186.55 -1.97611 0.455832 0
M  V30 34595 C 3186.88 -1.67332 -0.985586 0
M  V30 34596 O 3186.16 -0.960523 -1.69128 0
M  V30 34597 C 3186.44 -3.53365 0.693183 0
M  V30 34598 C 3186.3 -3.93282 2.18288 0
M  V30 34599 C 3187.61 -4.3985 0.148314 0
M  V30 34600 H 3184.73 -0.717809 0.167091 0
M  V30 34601 H 3187.38 -1.56952 1.07079 0
M  V30 34602 H 3185.53 -3.88129 0.169745 0
M  V30 34603 H 3187.2 -3.68706 2.77225 0
M  V30 34604 H 3185.44 -3.42511 2.66212 0
M  V30 34605 H 3186.11 -5.01817 2.29965 0
M  V30 34606 H 3188.59 -4.11811 0.595906 0
M  V30 34607 H 3187.46 -5.47821 0.34397 0
M  V30 34608 H 3187.72 -4.31799 -0.948796 0
M  V30 34609 N 3186.78 -0.610474 -1.45296 0
M  V30 34610 C 3187.75 0.0967792 -2.28996 0
M  V30 34611 C 3188.75 0.792328 -1.39924 0
M  V30 34612 O 3189.94 0.640052 -1.62015 0
M  V30 34613 C 3187.07 1.14726 -3.21015 0
M  V30 34614 H 3188.26 -0.639134 -2.9301 0
M  V30 34615 H 3185.81 -0.36965 -1.51866 0
M  V30 34616 H 3186.55 1.91384 -2.61807 0
M  V30 34617 H 3186.33 0.652685 -3.8663 0
M  V30 34618 H 3187.82 1.64249 -3.83943 0
M  V30 34619 N 3188.26 1.53669 -0.349801 0
M  V30 34620 C 3189.49 2.05432 0.246002 0
M  V30 34621 C 3189.9 1.22437 1.43717 0
M  V30 34622 O 3189.26 0.261198 1.80621 0
M  V30 34623 C 3189.31 3.55517 0.654947 0
M  V30 34624 O 3189.03 4.35364 -0.488859 0
M  V30 34625 C 3190.53 4.23477 1.31081 0
M  V30 34626 H 3187.75 0.669395 0.0463834 0
M  V30 34627 H 3190.3 1.98202 -0.503601 0
M  V30 34628 H 3188.45 3.6295 1.35448 0
M  V30 34629 H 3188.87 5.24251 -0.16162 0
M  V30 34630 H 3190.34 5.2986 1.54765 0
M  V30 34631 H 3190.82 3.76212 2.2663 0
M  V30 34632 H 3191.42 4.20255 0.653137 0
M  V30 34633 N 3189.74 0.0785709 1.57404 0
M  V30 34634 C 3190.69 -0.896528 2.09634 0
M  V30 34635 C 3191.67 -1.25447 1.00756 0
M  V30 34636 O 3192.87 -1.23232 1.27055 0
M  V30 34637 C 3189.99 -2.16165 2.66698 0
M  V30 34638 C 3189.08 -1.82988 3.82592 0
M  V30 34639 N 3189.47 -1.20291 4.91288 0
M  V30 34640 C 3187.77 -2.12697 3.92015 0
M  V30 34641 C 3188.47 -1.05357 5.72079 0
M  V30 34642 N 3187.45 -1.5655 5.2057 0
M  V30 34643 H 3191.25 -0.40757 2.9106 0
M  V30 34644 H 3188.76 -0.125126 1.61917 0
M  V30 34645 H 3190.76 -2.86947 3.02435 0
M  V30 34646 H 3189.42 -2.65642 1.8672 0
M  V30 34647 H 3190.43 -0.871727 5.10511 0
M  V30 34648 H 3187.11 -2.64504 3.23023 0
M  V30 34649 H 3188.5 -0.564567 6.69524 0
M  V30 34650 N 3191.22 -1.56389 -0.19503 0
M  V30 34651 C 3192.17 -1.90954 -1.24581 0
M  V30 34652 C 3193.15 -0.775245 -1.40992 0
M  V30 34653 O 3194.34 -1.0381 -1.43361 0
M  V30 34654 C 3191.47 -2.25262 -2.5906 0
M  V30 34655 C 3190.56 -3.45149 -2.46441 0
M  V30 34656 N 3190.95 -4.63056 -2.03502 0
M  V30 34657 C 3189.25 -3.49288 -2.77333 0
M  V30 34658 C 3189.95 -5.45213 -2.02776 0
M  V30 34659 N 3188.92 -4.85621 -2.44282 0
M  V30 34660 H 3192.73 -2.79614 -0.905151 0
M  V30 34661 H 3190.24 -1.57308 -0.403465 0
M  V30 34662 H 3192.24 -2.4821 -3.34959 0
M  V30 34663 H 3190.9 -1.37929 -2.93949 0
M  V30 34664 H 3191.91 -4.8772 -1.7421 0
M  V30 34665 H 3188.59 -2.72371 -3.16418 0
M  V30 34666 H 3189.98 -6.4965 -1.71478 0
M  V30 34667 N 3192.7 0.462746 -1.50653 0
M  V30 34668 C 3193.64 1.5804 -1.70664 0
M  V30 34669 C 3194.64 1.59431 -0.572561 0
M  V30 34670 O 3195.84 1.6348 -0.753286 0
M  V30 34671 H 3192.22 0.524579 -0.538814 0
M  V30 34672 H 3194.19 1.38327 -2.64402 0
M  V30 34673 C 3192.94 2.95916 -1.82563 0
M  V30 34674 H 3192.26 2.95567 -2.69221 0
M  V30 34675 H 3193.7 3.73552 -2.00586 0
M  V30 34676 C 3192.16 3.31884 -0.579218 0
M  V30 34677 O 3192.69 4.00738 0.277817 0
M  V30 34678 N 3190.9 2.87389 -0.430774 0
M  V30 34679 H 3190.44 2.31529 -1.12924 0
M  V30 34680 H 3190.4 3.11819 0.402007 0
M  V30 34681 N 3194.17 1.40371 0.716495 0
M  V30 34682 C 3195.4 1.42105 1.51066 0
M  V30 34683 C 3195.82 0.0222717 1.88087 0
M  V30 34684 O 3195.18 -0.969421 1.53205 0
M  V30 34685 C 3195.23 2.31709 2.76303 0
M  V30 34686 O 3194.33 1.75971 3.72972 0
M  V30 34687 H 3193.68 0.483137 0.455494 0
M  V30 34688 H 3196.21 1.8459 0.882481 0
M  V30 34689 H 3196.22 2.46864 3.24842 0
M  V30 34690 H 3194.89 3.33354 2.48692 0
M  V30 34691 H 3193.47 1.70157 3.31815 0
M  V30 34692 N 3195.65 -0.948621 1.25853 0
M  V30 34693 C 3197.07 -1.22079 1.02805 0
M  V30 34694 C 3197.27 -1.99925 -0.251426 0
M  V30 34695 O 3196.32 -2.33434 -0.962551 0
M  V30 34696 C 3197.64 -1.98932 2.25492 0
M  V30 34697 C 3199.19 -2.11952 2.30316 0
M  V30 34698 C 3199.66 -2.92204 3.52676 0
M  V30 34699 N 3201.15 -2.99781 3.53109 0
M  V30 34700 C 3201.89 -3.62286 4.44451 0
M  V30 34701 N 3201.38 -4.26352 5.46073 0
M  V30 34702 N 3203.18 -3.59485 4.32119 0
M  V30 34703 H 3195.33 -0.428007 2.08043 0
M  V30 34704 H 3197.59 -0.251856 0.913933 0
M  V30 34705 H 3197.3 -1.49134 3.18515 0
M  V30 34706 H 3197.17 -2.9962 2.29145 0
M  V30 34707 H 3199.56 -2.60944 1.37812 0
M  V30 34708 H 3199.64 -1.10549 2.30678 0
M  V30 34709 H 3199.28 -2.43901 4.45505 0
M  V30 34710 H 3199.21 -3.93846 3.49561 0
M  V30 34711 H 3201.7 -2.54227 2.79602 0
M  V30 34712 H 3202.02 -4.71921 6.11972 0
M  V30 34713 H 3200.36 -4.24962 5.49939 0
M  V30 34714 H 3203.55 -3.08623 3.51951 0
M  V30 34715 H 3203.72 -4.07911 5.035 0
M  V30 34716 N 3197.13 -1.07536 -1.15212 0
M  V30 34717 C 3198.08 -0.691719 -2.22077 0
M  V30 34718 C 3199.07 0.298353 -1.66752 0
M  V30 34719 O 3200.28 0.161865 -1.79271 0
M  V30 34720 H 3196.65 -0.205617 -0.723344 0
M  V30 34721 H 3198.62 -1.6026 -2.51713 0
M  V30 34722 C 3197.37 -0.107607 -3.47533 0
M  V30 34723 H 3196.7 -0.860591 -3.90428 0
M  V30 34724 H 3198.14 0.123141 -4.23821 0
M  V30 34725 C 3196.6 1.15221 -3.16585 0
M  V30 34726 O 3197.13 2.23839 -3.33555 0
M  V30 34727 N 3195.33 1.0591 -2.70613 0
M  V30 34728 H 3194.88 0.175153 -2.57004 0
M  V30 34729 H 3194.84 1.90282 -2.5028 0
M  V30 34730 N 3198.61 1.32084 -0.85974 0
M  V30 34731 C 3199.57 2.27052 -0.313044 0
M  V30 34732 C 3200.57 1.51809 0.530165 0
M  V30 34733 O 3201.76 1.70831 0.340942 0
M  V30 34734 C 3198.89 3.36326 0.556541 0
M  V30 34735 H 3200.09 2.76921 -1.1513 0
M  V30 34736 H 3197.64 1.42842 -0.634488 0
M  V30 34737 H 3198.37 2.91734 1.4164 0
M  V30 34738 H 3198.16 3.92072 -0.0470886 0
M  V30 34739 H 3199.65 4.07075 0.931653 0
M  V30 34740 N 3200.09 0.618171 1.4497 0
M  V30 34741 C 3201.31 0.122432 2.07038 0
M  V30 34742 C 3201.74 -1.1885 1.45795 0
M  V30 34743 O 3201.09 -1.7261 0.55456 0
M  V30 34744 C 3201.14 0.00744978 3.60599 0
M  V30 34745 O 3200.25 -1.04 3.99071 0
M  V30 34746 H 3199.59 0.0788731 0.659299 0
M  V30 34747 H 3202.12 0.85118 1.86054 0
M  V30 34748 H 3202.13 -0.187345 4.0757 0
M  V30 34749 H 3200.8 0.964616 4.04559 0
M  V30 34750 H 3199.38 -0.820815 3.63754 0
M  V30 34751 N 3201.56 -1.53481 0.357946 0
M  V30 34752 C 3202.81 -2.00324 -0.235206 0
M  V30 34753 C 3203.13 -1.24946 -1.50492 0
M  V30 34754 O 3204.33 -1.62339 -2.1762 0
M  V30 34755 C 3202.79 -3.56822 -0.469685 0
M  V30 34756 C 3202.4 -4.4107 0.784955 0
M  V30 34757 C 3204.14 -4.12041 -1.02091 0
M  V30 34758 C 3202.05 -5.89105 0.520481 0
M  V30 34759 H 3200.98 -0.748407 -0.0916685 0
M  V30 34760 H 3203.63 -1.77232 0.475505 0
M  V30 34761 H 3202.01 -3.76037 -1.24146 0
M  V30 34762 H 3203.18 -4.33629 1.55894 0
M  V30 34763 H 3201.5 -3.96916 1.25885 0
M  V30 34764 H 3204.1 -5.20266 -1.23397 0
M  V30 34765 H 3204.44 -3.66157 -1.98077 0
M  V30 34766 H 3204.97 -3.96594 -0.309485 0
M  V30 34767 H 3201.71 -6.39251 1.45046 0
M  V30 34768 H 3201.23 -5.99414 -0.215148 0
M  V30 34769 H 3202.91 -6.46842 0.143119 0
M  V30 34770 N 3203.04 -0.0869173 -1.5736 0
M  V30 34771 C 3204.29 0.573477 -1.95148 0
M  V30 34772 C 3204.64 1.66298 -0.96762 0
M  V30 34773 O 3203.94 1.91598 0.00771203 0
M  V30 34774 C 3204.13 1.18117 -3.37318 0
M  V30 34775 C 3203.96 0.152066 -4.49443 0
M  V30 34776 C 3202.73 -0.268585 -5.04586 0
M  V30 34777 C 3204.93 -0.616592 -5.1059 0
M  V30 34778 N 3202.91 -1.28681 -6.00262 0
M  V30 34779 C 3204.28 -1.48687 -6.01907 0
M  V30 34780 C 3206.34 -0.671006 -4.93358 0
M  V30 34781 C 3205.04 -2.40676 -6.7784 0
M  V30 34782 C 3207.06 -1.57847 -5.69946 0
M  V30 34783 C 3206.43 -2.43639 -6.60923 0
M  V30 34784 H 3202.53 0.180426 -0.760901 0
M  V30 34785 H 3205.11 -0.167582 -1.93977 0
M  V30 34786 H 3203.28 1.89208 -3.39197 0
M  V30 34787 H 3205.01 1.80326 -3.62305 0
M  V30 34788 H 3201.77 0.117542 -4.73454 0
M  V30 34789 H 3202.19 -1.79388 -6.52801 0
M  V30 34790 H 3206.83 -0.021895 -4.22794 0
M  V30 34791 H 3204.55 -3.06616 -7.47671 0
M  V30 34792 H 3208.14 -1.6256 -5.58628 0
M  V30 34793 H 3207.02 -3.12718 -7.1915 0
M  V30 34794 N 3204.52 1.5649 0.186734 0
M  V30 34795 C 3205.45 1.98234 1.23391 0
M  V30 34796 C 3206.43 0.855551 1.47018 0
M  V30 34797 O 3207.62 1.1205 1.58614 0
M  V30 34798 C 3204.75 2.32903 2.57631 0
M  V30 34799 C 3203.7 3.48398 2.48601 0
M  V30 34800 C 3203.03 3.68766 3.8719 0
M  V30 34801 C 3204.33 4.82329 2.0039 0
M  V30 34802 H 3206.02 2.8596 0.886976 0
M  V30 34803 H 3203.57 1.37578 0.425226 0
M  V30 34804 H 3205.52 2.60702 3.31078 0
M  V30 34805 H 3204.24 1.42069 2.94082 0
M  V30 34806 H 3202.9 3.20703 1.77609 0
M  V30 34807 H 3202.55 2.75248 4.21008 0
M  V30 34808 H 3202.25 4.46468 3.82021 0
M  V30 34809 H 3203.77 3.98949 4.62246 0
M  V30 34810 H 3205.19 5.09105 2.63601 0
M  V30 34811 H 3203.59 5.6356 2.06204 0
M  V30 34812 H 3204.66 4.75353 0.957478 0
M  V30 34813 N 3206 -0.45475 1.50897 0
M  V30 34814 C 3207.25 -1.20321 1.6238 0
M  V30 34815 C 3207.57 -1.9212 0.333917 0
M  V30 34816 O 3206.84 -1.84822 -0.649444 0
M  V30 34817 H 3205.42 -0.447128 0.598402 0
M  V30 34818 H 3208.08 -0.523069 1.8775 0
M  V30 34819 H 3207.18 -1.94227 2.44299 0
M  V30 34820 N 3207.48 -1.40749 -0.709041 0
M  V30 34821 C 3208.72 -1.40837 -1.48136 0
M  V30 34822 C 3209.08 -0.0117962 -1.91996 0
M  V30 34823 O 3210.28 0.112476 -2.68565 0
M  V30 34824 C 3208.55 -2.37578 -2.67005 0
M  V30 34825 S 3210.11 -2.5608 -3.56327 0
M  V30 34826 H 3206.93 -0.499093 -0.506387 0
M  V30 34827 H 3209.53 -1.77074 -0.828557 0
M  V30 34828 H 3208.24 -3.37869 -2.32965 0
M  V30 34829 H 3207.77 -2.02647 -3.37191 0
M  V30 34830 H 3209.78 -1.81811 -4.61692 0
M  V30 34831 N 3208.96 0.941933 -1.26354 0
M  V30 34832 C 3210.2 1.68471 -1.11633 0
M  V30 34833 C 3210.52 1.91994 0.341046 0
M  V30 34834 O 3209.79 1.5161 1.24062 0
M  V30 34835 H 3208.37 0.624346 -0.410124 0
M  V30 34836 H 3211.04 1.1318 -1.58671 0
M  V30 34837 H 3210.13 2.65877 -1.6345 0
M  V30 34838 N 3210.43 1.08146 1.1464 0
M  V30 34839 C 3211.38 0.6787 2.17664 0
M  V30 34840 C 3212.37 -0.300308 1.58073 0
M  V30 34841 O 3213.56 -0.11275 1.76641 0
M  V30 34842 C 3210.69 0.0866965 3.43191 0
M  V30 34843 C 3209.77 1.09133 4.09818 0
M  V30 34844 N 3210.17 2.2738 4.5181 0
M  V30 34845 C 3208.46 0.926488 4.36271 0
M  V30 34846 C 3209.16 2.91181 5.03576 0
M  V30 34847 N 3208.14 2.18804 4.9762 0
M  V30 34848 H 3211.94 1.57918 2.47869 0
M  V30 34849 H 3209.46 0.955795 1.31295 0
M  V30 34850 H 3211.45 -0.219785 4.1632 0
M  V30 34851 H 3210.11 -0.808804 3.14465 0
M  V30 34852 H 3211.12 2.65051 4.44936 0
M  V30 34853 H 3207.8 0.0845653 4.17414 0
M  V30 34854 H 3209.19 3.91631 5.45963 0
M  V30 34855 N 3211.91 -1.31626 0.866732 0
M  V30 34856 C 3213.14 -2.01004 0.490426 0
M  V30 34857 C 3213.55 -1.65079 -0.916215 0
M  V30 34858 O 3212.91 -0.878328 -1.59974 0
M  V30 34859 C 3212.96 -3.55896 0.634074 0
M  V30 34860 O 3212.68 -3.90534 1.98532 0
M  V30 34861 C 3214.18 -4.42547 0.258355 0
M  V30 34862 H 3211.4 -0.643113 0.191432 0
M  V30 34863 H 3213.95 -1.67932 1.16701 0
M  V30 34864 H 3212.1 -3.874 0.00508611 0
M  V30 34865 H 3212.52 -4.85252 1.99075 0
M  V30 34866 H 3213.99 -5.50477 0.40983 0
M  V30 34867 H 3214.47 -4.31811 -0.802225 0
M  V30 34868 H 3215.07 -4.16454 0.86291 0
M  V30 34869 N 3213.39 -0.62585 -1.4464 0
M  V30 34870 C 3214.67 -0.059393 -1.9551 0
M  V30 34871 C 3215.05 1.41346 -1.56794 0
M  V30 34872 O 3214.39 2.12523 -0.83941 0
M  V30 34873 C 3214.6 -0.276708 -3.47901 0
M  V30 34874 C 3215.95 -0.167118 -4.24271 0
M  V30 34875 O 3216.98 -0.207793 -3.55593 0
M  V30 34876 O 3215.84 -0.067596 -5.46458 0
M  V30 34877 H 3212.93 0.0253277 -0.826612 0
M  V30 34878 H 3215.48 -0.697186 -1.54717 0
M  V30 34879 H 3214.25 -1.29892 -3.69112 0
M  V30 34880 H 3213.87 0.395477 -3.95628 0
M  V30 34881 N 3214.87 1.53289 -0.36608 0
M  V30 34882 C 3216.28 1.59593 -0.0150429 0
M  V30 34883 C 3216.48 1.38118 1.46716 0
M  V30 34884 O 3215.54 1.1866 2.22881 0
M  V30 34885 C 3216.85 2.96982 -0.471426 0
M  V30 34886 C 3218.4 3.10092 -0.425689 0
M  V30 34887 C 3218.88 4.49894 -0.857891 0
M  V30 34888 N 3220.37 4.5601 -0.81297 0
M  V30 34889 C 3221.1 5.62374 -1.11908 0
M  V30 34890 N 3220.6 6.76489 -1.49448 0
M  V30 34891 N 3222.39 5.52361 -1.04184 0
M  V30 34892 H 3214.54 1.655 -1.3313 0
M  V30 34893 H 3216.8 0.776251 -0.544185 0
M  V30 34894 H 3216.51 3.17837 -1.50574 0
M  V30 34895 H 3216.38 3.76934 0.141698 0
M  V30 34896 H 3218.77 2.88946 0.599497 0
M  V30 34897 H 3218.85 2.32147 -1.07431 0
M  V30 34898 H 3218.5 4.71777 -1.8812 0
M  V30 34899 H 3218.43 5.2627 -0.186512 0
M  V30 34900 H 3220.92 3.74074 -0.536408 0
M  V30 34901 H 3221.23 7.53591 -1.7123 0
M  V30 34902 H 3219.58 6.77879 -1.53314 0
M  V30 34903 H 3222.77 4.62089 -0.747735 0
M  V30 34904 H 3222.94 6.35157 -1.28373 0
M  V30 34905 N 3216.35 0.0952613 1.57312 0
M  V30 34906 C 3217.59 -0.567285 1.93975 0
M  V30 34907 C 3217.91 -1.68711 0.977835 0
M  V30 34908 O 3217.18 -1.95877 0.0299288 0
M  V30 34909 H 3215.76 -0.212545 0.716124 0
M  V30 34910 H 3218.43 0.158632 1.94253 0
M  V30 34911 H 3217.52 -0.977371 2.96402 0
M  V30 34912 N 3217.82 -1.56587 -0.178432 0
M  V30 34913 C 3218.76 -1.9241 -1.24543 0
M  V30 34914 C 3219.77 -0.816446 -1.40847 0
M  V30 34915 O 3220.96 -1.09489 -1.40977 0
M  V30 34916 C 3218.06 -2.15548 -2.61519 0
M  V30 34917 C 3217.23 -3.46756 -2.66606 0
M  V30 34918 C 3216.29 -3.58807 -3.84895 0
M  V30 34919 O 3215.32 -4.31488 -3.71223 0
M  V30 34920 N 3216.52 -2.93129 -5.01055 0
M  V30 34921 H 3219.28 -2.84537 -0.941225 0
M  V30 34922 H 3216.84 -1.57656 -0.368247 0
M  V30 34923 H 3218.84 -2.20882 -3.39106 0
M  V30 34924 H 3217.41 -1.2984 -2.84359 0
M  V30 34925 H 3216.63 -3.53143 -1.75167 0
M  V30 34926 H 3217.91 -4.33108 -2.6701 0
M  V30 34927 H 3217.31 -2.33937 -5.15063 0
M  V30 34928 H 3215.87 -3.04067 -5.76529 0
M  V30 34929 N 3219.3 0.446741 -1.51136 0
M  V30 34930 C 3220.23 1.54913 -1.74712 0
M  V30 34931 C 3221.21 1.59292 -0.596656 0
M  V30 34932 O 3222.4 1.75171 -0.838386 0
M  V30 34933 C 3219.53 2.93067 -1.86358 0
M  V30 34934 C 3218.48 3.0355 -3.0173 0
M  V30 34935 C 3217.81 4.43591 -2.98548 0
M  V30 34936 C 3219.11 2.78502 -4.41853 0
M  V30 34937 H 3220.8 1.35435 -2.67016 0
M  V30 34938 H 3218.35 0.650108 -1.2849 0
M  V30 34939 H 3220.3 3.70138 -2.01435 0
M  V30 34940 H 3219.02 3.13755 -0.906942 0
M  V30 34941 H 3217.68 2.28917 -2.86343 0
M  V30 34942 H 3217.33 4.61233 -2.00681 0
M  V30 34943 H 3217.03 4.51537 -3.76015 0
M  V30 34944 H 3218.56 5.22649 -3.15705 0
M  V30 34945 H 3219.97 3.45311 -4.57639 0
M  V30 34946 H 3218.37 2.97868 -5.20955 0
M  V30 34947 H 3219.44 1.74174 -4.52539 0
M  V30 34948 N 3220.78 1.41123 0.701567 0
M  V30 34949 C 3222 1.43699 1.4955 0
M  V30 34950 C 3222.43 0.0422196 1.88053 0
M  V30 34951 O 3221.79 -0.953117 1.54225 0
M  V30 34952 C 3221.84 2.34626 2.7383 0
M  V30 34953 O 3220.94 1.79917 3.71084 0
M  V30 34954 H 3220.28 0.487941 0.450344 0
M  V30 34955 H 3222.81 1.85515 0.862853 0
M  V30 34956 H 3222.82 2.50296 3.22205 0
M  V30 34957 H 3221.5 3.35973 2.45143 0
M  V30 34958 H 3220.07 1.73667 3.29991 0
M  V30 34959 N 3222.26 -0.935219 1.26852 0
M  V30 34960 C 3223.5 -1.68209 1.12748 0
M  V30 34961 C 3223.83 -1.91713 -0.328094 0
M  V30 34962 O 3223.09 -1.49995 -1.25698 0
M  V30 34963 C 3223.39 -3.05899 1.84825 0
M  V30 34964 C 3223.05 -3.02131 3.34705 0
M  V30 34965 C 3221.71 -3.00811 3.75588 0
M  V30 34966 C 3224.07 -2.93987 4.30373 0
M  V30 34967 C 3221.39 -2.8912 5.10516 0
M  V30 34968 C 3223.75 -2.83838 5.65348 0
M  V30 34969 C 3222.41 -2.80863 6.05535 0
M  V30 34970 H 3221.68 -0.615519 0.412573 0
M  V30 34971 H 3224.33 -1.09121 1.57368 0
M  V30 34972 H 3222.63 -3.68647 1.32691 0
M  V30 34973 H 3224.33 -3.62548 1.71347 0
M  V30 34974 H 3220.92 -3.03942 3.02187 0
M  V30 34975 H 3225.1 -2.94111 3.99765 0
M  V30 34976 H 3220.36 -2.85198 5.40807 0
M  V30 34977 H 3224.53 -2.76501 6.39156 0
M  V30 34978 H 3222.16 -2.71561 7.10041 0
M  V30 34979 N 3223.74 -1.08752 -1.14065 0
M  V30 34980 C 3224.67 -0.742398 -2.21384 0
M  V30 34981 C 3225.65 0.276776 -1.67833 0
M  V30 34982 O 3226.83 0.146366 -1.93648 0
M  V30 34983 C 3223.96 -0.154705 -3.46955 0
M  V30 34984 C 3222.92 -1.10262 -4.13553 0
M  V30 34985 C 3222.24 -0.37697 -5.33369 0
M  V30 34986 C 3223.54 -2.44221 -4.61685 0
M  V30 34987 H 3225.24 -1.63968 -2.50509 0
M  V30 34988 H 3222.78 -0.789829 -1.20406 0
M  V30 34989 H 3224.74 0.0987679 -4.21284 0
M  V30 34990 H 3223.46 0.777733 -3.17205 0
M  V30 34991 H 3222.12 -1.34125 -3.41183 0
M  V30 34992 H 3221.77 0.559385 -4.9988 0
M  V30 34993 H 3221.47 -1.00894 -5.78873 0
M  V30 34994 H 3222.99 -0.131634 -6.10458 0
M  V30 34995 H 3224.4 -2.24605 -5.27471 0
M  V30 34996 H 3222.8 -3.03143 -5.17904 0
M  V30 34997 H 3223.87 -3.05489 -3.76569 0
M  V30 34998 N 3225.21 1.31165 -0.873701 0
M  V30 34999 C 3226.49 1.91318 -0.407013 0
M  V30 35000 C 3226.87 1.79482 1.11127 0
M  V30 35001 O 3226.22 1.20487 1.94153 0
M  V30 35002 C 3226.43 3.37394 -0.892543 0
M  V30 35003 C 3227.78 4.14494 -0.920868 0
M  V30 35004 O 3228.8 3.46191 -0.838446 0
M  V30 35005 O 3227.66 5.36498 -1.04079 0
M  V30 35006 H 3224.75 0.817884 -0.122454 0
M  V30 35007 H 3227.3 1.39808 -0.961859 0
M  V30 35008 H 3226.07 3.4004 -1.93619 0
M  V30 35009 H 3225.7 3.96341 -0.316219 0
M  V30 35010 N 3226.69 0.633512 1.44307 0
M  V30 35011 C 3227.62 -0.0567992 2.33431 0
M  V30 35012 C 3228.6 -0.83236 1.48343 0
M  V30 35013 O 3229.79 -0.797767 1.77057 0
M  V30 35014 C 3226.92 -1.03738 3.31445 0
M  V30 35015 C 3225.87 -0.373287 4.26369 0
M  V30 35016 C 3225.2 -1.46394 5.14269 0
M  V30 35017 C 3226.5 0.721967 5.17286 0
M  V30 35018 H 3228.19 0.687439 2.91401 0
M  V30 35019 H 3225.74 0.332033 1.4012 0
M  V30 35020 H 3227.69 -1.52906 3.9268 0
M  V30 35021 H 3226.42 -1.81253 2.71689 0
M  V30 35022 H 3225.07 0.0977697 3.6647 0
M  V30 35023 H 3224.72 -2.23003 4.50864 0
M  V30 35024 H 3224.42 -1.02495 5.78592 0
M  V30 35025 H 3225.95 -1.95738 5.78376 0
M  V30 35026 H 3227.36 0.313281 5.72443 0
M  V30 35027 H 3225.76 1.08423 5.90224 0
M  V30 35028 H 3226.83 1.58812 4.58156 0
M  V30 35029 N 3228.17 -1.53093 0.374204 0
M  V30 35030 C 3229.12 -2.27525 -0.48322 0
M  V30 35031 C 3230.11 -1.30835 -1.07603 0
M  V30 35032 O 3231.32 -1.48431 -1.01824 0
M  V30 35033 H 3227.69 -0.731458 -0.174565 0
M  V30 35034 H 3229.66 -2.97937 0.166209 0
M  V30 35035 C 3228.41 -3.08365 -1.60644 0
M  V30 35036 H 3227.74 -3.82614 -1.15959 0
M  V30 35037 H 3229.18 -3.63609 -2.18092 0
M  V30 35038 C 3227.64 -2.19737 -2.55377 0
M  V30 35039 O 3228.17 -1.81396 -3.58411 0
M  V30 35040 N 3226.37 -1.84198 -2.24766 0
M  V30 35041 H 3225.92 -2.15576 -1.41014 0
M  V30 35042 H 3225.88 -1.25186 -2.88402 0
M  V30 35043 N 3229.65 -0.103603 -1.57259 0
M  V30 35044 C 3230.88 0.56624 -1.99001 0
M  V30 35045 C 3231.29 1.61195 -0.982938 0
M  V30 35046 O 3230.65 1.82481 0.0263129 0
M  V30 35047 C 3230.7 1.20629 -3.4078 0
M  V30 35048 O 3230.42 0.202395 -4.37632 0
M  V30 35049 C 3231.92 1.96093 -3.97571 0
M  V30 35050 H 3229.14 0.151153 -0.653754 0
M  V30 35051 H 3231.69 -0.185401 -2.03658 0
M  V30 35052 H 3229.84 1.9088 -3.3711 0
M  V30 35053 H 3230.25 0.665444 -5.20262 0
M  V30 35054 H 3231.73 2.36224 -4.98901 0
M  V30 35055 H 3232.21 2.83013 -3.35858 0
M  V30 35056 H 3232.81 1.30638 -4.04739 0
M  V30 35057 N 3231.13 1.56679 0.170126 0
M  V30 35058 C 3232.04 1.99737 1.23054 0
M  V30 35059 C 3233.05 0.908938 1.48372 0
M  V30 35060 O 3234.23 1.21666 1.60497 0
M  V30 35061 C 3231.29 2.3496 2.5494 0
M  V30 35062 C 3230.35 3.57638 2.37474 0
M  V30 35063 C 3229.59 3.91172 3.63071 0
M  V30 35064 O 3229.81 3.25658 4.68298 0
M  V30 35065 O 3228.74 4.84516 3.5711 0
M  V30 35066 H 3232.57 2.90211 0.895053 0
M  V30 35067 H 3230.16 1.44563 0.377084 0
M  V30 35068 H 3232.04 2.5858 3.32738 0
M  V30 35069 H 3230.71 1.47648 2.88065 0
M  V30 35070 H 3229.62 3.39235 1.57703 0
M  V30 35071 H 3230.95 4.45495 2.09273 0
M  V30 35072 N 3232.6 -0.43872 1.5137 0
M  V30 35073 C 3233.85 -1.18592 1.63647 0
M  V30 35074 C 3234.17 -1.91755 0.354275 0
M  V30 35075 O 3233.44 -1.855 -0.629805 0
M  V30 35076 H 3232.02 -0.440756 0.603111 0
M  V30 35077 H 3234.69 -0.503126 1.88294 0
M  V30 35078 H 3233.78 -1.91625 2.46346 0
M  V30 35079 N 3234.08 -1.41493 -0.694073 0
M  V30 35080 C 3235.31 -1.44081 -1.48068 0
M  V30 35081 C 3235.72 -0.0449316 -1.89147 0
M  V30 35082 O 3235.06 0.946436 -1.57443 0
M  V30 35083 C 3235.13 -2.28766 -2.7732 0
M  V30 35084 C 3234.79 -3.76908 -2.58436 0
M  V30 35085 C 3235.79 -4.69033 -2.24286 0
M  V30 35086 C 3233.47 -4.20967 -2.7403 0
M  V30 35087 C 3235.47 -6.03204 -2.0597 0
M  V30 35088 C 3233.15 -5.55202 -2.55331 0
M  V30 35089 C 3234.15 -6.46137 -2.21351 0
M  V30 35090 O 3233.84 -7.77895 -2.02816 0
M  V30 35091 H 3233.57 -0.492753 -0.462785 0
M  V30 35092 H 3236.12 -1.8644 -0.861935 0
M  V30 35093 H 3234.35 -1.81223 -3.41607 0
M  V30 35094 H 3236.04 -2.23037 -3.3913 0
M  V30 35095 H 3236.81 -4.36284 -2.11851 0
M  V30 35096 H 3232.69 -3.50491 -2.99461 0
M  V30 35097 H 3236.23 -6.74145 -1.7937 0
M  V30 35098 H 3232.13 -5.8753 -2.67356 0
M  V30 35099 H 3232.9 -7.89054 -2.17567 0
M  V30 35100 N 3235.56 0.928479 -1.27346 0
M  V30 35101 C 3236.79 1.71018 -1.1645 0
M  V30 35102 C 3237.2 1.86731 0.278766 0
M  V30 35103 O 3236.56 1.38378 1.18986 0
M  V30 35104 C 3236.61 3.11023 -1.84247 0
M  V30 35105 O 3236.33 2.96049 -3.22935 0
M  V30 35106 C 3237.83 4.05347 -1.79467 0
M  V30 35107 H 3235.05 0.535062 -0.404908 0
M  V30 35108 H 3237.6 1.1631 -1.68203 0
M  V30 35109 H 3235.75 3.62593 -1.36401 0
M  V30 35110 H 3236.17 3.84554 -3.56677 0
M  V30 35111 H 3237.64 5.01101 -2.3152 0
M  V30 35112 H 3238.12 4.32507 -0.763847 0
M  V30 35113 H 3238.72 3.59702 -2.26924 0
M  V30 35114 N 3237.04 1.09355 1.13486 0
M  V30 35115 C 3238.26 0.851114 1.89132 0
M  V30 35116 C 3238.69 -0.591944 1.78543 0
M  V30 35117 O 3238.05 -1.41581 1.13246 0
M  V30 35118 C 3238.09 1.29007 3.36734 0
M  V30 35119 O 3237.2 0.448065 4.09959 0
M  V30 35120 H 3236.54 0.308306 0.588084 0
M  V30 35121 H 3239.07 1.4575 1.4359 0
M  V30 35122 H 3239.08 1.27515 3.87561 0
M  V30 35123 H 3237.75 2.34101 3.43758 0
M  V30 35124 H 3236.33 0.527235 3.69154 0
M  V30 35125 N 3238.52 -1.307 0.880644 0
M  V30 35126 C 3239.43 -2.32003 0.348075 0
M  V30 35127 C 3240.44 -1.65163 -0.547479 0
M  V30 35128 O 3241.62 -1.96498 -0.441638 0
M  V30 35129 C 3238.68 -3.43991 -0.432524 0
M  V30 35130 C 3237.75 -4.26468 0.492264 0
M  V30 35131 C 3236.98 -5.33109 -0.251176 0
M  V30 35132 O 3237.2 -5.50923 -1.47785 0
M  V30 35133 O 3236.14 -6.00593 0.396482 0
M  V30 35134 H 3239.96 -2.79499 1.18803 0
M  V30 35135 H 3237.55 -1.34791 0.644344 0
M  V30 35136 H 3239.43 -4.12223 -0.87466 0
M  V30 35137 H 3238.1 -2.98639 -1.24885 0
M  V30 35138 H 3237.01 -3.60951 0.983122 0
M  V30 35139 H 3238.34 -4.75413 1.27448 0
M  V30 35140 N 3240 -0.641156 -1.43969 0
M  V30 35141 C 3240.91 0.0587008 -2.34527 0
M  V30 35142 C 3241.92 0.825061 -1.53195 0
M  V30 35143 O 3243.1 0.775049 -1.8589 0
M  V30 35144 C 3240.16 1.02134 -3.31315 0
M  V30 35145 C 3239.22 0.253244 -4.28552 0
M  V30 35146 C 3238.46 1.17003 -5.20717 0
M  V30 35147 O 3238.68 2.40902 -5.17032 0
M  V30 35148 O 3237.61 0.648934 -5.98392 0
M  V30 35149 H 3241.44 -0.686381 -2.95842 0
M  V30 35150 H 3239.02 -0.401341 -1.43908 0
M  V30 35151 H 3240.91 1.57489 -3.90865 0
M  V30 35152 H 3239.58 1.74686 -2.72519 0
M  V30 35153 H 3238.49 -0.343596 -3.72519 0
M  V30 35154 H 3239.82 -0.432458 -4.90296 0
M  V30 35155 N 3241.47 1.52892 -0.382318 0
M  V30 35156 C 3242.72 2.01787 0.202397 0
M  V30 35157 C 3243.05 1.26855 1.47042 0
M  V30 35158 O 3242.33 0.367003 1.91006 0
M  V30 35159 C 3242.61 3.56921 0.477408 0
M  V30 35160 C 3242.46 4.4253 -0.805417 0
M  V30 35161 C 3243.78 4.21348 1.27099 0
M  V30 35162 H 3240.9 0.733466 0.0720869 0
M  V30 35163 H 3243.54 1.83013 -0.51051 0
M  V30 35164 H 3241.69 3.7305 1.08472 0
M  V30 35165 H 3243.37 4.38167 -1.44248 0
M  V30 35166 H 3241.61 4.09823 -1.42223 0
M  V30 35167 H 3242.28 5.49073 -0.567731 0
M  V30 35168 H 3244.76 4.09154 0.757089 0
M  V30 35169 H 3243.63 5.29887 1.43215 0
M  V30 35170 H 3243.89 3.78517 2.28424 0
M  V30 35171 N 3242.95 0.111941 1.57202 0
M  V30 35172 C 3243.91 -0.826496 2.1378 0
M  V30 35173 C 3244.91 -1.19944 1.07099 0
M  V30 35174 O 3246.1 -1.1261 1.32908 0
M  V30 35175 C 3243.24 -2.11671 2.67224 0
M  V30 35176 H 3244.43 -0.334923 2.98024 0
M  V30 35177 H 3241.98 -0.137229 1.55696 0
M  V30 35178 H 3242.72 -2.65275 1.86547 0
M  V30 35179 H 3242.5 -1.85884 3.45238 0
M  V30 35180 H 3243.99 -2.78768 3.10931 0
M  V30 35181 N 3244.43 -1.56767 -0.161814 0
M  V30 35182 C 3245.71 -1.73419 -0.904724 0
M  V30 35183 C 3246.09 -0.675943 -1.99986 0
M  V30 35184 O 3245.43 0.307672 -2.26419 0
M  V30 35185 C 3245.64 -3.16959 -1.46076 0
M  V30 35186 C 3246.99 -3.78202 -1.92998 0
M  V30 35187 O 3248.02 -3.20296 -1.5585 0
M  V30 35188 O 3246.88 -4.79898 -2.61457 0
M  V30 35189 H 3243.97 -0.708535 -0.426506 0
M  V30 35190 H 3246.52 -1.69046 -0.148899 0
M  V30 35191 H 3245.29 -3.85469 -0.673019 0
M  V30 35192 H 3244.91 -3.25697 -2.28051 0
M  V30 35193 N 3245.91 0.430686 -1.51601 0
M  V30 35194 C 3247.13 1.20642 -1.68702 0
M  V30 35195 C 3247.56 1.84085 -0.386587 0
M  V30 35196 O 3246.92 1.69096 0.653923 0
M  V30 35197 C 3246.96 2.26125 -2.80891 0
M  V30 35198 O 3246.07 3.31767 -2.44957 0
M  V30 35199 H 3245.41 0.353157 -0.562295 0
M  V30 35200 H 3247.94 0.507772 -1.98199 0
M  V30 35201 H 3247.95 2.70803 -3.05172 0
M  V30 35202 H 3246.62 1.79327 -3.75253 0
M  V30 35203 H 3245.2 2.92519 -2.31273 0
M  V30 35204 N 3247.39 1.4186 0.686559 0
M  V30 35205 C 3248.8 1.24527 0.998261 0
M  V30 35206 C 3249 0.141043 2.01006 0
M  V30 35207 O 3248.06 -0.491604 2.47668 0
M  V30 35208 C 3249.37 2.59789 1.51428 0
M  V30 35209 C 3250.92 2.67046 1.63265 0
M  V30 35210 C 3251.39 4.02646 2.18266 0
M  V30 35211 N 3252.88 4.04539 2.25615 0
M  V30 35212 C 3253.62 5.06269 2.69221 0
M  V30 35213 N 3253.12 6.18385 3.12364 0
M  V30 35214 N 3254.91 4.93628 2.68865 0
M  V30 35215 H 3247.06 2.12394 0.0164452 0
M  V30 35216 H 3249.32 0.945424 0.0698447 0
M  V30 35217 H 3249.03 3.41389 0.845366 0
M  V30 35218 H 3248.9 2.82898 2.49497 0
M  V30 35219 H 3251.29 1.85799 2.29266 0
M  V30 35220 H 3251.37 2.47737 0.637177 0
M  V30 35221 H 3251.01 4.84345 1.52879 0
M  V30 35222 H 3250.94 4.193 3.18583 0
M  V30 35223 H 3253.44 3.23594 1.9518 0
M  V30 35224 H 3253.75 6.9187 3.44289 0
M  V30 35225 H 3252.09 6.21908 3.10251 0
M  V30 35226 H 3255.28 4.05119 2.34514 0
M  V30 35227 H 3255.46 5.73045 3.02529 0
M  V30 35228 N 3248.86 -0.921712 1.27837 0
M  V30 35229 C 3250.11 -1.66458 1.13907 0
M  V30 35230 C 3250.43 -1.93074 -0.313345 0
M  V30 35231 O 3251.63 -2.65371 -0.57364 0
M  V30 35232 C 3250.09 -2.99832 1.9907 0
M  V30 35233 C 3249.7 -2.80893 3.49003 0
M  V30 35234 C 3251.44 -3.77677 1.93804 0
M  V30 35235 C 3249.35 -4.09859 4.26344 0
M  V30 35236 H 3248.28 -0.624377 0.422692 0
M  V30 35237 H 3250.93 -1.02349 1.52305 0
M  V30 35238 H 3249.31 -3.65031 1.5352 0
M  V30 35239 H 3250.48 -2.24424 4.02456 0
M  V30 35240 H 3248.8 -2.16469 3.5571 0
M  V30 35241 H 3251.4 -4.73257 2.48861 0
M  V30 35242 H 3251.74 -4.06165 0.912999 0
M  V30 35243 H 3252.27 -3.19285 2.3728 0
M  V30 35244 H 3249.01 -3.86548 5.29397 0
M  V30 35245 H 3248.53 -4.65969 3.77668 0
M  V30 35246 H 3250.21 -4.78177 4.35839 0
M  V30 35247 N 3250.34 -1.09956 -1.12905 0
M  V30 35248 C 3251.27 -0.765837 -2.20584 0
M  V30 35249 C 3252.25 0.258959 -1.68117 0
M  V30 35250 O 3253.44 0.125819 -1.93792 0
M  V30 35251 C 3250.57 -0.191496 -3.46772 0
M  V30 35252 C 3249.52 -1.14642 -4.12361 0
M  V30 35253 C 3248.85 -0.43352 -5.3294 0
M  V30 35254 C 3250.15 -2.49104 -4.59069 0
M  V30 35255 H 3251.84 -1.66616 -2.48756 0
M  V30 35256 H 3249.39 -0.802555 -1.19562 0
M  V30 35257 H 3251.34 0.0540795 -4.21365 0
M  V30 35258 H 3250.06 0.744046 -3.18012 0
M  V30 35259 H 3248.72 -1.37737 -3.39741 0
M  V30 35260 H 3248.37 0.506334 -5.00445 0
M  V30 35261 H 3248.07 -1.07028 -5.77771 0
M  V30 35262 H 3249.6 -0.196374 -6.10284 0
M  V30 35263 H 3251.01 -2.30186 -5.25059 0
M  V30 35264 H 3249.41 -3.08619 -5.1466 0
M  V30 35265 H 3250.48 -3.09466 -3.73308 0
M  V30 35266 N 3251.82 1.30231 -0.887563 0
M  V30 35267 C 3253.06 1.9783 -0.514052 0
M  V30 35268 C 3253.42 1.68516 0.920122 0
M  V30 35269 O 3254.62 2.2947 1.39989 0
M  V30 35270 C 3252.9 3.4869 -0.784217 0
M  V30 35271 S 3254.45 4.35789 -0.513196 0
M  V30 35272 H 3251.27 0.684818 -0.191169 0
M  V30 35273 H 3253.87 1.58289 -1.14739 0
M  V30 35274 H 3252.58 3.67517 -1.82646 0
M  V30 35275 H 3252.11 3.93156 -0.138537 0
M  V30 35276 H 3254.12 4.91963 0.647069 0
M  V30 35277 N 3253.3 0.648782 1.43627 0
M  V30 35278 C 3254.23 -0.0320375 2.33478 0
M  V30 35279 C 3255.21 -0.816579 1.49218 0
M  V30 35280 O 3256.39 -0.778943 1.77894 0
M  V30 35281 C 3253.52 -1.00216 3.32527 0
M  V30 35282 C 3252.48 -0.328044 4.26741 0
M  V30 35283 C 3251.8 -1.40931 5.15793 0
M  V30 35284 C 3253.1 0.776792 5.16491 0
M  V30 35285 H 3254.8 0.718308 2.90656 0
M  V30 35286 H 3252.34 0.346876 1.3976 0
M  V30 35287 H 3254.3 -1.48733 3.9428 0
M  V30 35288 H 3253.02 -1.78362 2.73596 0
M  V30 35289 H 3251.68 0.136633 3.66345 0
M  V30 35290 H 3251.33 -2.18208 4.53204 0
M  V30 35291 H 3251.03 -0.963529 5.79646 0
M  V30 35292 H 3252.55 -1.89592 5.8042 0
M  V30 35293 H 3253.97 0.373979 5.72079 0
M  V30 35294 H 3252.36 1.14677 5.89041 0
M  V30 35295 H 3253.43 1.63663 4.56446 0
M  V30 35296 N 3254.78 -1.52688 0.390421 0
M  V30 35297 C 3255.74 -2.2509 -0.43211 0
M  V30 35298 C 3256.74 -1.26768 -0.989273 0
M  V30 35299 O 3257.93 -1.50856 -0.871099 0
M  V30 35300 C 3255.06 -3.00681 -1.60636 0
M  V30 35301 H 3256.25 -2.9922 0.201786 0
M  V30 35302 H 3253.81 -1.55649 0.142559 0
M  V30 35303 H 3254.54 -2.30854 -2.27765 0
M  V30 35304 H 3254.33 -3.72848 -1.21354 0
M  V30 35305 H 3255.82 -3.5565 -2.18867 0
M  V30 35306 N 3256.25 -0.120276 -1.5714 0
M  V30 35307 C 3257.18 0.826074 -2.18399 0
M  V30 35308 C 3258.17 1.27636 -1.12441 0
M  V30 35309 O 3259.35 1.33874 -1.40682 0
M  V30 35310 C 3256.48 2.07575 -2.78442 0
M  V30 35311 C 3255.43 1.76321 -3.89994 0
M  V30 35312 C 3254.76 3.08329 -4.3685 0
M  V30 35313 C 3256.06 1.03053 -5.12033 0
M  V30 35314 H 3257.75 0.315604 -2.97732 0
M  V30 35315 H 3255.3 0.150361 -1.43213 0
M  V30 35316 H 3257.25 2.74238 -3.19956 0
M  V30 35317 H 3255.98 2.60949 -1.964 0
M  V30 35318 H 3254.64 1.12047 -3.49057 0
M  V30 35319 H 3254.28 3.59639 -3.51665 0
M  V30 35320 H 3253.98 2.8819 -5.12075 0
M  V30 35321 H 3255.51 3.76107 -4.81015 0
M  V30 35322 H 3256.92 1.59871 -5.50558 0
M  V30 35323 H 3255.32 0.930042 -5.92849 0
M  V30 35324 H 3256.39 0.0174968 -4.84897 0
M  V30 35325 N 3257.73 1.56851 0.153498 0
M  V30 35326 C 3258.98 1.83263 0.868485 0
M  V30 35327 C 3259.31 0.700889 1.81111 0
M  V30 35328 O 3258.59 -0.295956 1.92235 0
M  V30 35329 C 3258.87 3.20143 1.64864 0
M  V30 35330 C 3258.72 4.43871 0.727943 0
M  V30 35331 C 3260.04 3.54168 2.61253 0
M  V30 35332 H 3257.16 0.666629 0.314285 0
M  V30 35333 H 3259.8 1.89527 0.133938 0
M  V30 35334 H 3257.95 3.14934 2.27484 0
M  V30 35335 H 3259.62 4.61161 0.113247 0
M  V30 35336 H 3257.87 4.33784 0.0370982 0
M  V30 35337 H 3258.54 5.36237 1.30972 0
M  V30 35338 H 3261.01 3.59946 2.08753 0
M  V30 35339 H 3259.89 4.50986 3.12894 0
M  V30 35340 H 3260.15 2.79788 3.42302 0
M  V30 35341 N 3259.21 -0.42264 1.51827 0
M  V30 35342 C 3260.16 -1.51279 1.70583 0
M  V30 35343 C 3261.14 -1.5085 0.559726 0
M  V30 35344 O 3262.34 -1.57055 0.816251 0
M  V30 35345 C 3259.47 -2.89339 1.84764 0
M  V30 35346 C 3258.55 -2.94468 3.05204 0
M  V30 35347 N 3258.94 -2.69315 4.28139 0
M  V30 35348 C 3257.24 -3.25633 3.04761 0
M  V30 35349 C 3257.94 -2.80665 5.09512 0
M  V30 35350 N 3256.92 -3.12966 4.44469 0
M  V30 35351 H 3260.72 -1.30607 2.63285 0
M  V30 35352 H 3258.23 -0.630165 1.49675 0
M  V30 35353 H 3260.23 -3.67786 1.96315 0
M  V30 35354 H 3258.89 -3.11021 0.932533 0
M  V30 35355 H 3259.9 -2.43964 4.56839 0
M  V30 35356 H 3256.58 -3.52995 2.22937 0
M  V30 35357 H 3257.97 -2.65047 6.17414 0
M  V30 35358 N 3260.69 -1.42222 -0.679027 0
M  V30 35359 C 3261.62 -1.48155 -1.80478 0
M  V30 35360 C 3262.6 -0.338532 -1.66697 0
M  V30 35361 O 3263.78 -0.552261 -1.86182 0
M  V30 35362 C 3260.91 -1.37914 -3.18743 0
M  V30 35363 C 3259.87 -2.50198 -3.47253 0
M  V30 35364 C 3259.19 -2.25016 -4.85048 0
M  V30 35365 C 3260.49 -3.92517 -3.44569 0
M  V30 35366 H 3262.19 -2.42374 -1.7577 0
M  V30 35367 H 3259.73 -1.16657 -0.84422 0
M  V30 35368 H 3261.69 -1.40673 -3.97227 0
M  V30 35369 H 3260.41 -0.401863 -3.24118 0
M  V30 35370 H 3259.07 -2.46749 -2.71128 0
M  V30 35371 H 3258.72 -1.25593 -4.87068 0
M  V30 35372 H 3258.42 -3.00268 -5.05087 0
M  V30 35373 H 3259.94 -2.29518 -5.65821 0
M  V30 35374 H 3261.36 -3.97592 -4.13029 0
M  V30 35375 H 3259.75 -4.67586 -3.76143 0
M  V30 35376 H 3260.82 -4.19489 -2.43223 0
M  V30 35377 N 3262.17 0.91492 -1.28324 0
M  V30 35378 C 3263.58 1.47901 -1.13939 0
M  V30 35379 C 3263.93 1.94319 0.271038 0
M  V30 35380 O 3263.05 1.82352 1.16519 0
M  V30 35381 C 3263.65 2.68806 -2.06225 0
M  V30 35382 C 3262.21 3.21398 -1.95909 0
M  V30 35383 C 3261.35 1.94107 -1.98035 0
M  V30 35384 H 3264.31 0.727747 -1.4103 0
M  V30 35385 H 3264.33 3.44029 -1.62556 0
M  V30 35386 H 3263.84 2.34991 -3.0887 0
M  V30 35387 H 3261.94 3.59941 -0.96297 0
M  V30 35388 H 3262.05 3.86727 -2.82806 0
M  V30 35389 H 3260.42 2.11156 -1.42427 0
M  V30 35390 H 3261.2 1.6259 -3.02357 0
M  V30 35391 N 3263.64 1.10553 1.1232 0
M  V30 35392 C 3264.89 0.849964 1.84129 0
M  V30 35393 C 3265.22 -0.622913 1.83939 0
M  V30 35394 O 3264.5 -1.45935 1.28581 0
M  V30 35395 C 3264.78 1.40054 3.31748 0
M  V30 35396 C 3264.63 2.94036 3.40386 0
M  V30 35397 C 3265.95 1.04386 4.27541 0
M  V30 35398 H 3263.07 0.310225 0.668528 0
M  V30 35399 H 3265.71 1.36888 1.31764 0
M  V30 35400 H 3263.86 0.959168 3.76473 0
M  V30 35401 H 3265.54 3.46709 3.04287 0
M  V30 35402 H 3263.78 3.30576 2.80895 0
M  V30 35403 H 3264.45 3.27643 4.44246 0
M  V30 35404 H 3266.93 1.42472 3.90949 0
M  V30 35405 H 3265.8 1.45599 5.29237 0
M  V30 35406 H 3266.06 -0.0465539 4.42075 0
M  V30 35407 N 3265.12 -1.29758 0.894457 0
M  V30 35408 C 3266.03 -2.31621 0.372663 0
M  V30 35409 C 3267.05 -1.65734 -0.52993 0
M  V30 35410 O 3268.22 -1.96956 -0.420772 0
M  V30 35411 C 3265.29 -3.44431 -0.396015 0
M  V30 35412 C 3264.35 -4.25922 0.537469 0
M  V30 35413 C 3263.58 -5.33345 -0.194619 0
M  V30 35414 O 3263.81 -5.52459 -1.41934 0
M  V30 35415 O 3262.74 -6.00138 0.46016 0
M  V30 35416 H 3266.57 -2.78223 1.21761 0
M  V30 35417 H 3264.15 -1.341 0.658604 0
M  V30 35418 H 3266.03 -4.13127 -0.830889 0
M  V30 35419 H 3264.71 -2.99947 -1.21711 0
M  V30 35420 H 3263.62 -3.59888 1.02135 0
M  V30 35421 H 3264.95 -4.74035 1.32483 0
M  V30 35422 N 3266.6 -0.65639 -1.4328 0
M  V30 35423 C 3267.55 0.0332749 -2.30776 0
M  V30 35424 C 3268.52 0.811468 -1.44929 0
M  V30 35425 O 3269.7 0.787434 -1.73793 0
M  V30 35426 C 3266.84 0.991508 -3.3055 0
M  V30 35427 C 3265.96 0.209083 -4.31494 0
M  V30 35428 C 3265.09 1.1614 -5.18348 0
M  V30 35429 C 3264.13 0.369592 -6.10983 0
M  V30 35430 N 3263.27 1.27366 -6.90451 0
M  V30 35431 H 3268.11 -0.718718 -2.89203 0
M  V30 35432 H 3265.64 -0.366186 -1.42469 0
M  V30 35433 H 3267.6 1.56071 -3.86908 0
M  V30 35434 H 3266.23 1.71034 -2.73765 0
M  V30 35435 H 3265.28 -0.47646 -3.77404 0
M  V30 35436 H 3266.6 -0.406481 -4.97141 0
M  V30 35437 H 3265.75 1.80114 -5.79348 0
M  V30 35438 H 3264.49 1.81087 -4.52834 0
M  V30 35439 H 3263.49 -0.283474 -5.49069 0
M  V30 35440 H 3264.72 -0.275519 -6.78541 0
M  V30 35441 H 3262.66 1.90988 -6.27582 0
M  V30 35442 H 3262.58 0.712738 -7.52633 0
M  V30 35443 H 3263.85 1.90145 -7.55953 0
M  V30 35444 N 3268.08 1.52478 -0.398513 0
M  V30 35445 C 3268.99 2.3045 0.439287 0
M  V30 35446 C 3270.01 1.3774 1.06319 0
M  V30 35447 O 3271.18 1.70812 1.06701 0
M  V30 35448 C 3268.25 3.10297 1.5465 0
M  V30 35449 C 3267.31 4.1873 0.94675 0
M  V30 35450 C 3266.54 4.9476 2.0012 0
M  V30 35451 O 3266.76 4.70977 3.21771 0
M  V30 35452 O 3265.7 5.79875 1.61335 0
M  V30 35453 H 3269.52 3.03066 -0.196171 0
M  V30 35454 H 3267.11 1.48519 -0.161987 0
M  V30 35455 H 3268.99 3.60053 2.18952 0
M  V30 35456 H 3267.67 2.40486 2.16675 0
M  V30 35457 H 3266.57 3.73148 0.266736 0
M  V30 35458 H 3267.91 4.90803 0.370578 0
M  V30 35459 N 3269.56 0.128608 1.57074 0
M  V30 35460 C 3270.78 -0.537804 2.00306 0
M  V30 35461 C 3271.21 -1.58818 1.0079 0
M  V30 35462 O 3270.57 -1.8129 -0.019052 0
M  V30 35463 C 3270.61 -1.13195 3.42373 0
M  V30 35464 O 3269.72 -2.24729 3.4579 0
M  V30 35465 H 3269.06 -0.133416 0.650458 0
M  V30 35466 H 3271.59 0.219918 2.03415 0
M  V30 35467 H 3271.6 -1.46513 3.80786 0
M  V30 35468 H 3270.27 -0.362641 4.14316 0
M  V30 35469 H 3268.85 -1.92777 3.19204 0
M  V30 35470 N 3271.04 -1.5693 -0.145178 0
M  V30 35471 C 3272.28 -1.84607 -0.853917 0
M  V30 35472 C 3272.64 -0.712843 -1.78707 0
M  V30 35473 O 3271.93 0.289075 -1.89407 0
M  V30 35474 C 3272.12 -3.16308 -1.66385 0
M  V30 35475 C 3271.95 -4.42334 -0.81062 0
M  V30 35476 C 3270.72 -5.03057 -0.475534 0
M  V30 35477 C 3272.92 -5.14109 -0.140123 0
M  V30 35478 N 3270.9 -6.12653 0.391104 0
M  V30 35479 C 3272.27 -6.17219 0.586579 0
M  V30 35480 C 3274.33 -4.97863 -0.0609849 0
M  V30 35481 C 3273.03 -7.05841 1.38495 0
M  V30 35482 C 3275.06 -5.8695 0.724129 0
M  V30 35483 C 3274.42 -6.89543 1.43911 0
M  V30 35484 H 3270.52 -0.726144 -0.29024 0
M  V30 35485 H 3273.1 -1.94335 -0.119177 0
M  V30 35486 H 3271.27 -3.07724 -2.36982 0
M  V30 35487 H 3273.01 -3.31886 -2.3159 0
M  V30 35488 H 3269.76 -4.66592 -0.811742 0
M  V30 35489 H 3270.18 -6.7207 0.815501 0
M  V30 35490 H 3274.83 -4.1853 -0.599401 0
M  V30 35491 H 3272.54 -7.84601 1.93462 0
M  V30 35492 H 3276.13 -5.76447 0.787377 0
M  V30 35493 H 3275.01 -7.57285 2.03687 0
M  V30 35494 N 3272.51 0.414582 -1.52049 0
M  V30 35495 C 3273.76 1.1591 -1.65069 0
M  V30 35496 C 3274.08 1.91794 -0.384003 0
M  V30 35497 O 3275.28 2.68627 -0.393919 0
M  V30 35498 C 3273.74 2.10924 -2.91614 0
M  V30 35499 C 3273.35 1.40582 -4.25371 0
M  V30 35500 C 3275.09 2.85668 -3.13997 0
M  V30 35501 C 3273 2.34214 -5.43045 0
M  V30 35502 H 3271.93 0.436376 -0.614892 0
M  V30 35503 H 3274.58 0.42404 -1.78533 0
M  V30 35504 H 3272.96 2.8796 -2.71837 0
M  V30 35505 H 3274.13 0.689488 -4.55612 0
M  V30 35506 H 3272.45 0.779016 -4.09048 0
M  V30 35507 H 3275.05 3.55854 -3.99089 0
M  V30 35508 H 3275.39 3.4831 -2.28004 0
M  V30 35509 H 3275.92 2.15734 -3.34221 0
M  V30 35510 H 3272.66 1.76227 -6.31367 0
M  V30 35511 H 3272.18 3.03836 -5.1715 0
M  V30 35512 H 3273.86 2.94857 -5.75906 0
M  V30 35513 N 3273.99 1.4258 0.671475 0
M  V30 35514 C 3275.24 1.43439 1.43364 0
M  V30 35515 C 3275.57 0.0517681 1.94131 0
M  V30 35516 O 3274.85 -0.924518 1.71123 0
M  V30 35517 C 3275.13 2.46158 2.62827 0
M  V30 35518 C 3274.98 3.93624 2.1767 0
M  V30 35519 C 3276.3 2.45826 3.65044 0
M  V30 35520 H 3273.42 0.522315 0.519958 0
M  V30 35521 H 3276.06 1.74015 0.762819 0
M  V30 35522 H 3274.21 2.20216 3.20058 0
M  V30 35523 H 3275.88 4.30559 1.65581 0
M  V30 35524 H 3274.13 4.07331 1.49212 0
M  V30 35525 H 3274.8 4.6108 3.03495 0
M  V30 35526 H 3277.27 2.68905 3.17537 0
M  V30 35527 H 3276.15 3.19671 4.46208 0
M  V30 35528 H 3276.41 1.48543 4.16398 0
M  V30 35529 N 3275.47 -0.908102 1.28807 0
M  V30 35530 C 3276.69 -1.69672 1.19274 0
M  V30 35531 C 3277.12 -1.86506 -0.24437 0
M  V30 35532 O 3276.48 -1.37929 -1.17666 0
M  V30 35533 C 3276.53 -3.06338 1.90235 0
M  V30 35534 O 3275.63 -3.94137 1.21367 0
M  V30 35535 H 3274.97 -0.519336 0.413747 0
M  V30 35536 H 3277.5 -1.13505 1.70229 0
M  V30 35537 H 3277.51 -3.56534 1.98363 0
M  V30 35538 H 3276.19 -2.93403 2.94767 0
M  V30 35539 H 3274.76 -3.52571 1.21441 0
M  V30 35540 N 3276.95 -1.11147 -1.11732 0
M  V30 35541 C 3278.2 -0.856749 -1.83042 0
M  V30 35542 C 3278.52 0.619375 -1.84902 0
M  V30 35543 O 3277.79 1.44987 -1.31741 0
M  V30 35544 H 3276.37 -0.313962 -0.677818 0
M  V30 35545 H 3279.03 -1.40324 -1.3526 0
M  V30 35546 H 3278.12 -1.22621 -2.87003 0
M  V30 35547 N 3278.43 1.29282 -0.901326 0
M  V30 35548 C 3279.65 1.99633 -0.543546 0
M  V30 35549 C 3280.07 1.6745 0.872125 0
M  V30 35550 O 3279.43 0.920433 1.57589 0
M  V30 35551 C 3279.48 3.54089 -0.728211 0
M  V30 35552 O 3279.2 3.85133 -2.08816 0
M  V30 35553 C 3280.7 4.41706 -0.375597 0
M  V30 35554 H 3277.92 0.637812 -0.208416 0
M  V30 35555 H 3280.46 1.64779 -1.21112 0
M  V30 35556 H 3278.62 3.8725 -0.107796 0
M  V30 35557 H 3279.03 4.79803 -2.11871 0
M  V30 35558 H 3280.51 5.49196 -0.555635 0
M  V30 35559 H 3280.98 4.33786 0.687456 0
M  V30 35560 H 3281.59 4.1402 -0.973022 0
M  V30 35561 N 3279.9 0.663979 1.4293 0
M  V30 35562 C 3280.84 -0.0598475 2.29122 0
M  V30 35563 C 3281.85 -0.776379 1.43095 0
M  V30 35564 O 3283.04 -0.63234 1.66924 0
M  V30 35565 C 3280.14 -1.10816 3.2027 0
M  V30 35566 C 3279.31 -0.467623 4.34893 0
M  V30 35567 C 3278.37 -1.41426 5.06838 0
M  V30 35568 O 3277.4 -0.918719 5.61737 0
M  V30 35569 N 3278.6 -2.74792 5.11341 0
M  V30 35570 H 3281.36 0.679996 2.91884 0
M  V30 35571 H 3278.92 0.50757 1.53738 0
M  V30 35572 H 3280.92 -1.74248 3.65267 0
M  V30 35573 H 3279.49 -1.74986 2.59034 0
M  V30 35574 H 3278.71 0.345999 3.92679 0
M  V30 35575 H 3279.99 -0.0209343 5.08796 0
M  V30 35576 H 3279.39 -3.17602 4.6813 0
M  V30 35577 H 3277.95 -3.33499 5.60019 0
M  V30 35578 N 3281.38 -1.52265 0.406593 0
M  V30 35579 C 3282.61 -2.06685 -0.172065 0
M  V30 35580 C 3283.03 -1.2749 -1.38303 0
M  V30 35581 O 3282.39 -0.304473 -1.78725 0
M  V30 35582 C 3282.44 -3.57069 -0.5034 0
M  V30 35583 O 3281.54 -3.80316 -1.59478 0
M  V30 35584 H 3280.88 -0.663823 -0.0153092 0
M  V30 35585 H 3283.41 -1.96235 0.57906 0
M  V30 35586 H 3283.42 -4.00807 -0.762763 0
M  V30 35587 H 3282.1 -4.14143 0.381848 0
M  V30 35588 H 3280.67 -3.4846 -1.32778 0
M  V30 35589 N 3282.86 -0.136936 -1.57004 0
M  V30 35590 C 3284.11 0.515656 -1.95411 0
M  V30 35591 C 3284.43 1.66059 -1.02222 0
M  V30 35592 O 3283.7 1.95729 -0.0818516 0
M  V30 35593 H 3282.28 0.193484 -0.721507 0
M  V30 35594 H 3284.94 -0.21008 -1.93764 0
M  V30 35595 H 3284.04 0.898442 -2.98889 0
M  V30 35596 N 3284.34 1.57005 0.136853 0
M  V30 35597 C 3285.57 1.8807 0.862403 0
M  V30 35598 C 3285.98 0.726258 1.74273 0
M  V30 35599 O 3285.34 -0.303629 1.79957 0
M  V30 35600 C 3285.39 3.18461 1.7107 0
M  V30 35601 O 3285.11 4.29459 0.865842 0
M  V30 35602 C 3286.61 3.6311 2.54296 0
M  V30 35603 H 3283.83 0.623148 0.248854 0
M  V30 35604 H 3286.38 2.04108 0.126597 0
M  V30 35605 H 3284.53 3.04146 2.39946 0
M  V30 35606 H 3284.94 5.04081 1.44921 0
M  V30 35607 H 3286.42 4.57155 3.09376 0
M  V30 35608 H 3286.9 2.88891 3.30815 0
M  V30 35609 H 3287.5 3.80153 1.90693 0
M  V30 35610 N 3285.82 -0.406513 1.52267 0
M  V30 35611 C 3286.75 -1.50226 1.78758 0
M  V30 35612 C 3287.73 -1.57654 0.63868 0
M  V30 35613 O 3288.91 -1.72886 0.884535 0
M  V30 35614 C 3286.04 -2.88023 1.94062 0
M  V30 35615 C 3285 -2.95444 3.09672 0
M  V30 35616 C 3284.32 -4.3552 3.10204 0
M  V30 35617 C 3285.62 -2.66689 4.49081 0
M  V30 35618 H 3287.32 -1.28308 2.70513 0
M  V30 35619 H 3284.86 -0.615813 1.30168 0
M  V30 35620 H 3286.82 -3.64667 2.11177 0
M  V30 35621 H 3285.54 -3.1124 0.98981 0
M  V30 35622 H 3284.2 -2.21245 2.92312 0
M  V30 35623 H 3283.85 -4.55751 2.12839 0
M  V30 35624 H 3283.55 -4.41409 3.87855 0
M  V30 35625 H 3285.07 -5.14095 3.29452 0
M  V30 35626 H 3286.48 -3.33056 4.66633 0
M  V30 35627 H 3284.88 -2.83951 5.2867 0
M  V30 35628 H 3285.95 -1.62114 4.56998 0
M  V30 35629 N 3287.29 -1.42934 -0.663904 0
M  V30 35630 C 3288.22 -1.50061 -1.78897 0
M  V30 35631 C 3289.21 -0.356193 -1.66329 0
M  V30 35632 O 3290.39 -0.571977 -1.85586 0
M  V30 35633 C 3287.52 -1.41286 -3.17262 0
M  V30 35634 C 3286.47 -2.53867 -3.4458 0
M  V30 35635 C 3285.8 -2.30148 -4.82634 0
M  V30 35636 C 3287.1 -3.96149 -3.40387 0
M  V30 35637 H 3288.79 -2.44225 -1.73189 0
M  V30 35638 H 3286.34 -1.17546 -0.8318 0
M  V30 35639 H 3288.29 -1.44878 -3.95712 0
M  V30 35640 H 3287.02 -0.436217 -3.23674 0
M  V30 35641 H 3285.68 -2.49611 -2.68496 0
M  V30 35642 H 3285.32 -1.30751 -4.85709 0
M  V30 35643 H 3285.02 -3.05608 -5.01874 0
M  V30 35644 H 3286.55 -2.35507 -5.63355 0
M  V30 35645 H 3287.96 -4.01951 -4.08789 0
M  V30 35646 H 3286.36 -4.71549 -3.71162 0
M  V30 35647 H 3287.43 -4.22045 -2.3876 0
M  V30 35648 N 3288.77 0.901258 -1.29287 0
M  V30 35649 C 3290.02 1.65405 -1.17342 0
M  V30 35650 C 3290.35 1.92246 0.2748 0
M  V30 35651 O 3289.63 1.53178 1.19862 0
M  V30 35652 C 3289.91 3.00414 -1.98553 0
M  V30 35653 C 3289.76 2.80649 -3.51506 0
M  V30 35654 C 3291.08 4.01126 -1.81069 0
M  V30 35655 H 3288.2 0.600248 -0.427635 0
M  V30 35656 H 3290.84 1.04407 -1.58743 0
M  V30 35657 H 3288.99 3.52479 -1.63373 0
M  V30 35658 H 3290.66 2.35498 -3.96659 0
M  V30 35659 H 3288.91 2.15462 -3.76508 0
M  V30 35660 H 3289.58 3.76578 -4.036 0
M  V30 35661 H 3292.05 3.58166 -2.11794 0
M  V30 35662 H 3290.93 4.93532 -2.40244 0
M  V30 35663 H 3291.19 4.35423 -0.765465 0
M  V30 35664 N 3290.25 1.11738 1.11141 0
M  V30 35665 C 3291.5 0.862907 1.8231 0
M  V30 35666 C 3291.81 -0.613294 1.85737 0
M  V30 35667 O 3293.02 -0.984124 2.53036 0
M  V30 35668 C 3291.47 1.49402 3.27425 0
M  V30 35669 C 3291.08 3.00448 3.32317 0
M  V30 35670 C 3292.83 1.31951 4.03471 0
M  V30 35671 C 3290.73 3.56529 4.71848 0
M  V30 35672 H 3289.66 0.319162 0.683119 0
M  V30 35673 H 3292.31 1.343 1.25043 0
M  V30 35674 H 3290.7 0.941595 3.84643 0
M  V30 35675 H 3291.87 3.62122 2.84964 0
M  V30 35676 H 3290.19 3.17211 2.69753 0
M  V30 35677 H 3292.78 1.7128 5.06525 0
M  V30 35678 H 3293.13 0.262412 4.15472 0
M  V30 35679 H 3293.66 1.84075 3.52649 0
M  V30 35680 H 3290.4 4.61966 4.65046 0
M  V30 35681 H 3289.92 2.99628 5.19599 0
M  V30 35682 H 3291.6 3.55154 5.40809 0
M  V30 35683 N 3291.73 -1.28802 0.90817 0
M  V30 35684 C 3292.68 -2.29436 0.382355 0
M  V30 35685 C 3293.67 -1.61124 -0.523005 0
M  V30 35686 O 3294.88 -1.75388 -0.404868 0
M  V30 35687 H 3291.25 -0.744629 0.105035 0
M  V30 35688 H 3293.22 -2.71219 1.2443 0
M  V30 35689 C 3291.97 -3.45753 -0.367414 0
M  V30 35690 H 3291.29 -3.98517 0.320027 0
M  V30 35691 H 3292.73 -4.18181 -0.700058 0
M  V30 35692 C 3291.19 -2.97911 -1.57324 0
M  V30 35693 O 3291.72 -2.99907 -2.67243 0
M  V30 35694 N 3289.93 -2.53638 -1.41831 0
M  V30 35695 H 3289.48 -2.52213 -0.524055 0
M  V30 35696 H 3289.43 -2.21987 -2.22641 0
M  V30 35697 N 3293.21 -0.67155 -1.42576 0
M  V30 35698 C 3294.43 -0.200767 -2.05924 0
M  V30 35699 C 3294.85 1.1408 -1.50436 0
M  V30 35700 O 3294.21 1.70802 -0.642875 0
M  V30 35701 C 3294.26 -0.123568 -3.61289 0
M  V30 35702 O 3293.98 -1.41212 -4.14718 0
M  V30 35703 C 3295.48 0.3711 -4.41744 0
M  V30 35704 H 3292.7 -0.0984075 -0.663745 0
M  V30 35705 H 3295.24 -0.91737 -1.82769 0
M  V30 35706 H 3293.4 0.543702 -3.83566 0
M  V30 35707 H 3293.81 -1.28334 -5.08557 0
M  V30 35708 H 3295.29 0.374031 -5.50731 0
M  V30 35709 H 3295.76 1.40578 -4.16094 0
M  V30 35710 H 3296.37 -0.264319 -4.24478 0
M  V30 35711 N 3294.68 1.52047 -0.414663 0
M  V30 35712 C 3295.59 2.30903 0.41482 0
M  V30 35713 C 3296.61 1.3886 1.04852 0
M  V30 35714 O 3297.79 1.71934 1.04883 0
M  V30 35715 C 3294.85 3.1192 1.5135 0
M  V30 35716 C 3293.91 4.19711 0.902285 0
M  V30 35717 C 3293.15 4.96855 1.94861 0
M  V30 35718 O 3293.37 4.74363 3.16758 0
M  V30 35719 O 3292.3 5.81553 1.55176 0
M  V30 35720 H 3296.13 3.02841 -0.228304 0
M  V30 35721 H 3293.71 1.48339 -0.17773 0
M  V30 35722 H 3295.6 3.62355 2.15121 0
M  V30 35723 H 3294.27 2.42771 2.14112 0
M  V30 35724 H 3293.18 3.7341 0.227144 0
M  V30 35725 H 3294.51 4.91168 0.318501 0
M  V30 35726 N 3296.16 0.145261 1.56929 0
M  V30 35727 C 3297.44 -0.551255 1.87671 0
M  V30 35728 C 3297.82 -1.83081 1.05092 0
M  V30 35729 O 3297.17 -2.28087 0.137241 0
M  V30 35730 C 3297.38 -0.818386 3.39269 0
M  V30 35731 C 3298.73 -1.15993 4.08449 0
M  V30 35732 O 3299.75 -0.907796 3.44438 0
M  V30 35733 O 3298.61 -1.63432 5.21491 0
M  V30 35734 H 3295.7 -0.28101 0.777793 0
M  V30 35735 H 3298.25 0.181741 1.68724 0
M  V30 35736 H 3297.02 0.0872584 3.91203 0
M  V30 35737 H 3296.64 -1.60562 3.63738 0
M  V30 35738 N 3297.64 -1.57075 -0.128525 0
M  V30 35739 C 3298.89 -1.83984 -0.836323 0
M  V30 35740 C 3299.21 -0.729003 -1.80861 0
M  V30 35741 O 3298.48 0.247825 -1.94326 0
M  V30 35742 H 3297.06 -0.678797 -0.311838 0
M  V30 35743 H 3299.72 -1.94542 -0.118119 0
M  V30 35744 H 3298.82 -2.79569 -1.38736 0
M  V30 35745 N 3299.12 0.398432 -1.5248 0
M  V30 35746 C 3300.07 1.48612 -1.76587 0
M  V30 35747 C 3301.04 1.54545 -0.608704 0
M  V30 35748 O 3302.22 1.70949 -0.847413 0
M  V30 35749 C 3299.36 2.85947 -1.93206 0
M  V30 35750 C 3298.47 2.8924 -3.2088 0
M  V30 35751 C 3297.61 4.17941 -3.2787 0
M  V30 35752 C 3296.65 4.1525 -4.49704 0
M  V30 35753 N 3295.79 5.35541 -4.54027 0
M  V30 35754 H 3300.63 1.27357 -2.69414 0
M  V30 35755 H 3298.16 0.618008 -1.33488 0
M  V30 35756 H 3300.12 3.65684 -2.00825 0
M  V30 35757 H 3298.75 3.05673 -1.03749 0
M  V30 35758 H 3297.8 2.0193 -3.22379 0
M  V30 35759 H 3299.11 2.83118 -4.10665 0
M  V30 35760 H 3298.27 5.06077 -3.3462 0
M  V30 35761 H 3297.01 4.26773 -2.36043 0
M  V30 35762 H 3296.01 3.25503 -4.43089 0
M  V30 35763 H 3297.24 4.08049 -5.42838 0
M  V30 35764 H 3295.18 5.4502 -3.65088 0
M  V30 35765 H 3295.1 5.31457 -5.37671 0
M  V30 35766 H 3296.37 6.25601 -4.6502 0
M  V30 35767 N 3300.6 1.43284 0.656314 0
M  V30 35768 C 3301.54 1.48202 1.76931 0
M  V30 35769 C 3302.51 0.332052 1.62747 0
M  V30 35770 O 3303.7 0.538768 1.83035 0
M  V30 35771 C 3300.84 1.40802 3.15069 0
M  V30 35772 C 3299.95 2.6598 3.4041 0
M  V30 35773 C 3299.09 2.5059 4.68378 0
M  V30 35774 C 3298.13 3.71052 4.86813 0
M  V30 35775 N 3297.26 3.54491 6.06037 0
M  V30 35776 H 3302.1 2.43307 1.72063 0
M  V30 35777 H 3299.64 1.20778 0.839707 0
M  V30 35778 H 3301.6 1.34506 3.94923 0
M  V30 35779 H 3300.23 0.49281 3.19016 0
M  V30 35780 H 3299.28 2.82567 2.54676 0
M  V30 35781 H 3300.59 3.55469 3.49919 0
M  V30 35782 H 3299.75 2.41985 5.56353 0
M  V30 35783 H 3298.49 1.5862 4.61184 0
M  V30 35784 H 3297.49 3.80069 3.97275 0
M  V30 35785 H 3298.72 4.64026 4.95839 0
M  V30 35786 H 3296.66 2.65253 5.99981 0
M  V30 35787 H 3296.58 4.37579 6.1649 0
M  V30 35788 H 3297.85 3.49731 6.96641 0
M  V30 35789 N 3302.08 -0.894389 1.29763 0
M  V30 35790 C 3303.49 -1.17609 1.0789 0
M  V30 35791 C 3303.69 -2.00812 -0.166404 0
M  V30 35792 O 3302.75 -2.37306 -0.862678 0
M  V30 35793 C 3304.06 -1.89189 2.33727 0
M  V30 35794 C 3305.61 -2.01993 2.39098 0
M  V30 35795 C 3306.08 -2.76983 3.64752 0
M  V30 35796 N 3307.57 -2.84535 3.65506 0
M  V30 35797 C 3308.31 -3.43109 4.59417 0
M  V30 35798 N 3307.81 -4.02808 5.63664 0
M  V30 35799 N 3309.6 -3.40834 4.46977 0
M  V30 35800 H 3301.75 -0.339384 2.09671 0
M  V30 35801 H 3304.01 -0.212866 0.923792 0
M  V30 35802 H 3303.72 -1.35491 3.24554 0
M  V30 35803 H 3303.59 -2.89632 2.41647 0
M  V30 35804 H 3305.98 -2.54864 1.48756 0
M  V30 35805 H 3306.06 -1.00666 2.35159 0
M  V30 35806 H 3305.7 -2.24786 4.55449 0
M  V30 35807 H 3305.63 -3.78666 3.6595 0
M  V30 35808 H 3308.13 -2.42139 2.90133 0
M  V30 35809 H 3308.44 -4.45541 6.31437 0
M  V30 35810 H 3306.78 -4.01255 5.67468 0
M  V30 35811 H 3309.97 -2.93417 3.64724 0
M  V30 35812 H 3310.15 -3.86189 5.20348 0
M  V30 35813 N 3303.55 -1.12326 -1.10547 0
M  V30 35814 C 3304.5 -0.759017 -2.14995 0
M  V30 35815 C 3305.49 0.241433 -1.59078 0
M  V30 35816 O 3306.68 0.0471128 -1.76937 0
M  V30 35817 C 3303.81 -0.21401 -3.42632 0
M  V30 35818 C 3302.89 -1.24268 -4.05485 0
M  V30 35819 N 3303.29 -2.43992 -4.43059 0
M  V30 35820 C 3301.58 -1.08777 -4.32532 0
M  V30 35821 C 3302.28 -3.09671 -4.92422 0
M  V30 35822 N 3301.26 -2.37122 -4.89156 0
M  V30 35823 H 3305.06 -1.67009 -2.41837 0
M  V30 35824 H 3302.58 -1.00387 -1.27657 0
M  V30 35825 H 3304.57 0.0651195 -4.16849 0
M  V30 35826 H 3303.23 0.691535 -3.1725 0
M  V30 35827 H 3304.24 -2.81382 -4.34792 0
M  V30 35828 H 3300.92 -0.239428 -4.16813 0
M  V30 35829 H 3302.31 -4.11624 -5.31051 0
M  V30 35830 N 3305.03 1.28319 -0.914988 0
M  V30 35831 C 3306.26 1.99045 -0.564689 0
M  V30 35832 C 3306.67 1.68365 0.854316 0
M  V30 35833 O 3306.03 0.937096 1.56604 0
M  V30 35834 C 3306.08 3.53297 -0.765725 0
M  V30 35835 O 3305.8 3.82897 -2.12889 0
M  V30 35836 C 3307.3 4.41283 -0.422425 0
M  V30 35837 H 3304.52 0.635565 -0.215169 0
M  V30 35838 H 3307.07 1.63485 -1.22853 0
M  V30 35839 H 3305.22 3.87114 -0.148863 0
M  V30 35840 H 3305.64 4.77529 -2.16948 0
M  V30 35841 H 3307.11 5.48576 -0.613853 0
M  V30 35842 H 3307.59 4.34491 0.641408 0
M  V30 35843 H 3308.19 4.12964 -1.01688 0
M  V30 35844 N 3306.51 0.679102 1.42218 0
M  V30 35845 C 3307.44 0.0174939 2.33493 0
M  V30 35846 C 3308.42 -0.784744 1.50916 0
M  V30 35847 O 3309.61 -0.741034 1.79506 0
M  V30 35848 C 3306.74 -0.931404 3.34578 0
M  V30 35849 C 3305.69 -0.237452 4.27341 0
M  V30 35850 C 3305.02 -1.29958 5.18666 0
M  V30 35851 C 3306.32 0.886172 5.14727 0
M  V30 35852 H 3308.01 0.779798 2.89067 0
M  V30 35853 H 3305.56 0.376443 1.38992 0
M  V30 35854 H 3307.51 -1.40336 3.97346 0
M  V30 35855 H 3306.23 -1.72518 2.77318 0
M  V30 35856 H 3304.89 0.21431 3.65973 0
M  V30 35857 H 3304.54 -2.08546 4.57731 0
M  V30 35858 H 3304.24 -0.840361 5.8156 0
M  V30 35859 H 3305.76 -1.77238 5.84311 0
M  V30 35860 H 3307.18 0.495241 5.71157 0
M  V30 35861 H 3305.57 1.27146 5.86476 0
M  V30 35862 H 3306.64 1.73308 4.52871 0
M  V30 35863 N 3307.99 -1.51825 0.42272 0
M  V30 35864 C 3308.9 -2.3112 -0.402569 0
M  V30 35865 C 3309.91 -1.39414 -1.04114 0
M  V30 35866 O 3311.09 -1.72488 -1.0397 0
M  V30 35867 C 3308.15 -3.12718 -1.49694 0
M  V30 35868 C 3307.22 -4.20184 -0.880014 0
M  V30 35869 C 3306.45 -4.97881 -1.92223 0
M  V30 35870 O 3306.67 -4.76037 -3.14238 0
M  V30 35871 O 3305.61 -5.82368 -1.5209 0
M  V30 35872 H 3309.43 -3.02715 0.244361 0
M  V30 35873 H 3307.02 -1.48243 0.185595 0
M  V30 35874 H 3308.9 -3.63491 -2.13196 0
M  V30 35875 H 3307.57 -2.43903 -2.12822 0
M  V30 35876 H 3306.48 -3.73525 -0.207338 0
M  V30 35877 H 3307.81 -4.9133 -0.292448 0
M  V30 35878 N 3309.47 -0.153581 -1.5685 0
M  V30 35879 C 3310.41 0.783588 -2.17091 0
M  V30 35880 C 3311.38 1.2395 -1.10569 0
M  V30 35881 O 3312.57 1.31086 -1.38641 0
M  V30 35882 C 3309.71 2.01468 -2.80187 0
M  V30 35883 C 3308.82 1.60396 -4.0112 0
M  V30 35884 C 3307.96 2.78735 -4.52195 0
M  V30 35885 C 3306.99 2.34069 -5.65578 0
M  V30 35886 N 3306.13 3.45439 -6.11242 0
M  V30 35887 H 3310.97 0.263075 -2.96837 0
M  V30 35888 H 3308.51 0.118134 -1.46625 0
M  V30 35889 H 3310.47 2.73648 -3.14917 0
M  V30 35890 H 3309.1 2.50919 -2.03075 0
M  V30 35891 H 3308.15 0.779565 -3.72326 0
M  V30 35892 H 3309.46 1.23596 -4.83245 0
M  V30 35893 H 3308.61 3.59097 -4.89014 0
M  V30 35894 H 3307.35 3.18784 -3.69091 0
M  V30 35895 H 3306.36 1.52149 -5.28328 0
M  V30 35896 H 3307.58 1.95098 -6.50472 0
M  V30 35897 H 3305.53 3.85097 -5.31071 0
M  V30 35898 H 3305.45 3.12675 -6.8831 0
M  V30 35899 H 3306.71 4.26138 -6.52707 0
M  V30 35900 N 3310.94 1.57141 0.120193 0
M  V30 35901 C 3311.88 1.95454 1.17783 0
M  V30 35902 C 3312.85 0.824041 1.40172 0
M  V30 35903 O 3314.04 1.08211 1.54346 0
M  V30 35904 C 3311.17 2.24973 2.53189 0
M  V30 35905 C 3310.21 3.4753 2.47235 0
M  V30 35906 S 3311.04 5.00158 1.91316 0
M  V30 35907 C 3312.2 5.32828 3.28397 0
M  V30 35908 H 3312.43 2.84857 0.851101 0
M  V30 35909 H 3309.97 1.509 0.326902 0
M  V30 35910 H 3311.92 2.42658 3.311 0
M  V30 35911 H 3310.59 1.36186 2.83041 0
M  V30 35912 H 3309.78 3.65547 3.46975 0
M  V30 35913 H 3309.38 3.29226 1.77444 0
M  V30 35914 H 3311.67 5.27937 4.24604 0
M  V30 35915 H 3312.62 6.34073 3.15209 0
M  V30 35916 H 3313.02 4.60306 3.26771 0
M  V30 35917 N 3312.42 -0.39034 1.5269 0
M  V30 35918 C 3313.65 -1.15675 1.71543 0
M  V30 35919 C 3314.07 -1.83763 0.433204 0
M  V30 35920 O 3313.42 -1.72624 -0.592218 0
M  V30 35921 C 3313.47 -2.20579 2.86404 0
M  V30 35922 O 3313.19 -1.55267 4.09663 0
M  V30 35923 C 3314.7 -3.09957 3.16925 0
M  V30 35924 H 3311.92 -0.346873 0.574387 0
M  V30 35925 H 3314.46 -0.456816 1.99332 0
M  V30 35926 H 3312.61 -2.8621 2.6108 0
M  V30 35927 H 3313.03 -2.24962 4.73806 0
M  V30 35928 H 3314.5 -3.79597 4.00762 0
M  V30 35929 H 3314.98 -3.73389 2.31252 0
M  V30 35930 H 3315.59 -2.49973 3.44084 0
M  V30 35931 N 3313.9 -1.4363 -0.648706 0
M  V30 35932 C 3315.18 -1.35963 -1.40618 0
M  V30 35933 C 3315.56 -0.00964733 -2.11098 0
M  V30 35934 O 3314.91 1.00711 -2.05109 0
M  V30 35935 C 3315.12 -2.54591 -2.38715 0
M  V30 35936 C 3316.46 -2.97878 -3.02579 0
M  V30 35937 O 3317.49 -2.5467 -2.49042 0
M  V30 35938 O 3316.35 -3.72743 -3.99656 0
M  V30 35939 H 3313.44 -0.537541 -0.628473 0
M  V30 35940 H 3315.99 -1.55688 -0.675236 0
M  V30 35941 H 3314.76 -3.44475 -1.85613 0
M  V30 35942 H 3314.38 -2.36989 -3.19252 0
M  V30 35943 N 3315.38 0.887495 -1.30236 0
M  V30 35944 C 3316.6 1.67753 -1.21958 0
M  V30 35945 C 3317.03 1.86871 0.214668 0
M  V30 35946 O 3316.39 1.39784 1.15456 0
M  V30 35947 C 3316.43 3.03273 -1.95085 0
M  V30 35948 O 3315.54 3.92156 -1.27622 0
M  V30 35949 H 3314.88 0.512687 -0.421957 0
M  V30 35950 H 3317.41 1.10782 -1.72013 0
M  V30 35951 H 3317.42 3.53333 -2.0401 0
M  V30 35952 H 3316.09 2.88676 -2.99397 0
M  V30 35953 H 3314.67 3.50595 -1.27035 0
M  V30 35954 N 3316.86 1.12911 1.0995 0
M  V30 35955 C 3318.1 0.888829 1.82285 0
M  V30 35956 C 3318.44 -0.583757 1.85219 0
M  V30 35957 O 3317.71 -1.43175 1.31648 0
M  V30 35958 C 3317.99 1.47059 3.28703 0
M  V30 35959 C 3317.85 3.0119 3.34073 0
M  V30 35960 C 3319.17 1.13431 4.25231 0
M  V30 35961 H 3316.28 0.324336 0.661797 0
M  V30 35962 H 3318.93 1.39652 1.28831 0
M  V30 35963 H 3317.08 1.03881 3.74354 0
M  V30 35964 H 3318.75 3.53085 2.96865 0
M  V30 35965 H 3316.99 3.3646 2.73819 0
M  V30 35966 H 3317.66 3.36992 4.37196 0
M  V30 35967 H 3320.14 1.50733 3.87839 0
M  V30 35968 H 3319.01 1.56792 5.2603 0
M  V30 35969 H 3319.28 0.0472273 4.42075 0
M  V30 35970 N 3318.33 -1.27832 0.92178 0
M  V30 35971 C 3319.56 -1.98743 0.575237 0
M  V30 35972 C 3319.98 -1.68816 -0.845375 0
M  V30 35973 O 3319.33 -0.945388 -1.56105 0
M  V30 35974 C 3319.39 -3.52886 0.784451 0
M  V30 35975 O 3319.11 -3.81762 2.14917 0
M  V30 35976 C 3320.61 -4.41053 0.445821 0
M  V30 35977 H 3317.83 -0.634415 0.218536 0
M  V30 35978 H 3320.37 -1.62831 1.23718 0
M  V30 35979 H 3318.53 -3.87029 0.169391 0
M  V30 35980 H 3318.94 -4.76372 2.19477 0
M  V30 35981 H 3320.41 -5.48243 0.642937 0
M  V30 35982 H 3320.89 -4.34825 -0.618357 0
M  V30 35983 H 3321.5 -4.12419 1.03877 0
M  V30 35984 N 3319.81 -0.686634 -1.41856 0
M  V30 35985 C 3321.05 -0.217875 -2.03235 0
M  V30 35986 C 3321.42 1.15768 -1.53172 0
M  V30 35987 O 3322.62 1.72178 -2.06418 0
M  V30 35988 C 3320.89 -0.263505 -3.56427 0
M  V30 35989 S 3322.45 0.132518 -4.386 0
M  V30 35990 H 3319.27 -0.0884994 -0.705471 0
M  V30 35991 H 3321.87 -0.902423 -1.73426 0
M  V30 35992 H 3320.57 -1.26679 -3.9036 0
M  V30 35993 H 3320.1 0.440487 -3.90926 0
M  V30 35994 H 3322.12 1.36271 -4.77121 0
M  V30 35995 N 3321.29 1.51599 -0.430766 0
M  V30 35996 C 3322.22 2.30475 0.374655 0
M  V30 35997 C 3323.2 1.35604 1.02691 0
M  V30 35998 O 3324.39 1.64522 1.03181 0
M  V30 35999 C 3321.52 3.14198 1.47975 0
M  V30 36000 C 3320.47 4.17293 0.951342 0
M  V30 36001 C 3319.8 4.89496 2.15169 0
M  V30 36002 C 3321.1 5.22299 -0.00967132 0
M  V30 36003 H 3322.79 2.98054 -0.28356 0
M  V30 36004 H 3320.34 1.43339 -0.137815 0
M  V30 36005 H 3322.29 3.68155 2.05037 0
M  V30 36006 H 3321.01 2.44428 2.16616 0
M  V30 36007 H 3319.67 3.64378 0.402988 0
M  V30 36008 H 3319.32 4.16235 2.82414 0
M  V30 36009 H 3319.02 5.59205 1.80454 0
M  V30 36010 H 3320.54 5.46274 2.72796 0
M  V30 36011 H 3321.96 5.71367 0.470427 0
M  V30 36012 H 3320.36 5.99496 -0.269065 0
M  V30 36013 H 3321.43 4.75535 -0.948381 0
M  V30 36014 N 3322.77 0.161897 1.56766 0
M  V30 36015 C 3324 -0.491278 2.00674 0
M  V30 36016 C 3324.41 -1.57978 1.04114 0
M  V30 36017 O 3323.75 -1.83671 0.0325212 0
M  V30 36018 C 3323.81 -1.138 3.41013 0
M  V30 36019 C 3323.48 -0.192304 4.56595 0
M  V30 36020 C 3324.47 0.585762 5.1659 0
M  V30 36021 C 3322.16 -0.0908711 5.02218 0
M  V30 36022 C 3324.15 1.45256 6.20628 0
M  V30 36023 C 3321.84 0.779516 6.06108 0
M  V30 36024 C 3322.84 1.54982 6.65184 0
M  V30 36025 O 3322.52 2.40568 7.67061 0
M  V30 36026 H 3322.26 -0.131047 0.663176 0
M  V30 36027 H 3324.81 0.257932 2.03774 0
M  V30 36028 H 3323.04 -1.93515 3.34797 0
M  V30 36029 H 3324.73 -1.69242 3.68934 0
M  V30 36030 H 3325.5 0.517517 4.82231 0
M  V30 36031 H 3321.37 -0.680211 4.55954 0
M  V30 36032 H 3324.92 2.05427 6.66667 0
M  V30 36033 H 3320.82 0.848999 6.39892 0
M  V30 36034 H 3321.58 2.3398 7.84344 0
M  V30 36035 N 3324.25 -1.57203 -0.111858 0
M  V30 36036 C 3325.49 -1.87047 -0.824187 0
M  V30 36037 C 3325.85 -0.750796 -1.76712 0
M  V30 36038 O 3327.05 -0.931199 -2.52155 0
M  V30 36039 C 3325.32 -3.22125 -1.54824 0
M  V30 36040 S 3326.88 -3.7362 -2.30116 0
M  V30 36041 H 3323.7 -0.655692 -0.274934 0
M  V30 36042 H 3326.3 -1.95327 -0.0821555 0
M  V30 36043 H 3325.01 -4.01551 -0.847633 0
M  V30 36044 H 3324.54 -3.1694 -2.33051 0
M  V30 36045 H 3326.55 -3.45693 -3.55964 0
M  V30 36046 N 3325.72 0.382237 -1.52894 0
M  V30 36047 C 3326.67 1.48771 -1.78801 0
M  V30 36048 C 3327.67 1.56171 -0.656267 0
M  V30 36049 O 3328.87 1.59257 -0.838884 0
M  V30 36050 H 3325.25 0.49528 -0.565864 0
M  V30 36051 H 3327.22 1.24117 -2.71362 0
M  V30 36052 C 3325.97 2.85822 -1.97992 0
M  V30 36053 H 3325.29 2.80881 -2.8451 0
M  V30 36054 H 3326.73 3.62394 -2.20105 0
M  V30 36055 C 3325.19 3.28347 -0.754328 0
M  V30 36056 O 3325.72 4.01647 0.0650043 0
M  V30 36057 N 3323.93 2.84702 -0.582507 0
M  V30 36058 H 3323.47 2.25218 -1.25038 0
M  V30 36059 H 3323.43 3.13512 0.236153 0
M  V30 36060 N 3327.2 1.43972 0.64108 0
M  V30 36061 C 3328.43 1.49913 1.43321 0
M  V30 36062 C 3328.85 0.121941 1.87704 0
M  V30 36063 O 3328.21 -0.886848 1.58129 0
M  V30 36064 C 3328.26 2.46029 2.63632 0
M  V30 36065 O 3327.36 1.95494 3.6312 0
M  V30 36066 H 3326.7 0.506603 0.429243 0
M  V30 36067 H 3329.23 1.89008 0.783394 0
M  V30 36068 H 3329.24 2.63736 3.11299 0
M  V30 36069 H 3327.92 3.46068 2.30672 0
M  V30 36070 H 3326.5 1.87506 3.22329 0
M  V30 36071 N 3328.68 -0.880575 1.30704 0
M  V30 36072 C 3329.93 -1.63275 1.19781 0
M  V30 36073 C 3330.26 -1.92932 -0.246487 0
M  V30 36074 O 3329.51 -1.55191 -1.19223 0
M  V30 36075 C 3329.81 -2.97785 1.97633 0
M  V30 36076 C 3329.48 -2.87663 3.47218 0
M  V30 36077 C 3328.14 -2.8461 3.88009 0
M  V30 36078 C 3330.49 -2.75469 4.42455 0
M  V30 36079 C 3327.82 -2.67207 5.22319 0
M  V30 36080 C 3330.17 -2.59604 5.76878 0
M  V30 36081 C 3328.83 -2.54928 6.16902 0
M  V30 36082 H 3328.1 -0.597467 0.438309 0
M  V30 36083 H 3330.75 -1.02349 1.61855 0
M  V30 36084 H 3329.06 -3.62687 1.48207 0
M  V30 36085 H 3330.75 -3.54955 1.8657 0
M  V30 36086 H 3327.34 -2.90852 3.14807 0
M  V30 36087 H 3331.53 -2.76891 4.1188 0
M  V30 36088 H 3326.78 -2.62004 5.52416 0
M  V30 36089 H 3330.96 -2.49143 6.50308 0
M  V30 36090 H 3328.58 -2.41201 7.2092 0
M  V30 36091 N 3330.16 -1.13492 -1.09349 0
M  V30 36092 C 3331.38 -0.920722 -1.85843 0
M  V30 36093 C 3331.81 0.525271 -1.80617 0
M  V30 36094 O 3331.17 1.3728 -1.18422 0
M  V30 36095 C 3331.22 -1.41415 -3.31714 0
M  V30 36096 O 3330.32 -0.59991 -4.08013 0
M  V30 36097 H 3329.66 -0.32992 -0.576237 0
M  V30 36098 H 3332.19 -1.50979 -1.38082 0
M  V30 36099 H 3332.2 -1.41812 -3.82562 0
M  V30 36100 H 3330.88 -2.46698 -3.34833 0
M  V30 36101 H 3329.45 -0.663881 -3.66943 0
M  V30 36102 N 3331.64 1.27341 -0.928546 0
M  V30 36103 C 3332.58 2.26817 -0.426913 0
M  V30 36104 C 3333.55 1.58185 0.506635 0
M  V30 36105 O 3334.74 1.85993 0.425608 0
M  V30 36106 C 3331.88 3.43673 0.313462 0
M  V30 36107 C 3330.99 4.27016 -0.654295 0
M  V30 36108 C 3330.13 5.31094 0.106008 0
M  V30 36109 C 3329.17 6.06108 -0.8544 0
M  V30 36110 N 3328.3 7.01986 -0.126668 0
M  V30 36111 H 3333.14 2.69101 -1.28019 0
M  V30 36112 H 3330.68 1.32325 -0.642538 0
M  V30 36113 H 3332.64 4.10237 0.759048 0
M  V30 36114 H 3331.27 3.02339 1.13097 0
M  V30 36115 H 3330.32 3.6036 -1.21841 0
M  V30 36116 H 3331.63 4.79092 -1.38825 0
M  V30 36117 H 3330.79 6.03611 0.61147 0
M  V30 36118 H 3329.53 4.79824 0.872924 0
M  V30 36119 H 3328.53 5.32429 -1.3711 0
M  V30 36120 H 3329.76 6.59467 -1.62111 0
M  V30 36121 H 3327.7 6.53045 0.621987 0
M  V30 36122 H 3327.62 7.51753 -0.800178 0
M  V30 36123 H 3328.89 7.78677 0.358114 0
M  V30 36124 N 3333.12 0.694147 1.4149 0
M  V30 36125 C 3334.05 -0.0112339 2.29197 0
M  V30 36126 C 3335.06 -0.745852 1.4471 0
M  V30 36127 O 3336.25 -0.596791 1.68228 0
M  V30 36128 C 3333.35 -1.03998 3.22549 0
M  V30 36129 C 3332.52 -0.375271 4.35787 0
M  V30 36130 C 3331.58 -1.30643 5.09724 0
M  V30 36131 O 3330.61 -0.79936 5.63559 0
M  V30 36132 N 3331.81 -2.63884 5.17055 0
M  V30 36133 H 3334.57 0.741756 2.90376 0
M  V30 36134 H 3332.14 0.540066 1.52627 0
M  V30 36135 H 3334.13 -1.66461 3.6888 0
M  V30 36136 H 3332.7 -1.69452 2.62688 0
M  V30 36137 H 3331.92 0.429214 3.91856 0
M  V30 36138 H 3333.21 0.0869935 5.08726 0
M  V30 36139 H 3332.6 -3.07601 4.74761 0
M  V30 36140 H 3331.16 -3.21545 5.66967 0
M  V30 36141 N 3334.59 -1.51368 0.438799 0
M  V30 36142 C 3335.82 -2.07003 -0.128185 0
M  V30 36143 C 3336.24 -1.30395 -1.35568 0
M  V30 36144 O 3335.6 -0.342314 -1.78039 0
M  V30 36145 C 3335.65 -3.58056 -0.427547 0
M  V30 36146 O 3334.75 -3.83614 -1.51375 0
M  V30 36147 H 3334.09 -0.663999 -0.00122511 0
M  V30 36148 H 3336.62 -1.94962 0.620554 0
M  V30 36149 H 3336.63 -4.02334 -0.677574 0
M  V30 36150 H 3335.31 -4.1324 0.469608 0
M  V30 36151 H 3333.89 -3.51198 -1.25357 0
M  V30 36152 N 3336.07 -0.170208 -1.56678 0
M  V30 36153 C 3337.02 0.760518 -2.1791 0
M  V30 36154 C 3337.99 1.22771 -1.11877 0
M  V30 36155 O 3339.17 1.29608 -1.40023 0
M  V30 36156 C 3336.31 1.98485 -2.82308 0
M  V30 36157 C 3335.43 1.56133 -4.02798 0
M  V30 36158 C 3334.56 2.73924 -4.55126 0
M  V30 36159 C 3333.6 2.28057 -5.68029 0
M  V30 36160 N 3332.74 3.38937 -6.14871 0
M  V30 36161 H 3337.58 0.231577 -2.97099 0
M  V30 36162 H 3335.11 0.102576 -1.46742 0
M  V30 36163 H 3337.07 2.70293 -3.17801 0
M  V30 36164 H 3335.7 2.48751 -2.05725 0
M  V30 36165 H 3334.75 0.740031 -3.73132 0
M  V30 36166 H 3336.07 1.18464 -4.84528 0
M  V30 36167 H 3335.22 3.5389 -4.92795 0
M  V30 36168 H 3333.96 3.14852 -3.72451 0
M  V30 36169 H 3332.96 1.46537 -5.29912 0
M  V30 36170 H 3334.19 1.88188 -6.52505 0
M  V30 36171 H 3332.14 3.79443 -5.35126 0
M  V30 36172 H 3332.05 3.05357 -6.91587 0
M  V30 36173 H 3333.32 4.19191 -6.5719 0
M  V30 36174 N 3337.55 1.5726 0.10352 0
M  V30 36175 C 3338.48 1.98133 1.15221 0
M  V30 36176 C 3339.49 0.882716 1.36792 0
M  V30 36177 O 3340.68 1.1609 1.35593 0
M  V30 36178 C 3337.78 2.2778 2.50937 0
M  V30 36179 C 3336.96 3.59081 2.49759 0
M  V30 36180 C 3336.02 3.76762 3.67337 0
M  V30 36181 O 3335.04 4.48708 3.50213 0
M  V30 36182 N 3336.24 3.16701 4.86499 0
M  V30 36183 H 3339.01 2.88703 0.804397 0
M  V30 36184 H 3336.57 1.59234 0.292608 0
M  V30 36185 H 3338.56 2.3681 3.28182 0
M  V30 36186 H 3337.13 1.4326 2.77841 0
M  V30 36187 H 3336.35 3.61098 1.58119 0
M  V30 36188 H 3337.64 4.45355 2.46042 0
M  V30 36189 H 3337.04 2.58245 5.03315 0
M  V30 36190 H 3335.59 3.31228 5.61365 0
M  V30 36191 N 3339.03 -0.374123 1.53095 0
M  V30 36192 C 3339.97 -1.45784 1.78929 0
M  V30 36193 C 3340.94 -1.53557 0.633214 0
M  V30 36194 O 3342.13 -1.69579 0.874502 0
M  V30 36195 C 3339.27 -2.82837 1.97731 0
M  V30 36196 C 3338.38 -2.84099 3.25441 0
M  V30 36197 C 3337.52 -4.12672 3.34477 0
M  V30 36198 C 3336.56 -4.08043 4.56253 0
M  V30 36199 N 3335.69 -5.2825 4.62489 0
M  V30 36200 H 3340.53 -1.23055 2.71406 0
M  V30 36201 H 3338.07 -0.596693 1.34454 0
M  V30 36202 H 3340.03 -3.62443 2.06617 0
M  V30 36203 H 3338.66 -3.03984 1.08599 0
M  V30 36204 H 3337.71 -1.96775 3.25551 0
M  V30 36205 H 3339.02 -2.76549 4.15117 0
M  V30 36206 H 3338.18 -5.0069 3.42629 0
M  V30 36207 H 3336.92 -4.22964 2.42802 0
M  V30 36208 H 3335.92 -3.18412 4.48212 0
M  V30 36209 H 3337.15 -3.99361 5.49261 0
M  V30 36210 H 3335.09 -5.39143 3.73712 0
M  V30 36211 H 3335.01 -5.22835 5.46058 0
M  V30 36212 H 3336.28 -6.18124 4.74914 0
M  V30 36213 N 3340.51 -1.4431 -0.633436 0
M  V30 36214 C 3341.45 -1.51295 -1.76671 0
M  V30 36215 C 3342.45 -0.384836 -1.64971 0
M  V30 36216 O 3343.65 -0.559683 -1.71078 0
M  V30 36217 H 3340.03 -0.474707 -0.58323 0
M  V30 36218 H 3342 -2.4668 -1.67903 0
M  V30 36219 C 3340.75 -1.4721 -3.14999 0
M  V30 36220 H 3340.07 -2.3333 -3.24649 0
M  V30 36221 H 3341.51 -1.56158 -3.94196 0
M  V30 36222 C 3339.97 -0.192523 -3.36349 0
M  V30 36223 O 3340.5 0.738216 -3.94859 0
M  V30 36224 N 3338.71 -0.0963935 -2.9044 0
M  V30 36225 H 3338.25 -0.854633 -2.4301 0
M  V30 36226 H 3338.21 0.759008 -3.05101 0
M  V30 36227 N 3341.98 0.873632 -1.3117 0
M  V30 36228 C 3343.23 1.62638 -1.20645 0
M  V30 36229 C 3343.56 1.9306 0.236252 0
M  V30 36230 O 3342.81 1.55821 1.18399 0
M  V30 36231 C 3343.11 2.96733 -1.99209 0
M  V30 36232 C 3342.78 2.85818 -3.48739 0
M  V30 36233 C 3341.44 2.82548 -3.89512 0
M  V30 36234 C 3343.79 2.73119 -4.43909 0
M  V30 36235 C 3341.12 2.64433 -5.23729 0
M  V30 36236 C 3343.47 2.56541 -5.78247 0
M  V30 36237 C 3342.14 2.51653 -6.18245 0
M  V30 36238 H 3341.41 0.595134 -0.441471 0
M  V30 36239 H 3344.05 1.01489 -1.62395 0
M  V30 36240 H 3342.36 3.61896 -1.50129 0
M  V30 36241 H 3344.06 3.5396 -1.8845 0
M  V30 36242 H 3340.65 2.89178 -3.16345 0
M  V30 36243 H 3344.83 2.74703 -4.13342 0
M  V30 36244 H 3340.09 2.59071 -5.53798 0
M  V30 36245 H 3344.26 2.45691 -6.5162 0
M  V30 36246 H 3341.89 2.37375 -7.22189 0
M  V30 36247 N 3343.46 1.1407 1.08746 0
M  V30 36248 C 3344.39 0.847178 2.17589 0
M  V30 36249 C 3345.37 -0.196385 1.68963 0
M  V30 36250 O 3346.56 -0.0538074 1.94125 0
M  V30 36251 C 3343.69 0.320066 3.45822 0
M  V30 36252 C 3342.64 1.29868 4.07822 0
M  V30 36253 C 3341.97 0.631019 5.30964 0
M  V30 36254 C 3343.27 2.65971 4.49507 0
M  V30 36255 H 3344.96 1.75733 2.42401 0
M  V30 36256 H 3342.51 0.846377 1.16501 0
M  V30 36257 H 3344.46 0.102345 4.21276 0
M  V30 36258 H 3343.19 -0.625505 3.20554 0
M  V30 36259 H 3341.84 1.50251 3.34395 0
M  V30 36260 H 3341.49 -0.320248 5.01979 0
M  V30 36261 H 3341.19 1.28398 5.734 0
M  V30 36262 H 3342.72 0.422742 6.09135 0
M  V30 36263 H 3344.13 2.49515 5.16154 0
M  V30 36264 H 3342.53 3.27507 5.02851 0
M  V30 36265 H 3343.6 3.23108 3.61565 0
M  V30 36266 N 3344.94 -1.26847 0.935286 0
M  V30 36267 C 3345.87 -2.28968 0.457817 0
M  V30 36268 C 3346.85 -1.63014 -0.485841 0
M  V30 36269 O 3348.04 -1.90265 -0.388964 0
M  V30 36270 C 3345.17 -3.46143 -0.283271 0
M  V30 36271 C 3344.12 -4.24143 0.573271 0
M  V30 36272 C 3343.45 -5.33872 -0.297431 0
M  V30 36273 C 3344.75 -4.88755 1.84162 0
M  V30 36274 H 3346.44 -2.69157 1.3113 0
M  V30 36275 H 3343.99 -1.29391 0.631979 0
M  V30 36276 H 3345.94 -4.1669 -0.628292 0
M  V30 36277 H 3344.66 -3.04892 -1.17084 0
M  V30 36278 H 3343.32 -3.55353 0.901105 0
M  V30 36279 H 3342.97 -4.88862 -1.18418 0
M  V30 36280 H 3342.67 -5.86969 0.272229 0
M  V30 36281 H 3344.19 -6.07259 -0.637854 0
M  V30 36282 H 3345.61 -5.51548 1.5642 0
M  V30 36283 H 3344.01 -5.51944 2.35538 0
M  V30 36284 H 3345.08 -4.12028 2.55657 0
M  V30 36285 N 3346.42 -0.701641 -1.4112 0
M  V30 36286 C 3347.66 -0.23553 -2.01428 0
M  V30 36287 C 3348 1.1638 -1.55465 0
M  V30 36288 O 3347.27 1.78673 -0.768508 0
M  V30 36289 C 3347.56 -0.299982 -3.58848 0
M  V30 36290 C 3347.41 -1.73669 -4.14921 0
M  V30 36291 C 3348.73 0.336779 -4.3881 0
M  V30 36292 H 3345.85 -0.0870584 -0.73184 0
M  V30 36293 H 3348.49 -0.891509 -1.67786 0
M  V30 36294 H 3346.64 0.258542 -3.87639 0
M  V30 36295 H 3348.31 -2.34952 -3.96983 0
M  V30 36296 H 3346.55 -2.2689 -3.69734 0
M  V30 36297 H 3347.22 -1.73327 -5.24082 0
M  V30 36298 H 3349.7 -0.138959 -4.15868 0
M  V30 36299 H 3348.58 0.261167 -5.48278 0
M  V30 36300 H 3348.84 1.41836 -4.1873 0
M  V30 36301 N 3347.9 1.51133 -0.446821 0
M  V30 36302 C 3349.14 2.01766 0.116228 0
M  V30 36303 C 3349.47 1.33241 1.42379 0
M  V30 36304 O 3348.74 0.469948 1.9018 0
M  V30 36305 H 3347.32 0.745586 0.0459427 0
M  V30 36306 H 3349.98 1.85701 -0.591697 0
M  V30 36307 H 3349.07 3.10793 0.285303 0
M  V30 36308 N 3349.37 0.178515 1.56586 0
M  V30 36309 C 3350.6 -0.470649 2.01476 0
M  V30 36310 C 3351.02 -1.56322 1.05873 0
M  V30 36311 O 3350.37 -1.82399 0.0607811 0
M  V30 36312 C 3350.43 -1.04232 3.46147 0
M  V30 36313 O 3350.15 0.00663521 4.38099 0
M  V30 36314 C 3351.65 -1.76901 4.06474 0
M  V30 36315 H 3348.87 -0.119789 0.660221 0
M  V30 36316 H 3351.41 0.282357 2.02541 0
M  V30 36317 H 3349.57 -1.74579 3.45834 0
M  V30 36318 H 3349.98 -0.416462 5.22844 0
M  V30 36319 H 3351.45 -2.12152 5.09603 0
M  V30 36320 H 3351.93 -2.66666 3.48978 0
M  V30 36321 H 3352.54 -1.11179 4.10511 0
M  V30 36322 N 3350.85 -1.57312 -0.0951784 0
M  V30 36323 C 3351.82 -2.01095 -1.09971 0
M  V30 36324 C 3352.82 -0.904448 -1.32953 0
M  V30 36325 O 3354.01 -1.16993 -1.29067 0
M  V30 36326 C 3351.14 -2.37158 -2.44886 0
M  V30 36327 H 3352.33 -2.91058 -0.722855 0
M  V30 36328 H 3349.88 -1.52552 -0.340222 0
M  V30 36329 H 3350.62 -1.50148 -2.87447 0
M  V30 36330 H 3350.4 -3.1788 -2.29553 0
M  V30 36331 H 3351.89 -2.71688 -3.17136 0
M  V30 36332 N 3352.33 0.365999 -1.53291 0
M  V30 36333 C 3353.61 1.12433 -1.60057 0
M  V30 36334 C 3353.99 2.07123 -0.407847 0
M  V30 36335 O 3353.34 2.20429 0.601938 0
M  V30 36336 C 3353.55 1.8638 -2.95065 0
M  V30 36337 C 3354.89 2.40928 -3.49627 0
M  V30 36338 O 3355.92 1.96507 -2.97092 0
M  V30 36339 O 3354.78 3.22132 -4.41467 0
M  V30 36340 H 3351.87 0.515739 -0.646485 0
M  V30 36341 H 3354.42 0.369297 -1.65633 0
M  V30 36342 H 3353.19 1.17271 -3.73314 0
M  V30 36343 H 3352.81 2.68793 -2.92978 0
M  V30 36344 N 3353.81 1.44644 0.625774 0
M  V30 36345 C 3355.06 1.47417 1.38249 0
M  V30 36346 C 3355.38 0.110077 1.94689 0
M  V30 36347 O 3354.65 -0.858302 1.76097 0
M  V30 36348 H 3353.23 0.542832 0.513169 0
M  V30 36349 H 3355.89 1.80463 0.736147 0
M  V30 36350 H 3354.99 2.20264 2.21111 0
M  V30 36351 N 3355.29 -0.866663 1.31631 0
M  V30 36352 C 3356.23 -1.97419 1.19559 0
M  V30 36353 C 3357.2 -1.65904 0.0805869 0
M  V30 36354 O 3358.39 -1.89101 0.25403 0
M  V30 36355 C 3355.53 -3.32823 0.912293 0
M  V30 36356 C 3354.64 -3.76912 2.11095 0
M  V30 36357 C 3353.78 -5.0105 1.76415 0
M  V30 36358 C 3352.82 -5.37597 2.9267 0
M  V30 36359 N 3351.95 -6.52914 2.58163 0
M  V30 36360 H 3356.79 -2.07076 2.14298 0
M  V30 36361 H 3354.33 -1.01368 1.06597 0
M  V30 36362 H 3356.29 -4.10789 0.728582 0
M  V30 36363 H 3354.92 -3.228 0.00173078 0
M  V30 36364 H 3353.97 -2.94701 2.40532 0
M  V30 36365 H 3355.28 -3.99926 2.98096 0
M  V30 36366 H 3354.44 -5.86691 1.54526 0
M  V30 36367 H 3353.17 -4.79948 0.866103 0
M  V30 36368 H 3352.18 -4.50474 3.15204 0
M  V30 36369 H 3353.4 -5.60663 3.83189 0
M  V30 36370 H 3351.35 -6.33352 1.70886 0
M  V30 36371 H 3351.27 -6.75886 3.38694 0
M  V30 36372 H 3352.54 -7.41739 2.39675 0
M  V30 36373 N 3356.77 -1.14645 -1.0814 0
M  V30 36374 C 3357.7 -0.858705 -2.17137 0
M  V30 36375 C 3358.68 0.187422 -1.69064 0
M  V30 36376 O 3359.86 0.0435117 -1.94151 0
M  V30 36377 C 3356.99 -0.338401 -3.45647 0
M  V30 36378 C 3355.95 -1.32029 -4.07127 0
M  V30 36379 C 3355.27 -0.659168 -5.30621 0
M  V30 36380 C 3356.57 -2.68351 -4.48091 0
M  V30 36381 H 3358.27 -1.77017 -2.41465 0
M  V30 36382 H 3355.81 -0.852543 -1.1605 0
M  V30 36383 H 3357.76 -0.124685 -4.21216 0
M  V30 36384 H 3356.49 0.608496 -3.20881 0
M  V30 36385 H 3355.15 -1.52022 -3.33594 0
M  V30 36386 H 3354.8 0.293623 -5.02142 0
M  V30 36387 H 3354.5 -1.31437 -5.72711 0
M  V30 36388 H 3356.02 -0.45504 -6.08902 0
M  V30 36389 H 3357.43 -2.52249 -5.14824 0
M  V30 36390 H 3355.83 -3.30169 -5.01107 0
M  V30 36391 H 3356.9 -3.25021 -3.59846 0
M  V30 36392 N 3358.24 1.26349 -0.942 0
M  V30 36393 C 3359.21 2.24602 -0.456807 0
M  V30 36394 C 3360.21 1.54873 0.432547 0
M  V30 36395 O 3361.4 1.72653 0.23161 0
M  V30 36396 C 3358.53 3.39185 0.341523 0
M  V30 36397 H 3359.72 2.69038 -1.32508 0
M  V30 36398 H 3357.27 1.38518 -0.724046 0
M  V30 36399 H 3358.01 3.00151 1.228 0
M  V30 36400 H 3357.79 3.90979 -0.296336 0
M  V30 36401 H 3359.28 4.12176 0.670883 0
M  V30 36402 N 3359.72 0.709115 1.40746 0
M  V30 36403 C 3360.97 0.242872 2.00232 0
M  V30 36404 C 3361.28 -1.16858 1.56855 0
M  V30 36405 O 3362.49 -1.733 2.08996 0
M  V30 36406 C 3360.95 0.383304 3.57853 0
M  V30 36407 C 3360.55 1.80098 4.10206 0
M  V30 36408 C 3362.3 -0.0224765 4.24494 0
M  V30 36409 C 3360.2 1.89234 5.60307 0
M  V30 36410 H 3359.13 0.0870472 0.748958 0
M  V30 36411 H 3361.79 0.879271 1.61062 0
M  V30 36412 H 3360.17 -0.321573 3.94692 0
M  V30 36413 H 3361.34 2.53571 3.84757 0
M  V30 36414 H 3359.66 2.15764 3.56139 0
M  V30 36415 H 3362.25 0.0251584 5.34694 0
M  V30 36416 H 3362.6 -1.06336 4.0249 0
M  V30 36417 H 3363.13 0.63261 3.92738 0
M  V30 36418 H 3359.87 2.91422 5.87157 0
M  V30 36419 H 3359.39 1.20164 5.8764 0
M  V30 36420 H 3361.07 1.66147 6.25303 0
M  V30 36421 N 3361.2 -1.50894 0.454829 0
M  V30 36422 C 3362.45 -2.02224 -0.105735 0
M  V30 36423 C 3362.77 -1.33792 -1.41174 0
M  V30 36424 O 3362.03 -0.447215 -1.90522 0
M  V30 36425 C 3362.33 -3.55642 -0.354097 0
M  V30 36426 C 3361.99 -4.42462 0.868214 0
M  V30 36427 C 3360.66 -4.6591 1.20338 0
M  V30 36428 C 3363.01 -4.93286 1.6828 0
M  V30 36429 C 3360.34 -5.37427 2.35349 0
M  V30 36430 C 3362.69 -5.66065 2.82406 0
M  V30 36431 C 3361.35 -5.87771 3.16356 0
M  V30 36432 H 3360.62 -0.739989 -0.0386911 0
M  V30 36433 H 3363.27 -1.81672 0.605596 0
M  V30 36434 H 3361.57 -3.74619 -1.14751 0
M  V30 36435 H 3363.27 -3.92908 -0.801531 0
M  V30 36436 H 3359.86 -4.24421 0.597069 0
M  V30 36437 H 3364.05 -4.75039 1.43706 0
M  V30 36438 H 3359.3 -5.52444 2.61946 0
M  V30 36439 H 3363.48 -6.04432 3.45883 0
M  V30 36440 H 3361.1 -6.42966 4.05585 0
M  V30 36441 N 3362.68 -0.186817 -1.56489 0
M  V30 36442 C 3363.59 0.749503 -2.22305 0
M  V30 36443 C 3364.6 1.24113 -1.21951 0
M  V30 36444 O 3365.78 1.29002 -1.54663 0
M  V30 36445 C 3362.84 1.95527 -2.86304 0
M  V30 36446 C 3361.91 1.50903 -4.01904 0
M  V30 36447 C 3361.14 2.65732 -4.62841 0
M  V30 36448 O 3361.36 3.83003 -4.22688 0
M  V30 36449 O 3360.3 2.38919 -5.5245 0
M  V30 36450 H 3364.12 0.219027 -3.02909 0
M  V30 36451 H 3361.71 0.0420986 -1.49341 0
M  V30 36452 H 3363.59 2.66015 -3.26824 0
M  V30 36453 H 3362.26 2.47451 -2.08685 0
M  V30 36454 H 3361.17 0.773196 -3.66023 0
M  V30 36455 H 3362.5 1.03654 -4.81162 0
M  V30 36456 N 3364.16 1.57361 0.0868344 0
M  V30 36457 C 3365.43 1.77538 0.820953 0
M  V30 36458 C 3365.81 0.770589 1.96533 0
M  V30 36459 O 3365.16 -0.199294 2.27629 0
M  V30 36460 C 3365.37 3.23567 1.30787 0
M  V30 36461 C 3366.72 3.8698 1.74733 0
M  V30 36462 O 3367.74 3.27367 1.40391 0
M  V30 36463 O 3366.6 4.91826 2.38263 0
M  V30 36464 H 3363.7 0.728077 0.392215 0
M  V30 36465 H 3366.24 1.69563 0.0680753 0
M  V30 36466 H 3365.01 3.88241 0.488341 0
M  V30 36467 H 3364.64 3.36207 2.12252 0
M  V30 36468 N 3365.63 -0.357865 1.53483 0
M  V30 36469 C 3366.58 -1.43878 1.80465 0
M  V30 36470 C 3367.55 -1.52876 0.649465 0
M  V30 36471 O 3368.74 -1.68642 0.892439 0
M  V30 36472 C 3365.88 -2.80724 2.00719 0
M  V30 36473 C 3364.99 -2.80631 3.28436 0
M  V30 36474 C 3364.12 -4.09101 3.38835 0
M  V30 36475 C 3363.16 -4.03181 4.60556 0
M  V30 36476 N 3362.3 -5.23315 4.68066 0
M  V30 36477 H 3367.14 -1.2017 2.72696 0
M  V30 36478 H 3364.68 -0.582398 1.3508 0
M  V30 36479 H 3366.63 -3.60231 2.1045 0
M  V30 36480 H 3365.26 -3.02815 1.11817 0
M  V30 36481 H 3364.32 -1.93311 3.2762 0
M  V30 36482 H 3365.63 -2.7213 4.18027 0
M  V30 36483 H 3364.78 -4.97028 3.4792 0
M  V30 36484 H 3363.52 -4.20365 2.47275 0
M  V30 36485 H 3362.53 -3.13641 4.51564 0
M  V30 36486 H 3363.75 -3.93513 5.53466 0
M  V30 36487 H 3361.7 -5.35149 3.79409 0
M  V30 36488 H 3361.61 -5.17014 5.51572 0
M  V30 36489 H 3362.88 -6.13052 4.81443 0
M  V30 36490 N 3367.11 -1.44974 -0.618094 0
M  V30 36491 C 3368.34 -1.51947 -1.40426 0
M  V30 36492 C 3368.75 -0.148589 -1.88214 0
M  V30 36493 O 3368.11 0.84795 -1.61605 0
M  V30 36494 C 3368.16 -2.49512 -2.61584 0
M  V30 36495 O 3367.88 -3.81272 -2.15785 0
M  V30 36496 C 3369.38 -2.6608 -3.54565 0
M  V30 36497 H 3366.6 -0.514928 -0.430221 0
M  V30 36498 H 3369.15 -1.90062 -0.754758 0
M  V30 36499 H 3367.3 -2.14498 -3.22598 0
M  V30 36500 H 3367.72 -4.34066 -2.94427 0
M  V30 36501 H 3369.19 -3.38346 -4.36149 0
M  V30 36502 H 3369.67 -1.71754 -4.04224 0
M  V30 36503 H 3370.27 -3.02048 -2.99411 0
M  V30 36504 N 3368.59 0.85967 -1.32089 0
M  V30 36505 C 3369.84 1.61588 -1.22544 0
M  V30 36506 C 3370.17 1.93023 0.213499 0
M  V30 36507 O 3369.44 1.56913 1.14928 0
M  V30 36508 C 3369.73 2.93946 -2.0801 0
M  V30 36509 C 3369.58 2.69324 -3.60256 0
M  V30 36510 C 3370.9 3.95162 -1.93739 0
M  V30 36511 H 3368.02 0.586339 -0.446515 0
M  V30 36512 H 3370.66 0.993036 -1.61984 0
M  V30 36513 H 3368.81 3.47103 -1.74504 0
M  V30 36514 H 3370.48 2.22759 -4.03951 0
M  V30 36515 H 3368.72 2.03375 -3.83172 0
M  V30 36516 H 3369.4 3.63547 -4.15376 0
M  V30 36517 H 3371.87 3.51246 -2.23081 0
M  V30 36518 H 3370.75 4.85639 -2.55824 0
M  V30 36519 H 3371.01 4.32767 -0.903604 0
M  V30 36520 N 3370.07 1.15217 1.0753 0
M  V30 36521 C 3371.01 0.84728 2.14685 0
M  V30 36522 C 3371.98 -0.199014 1.64903 0
M  V30 36523 O 3373.17 -0.0669651 1.90682 0
M  V30 36524 C 3370.31 0.340733 3.43414 0
M  V30 36525 C 3369.42 1.44838 4.06996 0
M  V30 36526 C 3368.56 0.898151 5.23552 0
M  V30 36527 C 3367.6 1.98286 5.79093 0
M  V30 36528 N 3366.73 1.44914 6.86982 0
M  V30 36529 H 3371.57 1.76502 2.40106 0
M  V30 36530 H 3369.11 0.88071 1.17822 0
M  V30 36531 H 3371.07 0.0287689 4.1719 0
M  V30 36532 H 3369.7 -0.540088 3.1825 0
M  V30 36533 H 3368.75 1.87657 3.30891 0
M  V30 36534 H 3370.06 2.26742 4.44285 0
M  V30 36535 H 3369.22 0.538621 6.04304 0
M  V30 36536 H 3367.96 0.0482609 4.87676 0
M  V30 36537 H 3366.96 2.35124 4.96988 0
M  V30 36538 H 3368.19 2.8365 6.17025 0
M  V30 36539 H 3366.13 0.621582 6.53049 0
M  V30 36540 H 3366.05 2.20447 7.23145 0
M  V30 36541 H 3367.32 1.1178 7.71444 0
M  V30 36542 N 3371.55 -1.25848 0.948687 0
M  V30 36543 C 3372.48 -2.28469 0.482076 0
M  V30 36544 C 3373.46 -1.6352 -0.468524 0
M  V30 36545 O 3374.64 -1.90667 -0.368762 0
M  V30 36546 C 3371.77 -3.46424 -0.246542 0
M  V30 36547 C 3370.73 -4.23511 0.618225 0
M  V30 36548 C 3370.05 -5.34158 -0.24079 0
M  V30 36549 C 3371.35 -4.86775 1.89335 0
M  V30 36550 H 3373.05 -2.67751 1.33977 0
M  V30 36551 H 3370.59 -1.28713 0.645667 0
M  V30 36552 H 3372.55 -4.17333 -0.584062 0
M  V30 36553 H 3371.27 -3.06116 -1.13844 0
M  V30 36554 H 3369.93 -3.54377 0.938744 0
M  V30 36555 H 3369.58 -4.90091 -1.13226 0
M  V30 36556 H 3369.28 -5.86647 0.33447 0
M  V30 36557 H 3370.8 -6.07902 -0.57341 0
M  V30 36558 H 3372.21 -5.49858 1.62261 0
M  V30 36559 H 3370.61 -5.49415 2.41379 0
M  V30 36560 H 3371.68 -4.09294 2.60013 0
M  V30 36561 N 3373.02 -0.716569 -1.40368 0
M  V30 36562 C 3373.97 -0.064635 -2.30709 0
M  V30 36563 C 3374.94 0.749268 -1.4824 0
M  V30 36564 O 3376.13 0.713014 -1.76977 0
M  V30 36565 C 3373.27 0.850419 -3.34458 0
M  V30 36566 C 3372.38 0.0258834 -4.31992 0
M  V30 36567 C 3371.51 0.940507 -5.22808 0
M  V30 36568 C 3370.55 0.11012 -6.12001 0
M  V30 36569 N 3369.69 0.979674 -6.95231 0
M  V30 36570 H 3374.53 -0.840733 -2.85895 0
M  V30 36571 H 3372.07 -0.426283 -1.40788 0
M  V30 36572 H 3374.03 1.39521 -3.93179 0
M  V30 36573 H 3372.66 1.59269 -2.80773 0
M  V30 36574 H 3371.71 -0.636102 -3.75044 0
M  V30 36575 H 3373.02 -0.61697 -4.9497 0
M  V30 36576 H 3372.17 1.55379 -5.86466 0
M  V30 36577 H 3370.91 1.61718 -4.60107 0
M  V30 36578 H 3369.92 -0.516097 -5.47372 0
M  V30 36579 H 3371.14 -0.563063 -6.76762 0
M  V30 36580 H 3369.09 1.64198 -6.35118 0
M  V30 36581 H 3369.01 0.392879 -7.54978 0
M  V30 36582 H 3370.27 1.57911 -7.63338 0
M  V30 36583 N 3374.5 1.50651 -0.462825 0
M  V30 36584 C 3375.75 2.01877 0.0948213 0
M  V30 36585 C 3376.07 1.34744 1.40958 0
M  V30 36586 O 3375.34 0.490093 1.89671 0
M  V30 36587 H 3373.92 0.746031 0.0380322 0
M  V30 36588 H 3376.58 1.85063 -0.61136 0
M  V30 36589 H 3375.68 3.11078 0.252323 0
M  V30 36590 N 3375.98 0.195113 1.56388 0
M  V30 36591 C 3376.94 -0.712014 2.1786 0
M  V30 36592 C 3377.94 -1.14098 1.13306 0
M  V30 36593 O 3379.13 -1.05407 1.38691 0
M  V30 36594 C 3376.27 -1.97208 2.78068 0
M  V30 36595 H 3377.46 -0.176476 2.9938 0
M  V30 36596 H 3375.01 -0.0545047 1.56205 0
M  V30 36597 H 3375.75 -2.55013 2.00346 0
M  V30 36598 H 3375.53 -1.67323 3.54606 0
M  V30 36599 H 3377.02 -2.61895 3.25271 0
M  V30 36600 N 3377.46 -1.57404 -0.0784879 0
M  V30 36601 C 3378.42 -2.0225 -1.07832 0
M  V30 36602 C 3379.42 -0.918498 -1.31986 0
M  V30 36603 O 3380.61 -1.18355 -1.27819 0
M  V30 36604 C 3377.74 -2.39742 -2.42357 0
M  V30 36605 H 3378.94 -2.91808 -0.691944 0
M  V30 36606 H 3376.49 -1.52904 -0.324023 0
M  V30 36607 H 3377.22 -1.53188 -2.85839 0
M  V30 36608 H 3377.01 -3.20297 -2.26169 0
M  V30 36609 H 3378.5 -2.75037 -3.14236 0
M  V30 36610 N 3378.94 0.34972 -1.53671 0
M  V30 36611 C 3380.35 0.925676 -1.62136 0
M  V30 36612 C 3380.7 1.89755 -0.498759 0
M  V30 36613 O 3379.82 2.13171 0.372443 0
M  V30 36614 C 3380.42 1.68568 -2.93888 0
M  V30 36615 C 3378.98 2.21074 -3.04636 0
M  V30 36616 C 3378.12 1.02796 -2.57543 0
M  V30 36617 H 3381.08 0.128037 -1.58183 0
M  V30 36618 H 3381.1 2.5481 -2.82581 0
M  V30 36619 H 3380.61 0.978087 -3.75573 0
M  V30 36620 H 3378.71 2.95028 -2.27572 0
M  V30 36621 H 3378.82 2.47868 -4.09998 0
M  V30 36622 H 3377.19 1.39958 -2.128 0
M  V30 36623 H 3377.97 0.335097 -3.41661 0
M  V30 36624 N 3380.41 1.45299 0.610397 0
M  V30 36625 C 3381.34 1.56597 1.73204 0
M  V30 36626 C 3382.33 0.41768 1.64892 0
M  V30 36627 O 3383.51 0.640462 1.83335 0
M  V30 36628 C 3380.64 1.52964 3.118 0
M  V30 36629 C 3379.59 2.66481 3.3492 0
M  V30 36630 C 3378.92 2.47902 4.7376 0
M  V30 36631 C 3380.22 4.0851 3.25449 0
M  V30 36632 H 3381.91 2.50484 1.64006 0
M  V30 36633 H 3379.46 1.20552 0.7876 0
M  V30 36634 H 3381.41 1.59465 3.90063 0
M  V30 36635 H 3380.14 0.556046 3.21832 0
M  V30 36636 H 3378.8 2.59404 2.59047 0
M  V30 36637 H 3378.44 1.48688 4.80521 0
M  V30 36638 H 3378.14 3.24025 4.90185 0
M  V30 36639 H 3379.67 2.56253 5.54226 0
M  V30 36640 H 3381.08 4.16846 3.93589 0
M  V30 36641 H 3379.48 4.85 3.53405 0
M  V30 36642 H 3380.55 4.30615 2.22931 0
M  V30 36643 N 3381.89 -0.852653 1.32543 0
M  V30 36644 C 3382.84 -1.9614 1.21647 0
M  V30 36645 C 3383.81 -1.6581 0.0981788 0
M  V30 36646 O 3384.99 -1.88821 0.274073 0
M  V30 36647 C 3382.13 -3.31837 0.947542 0
M  V30 36648 C 3381.25 -3.74652 2.1508 0
M  V30 36649 C 3380.38 -4.99151 1.81719 0
M  V30 36650 C 3379.42 -5.34463 2.98355 0
M  V30 36651 N 3378.56 -6.50139 2.65074 0
M  V30 36652 H 3383.4 -2.04791 2.16482 0
M  V30 36653 H 3380.94 -1.00232 1.07666 0
M  V30 36654 H 3382.89 -4.09993 0.77211 0
M  V30 36655 H 3381.52 -3.2278 0.0359679 0
M  V30 36656 H 3380.58 -2.92133 2.43644 0
M  V30 36657 H 3381.89 -3.96741 3.02321 0
M  V30 36658 H 3381.04 -5.85019 1.6074 0
M  V30 36659 H 3379.78 -4.79002 0.916959 0
M  V30 36660 H 3378.79 -4.47105 3.19964 0
M  V30 36661 H 3380.01 -5.56567 3.89114 0
M  V30 36662 H 3377.96 -6.31503 1.77593 0
M  V30 36663 H 3377.87 -6.72256 3.45844 0
M  V30 36664 H 3379.14 -7.39155 2.47529 0
M  V30 36665 N 3383.37 -1.15786 -1.06918 0
M  V30 36666 C 3384.62 -0.929975 -1.78981 0
M  V30 36667 C 3384.93 0.543936 -1.87885 0
M  V30 36668 O 3386.14 0.889533 -2.56514 0
M  V30 36669 C 3384.59 -1.61451 -3.21654 0
M  V30 36670 C 3384.2 -3.12575 -3.20937 0
M  V30 36671 C 3385.95 -1.46835 -3.98296 0
M  V30 36672 C 3383.85 -3.73796 -4.58291 0
M  V30 36673 H 3382.78 -0.344296 -0.670803 0
M  V30 36674 H 3385.43 -1.38848 -1.19973 0
M  V30 36675 H 3383.82 -1.0837 -3.80883 0
M  V30 36676 H 3384.99 -3.72448 -2.71328 0
M  V30 36677 H 3383.31 -3.27004 -2.57794 0
M  V30 36678 H 3385.9 -1.89961 -4.99819 0
M  V30 36679 H 3386.25 -0.416431 -4.14212 0
M  V30 36680 H 3386.78 -1.97037 -3.45574 0
M  V30 36681 H 3383.52 -4.78908 -4.4758 0
M  V30 36682 H 3383.04 -3.18707 -5.0812 0
M  V30 36683 H 3384.72 -3.74981 -5.27256 0
M  V30 36684 N 3384.85 1.25343 -0.955348 0
M  V30 36685 C 3385.78 2.28211 -0.494186 0
M  V30 36686 C 3386.76 1.63766 0.459846 0
M  V30 36687 O 3387.94 1.9086 0.358645 0
M  V30 36688 C 3385.07 3.4655 0.228167 0
M  V30 36689 C 3384.03 4.23178 -0.640676 0
M  V30 36690 C 3383.35 5.34278 0.212459 0
M  V30 36691 C 3384.65 4.85764 -1.91914 0
M  V30 36692 H 3386.35 2.67036 -1.35395 0
M  V30 36693 H 3383.89 1.28369 -0.652484 0
M  V30 36694 H 3385.85 4.17637 0.561921 0
M  V30 36695 H 3384.57 3.06716 1.12219 0
M  V30 36696 H 3383.23 3.53874 -0.957525 0
M  V30 36697 H 3382.88 4.90684 1.10626 0
M  V30 36698 H 3382.58 5.86462 -0.365576 0
M  V30 36699 H 3384.1 6.08197 0.541164 0
M  V30 36700 H 3385.52 5.4899 -1.65175 0
M  V30 36701 H 3383.91 5.48127 -2.44289 0
M  V30 36702 H 3384.98 4.07909 -2.6218 0
M  V30 36703 N 3386.33 0.724003 1.39986 0
M  V30 36704 C 3387.28 0.0658442 2.32507 0
M  V30 36705 C 3388.27 -0.737881 1.52485 0
M  V30 36706 O 3389.48 -0.640303 1.68226 0
M  V30 36707 H 3385.85 0.00249039 0.751996 0
M  V30 36708 H 3387.82 0.862746 2.85656 0
M  V30 36709 C 3386.57 -0.835568 3.37511 0
M  V30 36710 H 3385.89 -0.226518 3.99158 0
M  V30 36711 H 3387.33 -1.26389 4.04724 0
M  V30 36712 C 3385.79 -1.96487 2.73668 0
M  V30 36713 O 3386.32 -3.05651 2.60654 0
M  V30 36714 N 3384.53 -1.751 2.31923 0
M  V30 36715 H 3384.08 -0.863162 2.42708 0
M  V30 36716 H 3384.03 -2.50838 1.89546 0
M  V30 36717 N 3387.81 -1.50403 0.470808 0
M  V30 36718 C 3389.05 -2.01517 -0.0859627 0
M  V30 36719 C 3389.37 -1.35765 -1.40809 0
M  V30 36720 O 3390.57 -1.78034 -2.04979 0
M  V30 36721 C 3389.03 -3.59323 -0.20371 0
M  V30 36722 C 3388.64 -4.34032 1.10997 0
M  V30 36723 C 3390.38 -4.18479 -0.712455 0
M  V30 36724 C 3388.29 -5.83621 0.956031 0
M  V30 36725 H 3387.22 -0.753145 -0.0359009 0
M  V30 36726 H 3389.87 -1.73217 0.605662 0
M  V30 36727 H 3388.25 -3.8421 -0.959109 0
M  V30 36728 H 3389.43 -4.2087 1.8763 0
M  V30 36729 H 3387.74 -3.86484 1.5498 0
M  V30 36730 H 3390.34 -5.27986 -0.844652 0
M  V30 36731 H 3390.68 -3.79841 -1.70371 0
M  V30 36732 H 3391.21 -3.97797 -0.014448 0
M  V30 36733 H 3387.95 -6.26731 1.92065 0
M  V30 36734 H 3387.47 -5.99359 0.230075 0
M  V30 36735 H 3389.15 -6.43998 0.622536 0
M  V30 36736 N 3389.28 -0.203404 -1.56282 0
M  V30 36737 C 3390.53 0.432312 -1.97422 0
M  V30 36738 C 3390.85 1.61574 -1.09173 0
M  V30 36739 O 3390.12 1.95206 -0.164793 0
M  V30 36740 H 3388.7 0.162708 -0.729065 0
M  V30 36741 H 3391.36 -0.292073 -1.92699 0
M  V30 36742 H 3390.46 0.770864 -3.0243 0
M  V30 36743 N 3390.76 1.57444 0.0701393 0
M  V30 36744 C 3391.71 2.04844 1.10189 0
M  V30 36745 C 3392.7 0.954094 1.39976 0
M  V30 36746 O 3393.91 1.1392 1.39364 0
M  V30 36747 H 3390.28 0.653153 0.372687 0
M  V30 36748 H 3392.26 2.90642 0.675982 0
M  V30 36749 C 3391 2.5094 2.40675 0
M  V30 36750 H 3390.33 3.34742 2.18605 0
M  V30 36751 H 3391.77 2.87858 3.1131 0
M  V30 36752 C 3390.23 1.39303 3.06751 0
M  V30 36753 O 3390.76 0.736058 3.94899 0
M  V30 36754 N 3388.96 1.13774 2.67402 0
M  V30 36755 H 3388.51 1.6738 1.95811 0
M  V30 36756 H 3388.47 0.392841 3.11936 0
M  V30 36757 N 3392.24 -0.341566 1.53854 0
M  V30 36758 C 3393.49 -1.08319 1.71449 0
M  V30 36759 C 3393.82 -1.88243 0.477322 0
M  V30 36760 O 3393.09 -1.87262 -0.525662 0
M  V30 36761 C 3393.38 -2.02275 2.97921 0
M  V30 36762 C 3393.23 -1.25801 4.3185 0
M  V30 36763 C 3394.55 -3.02064 3.20071 0
M  V30 36764 H 3391.67 -0.392397 0.623854 0
M  V30 36765 H 3394.31 -0.361561 1.86528 0
M  V30 36766 H 3392.46 -2.6381 2.85196 0
M  V30 36767 H 3394.13 -0.668657 4.56428 0
M  V30 36768 H 3392.37 -0.560043 4.3017 0
M  V30 36769 H 3393.05 -1.94695 5.16525 0
M  V30 36770 H 3395.52 -2.50645 3.32139 0
M  V30 36771 H 3394.4 -3.65006 4.09954 0
M  V30 36772 H 3394.66 -3.7355 2.36458 0
M  V30 36773 N 3393.72 -1.45621 -0.602683 0
M  V30 36774 C 3394.94 -1.5366 -1.39296 0
M  V30 36775 C 3395.37 -0.171665 -1.87315 0
M  V30 36776 O 3394.73 0.844611 -1.60424 0
M  V30 36777 C 3394.77 -2.52933 -2.57017 0
M  V30 36778 O 3393.88 -2.05053 -3.57809 0
M  V30 36779 H 3393.22 -0.517805 -0.415661 0
M  V30 36780 H 3395.75 -1.91019 -0.733006 0
M  V30 36781 H 3395.76 -2.71897 -3.04197 0
M  V30 36782 H 3394.43 -3.52062 -2.21416 0
M  V30 36783 H 3393.01 -1.95987 -3.17244 0
M  V30 36784 N 3395.2 0.845612 -1.32993 0
M  V30 36785 C 3396.42 1.63266 -1.2709 0
M  V30 36786 C 3396.84 1.88126 0.159448 0
M  V30 36787 O 3396.2 1.45665 1.09945 0
M  V30 36788 C 3396.25 2.98676 -2.03654 0
M  V30 36789 O 3395.97 2.74912 -3.41109 0
M  V30 36790 C 3397.47 3.93114 -2.04882 0
M  V30 36791 H 3394.69 0.508228 -0.438116 0
M  V30 36792 H 3397.23 1.05378 -1.75259 0
M  V30 36793 H 3395.39 3.53184 -1.59184 0
M  V30 36794 H 3395.8 3.61092 -3.80411 0
M  V30 36795 H 3397.28 4.85363 -2.6292 0
M  V30 36796 H 3397.75 4.26773 -1.03736 0
M  V30 36797 H 3398.36 3.44542 -2.4934 0
M  V30 36798 N 3396.67 1.16351 1.06302 0
M  V30 36799 C 3398.08 0.95268 1.60564 0
M  V30 36800 C 3398.44 -0.50344 1.89631 0
M  V30 36801 O 3397.56 -1.37663 1.66967 0
M  V30 36802 C 3398.16 1.72297 2.91717 0
M  V30 36803 C 3396.71 1.55713 3.42681 0
M  V30 36804 C 3395.86 1.73176 2.16576 0
M  V30 36805 H 3398.81 1.31223 0.89254 0
M  V30 36806 H 3398.83 1.19874 3.61124 0
M  V30 36807 H 3398.35 2.78271 2.7053 0
M  V30 36808 H 3396.45 0.521791 3.68928 0
M  V30 36809 H 3396.56 2.34096 4.18014 0
M  V30 36810 H 3394.92 1.15918 2.26793 0
M  V30 36811 H 3395.71 2.80538 1.97872 0
M  V30 36812 N 3398.15 -1.24835 0.961982 0
M  V30 36813 C 3399.08 -2.27945 0.506281 0
M  V30 36814 C 3400.06 -1.64008 -0.451154 0
M  V30 36815 O 3401.25 -1.91047 -0.348519 0
M  V30 36816 C 3398.38 -3.46666 -0.209785 0
M  V30 36817 C 3397.33 -4.22832 0.663109 0
M  V30 36818 C 3396.66 -5.34383 -0.184122 0
M  V30 36819 C 3397.96 -4.84739 1.94488 0
M  V30 36820 H 3399.65 -2.66315 1.3681 0
M  V30 36821 H 3397.2 -1.28021 0.659283 0
M  V30 36822 H 3399.15 -4.17929 -0.539765 0
M  V30 36823 H 3397.87 -3.07306 -1.10591 0
M  V30 36824 H 3396.53 -3.53362 0.976278 0
M  V30 36825 H 3396.18 -4.91264 -1.08022 0
M  V30 36826 H 3395.88 -5.8626 0.396673 0
M  V30 36827 H 3397.41 -6.08476 -0.508902 0
M  V30 36828 H 3398.82 -5.48106 1.68084 0
M  V30 36829 H 3397.22 -5.46823 2.47192 0
M  V30 36830 H 3398.29 -4.06513 2.64339 0
M  V30 36831 N 3399.63 -0.731417 -1.396 0
M  V30 36832 C 3400.56 -0.0379136 -2.28169 0
M  V30 36833 C 3401.54 0.751408 -1.44196 0
M  V30 36834 O 3402.72 0.734722 -1.73592 0
M  V30 36835 C 3399.85 0.953532 -3.25001 0
M  V30 36836 C 3398.9 0.253128 -4.25748 0
M  V30 36837 S 3399.73 -1.03034 -5.25494 0
M  V30 36838 C 3400.89 -0.0414027 -6.25886 0
M  V30 36839 H 3401.12 -0.789023 -2.86639 0
M  V30 36840 H 3398.65 -0.523069 -1.4527 0
M  V30 36841 H 3400.61 1.52028 -3.8131 0
M  V30 36842 H 3399.27 1.67745 -2.65557 0
M  V30 36843 H 3398.46 1.0032 -4.93915 0
M  V30 36844 H 3398.07 -0.241492 -3.7322 0
M  V30 36845 H 3400.36 0.800186 -6.72758 0
M  V30 36846 H 3401.3 -0.690114 -7.04729 0
M  V30 36847 H 3401.71 0.329396 -5.63538 0
M  V30 36848 N 3401.11 1.50152 -0.478778 0
M  V30 36849 C 3402.35 2.04272 0.0721969 0
M  V30 36850 C 3402.71 1.3523 1.36297 0
M  V30 36851 O 3403.91 1.79948 1.9968 0
M  V30 36852 C 3402.18 3.56566 0.244017 0
M  V30 36853 S 3403.74 4.32301 0.752441 0
M  V30 36854 H 3400.56 0.710893 0.0123201 0
M  V30 36855 H 3403.16 1.8446 -0.647673 0
M  V30 36856 H 3401.87 4.04367 -0.701083 0
M  V30 36857 H 3401.4 3.80745 0.989778 0
M  V30 36858 H 3403.41 4.53008 2.0248 0
M  V30 36859 N 3402.59 0.211689 1.56172 0
M  V30 36860 C 3403.52 -0.697336 2.22844 0
M  V30 36861 C 3404.5 -1.20864 1.19691 0
M  V30 36862 O 3405.68 -1.25444 1.48248 0
M  V30 36863 C 3402.81 -1.90988 2.9007 0
M  V30 36864 C 3401.77 -1.53283 3.9961 0
M  V30 36865 C 3401.09 -2.82335 4.54083 0
M  V30 36866 C 3402.39 -0.730242 5.1717 0
M  V30 36867 H 3404.09 -0.141481 2.99066 0
M  V30 36868 H 3401.63 -0.0666085 1.43846 0
M  V30 36869 H 3403.59 -2.55117 3.354 0
M  V30 36870 H 3402.31 -2.49054 2.1128 0
M  V30 36871 H 3400.97 -0.915052 3.54996 0
M  V30 36872 H 3400.62 -3.38525 3.72035 0
M  V30 36873 H 3400.32 -2.57844 5.28006 0
M  V30 36874 H 3401.84 -3.47423 5.02125 0
M  V30 36875 H 3403.25 -1.275 5.58942 0
M  V30 36876 H 3401.65 -0.582811 5.97263 0
M  V30 36877 H 3402.72 0.265242 4.84174 0
M  V30 36878 N 3404.06 -1.57479 -0.0617887 0
M  V30 36879 C 3405.29 -1.92357 -0.775479 0
M  V30 36880 C 3405.71 -0.808979 -1.69815 0
M  V30 36881 O 3405.07 0.237579 -1.79737 0
M  V30 36882 C 3405.12 -3.2622 -1.53664 0
M  V30 36883 O 3404.22 -3.16159 -2.64796 0
M  V30 36884 H 3403.57 -0.629617 -0.210898 0
M  V30 36885 H 3406.1 -2.04582 -0.0270393 0
M  V30 36886 H 3406.11 -3.60334 -1.91373 0
M  V30 36887 H 3404.78 -4.06917 -0.859727 0
M  V30 36888 H 3403.36 -2.93622 -2.29871 0
M  V30 36889 N 3405.54 0.333401 -1.54033 0
M  V30 36890 C 3406.45 1.4331 -1.8574 0
M  V30 36891 C 3407.47 1.57081 -0.748426 0
M  V30 36892 O 3408.64 1.72365 -1.04174 0
M  V30 36893 C 3405.71 2.78162 -2.06947 0
M  V30 36894 C 3404.77 2.73649 -3.30779 0
M  V30 36895 C 3404 4.02069 -3.50964 0
M  V30 36896 O 3404.23 4.9985 -2.74783 0
M  V30 36897 O 3403.16 4.05925 -4.44419 0
M  V30 36898 H 3406.99 1.19429 -2.79232 0
M  V30 36899 H 3404.57 0.526521 -1.39815 0
M  V30 36900 H 3406.45 3.58007 -2.22282 0
M  V30 36901 H 3405.13 3.01954 -1.16643 0
M  V30 36902 H 3404.04 1.9239 -3.20838 0
M  V30 36903 H 3405.37 2.54812 -4.21108 0
M  V30 36904 N 3407.02 1.45939 0.594952 0
M  V30 36905 C 3408.25 1.54396 1.38479 0
M  V30 36906 C 3408.67 0.181596 1.87221 0
M  V30 36907 O 3408.03 -0.836091 1.6087 0
M  V30 36908 C 3408.08 2.54292 2.55672 0
M  V30 36909 O 3407.18 2.06947 3.56716 0
M  V30 36910 H 3406.52 0.520002 0.412909 0
M  V30 36911 H 3409.05 1.91405 0.722865 0
M  V30 36912 H 3409.06 2.73507 3.02751 0
M  V30 36913 H 3407.74 3.53232 2.19546 0
M  V30 36914 H 3406.31 1.97666 3.162 0
M  V30 36915 N 3408.5 -0.838547 1.3344 0
M  V30 36916 C 3409.73 -1.6259 1.27954 0
M  V30 36917 C 3410.14 -1.88207 -0.149469 0
M  V30 36918 O 3409.5 -1.46246 -1.09171 0
M  V30 36919 C 3409.55 -2.97591 2.05235 0
M  V30 36920 O 3409.27 -2.73099 3.42562 0
M  V30 36921 C 3410.77 -3.92021 2.06964 0
M  V30 36922 H 3407.99 -0.505897 0.440805 0
M  V30 36923 H 3410.54 -1.04447 1.75816 0
M  V30 36924 H 3408.69 -3.52335 1.61055 0
M  V30 36925 H 3409.1 -3.5907 3.82321 0
M  V30 36926 H 3410.58 -4.83962 2.6549 0
M  V30 36927 H 3411.06 -4.26217 1.05998 0
M  V30 36928 H 3411.66 -3.43215 2.51164 0
M  V30 36929 N 3409.98 -1.16914 -1.05683 0
M  V30 36930 C 3410.92 -0.877441 -2.15415 0
M  V30 36931 C 3411.92 0.155956 -1.68681 0
M  V30 36932 O 3413.12 0.00934992 -1.79998 0
M  V30 36933 H 3409.5 -0.266181 -0.703315 0
M  V30 36934 H 3411.47 -1.81016 -2.37225 0
M  V30 36935 C 3410.22 -0.401757 -3.45371 0
M  V30 36936 H 3409.54 -1.18838 -3.8173 0
M  V30 36937 H 3410.98 -0.236493 -4.2334 0
M  V30 36938 C 3409.44 0.879753 -3.25211 0
M  V30 36939 O 3409.97 1.94765 -3.51325 0
M  V30 36940 N 3408.18 0.825948 -2.78615 0
M  V30 36941 H 3407.72 -0.0432891 -2.57564 0
M  V30 36942 H 3407.68 1.68386 -2.65506 0
M  V30 36943 N 3411.45 1.24323 -0.968589 0
M  V30 36944 C 3412.68 1.9701 -0.6482 0
M  V30 36945 C 3413.1 1.71356 0.775812 0
M  V30 36946 O 3412.46 0.977831 1.5267 0
M  V30 36947 C 3412.51 3.484 -0.930036 0
M  V30 36948 O 3411.61 4.12397 -0.0159264 0
M  V30 36949 H 3410.96 0.617159 -0.244972 0
M  V30 36950 H 3413.49 1.58075 -1.29898 0
M  V30 36951 H 3413.5 3.98792 -0.861933 0
M  V30 36952 H 3412.17 3.66401 -1.96783 0
M  V30 36953 H 3410.75 3.72647 -0.137427 0
M  V30 36954 N 3412.93 0.73881 1.3921 0
M  V30 36955 C 3414.16 0.298787 2.04731 0
M  V30 36956 C 3414.58 -1.06773 1.55708 0
M  V30 36957 O 3413.93 -1.6754 0.723635 0
M  V30 36958 C 3413.98 0.295803 3.60288 0
M  V30 36959 O 3413.7 1.60838 4.07508 0
M  V30 36960 C 3415.21 -0.159916 4.43011 0
M  V30 36961 H 3412.43 0.129964 0.658294 0
M  V30 36962 H 3414.97 1.00353 1.78184 0
M  V30 36963 H 3413.12 -0.360078 3.85723 0
M  V30 36964 H 3413.54 1.52452 5.01855 0
M  V30 36965 H 3415.01 -0.110844 5.51889 0
M  V30 36966 H 3415.49 -1.20566 4.22328 0
M  V30 36967 H 3416.1 0.466541 4.22733 0
M  V30 36968 N 3414.41 -1.49895 0.486734 0
M  V30 36969 C 3415.32 -2.3262 -0.304181 0
M  V30 36970 C 3416.34 -1.43704 -0.981078 0
M  V30 36971 O 3417.51 -1.76743 -0.965608 0
M  V30 36972 C 3414.58 -3.18786 -1.36296 0
M  V30 36973 C 3413.64 -4.23538 -0.701008 0
M  V30 36974 C 3412.87 -5.05586 -1.70934 0
M  V30 36975 O 3413.09 -4.88936 -2.93765 0
M  V30 36976 O 3412.03 -5.88295 -1.27252 0
M  V30 36977 H 3415.85 -3.01407 0.372533 0
M  V30 36978 H 3413.44 -1.47322 0.248302 0
M  V30 36979 H 3415.32 -3.72206 -1.97587 0
M  V30 36980 H 3414 -2.5271 -2.02286 0
M  V30 36981 H 3412.9 -3.74068 -0.0487268 0
M  V30 36982 H 3414.24 -4.92129 -0.0837952 0
M  V30 36983 N 3415.89 -0.219968 -1.56057 0
M  V30 36984 C 3417.31 0.135448 -1.59024 0
M  V30 36985 C 3417.51 1.59081 -1.23675 0
M  V30 36986 O 3416.56 2.33073 -0.971238 0
M  V30 36987 C 3417.87 -0.189408 -3.00103 0
M  V30 36988 C 3419.42 -0.131518 -3.12724 0
M  V30 36989 C 3419.9 -0.430027 -4.55977 0
M  V30 36990 N 3421.39 -0.379541 -4.61642 0
M  V30 36991 C 3422.12 -0.584031 -5.70418 0
M  V30 36992 N 3421.62 -0.850209 -6.87563 0
M  V30 36993 N 3423.41 -0.516576 -5.59721 0
M  V30 36994 H 3415.56 -1.16938 -1.77311 0
M  V30 36995 H 3417.83 -0.468598 -0.824088 0
M  V30 36996 H 3417.53 -1.19946 -3.30614 0
M  V30 36997 H 3417.41 0.496344 -3.7392 0
M  V30 36998 H 3419.79 0.869173 -2.8201 0
M  V30 36999 H 3419.87 -0.850722 -2.41239 0
M  V30 37000 H 3419.52 -1.42815 -4.87408 0
M  V30 37001 H 3419.45 0.310351 -5.25685 0
M  V30 37002 H 3421.94 -0.181439 -3.77464 0
M  V30 37003 H 3422.25 -0.994386 -7.66376 0
M  V30 37004 H 3420.6 -0.887386 -6.89312 0
M  V30 37005 H 3423.79 -0.308866 -4.6708 0
M  V30 37006 H 3423.96 -0.679349 -6.44429 0
M  V30 37007 N 3417.37 1.57509 0.0534363 0
M  V30 37008 C 3418.32 2.06001 1.0801 0
M  V30 37009 C 3419.31 0.968887 1.38957 0
M  V30 37010 O 3420.52 1.15391 1.38148 0
M  V30 37011 H 3416.89 0.657069 0.365739 0
M  V30 37012 H 3418.86 2.91343 0.645118 0
M  V30 37013 C 3417.61 2.53479 2.37999 0
M  V30 37014 H 3416.93 3.37042 2.15042 0
M  V30 37015 H 3418.37 2.91143 3.08239 0
M  V30 37016 C 3416.83 1.42548 3.05257 0
M  V30 37017 O 3417.36 0.777901 3.94096 0
M  V30 37018 N 3415.57 1.16604 2.6618 0
M  V30 37019 H 3415.12 1.69447 1.94024 0
M  V30 37020 H 3415.07 0.425904 3.11502 0
M  V30 37021 N 3418.85 -0.325228 1.54208 0
M  V30 37022 C 3420.09 -1.06494 1.72588 0
M  V30 37023 C 3420.42 -1.87726 0.497261 0
M  V30 37024 O 3419.7 -1.87809 -0.505771 0
M  V30 37025 C 3419.98 -1.99104 3.00049 0
M  V30 37026 C 3419.84 -1.21214 4.3316 0
M  V30 37027 C 3421.15 -2.98652 3.23257 0
M  V30 37028 H 3418.27 -0.385758 0.62798 0
M  V30 37029 H 3420.92 -0.341757 1.86901 0
M  V30 37030 H 3419.07 -2.6077 2.87978 0
M  V30 37031 H 3420.74 -0.620209 4.57112 0
M  V30 37032 H 3418.98 -0.514386 4.30739 0
M  V30 37033 H 3419.65 -1.89205 5.18561 0
M  V30 37034 H 3422.13 -2.47108 3.34779 0
M  V30 37035 H 3421 -3.60637 4.13802 0
M  V30 37036 H 3421.26 -3.71021 2.40407 0
M  V30 37037 N 3420.32 -1.46252 -0.587204 0
M  V30 37038 C 3421.26 -1.50985 -1.7111 0
M  V30 37039 C 3422.23 -0.36435 -1.58465 0
M  V30 37040 O 3423.42 -0.567844 -1.79744 0
M  V30 37041 C 3420.55 -1.38416 -3.09125 0
M  V30 37042 C 3419.59 -2.57091 -3.40304 0
M  V30 37043 S 3420.42 -4.1947 -3.32874 0
M  V30 37044 C 3421.58 -4.09403 -4.73434 0
M  V30 37045 H 3421.81 -2.46075 -1.66836 0
M  V30 37046 H 3419.35 -1.34083 -0.765575 0
M  V30 37047 H 3421.3 -1.31853 -3.88748 0
M  V30 37048 H 3419.97 -0.447622 -3.10894 0
M  V30 37049 H 3419.16 -2.44278 -4.40845 0
M  V30 37050 H 3418.76 -2.60622 -2.68239 0
M  V30 37051 H 3421.05 -3.75806 -5.63716 0
M  V30 37052 H 3422 -5.09927 -4.91304 0
M  V30 37053 H 3422.4 -3.40727 -4.50073 0
M  V30 37054 N 3421.8 0.831459 -1.33883 0
M  V30 37055 C 3423.05 1.58916 -1.26954 0
M  V30 37056 C 3423.4 1.91722 0.161325 0
M  V30 37057 O 3422.7 1.565 1.10537 0
M  V30 37058 C 3422.89 2.90245 -2.08549 0
M  V30 37059 C 3422.72 2.70267 -3.59424 0
M  V30 37060 C 3421.49 2.67442 -4.28722 0
M  V30 37061 C 3423.69 2.4238 -4.53604 0
M  V30 37062 N 3421.67 2.38919 -5.65501 0
M  V30 37063 C 3423.04 2.23475 -5.78324 0
M  V30 37064 C 3425.09 2.28038 -4.42609 0
M  V30 37065 C 3423.8 1.91682 -6.9329 0
M  V30 37066 C 3425.82 1.97639 -5.57398 0
M  V30 37067 C 3425.19 1.79551 -6.81132 0
M  V30 37068 H 3421.28 0.584261 -0.519772 0
M  V30 37069 H 3423.87 0.97543 -1.68504 0
M  V30 37070 H 3422.04 3.49556 -1.69309 0
M  V30 37071 H 3423.77 3.55535 -1.93331 0
M  V30 37072 H 3420.53 2.81212 -3.81073 0
M  V30 37073 H 3420.95 2.27521 -6.37623 0
M  V30 37074 H 3425.59 2.40731 -3.47575 0
M  V30 37075 H 3423.31 1.77726 -7.88314 0
M  V30 37076 H 3426.9 1.87286 -5.50831 0
M  V30 37077 H 3425.78 1.56368 -7.68452 0
M  V30 37078 N 3423.28 1.17472 1.05062 0
M  V30 37079 C 3424.53 0.96201 1.77735 0
M  V30 37080 C 3424.85 -0.510518 1.88199 0
M  V30 37081 O 3424.12 -1.37059 1.3997 0
M  V30 37082 H 3422.7 0.352947 0.65836 0
M  V30 37083 H 3425.36 1.47971 1.26848 0
M  V30 37084 H 3424.46 1.39146 2.79365 0
M  V30 37085 N 3424.76 -1.23807 0.975168 0
M  V30 37086 C 3426.01 -1.91702 0.639891 0
M  V30 37087 C 3426.33 -1.76523 -0.828526 0
M  V30 37088 O 3425.6 -1.14137 -1.59215 0
M  V30 37089 H 3424.18 -0.709509 0.23368 0
M  V30 37090 H 3426.84 -1.50543 1.23785 0
M  V30 37091 H 3425.93 -2.99231 0.886968 0
M  V30 37092 N 3426.24 -0.746182 -1.38816 0
M  V30 37093 C 3427.48 -0.303878 -2.02129 0
M  V30 37094 C 3427.84 1.09167 -1.57945 0
M  V30 37095 O 3429.04 1.63268 -2.13535 0
M  V30 37096 C 3427.31 -0.414441 -3.54989 0
M  V30 37097 S 3428.87 -0.0536266 -4.38767 0
M  V30 37098 H 3425.69 -0.118341 -0.701082 0
M  V30 37099 H 3428.29 -0.975167 -1.69442 0
M  V30 37100 H 3426.99 -1.43121 -3.84636 0
M  V30 37101 H 3426.53 0.274286 -3.92443 0
M  V30 37102 H 3428.54 1.15912 -4.82472 0
M  V30 37103 N 3427.71 1.49635 -0.494676 0
M  V30 37104 C 3428.96 2.02033 0.0519788 0
M  V30 37105 C 3429.28 1.37703 1.38068 0
M  V30 37106 O 3428.55 0.530215 1.88588 0
M  V30 37107 H 3427.13 0.74667 0.0221992 0
M  V30 37108 H 3429.79 1.83725 -0.650477 0
M  V30 37109 H 3428.89 3.11544 0.186282 0
M  V30 37110 N 3429.19 0.228241 1.55939 0
M  V30 37111 C 3430.42 -0.406313 2.02871 0
M  V30 37112 C 3430.83 -1.52874 1.10792 0
M  V30 37113 O 3430.19 -1.82113 0.118779 0
M  V30 37114 C 3430.24 -0.931672 3.49288 0
M  V30 37115 O 3429.96 0.14601 4.37857 0
M  V30 37116 C 3431.46 -1.6388 4.11896 0
M  V30 37117 H 3428.68 -0.0987241 0.663698 0
M  V30 37118 H 3431.23 0.346651 2.01541 0
M  V30 37119 H 3429.38 -1.63488 3.51213 0
M  V30 37120 H 3429.8 -0.249913 5.23904 0
M  V30 37121 H 3431.27 -1.95832 5.16095 0
M  V30 37122 H 3431.75 -2.55429 3.57285 0
M  V30 37123 H 3432.35 -0.980624 4.1384 0
M  V30 37124 N 3430.67 -1.57536 -0.0450825 0
M  V30 37125 C 3431.62 -2.055 -1.05063 0
M  V30 37126 C 3432.59 -0.940867 -1.36883 0
M  V30 37127 O 3433.77 -1.21037 -1.47495 0
M  V30 37128 C 3430.91 -2.52598 -2.35135 0
M  V30 37129 C 3430.03 -3.77738 -2.09613 0
M  V30 37130 C 3429.16 -4.13511 -3.3344 0
M  V30 37131 C 3428.2 -5.31615 -3.03401 0
M  V30 37132 N 3427.34 -5.62896 -4.19634 0
M  V30 37133 H 3432.18 -2.91164 -0.634638 0
M  V30 37134 H 3429.71 -1.43971 -0.301765 0
M  V30 37135 H 3431.67 -2.77965 -3.11113 0
M  V30 37136 H 3430.3 -1.69874 -2.74486 0
M  V30 37137 H 3429.35 -3.59552 -1.24205 0
M  V30 37138 H 3430.67 -4.63843 -1.83444 0
M  V30 37139 H 3429.82 -4.39921 -4.17797 0
M  V30 37140 H 3428.56 -3.26026 -3.62709 0
M  V30 37141 H 3427.56 -5.04973 -2.17445 0
M  V30 37142 H 3428.79 -6.20739 -2.75427 0
M  V30 37143 H 3426.73 -4.78371 -4.48885 0
M  V30 37144 H 3426.65 -6.43475 -3.96832 0
M  V30 37145 H 3427.92 -5.93873 -5.04911 0
M  V30 37146 N 3432.15 0.317045 -1.54378 0
M  V30 37147 C 3433.4 1.05177 -1.72107 0
M  V30 37148 C 3433.71 1.88963 -0.505199 0
M  V30 37149 O 3434.92 2.65578 -0.563959 0
M  V30 37150 C 3433.37 1.91952 -3.04438 0
M  V30 37151 C 3432.98 1.13246 -4.33451 0
M  V30 37152 C 3434.72 2.65121 -3.31529 0
M  V30 37153 C 3432.63 1.99204 -5.56841 0
M  V30 37154 H 3431.56 0.396388 -0.641399 0
M  V30 37155 H 3434.21 0.309642 -1.80869 0
M  V30 37156 H 3432.59 2.70089 -2.89599 0
M  V30 37157 H 3433.77 0.398339 -4.59075 0
M  V30 37158 H 3432.08 0.5173 -4.13174 0
M  V30 37159 H 3434.68 3.29753 -4.20912 0
M  V30 37160 H 3435.02 3.33104 -2.49694 0
M  V30 37161 H 3435.56 1.94042 -3.47264 0
M  V30 37162 H 3432.3 1.35718 -6.41296 0
M  V30 37163 H 3431.82 2.70332 -5.35426 0
M  V30 37164 H 3433.49 2.57635 -5.93492 0
M  V30 37165 N 3433.63 1.46561 0.57944 0
M  V30 37166 C 3434.87 1.52041 1.33753 0
M  V30 37167 C 3435.2 0.173457 1.93725 0
M  V30 37168 O 3434.46 -0.831262 1.77168 0
M  V30 37169 C 3434.76 2.56955 2.48413 0
M  V30 37170 C 3434.42 4.0088 2.06413 0
M  V30 37171 C 3433.08 4.40063 1.94674 0
M  V30 37172 C 3435.44 4.91277 1.74058 0
M  V30 37173 C 3432.76 5.67506 1.48842 0
M  V30 37174 C 3435.12 6.19161 1.29704 0
M  V30 37175 C 3433.78 6.57247 1.16544 0
M  V30 37176 H 3433.05 0.556356 0.489437 0
M  V30 37177 H 3435.7 1.80054 0.652144 0
M  V30 37178 H 3434 2.22615 3.22412 0
M  V30 37179 H 3435.7 2.58423 3.06624 0
M  V30 37180 H 3432.29 3.69908 2.16486 0
M  V30 37181 H 3436.47 4.61721 1.8201 0
M  V30 37182 H 3431.73 5.95784 1.37299 0
M  V30 37183 H 3435.9 6.88632 1.03722 0
M  V30 37184 H 3433.53 7.55893 0.80806 0
M  V30 37185 N 3435.1 -0.824347 1.34322 0
M  V30 37186 C 3436.33 -1.61743 1.29823 0
M  V30 37187 C 3436.75 -1.87682 -0.125265 0
M  V30 37188 O 3436.11 -1.45133 -1.08656 0
M  V30 37189 C 3436.16 -2.93619 2.09332 0
M  V30 37190 O 3435.26 -3.85621 1.46187 0
M  V30 37191 H 3434.61 -0.491971 0.445937 0
M  V30 37192 H 3437.14 -1.02449 1.77103 0
M  V30 37193 H 3437.15 -3.43197 2.20635 0
M  V30 37194 H 3435.82 -2.74063 3.12829 0
M  V30 37195 H 3434.4 -3.44134 1.43617 0
M  V30 37196 N 3436.58 -1.18028 -1.04437 0
M  V30 37197 C 3437.83 -0.973345 -1.77573 0
M  V30 37198 C 3438.16 0.497367 -1.88033 0
M  V30 37199 O 3437.41 1.38545 -1.38216 0
M  V30 37200 C 3437.71 -1.56875 -3.21131 0
M  V30 37201 C 3437.38 -3.06496 -3.30713 0
M  V30 37202 C 3436.04 -3.47334 -3.33035 0
M  V30 37203 C 3438.39 -4.02509 -3.31113 0
M  V30 37204 C 3435.72 -4.82767 -3.33395 0
M  V30 37205 C 3438.07 -5.37852 -3.33013 0
M  V30 37206 C 3436.74 -5.78144 -3.33626 0
M  V30 37207 H 3436.01 -0.356172 -0.649786 0
M  V30 37208 H 3438.65 -1.47035 -1.2269 0
M  V30 37209 H 3436.96 -0.99365 -3.78991 0
M  V30 37210 H 3438.65 -1.3841 -3.76356 0
M  V30 37211 H 3435.24 -2.73946 -3.29623 0
M  V30 37212 H 3439.43 -3.72012 -3.28513 0
M  V30 37213 H 3434.68 -5.13287 -3.32185 0
M  V30 37214 H 3438.86 -6.1202 -3.32272 0
M  V30 37215 H 3436.49 -6.83064 -3.33659 0
M  V30 37216 N 3438.06 1.23288 -0.98172 0
M  V30 37217 C 3439.29 1.96312 -0.669059 0
M  V30 37218 C 3439.71 1.72169 0.757594 0
M  V30 37219 O 3439.07 0.993969 1.51624 0
M  V30 37220 C 3439.12 3.47394 -0.966936 0
M  V30 37221 O 3438.22 4.12357 -0.0596658 0
M  V30 37222 H 3437.56 0.614526 -0.251504 0
M  V30 37223 H 3440.09 1.56688 -1.31567 0
M  V30 37224 H 3440.1 3.97855 -0.904182 0
M  V30 37225 H 3438.78 3.64293 -2.00658 0
M  V30 37226 H 3437.35 3.7248 -0.176943 0
M  V30 37227 N 3439.54 0.753533 1.38418 0
M  V30 37228 C 3440.49 0.115148 2.32315 0
M  V30 37229 C 3441.48 -0.705371 1.54016 0
M  V30 37230 O 3442.69 -0.604475 1.69547 0
M  V30 37231 H 3439.06 0.0184408 0.751774 0
M  V30 37232 H 3441.03 0.923144 2.83762 0
M  V30 37233 C 3439.78 -0.763789 3.39207 0
M  V30 37234 H 3439.1 -0.1418 3.99548 0
M  V30 37235 H 3440.54 -1.17776 4.07314 0
M  V30 37236 C 3439 -1.90638 2.77775 0
M  V30 37237 O 3439.53 -3.00053 2.67079 0
M  V30 37238 N 3437.74 -1.70141 2.35585 0
M  V30 37239 H 3437.29 -0.811485 2.44485 0
M  V30 37240 H 3437.24 -2.46761 1.94824 0
M  V30 37241 N 3441.02 -1.49371 0.502605 0
M  V30 37242 C 3442.29 -1.95321 -0.104438 0
M  V30 37243 C 3442.67 -1.44415 -1.53973 0
M  V30 37244 O 3442.02 -0.658605 -2.18803 0
M  V30 37245 C 3442.23 -3.48997 -0.0154219 0
M  V30 37246 C 3443.58 -4.24181 -0.188541 0
M  V30 37247 O 3444.6 -3.56085 -0.0905324 0
M  V30 37248 O 3443.46 -5.45107 -0.389973 0
M  V30 37249 H 3440.56 -0.821592 -0.0944181 0
M  V30 37250 H 3443.1 -1.60009 0.565257 0
M  V30 37251 H 3441.87 -3.78688 0.98545 0
M  V30 37252 H 3441.5 -3.90931 -0.725191 0
M  V30 37253 N 3442.49 -0.236508 -1.55815 0
M  V30 37254 C 3443.74 0.391111 -1.98687 0
M  V30 37255 C 3444.07 1.58701 -1.12446 0
M  V30 37256 O 3443.32 1.94935 -0.172839 0
M  V30 37257 C 3443.62 0.854279 -3.4704 0
M  V30 37258 C 3443.29 -0.23273 -4.50299 0
M  V30 37259 C 3441.95 -0.531302 -4.78258 0
M  V30 37260 C 3444.3 -0.967117 -5.12149 0
M  V30 37261 C 3441.63 -1.56852 -5.65345 0
M  V30 37262 C 3443.98 -1.99378 -6.00359 0
M  V30 37263 C 3442.65 -2.29911 -6.26656 0
M  V30 37264 H 3441.92 0.143118 -0.727048 0
M  V30 37265 H 3444.56 -0.342158 -1.88418 0
M  V30 37266 H 3442.87 1.66657 -3.54588 0
M  V30 37267 H 3444.57 1.34999 -3.77593 0
M  V30 37268 H 3441.16 0.010126 -4.28599 0
M  V30 37269 H 3445.34 -0.749696 -4.90605 0
M  V30 37270 H 3440.6 -1.81053 -5.83977 0
M  V30 37271 H 3444.77 -2.5678 -6.47331 0
M  V30 37272 H 3442.4 -3.10422 -6.93932 0
M  V30 37273 N 3443.97 1.57557 0.0367273 0
M  V30 37274 C 3445.2 1.93174 0.741052 0
M  V30 37275 C 3445.62 0.835619 1.69301 0
M  V30 37276 O 3444.97 -0.188568 1.81523 0
M  V30 37277 C 3445.02 3.28696 1.50471 0
M  V30 37278 O 3444.74 4.34096 0.59097 0
M  V30 37279 C 3446.25 3.78547 2.30688 0
M  V30 37280 H 3443.47 0.637712 0.20872 0
M  V30 37281 H 3446.01 2.045 -0.00346371 0
M  V30 37282 H 3444.16 3.1879 2.20117 0
M  V30 37283 H 3444.58 5.12278 1.1257 0
M  V30 37284 H 3446.05 4.75905 2.79676 0
M  V30 37285 H 3446.53 3.09345 3.11773 0
M  V30 37286 H 3447.14 3.91511 1.66131 0
M  V30 37287 N 3445.45 -0.308854 1.54544 0
M  V30 37288 C 3446.7 -1.04263 1.72662 0
M  V30 37289 C 3447.01 -1.88693 0.515213 0
M  V30 37290 O 3448.22 -2.65275 0.578035 0
M  V30 37291 C 3446.68 -1.90335 3.05452 0
M  V30 37292 C 3446.28 -1.10945 4.34045 0
M  V30 37293 C 3448.03 -2.63359 3.3293 0
M  V30 37294 C 3445.93 -1.96248 5.57889 0
M  V30 37295 H 3444.86 -0.392981 0.643492 0
M  V30 37296 H 3447.52 -0.300045 1.8103 0
M  V30 37297 H 3445.9 -2.6855 2.91028 0
M  V30 37298 H 3447.07 -0.373988 4.5928 0
M  V30 37299 H 3445.39 -0.495381 4.13443 0
M  V30 37300 H 3447.98 -3.27517 4.22655 0
M  V30 37301 H 3448.33 -3.31776 2.51457 0
M  V30 37302 H 3448.86 -1.92197 3.48289 0
M  V30 37303 H 3445.6 -1.32315 6.42007 0
M  V30 37304 H 3445.12 -2.67489 5.36852 0
M  V30 37305 H 3446.8 -2.54484 5.9485 0
M  V30 37306 N 3446.93 -1.46867 -0.571659 0
M  V30 37307 C 3447.86 -1.5431 -1.69473 0
M  V30 37308 C 3448.87 -0.430476 -1.57006 0
M  V30 37309 O 3450.06 -0.699389 -1.64228 0
M  V30 37310 C 3447.16 -1.41771 -3.07822 0
M  V30 37311 C 3446.34 -2.67348 -3.46185 0
M  V30 37312 C 3445.4 -2.48851 -4.63637 0
M  V30 37313 O 3444.42 -3.22616 -4.68943 0
M  V30 37314 N 3445.62 -1.55734 -5.5922 0
M  V30 37315 H 3448.39 -2.51148 -1.63539 0
M  V30 37316 H 3445.95 -1.43063 -0.757931 0
M  V30 37317 H 3447.94 -1.27152 -3.84206 0
M  V30 37318 H 3446.51 -0.530721 -3.08062 0
M  V30 37319 H 3445.73 -2.96831 -2.59394 0
M  V30 37320 H 3447.02 -3.50745 -3.68585 0
M  V30 37321 H 3446.42 -0.949273 -5.57678 0
M  V30 37322 H 3444.97 -1.47074 -6.3499 0
M  V30 37323 N 3448.41 0.817212 -1.34757 0
M  V30 37324 C 3449.35 1.92845 -1.26804 0
M  V30 37325 C 3450.32 1.65491 -0.142106 0
M  V30 37326 O 3451.51 1.88028 -0.324039 0
M  V30 37327 C 3448.65 3.29208 -1.03519 0
M  V30 37328 C 3447.76 3.68818 -2.24938 0
M  V30 37329 C 3446.9 4.94157 -1.9489 0
M  V30 37330 C 3445.94 5.26365 -3.12421 0
M  V30 37331 N 3445.07 6.42882 -2.82218 0
M  V30 37332 H 3449.91 1.9898 -2.21836 0
M  V30 37333 H 3447.45 0.97342 -1.10286 0
M  V30 37334 H 3449.41 4.07802 -0.880541 0
M  V30 37335 H 3448.04 3.22571 -0.121535 0
M  V30 37336 H 3447.09 2.8557 -2.51304 0
M  V30 37337 H 3448.4 3.88586 -3.12733 0
M  V30 37338 H 3447.56 5.80552 -1.76194 0
M  V30 37339 H 3446.3 4.76403 -1.04364 0
M  V30 37340 H 3445.3 4.38465 -3.31706 0
M  V30 37341 H 3446.53 5.46055 -4.03733 0
M  V30 37342 H 3444.47 6.26573 -1.94274 0
M  V30 37343 H 3444.39 6.6285 -3.63546 0
M  V30 37344 H 3445.66 7.32332 -2.67039 0
M  V30 37345 N 3449.89 1.1858 1.0381 0
M  V30 37346 C 3450.82 0.938703 2.138 0
M  V30 37347 C 3451.8 -0.124546 1.69643 0
M  V30 37348 O 3452.98 0.0285762 1.94179 0
M  V30 37349 C 3450.11 0.466453 3.44153 0
M  V30 37350 C 3449.07 1.47048 4.01946 0
M  V30 37351 C 3448.39 0.855651 5.27809 0
M  V30 37352 C 3449.69 2.84796 4.37822 0
M  V30 37353 H 3451.39 1.85856 2.34729 0
M  V30 37354 H 3448.93 0.895027 1.12806 0
M  V30 37355 H 3450.88 0.28093 4.20463 0
M  V30 37356 H 3449.61 -0.488984 3.22919 0
M  V30 37357 H 3448.27 1.64299 3.27722 0
M  V30 37358 H 3447.92 -0.107054 5.02886 0
M  V30 37359 H 3447.62 1.52602 5.67438 0
M  V30 37360 H 3449.14 0.680716 6.06794 0
M  V30 37361 H 3450.55 2.71182 5.05107 0
M  V30 37362 H 3448.95 3.4854 4.88508 0
M  V30 37363 H 3450.02 3.38153 3.47535 0
M  V30 37364 N 3451.36 -1.22766 0.988245 0
M  V30 37365 C 3452.61 -1.90701 0.656974 0
M  V30 37366 C 3452.93 -1.77857 -0.814027 0
M  V30 37367 O 3454.13 -2.40665 -1.25669 0
M  V30 37368 C 3452.59 -3.41881 1.12451 0
M  V30 37369 C 3452.2 -3.63371 2.62041 0
M  V30 37370 C 3453.94 -4.15545 0.86735 0
M  V30 37371 C 3451.85 -5.08228 3.02421 0
M  V30 37372 H 3450.78 -0.714101 0.242024 0
M  V30 37373 H 3453.43 -1.39067 1.19719 0
M  V30 37374 H 3451.81 -3.9267 0.512455 0
M  V30 37375 H 3452.98 -3.23095 3.28552 0
M  V30 37376 H 3451.3 -3.03032 2.85588 0
M  V30 37377 H 3453.9 -5.22301 1.1448 0
M  V30 37378 H 3454.24 -4.15836 -0.196538 0
M  V30 37379 H 3454.77 -3.70769 1.44137 0
M  V30 37380 H 3451.51 -5.13073 4.07966 0
M  V30 37381 H 3451.03 -5.49424 2.4061 0
M  V30 37382 H 3452.71 -5.76618 2.93462 0
M  V30 37383 N 3452.84 -0.760864 -1.38017 0
M  V30 37384 C 3453.75 -0.140273 -2.3418 0
M  V30 37385 C 3454.77 0.692259 -1.59636 0
M  V30 37386 O 3455.94 0.614718 -1.91789 0
M  V30 37387 C 3453.01 0.736871 -3.38779 0
M  V30 37388 C 3452.07 -0.110867 -4.29157 0
M  V30 37389 C 3451.3 0.724506 -5.28759 0
M  V30 37390 O 3451.53 1.96217 -5.35589 0
M  V30 37391 O 3450.46 0.13946 -6.01738 0
M  V30 37392 H 3454.29 -0.934639 -2.88961 0
M  V30 37393 H 3451.87 -0.52186 -1.39989 0
M  V30 37394 H 3453.75 1.23796 -4.02806 0
M  V30 37395 H 3452.43 1.50961 -2.86343 0
M  V30 37396 H 3451.33 -0.658072 -3.68267 0
M  V30 37397 H 3452.67 -0.846431 -4.84867 0
M  V30 37398 N 3454.32 1.49102 -0.510519 0
M  V30 37399 C 3455.55 2.06882 0.0271355 0
M  V30 37400 C 3455.96 1.36964 1.29947 0
M  V30 37401 O 3455.32 0.450948 1.76841 0
M  V30 37402 C 3455.37 3.60453 0.274892 0
M  V30 37403 O 3455.09 4.27742 -0.947017 0
M  V30 37404 C 3456.59 4.34974 0.855121 0
M  V30 37405 H 3453.81 0.670544 -0.0247438 0
M  V30 37406 H 3456.36 1.91757 -0.710601 0
M  V30 37407 H 3454.51 3.7525 0.96263 0
M  V30 37408 H 3454.93 5.19594 -0.715718 0
M  V30 37409 H 3456.4 5.43267 0.978008 0
M  V30 37410 H 3456.88 3.98091 1.85528 0
M  V30 37411 H 3457.48 4.24808 0.204557 0
M  V30 37412 N 3455.8 0.244768 1.55688 0
M  V30 37413 C 3457.21 -0.110131 1.5922 0
M  V30 37414 C 3457.41 -1.57093 1.2619 0
M  V30 37415 O 3456.47 -2.31499 1.0082 0
M  V30 37416 C 3457.78 0.237128 2.99764 0
M  V30 37417 C 3459.33 0.181253 3.12475 0
M  V30 37418 C 3459.81 0.502515 4.55235 0
M  V30 37419 N 3461.3 0.452936 4.6098 0
M  V30 37420 C 3462.03 0.674705 5.69417 0
M  V30 37421 N 3461.53 0.959487 6.86124 0
M  V30 37422 N 3463.32 0.605557 5.58829 0
M  V30 37423 H 3455.47 1.19744 1.75428 0
M  V30 37424 H 3457.73 0.481649 0.816528 0
M  V30 37425 H 3457.44 1.25191 3.28664 0
M  V30 37426 H 3457.31 -0.436794 3.74662 0
M  V30 37427 H 3459.7 -0.824198 2.83357 0
M  V30 37428 H 3459.78 0.888994 2.39855 0
M  V30 37429 H 3459.43 1.50551 4.85074 0
M  V30 37430 H 3459.36 -0.22668 5.26112 0
M  V30 37431 H 3461.85 0.241467 3.77128 0
M  V30 37432 H 3462.16 1.11618 7.64697 0
M  V30 37433 H 3460.51 0.996937 6.87813 0
M  V30 37434 H 3463.7 0.383135 4.66529 0
M  V30 37435 H 3463.87 0.781787 6.43267 0
M  V30 37436 N 3457.28 -1.57574 -0.0283712 0
M  V30 37437 C 3458.5 -1.93564 -0.730797 0
M  V30 37438 C 3458.92 -0.844585 -1.68856 0
M  V30 37439 O 3458.28 0.178939 -1.81621 0
M  V30 37440 C 3458.33 -3.29489 -1.48726 0
M  V30 37441 O 3458.05 -4.34403 -0.56794 0
M  V30 37442 C 3459.55 -3.79765 -2.28678 0
M  V30 37443 H 3456.77 -0.63881 -0.205335 0
M  V30 37444 H 3459.31 -2.04495 0.0143088 0
M  V30 37445 H 3457.47 -3.19953 -2.18424 0
M  V30 37446 H 3457.88 -5.12867 -1.09852 0
M  V30 37447 H 3459.36 -4.77381 -2.77149 0
M  V30 37448 H 3459.83 -3.10994 -3.10128 0
M  V30 37449 H 3460.44 -3.92386 -1.64053 0
M  V30 37450 N 3458.75 0.300654 -1.54706 0
M  V30 37451 C 3459.98 1.0591 -1.7832 0
M  V30 37452 C 3460.4 1.80146 -0.541209 0
M  V30 37453 O 3459.76 1.7403 0.50826 0
M  V30 37454 C 3459.81 2.01506 -2.99045 0
M  V30 37455 O 3458.91 3.09814 -2.72194 0
M  V30 37456 H 3458.25 0.304232 -0.590203 0
M  V30 37457 H 3460.78 0.337971 -2.01789 0
M  V30 37458 H 3460.79 2.43965 -3.27024 0
M  V30 37459 H 3459.47 1.46879 -3.89101 0
M  V30 37460 H 3458.05 2.71866 -2.55232 0
M  V30 37461 N 3460.23 1.47168 0.563863 0
M  V30 37462 C 3461.16 1.55207 1.68652 0
M  V30 37463 C 3462.18 0.438796 1.56775 0
M  V30 37464 O 3463.37 0.708088 1.63855 0
M  V30 37465 C 3460.47 1.43402 3.07065 0
M  V30 37466 C 3459.64 2.6918 3.44762 0
M  V30 37467 C 3458.7 2.51306 4.62311 0
M  V30 37468 O 3457.72 3.25098 4.67225 0
M  V30 37469 N 3458.93 1.58698 5.58386 0
M  V30 37470 H 3461.69 2.52012 1.62204 0
M  V30 37471 H 3459.25 1.43463 0.750334 0
M  V30 37472 H 3461.24 1.29188 3.83526 0
M  V30 37473 H 3459.81 0.547051 3.07776 0
M  V30 37474 H 3459.03 2.98202 2.57816 0
M  V30 37475 H 3460.32 3.52695 3.6672 0
M  V30 37476 H 3459.72 0.978835 5.57167 0
M  V30 37477 H 3458.28 1.50439 6.34201 0
M  V30 37478 N 3461.71 -0.810054 1.35188 0
M  V30 37479 C 3462.64 -1.93639 1.30484 0
M  V30 37480 C 3463.62 -1.69146 0.179905 0
M  V30 37481 O 3464.81 -1.90558 0.374317 0
M  V30 37482 C 3461.94 -3.30323 1.07257 0
M  V30 37483 C 3460.89 -3.6929 2.16354 0
M  V30 37484 C 3460.22 -5.04098 1.78297 0
M  V30 37485 C 3461.52 -3.80032 3.58292 0
M  V30 37486 H 3463.21 -1.97832 2.24728 0
M  V30 37487 H 3460.76 -0.950416 1.08181 0
M  V30 37488 H 3462.71 -4.08717 1.02607 0
M  V30 37489 H 3461.43 -3.26463 0.0945777 0
M  V30 37490 H 3460.09 -2.93179 2.20095 0
M  V30 37491 H 3459.74 -4.96738 0.79125 0
M  V30 37492 H 3459.44 -5.3114 2.51325 0
M  V30 37493 H 3460.96 -5.84935 1.75165 0
M  V30 37494 H 3462.38 -4.48665 3.56892 0
M  V30 37495 H 3460.78 -4.1854 4.30051 0
M  V30 37496 H 3461.85 -2.81678 3.94696 0
M  V30 37497 N 3463.19 -1.19129 -1.0318 0
M  V30 37498 C 3464.44 -0.992124 -1.76531 0
M  V30 37499 C 3464.76 0.477396 -1.8855 0
M  V30 37500 O 3464.02 1.37072 -1.39678 0
M  V30 37501 C 3464.32 -1.60272 -3.19449 0
M  V30 37502 C 3463.98 -3.09987 -3.27443 0
M  V30 37503 C 3462.65 -3.50847 -3.29332 0
M  V30 37504 C 3465 -4.05998 -3.26825 0
M  V30 37505 C 3462.33 -4.86276 -3.28256 0
M  V30 37506 C 3464.68 -5.41354 -3.2729 0
M  V30 37507 C 3463.34 -5.8165 -3.27475 0
M  V30 37508 H 3462.61 -0.363044 -0.645972 0
M  V30 37509 H 3465.26 -1.48328 -1.21124 0
M  V30 37510 H 3463.56 -1.03379 -3.77915 0
M  V30 37511 H 3465.26 -1.42394 -3.74866 0
M  V30 37512 H 3461.85 -2.77427 -3.26699 0
M  V30 37513 H 3466.03 -3.75475 -3.24549 0
M  V30 37514 H 3461.29 -5.16781 -3.26722 0
M  V30 37515 H 3465.46 -6.1551 -3.25762 0
M  V30 37516 H 3463.09 -6.86564 -3.26395 0
M  V30 37517 N 3464.67 1.2224 -0.994741 0
M  V30 37518 C 3465.89 1.95591 -0.689843 0
M  V30 37519 C 3466.32 1.72963 0.73929 0
M  V30 37520 O 3465.67 1.00999 1.50562 0
M  V30 37521 C 3465.72 3.46349 -1.00373 0
M  V30 37522 O 3464.83 4.1227 -0.103398 0
M  V30 37523 H 3464.17 0.611823 -0.258008 0
M  V30 37524 H 3466.7 1.55284 -1.33222 0
M  V30 37525 H 3466.71 3.96874 -0.946329 0
M  V30 37526 H 3465.38 3.62144 -2.0451 0
M  V30 37527 H 3463.96 3.72271 -0.21644 0
M  V30 37528 N 3466.14 0.768172 1.37611 0
M  V30 37529 C 3467.37 0.341651 2.03756 0
M  V30 37530 C 3467.78 -1.03982 1.58065 0
M  V30 37531 O 3467.13 -1.67439 0.755638 0
M  V30 37532 C 3467.19 0.302095 3.58228 0
M  V30 37533 C 3466.85 1.62755 4.27036 0
M  V30 37534 C 3467.85 2.57936 4.51403 0
M  V30 37535 C 3465.53 1.901 4.64938 0
M  V30 37536 C 3467.53 3.78672 5.12725 0
M  V30 37537 C 3465.21 3.11107 5.25981 0
M  V30 37538 C 3466.21 4.05212 5.49811 0
M  V30 37539 O 3465.9 5.24089 6.09578 0
M  V30 37540 H 3465.63 0.141667 0.660989 0
M  V30 37541 H 3468.19 1.04214 1.76999 0
M  V30 37542 H 3466.42 -0.454744 3.84017 0
M  V30 37543 H 3468.11 -0.0968739 4.05784 0
M  V30 37544 H 3468.87 2.3809 4.22538 0
M  V30 37545 H 3464.75 1.17681 4.45726 0
M  V30 37546 H 3468.29 4.52138 5.31241 0
M  V30 37547 H 3464.19 3.3084 5.5427 0
M  V30 37548 H 3464.96 5.24866 6.28059 0
M  V30 37549 N 3467.62 -1.48829 0.518419 0
M  V30 37550 C 3468.59 -2.27942 -0.23979 0
M  V30 37551 C 3469.59 -1.34696 -0.878278 0
M  V30 37552 O 3470.78 -1.57696 -0.740114 0
M  V30 37553 C 3467.91 -3.13213 -1.34575 0
M  V30 37554 H 3469.1 -2.96434 0.454651 0
M  V30 37555 H 3466.65 -1.5388 0.273959 0
M  V30 37556 H 3467.39 -2.49326 -2.07381 0
M  V30 37557 H 3467.17 -3.81791 -0.893184 0
M  V30 37558 H 3468.66 -3.7292 -1.87938 0
M  V30 37559 N 3469.1 -0.253021 -1.55556 0
M  V30 37560 C 3470.06 0.630667 -2.20353 0
M  V30 37561 C 3471.06 1.09814 -1.17463 0
M  V30 37562 O 3472.25 1.00187 -1.42507 0
M  V30 37563 C 3469.39 1.86752 -2.85196 0
M  V30 37564 H 3470.58 0.0652412 -2.99829 0
M  V30 37565 H 3468.13 -0.0035073 -1.563 0
M  V30 37566 H 3468.87 2.47402 -2.09673 0
M  V30 37567 H 3468.65 1.54046 -3.60572 0
M  V30 37568 H 3470.14 2.49642 -3.34767 0
M  V30 37569 N 3470.58 1.57587 0.0200142 0
M  V30 37570 C 3471.83 1.89683 0.708994 0
M  V30 37571 C 3472.15 0.851427 1.74874 0
M  V30 37572 O 3471.41 -0.146449 1.95151 0
M  V30 37573 C 3471.71 3.28529 1.40724 0
M  V30 37574 C 3471.37 4.4809 0.502607 0
M  V30 37575 C 3470.04 4.80532 0.253474 0
M  V30 37576 C 3472.39 5.21059 -0.12143 0
M  V30 37577 C 3469.72 5.83326 -0.628323 0
M  V30 37578 C 3472.07 6.2479 -0.990983 0
M  V30 37579 C 3470.73 6.55701 -1.24949 0
M  V30 37580 H 3470 0.694098 0.259439 0
M  V30 37581 H 3472.65 1.91475 -0.0312137 0
M  V30 37582 H 3470.95 3.22768 2.22099 0
M  V30 37583 H 3472.65 3.50615 1.94603 0
M  V30 37584 H 3469.24 4.2273 0.706944 0
M  V30 37585 H 3473.42 4.96266 0.0580644 0
M  V30 37586 H 3468.68 6.05646 -0.836819 0
M  V30 37587 H 3472.85 6.8047 -1.48099 0
M  V30 37588 H 3470.48 7.35175 -1.93449 0
M  V30 37589 N 3472.06 -0.292445 1.54863 0
M  V30 37590 C 3473.28 -1.04963 1.78879 0
M  V30 37591 C 3473.71 -1.79856 0.550755 0
M  V30 37592 O 3473.06 -1.74297 -0.499024 0
M  V30 37593 C 3473.11 -1.99917 3.00109 0
M  V30 37594 O 3472.22 -3.08366 2.73833 0
M  V30 37595 H 3471.56 -0.301097 0.591808 0
M  V30 37596 H 3474.09 -0.327265 2.01966 0
M  V30 37597 H 3474.1 -2.42228 3.28313 0
M  V30 37598 H 3472.77 -1.44814 3.89874 0
M  V30 37599 H 3471.35 -2.70509 2.5667 0
M  V30 37600 N 3473.53 -1.47465 -0.55605 0
M  V30 37601 C 3474.81 -1.44631 -1.31686 0
M  V30 37602 C 3475.19 -0.143878 -2.10609 0
M  V30 37603 O 3474.54 0.874625 -2.11098 0
M  V30 37604 C 3474.75 -2.69257 -2.2204 0
M  V30 37605 C 3476.1 -3.16518 -2.83022 0
M  V30 37606 O 3477.12 -2.69992 -2.32342 0
M  V30 37607 O 3475.98 -3.97406 -3.75141 0
M  V30 37608 H 3473.07 -0.576421 -0.593016 0
M  V30 37609 H 3475.62 -1.59667 -0.574857 0
M  V30 37610 H 3474.39 -3.55582 -1.6333 0
M  V30 37611 H 3474.02 -2.56812 -3.03535 0
M  V30 37612 N 3475.01 0.802873 -1.35616 0
M  V30 37613 C 3476.24 1.59657 -1.3238 0
M  V30 37614 C 3476.66 1.87858 0.0953905 0
M  V30 37615 O 3476.02 1.46843 1.06333 0
M  V30 37616 C 3476.07 2.90252 -2.13977 0
M  V30 37617 O 3475.17 3.83246 -1.52303 0
M  V30 37618 H 3474.51 0.484815 -0.453708 0
M  V30 37619 H 3477.04 0.996186 -1.7871 0
M  V30 37620 H 3477.05 3.39643 -2.26067 0
M  V30 37621 H 3475.73 2.69052 -3.1715 0
M  V30 37622 H 3474.31 3.41806 -1.49074 0
M  V30 37623 N 3476.49 1.19674 1.02547 0
M  V30 37624 C 3477.44 0.934247 2.13013 0
M  V30 37625 C 3478.43 -0.111179 1.69035 0
M  V30 37626 O 3479.64 0.0383765 1.79959 0
M  V30 37627 H 3476.01 0.284734 0.69601 0
M  V30 37628 H 3477.99 1.87242 2.32342 0
M  V30 37629 C 3476.73 0.493184 3.44185 0
M  V30 37630 H 3476.06 1.28918 3.78445 0
M  V30 37631 H 3477.5 0.348651 4.22564 0
M  V30 37632 C 3475.96 -0.79322 3.27429 0
M  V30 37633 O 3476.49 -1.85382 3.56366 0
M  V30 37634 N 3474.69 -0.751788 2.80707 0
M  V30 37635 H 3474.24 0.111562 2.57358 0
M  V30 37636 H 3474.2 -1.61288 2.69877 0
M  V30 37637 N 3477.97 -1.21711 1.00121 0
M  V30 37638 C 3479.22 -1.89993 0.677164 0
M  V30 37639 C 3479.53 -1.7871 -0.795117 0
M  V30 37640 O 3480.74 -2.41984 -1.23109 0
M  V30 37641 C 3479.19 -3.40669 1.16071 0
M  V30 37642 C 3478.8 -3.60572 2.6588 0
M  V30 37643 C 3480.55 -4.14601 0.911375 0
M  V30 37644 C 3478.45 -5.04992 3.07794 0
M  V30 37645 H 3477.38 -0.711494 0.249585 0
M  V30 37646 H 3480.03 -1.37789 1.21187 0
M  V30 37647 H 3478.42 -3.92105 0.554074 0
M  V30 37648 H 3479.59 -3.19592 3.3196 0
M  V30 37649 H 3477.9 -2.99986 2.88786 0
M  V30 37650 H 3480.5 -5.21057 1.20013 0
M  V30 37651 H 3480.84 -4.16021 -0.152422 0
M  V30 37652 H 3481.38 -3.69219 1.48061 0
M  V30 37653 H 3478.12 -5.08717 4.13385 0
M  V30 37654 H 3477.64 -5.46841 2.46423 0
M  V30 37655 H 3479.32 -5.73473 2.99562 0
M  V30 37656 N 3479.45 -0.775459 -1.37202 0
M  V30 37657 C 3480.7 -0.338128 -1.98846 0
M  V30 37658 C 3481.01 1.09241 -1.62252 0
M  V30 37659 O 3482.22 1.63131 -2.17026 0
M  V30 37660 C 3480.67 -0.553603 -3.55617 0
M  V30 37661 C 3480.28 -1.99464 -4.01146 0
M  V30 37662 C 3482.02 -0.180081 -4.24118 0
M  V30 37663 C 3479.93 -2.15752 -5.50641 0
M  V30 37664 H 3478.86 -0.122682 -0.743952 0
M  V30 37665 H 3481.51 -0.955115 -1.56684 0
M  V30 37666 H 3479.89 0.132894 -3.95777 0
M  V30 37667 H 3481.07 -2.7164 -3.72221 0
M  V30 37668 H 3479.38 -2.3251 -3.45439 0
M  V30 37669 H 3481.98 -0.280239 -5.33965 0
M  V30 37670 H 3482.32 0.870121 -4.07105 0
M  V30 37671 H 3482.86 -0.81927 -3.89272 0
M  V30 37672 H 3479.59 -3.19104 -5.72584 0
M  V30 37673 H 3479.11 -1.48064 -5.81237 0
M  V30 37674 H 3480.79 -1.95792 -6.16664 0
M  V30 37675 N 3480.93 1.48552 -0.526305 0
M  V30 37676 C 3482.15 2.06899 0.00519133 0
M  V30 37677 C 3482.57 1.38335 1.28487 0
M  V30 37678 O 3481.93 0.469679 1.76353 0
M  V30 37679 C 3481.98 3.60725 0.236646 0
M  V30 37680 O 3481.7 4.26713 -0.992331 0
M  V30 37681 C 3483.2 4.35857 0.808938 0
M  V30 37682 H 3480.42 0.670243 -0.0318544 0
M  V30 37683 H 3482.96 1.90992 -0.730899 0
M  V30 37684 H 3481.12 3.76249 0.922776 0
M  V30 37685 H 3481.53 5.18805 -0.770788 0
M  V30 37686 H 3483.01 5.44274 0.920332 0
M  V30 37687 H 3483.48 4.00036 1.81295 0
M  V30 37688 H 3484.09 4.25001 0.159489 0
M  V30 37689 N 3482.4 0.261267 1.55419 0
M  V30 37690 C 3483.65 -0.359984 1.99579 0
M  V30 37691 C 3483.98 -1.56536 1.14936 0
M  V30 37692 O 3483.26 -1.93296 0.216116 0
M  V30 37693 C 3483.54 -0.75578 3.5208 0
M  V30 37694 C 3483.39 0.455975 4.47483 0
M  V30 37695 C 3484.71 -1.59743 4.10086 0
M  V30 37696 H 3481.83 -0.129372 0.725556 0
M  V30 37697 H 3484.47 0.365448 1.86452 0
M  V30 37698 H 3482.62 -1.37387 3.63397 0
M  V30 37699 H 3484.3 1.09449 4.48128 0
M  V30 37700 H 3482.54 1.09654 4.19712 0
M  V30 37701 H 3483.21 0.135487 5.51834 0
M  V30 37702 H 3485.69 -1.07555 4.01959 0
M  V30 37703 H 3484.56 -1.8432 5.17027 0
M  V30 37704 H 3484.82 -2.57398 3.59442 0
M  V30 37705 N 3483.88 -1.57596 -0.0116567 0
M  V30 37706 C 3485.13 -1.90338 -0.69996 0
M  V30 37707 C 3485.46 -0.861103 -1.74065 0
M  V30 37708 O 3484.74 0.121678 -1.94119 0
M  V30 37709 C 3485.02 -3.33686 -1.35371 0
M  V30 37710 C 3484.87 -4.48622 -0.325355 0
M  V30 37711 C 3486.19 -3.76251 -2.28305 0
M  V30 37712 H 3483.31 -0.692217 -0.25299 0
M  V30 37713 H 3485.95 -1.89963 0.0372444 0
M  V30 37714 H 3484.1 -3.34136 -1.98206 0
M  V30 37715 H 3485.77 -4.60308 0.302412 0
M  V30 37716 H 3484.02 -4.32356 0.353603 0
M  V30 37717 H 3484.69 -5.45851 -0.821604 0
M  V30 37718 H 3487.16 -3.77279 -1.75498 0
M  V30 37719 H 3486.04 -4.77326 -2.71019 0
M  V30 37720 H 3486.3 -3.09471 -3.15722 0
M  V30 37721 N 3485.36 0.284228 -1.55016 0
M  V30 37722 C 3486.61 1.01881 -1.75351 0
M  V30 37723 C 3486.94 1.86341 -0.546858 0
M  V30 37724 O 3486.21 1.89084 0.455799 0
M  V30 37725 C 3486.5 1.91079 -3.05223 0
M  V30 37726 C 3486.35 1.09687 -4.36221 0
M  V30 37727 C 3487.67 2.89977 -3.31061 0
M  V30 37728 H 3484.79 0.368973 -0.637987 0
M  V30 37729 H 3487.43 0.292083 -1.87742 0
M  V30 37730 H 3485.58 2.53043 -2.94791 0
M  V30 37731 H 3487.25 0.498796 -4.58595 0
M  V30 37732 H 3485.49 0.400002 -4.31952 0
M  V30 37733 H 3486.17 1.7539 -5.23395 0
M  V30 37734 H 3488.64 2.38145 -3.41213 0
M  V30 37735 H 3487.52 3.49539 -4.23218 0
M  V30 37736 H 3487.78 3.64517 -2.5016 0
M  V30 37737 N 3486.84 1.47758 0.548222 0
M  V30 37738 C 3488.11 1.45327 1.30918 0
M  V30 37739 C 3488.49 0.155045 2.1053 0
M  V30 37740 O 3487.84 -0.863418 2.11559 0
M  V30 37741 C 3488.05 2.7043 2.20609 0
M  V30 37742 C 3489.4 3.18014 2.8134 0
M  V30 37743 O 3490.42 2.71221 2.30907 0
M  V30 37744 O 3489.28 3.99389 3.73029 0
M  V30 37745 H 3486.38 0.579558 0.58995 0
M  V30 37746 H 3488.92 1.59969 0.566382 0
M  V30 37747 H 3487.7 3.56444 1.61442 0
M  V30 37748 H 3487.32 2.58418 3.02168 0
M  V30 37749 N 3488.32 -0.79567 1.3604 0
M  V30 37750 C 3489.54 -1.58436 1.33062 0
M  V30 37751 C 3489.96 -1.88588 -0.0895164 0
M  V30 37752 O 3489.32 -1.49645 -1.04463 0
M  V30 37753 C 3489.37 -2.90911 2.14599 0
M  V30 37754 O 3489.09 -2.62062 3.51077 0
M  V30 37755 C 3490.59 -3.85239 2.19331 0
M  V30 37756 H 3487.81 -0.491617 0.456677 0
M  V30 37757 H 3490.35 -0.988003 1.7905 0
M  V30 37758 H 3488.51 -3.47033 1.72183 0
M  V30 37759 H 3488.92 -3.46725 3.93551 0
M  V30 37760 H 3490.4 -4.75271 2.80752 0
M  V30 37761 H 3490.87 -4.22629 1.19504 0
M  V30 37762 H 3491.48 -3.35051 2.61956 0
M  V30 37763 N 3489.79 -1.20217 -1.0191 0
M  V30 37764 C 3490.76 -0.950518 -2.08561 0
M  V30 37765 C 3491.76 0.0729377 -1.60634 0
M  V30 37766 O 3492.95 -0.162857 -1.73437 0
M  V30 37767 C 3490.08 -0.430513 -3.38171 0
M  V30 37768 H 3491.27 -1.89652 -2.32319 0
M  V30 37769 H 3488.83 -1.01719 -1.18672 0
M  V30 37770 H 3489.56 0.52107 -3.20086 0
M  V30 37771 H 3489.35 -1.16856 -3.74282 0
M  V30 37772 H 3490.84 -0.273854 -4.16701 0
M  V30 37773 N 3491.27 1.21178 -1.00765 0
M  V30 37774 C 3492.2 2.25909 -0.590533 0
M  V30 37775 C 3493.18 1.65569 0.389973 0
M  V30 37776 O 3494.37 1.92209 0.277373 0
M  V30 37777 C 3491.5 3.47206 0.0809778 0
M  V30 37778 C 3490.45 4.2008 -0.819583 0
M  V30 37779 C 3489.78 5.34698 -0.014338 0
M  V30 37780 C 3491.08 4.77187 -2.12344 0
M  V30 37781 H 3492.77 2.61054 -1.46599 0
M  V30 37782 H 3490.32 1.25486 -0.706343 0
M  V30 37783 H 3492.27 4.19644 0.384282 0
M  V30 37784 H 3491 3.11199 0.99109 0
M  V30 37785 H 3489.65 3.49495 -1.10675 0
M  V30 37786 H 3489.3 4.94935 0.897146 0
M  V30 37787 H 3489 5.84383 -0.613986 0
M  V30 37788 H 3490.53 6.09945 0.28272 0
M  V30 37789 H 3491.94 5.4149 -1.88311 0
M  V30 37790 H 3490.34 5.37272 -2.67317 0
M  V30 37791 H 3491.41 3.96422 -2.79245 0
M  V30 37792 N 3492.75 0.782725 1.36789 0
M  V30 37793 C 3493.98 0.363242 2.03382 0
M  V30 37794 C 3494.39 -1.02299 1.59159 0
M  V30 37795 O 3493.73 -1.66628 0.773355 0
M  V30 37796 C 3493.79 0.340073 3.57888 0
M  V30 37797 C 3493.46 1.67275 4.25286 0
M  V30 37798 C 3494.45 2.62709 4.48642 0
M  V30 37799 C 3492.14 1.95021 4.62895 0
M  V30 37800 C 3494.13 3.84088 5.08679 0
M  V30 37801 C 3491.82 3.16668 5.22651 0
M  V30 37802 C 3492.82 4.11021 5.45482 0
M  V30 37803 O 3492.51 5.30525 6.03985 0
M  V30 37804 H 3492.24 0.148669 0.659449 0
M  V30 37805 H 3494.79 1.06085 1.75884 0
M  V30 37806 H 3493.02 -0.413988 3.84478 0
M  V30 37807 H 3494.71 -0.0538295 4.05864 0
M  V30 37808 H 3495.48 2.42558 4.19989 0
M  V30 37809 H 3491.36 1.22402 4.44453 0
M  V30 37810 H 3494.9 4.57747 5.26415 0
M  V30 37811 H 3490.8 3.367 5.5073 0
M  V30 37812 H 3491.57 5.31498 6.22456 0
M  V30 37813 N 3494.23 -1.48271 0.534176 0
M  V30 37814 C 3495.48 -2.017 -0.000415173 0
M  V30 37815 C 3495.79 -1.41615 -1.34924 0
M  V30 37816 O 3497 -1.86567 -1.97243 0
M  V30 37817 C 3495.45 -3.59864 -0.0511251 0
M  V30 37818 C 3495.06 -4.28934 1.29306 0
M  V30 37819 C 3496.8 -4.21124 -0.534323 0
M  V30 37820 C 3494.71 -5.79041 1.2027 0
M  V30 37821 H 3493.64 -0.75399 -0.00392518 0
M  V30 37822 H 3496.29 -1.70492 0.678584 0
M  V30 37823 H 3494.67 -3.87932 -0.79529 0
M  V30 37824 H 3495.85 -4.12533 2.05312 0
M  V30 37825 H 3494.16 -3.79563 1.71233 0
M  V30 37826 H 3496.76 -5.31094 -0.619955 0
M  V30 37827 H 3497.1 -3.86726 -1.54107 0
M  V30 37828 H 3497.64 -3.97501 0.154284 0
M  V30 37829 H 3494.38 -6.18021 2.18474 0
M  V30 37830 H 3493.9 -5.97843 0.484076 0
M  V30 37831 H 3495.57 -6.40778 0.895118 0
M  V30 37832 N 3495.71 -0.269505 -1.55279 0
M  V30 37833 C 3496.67 0.60726 -2.21009 0
M  V30 37834 C 3497.67 1.08562 -1.18621 0
M  V30 37835 O 3498.86 0.986695 -1.43562 0
M  V30 37836 C 3495.99 1.83716 -2.8716 0
M  V30 37837 H 3497.18 0.0334367 -2.99881 0
M  V30 37838 H 3494.74 -0.0200848 -1.56287 0
M  V30 37839 H 3495.47 2.45164 -2.12285 0
M  V30 37840 H 3495.26 1.50213 -3.62186 0
M  V30 37841 H 3496.75 2.46077 -3.37396 0
M  V30 37842 N 3497.18 1.576 0.00329885 0
M  V30 37843 C 3498.13 2.08214 0.995774 0
M  V30 37844 C 3499.1 0.976828 1.3434 0
M  V30 37845 O 3500.29 1.24905 1.44234 0
M  V30 37846 C 3497.43 2.58743 2.28355 0
M  V30 37847 C 3496.54 3.83163 1.99524 0
M  V30 37848 C 3495.67 4.22206 3.22359 0
M  V30 37849 C 3494.71 5.39472 2.892 0
M  V30 37850 N 3493.85 5.73824 4.04562 0
M  V30 37851 H 3498.69 2.92744 0.557218 0
M  V30 37852 H 3496.23 1.44721 0.263487 0
M  V30 37853 H 3498.19 2.86116 3.03634 0
M  V30 37854 H 3496.82 1.77092 2.69886 0
M  V30 37855 H 3495.87 3.62718 1.14628 0
M  V30 37856 H 3497.18 4.68543 1.71081 0
M  V30 37857 H 3496.33 4.50844 4.05986 0
M  V30 37858 H 3495.07 3.35528 3.53938 0
M  V30 37859 H 3494.08 5.10561 2.0398 0
M  V30 37860 H 3495.3 6.27823 2.58872 0
M  V30 37861 H 3493.25 4.90104 4.36044 0
M  V30 37862 H 3493.17 6.5377 3.79632 0
M  V30 37863 H 3494.43 6.07051 4.88988 0
M  V30 37864 N 3498.66 -0.276003 1.55164 0
M  V30 37865 C 3499.59 -1.36332 1.84245 0
M  V30 37866 C 3500.61 -1.45677 0.72677 0
M  V30 37867 O 3501.8 -1.47548 1.00458 0
M  V30 37868 C 3498.9 -2.74486 1.98773 0
M  V30 37869 C 3498.07 -2.87769 3.29405 0
M  V30 37870 C 3497.13 -4.06579 3.34036 0
M  V30 37871 O 3496.15 -3.97479 4.0743 0
M  V30 37872 N 3497.36 -5.18405 2.61222 0
M  V30 37873 H 3500.12 -1.11732 2.78094 0
M  V30 37874 H 3497.68 -0.466116 1.55045 0
M  V30 37875 H 3499.67 -3.52255 1.99244 0
M  V30 37876 H 3498.24 -2.91922 1.11804 0
M  V30 37877 H 3497.46 -1.96908 3.41498 0
M  V30 37878 H 3498.75 -2.93572 4.15564 0
M  V30 37879 H 3498.15 -5.28684 2.01271 0
M  V30 37880 H 3496.71 -5.94416 2.6742 0
M  V30 37881 N 3500.14 -1.48046 -0.540378 0
M  V30 37882 C 3501.09 -1.62224 -1.66692 0
M  V30 37883 C 3502.08 -0.488972 -1.62189 0
M  V30 37884 O 3503.29 -0.667349 -1.67172 0
M  V30 37885 H 3499.66 -0.510838 -0.551859 0
M  V30 37886 H 3501.63 -2.56859 -1.51875 0
M  V30 37887 C 3500.38 -1.66945 -3.04999 0
M  V30 37888 H 3499.71 -2.53504 -3.09153 0
M  V30 37889 H 3501.15 -1.80911 -3.83467 0
M  V30 37890 C 3499.61 -0.406039 -3.34444 0
M  V30 37891 O 3500.14 0.485606 -3.98754 0
M  V30 37892 N 3498.34 -0.280907 -2.89239 0
M  V30 37893 H 3497.89 -1.00745 -2.37083 0
M  V30 37894 H 3497.85 0.563439 -3.0931 0
M  V30 37895 N 3501.62 0.788444 -1.3646 0
M  V30 37896 C 3502.84 1.58244 -1.34066 0
M  V30 37897 C 3503.27 1.87949 0.0754603 0
M  V30 37898 O 3502.63 1.47963 1.0477 0
M  V30 37899 C 3502.67 2.87966 -2.17043 0
M  V30 37900 O 3501.78 3.81609 -1.56359 0
M  V30 37901 H 3501.12 0.479975 -0.458824 0
M  V30 37902 H 3503.65 0.977175 -1.79757 0
M  V30 37903 H 3503.66 3.37226 -2.29657 0
M  V30 37904 H 3502.33 2.65673 -3.19986 0
M  V30 37905 H 3500.91 3.40206 -1.52691 0
M  V30 37906 N 3503.1 1.20755 1.01271 0
M  V30 37907 C 3504.51 1.01992 1.56379 0
M  V30 37908 C 3504.86 -0.422558 1.91596 0
M  V30 37909 O 3503.98 -1.30457 1.72655 0
M  V30 37910 C 3504.58 1.84515 2.84147 0
M  V30 37911 C 3503.14 1.70107 3.35769 0
M  V30 37912 C 3502.28 1.82206 2.09036 0
M  V30 37913 H 3505.24 1.3489 0.836081 0
M  V30 37914 H 3505.26 1.35083 3.55715 0
M  V30 37915 H 3504.77 2.89495 2.58485 0
M  V30 37916 H 3502.87 0.677796 3.66383 0
M  V30 37917 H 3502.98 2.51614 4.07709 0
M  V30 37918 H 3501.35 1.25433 2.21673 0
M  V30 37919 H 3502.13 2.88678 1.85795 0
M  V30 37920 N 3504.58 -1.20642 1.01406 0
M  V30 37921 C 3505.82 -1.90226 0.702982 0
M  V30 37922 C 3506.15 -1.78489 -0.765212 0
M  V30 37923 O 3505.43 -1.16744 -1.55567 0
M  V30 37924 C 3505.71 -3.41708 1.13612 0
M  V30 37925 C 3505.57 -3.62392 2.66443 0
M  V30 37926 C 3506.88 -4.34409 0.705438 0
M  V30 37927 H 3504 -0.690793 0.256855 0
M  V30 37928 H 3506.65 -1.42091 1.26136 0
M  V30 37929 H 3504.8 -3.82835 0.661044 0
M  V30 37930 H 3506.47 -3.30534 3.21784 0
M  V30 37931 H 3504.71 -3.05948 3.07535 0
M  V30 37932 H 3505.38 -4.68567 2.91803 0
M  V30 37933 H 3507.86 -4.00916 1.11382 0
M  V30 37934 H 3506.73 -5.39024 1.03656 0
M  V30 37935 H 3506.99 -4.4035 -0.393017 0
M  V30 37936 N 3506.05 -0.789968 -1.36372 0
M  V30 37937 C 3507.3 -0.363154 -1.99522 0
M  V30 37938 C 3507.63 1.06257 -1.62552 0
M  V30 37939 O 3506.91 1.73424 -0.880582 0
M  V30 37940 C 3507.19 -0.527589 -3.56214 0
M  V30 37941 C 3507.04 -1.99704 -4.03036 0
M  V30 37942 C 3508.36 0.0570305 -4.40063 0
M  V30 37943 H 3505.48 -0.133425 -0.724822 0
M  V30 37944 H 3508.12 -0.99641 -1.61777 0
M  V30 37945 H 3506.27 0.0114953 -3.88498 0
M  V30 37946 H 3507.95 -2.59723 -3.81237 0
M  V30 37947 H 3506.19 -2.49945 -3.54556 0
M  V30 37948 H 3506.86 -2.06306 -5.11998 0
M  V30 37949 H 3509.34 -0.403155 -4.14142 0
M  V30 37950 H 3508.21 -0.0880458 -5.48829 0
M  V30 37951 H 3508.47 1.14919 -4.26903 0
M  V30 37952 N 3507.53 1.47986 -0.542031 0
M  V30 37953 C 3508.44 2.33588 0.217636 0
M  V30 37954 C 3509.46 1.47246 0.927067 0
M  V30 37955 O 3510.63 1.80205 0.899346 0
M  V30 37956 C 3507.7 3.23625 1.2437 0
M  V30 37957 C 3506.76 4.25848 0.543332 0
M  V30 37958 C 3505.99 5.11582 1.52051 0
M  V30 37959 O 3506.22 4.99502 2.75416 0
M  V30 37960 O 3505.15 5.92612 1.05331 0
M  V30 37961 H 3508.98 2.99816 -0.484142 0
M  V30 37962 H 3506.56 1.46299 -0.302809 0
M  V30 37963 H 3508.44 3.79283 1.83637 0
M  V30 37964 H 3507.12 2.60043 1.92767 0
M  V30 37965 H 3506.02 3.73991 -0.0901398 0
M  V30 37966 H 3507.36 4.92101 -0.0989129 0
M  V30 37967 N 3509.01 0.277736 1.55133 0
M  V30 37968 C 3510.26 -0.338796 1.9995 0
M  V30 37969 C 3510.59 -1.55308 1.1659 0
M  V30 37970 O 3509.86 -1.93056 0.236605 0
M  V30 37971 C 3510.15 -0.718395 3.52861 0
M  V30 37972 C 3510 0.503411 4.46974 0
M  V30 37973 C 3511.32 -1.55384 4.11757 0
M  V30 37974 H 3508.44 -0.121669 0.726888 0
M  V30 37975 H 3511.08 0.385203 1.86054 0
M  V30 37976 H 3509.23 -1.33525 3.64833 0
M  V30 37977 H 3510.9 1.14196 4.46942 0
M  V30 37978 H 3509.14 1.14099 4.18526 0
M  V30 37979 H 3509.82 0.194009 5.51659 0
M  V30 37980 H 3512.29 -1.03286 4.03077 0
M  V30 37981 H 3511.17 -1.78826 5.18953 0
M  V30 37982 H 3511.43 -2.53571 3.62152 0
M  V30 37983 N 3510.49 -1.57599 0.00505908 0
M  V30 37984 C 3511.73 -1.91906 -0.674073 0
M  V30 37985 C 3512.09 -0.87993 -1.71099 0
M  V30 37986 O 3511.38 0.107228 -1.913 0
M  V30 37987 C 3511.58 -3.30727 -1.35479 0
M  V30 37988 C 3511.4 -4.48046 -0.385324 0
M  V30 37989 C 3510.17 -5.053 0.00611456 0
M  V30 37990 C 3512.37 -5.13104 0.350533 0
M  V30 37991 N 3510.35 -6.06136 0.973267 0
M  V30 37992 C 3511.73 -6.08818 1.1722 0
M  V30 37993 C 3513.78 -4.96177 0.413825 0
M  V30 37994 C 3512.48 -6.89427 2.05141 0
M  V30 37995 C 3514.51 -5.77376 1.28028 0
M  V30 37996 C 3513.87 -6.72687 2.08979 0
M  V30 37997 H 3509.97 -0.750502 -0.219707 0
M  V30 37998 H 3512.55 -1.94586 0.066594 0
M  V30 37999 H 3510.73 -3.28911 -2.06573 0
M  V30 38000 H 3512.46 -3.52448 -1.98903 0
M  V30 38001 H 3509.21 -4.72204 -0.36332 0
M  V30 38002 H 3509.64 -6.61238 1.45236 0
M  V30 38003 H 3514.28 -4.22337 -0.197756 0
M  V30 38004 H 3512 -7.62589 2.67364 0
M  V30 38005 H 3515.58 -5.66318 1.33323 0
M  V30 38006 H 3514.46 -7.34424 2.74939 0
M  V30 38007 N 3511.97 0.267771 -1.55309 0
M  V30 38008 C 3513.24 1.02026 -1.66883 0
M  V30 38009 C 3513.62 2.0411 -0.538744 0
M  V30 38010 O 3512.97 2.23811 0.460535 0
M  V30 38011 C 3513.18 1.67238 -3.06321 0
M  V30 38012 C 3514.53 2.18205 -3.64241 0
M  V30 38013 O 3515.55 1.77215 -3.08987 0
M  V30 38014 O 3514.41 2.93404 -4.6106 0
M  V30 38015 H 3511.51 0.473581 -0.677975 0
M  V30 38016 H 3514.05 0.263213 -1.67646 0
M  V30 38017 H 3512.82 0.932918 -3.80016 0
M  V30 38018 H 3512.45 2.49616 -3.09479 0
M  V30 38019 N 3513.44 1.48331 0.532519 0
M  V30 38020 C 3514.39 1.62664 1.63735 0
M  V30 38021 C 3515.36 0.468786 1.59347 0
M  V30 38022 O 3516.55 0.691952 1.77811 0
M  V30 38023 C 3513.69 1.66998 3.02003 0
M  V30 38024 C 3512.8 2.93873 3.16643 0
M  V30 38025 C 3511.93 2.89384 4.45455 0
M  V30 38026 C 3510.97 4.10974 4.53615 0
M  V30 38027 N 3510.11 4.04577 5.73813 0
M  V30 38028 H 3514.95 2.57014 1.50823 0
M  V30 38029 H 3512.49 1.2746 0.734326 0
M  V30 38030 H 3514.44 1.67492 3.82102 0
M  V30 38031 H 3513.07 0.761405 3.13692 0
M  V30 38032 H 3512.13 3.03135 2.29812 0
M  V30 38033 H 3513.44 3.83846 3.18534 0
M  V30 38034 H 3512.59 2.88265 5.33843 0
M  V30 38035 H 3511.33 1.97135 4.46082 0
M  V30 38036 H 3510.34 4.12371 3.63635 0
M  V30 38037 H 3511.56 5.04379 4.54729 0
M  V30 38038 H 3509.51 3.15147 5.75342 0
M  V30 38039 H 3509.42 4.88253 5.77187 0
M  V30 38040 H 3510.69 4.07514 6.64494 0
M  V30 38041 N 3514.92 -0.781196 1.36876 0
M  V30 38042 C 3515.87 -1.89416 1.31872 0
M  V30 38043 C 3516.84 -1.65056 0.185933 0
M  V30 38044 O 3518.02 -1.87103 0.373778 0
M  V30 38045 C 3515.16 -3.26348 1.12211 0
M  V30 38046 C 3514.28 -3.62725 2.34638 0
M  V30 38047 C 3513.41 -4.88816 2.07923 0
M  V30 38048 C 3512.45 -5.17896 3.26266 0
M  V30 38049 N 3511.59 -6.35174 2.99164 0
M  V30 38050 H 3516.43 -1.93028 2.27033 0
M  V30 38051 H 3513.96 -0.943837 1.12828 0
M  V30 38052 H 3515.92 -4.05324 0.988353 0
M  V30 38053 H 3514.55 -3.22136 0.207016 0
M  V30 38054 H 3513.6 -2.78807 2.58787 0
M  V30 38055 H 3514.92 -3.80158 3.22926 0
M  V30 38056 H 3514.07 -5.75676 1.91524 0
M  V30 38057 H 3512.81 -4.73468 1.16958 0
M  V30 38058 H 3511.81 -4.29516 3.43214 0
M  V30 38059 H 3513.04 -5.35159 4.18069 0
M  V30 38060 H 3510.99 -6.21202 2.10818 0
M  V30 38061 H 3510.9 -6.52978 3.80992 0
M  V30 38062 H 3512.17 -7.24995 2.86362 0
M  V30 38063 N 3516.4 -1.21291 -1.0063 0
M  V30 38064 C 3517.63 -1.05527 -1.77965 0
M  V30 38065 C 3518.04 0.394991 -1.84622 0
M  V30 38066 O 3517.4 1.27407 -1.30667 0
M  V30 38067 C 3517.45 -1.64437 -3.21936 0
M  V30 38068 O 3517.17 -3.03789 -3.15664 0
M  V30 38069 C 3518.67 -1.53767 -4.15777 0
M  V30 38070 H 3515.89 -0.370655 -0.559335 0
M  V30 38071 H 3518.44 -1.606 -1.26601 0
M  V30 38072 H 3516.59 -1.1346 -3.70413 0
M  V30 38073 H 3517.01 -3.31931 -4.06106 0
M  V30 38074 H 3518.48 -1.99731 -5.14598 0
M  V30 38075 H 3518.96 -0.491888 -4.36437 0
M  V30 38076 H 3519.56 -2.03986 -3.73189 0
M  V30 38077 N 3517.88 1.20103 -1.02045 0
M  V30 38078 C 3518.79 2.26698 -0.603764 0
M  V30 38079 C 3519.8 1.70224 0.360528 0
M  V30 38080 O 3520.98 2.00189 0.220517 0
M  V30 38081 C 3518.04 3.46667 0.0475379 0
M  V30 38082 C 3517.11 4.18355 -0.963185 0
M  V30 38083 C 3516.34 5.32598 -0.342869 0
M  V30 38084 O 3516.56 5.63934 0.85641 0
M  V30 38085 O 3515.5 5.92466 -1.06152 0
M  V30 38086 H 3519.32 2.64564 -1.4913 0
M  V30 38087 H 3516.91 1.26795 -0.790156 0
M  V30 38088 H 3518.79 4.1939 0.411103 0
M  V30 38089 H 3517.46 3.10669 0.909212 0
M  V30 38090 H 3516.37 3.47788 -1.37819 0
M  V30 38091 H 3517.7 4.58304 -1.79495 0
M  V30 38092 N 3519.36 0.797189 1.35951 0
M  V30 38093 C 3520.3 0.199035 2.2994 0
M  V30 38094 C 3521.27 -0.661565 1.52357 0
M  V30 38095 O 3522.46 -0.608618 1.80833 0
M  V30 38096 C 3519.6 -0.653974 3.38847 0
M  V30 38097 C 3518.71 0.226024 4.31408 0
M  V30 38098 C 3517.85 -0.634095 5.27402 0
M  V30 38099 C 3516.89 0.246881 6.11602 0
M  V30 38100 N 3516.02 -0.572667 6.99761 0
M  V30 38101 H 3520.86 1.00599 2.80507 0
M  V30 38102 H 3518.4 0.507641 1.38063 0
M  V30 38103 H 3520.36 -1.1636 4.00645 0
M  V30 38104 H 3518.99 -1.42628 2.89581 0
M  V30 38105 H 3518.04 0.853681 3.70697 0
M  V30 38106 H 3519.35 0.904502 4.90531 0
M  V30 38107 H 3518.51 -1.20922 5.94527 0
M  V30 38108 H 3517.24 -1.34617 4.68753 0
M  V30 38109 H 3516.25 0.834353 5.43432 0
M  V30 38110 H 3517.47 0.956677 6.72328 0
M  V30 38111 H 3515.42 -1.26889 6.43611 0
M  V30 38112 H 3515.34 0.0479631 7.55985 0
M  V30 38113 H 3516.61 -1.13138 7.71246 0
M  V30 38114 N 3520.83 -1.47696 0.549872 0
M  V30 38115 C 3521.76 -2.32723 -0.190323 0
M  V30 38116 C 3522.75 -1.43336 -0.915907 0
M  V30 38117 O 3523.93 -1.72201 -0.897807 0
M  V30 38118 C 3521.06 -3.24964 -1.2254 0
M  V30 38119 C 3520.01 -4.23533 -0.616731 0
M  V30 38120 C 3519.34 -5.05047 -1.75591 0
M  V30 38121 C 3520.64 -5.20571 0.424686 0
M  V30 38122 H 3522.33 -2.94858 0.519513 0
M  V30 38123 H 3519.88 -1.41791 0.251284 0
M  V30 38124 H 3521.83 -3.83284 -1.75133 0
M  V30 38125 H 3520.56 -2.60868 -1.96508 0
M  V30 38126 H 3519.22 -3.66428 -0.11216 0
M  V30 38127 H 3518.86 -4.3736 -2.48445 0
M  V30 38128 H 3518.56 -5.71776 -1.35446 0
M  V30 38129 H 3520.09 -5.66224 -2.28524 0
M  V30 38130 H 3521.5 -5.73298 -0.0149018 0
M  V30 38131 H 3519.9 -5.95463 0.744605 0
M  V30 38132 H 3520.97 -4.66495 1.32327 0
M  V30 38133 N 3522.31 -0.285959 -1.54984 0
M  V30 38134 C 3523.55 0.32876 -2.01739 0
M  V30 38135 C 3523.92 1.52236 -1.16997 0
M  V30 38136 O 3525.12 2.20744 -1.53381 0
M  V30 38137 C 3523.39 0.690919 -3.50658 0
M  V30 38138 S 3524.95 1.29063 -4.1939 0
M  V30 38139 H 3521.77 0.101709 -0.703688 0
M  V30 38140 H 3524.37 -0.410325 -1.91145 0
M  V30 38141 H 3523.07 -0.186491 -4.09976 0
M  V30 38142 H 3522.6 1.46118 -3.65257 0
M  V30 38143 H 3524.62 2.57893 -4.23917 0
M  V30 38144 N 3523.79 1.57594 -0.0134169 0
M  V30 38145 C 3525.04 1.90766 0.667279 0
M  V30 38146 C 3525.36 0.888877 1.73563 0
M  V30 38147 O 3524.63 -0.0718602 1.95768 0
M  V30 38148 H 3523.21 0.704116 0.249458 0
M  V30 38149 H 3525.87 1.94815 -0.0575132 0
M  V30 38150 H 3524.97 2.90924 1.13002 0
M  V30 38151 N 3525.27 -0.259531 1.55448 0
M  V30 38152 C 3526.2 -1.32504 1.92262 0
M  V30 38153 C 3527.18 -1.50849 0.786039 0
M  V30 38154 O 3528.36 -1.63668 1.04529 0
M  V30 38155 C 3525.49 -2.68215 2.20631 0
M  V30 38156 C 3524.45 -2.64583 3.36422 0
M  V30 38157 C 3523.77 -4.03971 3.50303 0
M  V30 38158 C 3525.07 -2.22672 4.72456 0
M  V30 38159 H 3526.77 -1.01941 2.81511 0
M  V30 38160 H 3524.31 -0.488941 1.35445 0
M  V30 38161 H 3526.27 -3.42879 2.44974 0
M  V30 38162 H 3524.99 -3.00389 1.28196 0
M  V30 38163 H 3523.65 -1.92376 3.12069 0
M  V30 38164 H 3523.3 -4.33389 2.55309 0
M  V30 38165 H 3523 -4.02432 4.28162 0
M  V30 38166 H 3524.52 -4.80353 3.76952 0
M  V30 38167 H 3525.94 -2.87063 4.96254 0
M  V30 38168 H 3524.33 -2.32269 5.53327 0
M  V30 38169 H 3525.4 -1.17818 4.70369 0
M  V30 38170 N 3526.75 -1.48611 -0.524645 0
M  V30 38171 C 3528 -1.56153 -1.27669 0
M  V30 38172 C 3528.31 -0.242743 -1.94088 0
M  V30 38173 O 3529.51 -0.196455 -2.70788 0
M  V30 38174 C 3527.97 -2.75412 -2.31682 0
M  V30 38175 C 3527.58 -4.13954 -1.71308 0
M  V30 38176 C 3529.32 -2.92269 -3.07862 0
M  V30 38177 C 3527.23 -5.24467 -2.73292 0
M  V30 38178 H 3526.16 -0.58134 -0.480166 0
M  V30 38179 H 3528.81 -1.74955 -0.553442 0
M  V30 38180 H 3527.19 -2.50054 -3.07065 0
M  V30 38181 H 3528.37 -4.49352 -1.02077 0
M  V30 38182 H 3526.68 -4.02257 -1.07601 0
M  V30 38183 H 3529.28 -3.72002 -3.84082 0
M  V30 38184 H 3529.62 -2.01927 -3.64048 0
M  V30 38185 H 3530.15 -3.17553 -2.39593 0
M  V30 38186 H 3526.89 -6.16792 -2.21919 0
M  V30 38187 H 3526.41 -4.9355 -3.40835 0
M  V30 38188 H 3528.09 -5.52806 -3.36176 0
M  V30 38189 N 3528.22 0.773926 -1.37289 0
M  V30 38190 C 3529.5 1.52157 -1.22913 0
M  V30 38191 C 3529.88 2.10346 0.178212 0
M  V30 38192 O 3529.23 1.95335 1.1856 0
M  V30 38193 C 3529.44 2.6042 -2.32342 0
M  V30 38194 C 3530.79 3.27882 -2.69775 0
M  V30 38195 O 3531.81 2.70713 -2.31501 0
M  V30 38196 O 3530.67 4.31235 -3.35706 0
M  V30 38197 H 3527.76 0.673808 -0.479492 0
M  V30 38198 H 3530.31 0.811079 -1.49062 0
M  V30 38199 H 3529.08 2.15526 -3.26595 0
M  V30 38200 H 3528.71 3.39072 -2.07644 0
M  V30 38201 N 3529.7 1.21823 0.99985 0
M  V30 38202 C 3530.94 1.05008 1.75365 0
M  V30 38203 C 3531.31 -0.408623 1.87601 0
M  V30 38204 O 3532.51 -0.697434 2.59594 0
M  V30 38205 C 3530.78 1.73393 3.12522 0
M  V30 38206 S 3532.34 1.71901 4.03727 0
M  V30 38207 H 3529.16 0.376187 0.603328 0
M  V30 38208 H 3531.76 1.54652 1.19596 0
M  V30 38209 H 3530.46 2.78702 3.01253 0
M  V30 38210 H 3529.99 1.2395 3.73363 0
M  V30 38211 H 3532.01 0.763754 4.90287 0
M  V30 38212 N 3531.18 -1.1956 1.0268 0
M  V30 38213 C 3532.43 -1.8947 0.723119 0
M  V30 38214 C 3532.76 -1.7929 -0.746237 0
M  V30 38215 O 3532.03 -1.18387 -1.5432 0
M  V30 38216 C 3532.32 -3.40484 1.1723 0
M  V30 38217 C 3532.17 -3.59546 2.70272 0
M  V30 38218 C 3533.49 -4.33637 0.751473 0
M  V30 38219 H 3530.61 -0.68803 0.264167 0
M  V30 38220 H 3533.25 -1.40745 1.27636 0
M  V30 38221 H 3531.4 -3.82112 0.701611 0
M  V30 38222 H 3533.07 -3.27103 3.25272 0
M  V30 38223 H 3531.32 -3.02669 3.10763 0
M  V30 38224 H 3531.99 -4.65445 2.96757 0
M  V30 38225 H 3534.46 -3.99712 1.15628 0
M  V30 38226 H 3533.34 -5.37894 1.09368 0
M  V30 38227 H 3533.6 -4.40742 -0.34629 0
M  V30 38228 N 3532.66 -0.804387 -1.35526 0
M  V30 38229 C 3533.61 -0.18595 -2.2724 0
M  V30 38230 C 3534.59 0.63893 -1.4767 0
M  V30 38231 O 3535.78 0.496549 -1.69892 0
M  V30 38232 C 3532.91 0.666387 -3.3677 0
M  V30 38233 C 3532 -0.168102 -4.23767 0
M  V30 38234 N 3532.39 -1.23003 -4.90616 0
M  V30 38235 C 3530.69 0.0506304 -4.45971 0
M  V30 38236 C 3531.39 -1.7393 -5.55088 0
M  V30 38237 N 3530.37 -1.0461 -5.33439 0
M  V30 38238 H 3534.17 -0.998516 -2.76418 0
M  V30 38239 H 3531.68 -0.645327 -1.49028 0
M  V30 38240 H 3533.68 1.12547 -4.01421 0
M  V30 38241 H 3532.34 1.47733 -2.89146 0
M  V30 38242 H 3533.35 -1.61265 -4.92152 0
M  V30 38243 H 3530.03 0.830886 -4.09149 0
M  V30 38244 H 3531.42 -2.62669 -6.18429 0
M  V30 38245 N 3534.14 1.47403 -0.557697 0
M  V30 38246 C 3535.38 2.02472 -0.033824 0
M  V30 38247 C 3535.71 1.43199 1.31622 0
M  V30 38248 O 3534.97 0.577399 1.86988 0
M  V30 38249 C 3535.27 3.57236 0.108261 0
M  V30 38250 C 3534.93 4.3543 -1.17095 0
M  V30 38251 C 3533.59 4.56513 -1.52148 0
M  V30 38252 C 3535.95 4.80522 -2.01862 0
M  V30 38253 C 3533.27 5.19938 -2.71812 0
M  V30 38254 C 3535.63 5.45266 -3.2073 0
M  V30 38255 C 3534.29 5.64582 -3.56095 0
M  V30 38256 H 3533.56 0.740897 -0.0123771 0
M  V30 38257 H 3536.21 1.77069 -0.729308 0
M  V30 38258 H 3534.51 3.81634 0.886714 0
M  V30 38259 H 3536.21 3.97496 0.528961 0
M  V30 38260 H 3532.8 4.19299 -0.888026 0
M  V30 38261 H 3536.98 4.64011 -1.76089 0
M  V30 38262 H 3532.24 5.33087 -2.9938 0
M  V30 38263 H 3536.41 5.79169 -3.867 0
M  V30 38264 H 3534.04 6.13498 -4.48914 0
M  V30 38265 N 3535.62 0.294175 1.5483 0
M  V30 38266 C 3536.55 -0.578231 2.26227 0
M  V30 38267 C 3537.53 -1.14349 1.2593 0
M  V30 38268 O 3538.71 -1.1741 1.54689 0
M  V30 38269 C 3535.84 -1.75344 2.99786 0
M  V30 38270 C 3534.8 -1.31885 4.07174 0
M  V30 38271 C 3534.12 -2.57868 4.6841 0
M  V30 38272 C 3535.42 -0.455075 5.20314 0
M  V30 38273 H 3537.12 0.0172462 2.99395 0
M  V30 38274 H 3534.66 0.00973475 1.43997 0
M  V30 38275 H 3536.61 -2.36979 3.48452 0
M  V30 38276 H 3535.34 -2.37505 2.24185 0
M  V30 38277 H 3534 -0.72559 3.59348 0
M  V30 38278 H 3533.65 -3.18328 3.89456 0
M  V30 38279 H 3533.35 -2.29493 5.40931 0
M  V30 38280 H 3534.87 -3.20318 5.19835 0
M  V30 38281 H 3536.28 -0.976926 5.64915 0
M  V30 38282 H 3534.68 -0.265396 5.99513 0
M  V30 38283 H 3535.75 0.521519 4.82087 0
M  V30 38284 N 3537.09 -1.57585 0.0217743 0
M  V30 38285 C 3538.51 -1.56054 -0.334549 0
M  V30 38286 C 3538.71 -1.02666 -1.73384 0
M  V30 38287 O 3537.77 -0.670121 -2.43445 0
M  V30 38288 C 3539.08 -3.001 -0.189866 0
M  V30 38289 C 3540.63 -3.11892 -0.263183 0
M  V30 38290 C 3541.1 -4.57763 -0.147374 0
M  V30 38291 N 3542.59 -4.62748 -0.204591 0
M  V30 38292 C 3543.33 -5.73232 -0.138654 0
M  V30 38293 N 3542.82 -6.92796 -0.0220544 0
M  V30 38294 N 3544.62 -5.61772 -0.192107 0
M  V30 38295 H 3536.77 -1.90621 0.936882 0
M  V30 38296 H 3539.03 -0.876519 0.361135 0
M  V30 38297 H 3538.74 -3.43083 0.773747 0
M  V30 38298 H 3538.61 -3.64698 -0.963084 0
M  V30 38299 H 3541 -2.68825 -1.21725 0
M  V30 38300 H 3541.08 -2.50029 0.540285 0
M  V30 38301 H 3540.72 -5.01508 0.803243 0
M  V30 38302 H 3540.65 -5.17596 -0.969612 0
M  V30 38303 H 3543.14 -3.76746 -0.295154 0
M  V30 38304 H 3543.46 -7.72797 0.0217668 0
M  V30 38305 H 3541.8 -6.94999 0.0126255 0
M  V30 38306 H 3544.99 -4.67253 -0.281548 0
M  V30 38307 H 3545.17 -6.47855 -0.137258 0
M  V30 38308 N 3538.57 0.251283 -1.55584 0
M  V30 38309 C 3539.48 1.33263 -1.93075 0
M  V30 38310 C 3540.5 1.52893 -0.830639 0
M  V30 38311 O 3541.67 1.666 -1.13165 0
M  V30 38312 C 3538.74 2.66801 -2.214 0
M  V30 38313 C 3537.8 2.55731 -3.44819 0
M  V30 38314 C 3537.03 3.829 -3.71784 0
M  V30 38315 O 3537.26 4.84582 -3.00893 0
M  V30 38316 O 3536.19 3.81796 -4.65312 0
M  V30 38317 H 3540.02 1.0446 -2.8517 0
M  V30 38318 H 3537.6 0.451668 -1.42409 0
M  V30 38319 H 3539.48 3.45721 -2.40947 0
M  V30 38320 H 3538.16 2.95346 -1.32485 0
M  V30 38321 H 3537.06 1.75112 -3.30585 0
M  V30 38322 H 3538.4 2.32131 -4.34023 0
M  V30 38323 N 3540.05 1.48887 0.516757 0
M  V30 38324 C 3541.3 1.5781 1.27373 0
M  V30 38325 C 3541.63 0.256997 1.92492 0
M  V30 38326 O 3540.9 -0.738161 1.79948 0
M  V30 38327 C 3541.19 2.72599 2.3529 0
M  V30 38328 C 3541.04 4.14456 1.74775 0
M  V30 38329 C 3542.36 2.83091 3.36968 0
M  V30 38330 H 3539.48 0.574426 0.46174 0
M  V30 38331 H 3542.12 1.81112 0.574309 0
M  V30 38332 H 3540.27 2.52862 2.94946 0
M  V30 38333 H 3541.94 4.45668 1.19069 0
M  V30 38334 H 3540.18 4.20838 1.05251 0
M  V30 38335 H 3540.86 4.90619 2.52976 0
M  V30 38336 H 3543.33 3.0101 2.87284 0
M  V30 38337 H 3542.21 3.65114 4.09858 0
M  V30 38338 H 3542.47 1.91791 3.98332 0
M  V30 38339 N 3541.53 -0.766635 1.37697 0
M  V30 38340 C 3542.46 -1.88755 1.28245 0
M  V30 38341 C 3543.44 -1.61791 0.161976 0
M  V30 38342 O 3544.62 -1.85462 0.337066 0
M  V30 38343 C 3541.75 -3.2409 0.984029 0
M  V30 38344 C 3540.8 -3.69959 2.12209 0
M  V30 38345 S 3541.63 -3.83029 3.74232 0
M  V30 38346 C 3542.78 -5.21204 3.46551 0
M  V30 38347 H 3543.02 -1.96485 2.23116 0
M  V30 38348 H 3540.55 -0.928268 1.2338 0
M  V30 38349 H 3542.51 -4.02253 0.818683 0
M  V30 38350 H 3541.17 -3.14056 0.0527096 0
M  V30 38351 H 3540.36 -4.68088 1.86842 0
M  V30 38352 H 3539.96 -2.98912 2.24783 0
M  V30 38353 H 3542.26 -6.06539 3.01856 0
M  V30 38354 H 3543.2 -5.51585 4.44026 0
M  V30 38355 H 3543.61 -4.89383 2.81361 0
M  V30 38356 N 3543.01 -1.22351 -0.993375 0
M  V30 38357 C 3544.25 -1.04934 -1.73542 0
M  V30 38358 C 3544.58 0.414628 -1.89722 0
M  V30 38359 O 3543.86 1.30741 -1.44004 0
M  V30 38360 C 3544.14 -1.76056 -3.14128 0
M  V30 38361 C 3544 -3.30045 -3.05599 0
M  V30 38362 C 3545.31 -1.51256 -4.13291 0
M  V30 38363 H 3542.43 -0.382602 -0.629908 0
M  V30 38364 H 3545.08 -1.50684 -1.15734 0
M  V30 38365 H 3543.23 -1.37163 -3.63481 0
M  V30 38366 H 3544.9 -3.78379 -2.6387 0
M  V30 38367 H 3543.14 -3.59747 -2.42415 0
M  V30 38368 H 3543.81 -3.74986 -4.0508 0
M  V30 38369 H 3546.29 -1.85039 -3.72692 0
M  V30 38370 H 3545.16 -2.03516 -5.09777 0
M  V30 38371 H 3545.42 -0.445051 -4.39854 0
M  V30 38372 N 3544.48 1.19014 -1.03313 0
M  V30 38373 C 3545.43 2.22383 -0.617606 0
M  V30 38374 C 3546.4 1.61909 0.37075 0
M  V30 38375 O 3547.59 1.8893 0.266447 0
M  V30 38376 C 3544.73 3.45094 0.0210697 0
M  V30 38377 C 3543.84 4.19935 -1.01384 0
M  V30 38378 C 3542.97 5.30082 -0.344478 0
M  V30 38379 C 3542.01 5.96686 -1.36501 0
M  V30 38380 N 3541.15 6.98387 -0.721149 0
M  V30 38381 H 3545.99 2.57283 -1.50365 0
M  V30 38382 H 3543.53 1.26403 -0.752372 0
M  V30 38383 H 3545.48 4.15194 0.40864 0
M  V30 38384 H 3544.11 3.10836 0.870666 0
M  V30 38385 H 3543.17 3.48737 -1.51943 0
M  V30 38386 H 3544.48 4.65603 -1.78929 0
M  V30 38387 H 3543.63 6.06621 0.0977074 0
M  V30 38388 H 3542.37 4.85496 0.46313 0
M  V30 38389 H 3541.38 5.18893 -1.81741 0
M  V30 38390 H 3542.6 6.43355 -2.17418 0
M  V30 38391 H 3540.55 6.55967 0.0662904 0
M  V30 38392 H 3540.46 7.42267 -1.43441 0
M  V30 38393 H 3541.73 7.7891 -0.303107 0
M  V30 38394 N 3545.96 0.811563 1.35098 0
M  V30 38395 C 3546.87 0.227091 2.33498 0
M  V30 38396 C 3547.89 -0.632534 1.62096 0
M  V30 38397 O 3549.06 -0.543113 1.93939 0
M  V30 38398 C 3546.13 -0.610627 3.4128 0
M  V30 38399 C 3545.19 0.27007 4.2845 0
M  V30 38400 C 3544.42 -0.527761 5.31084 0
M  V30 38401 O 3544.65 -1.76204 5.42502 0
M  V30 38402 O 3543.58 0.0839678 6.01841 0
M  V30 38403 H 3547.41 1.04124 2.85293 0
M  V30 38404 H 3544.99 0.573456 1.37956 0
M  V30 38405 H 3546.87 -1.08761 4.07123 0
M  V30 38406 H 3545.55 -1.40229 2.91749 0
M  V30 38407 H 3544.45 0.794298 3.6557 0
M  V30 38408 H 3545.79 1.0258 4.81392 0
M  V30 38409 N 3547.44 -1.47105 0.565506 0
M  V30 38410 C 3548.39 -2.31819 -0.190502 0
M  V30 38411 C 3549.38 -1.43436 -0.901254 0
M  V30 38412 O 3550.59 -1.60156 -0.821596 0
M  V30 38413 H 3546.96 -0.7477 -0.0803051 0
M  V30 38414 H 3548.93 -2.93417 0.54305 0
M  V30 38415 C 3547.68 -3.26262 -1.20203 0
M  V30 38416 H 3547.01 -3.94238 -0.664538 0
M  V30 38417 H 3548.45 -3.88352 -1.70173 0
M  V30 38418 C 3546.9 -2.50376 -2.25419 0
M  V30 38419 O 3547.43 -2.25424 -3.32486 0
M  V30 38420 N 3545.64 -2.11238 -1.99566 0
M  V30 38421 H 3545.19 -2.31731 -1.12509 0
M  V30 38422 H 3545.15 -1.60782 -2.70179 0
M  V30 38423 N 3548.92 -0.302382 -1.54672 0
M  V30 38424 C 3549.87 0.573102 -2.23571 0
M  V30 38425 C 3550.84 1.12847 -1.2188 0
M  V30 38426 O 3552.02 1.17274 -1.50504 0
M  V30 38427 C 3549.16 1.73845 -2.98114 0
M  V30 38428 C 3548.27 1.21434 -4.14582 0
M  V30 38429 C 3547.41 2.34366 -4.76703 0
M  V30 38430 C 3546.45 1.79096 -5.85313 0
M  V30 38431 N 3545.58 2.85607 -6.41384 0
M  V30 38432 H 3550.42 -0.0210492 -2.97993 0
M  V30 38433 H 3547.96 -0.0221577 -1.47083 0
M  V30 38434 H 3549.92 2.42386 -3.39565 0
M  V30 38435 H 3548.55 2.30421 -2.26067 0
M  V30 38436 H 3547.6 0.421137 -3.78062 0
M  V30 38437 H 3548.91 0.769735 -4.92825 0
M  V30 38438 H 3548.07 3.10852 -5.21014 0
M  V30 38439 H 3546.81 2.82154 -3.97795 0
M  V30 38440 H 3545.81 1.01099 -5.40425 0
M  V30 38441 H 3547.04 1.32211 -6.66106 0
M  V30 38442 H 3544.98 3.32725 -5.65358 0
M  V30 38443 H 3544.9 2.45646 -7.14978 0
M  V30 38444 H 3546.17 3.61986 -6.90353 0
M  V30 38445 N 3550.4 1.57571 -0.0301311 0
M  V30 38446 C 3551.31 2.13741 0.967048 0
M  V30 38447 C 3552.32 1.08992 1.35634 0
M  V30 38448 O 3553.5 1.41055 1.43755 0
M  V30 38449 C 3550.56 2.65421 2.23053 0
M  V30 38450 C 3549.62 3.84889 1.90156 0
M  V30 38451 C 3548.86 4.34094 3.10481 0
M  V30 38452 O 3549.08 3.82467 4.23172 0
M  V30 38453 O 3548.01 5.25927 2.9272 0
M  V30 38454 H 3551.84 2.99225 0.519433 0
M  V30 38455 H 3549.43 1.4818 0.190533 0
M  V30 38456 H 3551.31 2.98724 2.97224 0
M  V30 38457 H 3549.98 1.83019 2.66994 0
M  V30 38458 H 3548.89 3.56509 1.13367 0
M  V30 38459 H 3550.22 4.68455 1.51031 0
M  V30 38460 N 3551.87 -0.243029 1.55715 0
M  V30 38461 C 3553.1 -0.992187 1.82127 0
M  V30 38462 C 3553.52 -1.78013 0.607696 0
M  V30 38463 O 3552.88 -1.75796 -0.44332 0
M  V30 38464 C 3552.93 -1.90268 3.06317 0
M  V30 38465 O 3552.03 -2.99498 2.83505 0
M  V30 38466 H 3551.38 -0.282117 0.601087 0
M  V30 38467 H 3553.91 -0.262845 2.02905 0
M  V30 38468 H 3553.92 -2.3166 3.35854 0
M  V30 38469 H 3552.59 -1.32337 3.94284 0
M  V30 38470 H 3551.17 -2.62206 2.65146 0
M  V30 38471 N 3553.35 -1.49159 -0.508854 0
M  V30 38472 C 3554.3 -1.65249 -1.61126 0
M  V30 38473 C 3555.27 -0.494077 -1.58581 0
M  V30 38474 O 3556.45 -0.720153 -1.76687 0
M  V30 38475 C 3553.59 -1.71781 -2.99308 0
M  V30 38476 C 3552.71 -2.98873 -3.11928 0
M  V30 38477 C 3551.84 -2.96434 -4.40795 0
M  V30 38478 C 3550.88 -4.18139 -4.47019 0
M  V30 38479 N 3550.02 -4.13655 -5.67304 0
M  V30 38480 H 3554.86 -2.59381 -1.46715 0
M  V30 38481 H 3552.4 -1.28612 -0.713955 0
M  V30 38482 H 3554.35 -1.7355 -3.79389 0
M  V30 38483 H 3552.98 -0.811214 -3.12441 0
M  V30 38484 H 3552.04 -3.06752 -2.2496 0
M  V30 38485 H 3553.35 -3.88865 -3.12387 0
M  V30 38486 H 3552.5 -2.96722 -5.29189 0
M  V30 38487 H 3551.24 -2.04207 -4.42889 0
M  V30 38488 H 3550.25 -4.18104 -3.57029 0
M  V30 38489 H 3551.47 -5.1155 -4.46647 0
M  V30 38490 H 3549.42 -3.24261 -5.70255 0
M  V30 38491 H 3549.33 -4.97374 -5.69347 0
M  V30 38492 H 3550.6 -4.18034 -6.57927 0
M  V30 38493 N 3554.83 0.759322 -1.38102 0
M  V30 38494 C 3555.78 1.86345 -1.31376 0
M  V30 38495 C 3556.76 1.59663 -0.199141 0
M  V30 38496 O 3557.96 1.71581 -0.43462 0
M  V30 38497 C 3555.09 3.2398 -1.13542 0
M  V30 38498 C 3554.17 3.56572 -2.29602 0
M  V30 38499 N 3554.56 3.60261 -3.5503 0
M  V30 38500 C 3552.86 3.86807 -2.22028 0
M  V30 38501 C 3553.56 3.89956 -4.31636 0
M  V30 38502 N 3552.54 4.06493 -3.60922 0
M  V30 38503 H 3556.34 1.87466 -2.26349 0
M  V30 38504 H 3553.85 0.956392 -1.31251 0
M  V30 38505 H 3555.85 4.02986 -1.06808 0
M  V30 38506 H 3554.51 3.24114 -0.194979 0
M  V30 38507 H 3555.52 3.42161 -3.88775 0
M  V30 38508 H 3552.2 3.9469 -1.36111 0
M  V30 38509 H 3553.59 3.99481 -5.40245 0
M  V30 38510 N 3556.31 1.22876 0.986873 0
M  V30 38511 C 3557.26 1.00419 2.07809 0
M  V30 38512 C 3558.23 -0.0761442 1.65925 0
M  V30 38513 O 3559.41 0.074663 1.90654 0
M  V30 38514 C 3556.55 0.594531 3.3994 0
M  V30 38515 C 3555.66 1.74629 3.95131 0
M  V30 38516 C 3554.8 1.28403 5.15447 0
M  V30 38517 C 3553.84 2.40696 5.62789 0
M  V30 38518 N 3552.97 1.95474 6.7434 0
M  V30 38519 H 3557.81 1.93826 2.26352 0
M  V30 38520 H 3555.35 0.965681 1.10964 0
M  V30 38521 H 3557.31 0.338151 4.15827 0
M  V30 38522 H 3555.94 -0.302531 3.21379 0
M  V30 38523 H 3554.99 2.11684 3.1606 0
M  V30 38524 H 3556.3 2.59074 4.26242 0
M  V30 38525 H 3555.46 0.985395 5.98644 0
M  V30 38526 H 3554.2 0.409874 4.85975 0
M  V30 38527 H 3553.2 2.71342 4.78178 0
M  V30 38528 H 3554.43 3.28638 5.94284 0
M  V30 38529 H 3552.37 1.10429 6.46639 0
M  V30 38530 H 3552.29 2.73481 7.04801 0
M  V30 38531 H 3553.56 1.68696 7.61027 0
M  V30 38532 N 3557.79 -1.18464 1.03942 0
M  V30 38533 C 3558.72 -2.20867 0.573853 0
M  V30 38534 C 3559.7 -1.57831 -0.390929 0
M  V30 38535 O 3560.88 -1.86007 -0.305528 0
M  V30 38536 C 3558.01 -3.38313 -0.161844 0
M  V30 38537 C 3557.05 -4.19746 0.755998 0
M  V30 38538 S 3557.89 -4.86483 2.23817 0
M  V30 38539 C 3559.04 -6.07331 1.51329 0
M  V30 38540 H 3559.28 -2.60017 1.44148 0
M  V30 38541 H 3556.81 -1.28879 0.850275 0
M  V30 38542 H 3558.77 -4.0638 -0.580149 0
M  V30 38543 H 3557.43 -2.97577 -1.00534 0
M  V30 38544 H 3556.62 -5.03651 0.187434 0
M  V30 38545 H 3556.22 -3.57052 1.1131 0
M  V30 38546 H 3558.52 -6.72693 0.805654 0
M  V30 38547 H 3559.46 -6.68691 2.32934 0
M  V30 38548 H 3559.87 -5.55461 1.00617 0
M  V30 38549 N 3559.26 -0.818716 -1.34665 0
M  V30 38550 C 3560.49 -0.416621 -2.03172 0
M  V30 38551 C 3560.91 0.968293 -1.61263 0
M  V30 38552 O 3560.27 1.6293 -0.795199 0
M  V30 38553 C 3560.32 -0.521947 -3.56803 0
M  V30 38554 O 3559.42 0.459881 -4.09828 0
M  V30 38555 H 3558.77 -0.172148 -0.641297 0
M  V30 38556 H 3561.3 -1.10797 -1.72004 0
M  V30 38557 H 3561.31 -0.396172 -4.06072 0
M  V30 38558 H 3559.98 -1.53205 -3.86654 0
M  V30 38559 H 3558.56 0.29334 -3.71744 0
M  V30 38560 N 3560.74 1.46803 -0.573299 0
M  V30 38561 C 3561.97 2.06511 -0.0605468 0
M  V30 38562 C 3562.38 1.42405 1.24569 0
M  V30 38563 O 3561.72 0.520199 1.76181 0
M  V30 38564 C 3561.79 3.59001 0.189331 0
M  V30 38565 C 3561.45 4.45244 -1.02989 0
M  V30 38566 C 3562.45 4.82366 -1.93957 0
M  V30 38567 C 3560.13 4.86521 -1.24909 0
M  V30 38568 C 3562.13 5.59582 -3.052 0
M  V30 38569 C 3559.81 5.63498 -2.36459 0
M  V30 38570 C 3560.81 5.99941 -3.26435 0
M  V30 38571 O 3560.5 6.75364 -4.36048 0
M  V30 38572 H 3560.23 0.674134 -0.0501877 0
M  V30 38573 H 3562.78 1.89559 -0.790985 0
M  V30 38574 H 3561.01 3.74226 0.974271 0
M  V30 38575 H 3562.7 4.00671 0.649435 0
M  V30 38576 H 3563.47 4.51063 -1.78233 0
M  V30 38577 H 3559.35 4.57612 -0.557871 0
M  V30 38578 H 3562.89 5.87945 -3.75455 0
M  V30 38579 H 3558.79 5.94215 -2.52148 0
M  V30 38580 H 3559.56 6.93778 -4.34298 0
M  V30 38581 N 3562.22 0.31058 1.54509 0
M  V30 38582 C 3563.45 -0.300977 2.05205 0
M  V30 38583 C 3563.87 -1.46005 1.18592 0
M  V30 38584 O 3563.23 -1.80279 0.192112 0
M  V30 38585 C 3563.28 -0.725705 3.53222 0
M  V30 38586 O 3562.38 -1.82949 3.69599 0
M  V30 38587 H 3561.72 -0.056791 0.661567 0
M  V30 38588 H 3564.25 0.455213 1.99472 0
M  V30 38589 H 3564.26 -1.01191 3.95252 0
M  V30 38590 H 3562.94 0.122119 4.15721 0
M  V30 38591 H 3561.51 -1.54309 3.39475 0
M  V30 38592 N 3563.7 -1.57553 0.0384871 0
M  V30 38593 C 3564.95 -1.91804 -0.636846 0
M  V30 38594 C 3565.27 -0.916377 -1.72126 0
M  V30 38595 O 3564.54 0.0407061 -1.95858 0
M  V30 38596 H 3563.12 -0.707996 -0.238224 0
M  V30 38597 H 3565.78 -1.94699 0.0884993 0
M  V30 38598 H 3564.88 -2.92685 -1.08359 0
M  V30 38599 N 3565.18 0.234767 -1.55842 0
M  V30 38600 C 3566.59 0.583859 -1.48537 0
M  V30 38601 C 3566.79 1.87771 -0.731051 0
M  V30 38602 O 3565.85 2.51102 -0.265331 0
M  V30 38603 C 3567.16 0.675337 -2.93018 0
M  V30 38604 C 3568.71 0.766853 -3.03461 0
M  V30 38605 C 3569.19 0.889789 -4.49274 0
M  V30 38606 N 3570.68 0.954351 -4.53262 0
M  V30 38607 C 3571.41 1.06895 -5.63348 0
M  V30 38608 N 3570.91 1.14833 -6.83217 0
M  V30 38609 N 3572.7 1.10306 -5.51171 0
M  V30 38610 H 3564.85 -0.614441 -2.03318 0
M  V30 38611 H 3567.11 -0.213795 -0.923578 0
M  V30 38612 H 3566.82 -0.205555 -3.51099 0
M  V30 38613 H 3566.69 1.54331 -3.44183 0
M  V30 38614 H 3569.08 1.63819 -2.45453 0
M  V30 38615 H 3569.16 -0.126517 -2.55487 0
M  V30 38616 H 3568.81 0.0229596 -5.07895 0
M  V30 38617 H 3568.74 1.79838 -4.9494 0
M  V30 38618 H 3571.23 0.903859 -3.66932 0
M  V30 38619 H 3571.54 1.23518 -7.62865 0
M  V30 38620 H 3569.89 1.11769 -6.85954 0
M  V30 38621 H 3573.08 1.03761 -4.56455 0
M  V30 38622 H 3573.25 1.18892 -6.37 0
M  V30 38623 N 3566.66 1.49427 0.500936 0
M  V30 38624 C 3567.9 1.59152 1.25692 0
M  V30 38625 C 3568.23 0.277399 1.92209 0
M  V30 38626 O 3567.51 -0.719033 1.80721 0
M  V30 38627 C 3567.79 2.7508 2.32386 0
M  V30 38628 C 3567.65 4.16286 1.7037 0
M  V30 38629 C 3568.96 2.86649 3.33947 0
M  V30 38630 H 3566.08 0.579291 0.455621 0
M  V30 38631 H 3568.73 1.81711 0.555067 0
M  V30 38632 H 3566.88 2.55976 2.92248 0
M  V30 38633 H 3568.55 4.46906 1.14335 0
M  V30 38634 H 3566.79 4.21931 1.00781 0
M  V30 38635 H 3567.46 4.93275 2.47758 0
M  V30 38636 H 3569.94 3.0404 2.84075 0
M  V30 38637 H 3568.81 3.6944 4.05962 0
M  V30 38638 H 3569.07 1.96005 3.96276 0
M  V30 38639 N 3568.13 -0.751987 1.38502 0
M  V30 38640 C 3569.08 -1.86576 1.35861 0
M  V30 38641 C 3570.05 -1.64625 0.220902 0
M  V30 38642 O 3571.24 -1.86268 0.413381 0
M  V30 38643 C 3568.38 -3.23894 1.19108 0
M  V30 38644 C 3567.49 -3.57666 2.42279 0
M  V30 38645 C 3566.62 -4.84296 2.18245 0
M  V30 38646 C 3565.66 -5.10859 3.37178 0
M  V30 38647 N 3564.8 -6.28685 3.12569 0
M  V30 38648 H 3569.64 -1.88169 2.31077 0
M  V30 38649 H 3567.18 -0.919692 1.14804 0
M  V30 38650 H 3569.13 -4.03136 1.07411 0
M  V30 38651 H 3567.76 -3.21624 0.275299 0
M  V30 38652 H 3566.82 -2.73255 2.64643 0
M  V30 38653 H 3568.13 -3.73223 3.30917 0
M  V30 38654 H 3567.28 -5.71484 2.03692 0
M  V30 38655 H 3566.02 -4.70881 1.26974 0
M  V30 38656 H 3565.03 -4.22139 3.52248 0
M  V30 38657 H 3566.25 -5.26171 4.29327 0
M  V30 38658 H 3564.2 -6.1659 2.23948 0
M  V30 38659 H 3564.11 -6.4475 3.94757 0
M  V30 38660 H 3565.38 -7.18757 3.01676 0
M  V30 38661 N 3569.61 -1.23398 -0.980343 0
M  V30 38662 C 3570.84 -1.09279 -1.75687 0
M  V30 38663 C 3571.25 0.355741 -1.85418 0
M  V30 38664 O 3570.61 1.24607 -1.3334 0
M  V30 38665 C 3570.66 -1.71229 -3.18375 0
M  V30 38666 O 3570.38 -3.10417 -3.09149 0
M  V30 38667 C 3571.88 -1.62552 -4.12422 0
M  V30 38668 H 3569.1 -0.382436 -0.551347 0
M  V30 38669 H 3571.65 -1.6325 -1.23166 0
M  V30 38670 H 3569.8 -1.21291 -3.67923 0
M  V30 38671 H 3570.22 -3.40471 -3.98974 0
M  V30 38672 H 3571.69 -2.10601 -5.10246 0
M  V30 38673 H 3572.17 -0.584352 -4.35295 0
M  V30 38674 H 3572.77 -2.11856 -3.68778 0
M  V30 38675 N 3571.09 1.17911 -1.04569 0
M  V30 38676 C 3572.02 2.23916 -0.662105 0
M  V30 38677 C 3573 1.66726 0.337101 0
M  V30 38678 O 3574.19 1.92994 0.216082 0
M  V30 38679 C 3571.32 3.47287 -0.029524 0
M  V30 38680 C 3570.27 4.17259 -0.952814 0
M  V30 38681 C 3569.6 5.34382 -0.184441 0
M  V30 38682 C 3570.9 4.7019 -2.27418 0
M  V30 38683 H 3572.59 2.56257 -1.5483 0
M  V30 38684 H 3570.14 1.23176 -0.745908 0
M  V30 38685 H 3572.09 4.20654 0.25058 0
M  V30 38686 H 3570.81 3.14195 0.891583 0
M  V30 38687 H 3569.47 3.45797 -1.21738 0
M  V30 38688 H 3569.12 4.97538 0.739232 0
M  V30 38689 H 3568.82 5.82134 -0.799592 0
M  V30 38690 H 3570.34 6.10536 0.0885271 0
M  V30 38691 H 3571.76 5.35225 -2.05443 0
M  V30 38692 H 3570.15 5.28496 -2.84275 0
M  V30 38693 H 3571.22 3.87337 -2.91715 0
M  V30 38694 N 3572.57 0.825847 1.34229 0
M  V30 38695 C 3573.81 0.421208 2.00013 0
M  V30 38696 C 3574.17 -0.99773 1.64041 0
M  V30 38697 O 3575.37 -1.50541 2.2269 0
M  V30 38698 C 3573.64 0.620705 3.51969 0
M  V30 38699 S 3575.2 0.309349 4.37708 0
M  V30 38700 H 3572.02 0.159015 0.69299 0
M  V30 38701 H 3574.62 1.0723 1.63469 0
M  V30 38702 H 3573.33 1.65303 3.75637 0
M  V30 38703 H 3572.86 -0.045014 3.93374 0
M  V30 38704 H 3574.87 -0.875857 4.88409 0
M  V30 38705 N 3574.05 -1.46497 0.581077 0
M  V30 38706 C 3574.98 -2.33074 -0.140916 0
M  V30 38707 C 3575.96 -1.45246 -0.885298 0
M  V30 38708 O 3577.14 -1.74066 -0.861079 0
M  V30 38709 C 3574.27 -3.2749 -1.15619 0
M  V30 38710 C 3573.23 -4.24746 -0.526754 0
M  V30 38711 C 3572.55 -5.08657 -1.64838 0
M  V30 38712 C 3573.85 -5.19553 0.535012 0
M  V30 38713 H 3575.55 -2.9369 0.58194 0
M  V30 38714 H 3573.09 -1.41226 0.281303 0
M  V30 38715 H 3575.04 -3.86912 -1.66963 0
M  V30 38716 H 3573.77 -2.64978 -1.9093 0
M  V30 38717 H 3572.43 -3.66584 -0.0344094 0
M  V30 38718 H 3572.08 -4.42532 -2.39112 0
M  V30 38719 H 3571.78 -5.74521 -1.23288 0
M  V30 38720 H 3573.3 -5.70944 -2.16462 0
M  V30 38721 H 3574.71 -5.73201 0.106707 0
M  V30 38722 H 3573.11 -5.93749 0.870743 0
M  V30 38723 H 3574.18 -4.63583 1.42192 0
M  V30 38724 N 3575.52 -0.31877 -1.54343 0
M  V30 38725 C 3576.46 0.583312 -2.21653 0
M  V30 38726 C 3577.47 1.08364 -1.21496 0
M  V30 38727 O 3578.66 0.998038 -1.47991 0
M  V30 38728 C 3575.76 1.81261 -2.86353 0
M  V30 38729 C 3574.93 1.45178 -4.12604 0
M  V30 38730 C 3573.99 2.5381 -4.60941 0
M  V30 38731 O 3573.02 2.18155 -5.25735 0
M  V30 38732 N 3574.22 3.84659 -4.34762 0
M  V30 38733 H 3576.98 0.00698271 -2.99699 0
M  V30 38734 H 3574.54 -0.141756 -1.61278 0
M  V30 38735 H 3576.54 2.53316 -3.15615 0
M  V30 38736 H 3575.11 2.2969 -2.12041 0
M  V30 38737 H 3574.33 0.563074 -3.90158 0
M  V30 38738 H 3575.61 1.18634 -4.94776 0
M  V30 38739 H 3575.01 4.16427 -3.8289 0
M  V30 38740 H 3573.57 4.52959 -4.68691 0
M  V30 38741 N 3577 1.5753 -0.0468419 0
M  V30 38742 C 3577.95 2.11276 0.929028 0
M  V30 38743 C 3578.92 1.01907 1.31164 0
M  V30 38744 O 3580.1 1.2943 1.40187 0
M  V30 38745 C 3577.24 2.65877 2.20008 0
M  V30 38746 C 3576.36 3.89317 1.87233 0
M  V30 38747 C 3575.49 4.32248 3.08764 0
M  V30 38748 C 3574.53 5.48399 2.71891 0
M  V30 38749 N 3573.67 5.86404 3.86102 0
M  V30 38750 H 3578.51 2.94369 0.463802 0
M  V30 38751 H 3576.04 1.45486 0.217312 0
M  V30 38752 H 3578 2.95631 2.94378 0
M  V30 38753 H 3576.63 1.85589 2.64115 0
M  V30 38754 H 3575.68 3.66181 1.0303 0
M  V30 38755 H 3577 4.73749 1.56088 0
M  V30 38756 H 3576.15 4.63532 3.91438 0
M  V30 38757 H 3574.89 3.46619 3.43084 0
M  V30 38758 H 3573.89 5.16792 1.87633 0
M  V30 38759 H 3575.12 6.35741 2.38768 0
M  V30 38760 H 3573.07 5.03728 4.20231 0
M  V30 38761 H 3572.98 6.65517 3.58641 0
M  V30 38762 H 3574.25 6.22301 4.69427 0
M  V30 38763 N 3578.48 -0.226499 1.55964 0
M  V30 38764 C 3579.43 -1.30031 1.92859 0
M  V30 38765 C 3580.42 -1.48778 0.810034 0
M  V30 38766 O 3581.63 -1.50011 0.994828 0
M  V30 38767 H 3578 -0.435847 0.612815 0
M  V30 38768 H 3579.97 -0.96191 2.82471 0
M  V30 38769 C 3578.72 -2.64456 2.25739 0
M  V30 38770 H 3578.05 -2.50837 3.11321 0
M  V30 38771 H 3579.49 -3.38415 2.55443 0
M  V30 38772 C 3577.95 -3.19093 1.08079 0
M  V30 38773 O 3578.48 -4.00264 0.339349 0
M  V30 38774 N 3576.68 -2.77398 0.865939 0
M  V30 38775 H 3576.23 -2.11498 1.47059 0
M  V30 38776 H 3576.19 -3.14297 0.0804119 0
M  V30 38777 N 3579.96 -1.4969 -0.493005 0
M  V30 38778 C 3581.19 -1.63302 -1.27044 0
M  V30 38779 C 3581.6 -0.307567 -1.86278 0
M  V30 38780 O 3580.96 0.707939 -1.6821 0
M  V30 38781 C 3581.01 -2.70784 -2.39496 0
M  V30 38782 O 3580.73 -3.98189 -1.82695 0
M  V30 38783 C 3582.23 -2.95172 -3.30739 0
M  V30 38784 H 3579.45 -0.549537 -0.385032 0
M  V30 38785 H 3582 -1.95775 -0.590964 0
M  V30 38786 H 3580.15 -2.41066 -3.03259 0
M  V30 38787 H 3580.56 -4.57457 -2.5658 0
M  V30 38788 H 3582.04 -3.74092 -4.05905 0
M  V30 38789 H 3582.52 -2.05394 -3.88214 0
M  V30 38790 H 3583.12 -3.26337 -2.72735 0
M  V30 38791 N 3581.44 0.744631 -1.38899 0
M  V30 38792 C 3582.4 1.84019 -1.36637 0
M  V30 38793 C 3583.4 1.58598 -0.265215 0
M  V30 38794 O 3584.59 1.66176 -0.522598 0
M  V30 38795 C 3581.72 3.21647 -1.12944 0
M  V30 38796 H 3582.91 1.87431 -2.34114 0
M  V30 38797 H 3580.47 0.94728 -1.24323 0
M  V30 38798 H 3581.2 3.239 -0.161084 0
M  V30 38799 H 3580.99 3.41494 -1.92676 0
M  V30 38800 H 3582.48 4.01716 -1.14078 0
M  V30 38801 N 3582.91 1.23916 0.973785 0
M  V30 38802 C 3583.84 1.05071 2.08524 0
M  V30 38803 C 3584.83 -0.0344462 1.70065 0
M  V30 38804 O 3586.01 0.131466 1.93755 0
M  V30 38805 C 3583.14 0.648225 3.41197 0
M  V30 38806 C 3582.09 1.68147 3.93587 0
M  V30 38807 C 3581.42 1.13423 5.22532 0
M  V30 38808 C 3582.72 3.07604 4.2211 0
M  V30 38809 H 3584.41 1.98038 2.24547 0
M  V30 38810 H 3581.96 0.953565 1.07903 0
M  V30 38811 H 3583.91 0.503413 4.18382 0
M  V30 38812 H 3582.64 -0.317124 3.25057 0
M  V30 38813 H 3581.3 1.81439 3.18552 0
M  V30 38814 H 3580.94 0.159666 5.02747 0
M  V30 38815 H 3580.64 1.82466 5.58552 0
M  V30 38816 H 3582.17 1.00141 6.02332 0
M  V30 38817 H 3583.58 2.97576 4.90022 0
M  V30 38818 H 3581.98 3.73945 4.69346 0
M  V30 38819 H 3583.05 3.56099 3.29122 0
M  V30 38820 N 3584.39 -1.17355 1.05193 0
M  V30 38821 C 3585.64 -1.88142 0.772935 0
M  V30 38822 C 3585.99 -1.79505 -0.69251 0
M  V30 38823 O 3585.29 -1.19221 -1.4999 0
M  V30 38824 C 3585.48 -3.37083 1.18785 0
M  V30 38825 C 3585.31 -3.60217 2.69209 0
M  V30 38826 C 3584.08 -3.76939 3.36519 0
M  V30 38827 C 3586.28 -3.59861 3.6743 0
M  V30 38828 N 3584.26 -3.87919 4.75807 0
M  V30 38829 C 3585.63 -3.76691 4.92447 0
M  V30 38830 C 3587.69 -3.43011 3.60899 0
M  V30 38831 C 3586.39 -3.78414 6.11715 0
M  V30 38832 C 3588.41 -3.46023 4.79606 0
M  V30 38833 C 3587.78 -3.6336 6.03447 0
M  V30 38834 H 3583.88 -0.706579 0.335067 0
M  V30 38835 H 3586.46 -1.40883 1.34387 0
M  V30 38836 H 3584.63 -3.83009 0.644868 0
M  V30 38837 H 3586.36 -3.95485 0.858689 0
M  V30 38838 H 3583.12 -3.76795 2.86919 0
M  V30 38839 H 3583.54 -3.97204 5.48232 0
M  V30 38840 H 3588.18 -3.28544 2.66118 0
M  V30 38841 H 3585.9 -3.91666 7.0684 0
M  V30 38842 H 3589.49 -3.34244 4.76206 0
M  V30 38843 H 3588.37 -3.65595 6.93765 0
M  V30 38844 N 3585.87 -0.832954 -1.3379 0
M  V30 38845 C 3587.12 -0.422161 -1.97233 0
M  V30 38846 C 3587.43 1.02261 -1.6674 0
M  V30 38847 O 3588.64 1.53779 -2.2375 0
M  V30 38848 C 3587.09 -0.703934 -3.52949 0
M  V30 38849 C 3586.7 -2.16299 -3.92325 0
M  V30 38850 C 3588.45 -0.359802 -4.22972 0
M  V30 38851 C 3586.35 -2.38912 -5.40994 0
M  V30 38852 H 3585.28 -0.154125 -0.73808 0
M  V30 38853 H 3587.93 -1.02071 -1.52492 0
M  V30 38854 H 3586.32 -0.035088 -3.95984 0
M  V30 38855 H 3587.49 -2.87182 -3.60365 0
M  V30 38856 H 3585.81 -2.46952 -3.35266 0
M  V30 38857 H 3588.4 -0.50646 -5.32296 0
M  V30 38858 H 3588.75 0.69667 -4.10429 0
M  V30 38859 H 3589.28 -0.983636 -3.85447 0
M  V30 38860 H 3586.02 -3.43102 -5.58535 0
M  V30 38861 H 3585.54 -1.72583 -5.74435 0
M  V30 38862 H 3587.22 -2.2177 -6.07805 0
M  V30 38863 N 3587.35 1.46186 -0.588837 0
M  V30 38864 C 3588.6 2.01955 -0.076612 0
M  V30 38865 C 3588.92 1.46205 1.29031 0
M  V30 38866 O 3588.19 0.649076 1.84835 0
M  V30 38867 H 3586.77 0.74657 -0.0253312 0
M  V30 38868 H 3589.43 1.79216 -0.766002 0
M  V30 38869 H 3588.53 3.12098 -0.012225 0
M  V30 38870 N 3588.83 0.32695 1.54171 0
M  V30 38871 C 3590.05 -0.276472 2.05044 0
M  V30 38872 C 3590.47 -1.45519 1.2029 0
M  V30 38873 O 3589.83 -1.80989 0.234356 0
M  V30 38874 C 3589.88 -0.707652 3.54506 0
M  V30 38875 O 3589.6 0.424175 4.36042 0
M  V30 38876 C 3591.1 -1.37353 4.21484 0
M  V30 38877 H 3588.32 -0.0563155 0.668633 0
M  V30 38878 H 3590.86 0.474122 1.98928 0
M  V30 38879 H 3589.02 -1.40822 3.60899 0
M  V30 38880 H 3589.43 0.0837767 5.24433 0
M  V30 38881 H 3590.91 -1.62614 5.27504 0
M  V30 38882 H 3591.38 -2.3219 3.72806 0
M  V30 38883 H 3591.99 -0.715452 4.19239 0
M  V30 38884 N 3590.3 -1.57503 0.0551955 0
M  V30 38885 C 3591.55 -1.92468 -0.616466 0
M  V30 38886 C 3591.87 -0.934582 -1.71145 0
M  V30 38887 O 3591.14 0.0199305 -1.9589 0
M  V30 38888 H 3589.72 -0.710483 -0.230701 0
M  V30 38889 H 3592.39 -1.94594 0.109145 0
M  V30 38890 H 3591.48 -2.93818 -1.05249 0
M  V30 38891 N 3591.78 0.218225 -1.56082 0
M  V30 38892 C 3593.03 0.940265 -1.78895 0
M  V30 38893 C 3593.35 1.84737 -0.624282 0
M  V30 38894 O 3592.62 1.92589 0.358652 0
M  V30 38895 H 3591.2 0.350182 -0.659835 0
M  V30 38896 H 3593.86 0.229282 -1.93547 0
M  V30 38897 H 3592.96 1.54511 -2.71169 0
M  V30 38898 N 3593.26 1.4995 0.485059 0
M  V30 38899 C 3594.51 1.59923 1.23569 0
M  V30 38900 C 3594.83 0.295142 1.92754 0
M  V30 38901 O 3594.1 -0.68655 1.83476 0
M  V30 38902 H 3592.68 0.589272 0.459094 0
M  V30 38903 H 3595.34 1.86658 0.560789 0
M  V30 38904 H 3594.44 2.40336 1.9911 0
M  V30 38905 N 3594.74 -0.737255 1.39292 0
M  V30 38906 C 3595.69 -1.84231 1.34324 0
M  V30 38907 C 3596.67 -1.59326 0.224517 0
M  V30 38908 O 3597.87 -1.70868 0.461862 0
M  V30 38909 C 3594.99 -3.22133 1.18682 0
M  V30 38910 C 3594.08 -3.52874 2.35246 0
M  V30 38911 N 3594.47 -3.54567 3.60716 0
M  V30 38912 C 3592.77 -3.83225 2.28154 0
M  V30 38913 C 3593.47 -3.8304 4.37785 0
M  V30 38914 N 3592.45 -4.00699 3.67343 0
M  V30 38915 H 3596.25 -1.83841 2.29303 0
M  V30 38916 H 3593.76 -0.93539 1.32756 0
M  V30 38917 H 3595.76 -4.01236 1.13206 0
M  V30 38918 H 3594.42 -3.23763 0.246518 0
M  V30 38919 H 3595.43 -3.35933 3.9417 0
M  V30 38920 H 3592.11 -3.92474 1.42373 0
M  V30 38921 H 3593.5 -3.90836 5.46532 0
M  V30 38922 N 3596.22 -1.24431 -0.967199 0
M  V30 38923 C 3597.47 -1.07832 -1.70456 0
M  V30 38924 C 3597.78 0.382746 -1.91819 0
M  V30 38925 O 3598.99 0.668936 -2.6313 0
M  V30 38926 C 3597.44 -1.88131 -3.06814 0
M  V30 38927 C 3597.05 -3.3865 -2.93292 0
M  V30 38928 C 3598.79 -1.80063 -3.84419 0
M  V30 38929 C 3596.7 -4.11291 -4.24963 0
M  V30 38930 H 3595.63 -0.399908 -0.63921 0
M  V30 38931 H 3598.28 -1.48516 -1.07773 0
M  V30 38932 H 3596.66 -1.40261 -3.70328 0
M  V30 38933 H 3597.84 -3.94104 -2.38787 0
M  V30 38934 H 3596.15 -3.47675 -2.29152 0
M  V30 38935 H 3598.75 -2.31637 -4.81921 0
M  V30 38936 H 3599.09 -0.765979 -4.09192 0
M  V30 38937 H 3599.63 -2.25616 -3.27632 0
M  V30 38938 H 3596.36 -5.15117 -4.05382 0
M  V30 38939 H 3595.88 -3.60623 -4.79282 0
M  V30 38940 H 3597.56 -4.18317 -4.93579 0
M  V30 38941 N 3597.7 1.16795 -1.05814 0
M  V30 38942 C 3598.63 2.23201 -0.685817 0
M  V30 38943 C 3599.61 1.67074 0.319399 0
M  V30 38944 O 3600.79 1.93212 0.195601 0
M  V30 38945 C 3597.92 3.47237 -0.0663568 0
M  V30 38946 C 3596.88 4.16225 -0.997016 0
M  V30 38947 C 3596.2 5.34156 -0.241109 0
M  V30 38948 C 3597.5 4.67751 -2.32392 0
M  V30 38949 H 3599.2 2.54601 -1.5754 0
M  V30 38950 H 3596.74 1.22377 -0.75893 0
M  V30 38951 H 3598.69 4.20896 0.20595 0
M  V30 38952 H 3597.42 3.15123 0.858208 0
M  V30 38953 H 3596.08 3.44486 -1.25399 0
M  V30 38954 H 3595.73 4.98294 0.68642 0
M  V30 38955 H 3595.43 5.81253 -0.86129 0
M  V30 38956 H 3596.95 6.10595 0.0237666 0
M  V30 38957 H 3598.36 5.33016 -2.11108 0
M  V30 38958 H 3596.76 5.25451 -2.89864 0
M  V30 38959 H 3597.83 3.84222 -2.95807 0
M  V30 38960 N 3599.17 0.840037 1.33346 0
M  V30 38961 C 3600.1 0.289179 2.31702 0
M  V30 38962 C 3601.08 -0.603731 1.59025 0
M  V30 38963 O 3602.27 -0.527038 1.86912 0
M  V30 38964 C 3599.4 -0.535599 3.43145 0
M  V30 38965 C 3598.35 0.261619 4.272 0
M  V30 38966 C 3597.68 -0.686982 5.30268 0
M  V30 38967 C 3598.98 1.47933 5.00912 0
M  V30 38968 H 3600.67 1.11099 2.78024 0
M  V30 38969 H 3598.22 0.535682 1.33665 0
M  V30 38970 H 3600.17 -0.931279 4.10981 0
M  V30 38971 H 3598.9 -1.39063 2.95515 0
M  V30 38972 H 3597.56 0.638872 3.6099 0
M  V30 38973 H 3597.2 -1.53845 4.78895 0
M  V30 38974 H 3596.9 -0.15767 5.87388 0
M  V30 38975 H 3598.43 -1.08015 6.0097 0
M  V30 38976 H 3599.84 1.15674 5.61509 0
M  V30 38977 H 3598.24 1.94551 5.67688 0
M  V30 38978 H 3599.31 2.24847 4.29618 0
M  V30 38979 N 3600.65 -1.45872 0.596582 0
M  V30 38980 C 3601.58 -2.33211 -0.116188 0
M  V30 38981 C 3602.56 -1.46177 -0.869842 0
M  V30 38982 O 3603.75 -1.7497 -0.842569 0
M  V30 38983 C 3600.88 -3.28698 -1.12139 0
M  V30 38984 C 3599.83 -4.25281 -0.481674 0
M  V30 38985 C 3599.16 -5.10377 -1.59434 0
M  V30 38986 C 3600.46 -5.18956 0.590087 0
M  V30 38987 H 3602.15 -2.93056 0.613057 0
M  V30 38988 H 3599.7 -1.40919 0.296266 0
M  V30 38989 H 3601.65 -3.88662 -1.6285 0
M  V30 38990 H 3600.37 -2.66988 -1.88109 0
M  V30 38991 H 3599.03 -3.666 0.00447364 0
M  V30 38992 H 3598.68 -4.45043 -2.34405 0
M  V30 38993 H 3598.38 -5.75796 -1.17187 0
M  V30 38994 H 3599.91 -5.73207 -2.10394 0
M  V30 38995 H 3601.32 -5.73055 0.167496 0
M  V30 38996 H 3599.72 -5.92792 0.93367 0
M  V30 38997 H 3600.79 -4.62049 1.47101 0
M  V30 38998 N 3602.13 -0.335122 -1.53996 0
M  V30 38999 C 3603.41 0.318814 -1.92984 0
M  V30 39000 C 3603.79 1.68934 -1.26588 0
M  V30 39001 O 3603.13 2.24723 -0.413742 0
M  V30 39002 C 3603.34 0.399507 -3.46706 0
M  V30 39003 C 3604.69 0.654337 -4.19528 0
M  V30 39004 O 3605.72 0.481964 -3.52924 0
M  V30 39005 O 3604.58 0.987661 -5.37501 0
M  V30 39006 H 3601.67 0.184286 -0.806206 0
M  V30 39007 H 3604.22 -0.385683 -1.65259 0
M  V30 39008 H 3602.99 -0.562598 -3.87234 0
M  V30 39009 H 3602.61 1.15112 -3.80572 0
M  V30 39010 N 3603.61 1.57472 -0.0635475 0
M  V30 39011 C 3604.54 2.15279 0.904272 0
M  V30 39012 C 3605.52 1.07766 1.31607 0
M  V30 39013 O 3606.7 1.35764 1.38859 0
M  V30 39014 C 3603.83 2.70777 2.17479 0
M  V30 39015 C 3602.79 3.83384 1.90266 0
M  V30 39016 C 3602.11 4.2545 3.23877 0
M  V30 39017 C 3603.41 5.07985 1.21445 0
M  V30 39018 H 3605.11 2.96401 0.422734 0
M  V30 39019 H 3602.65 1.42578 0.201893 0
M  V30 39020 H 3604.61 3.09861 2.85594 0
M  V30 39021 H 3603.33 1.86865 2.6786 0
M  V30 39022 H 3601.99 3.44791 1.24558 0
M  V30 39023 H 3601.64 3.38471 3.72084 0
M  V30 39024 H 3601.34 5.01352 3.06463 0
M  V30 39025 H 3602.86 4.67144 3.93204 0
M  V30 39026 H 3604.28 5.44437 1.79615 0
M  V30 39027 H 3602.67 5.89111 1.14316 0
M  V30 39028 H 3603.74 4.84519 0.192295 0
M  V30 39029 N 3605.09 -0.209945 1.56195 0
M  V30 39030 C 3606.31 -0.953332 1.84191 0
M  V30 39031 C 3606.74 -1.76684 0.645319 0
M  V30 39032 O 3606.09 -1.76697 -0.405931 0
M  V30 39033 C 3606.14 -1.83728 3.10284 0
M  V30 39034 O 3605.25 -2.93417 2.89794 0
M  V30 39035 H 3604.59 -0.269304 0.606936 0
M  V30 39036 H 3607.12 -0.219747 2.03417 0
M  V30 39037 H 3607.13 -2.24484 3.40692 0
M  V30 39038 H 3605.8 -1.23944 3.97002 0
M  V30 39039 H 3604.38 -2.56523 2.70648 0
M  V30 39040 N 3606.56 -1.50205 -0.4771 0
M  V30 39041 C 3607.79 -1.6464 -1.25304 0
M  V30 39042 C 3608.21 -0.327307 -1.85941 0
M  V30 39043 O 3607.56 0.690058 -1.68951 0
M  V30 39044 C 3607.61 -2.73309 -2.36611 0
M  V30 39045 O 3607.34 -4.00104 -1.78462 0
M  V30 39046 C 3608.84 -2.98664 -3.2759 0
M  V30 39047 H 3606.06 -0.55359 -0.379182 0
M  V30 39048 H 3608.6 -1.96391 -0.570166 0
M  V30 39049 H 3606.76 -2.44269 -3.00685 0
M  V30 39050 H 3607.17 -4.60153 -2.51714 0
M  V30 39051 H 3608.64 -3.78377 -4.01914 0
M  V30 39052 H 3609.12 -2.095 -3.86014 0
M  V30 39053 H 3609.73 -3.29211 -2.69258 0
M  V30 39054 N 3608.04 0.729857 -1.39681 0
M  V30 39055 C 3609.46 1.03608 -1.21398 0
M  V30 39056 C 3609.66 2.01344 -0.0791656 0
M  V30 39057 O 3608.71 2.46039 0.567531 0
M  V30 39058 C 3610.03 1.59345 -2.55009 0
M  V30 39059 C 3611.58 1.714 -2.61899 0
M  V30 39060 C 3612.05 2.30545 -3.95744 0
M  V30 39061 N 3613.54 2.37948 -3.9741 0
M  V30 39062 C 3614.28 2.84661 -4.9775 0
M  V30 39063 N 3613.77 3.31232 -6.08487 0
M  V30 39064 N 3615.57 2.83917 -4.85126 0
M  V30 39065 H 3607.72 0.0817497 -2.12243 0
M  V30 39066 H 3609.98 0.098884 -0.942829 0
M  V30 39067 H 3609.69 0.949946 -3.38628 0
M  V30 39068 H 3609.56 2.58078 -2.75092 0
M  V30 39069 H 3611.95 2.34871 -1.78661 0
M  V30 39070 H 3612.03 0.713057 -2.45661 0
M  V30 39071 H 3611.67 1.677 -4.79415 0
M  V30 39072 H 3611.6 3.31326 -4.09305 0
M  V30 39073 H 3614.09 2.05039 -3.17439 0
M  V30 39074 H 3614.41 3.65402 -6.80956 0
M  V30 39075 H 3612.75 3.29228 -6.12073 0
M  V30 39076 H 3615.94 2.4686 -3.97715 0
M  V30 39077 H 3616.11 3.20007 -5.63471 0
M  V30 39078 N 3609.52 1.24942 0.960587 0
M  V30 39079 C 3610.94 1.01635 1.23055 0
M  V30 39080 C 3611.14 -0.270491 1.99676 0
M  V30 39081 O 3610.19 -0.984782 2.32504 0
M  V30 39082 C 3611.51 2.23584 2.01074 0
M  V30 39083 C 3613.05 2.28283 2.1414 0
M  V30 39084 C 3613.53 3.49872 2.95556 0
M  V30 39085 N 3615.02 3.50232 3.03137 0
M  V30 39086 C 3615.75 4.40974 3.6651 0
M  V30 39087 N 3615.25 5.4198 4.31544 0
M  V30 39088 N 3617.04 4.28669 3.63592 0
M  V30 39089 H 3609.19 2.07625 0.44784 0
M  V30 39090 H 3611.46 0.911488 0.260565 0
M  V30 39091 H 3611.16 3.17078 1.52167 0
M  V30 39092 H 3611.04 2.26276 3.01793 0
M  V30 39093 H 3613.42 1.35316 2.62247 0
M  V30 39094 H 3613.51 2.29613 1.12746 0
M  V30 39095 H 3613.15 4.43157 2.48141 0
M  V30 39096 H 3613.08 3.45786 3.97164 0
M  V30 39097 H 3615.57 2.77163 2.56883 0
M  V30 39098 H 3615.88 6.07441 4.7774 0
M  V30 39099 H 3614.23 5.45858 4.3019 0
M  V30 39100 H 3617.42 3.4899 3.11967 0
M  V30 39101 H 3617.59 4.99585 4.12697 0
M  V30 39102 N 3611 -1.16233 1.06432 0
M  V30 39103 C 3611.93 -2.22834 0.697644 0
M  V30 39104 C 3612.91 -1.67241 -0.310534 0
M  V30 39105 O 3614.09 -1.93313 -0.185351 0
M  V30 39106 C 3611.22 -3.47197 0.0847707 0
M  V30 39107 C 3610.18 -4.15691 1.01908 0
M  V30 39108 C 3609.5 -5.34021 0.269433 0
M  V30 39109 C 3610.8 -4.66512 2.3487 0
M  V30 39110 H 3612.5 -2.53762 1.58888 0
M  V30 39111 H 3610.04 -1.21973 0.765409 0
M  V30 39112 H 3612 -4.21 -0.183626 0
M  V30 39113 H 3610.72 -3.15573 -0.841484 0
M  V30 39114 H 3609.38 -3.43816 1.27224 0
M  V30 39115 H 3609.03 -4.98651 -0.659985 0
M  V30 39116 H 3608.73 -5.80788 0.892103 0
M  V30 39117 H 3610.25 -6.10599 0.00861508 0
M  V30 39118 H 3611.67 -5.31889 2.13932 0
M  V30 39119 H 3610.06 -5.23906 2.92647 0
M  V30 39120 H 3611.13 -3.82647 2.97841 0
M  V30 39121 N 3612.48 -0.847097 -1.32899 0
M  V30 39122 C 3613.73 -0.443057 -1.96774 0
M  V30 39123 C 3614.04 1.00487 -1.67815 0
M  V30 39124 O 3615.24 1.51398 -2.25369 0
M  V30 39125 C 3613.7 -0.74133 -3.52182 0
M  V30 39126 C 3613.31 -2.20448 -3.90009 0
M  V30 39127 C 3615.05 -0.404643 -4.22567 0
M  V30 39128 C 3612.96 -2.44637 -5.3843 0
M  V30 39129 H 3611.89 -0.161945 -0.736403 0
M  V30 39130 H 3614.54 -1.03683 -1.51401 0
M  V30 39131 H 3612.92 -0.0770854 -3.95925 0
M  V30 39132 H 3614.1 -2.90988 -3.57299 0
M  V30 39133 H 3612.41 -2.50494 -3.32628 0
M  V30 39134 H 3615.01 -0.562888 -5.31729 0
M  V30 39135 H 3615.35 0.6531 -4.11145 0
M  V30 39136 H 3615.88 -1.02446 -3.84382 0
M  V30 39137 H 3612.62 -3.49007 -5.54864 0
M  V30 39138 H 3612.14 -1.78666 -5.72572 0
M  V30 39139 H 3613.82 -2.28204 -6.05419 0
M  V30 39140 N 3613.95 1.45554 -0.604309 0
M  V30 39141 C 3615.37 1.57339 -0.267692 0
M  V30 39142 C 3615.57 1.59618 1.22981 0
M  V30 39143 O 3614.63 1.52472 2.01268 0
M  V30 39144 C 3615.94 2.85762 -0.935973 0
M  V30 39145 C 3617.49 2.99431 -0.911584 0
M  V30 39146 C 3617.96 4.3062 -1.55981 0
M  V30 39147 N 3619.45 4.37371 -1.52515 0
M  V30 39148 C 3620.19 5.37542 -1.9959 0
M  V30 39149 N 3619.68 6.44268 -2.54735 0
M  V30 39150 N 3621.48 5.28879 -1.90377 0
M  V30 39151 H 3613.63 1.42318 -1.57668 0
M  V30 39152 H 3615.89 0.680234 -0.660292 0
M  V30 39153 H 3615.6 2.89968 -1.99027 0
M  V30 39154 H 3615.47 3.74418 -0.45726 0
M  V30 39155 H 3617.86 2.94795 0.134155 0
M  V30 39156 H 3617.94 2.12195 -1.42853 0
M  V30 39157 H 3617.58 4.36015 -2.60486 0
M  V30 39158 H 3617.51 5.16668 -1.01791 0
M  V30 39159 H 3620 3.60851 -1.12227 0
M  V30 39160 H 3620.32 7.16946 -2.88458 0
M  V30 39161 H 3618.66 6.45028 -2.58773 0
M  V30 39162 H 3621.85 4.44407 -1.47037 0
M  V30 39163 H 3622.03 6.06798 -2.27378 0
M  V30 39164 N 3615.43 0.343284 1.53816 0
M  V30 39165 C 3616.68 -0.253686 2.01207 0
M  V30 39166 C 3617.01 -1.50223 1.23072 0
M  V30 39167 O 3616.29 -1.91878 0.318274 0
M  V30 39168 C 3616.57 -0.568088 3.55591 0
M  V30 39169 C 3616.42 0.692535 4.44437 0
M  V30 39170 C 3617.74 -1.37781 4.17977 0
M  V30 39171 H 3614.86 -0.0907299 0.731394 0
M  V30 39172 H 3617.5 0.463769 1.84253 0
M  V30 39173 H 3615.65 -1.17931 3.70168 0
M  V30 39174 H 3617.32 1.3305 4.41696 0
M  V30 39175 H 3615.57 1.31748 4.1331 0
M  V30 39176 H 3616.24 0.427812 5.5034 0
M  V30 39177 H 3618.71 -0.860971 4.07095 0
M  V30 39178 H 3617.59 -1.56654 5.26071 0
M  V30 39179 H 3617.85 -2.37983 3.72581 0
M  V30 39180 N 3616.91 -1.57436 0.0718977 0
M  V30 39181 C 3618.16 -1.9267 -0.596765 0
M  V30 39182 C 3618.47 -0.953906 -1.70763 0
M  V30 39183 O 3619.68 -1.19907 -2.43587 0
M  V30 39184 C 3618.13 -3.42262 -1.11285 0
M  V30 39185 C 3617.74 -4.47988 -0.0329894 0
M  V30 39186 C 3619.49 -3.86497 -1.75557 0
M  V30 39187 C 3617.39 -5.88713 -0.563127 0
M  V30 39188 H 3616.32 -0.719118 -0.226683 0
M  V30 39189 H 3618.97 -1.82933 0.144149 0
M  V30 39190 H 3617.36 -3.47073 -1.90673 0
M  V30 39191 H 3618.53 -4.54794 0.741581 0
M  V30 39192 H 3616.85 -4.13222 0.513511 0
M  V30 39193 H 3619.44 -4.89018 -2.16253 0
M  V30 39194 H 3619.79 -3.2387 -2.61561 0
M  V30 39195 H 3620.32 -3.8429 -1.02791 0
M  V30 39196 H 3617.06 -6.54985 0.259747 0
M  V30 39197 H 3616.58 -5.85426 -1.30522 0
M  V30 39198 H 3618.26 -6.38595 -1.0395 0
M  V30 39199 N 3618.39 0.201658 -1.56305 0
M  V30 39200 C 3619.62 0.938071 -1.84076 0
M  V30 39201 C 3620.03 1.77633 -0.651408 0
M  V30 39202 O 3619.37 1.79529 0.389247 0
M  V30 39203 C 3619.43 1.88919 -3.05859 0
M  V30 39204 C 3619.1 1.23352 -4.40038 0
M  V30 39205 C 3620.09 0.613647 -5.16266 0
M  V30 39206 C 3617.78 1.23934 -4.86771 0
M  V30 39207 C 3619.77 0.00833365 -6.37399 0
M  V30 39208 C 3617.46 0.630189 -6.07842 0
M  V30 39209 C 3618.46 0.0157598 -6.82998 0
M  V30 39210 O 3618.14 -0.583861 -8.01777 0
M  V30 39211 H 3617.88 0.279534 -0.615497 0
M  V30 39212 H 3620.43 0.215902 -2.04262 0
M  V30 39213 H 3618.66 2.65088 -2.81541 0
M  V30 39214 H 3620.35 2.49283 -3.20332 0
M  V30 39215 H 3621.12 0.60134 -4.81258 0
M  V30 39216 H 3616.99 1.70698 -4.28233 0
M  V30 39217 H 3620.54 -0.471863 -6.96002 0
M  V30 39218 H 3616.44 0.639976 -6.4232 0
M  V30 39219 H 3617.2 -0.480123 -8.17091 0
M  V30 39220 N 3619.87 1.50456 0.469128 0
M  V30 39221 C 3620.81 1.69992 1.58762 0
M  V30 39222 C 3621.81 0.565798 1.59672 0
M  V30 39223 O 3623.01 0.746349 1.63798 0
M  V30 39224 H 3619.39 0.536586 0.526858 0
M  V30 39225 H 3621.36 2.63813 1.39447 0
M  V30 39226 C 3620.11 1.81307 2.96687 0
M  V30 39227 H 3619.43 2.67966 2.96706 0
M  V30 39228 H 3620.87 1.99001 3.74399 0
M  V30 39229 C 3619.33 0.565144 3.32126 0
M  V30 39230 O 3619.86 -0.294803 4.00617 0
M  V30 39231 N 3618.07 0.418587 2.87569 0
M  V30 39232 H 3617.61 1.11942 2.32006 0
M  V30 39233 H 3617.57 -0.415221 3.11646 0
M  V30 39234 N 3621.34 -0.722439 1.40066 0
M  V30 39235 C 3622.59 -1.48222 1.37973 0
M  V30 39236 C 3622.92 -1.94489 -0.0202246 0
M  V30 39237 O 3622.17 -1.68015 -1.00347 0
M  V30 39238 C 3622.47 -2.72755 2.30954 0
M  V30 39239 C 3622.14 -2.45289 3.78344 0
M  V30 39240 C 3620.8 -2.37508 4.18501 0
M  V30 39241 C 3623.15 -2.22092 4.71513 0
M  V30 39242 C 3620.48 -2.04588 5.49873 0
M  V30 39243 C 3622.83 -1.90686 6.03176 0
M  V30 39244 C 3621.5 -1.81383 6.42383 0
M  V30 39245 H 3620.77 -0.542383 0.504878 0
M  V30 39246 H 3623.41 -0.828119 1.72669 0
M  V30 39247 H 3621.72 -3.42969 1.89419 0
M  V30 39248 H 3623.42 -3.30823 2.26621 0
M  V30 39249 H 3620.01 -2.52229 3.46524 0
M  V30 39250 H 3624.19 -2.27063 4.41312 0
M  V30 39251 H 3619.45 -1.95918 5.7916 0
M  V30 39252 H 3623.62 -1.71749 6.74889 0
M  V30 39253 H 3621.25 -1.55641 7.44097 0
M  V30 39254 N 3622.82 -1.2545 -0.953947 0
M  V30 39255 C 3624.06 -1.11444 -1.71346 0
M  V30 39256 C 3624.43 0.338715 -1.88989 0
M  V30 39257 O 3625.63 0.600606 -2.62004 0
M  V30 39258 C 3623.9 -1.84872 -3.05871 0
M  V30 39259 S 3625.46 -1.86766 -3.97069 0
M  V30 39260 H 3622.28 -0.39832 -0.58895 0
M  V30 39261 H 3624.88 -1.58984 -1.13773 0
M  V30 39262 H 3623.58 -2.89691 -2.90701 0
M  V30 39263 H 3623.11 -1.37722 -3.68505 0
M  V30 39264 H 3625.13 -0.945195 -4.87114 0
M  V30 39265 N 3624.3 1.15667 -1.07047 0
M  V30 39266 C 3625.25 2.22368 -0.682299 0
M  V30 39267 C 3626.24 1.66624 0.305419 0
M  V30 39268 O 3627.45 1.79201 0.169463 0
M  V30 39269 H 3623.82 0.724209 -0.202548 0
M  V30 39270 H 3625.8 2.5239 -1.59192 0
M  V30 39271 C 3624.54 3.47576 -0.0928742 0
M  V30 39272 H 3623.87 3.90789 -0.844033 0
M  V30 39273 H 3625.31 4.23765 0.141106 0
M  V30 39274 C 3623.77 3.16093 1.16562 0
M  V30 39275 O 3624.3 3.32603 2.25251 0
M  V30 39276 N 3622.5 2.70162 1.07057 0
M  V30 39277 H 3622.05 2.56927 0.186046 0
M  V30 39278 H 3622.01 2.49471 1.91342 0
M  V30 39279 N 3625.78 0.854133 1.32447 0
M  V30 39280 C 3627 0.470342 2.01996 0
M  V30 39281 C 3627.43 -0.925196 1.63773 0
M  V30 39282 O 3626.79 -1.60765 0.838117 0
M  V30 39283 C 3626.84 0.616363 3.55293 0
M  V30 39284 O 3625.94 -0.351061 4.10903 0
M  V30 39285 H 3625.28 0.18909 0.636507 0
M  V30 39286 H 3627.81 1.15318 1.69006 0
M  V30 39287 H 3627.82 0.503695 4.04879 0
M  V30 39288 H 3626.5 1.63402 3.82456 0
M  V30 39289 H 3625.07 -0.194675 3.72391 0
M  V30 39290 N 3627.26 -1.45231 0.61202 0
M  V30 39291 C 3628.5 -2.02506 0.109108 0
M  V30 39292 C 3628.84 -1.47883 -1.25874 0
M  V30 39293 O 3628.11 -0.655272 -1.8313 0
M  V30 39294 C 3628.39 -3.60022 0.074992 0
M  V30 39295 C 3628.25 -4.24969 1.47382 0
M  V30 39296 C 3629.57 -4.35845 -0.610526 0
M  V30 39297 H 3626.69 -0.735852 0.041123 0
M  V30 39298 H 3629.33 -1.73033 0.78484 0
M  V30 39299 H 3627.48 -3.85263 -0.500443 0
M  V30 39300 H 3629.15 -4.10898 2.09667 0
M  V30 39301 H 3627.39 -3.83199 2.03325 0
M  V30 39302 H 3628.06 -5.33895 1.40215 0
M  V30 39303 H 3630.54 -4.15923 -0.121372 0
M  V30 39304 H 3629.42 -5.45572 -0.603518 0
M  V30 39305 H 3629.68 -4.09041 -1.67743 0
M  V30 39306 N 3628.74 -0.351436 -1.53632 0
M  V30 39307 C 3630.15 0.000186461 -1.596 0
M  V30 39308 C 3630.35 1.48027 -1.36712 0
M  V30 39309 O 3629.41 2.24004 -1.16527 0
M  V30 39310 C 3630.72 -0.443066 -2.97418 0
M  V30 39311 C 3632.27 -0.39608 -3.10484 0
M  V30 39312 C 3632.74 -0.814922 -4.50692 0
M  V30 39313 N 3634.23 -0.76942 -4.56765 0
M  V30 39314 C 3634.97 -1.06536 -5.63416 0
M  V30 39315 N 3634.47 -1.42986 -6.77884 0
M  V30 39316 N 3636.26 -0.989084 -5.5333 0
M  V30 39317 H 3628.41 -1.31545 -1.66763 0
M  V30 39318 H 3630.67 -0.536754 -0.781409 0
M  V30 39319 H 3630.38 -1.47535 -3.19259 0
M  V30 39320 H 3630.25 0.177659 -3.76781 0
M  V30 39321 H 3632.64 0.627042 -2.88361 0
M  V30 39322 H 3632.72 -1.05211 -2.33161 0
M  V30 39323 H 3632.36 -1.83609 -4.73551 0
M  V30 39324 H 3632.29 -0.136286 -5.26424 0
M  V30 39325 H 3634.79 -0.500689 -3.74568 0
M  V30 39326 H 3635.1 -1.64032 -7.55191 0
M  V30 39327 H 3633.44 -1.46839 -6.79311 0
M  V30 39328 H 3636.63 -0.703607 -4.62782 0
M  V30 39329 H 3636.81 -1.22306 -6.36353 0
M  V30 39330 N 3630.21 1.57396 -0.0802459 0
M  V30 39331 C 3631.46 1.94095 0.587797 0
M  V30 39332 C 3631.79 0.961123 1.68749 0
M  V30 39333 O 3631.07 -0.0082938 1.94498 0
M  V30 39334 C 3631.35 3.41011 1.15686 0
M  V30 39335 C 3631.2 4.49756 0.0632421 0
M  V30 39336 C 3632.52 3.88922 2.0598 0
M  V30 39337 H 3629.64 0.70579 0.212202 0
M  V30 39338 H 3632.28 1.89423 -0.147935 0
M  V30 39339 H 3630.43 3.45123 1.78387 0
M  V30 39340 H 3632.11 4.57762 -0.57027 0
M  V30 39341 H 3630.35 4.29559 -0.605078 0
M  V30 39342 H 3631.02 5.49713 0.50196 0
M  V30 39343 H 3633.5 3.86869 1.53203 0
M  V30 39344 H 3632.37 4.92315 2.42729 0
M  V30 39345 H 3632.63 3.27352 2.97142 0
M  V30 39346 N 3631.69 -0.193366 1.56409 0
M  V30 39347 C 3632.62 -1.26773 1.89747 0
M  V30 39348 C 3633.6 -1.43864 0.757756 0
M  V30 39349 O 3634.79 -1.59226 1.00893 0
M  V30 39350 C 3631.91 -2.63408 2.12917 0
M  V30 39351 C 3630.96 -2.63177 3.35619 0
M  V30 39352 S 3631.79 -2.14439 4.90689 0
M  V30 39353 C 3632.95 -3.52895 5.16929 0
M  V30 39354 H 3633.18 -0.983056 2.80577 0
M  V30 39355 H 3630.71 -0.396939 1.4921 0
M  V30 39356 H 3632.67 -3.42059 2.26949 0
M  V30 39357 H 3631.33 -2.89086 1.22835 0
M  V30 39358 H 3630.53 -3.63649 3.48963 0
M  V30 39359 H 3630.13 -1.92609 3.2059 0
M  V30 39360 H 3632.42 -4.48769 5.07556 0
M  V30 39361 H 3633.36 -3.44444 6.18679 0
M  V30 39362 H 3633.77 -3.47887 4.44561 0
M  V30 39363 N 3633.17 -1.50702 -0.461142 0
M  V30 39364 C 3634.1 -1.64943 -1.57699 0
M  V30 39365 C 3635.08 -0.497339 -1.54807 0
M  V30 39366 O 3636.26 -0.718134 -1.74284 0
M  V30 39367 C 3633.39 -1.64117 -2.96282 0
M  V30 39368 C 3632.44 -2.85007 -3.17291 0
M  V30 39369 S 3633.27 -4.46172 -2.96126 0
M  V30 39370 C 3634.43 -4.48054 -4.37034 0
M  V30 39371 H 3634.66 -2.59329 -1.45381 0
M  V30 39372 H 3632.19 -1.40089 -0.649184 0
M  V30 39373 H 3634.15 -1.64325 -3.76175 0
M  V30 39374 H 3632.81 -0.709496 -3.05982 0
M  V30 39375 H 3632 -2.80761 -4.18556 0
M  V30 39376 H 3631.61 -2.82418 -2.45186 0
M  V30 39377 H 3633.9 -4.22229 -5.29839 0
M  V30 39378 H 3634.84 -5.49731 -4.4632 0
M  V30 39379 H 3635.25 -3.77645 -4.19577 0
M  V30 39380 N 3634.65 0.715001 -1.40447 0
M  V30 39381 C 3635.88 1.50409 -1.42073 0
M  V30 39382 C 3636.29 1.88789 -0.0205879 0
M  V30 39383 O 3635.65 1.55481 0.955608 0
M  V30 39384 C 3635.7 2.77905 -2.31195 0
M  V30 39385 O 3635.42 2.41148 -3.65759 0
M  V30 39386 C 3636.92 3.71796 -2.41418 0
M  V30 39387 H 3634.14 0.464155 -0.484562 0
M  V30 39388 H 3636.68 0.881932 -1.84505 0
M  V30 39389 H 3634.84 3.36404 -1.92123 0
M  V30 39390 H 3635.25 3.2319 -4.13096 0
M  V30 39391 H 3636.73 4.58093 -3.07984 0
M  V30 39392 H 3637.2 4.14943 -1.43941 0
M  V30 39393 H 3637.81 3.19208 -2.81045 0
M  V30 39394 N 3636.13 1.25954 0.947281 0
M  V30 39395 C 3637.09 1.0705 2.02665 0
M  V30 39396 C 3638.09 0.0208409 1.60786 0
M  V30 39397 O 3639.28 0.263699 1.72193 0
M  V30 39398 C 3636.41 0.626943 3.35085 0
M  V30 39399 H 3637.6 2.02874 2.20867 0
M  V30 39400 H 3635.16 1.08464 1.1254 0
M  V30 39401 H 3635.89 -0.333564 3.2258 0
M  V30 39402 H 3635.68 1.38479 3.66832 0
M  V30 39403 H 3637.17 0.516337 4.14396 0
M  V30 39404 N 3637.6 -1.15097 1.07659 0
M  V30 39405 C 3638.54 -2.19563 0.657637 0
M  V30 39406 C 3639.55 -1.6017 -0.291432 0
M  V30 39407 O 3640.74 -1.78319 -0.0802668 0
M  V30 39408 C 3637.84 -3.38857 -0.0541625 0
M  V30 39409 C 3637.01 -4.27789 0.911878 0
M  V30 39410 C 3636.07 -5.25667 0.236802 0
M  V30 39411 O 3635.1 -5.62375 0.87883 0
M  V30 39412 N 3636.3 -5.71534 -1.01631 0
M  V30 39413 H 3639.06 -2.56123 1.55631 0
M  V30 39414 H 3636.62 -1.30243 0.96168 0
M  V30 39415 H 3638.62 -4.0139 -0.516533 0
M  V30 39416 H 3637.19 -3.00685 -0.854819 0
M  V30 39417 H 3636.41 -3.62307 1.55329 0
M  V30 39418 H 3637.69 -4.84077 1.56675 0
M  V30 39419 H 3637.09 -5.43828 -1.55781 0
M  V30 39420 H 3635.65 -6.36092 -1.42231 0
M  V30 39421 N 3639.08 -0.861145 -1.31993 0
M  V30 39422 C 3640.01 -0.326004 -2.31213 0
M  V30 39423 C 3640.99 0.578355 -1.59966 0
M  V30 39424 O 3642.18 0.497235 -1.87726 0
M  V30 39425 C 3639.31 0.48094 -3.43954 0
M  V30 39426 C 3638.26 -0.329549 -4.26729 0
M  V30 39427 C 3637.59 0.602534 -5.31294 0
M  V30 39428 C 3638.89 -1.55883 -4.98495 0
M  V30 39429 H 3640.58 -1.15508 -2.76221 0
M  V30 39430 H 3638.13 -0.556879 -1.32796 0
M  V30 39431 H 3640.08 0.865778 -4.1241 0
M  V30 39432 H 3638.81 1.34344 -2.9769 0
M  V30 39433 H 3637.46 -0.696222 -3.59928 0
M  V30 39434 H 3637.11 1.46207 -4.81282 0
M  V30 39435 H 3636.81 0.0642012 -5.87565 0
M  V30 39436 H 3638.34 0.984406 -6.02612 0
M  V30 39437 H 3639.75 -1.24593 -5.59598 0
M  V30 39438 H 3638.15 -2.03558 -5.64521 0
M  V30 39439 H 3639.22 -2.31653 -4.25987 0
M  V30 39440 N 3640.56 1.44905 -0.619713 0
M  V30 39441 C 3641.81 2.01747 -0.119432 0
M  V30 39442 C 3642.13 1.48909 1.25901 0
M  V30 39443 O 3641.4 0.688137 1.83416 0
M  V30 39444 H 3639.98 0.745865 -0.0411613 0
M  V30 39445 H 3642.64 1.77551 -0.803844 0
M  V30 39446 H 3641.74 3.12001 -0.0784228 0
M  V30 39447 N 3642.04 0.359579 1.53443 0
M  V30 39448 C 3643.26 -0.23554 2.06058 0
M  V30 39449 C 3643.69 -1.42158 1.23177 0
M  V30 39450 O 3643.05 -1.79577 0.24937 0
M  V30 39451 C 3643.09 -0.612963 3.55352 0
M  V30 39452 O 3642.2 -1.71098 3.75232 0
M  V30 39453 H 3641.54 -0.035715 0.663039 0
M  V30 39454 H 3644.07 0.518443 1.97923 0
M  V30 39455 H 3644.08 -0.885652 3.98272 0
M  V30 39456 H 3642.75 0.254316 4.15122 0
M  V30 39457 H 3641.33 -1.43431 3.44212 0
M  V30 39458 N 3643.52 -1.57351 0.0885919 0
M  V30 39459 C 3644.45 -2.16691 -0.869908 0
M  V30 39460 C 3645.43 -1.09846 -1.29876 0
M  V30 39461 O 3646.61 -1.37956 -1.36681 0
M  V30 39462 C 3643.74 -2.74203 -2.13143 0
M  V30 39463 C 3642.7 -3.86362 -1.84142 0
M  V30 39464 C 3642.02 -4.30549 -3.17068 0
M  V30 39465 C 3643.32 -5.09852 -1.13348 0
M  V30 39466 H 3645.02 -2.97036 -0.375526 0
M  V30 39467 H 3642.56 -1.42881 -0.179185 0
M  V30 39468 H 3644.52 -3.14365 -2.80628 0
M  V30 39469 H 3643.24 -1.91103 -2.64853 0
M  V30 39470 H 3641.9 -3.46729 -1.19057 0
M  V30 39471 H 3641.55 -3.44348 -3.66652 0
M  V30 39472 H 3641.25 -5.06164 -2.98448 0
M  V30 39473 H 3642.77 -4.7334 -3.85722 0
M  V30 39474 H 3644.18 -5.47225 -1.70931 0
M  V30 39475 H 3642.58 -5.90855 -1.0493 0
M  V30 39476 H 3643.65 -4.84763 -0.115188 0
M  V30 39477 N 3644.99 0.185069 -1.5651 0
M  V30 39478 C 3645.94 1.2293 -1.95338 0
M  V30 39479 C 3646.91 1.44711 -0.815346 0
M  V30 39480 O 3648.1 1.57679 -1.07434 0
M  V30 39481 C 3645.24 2.56677 -2.30675 0
M  V30 39482 C 3644.35 2.4239 -3.5759 0
M  V30 39483 C 3643.48 3.68909 -3.82203 0
M  V30 39484 C 3642.52 3.49498 -5.02511 0
M  V30 39485 N 3641.66 4.68053 -5.23327 0
M  V30 39486 H 3646.5 0.89118 -2.84362 0
M  V30 39487 H 3644.04 0.428665 -1.40716 0
M  V30 39488 H 3646 3.34611 -2.49182 0
M  V30 39489 H 3644.63 2.88512 -1.44778 0
M  V30 39490 H 3643.68 1.55703 -3.47075 0
M  V30 39491 H 3644.99 2.23986 -4.45681 0
M  V30 39492 H 3644.14 4.55281 -4.01004 0
M  V30 39493 H 3642.88 3.90279 -2.92462 0
M  V30 39494 H 3641.89 2.61511 -4.83624 0
M  V30 39495 H 3643.11 3.29564 -5.93771 0
M  V30 39496 H 3641.06 4.89667 -4.36535 0
M  V30 39497 H 3640.98 4.52511 -6.05616 0
M  V30 39498 H 3642.24 5.55747 -5.46594 0
M  V30 39499 N 3646.47 1.50945 0.453144 0
M  V30 39500 C 3647.42 1.71667 1.5695 0
M  V30 39501 C 3648.41 0.582701 1.59063 0
M  V30 39502 O 3649.62 0.76368 1.62997 0
M  V30 39503 H 3646 0.542144 0.521137 0
M  V30 39504 H 3647.97 2.65277 1.36641 0
M  V30 39505 C 3646.72 1.84443 2.94747 0
M  V30 39506 H 3646.04 2.71098 2.93847 0
M  V30 39507 H 3647.48 2.02961 3.72267 0
M  V30 39508 C 3645.94 0.600339 3.31508 0
M  V30 39509 O 3646.47 -0.252295 4.00907 0
M  V30 39510 N 3644.67 0.449064 2.87109 0
M  V30 39511 H 3644.22 1.14396 2.30806 0
M  V30 39512 H 3644.18 -0.382144 3.12069 0
M  V30 39513 N 3647.95 -0.707543 1.40825 0
M  V30 39514 C 3649.2 -1.46968 1.39744 0
M  V30 39515 C 3649.53 -1.942 0.00234607 0
M  V30 39516 O 3648.8 -1.68714 -0.967768 0
M  V30 39517 C 3649.09 -2.69007 2.3939 0
M  V30 39518 C 3648.94 -2.27617 3.87957 0
M  V30 39519 C 3650.26 -3.71182 2.36457 0
M  V30 39520 H 3647.38 -0.533082 0.508913 0
M  V30 39521 H 3650.02 -0.806857 1.72017 0
M  V30 39522 H 3648.17 -3.25559 2.11999 0
M  V30 39523 H 3649.84 -1.76485 4.26205 0
M  V30 39524 H 3648.09 -1.5953 4.03401 0
M  V30 39525 H 3648.76 -3.15131 4.53207 0
M  V30 39526 H 3651.23 -3.24277 2.60736 0
M  V30 39527 H 3650.11 -4.54199 3.08212 0
M  V30 39528 H 3650.37 -4.20044 1.37898 0
M  V30 39529 N 3649.43 -1.26454 -0.940588 0
M  V30 39530 C 3650.36 -1.02384 -2.03943 0
M  V30 39531 C 3651.34 0.0515934 -1.62518 0
M  V30 39532 O 3652.52 -0.0909431 -1.8828 0
M  V30 39533 C 3649.65 -0.550523 -3.34196 0
M  V30 39534 C 3648.7 -1.6186 -3.94593 0
M  V30 39535 S 3649.53 -3.2077 -4.28797 0
M  V30 39536 C 3650.69 -2.75208 -5.62149 0
M  V30 39537 H 3650.92 -1.95423 -2.24047 0
M  V30 39538 H 3648.45 -1.10141 -1.08205 0
M  V30 39539 H 3650.41 -0.284103 -4.09516 0
M  V30 39540 H 3649.07 0.359594 -3.12035 0
M  V30 39541 H 3648.26 -1.23844 -4.88548 0
M  V30 39542 H 3647.87 -1.83643 -3.25809 0
M  V30 39543 H 3650.16 -2.19709 -6.40886 0
M  V30 39544 H 3651.1 -3.67857 -6.05051 0
M  V30 39545 H 3651.51 -2.14754 -5.22054 0
M  V30 39546 N 3650.91 1.14525 -1.08268 0
M  V30 39547 C 3651.84 2.21696 -0.733007 0
M  V30 39548 C 3652.82 1.67714 0.283888 0
M  V30 39549 O 3654 1.93584 0.154573 0
M  V30 39550 C 3651.13 3.47018 -0.139996 0
M  V30 39551 C 3650.09 4.14017 -1.08508 0
M  V30 39552 C 3649.41 5.33525 -0.354357 0
M  V30 39553 C 3650.71 4.62716 -2.42262 0
M  V30 39554 H 3652.41 2.51202 -1.62905 0
M  V30 39555 H 3649.95 1.2074 -0.784717 0
M  V30 39556 H 3651.91 4.21239 0.116626 0
M  V30 39557 H 3650.63 3.16872 0.791173 0
M  V30 39558 H 3649.29 3.41749 -1.32678 0
M  V30 39559 H 3648.94 4.99638 0.58057 0
M  V30 39560 H 3648.64 5.79296 -0.984389 0
M  V30 39561 H 3650.16 6.10508 -0.105755 0
M  V30 39562 H 3651.57 5.28418 -2.22366 0
M  V30 39563 H 3649.97 5.19184 -3.00944 0
M  V30 39564 H 3651.04 3.77861 -3.0389 0
M  V30 39565 N 3652.39 0.868133 1.31534 0
M  V30 39566 C 3653.63 0.478863 1.97065 0
M  V30 39567 C 3653.96 -0.965991 1.6847 0
M  V30 39568 O 3653.24 -1.67995 0.980195 0
M  V30 39569 C 3653.52 0.734375 3.52532 0
M  V30 39570 C 3653.38 2.22863 3.90707 0
M  V30 39571 C 3654.69 0.199636 4.39647 0
M  V30 39572 H 3651.81 0.175457 0.71581 0
M  V30 39573 H 3654.46 1.08904 1.55692 0
M  V30 39574 H 3652.61 0.21503 3.87904 0
M  V30 39575 H 3654.28 2.81509 3.65446 0
M  V30 39576 H 3652.52 2.70191 3.39381 0
M  V30 39577 H 3653.19 2.35806 4.99099 0
M  V30 39578 H 3655.67 0.643926 4.11087 0
M  V30 39579 H 3654.54 0.407879 5.47382 0
M  V30 39580 H 3654.8 -0.898338 4.32877 0
M  V30 39581 N 3653.86 -1.44574 0.627389 0
M  V30 39582 C 3654.79 -2.33405 -0.066694 0
M  V30 39583 C 3655.77 -1.47989 -0.83864 0
M  V30 39584 O 3656.96 -1.76718 -0.805265 0
M  V30 39585 C 3654.09 -3.31002 -1.05142 0
M  V30 39586 C 3653.04 -4.26207 -0.391358 0
M  V30 39587 C 3652.37 -5.13644 -1.48572 0
M  V30 39588 C 3653.67 -5.17588 0.700033 0
M  V30 39589 H 3655.36 -2.9169 0.67508 0
M  V30 39590 H 3652.91 -1.40259 0.326091 0
M  V30 39591 H 3654.86 -3.92028 -1.54569 0
M  V30 39592 H 3653.59 -2.70918 -1.82403 0
M  V30 39593 H 3652.25 -3.66508 0.0822339 0
M  V30 39594 H 3651.89 -4.49915 -2.24912 0
M  V30 39595 H 3651.59 -5.78152 -1.04947 0
M  V30 39596 H 3653.12 -5.77541 -1.98188 0
M  V30 39597 H 3654.53 -5.72571 0.289012 0
M  V30 39598 H 3652.93 -5.90678 1.0592 0
M  V30 39599 H 3654 -4.58825 1.56869 0
M  V30 39600 N 3655.34 -0.367711 -1.5325 0
M  V30 39601 C 3656.59 0.220878 -2.00889 0
M  V30 39602 C 3656.91 1.49108 -1.25665 0
M  V30 39603 O 3656.18 1.92364 -0.370525 0
M  V30 39604 H 3654.76 0.0846102 -0.742193 0
M  V30 39605 H 3657.42 -0.494435 -1.88524 0
M  V30 39606 H 3656.52 0.44636 -3.08892 0
M  V30 39607 N 3656.82 1.57302 -0.0969353 0
M  V30 39608 C 3658.05 1.98471 0.573837 0
M  V30 39609 C 3658.46 0.974923 1.62148 0
M  V30 39610 O 3657.8 -0.043455 1.83649 0
M  V30 39611 C 3657.86 3.36015 1.27804 0
M  V30 39612 C 3657.53 4.5541 0.380942 0
M  V30 39613 C 3658.52 5.1857 -0.371651 0
M  V30 39614 C 3656.21 5.01413 0.298461 0
M  V30 39615 C 3658.2 6.26104 -1.19468 0
M  V30 39616 C 3655.89 6.08813 -0.528223 0
M  V30 39617 C 3656.89 6.71023 -1.27344 0
M  V30 39618 O 3656.58 7.76352 -2.08644 0
M  V30 39619 H 3656.31 0.65719 0.158358 0
M  V30 39620 H 3658.86 2.04666 -0.173451 0
M  V30 39621 H 3657.09 3.26508 2.07194 0
M  V30 39622 H 3658.78 3.6162 1.84353 0
M  V30 39623 H 3659.55 4.83959 -0.317671 0
M  V30 39624 H 3655.43 4.52751 0.868167 0
M  V30 39625 H 3658.97 6.74592 -1.77685 0
M  V30 39626 H 3654.87 6.42856 -0.583676 0
M  V30 39627 H 3655.63 7.93348 -2.01347 0
M  V30 39628 N 3658.3 -0.176766 1.56606 0
M  V30 39629 C 3659.25 -1.23829 1.96899 0
M  V30 39630 C 3660.24 -1.46125 0.856956 0
M  V30 39631 O 3661.45 -1.4677 1.04205 0
M  V30 39632 H 3657.82 -0.41613 0.626371 0
M  V30 39633 H 3659.79 -0.871557 2.85388 0
M  V30 39634 C 3658.54 -2.57141 2.34038 0
M  V30 39635 H 3657.86 -2.40805 3.19144 0
M  V30 39636 H 3659.3 -3.30117 2.6608 0
M  V30 39637 C 3657.76 -3.15493 1.18176 0
M  V30 39638 O 3658.29 -3.98982 0.466518 0
M  V30 39639 N 3656.5 -2.74503 0.953753 0
M  V30 39640 H 3656.05 -2.06712 1.53713 0
M  V30 39641 H 3656 -3.13882 0.180362 0
M  V30 39642 N 3659.78 -1.51183 -0.445132 0
M  V30 39643 C 3661.19 -1.39185 -0.780999 0
M  V30 39644 C 3661.39 -0.468111 -1.95987 0
M  V30 39645 O 3660.45 0.0796379 -2.52374 0
M  V30 39646 C 3661.76 -2.81069 -1.06869 0
M  V30 39647 C 3663.31 -2.90165 -1.17359 0
M  V30 39648 C 3663.78 -4.32939 -1.49426 0
M  V30 39649 N 3665.27 -4.36009 -1.56366 0
M  V30 39650 C 3666.01 -5.43503 -1.82734 0
M  V30 39651 N 3665.51 -6.61169 -2.06947 0
M  V30 39652 N 3667.3 -5.30975 -1.84451 0
M  V30 39653 H 3659.45 -2.09799 0.331384 0
M  V30 39654 H 3661.71 -0.944107 0.0858268 0
M  V30 39655 H 3661.42 -3.50621 -0.275245 0
M  V30 39656 H 3661.29 -3.19917 -1.99833 0
M  V30 39657 H 3663.68 -2.20815 -1.95767 0
M  V30 39658 H 3663.76 -2.54825 -0.223135 0
M  V30 39659 H 3663.4 -5.02835 -0.715485 0
M  V30 39660 H 3663.33 -4.65786 -2.45664 0
M  V30 39661 H 3665.83 -3.51174 -1.39589 0
M  V30 39662 H 3666.14 -7.38889 -2.26414 0
M  V30 39663 H 3664.48 -6.64299 -2.04285 0
M  V30 39664 H 3667.67 -4.38037 -1.65049 0
M  V30 39665 H 3667.85 -6.14831 -2.04664 0
M  V30 39666 N 3661.25 0.700065 -1.41198 0
M  V30 39667 C 3662.2 1.81405 -1.42692 0
M  V30 39668 C 3663.17 1.63691 -0.281849 0
M  V30 39669 O 3664.36 1.84606 -0.482228 0
M  V30 39670 C 3661.5 3.1925 -1.31047 0
M  V30 39671 C 3660.61 3.48428 -2.55386 0
M  V30 39672 C 3659.74 4.75862 -2.36069 0
M  V30 39673 C 3658.78 4.97993 -3.55906 0
M  V30 39674 N 3657.92 6.16651 -3.35687 0
M  V30 39675 H 3662.76 1.79463 -2.37901 0
M  V30 39676 H 3660.3 0.87645 -1.18139 0
M  V30 39677 H 3662.25 3.98872 -1.22299 0
M  V30 39678 H 3660.88 3.20381 -0.394478 0
M  V30 39679 H 3659.94 2.63245 -2.74602 0
M  V30 39680 H 3661.25 3.60684 -3.44541 0
M  V30 39681 H 3660.4 5.63531 -2.24762 0
M  V30 39682 H 3659.14 4.65844 -1.44363 0
M  V30 39683 H 3658.15 4.08775 -3.67673 0
M  V30 39684 H 3659.37 5.09874 -4.48559 0
M  V30 39685 H 3657.32 6.07854 -2.46678 0
M  V30 39686 H 3657.23 6.29655 -4.18415 0
M  V30 39687 H 3658.5 7.07066 -3.28144 0
M  V30 39688 N 3662.73 1.26951 0.933869 0
M  V30 39689 C 3663.68 1.08968 2.05496 0
M  V30 39690 C 3664.67 0.0145134 1.69394 0
M  V30 39691 O 3665.88 0.17176 1.79179 0
M  V30 39692 H 3662.25 0.335578 0.672972 0
M  V30 39693 H 3664.23 2.03961 2.17813 0
M  V30 39694 C 3662.97 0.747133 3.39578 0
M  V30 39695 H 3662.3 1.56634 3.67839 0
M  V30 39696 H 3663.74 0.661138 4.18814 0
M  V30 39697 C 3662.2 -0.548156 3.32411 0
M  V30 39698 O 3662.73 -1.58437 3.69135 0
M  V30 39699 N 3660.93 -0.541495 2.8551 0
M  V30 39700 H 3660.48 0.302157 2.55822 0
M  V30 39701 H 3660.44 -1.40825 2.81097 0
M  V30 39702 N 3664.21 -1.13949 1.08873 0
M  V30 39703 C 3665.44 -1.8895 0.842946 0
M  V30 39704 C 3665.85 -1.78833 -0.605316 0
M  V30 39705 O 3665.21 -1.15098 -1.41629 0
M  V30 39706 C 3665.26 -3.38755 1.26204 0
M  V30 39707 O 3664.98 -3.48599 2.6535 0
M  V30 39708 C 3666.48 -4.30739 1.04781 0
M  V30 39709 H 3663.7 -0.598357 0.303662 0
M  V30 39710 H 3666.25 -1.44281 1.44925 0
M  V30 39711 H 3664.4 -3.81028 0.699749 0
M  V30 39712 H 3664.82 -4.41683 2.82871 0
M  V30 39713 H 3666.29 -5.34202 1.39039 0
M  V30 39714 H 3666.77 -4.39197 -0.0148274 0
M  V30 39715 H 3667.37 -3.94227 1.59577 0
M  V30 39716 N 3665.69 -0.875096 -1.31072 0
M  V30 39717 C 3666.6 -0.338237 -2.32149 0
M  V30 39718 C 3667.61 0.554475 -1.64929 0
M  V30 39719 O 3668.79 0.449964 -1.96309 0
M  V30 39720 C 3665.85 0.447103 -3.43805 0
M  V30 39721 C 3664.92 -0.474181 -4.26673 0
M  V30 39722 C 3664.15 0.273773 -5.32997 0
M  V30 39723 O 3664.37 1.50119 -5.50291 0
M  V30 39724 O 3663.31 -0.371018 -6.00755 0
M  V30 39725 H 3667.13 -1.17617 -2.8 0
M  V30 39726 H 3664.72 -0.638624 -1.35063 0
M  V30 39727 H 3666.6 0.892127 -4.11848 0
M  V30 39728 H 3665.27 1.2615 -2.98107 0
M  V30 39729 H 3664.18 -0.967812 -3.61364 0
M  V30 39730 H 3665.51 -1.25431 -4.75949 0
M  V30 39731 N 3667.17 1.44239 -0.635047 0
M  V30 39732 C 3668.41 2.01609 -0.140824 0
M  V30 39733 C 3668.74 1.50236 1.24315 0
M  V30 39734 O 3668.01 0.707552 1.82676 0
M  V30 39735 H 3666.59 0.745387 -0.0490699 0
M  V30 39736 H 3669.25 1.76688 -0.822631 0
M  V30 39737 H 3668.34 3.11901 -0.11151 0
M  V30 39738 N 3668.64 0.375833 1.53053 0
M  V30 39739 C 3669.87 -0.211098 2.0582 0
M  V30 39740 C 3670.29 -1.41618 1.24859 0
M  V30 39741 O 3669.64 -1.80152 0.291817 0
M  V30 39742 C 3669.7 -0.59451 3.56578 0
M  V30 39743 O 3669.42 0.562683 4.34471 0
M  V30 39744 C 3670.92 -1.23874 4.25641 0
M  V30 39745 H 3668.14 -0.035015 0.670086 0
M  V30 39746 H 3670.68 0.537169 1.97319 0
M  V30 39747 H 3668.84 -1.29269 3.65196 0
M  V30 39748 H 3669.25 0.250579 5.23901 0
M  V30 39749 H 3670.72 -1.45749 5.32411 0
M  V30 39750 H 3671.2 -2.20211 3.80005 0
M  V30 39751 H 3671.81 -0.581712 4.21303 0
M  V30 39752 N 3670.12 -1.57248 0.105276 0
M  V30 39753 C 3671.05 -2.11626 -0.880183 0
M  V30 39754 C 3672.07 -1.0558 -1.23922 0
M  V30 39755 O 3673.26 -1.32996 -1.19056 0
M  V30 39756 C 3670.36 -2.58954 -2.18623 0
M  V30 39757 C 3669.53 -3.88946 -2.00098 0
M  V30 39758 C 3668.59 -4.22015 -3.14308 0
M  V30 39759 O 3667.61 -4.91066 -2.87824 0
M  V30 39760 N 3668.82 -3.78233 -4.40363 0
M  V30 39761 H 3671.58 -2.96803 -0.41569 0
M  V30 39762 H 3669.14 -1.61704 -0.0795429 0
M  V30 39763 H 3671.13 -2.78115 -2.93997 0
M  V30 39764 H 3669.7 -1.78731 -2.56464 0
M  V30 39765 H 3668.92 -3.78832 -1.08996 0
M  V30 39766 H 3670.21 -4.73971 -1.8501 0
M  V30 39767 H 3669.61 -3.22514 -4.64759 0
M  V30 39768 H 3668.17 -4.0253 -5.12653 0
M  V30 39769 N 3671.6 0.168458 -1.56697 0
M  V30 39770 C 3672.55 1.20851 -1.96631 0
M  V30 39771 C 3673.52 1.43838 -0.830648 0
M  V30 39772 O 3674.7 1.56531 -1.091 0
M  V30 39773 C 3671.84 2.54216 -2.33384 0
M  V30 39774 C 3670.96 2.38584 -3.60141 0
M  V30 39775 C 3670.09 3.64835 -3.86095 0
M  V30 39776 C 3669.13 3.44148 -5.0619 0
M  V30 39777 N 3668.27 4.62476 -5.28262 0
M  V30 39778 H 3673.11 0.86097 -2.85292 0
M  V30 39779 H 3670.64 0.413716 -1.41162 0
M  V30 39780 H 3672.6 3.31949 -2.52717 0
M  V30 39781 H 3671.23 2.8696 -1.4783 0
M  V30 39782 H 3670.28 1.52013 -3.48707 0
M  V30 39783 H 3671.6 2.19246 -4.48032 0
M  V30 39784 H 3670.75 4.51002 -4.0581 0
M  V30 39785 H 3669.49 3.87155 -2.96585 0
M  V30 39786 H 3668.49 2.56367 -4.8637 0
M  V30 39787 H 3669.72 3.23248 -5.97233 0
M  V30 39788 H 3667.66 4.85009 -4.41704 0
M  V30 39789 H 3667.58 4.46062 -6.10381 0
M  V30 39790 H 3668.85 5.49918 -5.52458 0
M  V30 39791 N 3673.08 1.51417 0.437109 0
M  V30 39792 C 3674.01 1.68942 1.54891 0
M  V30 39793 C 3675.02 0.570085 1.52492 0
M  V30 39794 O 3676.21 0.844408 1.57264 0
M  V30 39795 C 3673.31 1.6891 2.93807 0
M  V30 39796 C 3672.49 2.97431 3.20708 0
M  V30 39797 C 3671.54 2.89583 4.3935 0
M  V30 39798 O 3670.57 3.63526 4.37992 0
M  V30 39799 N 3671.77 2.0545 5.42928 0
M  V30 39800 H 3674.54 2.64852 1.40263 0
M  V30 39801 H 3672.1 1.49306 0.626049 0
M  V30 39802 H 3674.09 1.61227 3.71198 0
M  V30 39803 H 3672.66 0.805924 3.02032 0
M  V30 39804 H 3671.88 3.18979 2.31615 0
M  V30 39805 H 3673.17 3.82506 3.35509 0
M  V30 39806 H 3672.57 1.44752 5.46867 0
M  V30 39807 H 3671.12 2.03647 6.1917 0
M  V30 39808 N 3674.56 -0.692567 1.41567 0
M  V30 39809 C 3675.5 -1.80646 1.43652 0
M  V30 39810 C 3676.47 -1.63539 0.290526 0
M  V30 39811 O 3677.66 -1.84347 0.492012 0
M  V30 39812 C 3674.8 -3.18551 1.32738 0
M  V30 39813 C 3673.91 -3.47068 2.57231 0
M  V30 39814 C 3673.05 -4.74604 2.38589 0
M  V30 39815 C 3672.09 -4.96099 3.58542 0
M  V30 39816 N 3671.22 -6.14862 3.38953 0
M  V30 39817 H 3676.06 -1.78199 2.3885 0
M  V30 39818 H 3673.6 -0.870172 1.18602 0
M  V30 39819 H 3675.56 -3.98218 1.24412 0
M  V30 39820 H 3674.19 -3.20167 0.411463 0
M  V30 39821 H 3673.24 -2.61785 2.75994 0
M  V30 39822 H 3674.55 -3.58852 3.46449 0
M  V30 39823 H 3673.71 -5.62331 2.27747 0
M  V30 39824 H 3672.44 -4.65072 1.46832 0
M  V30 39825 H 3671.45 -4.06819 3.69835 0
M  V30 39826 H 3672.67 -5.07488 4.51257 0
M  V30 39827 H 3670.62 -6.06537 2.49898 0
M  V30 39828 H 3670.54 -6.27427 4.21748 0
M  V30 39829 H 3671.81 -7.05315 3.31889 0
M  V30 39830 N 3676.03 -1.27445 -0.927123 0
M  V30 39831 C 3676.94 -1.12035 -2.0612 0
M  V30 39832 C 3677.96 -0.0502284 -1.73927 0
M  V30 39833 O 3679.14 -0.256831 -1.99756 0
M  V30 39834 C 3676.2 -0.769693 -3.38048 0
M  V30 39835 C 3675.26 -1.92075 -3.83935 0
M  V30 39836 C 3674.5 -1.58673 -5.09567 0
M  V30 39837 O 3674.72 -0.494889 -5.68249 0
M  V30 39838 O 3673.65 -2.42609 -5.5084 0
M  V30 39839 H 3677.48 -2.07207 -2.22034 0
M  V30 39840 H 3675.06 -1.06638 -1.04636 0
M  V30 39841 H 3676.95 -0.587496 -4.17285 0
M  V30 39842 H 3675.62 0.1525 -3.23341 0
M  V30 39843 H 3674.53 -2.15801 -3.05583 0
M  V30 39844 H 3675.86 -2.82317 -4.03185 0
M  V30 39845 N 3677.51 1.1337 -1.09476 0
M  V30 39846 C 3678.76 1.84011 -0.826001 0
M  V30 39847 C 3679.07 1.84463 0.650591 0
M  V30 39848 O 3680.28 2.51002 1.0349 0
M  V30 39849 C 3678.74 3.30368 -1.42775 0
M  V30 39850 C 3678.34 3.38303 -2.93692 0
M  V30 39851 C 3680.09 4.06048 -1.23796 0
M  V30 39852 C 3678 4.78936 -3.4695 0
M  V30 39853 H 3676.93 0.689411 -0.305334 0
M  V30 39854 H 3679.58 1.27724 -1.31753 0
M  V30 39855 H 3677.96 3.86462 -0.863908 0
M  V30 39856 H 3679.13 2.92202 -3.56307 0
M  V30 39857 H 3677.45 2.76089 -3.11711 0
M  V30 39858 H 3680.04 5.09873 -1.6104 0
M  V30 39859 H 3680.39 4.15916 -0.178651 0
M  V30 39860 H 3680.92 3.56286 -1.76933 0
M  V30 39861 H 3677.66 4.74259 -4.52503 0
M  V30 39862 H 3677.18 5.2553 -2.89099 0
M  V30 39863 H 3678.86 5.47855 -3.44186 0
M  V30 39864 N 3678.99 0.882035 1.30606 0
M  V30 39865 C 3679.92 0.303901 2.27176 0
M  V30 39866 C 3680.94 -0.539872 1.53588 0
M  V30 39867 O 3682.12 -0.3599 1.74834 0
M  V30 39868 C 3679.22 -0.58677 3.33782 0
M  V30 39869 C 3678.4 0.227274 4.36809 0
M  V30 39870 C 3677.46 -0.593427 5.22843 0
M  V30 39871 O 3676.48 -0.0171694 5.69197 0
M  V30 39872 N 3677.68 -1.90311 5.48418 0
M  V30 39873 H 3680.45 1.13383 2.77424 0
M  V30 39874 H 3678.01 0.744723 1.43755 0
M  V30 39875 H 3680 -1.14179 3.88259 0
M  V30 39876 H 3678.57 -1.31738 2.83485 0
M  V30 39877 H 3677.79 0.963741 3.82238 0
M  V30 39878 H 3679.08 0.785403 5.02702 0
M  V30 39879 H 3678.48 -2.39426 5.12535 0
M  V30 39880 H 3677.04 -2.40565 6.05782 0
M  V30 39881 N 3680.47 -1.439 0.642688 0
M  V30 39882 C 3681.69 -2.06801 0.157555 0
M  V30 39883 C 3682.12 -1.47791 -1.16359 0
M  V30 39884 O 3681.48 -0.583777 -1.71644 0
M  V30 39885 C 3681.52 -3.60535 0.0686538 0
M  V30 39886 O 3680.63 -4.00779 -0.972112 0
M  V30 39887 H 3679.97 -0.657865 0.0900521 0
M  V30 39888 H 3682.5 -1.84582 0.882637 0
M  V30 39889 H 3682.51 -4.07829 -0.118141 0
M  V30 39890 H 3681.18 -4.02863 1.03314 0
M  V30 39891 H 3679.76 -3.65095 -0.758956 0
M  V30 39892 N 3681.95 -0.383945 -1.52852 0
M  V30 39893 C 3683.19 0.199796 -2.03421 0
M  V30 39894 C 3683.55 1.44487 -1.26442 0
M  V30 39895 O 3684.75 2.10542 -1.67109 0
M  V30 39896 C 3683.02 0.466515 -3.54342 0
M  V30 39897 S 3684.58 1.0213 -4.26749 0
M  V30 39898 H 3681.4 0.0567511 -0.708731 0
M  V30 39899 H 3684 -0.531055 -1.88149 0
M  V30 39900 H 3682.71 -0.446843 -4.0796 0
M  V30 39901 H 3682.24 1.22594 -3.73811 0
M  V30 39902 H 3684.25 2.30412 -4.3946 0
M  V30 39903 N 3683.43 1.5719 -0.113614 0
M  V30 39904 C 3684.36 2.18047 0.835325 0
M  V30 39905 C 3685.34 1.11899 1.28112 0
M  V30 39906 O 3686.52 1.40113 1.34469 0
M  V30 39907 C 3683.65 2.77559 2.08754 0
M  V30 39908 C 3682.61 3.89243 1.77972 0
M  V30 39909 C 3681.93 4.35539 3.10178 0
M  V30 39910 C 3683.23 5.11591 1.05222 0
M  V30 39911 H 3684.93 2.97595 0.328222 0
M  V30 39912 H 3682.47 1.43148 0.156431 0
M  V30 39913 H 3684.42 3.1879 2.75592 0
M  V30 39914 H 3683.15 1.95293 2.61779 0
M  V30 39915 H 3681.81 3.48579 1.13526 0
M  V30 39916 H 3681.46 3.50138 3.61127 0
M  V30 39917 H 3681.16 5.10848 2.90358 0
M  V30 39918 H 3682.68 4.79417 3.78143 0
M  V30 39919 H 3684.09 5.49875 1.62204 0
M  V30 39920 H 3682.49 5.9245 0.955165 0
M  V30 39921 H 3683.56 4.84885 0.0380518 0
M  V30 39922 N 3684.9 -0.160146 1.56784 0
M  V30 39923 C 3686.13 -0.890227 1.86769 0
M  V30 39924 C 3686.55 -1.75332 0.700307 0
M  V30 39925 O 3685.9 -1.79486 -0.33031 0
M  V30 39926 C 3685.95 -1.75779 3.15886 0
M  V30 39927 O 3685.68 -0.9295 4.28126 0
M  V30 39928 C 3687.18 -2.59658 3.59295 0
M  V30 39929 H 3684.4 -0.258077 0.619385 0
M  V30 39930 H 3686.94 -0.156884 2.03897 0
M  V30 39931 H 3685.1 -2.44434 3.00551 0
M  V30 39932 H 3685.51 -1.52388 5.01875 0
M  V30 39933 H 3686.98 -3.16128 4.52512 0
M  V30 39934 H 3687.46 -3.35067 2.83949 0
M  V30 39935 H 3688.07 -1.96316 3.7728 0
M  V30 39936 N 3686.38 -1.51647 -0.429072 0
M  V30 39937 C 3687.63 -1.64968 -1.17955 0
M  V30 39938 C 3687.96 -0.368788 -1.90666 0
M  V30 39939 O 3687.24 0.63199 -1.83946 0
M  V30 39940 C 3687.52 -2.85854 -2.18997 0
M  V30 39941 C 3687.37 -4.23941 -1.50314 0
M  V30 39942 C 3688.69 -3.02256 -3.1989 0
M  V30 39943 H 3685.81 -0.60037 -0.427464 0
M  V30 39944 H 3688.45 -1.84153 -0.467738 0
M  V30 39945 H 3686.6 -2.69628 -2.79702 0
M  V30 39946 H 3688.27 -4.51852 -0.928822 0
M  V30 39947 H 3686.52 -4.26259 -0.805356 0
M  V30 39948 H 3687.19 -5.04534 -2.23941 0
M  V30 39949 H 3689.66 -3.17247 -2.69246 0
M  V30 39950 H 3688.54 -3.88388 -3.87873 0
M  V30 39951 H 3688.8 -2.14688 -3.86473 0
M  V30 39952 N 3687.86 0.685049 -1.41932 0
M  V30 39953 C 3689.11 1.44583 -1.43064 0
M  V30 39954 C 3689.46 1.92353 -0.0425513 0
M  V30 39955 O 3688.75 1.67322 0.933478 0
M  V30 39956 C 3688.95 2.66535 -2.38104 0
M  V30 39957 C 3688.78 2.30697 -3.86017 0
M  V30 39958 C 3687.55 2.20551 -4.54626 0
M  V30 39959 C 3689.74 1.92997 -4.76715 0
M  V30 39960 N 3687.73 1.77709 -5.87616 0
M  V30 39961 C 3689.1 1.60994 -5.98733 0
M  V30 39962 C 3691.15 1.79899 -4.64264 0
M  V30 39963 C 3689.86 1.17209 -7.09686 0
M  V30 39964 C 3691.88 1.37518 -5.75189 0
M  V30 39965 C 3691.24 1.06433 -6.96313 0
M  V30 39966 H 3687.34 0.525951 -0.578705 0
M  V30 39967 H 3689.93 0.791559 -1.77883 0
M  V30 39968 H 3688.1 3.29667 -2.05363 0
M  V30 39969 H 3689.83 3.3307 -2.29884 0
M  V30 39970 H 3686.58 2.39289 -4.08702 0
M  V30 39971 H 3687.01 1.5874 -6.58127 0
M  V30 39972 H 3691.65 2.02582 -3.71107 0
M  V30 39973 H 3689.37 0.932714 -8.02699 0
M  V30 39974 H 3692.95 1.27919 -5.67563 0
M  V30 39975 H 3691.83 0.74136 -7.80688 0
M  V30 39976 N 3689.34 1.27935 0.920351 0
M  V30 39977 C 3690.61 1.05416 1.64763 0
M  V30 39978 C 3690.99 -0.40868 2.07106 0
M  V30 39979 O 3690.34 -1.39342 1.81096 0
M  V30 39980 C 3690.55 2.02262 2.84413 0
M  V30 39981 C 3691.9 2.32042 3.55586 0
M  V30 39982 O 3692.92 2.00294 2.94552 0
M  V30 39983 O 3691.78 2.86195 4.65569 0
M  V30 39984 H 3688.88 0.402404 0.722496 0
M  V30 39985 H 3691.42 1.39228 0.970239 0
M  V30 39986 H 3690.2 3.00884 2.50168 0
M  V30 39987 H 3689.82 1.69056 3.59869 0
M  V30 39988 N 3690.82 -1.12788 1.10076 0
M  V30 39989 C 3692.06 -1.83571 0.835748 0
M  V30 39990 C 3692.38 -1.84806 -0.640799 0
M  V30 39991 O 3693.58 -2.51547 -1.02158 0
M  V30 39992 C 3692.04 -3.29607 1.44525 0
M  V30 39993 C 3691.65 -3.36741 2.95482 0
M  V30 39994 C 3693.39 -4.05386 1.25947 0
M  V30 39995 C 3691.3 -4.77089 3.49485 0
M  V30 39996 H 3690.23 -0.687782 0.308986 0
M  V30 39997 H 3692.88 -1.27023 1.32429 0
M  V30 39998 H 3691.26 -3.85998 0.884391 0
M  V30 39999 H 3692.44 -2.90309 3.57851 0
M  V30 40000 H 3690.75 -2.74432 3.13171 0
M  V30 40001 H 3693.35 -5.09012 1.63741 0
M  V30 40002 H 3693.69 -4.15816 0.200706 0
M  V30 40003 H 3694.22 -3.55342 1.7882 0
M  V30 40004 H 3690.96 -4.71852 4.55012 0
M  V30 40005 H 3690.48 -5.23989 2.91882 0
M  V30 40006 H 3692.16 -5.46022 3.47086 0
M  V30 40007 N 3692.29 -0.888949 -1.30136 0
M  V30 40008 C 3693.24 -0.348253 -2.29978 0
M  V30 40009 C 3694.24 0.546866 -1.6033 0
M  V30 40010 O 3695.44 0.430859 -1.74767 0
M  V30 40011 H 3691.82 -0.0939694 -0.746106 0
M  V30 40012 H 3693.79 -1.2039 -2.73036 0
M  V30 40013 C 3692.54 0.418701 -3.4517 0
M  V30 40014 H 3691.86 -0.260831 -3.98948 0
M  V30 40015 H 3693.3 0.76206 -4.17095 0
M  V30 40016 C 3691.76 1.61729 -2.95542 0
M  V30 40017 O 3692.29 2.71665 -2.95907 0
M  V30 40018 N 3690.49 1.4558 -2.51505 0
M  V30 40019 H 3690.04 0.561438 -2.51407 0
M  V30 40020 H 3690 2.25912 -2.18658 0
M  V30 40021 N 3693.77 1.43557 -0.65031 0
M  V30 40022 C 3694.7 2.33481 0.0295529 0
M  V30 40023 C 3695.68 1.49305 0.814991 0
M  V30 40024 O 3696.87 1.77976 0.777049 0
M  V30 40025 C 3694 3.32633 0.998625 0
M  V30 40026 C 3692.95 4.26776 0.323502 0
M  V30 40027 C 3692.28 5.15943 1.40382 0
M  V30 40028 C 3693.58 5.16408 -0.782288 0
M  V30 40029 H 3695.27 2.90579 -0.7214 0
M  V30 40030 H 3692.82 1.39723 -0.348363 0
M  V30 40031 H 3694.77 3.94438 1.48313 0
M  V30 40032 H 3693.49 2.73786 1.7807 0
M  V30 40033 H 3692.15 3.66331 -0.140532 0
M  V30 40034 H 3691.8 4.53436 2.17726 0
M  V30 40035 H 3691.5 5.79749 0.95736 0
M  V30 40036 H 3693.03 5.80621 1.88975 0
M  V30 40037 H 3694.44 5.72039 -0.380067 0
M  V30 40038 H 3692.84 5.88919 -1.15304 0
M  V30 40039 H 3693.91 4.56271 -1.64148 0
M  V30 40040 N 3695.25 0.392045 1.52646 0
M  V30 40041 C 3696.66 -0.0813763 1.86523 0
M  V30 40042 C 3697.01 -1.45916 1.31161 0
M  V30 40043 O 3696.14 -2.06594 0.644044 0
M  V30 40044 C 3696.73 -0.154441 3.38448 0
M  V30 40045 C 3695.29 -0.572162 3.72026 0
M  V30 40046 C 3694.44 0.264142 2.76039 0
M  V30 40047 H 3697.39 0.609811 1.46516 0
M  V30 40048 H 3697.41 -0.973044 3.67848 0
M  V30 40049 H 3696.92 0.848462 3.78712 0
M  V30 40050 H 3695.02 -1.58233 3.37332 0
M  V30 40051 H 3695.14 -0.328407 4.77973 0
M  V30 40052 H 3693.5 -0.270998 2.53254 0
M  V30 40053 H 3694.28 1.26508 3.19141 0
M  V30 40054 N 3696.73 -1.57127 0.121948 0
M  V30 40055 C 3697.68 -2.12027 -0.838376 0
M  V30 40056 C 3698.66 -1.04177 -1.22621 0
M  V30 40057 O 3699.85 -1.30405 -1.19681 0
M  V30 40058 C 3696.98 -2.72558 -2.08728 0
M  V30 40059 C 3696.07 -3.87492 -1.72367 0
M  V30 40060 N 3696.46 -4.94418 -1.06697 0
M  V30 40061 C 3694.76 -3.97731 -2.01806 0
M  V30 40062 C 3695.46 -5.74767 -0.895409 0
M  V30 40063 N 3694.44 -5.24689 -1.42135 0
M  V30 40064 H 3698.24 -2.92074 -0.327149 0
M  V30 40065 H 3695.75 -1.62201 -0.0804268 0
M  V30 40066 H 3697.75 -3.10234 -2.78497 0
M  V30 40067 H 3696.41 -1.93975 -2.60392 0
M  V30 40068 H 3697.42 -5.12721 -0.730612 0
M  V30 40069 H 3694.1 -3.30194 -2.55496 0
M  V30 40070 H 3695.49 -6.70826 -0.379718 0
M  V30 40071 N 3698.21 0.151829 -1.56867 0
M  V30 40072 C 3699.12 1.20714 -2.0116 0
M  V30 40073 C 3700.13 1.47301 -0.926192 0
M  V30 40074 O 3701.31 1.59066 -1.23531 0
M  V30 40075 C 3698.37 2.52181 -2.3792 0
M  V30 40076 C 3697.43 2.33284 -3.60385 0
M  V30 40077 C 3696.67 3.58481 -3.95382 0
M  V30 40078 O 3696.89 4.64465 -3.31101 0
M  V30 40079 O 3695.82 3.51432 -4.88651 0
M  V30 40080 H 3699.65 0.861123 -2.91236 0
M  V30 40081 H 3697.24 0.360187 -1.44993 0
M  V30 40082 H 3699.12 3.29697 -2.62445 0
M  V30 40083 H 3697.79 2.86323 -1.51 0
M  V30 40084 H 3696.7 1.53734 -3.41052 0
M  V30 40085 H 3698.03 2.04059 -4.47907 0
M  V30 40086 N 3699.68 1.51872 0.421024 0
M  V30 40087 C 3700.93 1.65591 1.17079 0
M  V30 40088 C 3701.26 0.378895 1.90468 0
M  V30 40089 O 3700.54 -0.622226 1.84279 0
M  V30 40090 C 3700.82 2.87011 2.17478 0
M  V30 40091 C 3700.67 4.24732 1.48064 0
M  V30 40092 C 3701.99 3.03948 3.18282 0
M  V30 40093 H 3699.11 0.602628 0.424274 0
M  V30 40094 H 3701.75 1.84398 0.457965 0
M  V30 40095 H 3699.9 2.71107 2.78268 0
M  V30 40096 H 3701.58 4.52339 0.904846 0
M  V30 40097 H 3699.82 4.2668 0.782739 0
M  V30 40098 H 3700.49 5.05714 2.21263 0
M  V30 40099 H 3702.97 3.18671 2.67559 0
M  V30 40100 H 3701.84 3.9044 3.85808 0
M  V30 40101 H 3702.1 2.16735 3.85329 0
M  V30 40102 N 3701.16 -0.677513 1.42294 0
M  V30 40103 C 3702.09 -1.80302 1.41506 0
M  V30 40104 C 3703.11 -1.59733 0.314527 0
M  V30 40105 O 3704.3 -1.68902 0.577439 0
M  V30 40106 C 3701.4 -3.17364 1.18885 0
M  V30 40107 C 3700.57 -3.64805 2.41321 0
M  V30 40108 C 3699.63 -4.80592 2.14285 0
M  V30 40109 O 3698.65 -4.91276 2.87465 0
M  V30 40110 N 3699.86 -5.6911 1.14429 0
M  V30 40111 H 3702.62 -1.81464 2.38518 0
M  V30 40112 H 3700.18 -0.860505 1.37138 0
M  V30 40113 H 3702.17 -3.92475 0.987204 0
M  V30 40114 H 3700.74 -3.11118 0.304057 0
M  V30 40115 H 3699.96 -2.80403 2.7707 0
M  V30 40116 H 3701.25 -3.93244 3.22857 0
M  V30 40117 H 3700.65 -5.63127 0.538979 0
M  V30 40118 H 3699.21 -6.44044 1.00252 0
M  V30 40119 N 3702.64 -1.28421 -0.913554 0
M  V30 40120 C 3703.59 -1.12224 -2.03737 0
M  V30 40121 C 3704.58 -0.0414607 -1.69349 0
M  V30 40122 O 3705.79 -0.200244 -1.78883 0
M  V30 40123 H 3702.16 -0.346242 -0.667548 0
M  V30 40124 H 3704.13 -2.074 -2.14541 0
M  V30 40125 C 3702.88 -0.801063 -3.38346 0
M  V30 40126 H 3702.21 -1.62467 -3.65301 0
M  V30 40127 H 3703.65 -0.727684 -4.17709 0
M  V30 40128 C 3702.11 0.495203 -3.33241 0
M  V30 40129 O 3702.64 1.52544 -3.71609 0
M  V30 40130 N 3700.84 0.496004 -2.86336 0
M  V30 40131 H 3700.39 -0.342818 -2.55309 0
M  V30 40132 H 3700.35 1.36335 -2.83302 0
M  V30 40133 N 3704.12 1.12202 -1.10672 0
M  V30 40134 C 3705.05 2.20092 -0.779867 0
M  V30 40135 C 3706.03 1.68279 0.248249 0
M  V30 40136 O 3707.21 1.93868 0.113477 0
M  V30 40137 C 3704.34 3.46643 -0.213572 0
M  V30 40138 C 3703.3 4.11622 -1.17265 0
M  V30 40139 C 3702.62 5.32653 -0.467446 0
M  V30 40140 C 3703.92 4.57474 -2.52022 0
M  V30 40141 H 3705.62 2.4769 -1.68196 0
M  V30 40142 H 3703.16 1.19048 -0.810152 0
M  V30 40143 H 3705.12 4.21391 0.0272484 0
M  V30 40144 H 3703.84 3.18479 0.723781 0
M  V30 40145 H 3702.5 3.38857 -1.39897 0
M  V30 40146 H 3702.15 5.00757 0.474459 0
M  V30 40147 H 3701.85 5.77077 -1.10704 0
M  V30 40148 H 3703.37 6.10147 -0.235229 0
M  V30 40149 H 3704.79 5.23583 -2.33525 0
M  V30 40150 H 3703.18 5.12684 -3.11889 0
M  V30 40151 H 3704.25 3.7133 -3.11837 0
M  V30 40152 N 3705.6 0.895838 1.29663 0
M  V30 40153 C 3706.51 0.375127 2.31581 0
M  V30 40154 C 3707.52 -0.528166 1.6579 0
M  V30 40155 O 3708.7 -0.418676 1.97 0
M  V30 40156 C 3705.76 -0.39235 3.44473 0
M  V30 40157 C 3704.82 0.542001 4.25865 0
M  V30 40158 C 3704.06 -0.188943 5.33365 0
M  V30 40159 O 3704.28 -1.41346 5.5261 0
M  V30 40160 O 3703.21 0.466547 6.00089 0
M  V30 40161 H 3707.04 1.22057 2.78093 0
M  V30 40162 H 3704.63 0.66003 1.3403 0
M  V30 40163 H 3706.51 -0.826493 4.13216 0
M  V30 40164 H 3705.18 -1.21391 3.00076 0
M  V30 40165 H 3704.09 1.02518 3.59779 0
M  V30 40166 H 3705.42 1.32987 4.73894 0
M  V30 40167 N 3707.07 -1.43211 0.657914 0
M  V30 40168 C 3708.02 -2.30779 -0.0308191 0
M  V30 40169 C 3708.99 -1.45015 -0.809925 0
M  V30 40170 O 3710.18 -1.73877 -0.785584 0
M  V30 40171 C 3707.32 -3.30655 -0.98799 0
M  V30 40172 C 3706.43 -4.31516 -0.204491 0
M  V30 40173 C 3705.56 -5.18472 -1.15588 0
M  V30 40174 C 3704.6 -6.11022 -0.36309 0
M  V30 40175 N 3703.74 -6.90586 -1.26632 0
M  V30 40176 H 3708.58 -2.89126 0.721796 0
M  V30 40177 H 3706.12 -1.4243 0.367702 0
M  V30 40178 H 3708.08 -3.87074 -1.55659 0
M  V30 40179 H 3706.71 -2.73947 -1.70743 0
M  V30 40180 H 3705.76 -3.77353 0.480476 0
M  V30 40181 H 3707.07 -4.97097 0.411771 0
M  V30 40182 H 3706.22 -5.79539 -1.79497 0
M  V30 40183 H 3704.96 -4.53027 -1.80605 0
M  V30 40184 H 3703.97 -5.49038 0.289316 0
M  V30 40185 H 3705.19 -6.78511 0.282739 0
M  V30 40186 H 3703.14 -6.27785 -1.9032 0
M  V30 40187 H 3703.06 -7.52708 -0.704728 0
M  V30 40188 H 3704.32 -7.56155 -1.8934 0
M  V30 40189 N 3708.55 -0.400135 -1.52436 0
M  V30 40190 C 3709.5 0.446925 -2.23577 0
M  V30 40191 C 3710.49 1.02083 -1.2437 0
M  V30 40192 O 3711.68 0.945139 -1.49653 0
M  V30 40193 C 3708.81 1.5679 -3.05404 0
M  V30 40194 C 3707.89 1.0052 -4.12015 0
M  V30 40195 N 3708.28 0.168386 -5.0552 0
M  V30 40196 C 3706.58 1.27662 -4.27339 0
M  V30 40197 C 3707.28 -0.143681 -5.81523 0
M  V30 40198 N 3706.26 0.463114 -5.41624 0
M  V30 40199 H 3710.06 -0.198826 -2.93227 0
M  V30 40200 H 3707.58 -0.210047 -1.61036 0
M  V30 40201 H 3709.57 2.18724 -3.54916 0
M  V30 40202 H 3708.23 2.21636 -2.37292 0
M  V30 40203 H 3709.24 -0.195216 -5.17532 0
M  V30 40204 H 3705.92 1.92533 -3.70456 0
M  V30 40205 H 3707.31 -0.822373 -6.66848 0
M  V30 40206 N 3710.03 1.57061 -0.13028 0
M  V30 40207 C 3711.28 1.94752 0.524846 0
M  V30 40208 C 3711.59 1.01663 1.67105 0
M  V30 40209 O 3712.8 1.28865 2.38969 0
M  V30 40210 C 3711.25 3.46157 0.985057 0
M  V30 40211 C 3710.86 4.47802 -0.133301 0
M  V30 40212 C 3712.61 3.92746 1.61092 0
M  V30 40213 C 3710.51 5.90397 0.344242 0
M  V30 40214 H 3709.44 0.727036 0.199837 0
M  V30 40215 H 3712.09 1.82272 -0.211944 0
M  V30 40216 H 3710.48 3.53911 1.77661 0
M  V30 40217 H 3711.65 4.51728 -0.909864 0
M  V30 40218 H 3709.97 4.11031 -0.666521 0
M  V30 40219 H 3712.56 4.96707 1.97954 0
M  V30 40220 H 3712.91 3.33355 2.4936 0
M  V30 40221 H 3713.44 3.8784 0.884573 0
M  V30 40222 H 3710.18 6.5357 -0.502662 0
M  V30 40223 H 3709.7 5.89867 1.08704 0
M  V30 40224 H 3711.38 6.42013 0.801772 0
M  V30 40225 N 3711.51 -0.143508 1.56945 0
M  V30 40226 C 3712.42 -1.19646 2.01797 0
M  V30 40227 C 3713.44 -1.46808 0.933991 0
M  V30 40228 O 3714.61 -1.58409 1.24373 0
M  V30 40229 C 3711.68 -2.50915 2.39254 0
M  V30 40230 C 3710.74 -2.31369 3.61617 0
M  V30 40231 C 3709.97 -3.56379 3.97278 0
M  V30 40232 O 3710.19 -4.62703 3.3356 0
M  V30 40233 O 3709.13 -3.48835 4.90508 0
M  V30 40234 H 3712.95 -0.845666 2.91688 0
M  V30 40235 H 3710.54 -0.352493 1.45182 0
M  V30 40236 H 3712.42 -3.28301 2.6419 0
M  V30 40237 H 3711.1 -2.85518 1.52516 0
M  V30 40238 H 3710 -1.51923 3.41863 0
M  V30 40239 H 3711.34 -2.01681 4.48983 0
M  V30 40240 N 3712.99 -1.52093 -0.412964 0
M  V30 40241 C 3714.23 -1.6621 -1.16199 0
M  V30 40242 C 3714.57 -0.38899 -1.90264 0
M  V30 40243 O 3713.84 0.612445 -1.84606 0
M  V30 40244 C 3714.12 -2.88161 -2.15953 0
M  V30 40245 C 3713.98 -4.25511 -1.45809 0
M  V30 40246 C 3715.3 -3.05632 -3.16666 0
M  V30 40247 H 3712.42 -0.60487 -0.421072 0
M  V30 40248 H 3715.06 -1.84638 -0.44818 0
M  V30 40249 H 3713.21 -2.72579 -2.76826 0
M  V30 40250 H 3714.88 -4.52812 -0.880845 0
M  V30 40251 H 3713.12 -4.27089 -0.7601 0
M  V30 40252 H 3713.79 -5.0688 -2.18578 0
M  V30 40253 H 3716.27 -3.20085 -2.65866 0
M  V30 40254 H 3715.15 -3.9248 -3.83732 0
M  V30 40255 H 3715.41 -2.18775 -3.84174 0
M  V30 40256 N 3714.47 0.669957 -1.42651 0
M  V30 40257 C 3715.88 0.98366 -1.25683 0
M  V30 40258 C 3716.08 2.00827 -0.164491 0
M  V30 40259 O 3715.14 2.48225 0.462667 0
M  V30 40260 C 3716.45 1.48386 -2.61538 0
M  V30 40261 C 3718 1.60138 -2.68933 0
M  V30 40262 C 3718.47 2.13553 -4.05166 0
M  V30 40263 N 3719.96 2.20879 -4.07145 0
M  V30 40264 C 3720.7 2.63294 -5.09376 0
M  V30 40265 N 3720.2 3.05126 -6.21989 0
M  V30 40266 N 3721.99 2.63085 -4.96732 0
M  V30 40267 H 3714.14 -0.00834323 -2.12398 0
M  V30 40268 H 3716.4 0.0588064 -0.946174 0
M  V30 40269 H 3716.11 0.805467 -3.42352 0
M  V30 40270 H 3715.98 2.46178 -2.8579 0
M  V30 40271 H 3718.37 2.27082 -1.88461 0
M  V30 40272 H 3718.45 0.608222 -2.48464 0
M  V30 40273 H 3718.09 1.47216 -4.86097 0
M  V30 40274 H 3718.02 3.13668 -4.22989 0
M  V30 40275 H 3720.52 1.9139 -3.2585 0
M  V30 40276 H 3720.83 3.36191 -6.95841 0
M  V30 40277 H 3719.17 3.02972 -6.25486 0
M  V30 40278 H 3722.36 2.2977 -4.07828 0
M  V30 40279 H 3722.54 2.9582 -5.76536 0
M  V30 40280 N 3715.94 1.28904 0.90673 0
M  V30 40281 C 3716.89 1.13432 2.01002 0
M  V30 40282 C 3717.86 0.0295322 1.66074 0
M  V30 40283 O 3719.05 0.195761 1.89793 0
M  V30 40284 C 3716.19 0.809516 3.35471 0
M  V30 40285 C 3715.3 1.99405 3.83226 0
M  V30 40286 C 3714.43 1.60924 5.06238 0
M  V30 40287 C 3713.47 2.76 5.46343 0
M  V30 40288 N 3712.61 2.37964 6.60543 0
M  V30 40289 H 3717.45 2.07829 2.13568 0
M  V30 40290 H 3714.99 1.03429 1.04598 0
M  V30 40291 H 3716.94 0.601917 4.12835 0
M  V30 40292 H 3715.57 -0.0975329 3.22653 0
M  V30 40293 H 3714.63 2.31356 3.01958 0
M  V30 40294 H 3715.94 2.85657 4.08903 0
M  V30 40295 H 3715.09 1.36412 5.91166 0
M  V30 40296 H 3713.83 0.718106 4.82384 0
M  V30 40297 H 3712.84 3.01203 4.59953 0
M  V30 40298 H 3714.06 3.65767 5.72181 0
M  V30 40299 H 3712.01 1.51329 6.38307 0
M  V30 40300 H 3711.92 3.1775 6.85982 0
M  V30 40301 H 3713.19 2.16753 7.48758 0
M  V30 40302 N 3717.42 -1.11614 1.11266 0
M  V30 40303 C 3718.33 -2.21183 0.782 0
M  V30 40304 C 3719.35 -1.72551 -0.224119 0
M  V30 40305 O 3720.52 -2.01308 -0.0607389 0
M  V30 40306 C 3717.59 -3.45949 0.228092 0
M  V30 40307 C 3716.65 -4.09378 1.29259 0
M  V30 40308 C 3715.88 -5.28189 0.765014 0
M  V30 40309 O 3716.11 -5.68956 -0.405571 0
M  V30 40310 O 3715.04 -5.82157 1.52896 0
M  V30 40311 H 3718.87 -2.51876 1.69682 0
M  V30 40312 H 3716.45 -1.20115 0.888415 0
M  V30 40313 H 3718.33 -4.2133 -0.0765344 0
M  V30 40314 H 3717.01 -3.16911 -0.659463 0
M  V30 40315 H 3715.91 -3.35737 1.6502 0
M  V30 40316 H 3717.25 -4.42591 2.15347 0
M  V30 40317 N 3718.9 -0.902701 -1.29186 0
M  V30 40318 C 3719.83 -0.399397 -2.30059 0
M  V30 40319 C 3720.81 0.52717 -1.61725 0
M  V30 40320 O 3722 0.43726 -1.89213 0
M  V30 40321 C 3719.13 0.37127 -3.4531 0
M  V30 40322 C 3718.08 -0.465143 -4.25465 0
M  V30 40323 C 3717.41 0.433202 -5.32942 0
M  V30 40324 C 3718.71 -1.71664 -4.93284 0
M  V30 40325 H 3720.4 -1.24238 -2.72407 0
M  V30 40326 H 3717.95 -0.598845 -1.30957 0
M  V30 40327 H 3719.9 0.734134 -4.14956 0
M  V30 40328 H 3718.62 1.24806 -3.01813 0
M  V30 40329 H 3717.28 -0.810378 -3.57531 0
M  V30 40330 H 3716.93 1.30821 -4.8569 0
M  V30 40331 H 3716.63 -0.122761 -5.87472 0
M  V30 40332 H 3718.15 0.792192 -6.05439 0
M  V30 40333 H 3719.57 -1.42333 -5.55351 0
M  V30 40334 H 3717.96 -2.21415 -5.57759 0
M  V30 40335 H 3719.03 -2.45089 -4.18401 0
M  V30 40336 N 3720.38 1.4286 -0.6655 0
M  V30 40337 C 3721.34 2.29198 0.00928322 0
M  V30 40338 C 3722.34 1.42847 0.738331 0
M  V30 40339 O 3723.53 1.64341 0.577731 0
M  V30 40340 C 3720.66 3.25161 1.02386 0
M  V30 40341 H 3721.86 2.90357 -0.750532 0
M  V30 40342 H 3719.41 1.50344 -0.42736 0
M  V30 40343 H 3720.14 2.68922 1.81249 0
M  V30 40344 H 3719.93 3.8884 0.504603 0
M  V30 40345 H 3721.42 3.89933 1.49472 0
M  V30 40346 N 3721.86 0.408213 1.52221 0
M  V30 40347 C 3722.77 -0.424605 2.30726 0
M  V30 40348 C 3723.78 -1.0544 1.38414 0
M  V30 40349 O 3724.96 -1.05611 1.71488 0
M  V30 40350 C 3722.02 -1.52671 3.11276 0
M  V30 40351 C 3721.08 -0.920069 4.19325 0
M  V30 40352 C 3720.32 -1.96966 4.96024 0
M  V30 40353 O 3720.54 -3.18766 4.73016 0
M  V30 40354 O 3719.47 -1.5764 5.8089 0
M  V30 40355 H 3723.3 0.215464 3.02935 0
M  V30 40356 H 3720.88 0.171441 1.48413 0
M  V30 40357 H 3722.77 -2.16655 3.6144 0
M  V30 40358 H 3721.44 -2.1514 2.41861 0
M  V30 40359 H 3720.35 -0.242971 3.7331 0
M  V30 40360 H 3721.68 -0.339319 4.91029 0
M  V30 40361 N 3723.33 -1.56989 0.138607 0
M  V30 40362 C 3724.28 -2.16333 -0.804267 0
M  V30 40363 C 3725.25 -1.09381 -1.25 0
M  V30 40364 O 3726.44 -1.37383 -1.32403 0
M  V30 40365 C 3723.58 -2.78252 -2.04132 0
M  V30 40366 C 3722.69 -3.99571 -1.64216 0
M  V30 40367 C 3721.82 -4.49514 -2.83038 0
M  V30 40368 C 3720.86 -5.63319 -2.39455 0
M  V30 40369 N 3720 -6.07917 -3.51256 0
M  V30 40370 H 3724.84 -2.96572 -0.291388 0
M  V30 40371 H 3722.38 -1.46505 -0.13212 0
M  V30 40372 H 3724.33 -3.12291 -2.76641 0
M  V30 40373 H 3722.96 -2.00671 -2.52845 0
M  V30 40374 H 3722.02 -3.71566 -0.815058 0
M  V30 40375 H 3723.33 -4.82043 -1.28202 0
M  V30 40376 H 3722.48 -4.85565 -3.63746 0
M  V30 40377 H 3721.22 -3.66032 -3.22292 0
M  V30 40378 H 3720.23 -5.26852 -1.57184 0
M  V30 40379 H 3721.45 -6.48581 -2.01296 0
M  V30 40380 H 3719.4 -5.27372 -3.90147 0
M  V30 40381 H 3719.31 -6.85295 -3.19229 0
M  V30 40382 H 3720.58 -6.48611 -4.32347 0
M  V30 40383 N 3724.81 0.135183 -1.57019 0
M  V30 40384 C 3725.74 1.19643 -1.94321 0
M  V30 40385 C 3726.72 1.40952 -0.810628 0
M  V30 40386 O 3727.91 1.55372 -1.06733 0
M  V30 40387 C 3725.03 2.55324 -2.22547 0
M  V30 40388 C 3724.08 2.5054 -3.45155 0
M  V30 40389 S 3724.91 1.9608 -4.9831 0
M  V30 40390 C 3726.07 3.33467 -5.29671 0
M  V30 40391 H 3726.3 0.878244 -2.84032 0
M  V30 40392 H 3723.83 0.341287 -1.50581 0
M  V30 40393 H 3725.79 3.334 -2.39488 0
M  V30 40394 H 3724.45 2.84327 -1.33479 0
M  V30 40395 H 3723.65 3.50447 -3.62219 0
M  V30 40396 H 3723.25 1.80578 -3.27517 0
M  V30 40397 H 3725.54 4.29622 -5.23862 0
M  V30 40398 H 3726.48 3.21245 -6.31037 0
M  V30 40399 H 3726.89 3.31148 -4.57167 0
M  V30 40400 N 3726.29 1.5231 0.404892 0
M  V30 40401 C 3727.71 1.41207 0.743821 0
M  V30 40402 C 3727.91 0.519909 1.94677 0
M  V30 40403 O 3726.96 -0.0126973 2.52497 0
M  V30 40404 C 3728.28 2.83803 0.99379 0
M  V30 40405 C 3729.82 2.93175 1.09624 0
M  V30 40406 C 3730.3 4.36748 1.37895 0
M  V30 40407 N 3731.79 4.40002 1.44751 0
M  V30 40408 C 3732.52 5.48157 1.68259 0
M  V30 40409 N 3732.02 6.66424 1.89344 0
M  V30 40410 N 3733.81 5.35678 1.70309 0
M  V30 40411 H 3725.96 2.08847 -0.386892 0
M  V30 40412 H 3728.23 0.941499 -0.110828 0
M  V30 40413 H 3727.93 3.51228 0.182187 0
M  V30 40414 H 3727.81 3.25102 1.91281 0
M  V30 40415 H 3730.19 2.25928 1.89843 0
M  V30 40416 H 3730.28 2.55327 0.155494 0
M  V30 40417 H 3729.92 5.04555 0.581915 0
M  V30 40418 H 3729.85 4.72136 2.33228 0
M  V30 40419 H 3732.34 3.54752 1.30229 0
M  V30 40420 H 3732.65 7.44632 2.06744 0
M  V30 40421 H 3731 6.69481 1.866 0
M  V30 40422 H 3734.19 4.42259 1.53377 0
M  V30 40423 H 3734.36 6.20041 1.88291 0
M  V30 40424 N 3727.77 -0.662382 1.43004 0
M  V30 40425 C 3729.18 -0.976981 1.26203 0
M  V30 40426 C 3729.38 -2.00737 0.175139 0
M  V30 40427 O 3728.44 -2.48467 -0.449496 0
M  V30 40428 C 3729.75 -1.46997 2.62321 0
M  V30 40429 C 3731.3 -1.58709 2.69778 0
M  V30 40430 C 3731.78 -2.11401 4.06293 0
M  V30 40431 N 3733.27 -2.18716 4.0831 0
M  V30 40432 C 3734 -2.60589 5.10765 0
M  V30 40433 N 3733.5 -3.01824 6.23598 0
M  V30 40434 N 3735.29 -2.60447 4.9812 0
M  V30 40435 H 3727.44 0.0196071 2.12391 0
M  V30 40436 H 3729.71 -0.0537878 0.946473 0
M  V30 40437 H 3729.41 -0.7873 3.42775 0
M  V30 40438 H 3729.29 -2.44659 2.87092 0
M  V30 40439 H 3731.67 -2.26079 1.89663 0
M  V30 40440 H 3731.75 -0.595037 2.48783 0
M  V30 40441 H 3731.4 -1.44636 4.86871 0
M  V30 40442 H 3731.33 -3.11421 4.24647 0
M  V30 40443 H 3733.82 -1.8966 3.2686 0
M  V30 40444 H 3734.13 -3.32496 6.97614 0
M  V30 40445 H 3732.48 -2.9965 6.27084 0
M  V30 40446 H 3735.67 -2.27604 4.09041 0
M  V30 40447 H 3735.84 -2.92759 5.78097 0
M  V30 40448 N 3729.25 -1.29383 -0.899882 0
M  V30 40449 C 3730.47 -1.2023 -1.68381 0
M  V30 40450 C 3730.89 0.237102 -1.87305 0
M  V30 40451 O 3730.25 1.15874 -1.40994 0
M  V30 40452 C 3730.3 -1.9113 -3.06841 0
M  V30 40453 O 3730.02 -3.29449 -2.88782 0
M  V30 40454 C 3731.52 -1.88452 -4.01249 0
M  V30 40455 H 3728.74 -0.416726 -0.525909 0
M  V30 40456 H 3731.28 -1.70752 -1.12534 0
M  V30 40457 H 3729.44 -1.44444 -3.59464 0
M  V30 40458 H 3729.85 -3.65155 -3.76513 0
M  V30 40459 H 3731.33 -2.42625 -4.9582 0
M  V30 40460 H 3731.8 -0.86 -4.30698 0
M  V30 40461 H 3732.41 -2.3488 -3.54558 0
M  V30 40462 N 3730.72 1.11022 -1.11856 0
M  V30 40463 C 3731.95 1.87189 -0.893032 0
M  V30 40464 C 3732.37 1.79817 0.552026 0
M  V30 40465 O 3731.73 1.16371 1.39023 0
M  V30 40466 C 3731.78 3.33777 -1.36475 0
M  V30 40467 O 3730.88 4.08859 -0.539274 0
M  V30 40468 H 3730.23 0.581071 -0.32133 0
M  V30 40469 H 3732.76 1.40308 -1.48912 0
M  V30 40470 H 3732.77 3.84625 -1.36117 0
M  V30 40471 H 3731.44 3.38458 -2.417 0
M  V30 40472 H 3730.02 3.67888 -0.609335 0
M  V30 40473 N 3732.2 0.90954 1.28706 0
M  V30 40474 C 3733.45 0.541316 1.95442 0
M  V30 40475 C 3733.78 -0.911904 1.71458 0
M  V30 40476 O 3733.06 -1.64792 1.03315 0
M  V30 40477 C 3733.34 0.846158 3.50017 0
M  V30 40478 C 3733.19 2.3518 3.83419 0
M  V30 40479 C 3734.51 0.339405 4.38789 0
M  V30 40480 H 3731.63 0.198141 0.709866 0
M  V30 40481 H 3734.27 1.13802 1.52149 0
M  V30 40482 H 3732.42 0.33833 3.87024 0
M  V30 40483 H 3734.09 2.92993 3.56305 0
M  V30 40484 H 3732.34 2.80852 3.30613 0
M  V30 40485 H 3733.01 2.51565 4.91344 0
M  V30 40486 H 3735.48 0.774384 4.08831 0
M  V30 40487 H 3734.36 0.581818 5.45808 0
M  V30 40488 H 3734.62 -0.760167 4.35516 0
M  V30 40489 N 3733.68 -1.42505 0.673067 0
M  V30 40490 C 3734.59 -2.34599 -0.00644449 0
M  V30 40491 C 3735.61 -1.54995 -0.790731 0
M  V30 40492 O 3736.78 -1.8757 -0.733449 0
M  V30 40493 C 3733.85 -3.33508 -0.947281 0
M  V30 40494 C 3732.91 -4.2901 -0.157719 0
M  V30 40495 C 3732.14 -5.23194 -1.05374 0
M  V30 40496 O 3732.36 -5.2227 -2.29325 0
M  V30 40497 O 3731.3 -5.99689 -0.515479 0
M  V30 40498 H 3735.12 -2.9424 0.75211 0
M  V30 40499 H 3732.71 -1.42979 0.433297 0
M  V30 40500 H 3734.59 -3.94276 -1.48743 0
M  V30 40501 H 3733.27 -2.76343 -1.68572 0
M  V30 40502 H 3732.17 -3.71661 0.426491 0
M  V30 40503 H 3733.51 -4.89212 0.541566 0
M  V30 40504 O 3735.2 -0.558403 -1.51539 0
M  V30 40505 H 3735.89 -0.0562606 -1.93618 0
M  V30 END ATOM
M  V30 BEGIN BOND
M  V30 END BOND
M  V30 END CTAB
M  END
$$$$
