drugbank_target|Q5SHF5 Pantothenate synthetase (DB03570)
 OpenBabel12092120553D

  0  0  0     0  0            999 V3000
M  V30 BEGIN CTAB
M  V30 COUNTS 4360 4410 0 0 0
M  V30 BEGIN ATOM
M  V30 1 H -0.908 1.98254 -0.117106 0
M  V30 2 N 0 1.576 0 0
M  V30 3 C 0.933 2.03868 1.02534 0
M  V30 4 C 1.911 0.928543 1.3348 0
M  V30 5 O 3.095 1.19667 1.45644 0
M  V30 6 C 0.222 2.43627 2.35294 0
M  V30 7 C -0.732 3.65373 2.2001 0
M  V30 8 S 0.101 5.13292 1.52614 0
M  V30 9 C 1.257 5.56322 2.86805 0
M  V30 10 H 1.49 2.90518 0.631377 0
M  V30 11 H -0.977 1.52953 0.210867 0
M  V30 12 H 0.981 2.67203 3.11629 0
M  V30 13 H -0.358 1.57376 2.7183 0
M  V30 14 H -1.165 3.90944 3.18086 0
M  V30 15 H -1.563 3.418 1.51819 0
M  V30 16 H 0.729 5.58782 3.83104 0
M  V30 17 H 1.672 6.56266 2.65933 0
M  V30 18 H 2.08 4.83886 2.90714 0
M  V30 19 N 1.4781 -0.272755 1.55222 0
M  V30 20 C 2.8941 -0.619959 1.47067 0
M  V30 21 C 3.0941 -1.895 0.684978 0
M  V30 22 O 2.1501 -2.51675 0.203931 0
M  V30 23 C 3.4631 -0.746693 2.91282 0
M  V30 24 C 5.0111 -0.840731 3.01497 0
M  V30 25 C 5.4861 -0.99924 4.46967 0
M  V30 26 N 6.9771 -1.06476 4.50796 0
M  V30 27 C 7.7121 -1.20621 5.6057 0
M  V30 28 N 7.2081 -1.31483 6.80209 0
M  V30 29 N 9.0011 -1.23733 5.48312 0
M  V30 30 H 1.1521 0.564606 2.04758 0
M  V30 31 H 3.4151 0.191177 0.928523 0
M  V30 32 H 3.1211 0.119753 3.51496 0
M  V30 33 H 2.9951 -1.6269 3.40311 0
M  V30 34 H 5.3821 -1.69764 2.41379 0
M  V30 35 H 5.4631 0.0640874 2.5572 0
M  V30 36 H 5.1071 -0.146984 5.07687 0
M  V30 37 H 5.0371 -1.91871 4.90401 0
M  V30 38 H 7.5281 -0.993196 3.64615 0
M  V30 39 H 7.8411 -1.42111 7.59621 0
M  V30 40 H 6.1861 -1.28487 6.8302 0
M  V30 41 H 9.3771 -1.14877 4.53785 0
M  V30 42 H 9.5501 -1.34412 6.33906 0
M  V30 43 N 2.9562 -1.48159 -0.537278 0
M  V30 44 C 4.1842 -1.59454 -1.31841 0
M  V30 45 C 4.5992 -0.252065 -1.8711 0
M  V30 46 O 3.9562 0.757621 -1.66031 0
M  V30 47 C 4.0072 -2.63546 -2.47439 0
M  V30 48 O 3.7282 -3.92583 -1.94449 0
M  V30 49 C 5.2292 -2.85212 -3.39366 0
M  V30 50 H 2.4492 -0.53785 -0.401196 0
M  V30 51 H 4.9932 -1.93932 -0.648891 0
M  V30 52 H 3.1482 -2.31946 -3.1029 0
M  V30 53 H 3.5622 -4.49629 -2.70063 0
M  V30 54 H 5.0362 -3.61863 -4.16844 0
M  V30 55 H 5.5132 -1.93765 -3.94147 0
M  V30 56 H 6.1192 -3.18086 -2.82314 0
M  V30 57 N 4.4343 0.785586 -1.36625 0
M  V30 58 C 5.6803 1.54591 -1.31261 0
M  V30 59 C 6.0133 1.93906 0.106823 0
M  V30 60 O 5.2883 1.63007 1.06108 0
M  V30 61 C 5.5713 2.82038 -2.23889 0
M  V30 62 C 5.4243 2.49066 -3.74548 0
M  V30 63 C 6.7433 3.83887 -2.15217 0
M  V30 64 H 3.8623 0.560846 -0.478143 0
M  V30 65 H 6.5043 0.902278 -1.67209 0
M  V30 66 H 4.6543 3.36961 -1.93363 0
M  V30 67 H 6.3263 2.00164 -4.15611 0
M  V30 68 H 4.5693 1.81954 -3.93796 0
M  V30 69 H 5.2403 3.40109 -4.34776 0
M  V30 70 H 7.7163 3.38421 -2.42096 0
M  V30 71 H 6.5923 4.70806 -2.82193 0
M  V30 72 H 6.8533 4.27131 -1.14068 0
M  V30 73 N 5.9124 1.20967 1.01018 0
M  V30 74 C 7.1374 1.0503 1.78839 0
M  V30 75 C 7.5624 -0.395752 1.8389 0
M  V30 76 O 6.9204 -1.28529 1.27867 0
M  V30 77 C 6.9684 1.64602 3.2084 0
M  V30 78 O 6.0724 0.887988 4.02726 0
M  V30 79 H 5.4134 0.369987 0.551367 0
M  V30 80 H 7.9434 1.60399 1.27018 0
M  V30 81 H 7.9534 1.68607 3.71532 0
M  V30 82 H 6.6284 2.69841 3.16479 0
M  V30 83 H 5.2054 0.922648 3.61305 0
M  V30 84 N 7.3905 -1.2043 1.01659 0
M  V30 85 C 8.6185 -1.93777 0.725132 0
M  V30 86 C 9.0335 -1.74772 -0.714166 0
M  V30 87 O 8.3905 -1.06169 -1.4844 0
M  V30 88 C 8.4415 -3.45876 1.05129 0
M  V30 89 O 8.1625 -3.6426 2.43406 0
M  V30 90 C 9.6635 -4.36368 0.780891 0
M  V30 91 H 6.8835 -0.615901 0.266284 0
M  V30 92 H 9.4275 -1.52922 1.35776 0
M  V30 93 H 7.5825 -3.8461 0.464065 0
M  V30 94 H 7.9965 -4.58246 2.55169 0
M  V30 95 H 9.4705 -5.41743 1.05918 0
M  V30 96 H 9.9475 -4.38275 -0.284937 0
M  V30 97 H 10.5535 -4.03296 1.35027 0
M  V30 98 N 8.8686 -0.792821 -1.36206 0
M  V30 99 C 10.1146 -0.36733 -1.99446 0
M  V30 100 C 10.4476 1.05917 -1.62774 0
M  V30 101 O 9.7226 1.7324 -0.88421 0
M  V30 102 C 10.0056 -0.535044 -3.56103 0
M  V30 103 C 9.8586 -2.00548 -4.02617 0
M  V30 104 C 11.1776 0.0478191 -4.40074 0
M  V30 105 H 8.2966 -0.134941 -0.724541 0
M  V30 106 H 10.9386 -0.999794 -1.61568 0
M  V30 107 H 9.0886 0.00336329 -3.885 0
M  V30 108 H 10.7606 -2.60521 -3.80692 0
M  V30 109 H 9.0036 -2.50686 -3.54032 0
M  V30 110 H 9.6746 -2.07377 -5.11565 0
M  V30 111 H 12.1506 -0.411822 -4.14057 0
M  V30 112 H 11.0266 -0.0995336 -5.4881 0
M  V30 113 H 11.2876 1.14025 -4.27142 0
M  V30 114 N 10.3467 1.47872 -0.545128 0
M  V30 115 C 11.3097 2.28337 0.198717 0
M  V30 116 C 12.3097 1.36255 0.853888 0
M  V30 117 O 13.4997 1.59003 0.711606 0
M  V30 118 C 10.6317 3.15585 1.28915 0
M  V30 119 H 11.8247 2.95567 -0.507941 0
M  V30 120 H 9.3777 1.53362 -0.301616 0
M  V30 121 H 10.1127 2.53019 2.02859 0
M  V30 122 H 9.8977 3.83337 0.824309 0
M  V30 123 H 11.3877 3.76243 1.81194 0
M  V30 124 N 11.8248 0.280983 1.55075 0
M  V30 125 C 12.7348 -0.61388 2.26426 0
M  V30 126 C 13.7508 -1.16521 1.29224 0
M  V30 127 O 14.9268 -1.19426 1.62171 0
M  V30 128 C 11.9918 -1.7788 2.9759 0
M  V30 129 C 11.0528 -1.26355 4.10284 0
M  V30 130 C 10.2858 -2.37295 4.78045 0
M  V30 131 O 10.5088 -3.56777 4.45047 0
M  V30 132 O 9.4428 -2.05119 5.65871 0
M  V30 133 H 13.2688 -0.0356932 3.03679 0
M  V30 134 H 10.8538 0.0481686 1.49322 0
M  V30 135 H 12.7358 -2.45791 3.42293 0
M  V30 136 H 11.4108 -2.34397 2.23249 0
M  V30 137 H 10.3178 -0.550735 3.70024 0
M  V30 138 H 11.6508 -0.744065 4.86543 0
M  V30 139 N 13.3029 -1.57598 0.00835791 0
M  V30 140 C 14.2329 -2.1198 -0.979113 0
M  V30 141 C 15.2139 -1.03091 -1.35301 0
M  V30 142 O 16.3989 -1.30818 -1.43528 0
M  V30 143 C 13.5289 -2.62995 -2.26828 0
M  V30 144 C 12.4829 -3.76485 -2.03576 0
M  V30 145 C 11.8089 -4.13846 -3.38579 0
M  V30 146 C 13.1089 -5.0342 -1.39161 0
M  V30 147 H 14.8029 -2.94738 -0.526281 0
M  V30 148 H 12.3489 -1.41783 -0.251704 0
M  V30 149 H 14.3019 -2.99669 -2.96271 0
M  V30 150 H 13.0259 -1.7737 -2.7424 0
M  V30 151 H 11.6849 -3.40217 -1.36557 0
M  V30 152 H 11.3329 -3.25232 -3.83709 0
M  V30 153 H 11.0329 -4.90312 -3.23834 0
M  V30 154 H 12.5569 -4.53086 -4.09323 0
M  V30 155 H 13.9709 -5.37812 -1.98573 0
M  V30 156 H 12.3679 -5.84746 -1.34878 0
M  V30 157 H 13.4379 -4.83548 -0.361868 0
M  V30 158 N 14.781 0.264519 -1.55364 0
M  V30 159 C 16.197 0.61215 -1.47394 0
M  V30 160 C 16.397 1.89134 -0.695018 0
M  V30 161 O 15.453 2.51563 -0.217275 0
M  V30 162 C 16.766 0.731235 -2.91674 0
M  V30 163 C 18.314 0.82473 -3.01939 0
M  V30 164 C 18.789 0.975522 -4.4749 0
M  V30 165 N 20.28 1.04083 -4.51354 0
M  V30 166 C 21.015 1.17646 -5.61201 0
M  V30 167 N 20.511 1.27874 -6.80896 0
M  V30 168 N 22.304 1.20823 -5.48961 0
M  V30 169 H 14.455 -0.575456 -2.04456 0
M  V30 170 H 16.718 -0.196099 -0.927496 0
M  V30 171 H 16.424 -0.138392 -3.51428 0
M  V30 172 H 16.298 1.60883 -3.41169 0
M  V30 173 H 18.685 1.68482 -2.42276 0
M  V30 174 H 18.766 -0.0776479 -2.55682 0
M  V30 175 H 18.41 0.120058 -5.07758 0
M  V30 176 H 18.34 1.89268 -4.91412 0
M  V30 177 H 20.831 0.973846 -3.65136 0
M  V30 178 H 21.144 1.38081 -7.60364 0
M  V30 179 H 19.489 1.24863 -6.83692 0
M  V30 180 H 22.68 1.12469 -4.54388 0
M  V30 181 H 22.853 1.31049 -6.3461 0
M  V30 182 N 16.2591 1.48442 0.529413 0
M  V30 183 C 17.2221 1.62524 1.61612 0
M  V30 184 C 18.2221 0.498509 1.52877 0
M  V30 185 O 19.4121 0.76431 1.56537 0
M  V30 186 C 16.5441 1.59597 3.01233 0
M  V30 187 H 17.7371 2.59423 1.50465 0
M  V30 188 H 15.2901 1.37047 0.751514 0
M  V30 189 H 16.0251 0.641781 3.17886 0
M  V30 190 H 15.8101 2.41397 3.08982 0
M  V30 191 H 17.3001 1.72646 3.80241 0
M  V30 192 N 17.7372 -0.778329 1.37039 0
M  V30 193 C 18.7002 -1.87301 1.32102 0
M  V30 194 C 19.7002 -1.59198 0.226405 0
M  V30 195 O 20.8902 -1.67403 0.481861 0
M  V30 196 C 18.0222 -3.24309 1.05055 0
M  V30 197 H 19.2152 -1.93093 2.29467 0
M  V30 198 H 16.7682 -0.977358 1.21973 0
M  V30 199 H 17.5032 -3.24196 0.0819373 0
M  V30 200 H 17.2882 -3.46098 1.84279 0
M  V30 201 H 18.7782 -4.04382 1.04234 0
M  V30 202 N 19.2153 -1.21501 -1.00376 0
M  V30 203 C 20.1453 -0.999478 -2.11028 0
M  V30 204 C 21.1263 0.0759671 -1.6993 0
M  V30 205 O 22.3113 -0.0841106 -1.94018 0
M  V30 206 C 19.4413 -0.564709 -3.42678 0
M  V30 207 C 18.3953 -1.58486 -3.97576 0
M  V30 208 C 17.7213 -1.00628 -5.25146 0
M  V30 209 C 19.0213 -2.97204 -4.29496 0
M  V30 210 H 20.7153 -1.92495 -2.29317 0
M  V30 211 H 18.2613 -0.92693 -1.102 0
M  V30 212 H 20.2143 -0.401091 -4.19487 0
M  V30 213 H 18.9383 0.396411 -3.24185 0
M  V30 214 H 17.5973 -1.73606 -3.22888 0
M  V30 215 H 17.2453 -0.0368439 -5.02987 0
M  V30 216 H 16.9453 -1.68771 -5.62841 0
M  V30 217 H 18.4693 -0.854015 -6.04598 0
M  V30 218 H 19.8833 -2.8552 -4.97143 0
M  V30 219 H 18.2803 -3.62372 -4.78338 0
M  V30 220 H 19.3503 -3.47956 -3.3772 0
M  V30 221 N 20.6934 1.19889 -1.02296 0
M  V30 222 C 22.1044 1.71124 -0.746568 0
M  V30 223 C 22.4554 1.81939 0.734335 0
M  V30 224 O 21.5804 1.48639 1.57275 0
M  V30 225 C 22.1754 3.10804 -1.34857 0
M  V30 226 C 20.7344 3.59323 -1.1209 0
M  V30 227 C 19.8814 2.3635 -1.45031 0
M  V30 228 H 22.8324 1.04813 -1.19163 0
M  V30 229 H 22.8534 3.73186 -0.742437 0
M  V30 230 H 22.3654 3.029 -2.42638 0
M  V30 231 H 20.4664 3.7255 -0.0610337 0
M  V30 232 H 20.5794 4.4378 -1.80544 0
M  V30 233 H 18.9434 2.39399 -0.869487 0
M  V30 234 H 19.7264 2.31081 -2.53883 0
M  V30 235 N 22.1715 0.800033 1.35784 0
M  V30 236 C 23.5875 0.482977 1.52117 0
M  V30 237 C 23.7875 -0.996948 1.75109 0
M  V30 238 O 22.8435 -1.78216 1.78872 0
M  V30 239 C 24.1565 1.32264 2.70049 0
M  V30 240 C 25.7045 1.31742 2.83924 0
M  V30 241 C 26.1795 2.14106 4.04874 0
M  V30 242 N 27.6705 2.11607 4.12039 0
M  V30 243 C 28.4055 2.72099 5.04727 0
M  V30 244 N 27.9015 3.41492 6.02789 0
M  V30 245 N 29.6945 2.61776 4.97423 0
M  V30 246 H 21.8455 1.75856 1.19115 0
M  V30 247 H 24.1085 0.748122 0.582252 0
M  V30 248 H 23.8145 2.37261 2.59616 0
M  V30 249 H 23.6885 0.971303 3.6448 0
M  V30 250 H 26.0755 0.275333 2.93813 0
M  V30 251 H 26.1565 1.70859 1.9037 0
M  V30 252 H 25.8005 3.18351 3.95746 0
M  V30 253 H 25.7305 1.72353 4.97596 0
M  V30 254 H 28.2215 1.61112 3.41835 0
M  V30 255 H 28.5345 3.84953 6.70098 0
M  V30 256 H 26.8795 3.45596 6.02983 0
M  V30 257 H 30.0705 2.07157 4.19766 0
M  V30 258 H 30.2435 3.0921 5.69468 0
M  V30 259 N 23.6496 -1.47581 0.552962 0
M  V30 260 C 24.5596 -2.33743 -0.200353 0
M  V30 261 C 25.5756 -1.47928 -0.916151 0
M  V30 262 O 26.7516 -1.80865 -0.885993 0
M  V30 263 C 23.8166 -3.24536 -1.21973 0
M  V30 264 C 22.8776 -4.26238 -0.511819 0
M  V30 265 C 22.1106 -5.12693 -1.48263 0
M  V30 266 O 22.3336 -5.01525 -2.71714 0
M  V30 267 O 21.2676 -5.93375 -1.00945 0
M  V30 268 H 25.0936 -2.9945 0.506304 0
M  V30 269 H 22.6786 -1.46071 0.313622 0
M  V30 270 H 24.5606 -3.80631 -1.80827 0
M  V30 271 H 23.2356 -2.61462 -1.90839 0
M  V30 272 H 22.1426 -3.73914 0.117799 0
M  V30 273 H 23.4756 -4.92014 0.135308 0
M  V30 274 N 25.1277 -0.289203 -1.54924 0
M  V30 275 C 26.3757 0.322879 -1.99504 0
M  V30 276 C 26.6967 1.55313 -1.1791 0
M  V30 277 O 25.9667 1.94001 -0.272097 0
M  V30 278 H 24.5467 0.122291 -0.736922 0
M  V30 279 H 27.2087 -0.397802 -1.90797 0
M  V30 280 H 26.3047 0.603061 -3.06218 0
M  V30 281 N 26.6058 1.57591 -0.0167156 0
M  V30 282 C 27.8518 1.91567 0.665582 0
M  V30 283 C 28.1848 0.892298 1.72487 0
M  V30 284 O 27.4598 -0.0867127 1.94307 0
M  V30 285 C 27.7428 3.36069 1.29342 0
M  V30 286 C 27.5958 4.49135 0.244541 0
M  V30 287 C 28.9148 3.803 2.21495 0
M  V30 288 H 26.0338 0.69666 0.240488 0
M  V30 289 H 28.6758 1.89866 -0.0714356 0
M  V30 290 H 26.8258 3.3765 1.92158 0
M  V30 291 H 28.4978 4.59689 -0.385228 0
M  V30 292 H 26.7408 4.3165 -0.431379 0
M  V30 293 H 27.4118 5.47242 0.723207 0
M  V30 294 H 29.8878 3.80377 1.68678 0
M  V30 295 H 28.7638 4.82127 2.62382 0
M  V30 296 H 29.0248 3.15104 3.101 0
M  V30 297 N 28.0839 -0.256276 1.55502 0
M  V30 298 C 29.3319 -0.983672 1.76545 0
M  V30 299 C 29.6529 -1.86206 0.578982 0
M  V30 300 O 28.9229 -1.91656 -0.405577 0
M  V30 301 H 27.5029 -0.366191 0.651086 0
M  V30 302 H 30.1649 -0.276479 1.92929 0
M  V30 303 H 29.2609 -1.61087 2.67315 0
M  V30 304 N 29.562 -1.4872 -0.521534 0
M  V30 305 C 30.809 -1.57168 -1.27689 0
M  V30 306 C 31.137 -0.249275 -1.92896 0
M  V30 307 O 30.392 0.761162 -1.80291 0
M  V30 308 C 30.691 -2.66497 -2.38148 0
M  V30 309 C 30.357 -4.08664 -1.90538 0
M  V30 310 C 29.019 -4.47357 -1.77271 0
M  V30 311 C 31.371 -4.97724 -1.54663 0
M  V30 312 C 28.699 -5.72905 -1.26478 0
M  V30 313 C 31.051 -6.2377 -1.05329 0
M  V30 314 C 29.715 -6.61311 -0.906861 0
M  V30 315 H 28.985 -0.575117 -0.467249 0
M  V30 316 H 31.632 -1.82472 -0.581051 0
M  V30 317 H 29.937 -2.35085 -3.13437 0
M  V30 318 H 31.634 -2.70246 -2.96257 0
M  V30 319 H 28.224 -3.78111 -2.01816 0
M  V30 320 H 32.408 -4.68501 -1.63768 0
M  V30 321 H 27.664 -6.00709 -1.13835 0
M  V30 322 H 31.838 -6.9217 -0.76644 0
M  V30 323 H 29.465 -7.5848 -0.511083 0
M  V30 324 N 31.0401 0.771051 -1.3745 0
M  V30 325 C 32.2861 1.5319 -1.32894 0
M  V30 326 C 32.6191 1.94008 0.0862511 0
M  V30 327 O 31.8941 1.64124 1.04373 0
M  V30 328 C 32.1771 2.79648 -2.26868 0
M  V30 329 C 32.0301 2.45079 -3.77169 0
M  V30 330 C 33.3491 3.81583 -2.19277 0
M  V30 331 H 30.4681 0.555744 -0.484064 0
M  V30 332 H 33.1101 0.884492 -1.68157 0
M  V30 333 H 31.2601 3.34891 -1.96926 0
M  V30 334 H 32.9321 1.95745 -4.1771 0
M  V30 335 H 31.1751 1.77767 -3.95704 0
M  V30 336 H 31.8461 3.35478 -4.38359 0
M  V30 337 H 34.3221 3.35835 -2.45671 0
M  V30 338 H 33.1981 4.67787 -2.87171 0
M  V30 339 H 33.4591 4.25897 -1.18592 0
M  V30 340 N 32.5182 1.22032 0.997298 0
M  V30 341 C 33.9292 1.0397 1.55071 0
M  V30 342 C 34.2802 -0.398192 1.92117 0
M  V30 343 O 33.4052 -1.28254 1.74298 0
M  V30 344 C 34.0002 1.88109 2.81781 0
M  V30 345 C 32.5592 1.74357 3.33581 0
M  V30 346 C 31.7062 1.84846 2.06706 0
M  V30 347 H 34.6572 1.35941 0.818883 0
M  V30 348 H 34.6782 1.39589 3.53971 0
M  V30 349 H 34.1902 2.92754 2.54787 0
M  V30 350 H 32.2912 0.72427 3.65493 0
M  V30 351 H 32.4042 2.56772 4.04481 0
M  V30 352 H 30.7682 1.28238 2.20062 0
M  V30 353 H 31.5512 2.91014 1.82114 0
M  V30 354 N 33.9963 -1.19345 1.0293 0
M  V30 355 C 35.2243 -1.92997 0.745644 0
M  V30 356 C 35.6393 -1.75519 -0.695589 0
M  V30 357 O 34.9963 -1.07737 -1.47306 0
M  V30 358 C 35.0473 -3.44741 1.08792 0
M  V30 359 O 34.7683 -3.61658 2.47256 0
M  V30 360 C 36.2693 -4.35515 0.827129 0
M  V30 361 H 33.4893 -0.613042 0.272801 0
M  V30 362 H 36.0333 -1.51473 1.3739 0
M  V30 363 H 34.1883 -3.84097 0.504832 0
M  V30 364 H 34.6023 -4.55514 2.60015 0
M  V30 365 H 36.0763 -5.40589 1.11658 0
M  V30 366 H 36.5533 -4.38552 -0.238436 0
M  V30 367 H 37.1593 -4.01841 1.39297 0
M  V30 368 N 35.4744 -0.807222 -1.35358 0
M  V30 369 C 36.4074 -0.163572 -2.27613 0
M  V30 370 C 37.3854 0.670817 -1.48118 0
M  V30 371 O 38.5694 0.63796 -1.77376 0
M  V30 372 C 35.6964 0.773015 -3.29761 0
M  V30 373 C 34.7424 0.0181653 -4.26496 0
M  V30 374 S 35.5754 -1.31831 -5.19019 0
M  V30 375 C 36.7314 -0.38619 -6.24707 0
M  V30 376 H 36.9644 -0.945757 -2.81856 0
M  V30 377 H 34.4974 -0.602315 -1.42167 0
M  V30 378 H 36.4554 1.30788 -3.89108 0
M  V30 379 H 35.1164 1.52859 -2.74396 0
M  V30 380 H 34.3094 0.729534 -4.98692 0
M  V30 381 H 33.9114 -0.446761 -3.71322 0
M  V30 382 H 36.2034 0.428295 -6.76145 0
M  V30 383 H 37.1464 -1.07736 -6.99856 0
M  V30 384 H 37.5544 0.018398 -5.64497 0
M  V30 385 N 36.9525 1.47285 -0.560781 0
M  V30 386 C 38.2005 2.02064 -0.0379868 0
M  V30 387 C 38.5215 1.43711 1.31803 0
M  V30 388 O 37.7915 0.61362 1.86042 0
M  V30 389 H 36.3715 0.746918 -0.0110531 0
M  V30 390 H 39.0335 1.80648 -0.731598 0
M  V30 391 H 38.1295 3.12064 0.0474463 0
M  V30 392 N 38.4306 0.297415 1.54768 0
M  V30 393 C 39.6606 -0.315165 2.04182 0
M  V30 394 C 40.0686 -1.4834 1.17439 0
M  V30 395 O 39.4116 -1.82695 0.191891 0
M  V30 396 C 39.4736 -0.837583 3.49607 0
M  V30 397 C 39.1376 0.204912 4.5654 0
M  V30 398 C 40.1346 1.03214 5.09552 0
M  V30 399 C 37.8196 0.345578 5.0111 0
M  V30 400 C 39.8136 1.986 6.05671 0
M  V30 401 C 37.5006 1.30289 5.97049 0
M  V30 402 C 38.4986 2.12159 6.49213 0
M  V30 403 O 38.1866 3.06268 7.43273 0
M  V30 404 H 37.9186 -0.0729646 0.672051 0
M  V30 405 H 40.4726 0.433907 2.00765 0
M  V30 406 H 38.7026 -1.63712 3.50336 0
M  V30 407 H 40.3916 -1.36566 3.82236 0
M  V30 408 H 41.1576 0.934312 4.75916 0
M  V30 409 H 37.0366 -0.28171 4.60138 0
M  V30 410 H 40.5806 2.62542 6.46311 0
M  V30 411 H 36.4776 1.40145 6.30103 0
M  V30 412 H 37.2456 3.01205 7.61064 0
M  V30 413 N 39.9087 -1.5758 0.0250728 0
M  V30 414 C 40.8387 -2.13007 -0.956575 0
M  V30 415 C 41.8197 -1.0452 -1.342 0
M  V30 416 O 43.0047 -1.32332 -1.42133 0
M  V30 417 C 40.1347 -2.65386 -2.24026 0
M  V30 418 C 39.0887 -3.78623 -1.99571 0
M  V30 419 C 38.4147 -4.17414 -3.3417 0
M  V30 420 C 39.7147 -5.04867 -1.33814 0
M  V30 421 H 41.4087 -2.9528 -0.494991 0
M  V30 422 H 38.9547 -1.42042 -0.236651 0
M  V30 423 H 40.9077 -3.02794 -2.93076 0
M  V30 424 H 39.6317 -1.80268 -2.72343 0
M  V30 425 H 38.2907 -3.41646 -1.32941 0
M  V30 426 H 37.9387 -3.29284 -3.80238 0
M  V30 427 H 37.6387 -4.93719 -3.18615 0
M  V30 428 H 39.1627 -4.57402 -4.04495 0
M  V30 429 H 40.5767 -5.39888 -1.92857 0
M  V30 430 H 38.9737 -5.86144 -1.28669 0
M  V30 431 H 40.0437 -4.83904 -0.310561 0
M  V30 432 N 41.3868 0.248026 -1.55636 0
M  V30 433 C 42.3368 1.30994 -1.86614 0
M  V30 434 C 43.3208 1.43543 -0.726918 0
M  V30 435 O 44.5128 1.46804 -0.988818 0
M  V30 436 C 41.6418 2.6656 -2.16335 0
M  V30 437 C 40.7278 2.58019 -3.36581 0
M  V30 438 N 41.1188 2.1911 -4.55878 0
M  V30 439 C 39.4168 2.89035 -3.39669 0
M  V30 440 C 40.1178 2.21174 -5.38012 0
M  V30 441 N 39.0938 2.60632 -4.77045 0
M  V30 442 H 42.8958 0.999583 -2.76379 0
M  V30 443 H 40.4098 0.456652 -1.55848 0
M  V30 444 H 42.4068 3.43194 -2.36692 0
M  V30 445 H 41.0668 2.98463 -1.27867 0
M  V30 446 H 42.0778 1.90672 -4.81523 0
M  V30 447 H 38.7548 3.25485 -2.61469 0
M  V30 448 H 40.1448 1.9344 -6.43452 0
M  V30 449 N 42.8649 1.48995 0.513639 0
M  V30 450 C 44.2809 1.35478 0.843682 0
M  V30 451 C 44.4809 0.378213 1.97919 0
M  V30 452 O 43.5369 -0.194689 2.51748 0
M  V30 453 C 44.8499 2.75901 1.1958 0
M  V30 454 C 46.3979 2.84509 1.30474 0
M  V30 455 C 46.8729 4.25671 1.69021 0
M  V30 456 N 48.3639 4.28422 1.76094 0
M  V30 457 C 49.0989 5.34601 2.07338 0
M  V30 458 N 48.5949 6.5104 2.36894 0
M  V30 459 N 50.3879 5.22007 2.08483 0
M  V30 460 H 42.5389 2.11092 -0.235328 0
M  V30 461 H 44.8019 0.947039 -0.0426669 0
M  V30 462 H 44.5079 3.49001 0.434913 0
M  V30 463 H 44.3819 3.10467 2.1422 0
M  V30 464 H 46.7689 2.11655 2.05637 0
M  V30 465 H 46.8499 2.53542 0.339155 0
M  V30 466 H 46.4939 4.99048 0.944135 0
M  V30 467 H 46.4239 4.54094 2.66658 0
M  V30 468 H 48.9149 3.44441 1.55464 0
M  V30 469 H 49.2279 7.2779 2.59887 0
M  V30 470 H 47.5729 6.54287 2.34378 0
M  V30 471 H 50.7639 4.30051 1.84861 0
M  V30 472 H 50.9369 6.04854 2.325 0
M  V30 473 N 44.343 -0.763751 1.37857 0
M  V30 474 C 45.591 -1.51957 1.33243 0
M  V30 475 C 45.912 -1.94835 -0.0801709 0
M  V30 476 O 45.182 -1.66894 -1.02582 0
M  V30 477 H 43.762 -0.563626 0.49024 0
M  V30 478 H 46.424 -0.908504 1.7243 0
M  V30 479 H 45.52 -2.41523 1.97669 0
M  V30 480 N 45.8211 -1.22559 -0.990812 0
M  V30 481 C 46.7711 -0.964807 -2.0658 0
M  V30 482 C 47.7551 0.0853472 -1.60673 0
M  V30 483 O 48.9471 -0.125443 -1.76555 0
M  V30 484 C 46.0761 -0.546707 -3.38919 0
M  V30 485 C 45.1621 -1.6317 -3.91454 0
M  V30 486 N 45.5531 -2.85985 -4.17189 0
M  V30 487 C 43.8511 -1.50387 -4.19881 0
M  V30 488 C 44.5521 -3.56159 -4.59919 0
M  V30 489 N 43.5281 -2.83637 -4.63736 0
M  V30 490 H 47.3301 -1.89769 -2.24421 0
M  V30 491 H 44.8441 -1.12343 -1.17273 0
M  V30 492 H 46.8411 -0.34119 -4.15502 0
M  V30 493 H 45.5011 0.379254 -3.22478 0
M  V30 494 H 46.5121 -3.22392 -4.05319 0
M  V30 495 H 43.1891 -0.644254 -4.12499 0
M  V30 496 H 44.5791 -4.6139 -4.88435 0
M  V30 497 N 47.2992 1.18797 -1.03562 0
M  V30 498 C 48.2292 2.24472 -0.643019 0
M  V30 499 C 49.2102 1.66433 0.351283 0
M  V30 500 O 50.3952 1.92803 0.232505 0
M  V30 501 C 47.5252 3.473 4.24935e-05 0
M  V30 502 C 46.4792 4.18055 -0.917257 0
M  V30 503 C 45.8052 5.34519 -0.138941 0
M  V30 504 C 47.1052 4.72109 -2.23407 0
M  V30 505 H 48.7992 2.57566 -1.52643 0
M  V30 506 H 46.3452 1.23806 -0.735394 0
M  V30 507 H 48.2982 4.20426 0.286383 0
M  V30 508 H 47.0222 3.13424 0.918299 0
M  V30 509 H 45.6812 3.46821 -1.1879 0
M  V30 510 H 45.3292 4.96891 0.781562 0
M  V30 511 H 45.0292 5.82794 -0.750005 0
M  V30 512 H 46.5532 6.10438 0.1405 0
M  V30 513 H 47.9672 5.36955 -2.00879 0
M  V30 514 H 46.3642 5.30897 -2.79765 0
M  V30 515 H 47.4342 3.89807 -2.88407 0
M  V30 516 N 48.7773 0.814389 1.34928 0
M  V30 517 C 49.7403 0.235759 2.27984 0
M  V30 518 C 50.7403 -0.581412 1.49921 0
M  V30 519 O 51.9303 -0.398758 1.69575 0
M  V30 520 C 49.0623 -0.670433 3.34242 0
M  V30 521 H 50.2553 1.05659 2.80671 0
M  V30 522 H 47.8083 0.585614 1.44915 0
M  V30 523 H 48.5433 -1.51466 2.86755 0
M  V30 524 H 48.3283 -0.0860822 3.92005 0
M  V30 525 H 49.8183 -1.06935 4.03676 0
M  V30 526 N 50.2554 -1.46986 0.568584 0
M  V30 527 C 51.1854 -2.32946 -0.160753 0
M  V30 528 C 52.1664 -1.44487 -0.897631 0
M  V30 529 O 53.3514 -1.73327 -0.875867 0
M  V30 530 C 50.4814 -3.26494 -1.18403 0
M  V30 531 C 49.4354 -4.24282 -0.562895 0
M  V30 532 C 48.7614 -5.07236 -1.69163 0
M  V30 533 C 50.0614 -5.19989 0.490761 0
M  V30 534 H 51.7554 -2.94175 0.556916 0
M  V30 535 H 49.3014 -1.4146 0.26927 0
M  V30 536 H 51.2544 -3.85477 -1.70251 0
M  V30 537 H 49.9784 -2.63343 -1.93179 0
M  V30 538 H 48.6374 -3.66541 -0.0656164 0
M  V30 539 H 48.2854 -4.4048 -2.42871 0
M  V30 540 H 47.9854 -5.7345 -1.28174 0
M  V30 541 H 49.5094 -5.6908 -2.21314 0
M  V30 542 H 50.9234 -5.73271 0.0579047 0
M  V30 543 H 49.3204 -5.94469 0.820165 0
M  V30 544 H 50.3904 -4.64777 1.3824 0
M  V30 545 N 51.7335 -0.305618 -1.54608 0
M  V30 546 C 52.9795 0.302746 -2.00528 0
M  V30 547 C 53.3125 1.53184 -1.19367 0
M  V30 548 O 52.5875 1.92598 -0.271321 0
M  V30 549 C 52.8705 0.654756 -3.54097 0
M  V30 550 C 52.7235 -0.583793 -4.45995 0
M  V30 551 C 54.0425 1.47947 -4.14487 0
M  V30 552 H 51.1615 0.108564 -0.72896 0
M  V30 553 H 53.8035 -0.418634 -1.85331 0
M  V30 554 H 51.9535 1.26935 -3.67178 0
M  V30 555 H 53.6255 -1.22224 -4.44814 0
M  V30 556 H 51.8685 -1.21615 -4.16404 0
M  V30 557 H 52.5395 -0.293287 -5.5122 0
M  V30 558 H 55.0155 0.96013 -4.04871 0
M  V30 559 H 53.8915 1.69454 -5.22088 0
M  V30 560 H 54.1525 2.47011 -3.66658 0
M  V30 561 N 53.2116 1.57565 -0.0334293 0
M  V30 562 C 54.1216 2.13943 0.962572 0
M  V30 563 C 55.1376 1.09276 1.35406 0
M  V30 564 O 56.3136 1.41355 1.4346 0
M  V30 565 C 53.3786 2.65887 2.22497 0
M  V30 566 C 52.4396 3.85286 1.8935 0
M  V30 567 C 51.6726 4.34743 3.09571 0
M  V30 568 O 51.8956 3.83352 4.22371 0
M  V30 569 O 50.8296 5.26538 2.91618 0
M  V30 570 H 54.6556 2.99333 0.513169 0
M  V30 571 H 52.2406 1.4822 0.18743 0
M  V30 572 H 54.1226 2.99346 2.96598 0
M  V30 573 H 52.7976 1.83578 2.6661 0
M  V30 574 H 51.7046 3.56746 1.1262 0
M  V30 575 H 53.0376 4.68771 1.5005 0
M  V30 576 N 54.6897 -0.239769 1.55765 0
M  V30 577 C 56.1057 -0.588624 1.48349 0
M  V30 578 C 56.3057 -1.88005 0.72502 0
M  V30 579 O 55.3617 -2.51186 0.257269 0
M  V30 580 C 56.6747 -0.68474 2.928 0
M  V30 581 C 58.2227 -0.77659 3.03213 0
M  V30 582 C 58.6977 -0.904207 4.48986 0
M  V30 583 N 60.1887 -0.968896 4.52953 0
M  V30 584 C 60.9237 -1.08703 5.63002 0
M  V30 585 N 60.4197 -1.17026 6.82845 0
M  V30 586 N 62.2127 -1.12074 5.50814 0
M  V30 587 H 54.3637 0.607911 2.03515 0
M  V30 588 H 56.6267 0.21083 0.924259 0
M  V30 589 H 56.3327 0.194284 3.51163 0
M  V30 590 H 56.2067 -1.55435 3.43686 0
M  V30 591 H 58.5937 -1.64606 2.44926 0
M  V30 592 H 58.6747 0.118315 2.55526 0
M  V30 593 H 58.3187 -0.0392633 5.07885 0
M  V30 594 H 58.2487 -1.81426 4.9436 0
M  V30 595 H 60.7397 -0.915633 3.6664 0
M  V30 596 H 61.0527 -1.25966 7.62465 0
M  V30 597 H 59.3977 -1.13971 6.85591 0
M  V30 598 H 62.5887 -1.05226 4.5612 0
M  V30 599 H 62.7617 -1.20936 6.36615 0
M  V30 600 N 56.1678 -1.49265 -0.50573 0
M  V30 601 C 57.1308 -1.65075 -1.59006 0
M  V30 602 C 58.1308 -0.522768 -1.52065 0
M  V30 603 O 59.3208 -0.789117 -1.55302 0
M  V30 604 C 56.4528 -1.64369 -2.98656 0
M  V30 605 H 57.6458 -2.61784 -1.46319 0
M  V30 606 H 55.1988 -1.38226 -0.729616 0
M  V30 607 H 55.9338 -0.692272 -3.16825 0
M  V30 608 H 55.7188 -2.46282 -3.05103 0
M  V30 609 H 57.2088 -1.78674 -3.77446 0
M  V30 610 N 57.6459 0.756429 -1.3826 0
M  V30 611 C 59.0619 1.0591 -1.19395 0
M  V30 612 C 59.2619 2.01459 -0.0406567 0
M  V30 613 O 58.3179 2.44909 0.614467 0
M  V30 614 C 59.6309 1.64191 -2.51916 0
M  V30 615 C 61.1789 1.76376 -2.58574 0
M  V30 616 C 61.6539 2.38069 -3.91264 0
M  V30 617 N 63.1449 2.45503 -3.92788 0
M  V30 618 C 63.8799 2.94126 -4.92217 0
M  V30 619 N 63.3759 3.42805 -6.02043 0
M  V30 620 N 65.1689 2.9314 -4.7961 0
M  V30 621 H 57.3199 0.122313 -2.12048 0
M  V30 622 H 59.5829 0.116892 -0.940766 0
M  V30 623 H 59.2889 1.01451 -3.3675 0
M  V30 624 H 59.1629 2.6329 -2.70108 0
M  V30 625 H 61.5499 2.38244 -1.74137 0
M  V30 626 H 61.6309 0.759894 -2.44252 0
M  V30 627 H 61.2749 1.76835 -4.76121 0
M  V30 628 H 61.2049 3.39091 -4.02895 0
M  V30 629 H 63.6959 2.1107 -3.13461 0
M  V30 630 H 64.0089 3.78354 -6.73846 0
M  V30 631 H 62.3539 3.4087 -6.05667 0
M  V30 632 H 65.5449 2.54419 -3.92923 0
M  V30 633 H 65.7179 3.30721 -5.5725 0
M  V30 634 N 59.124 1.23083 0.984299 0
M  V30 635 C 60.54 0.992637 1.24975 0
M  V30 636 C 60.74 -0.308618 1.99123 0
M  V30 637 O 59.796 -1.02905 2.30579 0
M  V30 638 C 61.109 2.19698 2.05312 0
M  V30 639 C 62.657 2.24147 2.18465 0
M  V30 640 C 63.132 3.44157 3.02192 0
M  V30 641 N 64.623 3.44372 3.09777 0
M  V30 642 C 65.358 4.33886 3.74874 0
M  V30 643 N 64.854 5.3363 4.41827 0
M  V30 644 N 66.647 4.21639 3.71721 0
M  V30 645 H 58.798 2.06731 0.487453 0
M  V30 646 H 61.061 0.906339 0.277944 0
M  V30 647 H 60.767 3.1411 1.58201 0
M  V30 648 H 60.641 2.20465 3.06064 0
M  V30 649 H 63.028 1.30277 2.64786 0
M  V30 650 H 63.109 2.27415 1.17115 0
M  V30 651 H 62.753 4.38332 2.56568 0
M  V30 652 H 62.683 3.3813 4.03702 0
M  V30 653 H 65.174 2.72201 2.62135 0
M  V30 654 H 65.487 5.98196 4.89266 0
M  V30 655 H 63.832 5.37534 4.40548 0
M  V30 656 H 67.023 3.42962 3.18582 0
M  V30 657 H 67.196 4.91604 4.22173 0
M  V30 658 N 60.6021 -1.18246 1.0419 0
M  V30 659 C 61.5121 -2.25574 0.644476 0
M  V30 660 C 62.5281 -1.70845 -0.329826 0
M  V30 661 O 63.7041 -2.00554 -0.184443 0
M  V30 662 C 60.7691 -3.46697 0.014877 0
M  V30 663 C 59.8301 -4.16554 1.03834 0
M  V30 664 C 59.0631 -5.31894 0.438692 0
M  V30 665 O 59.2861 -5.65385 -0.754752 0
M  V30 666 O 58.2201 -5.90459 1.168 0
M  V30 667 H 62.0461 -2.61836 1.53869 0
M  V30 668 H 59.6311 -1.25352 0.812854 0
M  V30 669 H 61.5131 -4.20062 -0.335538 0
M  V30 670 H 60.1881 -3.12255 -0.853138 0
M  V30 671 H 59.0951 -3.45251 1.44057 0
M  V30 672 H 60.4281 -4.54998 1.87716 0
M  V30 673 N 62.0802 -0.821533 -1.34494 0
M  V30 674 C 63.0282 -0.230702 -2.31453 0
M  V30 675 C 64.0222 0.627793 -1.57338 0
M  V30 676 O 65.2282 0.519288 -1.72347 0
M  V30 677 H 61.6032 -0.0558577 -0.749923 0
M  V30 678 H 63.5742 -1.06332 -2.78812 0
M  V30 679 C 62.3232 0.59391 -3.4259 0
M  V30 680 H 61.6462 -0.0573588 -3.99759 0
M  V30 681 H 63.0862 0.973446 -4.12674 0
M  V30 682 C 61.5452 1.76568 -2.86924 0
M  V30 683 O 62.0752 2.8638 -2.81691 0
M  V30 684 N 60.2812 1.58198 -2.43766 0
M  V30 685 H 59.8282 0.68872 -2.48222 0
M  V30 686 H 59.7862 2.36752 -2.06871 0
M  V30 687 N 63.5583 1.46682 -0.576371 0
M  V30 688 C 64.9693 1.86112 -0.148091 0
M  V30 689 C 65.3203 1.48073 1.2872 0
M  V30 690 O 64.4453 0.892656 1.97131 0
M  V30 691 C 65.0403 3.37786 -0.261982 0
M  V30 692 C 63.5993 3.76235 0.111384 0
M  V30 693 C 62.7463 2.70713 -0.60083 0
M  V30 694 H 65.6973 1.37927 -0.78497 0
M  V30 695 H 65.7183 3.77007 0.514364 0
M  V30 696 H 65.2303 3.6544 -1.30671 0
M  V30 697 H 63.3313 3.54198 1.15649 0
M  V30 698 H 63.4443 4.78391 -0.26052 0
M  V30 699 H 61.8083 2.54666 -0.0417783 0
M  V30 700 H 62.5913 3.01208 -1.64708 0
M  V30 701 N 65.0364 0.313813 1.54444 0
M  V30 702 C 66.2834 -0.291675 2.00388 0
M  V30 703 C 66.6114 -1.52904 1.2021 0
M  V30 704 O 65.8664 -1.93833 0.269707 0
M  V30 705 C 66.1654 -0.680386 3.50864 0
M  V30 706 C 65.8314 0.456699 4.48581 0
M  V30 707 C 64.4934 0.768824 4.75018 0
M  V30 708 C 66.8454 1.22098 5.06697 0
M  V30 709 C 64.1734 1.84812 5.56831 0
M  V30 710 C 66.5254 2.29029 5.89685 0
M  V30 711 C 65.1894 2.60834 6.14428 0
M  V30 712 H 64.4594 -0.106732 0.733273 0
M  V30 713 H 67.1064 0.43557 1.86481 0
M  V30 714 H 65.4114 -1.48791 3.62448 0
M  V30 715 H 67.1084 -1.16026 3.83847 0
M  V30 716 H 63.6984 0.203337 4.28117 0
M  V30 717 H 67.8824 0.993096 4.86263 0
M  V30 718 H 63.1384 2.09912 5.74236 0
M  V30 719 H 67.3124 2.887 6.33739 0
M  V30 720 H 64.9394 3.44596 6.77612 0
M  V30 721 N 66.5145 -1.57545 0.0417849 0
M  V30 722 C 67.7605 -1.92601 -0.635021 0
M  V30 723 C 68.0935 -0.919627 -1.71045 0
M  V30 724 O 67.3685 0.0557892 -1.9442 0
M  V30 725 C 67.6515 -3.38085 -1.23979 0
M  V30 726 C 67.5045 -4.49467 -0.173057 0
M  V30 727 C 68.8235 -3.83776 -2.15416 0
M  V30 728 H 65.9425 -0.700397 -0.229374 0
M  V30 729 H 68.5845 -1.89728 0.101633 0
M  V30 730 H 66.7345 -3.40664 -1.86762 0
M  V30 731 H 68.4065 -4.59018 0.458312 0
M  V30 732 H 66.6495 -4.30909 0.499996 0
M  V30 733 H 67.3205 -5.48323 -0.636054 0
M  V30 734 H 69.7965 -3.83013 -1.62605 0
M  V30 735 H 68.6725 -4.8624 -2.54679 0
M  V30 736 H 68.9335 -3.19998 -3.05047 0
M  V30 737 N 67.9926 0.231505 -1.5589 0
M  V30 738 C 69.2386 0.95877 -1.78705 0
M  V30 739 C 69.5716 1.8438 -0.609725 0
M  V30 740 O 68.8466 1.90521 0.391426 0
M  V30 741 C 69.1296 1.8062 -3.11526 0
M  V30 742 C 68.9826 0.948328 -4.39689 0
M  V30 743 C 70.3016 2.78585 -3.40703 0
M  V30 744 H 67.4206 0.347129 -0.650131 0
M  V30 745 H 70.0626 0.228259 -1.88624 0
M  V30 746 H 68.2126 2.42902 -3.03201 0
M  V30 747 H 69.8846 0.343016 -4.60023 0
M  V30 748 H 68.1276 0.253314 -4.3306 0
M  V30 749 H 68.7986 1.57543 -5.29041 0
M  V30 750 H 71.2746 2.26439 -3.49091 0
M  V30 751 H 70.1506 3.34988 -4.34826 0
M  V30 752 H 70.4116 3.55825 -2.62375 0
M  V30 753 N 69.4707 1.49531 0.497807 0
M  V30 754 C 70.7167 1.59415 1.25358 0
M  V30 755 C 71.0497 0.281422 1.9215 0
M  V30 756 O 70.3247 -0.715249 1.80871 0
M  V30 757 C 70.6077 2.75566 2.3181 0
M  V30 758 C 70.4607 4.16642 1.69498 0
M  V30 759 C 71.7797 2.87347 3.33346 0
M  V30 760 H 68.8987 0.580244 0.454408 0
M  V30 761 H 71.5407 1.81827 0.551262 0
M  V30 762 H 69.6907 2.56587 2.91711 0
M  V30 763 H 71.3627 4.47145 1.13399 0
M  V30 764 H 69.6057 4.22141 0.998978 0
M  V30 765 H 70.2767 4.93792 2.46725 0
M  V30 766 H 72.7527 3.04634 2.83438 0
M  V30 767 H 71.6287 3.70289 4.05188 0
M  V30 768 H 71.8897 1.96834 3.95865 0
M  V30 769 N 70.9488 -0.749086 1.3866 0
M  V30 770 C 72.1738 -1.54344 1.38538 0
M  V30 771 C 72.5988 -1.88088 -0.0216655 0
M  V30 772 O 71.9568 -1.50899 -1.00494 0
M  V30 773 C 72.0048 -2.8164 2.25192 0
M  V30 774 O 71.1088 -3.7698 1.67212 0
M  V30 775 H 70.4498 -0.466654 0.472367 0
M  V30 776 H 72.9798 -0.925355 1.82478 0
M  V30 777 H 72.9898 -3.30519 2.3921 0
M  V30 778 H 71.6648 -2.56411 3.27454 0
M  V30 779 H 70.2418 -3.35699 1.6236 0
M  V30 780 N 72.4269 -1.23603 -0.977757 0
M  V30 781 C 73.6729 -1.07129 -1.72195 0
M  V30 782 C 74.0059 0.390501 -1.90233 0
M  V30 783 O 73.2809 1.28902 -1.45653 0
M  V30 784 C 73.5639 -1.80031 -3.11867 0
M  V30 785 C 73.4169 -3.33899 -3.01383 0
M  V30 786 C 74.7359 -1.56492 -4.11337 0
M  V30 787 H 71.8549 -0.390571 -0.624999 0
M  V30 788 H 74.4969 -1.52142 -1.13811 0
M  V30 789 H 72.6469 -1.41768 -3.6171 0
M  V30 790 H 74.3189 -3.81699 -2.59043 0
M  V30 791 H 72.5619 -3.62796 -2.37827 0
M  V30 792 H 73.2329 -3.801 -4.00285 0
M  V30 793 H 75.7089 -1.89757 -3.70313 0
M  V30 794 H 74.5849 -2.09973 -5.07151 0
M  V30 795 H 74.8459 -0.500874 -4.39254 0
M  V30 796 N 73.905 1.17692 -1.04816 0
M  V30 797 C 75.152 1.87859 -0.75599 0
M  V30 798 C 75.48 1.80812 0.716752 0
M  V30 799 O 74.735 1.20819 1.53952 0
M  V30 800 C 75.034 3.37462 -1.17703 0
M  V30 801 C 74.7 3.64713 -2.65133 0
M  V30 802 C 73.362 3.71859 -3.05408 0
M  V30 803 C 75.714 3.76492 -3.60421 0
M  V30 804 C 73.042 3.88271 -4.39843 0
M  V30 805 C 75.394 3.94421 -4.94585 0
M  V30 806 C 74.058 3.99806 -5.3452 0
M  V30 807 H 73.328 0.687425 -0.276636 0
M  V30 808 H 75.975 1.39255 -1.31455 0
M  V30 809 H 74.28 3.88097 -0.537395 0
M  V30 810 H 75.977 3.90109 -0.928218 0
M  V30 811 H 72.567 3.59772 -2.32942 0
M  V30 812 H 76.751 3.70295 -3.30447 0
M  V30 813 H 72.007 3.90687 -4.70291 0
M  V30 814 H 76.181 4.02477 -5.68318 0
M  V30 815 H 73.808 4.12276 -6.38696 0
M  V30 816 N 75.3831 0.828654 1.34056 0
M  V30 817 C 76.6291 0.42008 1.98402 0
M  V30 818 C 76.9621 -1.01564 1.65525 0
M  V30 819 O 76.2371 -1.70834 0.929831 0
M  V30 820 C 76.5201 0.62927 3.54559 0
M  V30 821 C 76.3731 2.11152 3.97159 0
M  V30 822 C 77.6921 0.0688756 4.40046 0
M  V30 823 H 74.8111 0.154104 0.720709 0
M  V30 824 H 77.4531 1.04228 1.5886 0
M  V30 825 H 75.6031 0.0996418 3.88372 0
M  V30 826 H 77.2751 2.70522 3.73651 0
M  V30 827 H 75.5181 2.59985 3.47261 0
M  V30 828 H 76.1891 2.20868 5.05887 0
M  V30 829 H 78.6651 0.521458 4.1282 0
M  V30 830 H 77.5411 0.245006 5.48353 0
M  V30 831 H 77.8021 -1.0266 4.30015 0
M  V30 832 N 76.8612 -1.46375 0.584142 0
M  V30 833 C 77.8092 -2.32042 -0.161047 0
M  V30 834 C 78.8032 -1.44569 -0.882966 0
M  V30 835 O 80.0092 -1.61186 -0.801191 0
M  V30 836 H 76.3842 -0.748659 -0.0708033 0
M  V30 837 H 78.3552 -2.92704 0.580269 0
M  V30 838 C 77.1042 -3.27762 -1.1605 0
M  V30 839 H 76.4272 -3.95051 -0.614419 0
M  V30 840 H 77.8672 -3.90481 -1.65228 0
M  V30 841 C 76.3262 -2.53218 -2.22221 0
M  V30 842 O 76.8562 -2.29628 -3.29597 0
M  V30 843 N 75.0622 -2.13756 -1.96868 0
M  V30 844 H 74.6092 -2.33142 -1.09557 0
M  V30 845 H 74.5672 -1.642 -2.68115 0
M  V30 846 N 78.3393 -0.321999 -1.54275 0
M  V30 847 C 79.7503 0.166384 -1.85957 0
M  V30 848 C 80.1013 1.51747 -1.24367 0
M  V30 849 O 79.2263 2.09317 -0.549124 0
M  V30 850 C 79.8213 0.308681 -3.37391 0
M  V30 851 C 78.3803 0.741286 -3.69028 0
M  V30 852 C 77.5273 -0.137937 -2.76957 0
M  V30 853 H 80.4783 -0.542335 -1.49146 0
M  V30 854 H 80.4993 1.13984 -3.63026 0
M  V30 855 H 80.0113 -0.674809 -3.82188 0
M  V30 856 H 78.1123 1.73458 -3.29762 0
M  V30 857 H 78.2253 0.546118 -4.75977 0
M  V30 858 H 76.5893 0.386251 -2.51754 0
M  V30 859 H 77.3723 -1.11816 -3.2458 0
M  V30 860 N 79.8174 1.5752 -0.0501392 0
M  V30 861 C 80.7474 2.14502 0.922566 0
M  V30 862 C 81.7284 1.06642 1.3252 0
M  V30 863 O 82.9134 1.34577 1.4001 0
M  V30 864 C 80.0434 2.68916 2.19776 0
M  V30 865 C 78.9974 3.8175 1.93523 0
M  V30 866 C 78.3234 4.22677 3.27487 0
M  V30 867 C 79.6234 5.06932 1.25765 0
M  V30 868 H 81.3174 2.9603 0.447952 0
M  V30 869 H 78.8634 1.42401 0.214024 0
M  V30 870 H 80.8164 3.07419 2.88222 0
M  V30 871 H 79.5404 1.84578 2.69441 0
M  V30 872 H 78.1994 3.43718 1.27489 0
M  V30 873 H 77.8474 3.35291 3.74952 0
M  V30 874 H 77.5474 4.98725 3.1072 0
M  V30 875 H 79.0714 4.63779 3.97166 0
M  V30 876 H 80.4854 5.42888 1.84244 0
M  V30 877 H 78.8824 5.88116 1.19328 0
M  V30 878 H 79.9524 4.84337 0.233536 0
M  V30 879 N 81.2955 -0.223234 1.56011 0
M  V30 880 C 82.2275 -1.30006 1.88762 0
M  V30 881 C 83.2405 -1.43129 0.775746 0
M  V30 882 O 84.4295 -1.44057 1.05403 0
M  V30 883 C 81.5295 -2.67589 2.07965 0
M  V30 884 C 80.7025 -2.76434 3.38973 0
M  V30 885 C 79.7615 -3.95019 3.47629 0
M  V30 886 O 78.7875 -3.83436 4.20672 0
M  V30 887 N 79.9895 -5.09249 2.78649 0
M  V30 888 H 82.7545 -1.02238 2.81722 0
M  V30 889 H 80.3155 -0.413278 1.56536 0
M  V30 890 H 82.3075 -3.45297 2.11073 0
M  V30 891 H 80.8775 -2.87964 1.21638 0
M  V30 892 H 80.0975 -1.85216 3.47978 0
M  V30 893 H 81.3855 -2.79313 4.25278 0
M  V30 894 H 80.7835 -5.21556 2.19081 0
M  V30 895 H 79.3405 -5.85007 2.8742 0
M  V30 896 N 82.7736 -1.49793 -0.48987 0
M  V30 897 C 84.0206 -1.59841 -1.24327 0
M  V30 898 C 84.3486 -0.290135 -1.92324 0
M  V30 899 O 83.6036 0.722749 -1.81865 0
M  V30 900 C 83.9026 -2.71488 -2.32441 0
M  V30 901 C 83.5686 -4.12614 -1.81826 0
M  V30 902 C 82.2306 -4.51017 -1.67742 0
M  V30 903 C 84.5826 -5.00892 -1.4407 0
M  V30 904 C 81.9106 -5.75459 -1.14297 0
M  V30 905 C 84.2626 -6.25863 -0.920742 0
M  V30 906 C 82.9266 -6.63086 -0.766383 0
M  V30 907 H 82.1966 -0.584899 -0.454944 0
M  V30 908 H 84.8436 -1.83663 -0.542215 0
M  V30 909 H 83.1486 -2.4168 -3.0838 0
M  V30 910 H 84.8456 -2.76469 -2.90458 0
M  V30 911 H 81.4356 -3.82307 -1.93751 0
M  V30 912 H 85.6196 -4.7187 -1.53794 0
M  V30 913 H 80.8756 -6.02989 -1.01068 0
M  V30 914 H 85.0496 -6.9364 -0.619448 0
M  V30 915 H 82.6766 -7.59393 -0.350083 0
M  V30 916 N 84.2517 0.741722 -1.39055 0
M  V30 917 C 85.4997 1.49818 -1.35643 0
M  V30 918 C 85.8207 1.94938 0.0491642 0
M  V30 919 O 85.0907 1.68505 0.999141 0
M  V30 920 H 83.6707 0.555755 -0.499144 0
M  V30 921 H 86.3327 0.880957 -1.73854 0
M  V30 922 H 85.4287 2.38348 -2.01486 0
M  V30 923 N 85.7298 1.2412 0.971189 0
M  V30 924 C 87.1408 1.07236 1.52831 0
M  V30 925 C 87.4918 -0.357352 1.92918 0
M  V30 926 O 86.6168 -1.24528 1.76979 0
M  V30 927 C 87.2118 1.94043 2.77728 0
M  V30 928 C 85.7708 1.81394 3.29808 0
M  V30 929 C 84.9178 1.89189 2.02738 0
M  V30 930 H 87.8688 1.37648 0.789864 0
M  V30 931 H 87.8898 1.47066 3.5093 0
M  V30 932 H 87.4018 2.98093 2.4852 0
M  V30 933 H 85.5028 0.801634 3.63874 0
M  V30 934 H 85.6158 2.65294 3.98944 0
M  V30 935 H 83.9798 1.32877 2.17292 0
M  V30 936 H 84.7628 2.94812 1.759 0
M  V30 937 N 87.2079 -1.17134 1.05439 0
M  V30 938 C 88.4559 -1.87085 0.764429 0
M  V30 939 C 88.7769 -1.81584 -0.710787 0
M  V30 940 O 88.0469 -1.24349 -1.51374 0
M  V30 941 H 86.6269 -0.692627 0.279779 0
M  V30 942 H 89.2889 -1.42087 1.33406 0
M  V30 943 H 88.3849 -2.92759 1.0816 0
M  V30 944 N 88.686 -0.835752 -1.33615 0
M  V30 945 C 89.596 -0.269088 -2.33052 0
M  V30 946 C 90.612 0.603251 -1.63208 0
M  V30 947 O 91.788 0.508112 -1.94885 0
M  V30 948 C 88.853 0.549091 -3.42324 0
M  V30 949 C 87.914 -0.347156 -4.27894 0
M  V30 950 C 87.147 0.43207 -5.31948 0
M  V30 951 O 87.37 1.66409 -5.45586 0
M  V30 952 O 86.304 -0.192298 -6.01593 0
M  V30 953 H 90.13 -1.09243 -2.83372 0
M  V30 954 H 87.715 -0.598198 -1.36901 0
M  V30 955 H 89.597 1.01414 -4.09015 0
M  V30 956 H 88.272 1.34955 -2.94226 0
M  V30 957 H 87.179 -0.859979 -3.64081 0
M  V30 958 H 88.512 -1.1123 -4.79467 0
M  V30 959 N 90.1641 1.46063 -0.591896 0
M  V30 960 C 91.4411 1.95595 -0.0137119 0
M  V30 961 C 91.8211 1.5345 1.4497 0
M  V30 962 O 91.1691 0.789543 2.14426 0
M  V30 963 C 91.3791 3.48453 -0.195373 0
M  V30 964 C 92.7271 4.24546 -0.0679765 0
M  V30 965 O 93.7511 3.55982 -0.124681 0
M  V30 966 O 92.6101 5.46467 0.0600579 0
M  V30 967 H 89.7041 0.825795 0.0446279 0
M  V30 968 H 92.2501 1.56303 -0.660859 0
M  V30 969 H 91.0221 3.72045 -1.21235 0
M  V30 970 H 90.6451 3.94597 0.487775 0
M  V30 971 N 91.6422 0.330177 1.54103 0
M  V30 972 C 92.8722 -0.271784 2.04805 0
M  V30 973 C 93.2802 -1.45816 1.20559 0
M  V30 974 O 92.6232 -1.82247 0.2306 0
M  V30 975 C 92.6852 -0.763238 3.51305 0
M  V30 976 C 92.3492 0.301705 4.56003 0
M  V30 977 C 93.3462 1.13999 5.07248 0
M  V30 978 C 91.0312 0.451793 5.00264 0
M  V30 979 C 93.0252 2.11402 6.01322 0
M  V30 980 C 90.7122 1.42924 5.94151 0
M  V30 981 C 91.7102 2.25882 6.44567 0
M  V30 982 O 91.3982 3.21965 7.3661 0
M  V30 983 H 91.1302 -0.058693 0.673447 0
M  V30 984 H 93.6842 0.476395 1.99799 0
M  V30 985 H 91.9142 -1.56244 3.5373 0
M  V30 986 H 93.6032 -1.28427 3.85047 0
M  V30 987 H 94.3692 1.03505 4.73827 0
M  V30 988 H 90.2482 -0.184044 4.60632 0
M  V30 989 H 93.7922 2.76192 6.40596 0
M  V30 990 H 89.6892 1.53479 6.26988 0
M  V30 991 H 90.4572 3.17281 7.54503 0
M  V30 992 N 93.1203 -1.57491 0.0584922 0
M  V30 993 C 94.0703 -2.08474 -0.923188 0
M  V30 994 C 95.0543 -0.991479 -1.26722 0
M  V30 995 O 96.2463 -1.25473 -1.24842 0
M  V30 996 C 93.3753 -2.6392 -2.19548 0
M  V30 997 C 92.4613 -3.80227 -1.87852 0
M  V30 998 N 92.8523 -4.89714 -1.26546 0
M  V30 999 C 91.1503 -3.89271 -2.17679 0
M  V30 1000 C 91.8513 -5.70689 -1.12644 0
M  V30 1001 N 90.8273 -5.18531 -1.63176 0
M  V30 1002 H 94.6293 -2.90517 -0.444653 0
M  V30 1003 H 92.1433 -1.61745 -0.145764 0
M  V30 1004 H 94.1403 -2.98752 -2.9078 0
M  V30 1005 H 92.8003 -1.83318 -2.68001 0
M  V30 1006 H 93.8113 -5.09358 -0.936757 0
M  V30 1007 H 90.4883 -3.19623 -2.68602 0
M  V30 1008 H 91.8783 -6.6875 -0.6499 0
M  V30 1009 N 94.5984 0.214957 -1.56127 0
M  V30 1010 C 96.0144 0.564948 -1.49267 0
M  V30 1011 C 96.2144 1.86827 -0.754838 0
M  V30 1012 O 95.2704 2.50745 -0.297198 0
M  V30 1013 C 96.5834 0.638071 -2.93852 0
M  V30 1014 C 98.1314 0.728253 -3.0441 0
M  V30 1015 C 98.6064 0.832663 -4.50367 0
M  V30 1016 N 100.097 0.896712 -4.54437 0
M  V30 1017 C 100.832 0.997324 -5.6466 0
M  V30 1018 N 100.328 1.06147 -6.8462 0
M  V30 1019 N 102.121 1.03297 -5.52527 0
M  V30 1020 H 94.2724 -0.640211 -2.02522 0
M  V30 1021 H 96.5354 -0.225507 -0.920788 0
M  V30 1022 H 96.2414 -0.250126 -3.50809 0
M  V30 1023 H 96.1154 1.49947 -3.46115 0
M  V30 1024 H 98.5024 1.60689 -2.47514 0
M  V30 1025 H 98.5834 -0.158952 -2.55306 0
M  V30 1026 H 98.2274 -0.0415417 -5.07883 0
M  V30 1027 H 98.1574 1.73538 -4.97184 0
M  V30 1028 H 100.648 0.857188 -3.6805 0
M  V30 1029 H 100.961 1.1382 -7.64372 0
M  V30 1030 H 99.3064 1.03049 -6.87318 0
M  V30 1031 H 102.497 0.979558 -4.57736 0
M  V30 1032 H 102.67 1.10793 -6.38458 0
M  V30 1033 N 96.0765 1.50051 0.48192 0
M  V30 1034 C 97.3065 1.63999 1.2565 0
M  V30 1035 C 97.7145 0.318288 1.86504 0
M  V30 1036 O 97.0575 -0.708534 1.69486 0
M  V30 1037 C 97.1195 2.66504 2.4128 0
M  V30 1038 C 96.7835 4.10352 2.01148 0
M  V30 1039 C 97.7805 4.96562 1.54021 0
M  V30 1040 C 95.4655 4.56203 2.10199 0
M  V30 1041 C 97.4595 6.26668 1.16473 0
M  V30 1042 C 95.1465 5.86318 1.72264 0
M  V30 1043 C 96.1445 6.71375 1.25477 0
M  V30 1044 O 95.8325 7.99062 0.880626 0
M  V30 1045 H 95.5645 0.55456 0.386574 0
M  V30 1046 H 98.1185 1.96954 0.582944 0
M  V30 1047 H 96.3485 2.28769 3.11772 0
M  V30 1048 H 98.0375 2.69783 3.03268 0
M  V30 1049 H 98.8035 4.62358 1.46458 0
M  V30 1050 H 94.6825 3.90152 2.45566 0
M  V30 1051 H 98.2265 6.93011 0.798841 0
M  V30 1052 H 94.1235 6.20046 1.79482 0
M  V30 1053 H 94.8915 8.12239 1.01043 0
M  V30 1054 N 97.5546 -0.734337 1.39446 0
M  V30 1055 C 98.9656 -1.31264 1.32766 0
M  V30 1056 C 99.3166 -1.96198 -0.00767497 0
M  V30 1057 O 98.4416 -1.96346 -0.909796 0
M  V30 1058 C 99.0366 -2.38682 2.4045 0
M  V30 1059 C 97.5956 -2.92184 2.37288 0
M  V30 1060 C 96.7426 -1.6576 2.22304 0
M  V30 1061 H 99.6936 -0.531799 1.49525 0
M  V30 1062 H 99.7146 -3.19087 2.07276 0
M  V30 1063 H 99.2266 -1.91392 3.37625 0
M  V30 1064 H 97.3276 -3.43752 1.43754 0
M  V30 1065 H 97.4406 -3.45253 3.3217 0
M  V30 1066 H 95.8046 -1.9012 1.69489 0
M  V30 1067 H 96.5876 -1.20521 3.21449 0
M  V30 1068 N 99.0327 -1.24633 -0.964593 0
M  V30 1069 C 100.449 -1.01239 -1.2338 0
M  V30 1070 C 100.649 0.2769 -1.99588 0
M  V30 1071 O 99.7047 0.992241 -2.32187 0
M  V30 1072 C 101.018 -2.22937 -2.01791 0
M  V30 1073 C 102.566 -2.27594 -2.14872 0
M  V30 1074 C 103.041 -3.48921 -2.96678 0
M  V30 1075 N 104.532 -3.49257 -3.04259 0
M  V30 1076 C 105.267 -4.39795 -3.67924 0
M  V30 1077 N 104.763 -5.40591 -4.33281 0
M  V30 1078 N 106.556 -4.275 -3.64966 0
M  V30 1079 H 98.7067 -2.0748 -0.454502 0
M  V30 1080 H 100.97 -0.910647 -0.26349 0
M  V30 1081 H 100.676 -3.16587 -1.53184 0
M  V30 1082 H 100.55 -2.25306 -3.02518 0
M  V30 1083 H 102.937 -1.34473 -2.6268 0
M  V30 1084 H 103.018 -2.2925 -1.13482 0
M  V30 1085 H 102.662 -4.42359 -2.49562 0
M  V30 1086 H 102.592 -3.4451 -3.98272 0
M  V30 1087 H 105.083 -2.76337 -2.57771 0
M  V30 1088 H 105.396 -6.05904 -4.79687 0
M  V30 1089 H 103.741 -5.44475 -4.3194 0
M  V30 1090 H 106.932 -3.47987 -3.13086 0
M  V30 1091 H 107.105 -4.98258 -4.14298 0
M  V30 1092 N 100.511 1.16574 -1.06058 0
M  V30 1093 C 101.788 1.83048 -0.689416 0
M  V30 1094 C 102.168 1.94122 0.829443 0
M  V30 1095 O 101.516 1.48249 1.7388 0
M  V30 1096 C 101.726 3.20186 -1.38859 0
M  V30 1097 C 103.074 3.95989 -1.53226 0
M  V30 1098 O 104.098 3.29696 -1.3483 0
M  V30 1099 O 102.957 5.14813 -1.83384 0
M  V30 1100 H 100.051 0.790258 -0.243764 0
M  V30 1101 H 102.597 1.23797 -1.16071 0
M  V30 1102 H 101.369 3.07146 -2.4244 0
M  V30 1103 H 100.992 3.87112 -0.907216 0
M  V30 1104 N 101.989 0.842826 1.3317 0
M  V30 1105 C 102.919 0.294028 2.31641 0
M  V30 1106 C 103.9 -0.600401 1.59151 0
M  V30 1107 O 105.085 -0.523124 1.87022 0
M  V30 1108 C 102.215 -0.528416 3.43257 0
M  V30 1109 C 101.169 0.27056 4.27144 0
M  V30 1110 C 100.495 -0.675881 5.30411 0
M  V30 1111 C 101.795 1.48981 5.00602 0
M  V30 1112 H 103.489 1.11681 2.77791 0
M  V30 1113 H 101.035 0.538478 1.33553 0
M  V30 1114 H 102.988 -0.922674 4.11175 0
M  V30 1115 H 101.712 -1.38445 2.95805 0
M  V30 1116 H 100.371 0.646427 3.60856 0
M  V30 1117 H 100.019 -1.52842 4.79216 0
M  V30 1118 H 99.7189 -0.145374 5.8742 0
M  V30 1119 H 101.243 -1.06757 6.01195 0
M  V30 1120 H 102.657 1.16849 5.61266 0
M  V30 1121 H 101.054 1.95739 5.6728 0
M  V30 1122 H 102.124 2.25746 4.29147 0
M  V30 1123 N 103.467 -1.45747 0.599634 0
M  V30 1124 C 104.377 -2.34262 -0.125888 0
M  V30 1125 C 105.393 -1.50768 -0.868625 0
M  V30 1126 O 106.569 -1.83592 -0.828003 0
M  V30 1127 C 103.634 -3.28252 -1.11587 0
M  V30 1128 C 102.695 -4.27651 -0.375956 0
M  V30 1129 C 101.928 -5.1715 -1.31877 0
M  V30 1130 O 102.151 -5.09916 -2.55621 0
M  V30 1131 O 101.085 -5.96286 -0.820157 0
M  V30 1132 H 104.911 -2.97688 0.601315 0
M  V30 1133 H 102.496 -1.44999 0.359934 0
M  V30 1134 H 104.378 -3.86191 -1.68626 0
M  V30 1135 H 103.053 -2.67401 -1.82424 0
M  V30 1136 H 101.96 -3.7335 0.236698 0
M  V30 1137 H 103.293 -4.91334 0.29177 0
M  V30 1138 N 104.945 -0.338344 -1.53925 0
M  V30 1139 C 106.361 0.0137736 -1.59594 0
M  V30 1140 C 106.561 1.49186 -1.35447 0
M  V30 1141 O 105.617 2.24987 -1.14616 0
M  V30 1142 C 106.93 -0.41773 -2.97784 0
M  V30 1143 C 108.478 -0.369633 -3.1081 0
M  V30 1144 C 108.953 -0.776524 -4.51369 0
M  V30 1145 N 110.444 -0.730506 -4.57403 0
M  V30 1146 C 111.179 -1.01736 -5.64303 0
M  V30 1147 N 110.675 -1.3721 -6.79077 0
M  V30 1148 N 112.468 -0.941942 -5.54151 0
M  V30 1149 H 104.619 -1.3012 -1.67876 0
M  V30 1150 H 106.882 -0.530082 -0.78595 0
M  V30 1151 H 106.588 -1.44811 -3.20504 0
M  V30 1152 H 106.462 0.209729 -3.76616 0
M  V30 1153 H 108.849 0.651568 -2.87817 0
M  V30 1154 H 108.93 -1.03223 -2.34049 0
M  V30 1155 H 108.574 -1.79571 -4.75096 0
M  V30 1156 H 108.504 -0.0914649 -5.26521 0
M  V30 1157 H 110.995 -0.468783 -3.74981 0
M  V30 1158 H 111.308 -1.57597 -7.5656 0
M  V30 1159 H 109.653 -1.4105 -6.80536 0
M  V30 1160 H 112.844 -0.664184 -4.63364 0
M  V30 1161 H 113.017 -1.16884 -6.37371 0
M  V30 1162 N 106.423 1.57458 -0.0668435 0
M  V30 1163 C 107.7 1.8469 0.644132 0
M  V30 1164 C 108.08 0.958343 1.88093 0
M  V30 1165 O 107.428 0.0233579 2.28488 0
M  V30 1166 C 107.638 3.34767 0.986509 0
M  V30 1167 C 108.986 4.02159 1.36212 0
M  V30 1168 O 110.01 3.39484 1.07839 0
M  V30 1169 O 108.869 5.12694 1.89227 0
M  V30 1170 H 105.963 0.762816 0.319437 0
M  V30 1171 H 108.509 1.6942 -0.0973986 0
M  V30 1172 H 107.281 3.91151 0.107883 0
M  V30 1173 H 106.904 3.55281 1.78497 0
M  V30 1174 N 107.901 -0.206675 1.56239 0
M  V30 1175 C 109.317 -0.557025 1.49564 0
M  V30 1176 C 109.517 -1.86424 0.764735 0
M  V30 1177 O 108.573 -2.50584 0.310491 0
M  V30 1178 C 109.886 -0.622478 2.94186 0
M  V30 1179 C 111.434 -0.712099 3.04792 0
M  V30 1180 C 111.909 -0.808767 4.50803 0
M  V30 1181 N 113.4 -0.8726 4.54907 0
M  V30 1182 C 114.135 -0.967365 5.65181 0
M  V30 1183 N 113.631 -1.02515 6.85173 0
M  V30 1184 N 115.424 -1.00366 5.53067 0
M  V30 1185 H 107.575 0.650943 2.02179 0
M  V30 1186 H 109.838 0.230387 0.919579 0
M  V30 1187 H 109.544 0.268727 3.50672 0
M  V30 1188 H 109.418 -1.4811 3.46905 0
M  V30 1189 H 111.805 -1.59374 2.48363 0
M  V30 1190 H 111.886 0.172489 2.55218 0
M  V30 1191 H 111.53 0.0684754 5.07854 0
M  V30 1192 H 111.46 -1.70899 4.98098 0
M  V30 1193 H 113.951 -0.837657 3.68499 0
M  V30 1194 H 114.264 -1.09765 7.64965 0
M  V30 1195 H 112.609 -0.994026 6.87855 0
M  V30 1196 H 115.8 -0.95527 4.58249 0
M  V30 1197 H 115.973 -1.07405 6.39037 0
M  V30 1198 N 109.379 -1.50304 -0.473955 0
M  V30 1199 C 110.342 -1.6841 -1.55469 0
M  V30 1200 C 111.342 -0.554905 -1.50922 0
M  V30 1201 O 112.532 -0.821882 -1.53593 0
M  V30 1202 C 109.664 -1.70667 -2.95102 0
M  V30 1203 H 110.857 -2.64828 -1.40733 0
M  V30 1204 H 108.41 -1.39742 -0.700132 0
M  V30 1205 H 109.145 -0.75932 -3.15285 0
M  V30 1206 H 108.93 -2.52698 -2.9981 0
M  V30 1207 H 110.42 -1.8664 -3.73571 0
M  V30 1208 N 110.857 0.726932 -1.39834 0
M  V30 1209 C 111.787 1.85405 -1.41941 0
M  V30 1210 C 112.768 1.67751 -0.281728 0
M  V30 1211 O 113.953 1.8795 -0.488717 0
M  V30 1212 C 111.083 3.23243 -1.2701 0
M  V30 1213 C 110.037 3.55549 -2.38262 0
M  V30 1214 C 109.363 4.9241 -2.08415 0
M  V30 1215 C 110.663 3.577 -3.80589 0
M  V30 1216 H 112.357 1.83899 -2.36266 0
M  V30 1217 H 109.903 0.883349 -1.13723 0
M  V30 1218 H 111.856 4.01775 -1.27103 0
M  V30 1219 H 110.58 3.25296 -0.291564 0
M  V30 1220 H 109.239 2.79351 -2.37399 0
M  V30 1221 H 108.887 4.91052 -1.0898 0
M  V30 1222 H 108.587 5.14992 -2.82943 0
M  V30 1223 H 110.111 5.73289 -2.10171 0
M  V30 1224 H 111.525 4.26293 -3.83337 0
M  V30 1225 H 109.922 3.91804 -4.54543 0
M  V30 1226 H 110.992 2.57328 -4.10987 0
M  V30 1227 N 112.336 1.25143 0.95797 0
M  V30 1228 C 113.266 1.07711 2.07173 0
M  V30 1229 C 114.247 -0.0128462 1.70095 0
M  V30 1230 O 115.432 0.156061 1.93572 0
M  V30 1231 C 112.562 0.691503 3.40346 0
M  V30 1232 C 111.516 1.73132 3.9142 0
M  V30 1233 C 110.842 1.20049 5.21049 0
M  V30 1234 C 112.142 3.1294 4.1817 0
M  V30 1235 H 113.836 2.00873 2.22014 0
M  V30 1236 H 111.382 0.967191 1.06684 0
M  V30 1237 H 113.335 0.556505 4.17709 0
M  V30 1238 H 112.059 -0.275819 3.25433 0
M  V30 1239 H 110.718 1.8547 3.16222 0
M  V30 1240 H 110.366 0.223499 5.02503 0
M  V30 1241 H 110.066 1.89545 5.56189 0
M  V30 1242 H 111.59 1.07782 6.01012 0
M  V30 1243 H 113.004 3.03775 4.86203 0
M  V30 1244 H 111.401 3.79875 4.64559 0
M  V30 1245 H 112.471 3.6025 3.24573 0
M  V30 1246 N 113.814 -1.1601 1.06675 0
M  V30 1247 C 114.746 -2.20115 0.638921 0
M  V30 1248 C 115.759 -1.59916 -0.305057 0
M  V30 1249 O 116.948 -1.78245 -0.0954446 0
M  V30 1250 C 114.048 -3.38798 -0.0830083 0
M  V30 1251 C 113.221 -4.2855 0.875426 0
M  V30 1252 C 112.28 -5.25849 0.192042 0
M  V30 1253 O 111.306 -5.63102 0.830921 0
M  V30 1254 N 112.508 -5.70648 -1.06493 0
M  V30 1255 H 115.273 -2.57439 1.53444 0
M  V30 1256 H 112.834 -1.31057 0.950557 0
M  V30 1257 H 114.826 -4.00936 -0.550685 0
M  V30 1258 H 113.396 -2.99947 -0.880386 0
M  V30 1259 H 112.616 -3.63617 1.52238 0
M  V30 1260 H 113.904 -4.85393 1.52548 0
M  V30 1261 H 113.302 -5.42482 -1.60405 0
M  V30 1262 H 111.859 -6.34859 -1.47641 0
M  V30 1263 N 115.292 -0.849877 -1.32721 0
M  V30 1264 C 116.202 -0.293791 -2.32753 0
M  V30 1265 C 117.218 0.585906 -1.63839 0
M  V30 1266 O 118.394 0.487413 -1.95413 0
M  V30 1267 C 115.459 0.512752 -3.42887 0
M  V30 1268 C 114.52 -0.39252 -4.27502 0
M  V30 1269 C 113.753 0.375625 -5.32377 0
M  V30 1270 O 113.976 1.60613 -5.4732 0
M  V30 1271 O 112.91 -0.256094 -6.01355 0
M  V30 1272 H 116.736 -1.12242 -2.82197 0
M  V30 1273 H 114.321 -0.612685 -1.36259 0
M  V30 1274 H 116.203 0.970704 -4.10067 0
M  V30 1275 H 114.878 1.31826 -2.95641 0
M  V30 1276 H 113.785 -0.898547 -3.63149 0
M  V30 1277 H 115.118 -1.16309 -4.7826 0
M  V30 1278 N 116.77 1.45427 -0.607355 0
M  V30 1279 C 117.733 2.28974 0.101693 0
M  V30 1280 C 118.733 1.39754 0.795329 0
M  V30 1281 O 119.923 1.61878 0.643527 0
M  V30 1282 C 117.055 3.20768 1.15414 0
M  V30 1283 H 118.248 2.93147 -0.632844 0
M  V30 1284 H 115.801 1.51945 -0.366391 0
M  V30 1285 H 116.536 2.61395 1.91945 0
M  V30 1286 H 116.321 3.86489 0.66098 0
M  V30 1287 H 117.811 3.83589 1.65073 0
M  V30 1288 N 118.248 0.346503 1.53744 0
M  V30 1289 C 119.496 -0.248612 2.00565 0
M  V30 1290 C 119.817 -1.5083 1.23593 0
M  V30 1291 O 119.087 -1.92858 0.343912 0
M  V30 1292 H 117.667 -0.0948564 0.740953 0
M  V30 1293 H 120.329 0.468341 1.89189 0
M  V30 1294 H 119.425 -0.488994 3.08245 0
M  V30 1295 N 119.726 -1.57421 0.075193 0
M  V30 1296 C 120.972 -1.93905 -0.594025 0
M  V30 1297 C 121.305 -0.955701 -1.69056 0
M  V30 1298 O 120.58 0.0145373 -1.94495 0
M  V30 1299 C 120.863 -3.40638 -1.1678 0
M  V30 1300 C 120.716 -4.49733 -0.0776792 0
M  V30 1301 C 122.035 -3.88259 -2.07228 0
M  V30 1302 H 119.154 -0.705105 -0.214466 0
M  V30 1303 H 121.796 -1.8947 0.141854 0
M  V30 1304 H 119.946 -3.44549 -1.79494 0
M  V30 1305 H 121.618 -4.57942 0.555573 0
M  V30 1306 H 119.861 -4.29751 0.591286 0
M  V30 1307 H 120.532 -5.49549 -0.519603 0
M  V30 1308 H 123.008 -3.86376 -1.54445 0
M  V30 1309 H 121.884 -4.91533 -2.44308 0
M  V30 1310 H 122.145 -3.26396 -2.98191 0
M  V30 1311 N 121.204 0.198386 -1.56346 0
M  V30 1312 C 122.481 0.944982 -1.71258 0
M  V30 1313 C 122.861 2.0151 -0.629048 0
M  V30 1314 O 122.209 2.25639 0.360473 0
M  V30 1315 C 122.419 1.5344 -3.1346 0
M  V30 1316 C 123.767 2.01778 -3.73591 0
M  V30 1317 O 124.791 1.63288 -3.16568 0
M  V30 1318 O 123.65 2.72594 -4.73661 0
M  V30 1319 H 120.744 0.442939 -0.69838 0
M  V30 1320 H 123.29 0.188342 -1.68652 0
M  V30 1321 H 122.062 0.762869 -3.83792 0
M  V30 1322 H 121.685 2.35596 -3.20282 0
M  V30 1323 N 122.682 1.50554 0.465978 0
M  V30 1324 C 123.612 1.72722 1.57128 0
M  V30 1325 C 124.593 0.576294 1.6004 0
M  V30 1326 O 125.778 0.81598 1.76225 0
M  V30 1327 C 122.908 1.82605 2.95419 0
M  V30 1328 C 121.862 2.97835 3.07373 0
M  V30 1329 C 121.188 2.92867 4.47363 0
M  V30 1330 C 122.488 4.38265 2.84114 0
M  V30 1331 H 124.182 2.65267 1.38829 0
M  V30 1332 H 121.728 1.2765 0.666441 0
M  V30 1333 H 123.681 1.96698 3.72677 0
M  V30 1334 H 122.405 0.866858 3.14886 0
M  V30 1335 H 121.064 2.83401 2.3255 0
M  V30 1336 H 120.712 1.94783 4.63755 0
M  V30 1337 H 120.412 3.70227 4.56296 0
M  V30 1338 H 121.936 3.09015 5.26633 0
M  V30 1339 H 123.35 4.53198 3.51118 0
M  V30 1340 H 121.747 5.17115 3.04487 0
M  V30 1341 H 122.817 4.50281 1.7993 0
M  V30 1342 N 124.16 -0.719506 1.40217 0
M  V30 1343 C 125.09 -1.8465 1.42922 0
M  V30 1344 C 126.071 -1.67599 0.29062 0
M  V30 1345 O 127.256 -1.87688 0.498677 0
M  V30 1346 C 124.386 -3.22565 1.28722 0
M  V30 1347 C 123.34 -3.54281 2.40144 0
M  V30 1348 C 122.666 -4.91298 2.11023 0
M  V30 1349 C 123.966 -3.55676 3.82481 0
M  V30 1350 H 125.66 -1.82644 2.37237 0
M  V30 1351 H 123.206 -0.877305 1.1419 0
M  V30 1352 H 125.159 -4.01095 1.29232 0
M  V30 1353 H 123.883 -3.25137 0.308811 0
M  V30 1354 H 122.542 -2.78088 2.38877 0
M  V30 1355 H 122.19 -4.90468 1.11582 0
M  V30 1356 H 121.89 -5.13485 2.8567 0
M  V30 1357 H 123.414 -5.72166 2.13209 0
M  V30 1358 H 124.828 -4.24254 3.85592 0
M  V30 1359 H 123.225 -3.89388 4.56614 0
M  V30 1360 H 124.295 -2.55144 4.12346 0
M  V30 1361 N 125.638 -1.25649 -0.95132 0
M  V30 1362 C 126.885 -1.10594 -1.69633 0
M  V30 1363 C 127.213 0.352515 -1.91279 0
M  V30 1364 O 126.468 1.27601 -1.4838 0
M  V30 1365 C 126.767 -1.80909 -3.08231 0
M  V30 1366 C 126.433 -3.30825 -3.06375 0
M  V30 1367 C 125.095 -3.71722 -3.05576 0
M  V30 1368 C 127.447 -4.26589 -2.99452 0
M  V30 1369 C 124.775 -5.06788 -2.95606 0
M  V30 1370 C 127.127 -5.61683 -2.91024 0
M  V30 1371 C 125.791 -6.01904 -2.88562 0
M  V30 1372 H 125.061 -0.404691 -0.620731 0
M  V30 1373 H 127.708 -1.55964 -1.11119 0
M  V30 1374 H 126.013 -1.27979 -3.70309 0
M  V30 1375 H 127.71 -1.6671 -3.64704 0
M  V30 1376 H 124.3 -2.98287 -3.07771 0
M  V30 1377 H 128.484 -3.95982 -2.99185 0
M  V30 1378 H 123.74 -5.37126 -2.92071 0
M  V30 1379 H 127.914 -6.35578 -2.84629 0
M  V30 1380 H 125.541 -7.06521 -2.80593 0
M  V30 1381 N 127.117 1.15442 -1.07289 0
M  V30 1382 C 128.08 2.18358 -0.696591 0
M  V30 1383 C 129.08 1.58637 0.262837 0
M  V30 1384 O 130.27 1.74145 0.0438809 0
M  V30 1385 C 127.402 3.4089 -0.0266151 0
M  V30 1386 H 128.595 2.53162 -1.60776 0
M  V30 1387 H 126.148 1.29893 -0.869342 0
M  V30 1388 H 126.883 3.11653 0.896822 0
M  V30 1389 H 126.668 3.85495 -0.716657 0
M  V30 1390 H 128.158 4.17009 0.222028 0
M  V30 1391 N 128.595 0.856903 1.32268 0
M  V30 1392 C 130.006 0.515711 1.79436 0
M  V30 1393 C 130.357 -0.966586 1.70738 0
M  V30 1394 O 129.482 -1.75409 1.26731 0
M  V30 1395 C 130.077 0.929335 3.25805 0
M  V30 1396 C 128.636 0.640006 3.70919 0
M  V30 1397 C 127.783 1.12784 2.53328 0
M  V30 1398 H 130.734 1.04389 1.19535 0
M  V30 1399 H 130.755 0.246633 3.797 0
M  V30 1400 H 130.267 2.00821 3.32103 0
M  V30 1401 H 128.368 -0.428051 3.70133 0
M  V30 1402 H 128.481 1.20788 4.63624 0
M  V30 1403 H 126.845 0.548033 2.48734 0
M  V30 1404 H 127.628 2.21387 2.62379 0
M  V30 1405 N 130.073 -1.45103 0.615059 0
M  V30 1406 C 131.321 -2.01784 0.112955 0
M  V30 1407 C 131.642 -1.48504 -1.26378 0
M  V30 1408 O 130.912 -0.682245 -1.83636 0
M  V30 1409 H 129.492 -0.745993 0.0387668 0
M  V30 1410 H 132.154 -1.77808 0.798141 0
M  V30 1411 H 131.25 -3.12025 0.0684069 0
M  V30 1412 N 131.551 -0.354651 -1.53558 0
M  V30 1413 C 132.797 0.238797 -2.01389 0
M  V30 1414 C 133.13 1.49309 -1.2418 0
M  V30 1415 O 132.405 1.91638 -0.332457 0
M  V30 1416 C 132.688 0.541771 -3.56001 0
M  V30 1417 C 132.541 -0.725388 -4.43912 0
M  V30 1418 C 133.86 1.34685 -4.18984 0
M  V30 1419 H 130.979 0.0853177 -0.732045 0
M  V30 1420 H 133.621 -0.477384 -1.83905 0
M  V30 1421 H 131.771 1.15189 -3.71031 0
M  V30 1422 H 133.443 -1.36313 -4.407 0
M  V30 1423 H 131.686 -1.34801 -4.12324 0
M  V30 1424 H 132.357 -0.468505 -5.50008 0
M  V30 1425 H 134.833 0.830837 -4.07721 0
M  V30 1426 H 133.709 1.52759 -5.27215 0
M  V30 1427 H 133.97 2.35221 -3.74331 0
M  V30 1428 N 133.029 1.57378 -0.0835403 0
M  V30 1429 C 133.939 2.16897 0.894021 0
M  V30 1430 C 134.955 1.13528 1.31861 0
M  V30 1431 O 136.131 1.45848 1.3889 0
M  V30 1432 C 133.196 2.72831 2.13925 0
M  V30 1433 C 132.257 3.91115 1.76997 0
M  V30 1434 C 131.49 4.44371 2.95584 0
M  V30 1435 O 131.713 3.96596 4.09961 0
M  V30 1436 O 130.647 5.35549 2.74719 0
M  V30 1437 H 134.473 3.00814 0.417679 0
M  V30 1438 H 132.058 1.48741 0.140181 0
M  V30 1439 H 133.94 3.0863 2.86924 0
M  V30 1440 H 132.615 1.91967 2.60635 0
M  V30 1441 H 131.522 3.60148 1.01214 0
M  V30 1442 H 132.855 4.73307 1.3506 0
M  V30 1443 N 134.507 -0.190092 1.56449 0
M  V30 1444 C 135.417 -1.25591 1.98152 0
M  V30 1445 C 136.433 -1.49519 0.889944 0
M  V30 1446 O 137.609 -1.62036 1.19609 0
M  V30 1447 C 134.674 -2.57916 2.3169 0
M  V30 1448 C 133.735 -2.42015 3.5458 0
M  V30 1449 C 132.968 -3.6803 3.8651 0
M  V30 1450 O 133.191 -4.72413 3.1966 0
M  V30 1451 O 132.125 -3.6326 4.79923 0
M  V30 1452 H 135.951 -0.931988 2.89046 0
M  V30 1453 H 133.536 -0.395488 1.4407 0
M  V30 1454 H 135.418 -3.36008 2.54316 0
M  V30 1455 H 134.093 -2.89925 1.43963 0
M  V30 1456 H 133 -1.62017 3.37196 0
M  V30 1457 H 134.333 -2.14937 4.4279 0
M  V30 1458 N 135.985 -1.50799 -0.457987 0
M  V30 1459 C 136.918 -1.65273 -1.57353 0
M  V30 1460 C 137.896 -0.500578 -1.54703 0
M  V30 1461 O 139.08 -0.721781 -1.74134 0
M  V30 1462 C 136.207 -1.64737 -2.95938 0
M  V30 1463 C 135.253 -2.8567 -3.16693 0
M  V30 1464 S 136.086 -4.46791 -2.95191 0
M  V30 1465 C 137.242 -4.48968 -4.36095 0
M  V30 1466 H 137.475 -2.59633 -1.44838 0
M  V30 1467 H 135.008 -1.40225 -0.64625 0
M  V30 1468 H 136.966 -1.65112 -3.7583 0
M  V30 1469 H 135.627 -0.715899 -3.05833 0
M  V30 1470 H 134.82 -2.81637 -4.17967 0
M  V30 1471 H 134.422 -2.8293 -2.44594 0
M  V30 1472 H 136.714 -4.23337 -5.28954 0
M  V30 1473 H 137.657 -5.50664 -4.45168 0
M  V30 1474 H 138.065 -3.78522 -4.18786 0
M  V30 1475 N 137.463 0.71206 -1.40597 0
M  V30 1476 C 138.693 1.49894 -1.42181 0
M  V30 1477 C 139.101 1.89189 -0.0208078 0
M  V30 1478 O 138.444 1.56223 0.966436 0
M  V30 1479 C 138.506 2.80215 -2.25211 0
M  V30 1480 C 138.17 2.63221 -3.73582 0
M  V30 1481 C 139.167 2.30249 -4.66135 0
M  V30 1482 C 136.852 2.79376 -4.17438 0
M  V30 1483 C 138.846 2.13645 -6.00529 0
M  V30 1484 C 136.533 2.6239 -5.51901 0
M  V30 1485 C 137.531 2.29573 -6.43262 0
M  V30 1486 O 137.219 2.12719 -7.75246 0
M  V30 1487 H 136.951 0.469031 -0.486812 0
M  V30 1488 H 139.505 0.88564 -1.85326 0
M  V30 1489 H 137.735 3.4389 -1.76852 0
M  V30 1490 H 139.424 3.41947 -2.18694 0
M  V30 1491 H 140.19 2.17398 -4.33547 0
M  V30 1492 H 136.069 3.03906 -3.46644 0
M  V30 1493 H 139.613 1.87953 -6.71803 0
M  V30 1494 H 135.51 2.74826 -5.84073 0
M  V30 1495 H 136.278 2.27611 -7.86216 0
M  V30 1496 N 138.941 1.26152 0.944643 0
M  V30 1497 C 140.352 1.10454 1.50522 0
M  V30 1498 C 140.703 -0.31635 1.93633 0
M  V30 1499 O 139.828 -1.20746 1.79581 0
M  V30 1500 C 140.423 1.99891 2.73549 0
M  V30 1501 C 138.982 1.88348 3.25886 0
M  V30 1502 C 138.129 1.93447 1.9868 0
M  V30 1503 H 141.08 1.39292 0.760489 0
M  V30 1504 H 141.101 1.54477 3.47732 0
M  V30 1505 H 140.613 3.03297 2.42141 0
M  V30 1506 H 138.714 0.878636 3.62092 0
M  V30 1507 H 138.827 2.73696 3.93227 0
M  V30 1508 H 137.191 1.37456 2.14425 0
M  V30 1509 H 137.974 2.98476 1.69607 0
M  V30 1510 N 140.419 -1.14872 1.07899 0
M  V30 1511 C 141.329 -2.2341 0.715915 0
M  V30 1512 C 142.345 -1.71808 -0.275306 0
M  V30 1513 O 143.521 -2.01039 -0.120545 0
M  V30 1514 C 140.586 -3.46474 0.125168 0
M  V30 1515 C 139.647 -4.13039 1.17034 0
M  V30 1516 C 138.88 -5.30229 0.607688 0
M  V30 1517 O 139.103 -5.675 -0.574497 0
M  V30 1518 O 138.037 -5.86444 1.35526 0
M  V30 1519 H 141.863 -2.56808 1.62121 0
M  V30 1520 H 139.448 -1.22702 0.852322 0
M  V30 1521 H 141.33 -4.20917 -0.201729 0
M  V30 1522 H 140.005 -3.14811 -0.753364 0
M  V30 1523 H 138.912 -3.40493 1.54968 0
M  V30 1524 H 140.245 -4.48796 2.02097 0
M  V30 1525 N 141.898 -0.863906 -1.31812 0
M  V30 1526 C 143.146 -0.470904 -1.96537 0
M  V30 1527 C 143.467 0.978771 -1.68657 0
M  V30 1528 O 142.737 1.6853 -0.998717 0
M  V30 1529 H 141.317 -0.171148 -0.72713 0
M  V30 1530 H 143.979 -1.10236 -1.60729 0
M  V30 1531 H 143.075 -0.623616 -3.05806 0
M  V30 1532 N 143.376 1.44774 -0.622745 0
M  V30 1533 C 144.623 2.02121 -0.1239 0
M  V30 1534 C 144.951 1.48915 1.25118 0
M  V30 1535 O 144.206 0.660045 1.84233 0
M  V30 1536 C 144.505 3.57364 -0.0508323 0
M  V30 1537 C 144.171 4.29787 -1.36358 0
M  V30 1538 C 142.833 4.4929 -1.72314 0
M  V30 1539 C 145.185 4.71062 -2.23048 0
M  V30 1540 C 142.513 5.07325 -2.94682 0
M  V30 1541 C 144.865 5.30452 -3.44679 0
M  V30 1542 C 143.529 5.48175 -3.80868 0
M  V30 1543 H 142.799 0.739612 -0.0453381 0
M  V30 1544 H 145.446 1.73648 -0.807389 0
M  V30 1545 H 143.751 3.85202 0.715991 0
M  V30 1546 H 145.448 3.99456 0.351533 0
M  V30 1547 H 142.038 4.14932 -1.07375 0
M  V30 1548 H 146.222 4.55715 -1.96565 0
M  V30 1549 H 141.478 5.19235 -3.22809 0
M  V30 1550 H 145.652 5.61385 -4.12092 0
M  V30 1551 H 143.279 5.92912 -4.75773 0
M  V30 1552 N 144.854 0.36279 1.53368 0
M  V30 1553 C 145.817 -0.472679 2.24273 0
M  V30 1554 C 146.817 -1.012 1.24961 0
M  V30 1555 O 148.007 -0.898194 1.49259 0
M  V30 1556 C 145.139 -1.66039 2.97731 0
M  V30 1557 H 146.332 0.14773 2.99536 0
M  V30 1558 H 143.885 0.114434 1.55881 0
M  V30 1559 H 144.62 -2.31896 2.26704 0
M  V30 1560 H 144.405 -1.28066 3.70596 0
M  V30 1561 H 145.895 -2.25252 3.51641 0
M  V30 1562 N 146.332 -1.57332 0.0918853 0
M  V30 1563 C 147.56 -1.98574 -0.581048 0
M  V30 1564 C 147.975 -0.970903 -1.61923 0
M  V30 1565 O 147.332 0.0399054 -1.82456 0
M  V30 1566 C 147.383 -3.39872 -1.23164 0
M  V30 1567 O 147.104 -4.37469 -0.234989 0
M  V30 1568 C 148.605 -3.96099 -1.99049 0
M  V30 1569 H 145.825 -0.65261 -0.156018 0
M  V30 1570 H 148.369 -2.0379 0.170225 0
M  V30 1571 H 146.524 -3.35679 -1.93386 0
M  V30 1572 H 146.938 -5.19751 -0.70418 0
M  V30 1573 H 148.412 -4.97127 -2.39934 0
M  V30 1574 H 148.889 -3.3374 -2.85507 0
M  V30 1575 H 149.495 -4.03755 -1.3365 0
M  V30 1576 N 147.81 0.181792 -1.56548 0
M  V30 1577 C 149.226 0.53316 -1.50431 0
M  V30 1578 C 149.426 1.85184 -0.794297 0
M  V30 1579 O 148.482 2.50058 -0.350318 0
M  V30 1580 C 149.795 0.575597 -2.9514 0
M  V30 1581 C 151.343 0.663519 -3.05886 0
M  V30 1582 C 151.818 0.736946 -4.52032 0
M  V30 1583 N 153.309 0.800118 -4.56237 0
M  V30 1584 C 154.044 0.877327 -5.66649 0
M  V30 1585 N 153.54 0.916016 -6.86718 0
M  V30 1586 N 155.333 0.915542 -5.54594 0
M  V30 1587 H 147.484 -0.683025 -2.01118 0
M  V30 1588 H 149.747 -0.244988 -0.915797 0
M  V30 1589 H 149.453 -0.324482 -3.502 0
M  V30 1590 H 149.327 1.42572 -3.49218 0
M  V30 1591 H 151.714 1.55403 -2.50867 0
M  V30 1592 H 151.795 -0.21307 -2.54911 0
M  V30 1593 H 151.439 -0.149262 -5.07681 0
M  V30 1594 H 151.369 1.62953 -5.00753 0
M  V30 1595 H 153.86 0.778926 -3.69785 0
M  V30 1596 H 154.173 0.975813 -7.66614 0
M  V30 1597 H 152.518 0.884469 -6.89349 0
M  V30 1598 H 155.709 0.882245 -4.59711 0
M  V30 1599 H 155.882 0.972253 -6.40665 0
M  V30 1600 N 149.288 1.51039 0.449983 0
M  V30 1601 C 150.534 1.63322 1.20223 0
M  V30 1602 C 150.867 0.34241 1.91158 0
M  V30 1603 O 150.142 -0.657344 1.83055 0
M  V30 1604 C 150.425 2.82801 2.22925 0
M  V30 1605 C 150.278 4.21823 1.56157 0
M  V30 1606 C 151.597 2.97807 3.24035 0
M  V30 1607 H 148.716 0.594407 0.435718 0
M  V30 1608 H 151.358 1.83489 0.493136 0
M  V30 1609 H 149.508 2.65738 2.834 0
M  V30 1610 H 151.18 4.50526 0.991162 0
M  V30 1611 H 149.423 4.25105 0.864172 0
M  V30 1612 H 150.094 5.01391 2.30891 0
M  V30 1613 H 152.57 3.13497 2.73603 0
M  V30 1614 H 151.446 3.82992 3.93202 0
M  V30 1615 H 151.707 2.09328 3.89402 0
M  V30 1616 N 150.766 -0.704594 1.40972 0
M  V30 1617 C 151.698 -1.82974 1.38033 0
M  V30 1618 C 152.711 -1.60305 0.283931 0
M  V30 1619 O 153.9 -1.69975 0.545042 0
M  V30 1620 C 151 -3.19578 1.12795 0
M  V30 1621 C 150.173 -3.69352 2.34302 0
M  V30 1622 C 149.232 -4.84601 2.05058 0
M  V30 1623 O 148.258 -4.96682 2.7802 0
M  V30 1624 N 149.46 -5.71194 1.03528 0
M  V30 1625 H 152.225 -1.85991 2.35005 0
M  V30 1626 H 149.786 -0.886567 1.35468 0
M  V30 1627 H 151.778 -3.9429 0.911987 0
M  V30 1628 H 150.348 -3.11642 0.24452 0
M  V30 1629 H 149.568 -2.85649 2.71659 0
M  V30 1630 H 150.856 -3.99345 3.1528 0
M  V30 1631 H 150.254 -5.64054 0.431217 0
M  V30 1632 H 148.811 -6.45843 0.879205 0
M  V30 1633 N 152.244 -1.26651 -0.937939 0
M  V30 1634 C 153.49 -1.12553 -1.687 0
M  V30 1635 C 153.823 0.329782 -1.91379 0
M  V30 1636 O 153.098 1.24202 -1.4968 0
M  V30 1637 C 153.381 -1.89862 -3.05981 0
M  V30 1638 C 153.234 -3.43318 -2.90607 0
M  V30 1639 C 154.553 -1.69499 -4.0615 0
M  V30 1640 H 151.672 -0.410257 -0.612257 0
M  V30 1641 H 154.314 -1.55685 -1.08913 0
M  V30 1642 H 152.464 -1.53204 -3.57017 0
M  V30 1643 H 154.136 -3.89747 -2.46769 0
M  V30 1644 H 152.379 -3.70179 -2.26164 0
M  V30 1645 H 153.05 -3.92642 -3.8799 0
M  V30 1646 H 155.526 -2.01442 -3.64088 0
M  V30 1647 H 154.402 -2.26002 -5.00214 0
M  V30 1648 H 154.663 -0.640365 -4.37438 0
M  V30 1649 N 153.722 1.14298 -1.08507 0
M  V30 1650 C 154.632 2.23027 -0.727753 0
M  V30 1651 C 155.648 1.71952 0.26619 0
M  V30 1652 O 156.824 2.011 0.109882 0
M  V30 1653 C 153.889 3.46403 -0.143541 0
M  V30 1654 C 152.95 4.12413 -1.19223 0
M  V30 1655 C 152.183 5.29899 -0.635798 0
M  V30 1656 O 152.406 5.67796 0.544393 0
M  V30 1657 O 151.34 5.85717 -1.38634 0
M  V30 1658 H 155.166 2.55945 -1.63481 0
M  V30 1659 H 152.751 1.22248 -0.858817 0
M  V30 1660 H 154.633 4.21018 0.179404 0
M  V30 1661 H 153.308 3.15206 0.736659 0
M  V30 1662 H 152.215 3.39667 -1.56772 0
M  V30 1663 H 153.548 4.47718 -2.04474 0
M  V30 1664 N 155.201 0.870884 1.31352 0
M  V30 1665 C 156.449 0.48132 1.96285 0
M  V30 1666 C 156.77 -0.969813 1.69173 0
M  V30 1667 O 156.04 -1.67998 1.00764 0
M  V30 1668 H 154.62 0.175002 0.726212 0
M  V30 1669 H 157.282 1.11087 1.60143 0
M  V30 1670 H 156.378 0.639825 3.05471 0
M  V30 1671 N 156.679 -1.44442 0.630414 0
M  V30 1672 C 158.09 -1.85434 0.217063 0
M  V30 1673 C 158.441 -1.52748 -1.23136 0
M  V30 1674 O 157.566 -0.965205 -1.93682 0
M  V30 1675 C 158.161 -3.36581 0.387168 0
M  V30 1676 C 156.72 -3.76389 0.0283297 0
M  V30 1677 C 155.867 -2.68296 0.700889 0
M  V30 1678 H 158.818 -1.34919 0.83562 0
M  V30 1679 H 158.839 -3.78657 -0.374086 0
M  V30 1680 H 158.351 -3.60339 1.44144 0
M  V30 1681 H 156.452 -3.58246 -1.02423 0
M  V30 1682 H 156.565 -4.77095 0.437892 0
M  V30 1683 H 154.929 -2.54335 0.136267 0
M  V30 1684 H 155.712 -2.94887 1.75774 0
M  V30 1685 N 158.157 -0.370918 -1.53173 0
M  V30 1686 C 159.087 0.464847 -2.28826 0
M  V30 1687 C 160.068 1.07936 -1.31468 0
M  V30 1688 O 161.253 1.0956 -1.60344 0
M  V30 1689 C 158.383 1.60196 -3.08147 0
M  V30 1690 C 157.337 1.11443 -4.13237 0
M  V30 1691 C 156.663 2.3422 -4.80672 0
M  V30 1692 C 157.963 0.195384 -5.21934 0
M  V30 1693 H 159.657 -0.166329 -2.98938 0
M  V30 1694 H 157.203 -0.0814359 -1.4377 0
M  V30 1695 H 159.156 2.19332 -3.59822 0
M  V30 1696 H 157.88 2.26045 -2.35735 0
M  V30 1697 H 156.539 0.545727 -3.62515 0
M  V30 1698 H 156.187 2.98537 -4.04827 0
M  V30 1699 H 155.887 2.02269 -5.51689 0
M  V30 1700 H 157.411 2.94032 -5.35143 0
M  V30 1701 H 158.825 0.694375 -5.69079 0
M  V30 1702 H 157.222 -0.0335027 -6.00091 0
M  V30 1703 H 158.292 -0.760961 -4.78892 0
M  V30 1704 N 159.635 1.57281 -0.100228 0
M  V30 1705 C 160.863 1.98879 0.570509 0
M  V30 1706 C 161.278 0.979476 1.61405 0
M  V30 1707 O 160.635 -0.0302288 1.82475 0
M  V30 1708 C 160.686 3.4052 1.2136 0
M  V30 1709 O 160.407 4.37588 0.211786 0
M  V30 1710 C 161.908 3.97149 1.96945 0
M  V30 1711 H 159.128 0.653428 0.152555 0
M  V30 1712 H 161.672 2.03697 -0.18103 0
M  V30 1713 H 159.827 3.367 1.91603 0
M  V30 1714 H 160.241 5.20118 0.676607 0
M  V30 1715 H 161.715 4.98393 2.37294 0
M  V30 1716 H 162.192 3.3525 2.83733 0
M  V30 1717 H 162.798 4.04458 1.31506 0
M  V30 1718 N 161.113 -0.173488 1.56642 0
M  V30 1719 C 162.076 -1.19859 1.95362 0
M  V30 1720 C 163.076 -1.37296 0.83704 0
M  V30 1721 O 164.266 -1.34739 1.10413 0
M  V30 1722 C 161.398 -2.56405 2.24654 0
M  V30 1723 H 162.591 -0.867062 2.87092 0
M  V30 1724 H 160.144 -0.415853 1.50666 0
M  V30 1725 H 160.879 -2.94576 1.35631 0
M  V30 1726 H 160.664 -2.45115 3.06041 0
M  V30 1727 H 162.154 -3.30287 2.5554 0
M  V30 1728 N 162.591 -1.51276 -0.441967 0
M  V30 1729 C 163.521 -1.752 -1.54361 0
M  V30 1730 C 164.502 -0.601682 -1.59103 0
M  V30 1731 O 165.687 -0.843913 -1.74905 0
M  V30 1732 C 162.817 -1.87282 -2.92477 0
M  V30 1733 C 161.771 -3.02687 -3.02596 0
M  V30 1734 C 161.097 -2.99947 -4.42647 0
M  V30 1735 C 162.397 -4.4273 -2.77106 0
M  V30 1736 H 164.091 -2.67442 -1.34592 0
M  V30 1737 H 161.637 -1.28694 -0.646048 0
M  V30 1738 H 163.59 -2.02602 -3.695 0
M  V30 1739 H 162.314 -0.916844 -3.13467 0
M  V30 1740 H 160.973 -2.87065 -2.28012 0
M  V30 1741 H 160.621 -2.02136 -4.60597 0
M  V30 1742 H 160.321 -3.77439 -4.50348 0
M  V30 1743 H 161.845 -3.17354 -5.2165 0
M  V30 1744 H 163.259 -4.58727 -3.43864 0
M  V30 1745 H 161.656 -5.21893 -2.96222 0
M  V30 1746 H 162.726 -4.53087 -1.72744 0
M  V30 1747 N 164.069 0.697108 -1.41344 0
M  V30 1748 C 165.315 1.45796 -1.41828 0
M  V30 1749 C 165.67 1.92382 -0.0261743 0
M  V30 1750 O 164.963 1.66522 0.947688 0
M  V30 1751 C 165.157 2.68553 -2.35826 0
M  V30 1752 C 164.986 2.33975 -3.84039 0
M  V30 1753 C 163.756 2.24414 -4.52732 0
M  V30 1754 C 165.954 1.97048 -4.75054 0
M  V30 1755 N 163.936 1.82705 -5.86082 0
M  V30 1756 C 165.307 1.66086 -5.9734 0
M  V30 1757 C 167.362 1.83845 -4.62715 0
M  V30 1758 C 166.065 1.23246 -7.08663 0
M  V30 1759 C 168.091 1.4241 -5.73998 0
M  V30 1760 C 167.453 1.12357 -6.95381 0
M  V30 1761 H 163.552 0.530859 -0.574206 0
M  V30 1762 H 166.136 0.806674 -1.77203 0
M  V30 1763 H 164.307 3.31404 -2.02549 0
M  V30 1764 H 166.039 3.35015 -2.2704 0
M  V30 1765 H 162.794 2.4276 -4.0665 0
M  V30 1766 H 163.218 1.64337 -6.56751 0
M  V30 1767 H 167.86 2.05734 -3.69369 0
M  V30 1768 H 165.578 1.00102 -8.01876 0
M  V30 1769 H 169.164 1.32746 -5.66454 0
M  V30 1770 H 168.044 0.807795 -7.80028 0
M  V30 1771 N 165.547 1.27147 0.931209 0
M  V30 1772 C 166.457 1.11372 2.06478 0
M  V30 1773 C 167.473 0.044645 1.73943 0
M  V30 1774 O 168.649 0.250417 1.99837 0
M  V30 1775 C 165.714 0.758838 3.38294 0
M  V30 1776 C 164.775 1.90841 3.84549 0
M  V30 1777 C 164.008 1.57036 5.10074 0
M  V30 1778 O 164.231 0.476645 5.68405 0
M  V30 1779 O 163.165 2.40839 5.51616 0
M  V30 1780 H 166.991 2.06493 2.22698 0
M  V30 1781 H 164.576 1.06301 1.04978 0
M  V30 1782 H 166.458 0.574098 4.17471 0
M  V30 1783 H 165.133 -0.162879 3.2329 0
M  V30 1784 H 164.04 2.14819 3.06274 0
M  V30 1785 H 165.373 2.81021 4.04089 0
M  V30 1786 N 167.025 -1.13721 1.09112 0
M  V30 1787 C 168.273 -1.84559 0.823562 0
M  V30 1788 C 168.594 -1.83754 -0.652658 0
M  V30 1789 O 167.864 -1.29102 -1.47342 0
M  V30 1790 H 166.444 -0.683376 0.301673 0
M  V30 1791 H 169.106 -1.37771 1.37859 0
M  V30 1792 H 168.202 -2.8917 1.17419 0
M  V30 1793 N 168.503 -0.877838 -1.30888 0
M  V30 1794 C 169.466 -0.344265 -2.266 0
M  V30 1795 C 170.466 0.50922 -1.52524 0
M  V30 1796 O 171.656 0.317398 -1.71284 0
M  V30 1797 C 168.788 0.510198 -3.37061 0
M  V30 1798 H 169.981 -1.1893 -2.7531 0
M  V30 1799 H 167.534 -0.654088 -1.41956 0
M  V30 1800 H 168.269 1.37612 -2.93655 0
M  V30 1801 H 168.054 -0.101047 -3.9197 0
M  V30 1802 H 169.544 0.875537 -4.08319 0
M  V30 1803 N 169.982 1.44106 -0.638065 0
M  V30 1804 C 171.228 2.02277 -0.145546 0
M  V30 1805 C 171.561 1.50125 1.23191 0
M  V30 1806 O 170.836 0.688133 1.8192 0
M  V30 1807 C 171.119 3.59829 -0.139791 0
M  V30 1808 C 170.972 4.22247 -1.55008 0
M  V30 1809 C 172.291 4.36873 0.531966 0
M  V30 1810 H 169.41 0.734992 -0.0543632 0
M  V30 1811 H 172.052 1.71592 -0.815863 0
M  V30 1812 H 170.202 3.86102 0.431007 0
M  V30 1813 H 171.874 4.07057 -2.1703 0
M  V30 1814 H 170.117 3.79476 -2.10191 0
M  V30 1815 H 170.788 5.31284 -1.49804 0
M  V30 1816 H 173.264 4.16074 0.0464781 0
M  V30 1817 H 172.14 5.4657 0.505206 0
M  V30 1818 H 172.401 4.11995 1.60352 0
M  V30 1819 N 171.46 0.379036 1.52974 0
M  V30 1820 C 172.876 0.0285448 1.59574 0
M  V30 1821 C 173.076 -1.45542 1.39355 0
M  V30 1822 O 172.132 -2.2187 1.20541 0
M  V30 1823 C 173.445 0.496535 2.96572 0
M  V30 1824 C 174.993 0.451909 3.0972 0
M  V30 1825 C 175.468 0.895924 4.49152 0
M  V30 1826 N 176.959 0.851522 4.55306 0
M  V30 1827 C 177.694 1.16661 5.61407 0
M  V30 1828 N 177.19 1.55166 6.752 0
M  V30 1829 N 178.983 1.08853 5.51459 0
M  V30 1830 H 171.134 1.34525 1.64367 0
M  V30 1831 H 173.397 0.550733 0.771619 0
M  V30 1832 H 173.103 1.53258 3.16552 0
M  V30 1833 H 172.977 -0.109802 3.7704 0
M  V30 1834 H 175.364 -0.575029 2.89443 0
M  V30 1835 H 175.445 1.09392 2.3123 0
M  V30 1836 H 175.089 1.92104 4.70168 0
M  V30 1837 H 175.019 0.23103 5.26093 0
M  V30 1838 H 177.51 0.568038 3.73606 0
M  V30 1839 H 177.823 1.776 7.52116 0
M  V30 1840 H 176.168 1.59044 6.76557 0
M  V30 1841 H 179.359 0.786803 4.6144 0
M  V30 1842 H 179.532 1.33742 6.34048 0
M  V30 1843 N 172.938 -1.57226 0.108567 0
M  V30 1844 C 174.349 -1.8195 -0.418464 0
M  V30 1845 C 174.7 -1.02508 -1.67292 0
M  V30 1846 O 173.825 -0.258496 -2.14851 0
M  V30 1847 C 174.42 -3.30028 -0.765979 0
M  V30 1848 C 172.979 -3.55469 -1.23769 0
M  V30 1849 C 172.126 -2.7625 -0.241106 0
M  V30 1850 H 175.077 -1.55149 0.33384 0
M  V30 1851 H 175.098 -3.44086 -1.62434 0
M  V30 1852 H 174.61 -3.87821 0.147219 0
M  V30 1853 H 172.711 -3.03022 -2.16814 0
M  V30 1854 H 172.824 -4.6408 -1.19022 0
M  V30 1855 H 171.188 -2.44133 -0.72602 0
M  V30 1856 H 171.971 -3.36797 0.665007 0
M  V30 1857 N 174.416 0.165178 -1.56732 0
M  V30 1858 C 175.664 0.879068 -1.8198 0
M  V30 1859 C 175.985 1.82514 -0.686561 0
M  V30 1860 O 175.255 1.93694 0.293146 0
M  V30 1861 H 173.835 0.327608 -0.671329 0
M  V30 1862 H 176.497 0.163526 -1.94213 0
M  V30 1863 H 175.593 1.45228 -2.76252 0
M  V30 1864 N 175.894 1.51508 0.433938 0
M  V30 1865 C 176.844 1.69451 1.52546 0
M  V30 1866 C 177.828 0.548474 1.51263 0
M  V30 1867 O 179.02 0.804529 1.57659 0
M  V30 1868 C 176.149 1.82604 2.90707 0
M  V30 1869 C 175.235 3.03002 2.96733 0
M  V30 1870 N 175.626 4.26121 2.72496 0
M  V30 1871 C 173.924 3.02327 3.27894 0
M  V30 1872 C 174.625 5.07407 2.84452 0
M  V30 1873 N 173.601 4.42126 3.16269 0
M  V30 1874 H 177.403 2.62305 1.32564 0
M  V30 1875 H 174.917 1.49202 0.641297 0
M  V30 1876 H 176.914 1.93569 3.69238 0
M  V30 1877 H 175.574 0.909339 3.11707 0
M  V30 1878 H 176.585 4.55009 2.4736 0
M  V30 1879 H 173.262 2.20301 3.54646 0
M  V30 1880 H 174.652 6.15422 2.69639 0
M  V30 1881 N 177.372 -0.689602 1.41712 0
M  V30 1882 C 178.619 -1.44966 1.4139 0
M  V30 1883 C 178.947 -1.94484 0.025105 0
M  V30 1884 O 178.202 -1.70307 -0.964048 0
M  V30 1885 C 178.501 -2.67298 2.37247 0
M  V30 1886 C 178.167 -2.36405 3.83958 0
M  V30 1887 C 176.829 -2.27691 4.23923 0
M  V30 1888 C 179.181 -2.11043 4.76561 0
M  V30 1889 C 176.509 -1.91719 5.54492 0
M  V30 1890 C 178.861 -1.76578 6.07456 0
M  V30 1891 C 177.525 -1.66363 6.46436 0
M  V30 1892 H 176.795 -0.53047 0.517381 0
M  V30 1893 H 179.442 -0.787655 1.74552 0
M  V30 1894 H 177.747 -3.38461 1.9736 0
M  V30 1895 H 179.444 -3.25452 2.34269 0
M  V30 1896 H 176.034 -2.44085 3.52308 0
M  V30 1897 H 180.218 -2.16717 4.46483 0
M  V30 1898 H 175.474 -1.82367 5.83568 0
M  V30 1899 H 179.648 -1.55974 6.78708 0
M  V30 1900 H 177.275 -1.38258 7.47522 0
M  V30 1901 N 178.85 -1.27639 -0.924453 0
M  V30 1902 C 179.782 -1.06442 -2.02985 0
M  V30 1903 C 180.795 -0.0194771 -1.62788 0
M  V30 1904 O 181.984 -0.261388 -1.76576 0
M  V30 1905 C 179.084 -0.59327 -3.33667 0
M  V30 1906 C 178.257 -1.71123 -4.02537 0
M  V30 1907 C 177.316 -1.23527 -5.11495 0
M  V30 1908 O 176.342 -1.93553 -5.35281 0
M  V30 1909 N 177.544 -0.0926678 -5.80426 0
M  V30 1910 H 180.309 -2.01633 -2.2173 0
M  V30 1911 H 177.87 -1.19248 -1.09505 0
M  V30 1912 H 179.862 -0.258686 -4.03872 0
M  V30 1913 H 178.432 0.265502 -3.1147 0
M  V30 1914 H 177.652 -2.21593 -3.26022 0
M  V30 1915 H 178.94 -2.46145 -4.45298 0
M  V30 1916 H 178.338 0.491741 -5.63559 0
M  V30 1917 H 176.895 0.182714 -6.51544 0
M  V30 1918 N 180.328 1.1314 -1.09713 0
M  V30 1919 C 181.576 1.84119 -0.833338 0
M  V30 1920 C 181.897 1.84097 0.642904 0
M  V30 1921 O 181.167 1.29881 1.46655 0
M  V30 1922 H 179.747 0.681766 -0.305293 0
M  V30 1923 H 182.409 1.37038 -1.38588 0
M  V30 1924 H 181.505 2.88543 -1.18951 0
M  V30 1925 N 181.806 0.884767 1.30421 0
M  V30 1926 C 183.052 0.503851 1.96441 0
M  V30 1927 C 183.385 -0.944518 1.69684 0
M  V30 1928 O 182.66 -1.66737 1.00145 0
M  V30 1929 C 182.943 0.779085 3.51571 0
M  V30 1930 C 182.796 2.27807 3.87846 0
M  V30 1931 C 184.115 0.255452 4.39358 0
M  V30 1932 H 181.234 0.184533 0.713524 0
M  V30 1933 H 183.876 1.10872 1.54297 0
M  V30 1934 H 182.026 0.264274 3.876 0
M  V30 1935 H 183.698 2.86127 3.61841 0
M  V30 1936 H 181.941 2.74479 3.35922 0
M  V30 1937 H 182.612 2.42125 4.96064 0
M  V30 1938 H 185.088 0.696079 4.10236 0
M  V30 1939 H 183.964 0.477361 5.4682 0
M  V30 1940 H 184.225 -0.843293 4.33983 0
M  V30 1941 N 183.284 -1.43765 0.645699 0
M  V30 1942 C 184.247 -2.29163 -0.0409488 0
M  V30 1943 C 185.247 -1.41813 -0.757996 0
M  V30 1944 O 186.437 -1.63527 -0.600382 0
M  V30 1945 C 183.569 -3.23716 -1.06869 0
M  V30 1946 H 184.762 -2.91366 0.710345 0
M  V30 1947 H 182.315 -1.5092 0.406547 0
M  V30 1948 H 183.05 -2.66393 -1.84947 0
M  V30 1949 H 182.835 -3.88105 -0.558277 0
M  V30 1950 H 184.325 -3.87831 -1.54845 0
M  V30 1951 N 184.763 -0.387143 -1.52771 0
M  V30 1952 C 185.991 0.195869 -2.05971 0
M  V30 1953 C 186.406 1.40691 -1.25903 0
M  V30 1954 O 185.763 1.79931 -0.305134 0
M  V30 1955 C 185.814 0.56812 -3.57008 0
M  V30 1956 O 185.535 -0.594803 -4.34043 0
M  V30 1957 C 187.036 1.20723 -4.26545 0
M  V30 1958 H 184.256 0.0300578 -0.670326 0
M  V30 1959 H 186.8 -0.551749 -1.96916 0
M  V30 1960 H 184.955 1.26564 -3.66143 0
M  V30 1961 H 185.369 -0.289322 -5.23701 0
M  V30 1962 H 186.843 1.41807 -5.33474 0
M  V30 1963 H 187.32 2.17395 -3.81623 0
M  V30 1964 H 187.926 0.550535 -4.21722 0
M  V30 1965 N 186.241 1.57166 -0.116904 0
M  V30 1966 C 187.487 1.95412 0.542405 0
M  V30 1967 C 187.82 1.00019 1.66463 0
M  V30 1968 O 187.095 0.0370346 1.94465 0
M  V30 1969 C 187.378 3.43615 1.07708 0
M  V30 1970 C 187.231 4.49781 -0.0415868 0
M  V30 1971 C 188.55 3.93616 1.96861 0
M  V30 1972 H 185.669 0.710543 0.195696 0
M  V30 1973 H 188.311 1.89027 -0.192038 0
M  V30 1974 H 186.461 3.49187 1.70296 0
M  V30 1975 H 188.133 4.56308 -0.676793 0
M  V30 1976 H 186.376 4.28033 -0.705019 0
M  V30 1977 H 187.047 5.50733 0.373717 0
M  V30 1978 H 189.523 3.90335 1.44146 0
M  V30 1979 H 188.399 4.97838 2.3119 0
M  V30 1980 H 188.66 3.34188 2.89432 0
M  V30 1981 N 187.719 -0.156864 1.56817 0
M  V30 1982 C 188.965 -0.872416 1.83076 0
M  V30 1983 C 189.298 -1.81261 0.697001 0
M  V30 1984 O 188.573 -1.92171 -0.30008 0
M  V30 1985 C 188.856 -1.65551 3.19789 0
M  V30 1986 C 188.709 -0.737467 4.43713 0
M  V30 1987 C 190.028 -2.62012 3.53606 0
M  V30 1988 H 187.147 -0.315715 0.665953 0
M  V30 1989 H 189.789 -0.138004 1.89498 0
M  V30 1990 H 187.939 -2.28159 3.14445 0
M  V30 1991 H 189.611 -0.123143 4.61136 0
M  V30 1992 H 187.854 -0.0464067 4.33775 0
M  V30 1993 H 188.525 -1.32122 5.35955 0
M  V30 1994 H 191.001 -2.09525 3.59497 0
M  V30 1995 H 189.877 -3.13861 4.50314 0
M  V30 1996 H 190.138 -3.42902 2.79053 0
M  V30 1997 N 189.197 -1.51736 -0.425897 0
M  V30 1998 C 190.16 -1.73271 -1.50032 0
M  V30 1999 C 191.16 -0.602639 -1.4908 0
M  V30 2000 O 192.35 -0.87033 -1.509 0
M  V30 2001 C 189.482 -1.79969 -2.89523 0
M  V30 2002 H 190.675 -2.69172 -1.32237 0
M  V30 2003 H 188.228 -1.41899 -0.65532 0
M  V30 2004 H 188.963 -0.859241 -3.1271 0
M  V30 2005 H 188.748 -2.62109 -2.91619 0
M  V30 2006 H 190.238 -1.9843 -3.67444 0
M  V30 2007 N 190.675 0.682077 -1.42076 0
M  V30 2008 C 192.091 0.994324 -1.24841 0
M  V30 2009 C 192.291 2.0096 -0.147389 0
M  V30 2010 O 191.347 2.47822 0.483782 0
M  V30 2011 C 192.66 1.50607 -2.60265 0
M  V30 2012 C 194.208 1.62421 -2.6756 0
M  V30 2013 C 194.683 2.16994 -4.03333 0
M  V30 2014 N 196.174 2.24337 -4.0525 0
M  V30 2015 C 196.909 2.67621 -5.07116 0
M  V30 2016 N 196.405 3.1041 -6.19368 0
M  V30 2017 N 198.198 2.67305 -4.94474 0
M  V30 2018 H 190.349 0.00973908 -2.12398 0
M  V30 2019 H 192.612 0.0668593 -0.945639 0
M  V30 2020 H 192.318 0.834583 -3.41654 0
M  V30 2021 H 192.192 2.48602 -2.83684 0
M  V30 2022 H 194.579 2.28678 -1.86521 0
M  V30 2023 H 194.66 0.629352 -2.47937 0
M  V30 2024 H 194.304 1.51349 -4.84826 0
M  V30 2025 H 194.234 3.17258 -4.20304 0
M  V30 2026 H 196.725 1.94158 -3.24209 0
M  V30 2027 H 197.038 3.42103 -6.92954 0
M  V30 2028 H 195.383 3.08286 -6.22884 0
M  V30 2029 H 198.574 2.33233 -4.05857 0
M  V30 2030 H 198.747 3.00718 -5.73997 0
M  V30 2031 N 192.153 1.28127 0.917671 0
M  V30 2032 C 193.083 1.14248 2.03641 0
M  V30 2033 C 194.064 0.0412748 1.7005 0
M  V30 2034 O 195.249 0.217566 1.92977 0
M  V30 2035 C 192.379 0.799431 3.37974 0
M  V30 2036 C 191.333 1.85497 3.85713 0
M  V30 2037 C 190.659 1.36565 5.16966 0
M  V30 2038 C 191.959 3.26085 4.08002 0
M  V30 2039 H 193.653 2.07835 2.15511 0
M  V30 2040 H 191.199 1.00064 1.03553 0
M  V30 2041 H 193.152 0.689114 4.15727 0
M  V30 2042 H 191.876 -0.172145 3.26146 0
M  V30 2043 H 190.535 1.95437 3.10161 0
M  V30 2044 H 190.183 0.383253 5.01538 0
M  V30 2045 H 189.883 2.07143 5.49878 0
M  V30 2046 H 191.407 1.26848 5.97279 0
M  V30 2047 H 192.821 3.19089 4.76293 0
M  V30 2048 H 191.218 3.94462 4.52238 0
M  V30 2049 H 192.288 3.70394 3.12948 0
M  V30 2050 N 193.631 -1.12557 1.10312 0
M  V30 2051 C 194.878 -1.84038 0.844759 0
M  V30 2052 C 195.206 -1.84026 -0.629668 0
M  V30 2053 O 194.461 -1.28026 -1.48013 0
M  V30 2054 C 194.76 -3.31462 1.33669 0
M  V30 2055 C 194.426 -3.51647 2.82232 0
M  V30 2056 C 193.088 -3.56864 3.22802 0
M  V30 2057 C 195.44 -3.58867 3.77974 0
M  V30 2058 C 192.768 -3.66844 4.57867 0
M  V30 2059 C 195.12 -3.70375 5.1284 0
M  V30 2060 C 193.784 -3.73848 5.52986 0
M  V30 2061 H 193.054 -0.673444 0.309119 0
M  V30 2062 H 195.701 -1.32824 1.37949 0
M  V30 2063 H 194.006 -3.85091 0.721949 0
M  V30 2064 H 195.703 -3.85236 1.11329 0
M  V30 2065 H 192.293 -3.48249 2.49842 0
M  V30 2066 H 196.477 -3.54107 3.47738 0
M  V30 2067 H 191.733 -3.67804 4.88396 0
M  V30 2068 H 195.907 -3.74904 5.86873 0
M  V30 2069 H 193.534 -3.81333 6.57639 0
M  V30 2070 N 195.109 -0.891671 -1.2995 0
M  V30 2071 C 196.039 -0.379797 -2.30391 0
M  V30 2072 C 197.02 0.540919 -1.6127 0
M  V30 2073 O 198.205 0.453352 -1.88834 0
M  V30 2074 C 195.335 0.400654 -3.44981 0
M  V30 2075 C 194.289 -0.428905 -4.25846 0
M  V30 2076 C 193.615 0.478557 -5.32554 0
M  V30 2077 C 194.915 -1.67458 -4.94727 0
M  V30 2078 H 196.609 -1.21914 -2.73454 0
M  V30 2079 H 194.155 -0.587675 -1.31462 0
M  V30 2080 H 196.108 0.769434 -4.14316 0
M  V30 2081 H 194.832 1.27371 -3.0074 0
M  V30 2082 H 193.491 -0.779911 -3.58208 0
M  V30 2083 H 193.139 1.34951 -4.84559 0
M  V30 2084 H 192.839 -0.0727433 -5.87555 0
M  V30 2085 H 194.363 0.843705 -6.04743 0
M  V30 2086 H 195.777 -1.376 -5.56542 0
M  V30 2087 H 194.174 -2.16659 -5.59624 0
M  V30 2088 H 195.244 -2.41518 -4.20473 0
M  V30 2089 N 196.587 1.43421 -0.653314 0
M  V30 2090 C 197.517 2.33487 0.0246656 0
M  V30 2091 C 198.498 1.49475 0.811863 0
M  V30 2092 O 199.683 1.78139 0.773322 0
M  V30 2093 C 196.813 3.32841 0.99166 0
M  V30 2094 C 195.767 4.26842 0.314568 0
M  V30 2095 C 195.093 5.16236 1.39302 0
M  V30 2096 C 196.393 5.16243 -0.793095 0
M  V30 2097 H 198.087 2.90427 -0.727481 0
M  V30 2098 H 195.633 1.39649 -0.351287 0
M  V30 2099 H 197.586 3.94747 1.47487 0
M  V30 2100 H 196.31 2.74158 1.77497 0
M  V30 2101 H 194.969 3.663 -0.148199 0
M  V30 2102 H 194.617 4.53891 2.16776 0
M  V30 2103 H 194.317 5.79948 0.945223 0
M  V30 2104 H 195.841 5.81015 1.87759 0
M  V30 2105 H 197.255 5.71958 -0.392039 0
M  V30 2106 H 195.652 5.88676 -1.16536 0
M  V30 2107 H 196.722 4.55927 -1.65103 0
M  V30 2108 N 198.065 0.39524 1.52563 0
M  V30 2109 C 199.311 -0.185318 2.01952 0
M  V30 2110 C 199.644 -1.45964 1.28095 0
M  V30 2111 O 198.919 -1.90689 0.38315 0
M  V30 2112 C 199.202 -0.447193 3.57312 0
M  V30 2113 C 199.055 0.842828 4.41833 0
M  V30 2114 C 200.374 -1.23529 4.22408 0
M  V30 2115 H 197.493 -0.0658788 0.73405 0
M  V30 2116 H 200.135 0.525975 1.82575 0
M  V30 2117 H 198.285 -1.05312 3.73954 0
M  V30 2118 H 199.957 1.4795 4.36931 0
M  V30 2119 H 198.2 1.45686 4.08605 0
M  V30 2120 H 198.871 0.614165 5.48573 0
M  V30 2121 H 201.347 -0.722445 4.0978 0
M  V30 2122 H 200.223 -1.38727 5.3108 0
M  V30 2123 H 200.484 -2.25213 3.80436 0
M  V30 2124 N 199.544 -1.57102 0.125237 0
M  V30 2125 C 200.476 -2.12726 -0.853237 0
M  V30 2126 C 201.489 -1.07145 -1.22571 0
M  V30 2127 O 202.678 -1.34497 -1.17358 0
M  V30 2128 C 199.778 -2.61709 -2.15317 0
M  V30 2129 C 198.951 -3.91456 -1.95143 0
M  V30 2130 C 198.01 -4.25973 -3.08923 0
M  V30 2131 O 197.036 -4.94682 -2.81564 0
M  V30 2132 N 198.238 -3.83795 -4.35524 0
M  V30 2133 H 201.003 -2.97307 -0.377964 0
M  V30 2134 H 198.564 -1.61792 -0.0590011 0
M  V30 2135 H 200.556 -2.81826 -2.90441 0
M  V30 2136 H 199.126 -1.81974 -2.54174 0
M  V30 2137 H 198.346 -3.80185 -1.04177 0
M  V30 2138 H 199.634 -4.76283 -1.78976 0
M  V30 2139 H 199.032 -3.2839 -4.60626 0
M  V30 2140 H 197.589 -4.09008 -5.07499 0
M  V30 2141 N 201.022 0.148545 -1.56898 0
M  V30 2142 C 202.433 0.708766 -1.72723 0
M  V30 2143 C 202.784 1.81734 -0.739395 0
M  V30 2144 O 201.909 2.16194 0.0943169 0
M  V30 2145 C 202.504 1.29245 -3.13179 0
M  V30 2146 C 201.063 1.79925 -3.30611 0
M  V30 2147 C 200.21 0.687111 -2.68652 0
M  V30 2148 H 203.161 -0.0771063 -1.58513 0
M  V30 2149 H 203.182 2.16224 -3.13093 0
M  V30 2150 H 202.694 0.485382 -3.85053 0
M  V30 2151 H 200.795 2.63203 -2.63732 0
M  V30 2152 H 200.908 1.92903 -4.38549 0
M  V30 2153 H 199.272 1.11335 -2.29078 0
M  V30 2154 H 200.055 -0.108483 -3.43129 0
M  V30 2155 N 202.5 1.5196 0.417844 0
M  V30 2156 C 203.432 1.70895 1.52733 0
M  V30 2157 C 204.445 0.589405 1.51756 0
M  V30 2158 O 205.634 0.864312 1.56179 0
M  V30 2159 C 202.734 1.72627 2.91639 0
M  V30 2160 C 201.907 3.01479 3.16905 0
M  V30 2161 C 200.966 2.95139 4.35637 0
M  V30 2162 O 199.992 3.69059 4.3334 0
M  V30 2163 N 201.194 2.12328 5.40275 0
M  V30 2164 H 203.959 2.66612 1.36888 0
M  V30 2165 H 201.52 1.50089 0.607037 0
M  V30 2166 H 203.512 1.65928 3.6912 0
M  V30 2167 H 202.082 0.844216 3.00985 0
M  V30 2168 H 201.302 3.21895 2.27546 0
M  V30 2169 H 202.59 3.86736 3.30625 0
M  V30 2170 H 201.988 1.51685 5.44985 0
M  V30 2171 H 200.545 2.11494 6.16534 0
M  V30 2172 N 203.978 -0.674533 1.42435 0
M  V30 2173 C 205.394 -0.98769 1.25367 0
M  V30 2174 C 205.594 -2.00879 0.158044 0
M  V30 2175 O 204.65 -2.48075 -0.470633 0
M  V30 2176 C 205.963 -1.49224 2.6106 0
M  V30 2177 C 207.511 -1.61 2.68417 0
M  V30 2178 C 207.986 -2.14852 4.04478 0
M  V30 2179 N 209.477 -2.22185 4.06434 0
M  V30 2180 C 210.212 -2.64928 5.08528 0
M  V30 2181 N 209.708 -3.07121 6.21006 0
M  V30 2182 N 211.501 -2.64679 4.95885 0
M  V30 2183 H 203.652 0.00152503 2.124 0
M  V30 2184 H 205.915 -0.0618434 0.945981 0
M  V30 2185 H 205.621 -0.816453 3.42092 0
M  V30 2186 H 205.495 -2.47094 2.84999 0
M  V30 2187 H 207.882 -2.27686 1.87732 0
M  V30 2188 H 207.963 -0.616195 2.48267 0
M  V30 2189 H 207.607 -1.48775 4.85622 0
M  V30 2190 H 207.537 -3.15024 4.2198 0
M  V30 2191 H 210.028 -1.92435 3.25234 0
M  V30 2192 H 210.341 -3.38423 6.94759 0
M  V30 2193 H 208.686 -3.04978 6.24511 0
M  V30 2194 H 211.877 -2.31078 4.07088 0
M  V30 2195 H 212.05 -2.9767 5.75584 0
M  V30 2196 N 205.456 -1.28612 -0.910864 0
M  V30 2197 C 206.419 -1.12803 -1.9952 0
M  V30 2198 C 207.419 -0.0668264 -1.60661 0
M  V30 2199 O 208.609 -0.312847 -1.71368 0
M  V30 2200 C 205.741 -0.72254 -3.33155 0
M  V30 2201 H 206.934 -2.09109 -2.14973 0
M  V30 2202 H 204.487 -1.11639 -1.09391 0
M  V30 2203 H 205.222 0.241152 -3.23402 0
M  V30 2204 H 205.007 -1.48916 -3.62721 0
M  V30 2205 H 206.497 -0.634666 -4.12749 0
M  V30 2206 N 206.934 1.1197 -1.10907 0
M  V30 2207 C 208.164 1.8713 -0.875553 0
M  V30 2208 C 208.572 1.8016 0.577843 0
M  V30 2209 O 207.915 1.17699 1.41042 0
M  V30 2210 C 207.977 3.37005 -1.2517 0
M  V30 2211 C 207.641 3.67748 -2.71313 0
M  V30 2212 C 208.638 3.65698 -3.69542 0
M  V30 2213 C 206.323 3.96928 -3.07821 0
M  V30 2214 C 208.317 3.92395 -5.023 0
M  V30 2215 C 206.004 4.23284 -4.40765 0
M  V30 2216 C 207.002 4.21005 -5.37814 0
M  V30 2217 O 206.69 4.46704 -6.68364 0
M  V30 2218 H 206.422 0.598786 -0.313737 0
M  V30 2219 H 208.976 1.42568 -1.47863 0
M  V30 2220 H 207.206 3.82146 -0.591741 0
M  V30 2221 H 208.895 3.93519 -0.994877 0
M  V30 2222 H 209.661 3.43211 -3.42682 0
M  V30 2223 H 205.54 3.97841 -2.32902 0
M  V30 2224 H 209.084 3.90531 -5.78041 0
M  V30 2225 H 204.981 4.45246 -4.67361 0
M  V30 2226 H 205.749 4.64299 -6.74069 0
M  V30 2227 N 208.412 0.89855 1.29475 0
M  V30 2228 C 209.659 0.523882 1.95606 0
M  V30 2229 C 209.987 -0.929608 1.70847 0
M  V30 2230 O 209.242 -1.67401 1.01367 0
M  V30 2231 C 209.541 0.761398 3.49195 0
M  V30 2232 C 209.207 2.19207 3.94029 0
M  V30 2233 C 207.869 2.58326 4.05982 0
M  V30 2234 C 210.221 3.12379 4.17216 0
M  V30 2235 C 207.549 3.898 4.38489 0
M  V30 2236 C 209.901 4.43401 4.51197 0
M  V30 2237 C 208.565 4.82394 4.61359 0
M  V30 2238 H 207.835 0.191702 0.715773 0
M  V30 2239 H 210.482 1.13699 1.54094 0
M  V30 2240 H 208.787 0.0653622 3.91745 0
M  V30 2241 H 210.484 0.450904 3.98457 0
M  V30 2242 H 207.074 1.87846 3.85242 0
M  V30 2243 H 211.258 2.83371 4.07449 0
M  V30 2244 H 206.514 4.19734 4.44559 0
M  V30 2245 H 210.688 5.15623 4.68087 0
M  V30 2246 H 208.315 5.84306 4.86303 0
M  V30 2247 N 209.89 -1.43072 0.660911 0
M  V30 2248 C 211.138 -2.01323 0.177094 0
M  V30 2249 C 211.459 -1.5245 -1.2159 0
M  V30 2250 O 210.729 -0.740322 -1.81373 0
M  V30 2251 H 209.309 -0.744382 0.0624804 0
M  V30 2252 H 211.971 -1.75179 0.854305 0
M  V30 2253 H 211.067 -3.11649 0.167641 0
M  V30 2254 N 211.368 -0.403325 -1.52352 0
M  V30 2255 C 212.278 0.432009 -2.30588 0
M  V30 2256 C 213.294 1.05884 -1.38075 0
M  V30 2257 O 214.47 1.06161 -1.71148 0
M  V30 2258 C 211.535 1.53669 -3.10784 0
M  V30 2259 C 210.596 0.933525 -4.19027 0
M  V30 2260 C 209.829 1.98557 -4.9539 0
M  V30 2261 O 210.052 3.20283 -4.71991 0
M  V30 2262 O 208.986 1.59504 -5.80381 0
M  V30 2263 H 212.812 -0.205739 -3.03002 0
M  V30 2264 H 210.397 -0.166675 -1.48467 0
M  V30 2265 H 212.279 2.17814 -3.60742 0
M  V30 2266 H 210.954 2.15915 -2.41169 0
M  V30 2267 H 209.861 0.254954 -3.7323 0
M  V30 2268 H 211.194 0.35508 -4.90918 0
M  V30 2269 N 212.846 1.57033 -0.133567 0
M  V30 2270 C 213.793 2.16074 0.811208 0
M  V30 2271 C 214.763 1.08979 1.2535 0
M  V30 2272 O 215.948 1.36958 1.32843 0
M  V30 2273 C 213.088 2.77595 2.05024 0
M  V30 2274 C 212.201 3.99042 1.65498 0
M  V30 2275 C 211.336 4.48603 2.84479 0
M  V30 2276 C 210.375 5.62547 2.41262 0
M  V30 2277 N 209.512 6.06787 3.53206 0
M  V30 2278 H 214.352 2.96477 0.300906 0
M  V30 2279 H 211.889 1.46462 0.136822 0
M  V30 2280 H 213.847 3.11402 2.77642 0
M  V30 2281 H 212.477 1.99859 2.53488 0
M  V30 2282 H 211.529 3.71302 0.826981 0
M  V30 2283 H 212.841 4.81629 1.29748 0
M  V30 2284 H 211.995 4.84395 3.65303 0
M  V30 2285 H 210.734 3.64995 3.23465 0
M  V30 2286 H 209.739 5.26345 1.58874 0
M  V30 2287 H 210.964 6.47931 2.03377 0
M  V30 2288 H 208.91 5.26117 3.91838 0
M  V30 2289 H 208.827 6.84266 3.21427 0
M  V30 2290 H 210.095 6.4722 4.34427 0
M  V30 2291 N 214.325 -0.140222 1.56975 0
M  V30 2292 C 215.602 -0.880769 1.74648 0
M  V30 2293 C 215.982 -1.99036 0.703404 0
M  V30 2294 O 215.33 -2.26821 -0.27648 0
M  V30 2295 C 215.54 -1.417 3.18939 0
M  V30 2296 C 216.888 -1.87774 3.80823 0
M  V30 2297 O 217.912 -1.51427 3.2241 0
M  V30 2298 O 216.771 -2.54827 4.83452 0
M  V30 2299 H 213.865 -0.416713 0.714338 0
M  V30 2300 H 216.411 -0.125618 1.69234 0
M  V30 2301 H 215.183 -0.619902 3.86359 0
M  V30 2302 H 214.806 -2.23546 3.28805 0
M  V30 2303 N 215.803 -1.52179 -0.40978 0
M  V30 2304 C 217.033 -1.69807 -1.17682 0
M  V30 2305 C 217.441 -0.406908 -1.84773 0
M  V30 2306 O 216.784 0.626863 -1.72673 0
M  V30 2307 C 216.846 -2.77712 -2.2829 0
M  V30 2308 C 216.51 -4.19481 -1.81341 0
M  V30 2309 C 217.507 -5.03345 -1.30154 0
M  V30 2310 C 215.192 -4.65713 -1.88194 0
M  V30 2311 C 217.186 -6.31511 -0.864416 0
M  V30 2312 C 214.873 -5.93869 -1.44093 0
M  V30 2313 C 215.871 -6.76597 -0.933023 0
M  V30 2314 O 215.559 -8.02354 -0.49838 0
M  V30 2315 H 215.291 -0.572372 -0.359675 0
M  V30 2316 H 217.845 -1.99511 -0.488311 0
M  V30 2317 H 216.075 -2.43383 -3.00502 0
M  V30 2318 H 217.764 -2.83946 -2.90051 0
M  V30 2319 H 218.53 -4.68819 -1.24232 0
M  V30 2320 H 214.409 -4.01424 -2.26671 0
M  V30 2321 H 217.953 -6.96033 -0.467286 0
M  V30 2322 H 213.85 -6.27903 -1.49694 0
M  V30 2323 H 214.618 -8.16135 -0.621747 0
M  V30 2324 N 217.281 0.66697 -1.42791 0
M  V30 2325 C 218.213 1.7925 -1.42836 0
M  V30 2326 C 219.226 1.59496 -0.326333 0
M  V30 2327 O 220.415 1.6847 -0.589916 0
M  V30 2328 C 217.515 3.16476 -1.21229 0
M  V30 2329 C 216.688 3.63011 -2.44013 0
M  V30 2330 C 215.747 4.78993 -2.17834 0
M  V30 2331 O 214.773 4.89137 -2.91091 0
M  V30 2332 N 215.975 5.68248 -1.18635 0
M  V30 2333 H 218.74 1.79695 -2.39854 0
M  V30 2334 H 216.301 0.850338 -1.37771 0
M  V30 2335 H 218.293 3.91734 -1.01621 0
M  V30 2336 H 216.863 3.10884 -0.32706 0
M  V30 2337 H 216.083 2.78346 -2.79137 0
M  V30 2338 H 217.371 3.90845 -3.25757 0
M  V30 2339 H 216.769 5.62712 -0.580615 0
M  V30 2340 H 215.326 6.43285 -1.05013 0
M  V30 2341 N 218.759 1.29093 0.90403 0
M  V30 2342 C 219.691 1.09658 2.01266 0
M  V30 2343 C 220.704 0.0453729 1.62737 0
M  V30 2344 O 221.893 0.289446 1.76138 0
M  V30 2345 C 218.993 0.646278 3.32681 0
M  V30 2346 C 218.166 1.77505 3.99763 0
M  V30 2347 C 217.225 1.31649 5.09465 0
M  V30 2348 O 216.251 2.02045 5.32134 0
M  V30 2349 N 217.453 0.184997 5.80205 0
M  V30 2350 H 220.218 2.05135 2.18494 0
M  V30 2351 H 217.779 1.20975 1.07594 0
M  V30 2352 H 219.771 0.322906 4.0341 0
M  V30 2353 H 218.341 -0.215916 3.11853 0
M  V30 2354 H 217.561 2.26752 3.22455 0
M  V30 2355 H 218.849 2.53198 4.41325 0
M  V30 2356 H 218.247 -0.402021 5.6427 0
M  V30 2357 H 216.804 -0.0790358 6.51752 0
M  V30 2358 N 220.237 -1.11381 1.11499 0
M  V30 2359 C 221.167 -2.19509 0.796125 0
M  V30 2360 C 222.148 -1.68458 -0.235796 0
M  V30 2361 O 223.333 -1.93947 -0.0991344 0
M  V30 2362 C 220.463 -3.46475 0.239205 0
M  V30 2363 C 219.417 -4.10744 1.20307 0
M  V30 2364 C 218.743 -5.32293 0.50683 0
M  V30 2365 C 220.043 -4.55597 2.55399 0
M  V30 2366 H 221.737 -2.46439 1.70024 0
M  V30 2367 H 219.283 -1.18446 0.818935 0
M  V30 2368 H 221.236 -4.214 0.00392006 0
M  V30 2369 H 219.96 -3.19006 -0.700206 0
M  V30 2370 H 218.619 -3.37813 1.42399 0
M  V30 2371 H 218.267 -5.01095 -0.437408 0
M  V30 2372 H 217.967 -5.76243 1.1497 0
M  V30 2373 H 219.491 -6.09956 0.280351 0
M  V30 2374 H 220.905 -5.21841 2.37391 0
M  V30 2375 H 219.302 -5.10363 3.15673 0
M  V30 2376 H 220.372 -3.69013 3.14575 0
M  V30 2377 N 221.715 -0.905404 -1.28997 0
M  V30 2378 C 222.645 -0.404212 -2.29975 0
M  V30 2379 C 223.626 0.523784 -1.61835 0
M  V30 2380 O 224.811 0.433298 -1.89304 0
M  V30 2381 C 221.941 0.364042 -3.45387 0
M  V30 2382 C 220.895 -0.474048 -4.25367 0
M  V30 2383 C 220.221 0.422045 -5.33032 0
M  V30 2384 C 221.521 -1.72696 -4.92923 0
M  V30 2385 H 223.215 -1.24807 -2.72146 0
M  V30 2386 H 220.761 -0.601585 -1.30832 0
M  V30 2387 H 222.714 0.725447 -4.15109 0
M  V30 2388 H 221.438 1.24174 -3.02074 0
M  V30 2389 H 220.097 -0.81786 -3.57361 0
M  V30 2390 H 219.745 1.29804 -4.85963 0
M  V30 2391 H 219.445 -0.135057 -5.87445 0
M  V30 2392 H 220.969 0.779517 -6.05604 0
M  V30 2393 H 222.383 -1.43495 -5.55051 0
M  V30 2394 H 220.78 -2.22582 -5.57295 0
M  V30 2395 H 221.85 -2.45964 -4.17887 0
M  V30 2396 N 223.193 1.4272 -0.668489 0
M  V30 2397 C 224.439 2.01923 -0.188419 0
M  V30 2398 C 224.772 1.52704 1.19979 0
M  V30 2399 O 224.047 0.726566 1.8042 0
M  V30 2400 C 224.33 3.59451 -0.216085 0
M  V30 2401 C 224.183 4.18864 -1.6393 0
M  V30 2402 C 225.502 4.37903 0.439179 0
M  V30 2403 H 222.621 0.733674 -0.0699412 0
M  V30 2404 H 225.263 1.69822 -0.852076 0
M  V30 2405 H 223.413 3.86929 0.349012 0
M  V30 2406 H 225.085 4.02362 -2.25616 0
M  V30 2407 H 223.328 3.74933 -2.18193 0
M  V30 2408 H 223.999 5.27987 -1.61039 0
M  V30 2409 H 226.475 4.16079 -0.0417878 0
M  V30 2410 H 225.351 5.47519 0.389157 0
M  V30 2411 H 225.612 4.15303 1.51577 0
M  V30 2412 N 224.671 0.411399 1.52136 0
M  V30 2413 C 225.917 -0.163888 2.02137 0
M  V30 2414 C 226.25 -1.44597 1.29636 0
M  V30 2415 O 225.525 -1.90272 0.403353 0
M  V30 2416 C 225.808 -0.40927 3.57767 0
M  V30 2417 C 225.661 0.889643 4.40914 0
M  V30 2418 C 226.98 -1.19042 4.23694 0
M  V30 2419 H 224.099 -0.0580896 0.734707 0
M  V30 2420 H 226.741 0.54531 1.82007 0
M  V30 2421 H 224.891 -1.0134 3.7505 0
M  V30 2422 H 226.563 1.52575 4.35337 0
M  V30 2423 H 224.806 1.50011 4.07037 0
M  V30 2424 H 225.477 0.672314 5.4789 0
M  V30 2425 H 227.953 -0.678942 4.10524 0
M  V30 2426 H 226.829 -1.33086 5.32522 0
M  V30 2427 H 227.09 -2.21166 3.82803 0
M  V30 2428 N 226.149 -1.5696 0.141893 0
M  V30 2429 C 227.565 -1.58151 -0.21456 0
M  V30 2430 C 227.765 -1.1559 -1.65049 0
M  V30 2431 O 226.821 -0.853832 -2.37626 0
M  V30 2432 C 228.134 -3.00674 0.0395576 0
M  V30 2433 C 229.682 -3.1299 -0.0245529 0
M  V30 2434 C 230.157 -4.57554 0.202167 0
M  V30 2435 N 231.648 -4.62961 0.148919 0
M  V30 2436 C 232.383 -5.7262 0.298924 0
M  V30 2437 N 231.879 -6.90947 0.50637 0
M  V30 2438 N 233.672 -5.61601 0.236886 0
M  V30 2439 H 225.823 -1.8292 1.07953 0
M  V30 2440 H 228.086 -0.846425 0.42693 0
M  V30 2441 H 227.792 -3.36183 1.03315 0
M  V30 2442 H 227.666 -3.70981 -0.682143 0
M  V30 2443 H 230.053 -2.77326 -1.00869 0
M  V30 2444 H 230.134 -2.4518 0.729396 0
M  V30 2445 H 229.778 -4.93922 1.18338 0
M  V30 2446 H 229.708 -5.23484 -0.572044 0
M  V30 2447 H 232.199 -3.77899 -0.00697015 0
M  V30 2448 H 232.512 -7.7038 0.611076 0
M  V30 2449 H 230.857 -6.92878 0.542628 0
M  V30 2450 H 234.048 -4.68039 0.0756209 0
M  V30 2451 H 234.221 -6.47015 0.357227 0
M  V30 2452 N 227.627 0.131896 -1.57047 0
M  V30 2453 C 229.043 0.485031 -1.52051 0
M  V30 2454 C 229.243 1.82563 -0.85281 0
M  V30 2455 O 228.299 2.48817 -0.429694 0
M  V30 2456 C 229.612 0.481409 -2.96821 0
M  V30 2457 C 231.16 0.565868 -3.07842 0
M  V30 2458 C 231.635 0.592762 -4.54148 0
M  V30 2459 N 233.126 0.654564 -4.58552 0
M  V30 2460 C 233.861 0.696608 -5.69153 0
M  V30 2461 N 233.357 0.697078 -6.89284 0
M  V30 2462 N 235.15 0.738639 -5.57226 0
M  V30 2463 H 227.301 -0.746664 -1.98843 0
M  V30 2464 H 229.564 -0.273999 -0.90754 0
M  V30 2465 H 229.27 -0.435731 -3.4899 0
M  V30 2466 H 229.144 1.3139 -3.53577 0
M  V30 2467 H 231.531 1.47343 -2.55684 0
M  V30 2468 H 231.612 -0.29406 -2.54104 0
M  V30 2469 H 231.256 -0.310701 -5.06949 0
M  V30 2470 H 231.186 1.46939 -5.05684 0
M  V30 2471 H 233.677 0.660887 -3.72076 0
M  V30 2472 H 233.99 0.731426 -7.69331 0
M  V30 2473 H 232.335 0.66471 -6.91814 0
M  V30 2474 H 235.526 0.735545 -4.62285 0
M  V30 2475 H 235.699 0.767938 -6.43434 0
M  V30 2476 N 229.106 1.52395 0.401703 0
M  V30 2477 C 230.039 1.70999 1.51111 0
M  V30 2478 C 231.017 0.55765 1.52738 0
M  V30 2479 O 232.201 0.785912 1.71335 0
M  V30 2480 C 229.328 1.75607 2.8962 0
M  V30 2481 C 228.374 2.97227 3.05873 0
M  V30 2482 S 229.207 4.57439 2.78405 0
M  V30 2483 C 230.363 4.64844 4.19131 0
M  V30 2484 H 230.596 2.6483 1.35102 0
M  V30 2485 H 228.129 1.42527 0.593762 0
M  V30 2486 H 230.087 1.78947 3.69443 0
M  V30 2487 H 228.748 0.828914 3.02965 0
M  V30 2488 H 227.941 2.96955 4.07227 0
M  V30 2489 H 227.543 2.91813 2.33925 0
M  V30 2490 H 229.835 4.42677 5.12877 0
M  V30 2491 H 230.778 5.66807 4.24424 0
M  V30 2492 H 231.186 3.93804 4.04448 0
M  V30 2493 N 230.584 -0.659388 1.43143 0
M  V30 2494 C 231.83 -1.42145 1.44647 0
M  V30 2495 C 232.163 -1.9408 0.0681907 0
M  V30 2496 O 231.438 -1.71899 -0.910007 0
M  V30 2497 C 231.721 -2.60735 2.48373 0
M  V30 2498 C 231.574 -2.14332 3.95451 0
M  V30 2499 C 232.893 -3.62951 2.48906 0
M  V30 2500 H 230.012 -0.51552 0.526696 0
M  V30 2501 H 232.654 -0.748069 1.74654 0
M  V30 2502 H 230.804 -3.18184 2.22916 0
M  V30 2503 H 232.476 -1.61932 4.31944 0
M  V30 2504 H 230.719 -1.4576 4.08578 0
M  V30 2505 H 231.39 -2.99583 4.63631 0
M  V30 2506 H 233.866 -3.1525 2.71582 0
M  V30 2507 H 232.742 -4.43487 3.23435 0
M  V30 2508 H 233.003 -4.15126 1.52061 0
M  V30 2509 N 232.062 -1.29571 -0.897171 0
M  V30 2510 C 233.478 -1.07637 -1.17841 0
M  V30 2511 C 233.678 0.170713 -2.00776 0
M  V30 2512 O 232.734 0.867768 -2.3712 0
M  V30 2513 C 234.047 -2.3332 -1.8969 0
M  V30 2514 C 235.595 -2.38664 -2.02505 0
M  V30 2515 C 236.07 -3.64157 -2.77765 0
M  V30 2516 N 237.561 -3.64894 -2.85318 0
M  V30 2517 C 238.296 -4.58679 -3.44094 0
M  V30 2518 N 237.792 -5.62799 -4.04017 0
M  V30 2519 N 239.585 -4.46245 -3.41793 0
M  V30 2520 H 231.736 -2.09598 -0.343883 0
M  V30 2521 H 233.999 -0.923333 -0.214848 0
M  V30 2522 H 233.705 -3.24262 -1.36187 0
M  V30 2523 H 233.579 -2.41025 -2.9015 0
M  V30 2524 H 235.966 -1.48208 -2.55183 0
M  V30 2525 H 236.047 -2.34943 -1.01171 0
M  V30 2526 H 235.691 -4.54965 -2.25763 0
M  V30 2527 H 235.621 -3.65137 -3.7945 0
M  V30 2528 H 238.112 -2.89613 -2.42761 0
M  V30 2529 H 238.425 -6.3048 -4.46895 0
M  V30 2530 H 236.77 -5.66605 -4.02472 0
M  V30 2531 H 239.961 -3.64094 -2.94199 0
M  V30 2532 H 240.134 -5.19518 -3.87304 0
M  V30 2533 N 233.54 1.10788 -1.12088 0
M  V30 2534 C 234.817 1.79136 -0.785476 0
M  V30 2535 C 235.197 1.98246 0.725377 0
M  V30 2536 O 234.545 1.57258 1.65778 0
M  V30 2537 C 234.755 3.12375 -1.55636 0
M  V30 2538 C 236.103 3.8731 -1.74001 0
M  V30 2539 O 237.127 3.22085 -1.52117 0
M  V30 2540 O 235.986 5.04369 -2.10415 0
M  V30 2541 H 233.08 0.776226 -0.285311 0
M  V30 2542 H 235.626 1.1747 -1.2247 0
M  V30 2543 H 234.398 2.93863 -2.5838 0
M  V30 2544 H 234.021 3.81758 -1.11114 0
M  V30 2545 N 235.018 0.912232 1.28515 0
M  V30 2546 C 235.948 0.416403 2.29757 0
M  V30 2547 C 236.929 -0.515194 1.6211 0
M  V30 2548 O 238.114 -0.423253 1.89532 0
M  V30 2549 C 235.244 -0.34572 3.45575 0
M  V30 2550 C 234.198 0.496599 4.25109 0
M  V30 2551 C 233.524 -0.393771 5.33248 0
M  V30 2552 C 234.824 1.75307 4.92001 0
M  V30 2553 H 236.518 1.26249 2.7148 0
M  V30 2554 H 234.064 0.608515 1.30511 0
M  V30 2555 H 236.017 -0.703422 4.15488 0
M  V30 2556 H 234.741 -1.2257 3.02728 0
M  V30 2557 H 233.4 0.8368 3.56922 0
M  V30 2558 H 233.048 -1.27225 4.86644 0
M  V30 2559 H 232.748 0.166209 5.87365 0
M  V30 2560 H 234.272 -0.747389 6.06009 0
M  V30 2561 H 235.686 1.46437 5.54283 0
M  V30 2562 H 234.083 2.25534 5.56106 0
M  V30 2563 H 235.153 2.48176 4.16577 0
M  V30 2564 N 236.496 -1.42363 0.676048 0
M  V30 2565 C 237.744 -2.01123 0.198437 0
M  V30 2566 C 238.065 -1.53731 -1.19966 0
M  V30 2567 O 237.335 -0.759518 -1.80577 0
M  V30 2568 H 235.915 -0.743678 0.0703721 0
M  V30 2569 H 238.577 -1.74263 0.872837 0
M  V30 2570 H 237.673 -3.11454 0.200686 0
M  V30 2571 N 237.974 -0.419461 -1.51915 0
M  V30 2572 C 239.221 0.152939 -2.01922 0
M  V30 2573 C 239.549 1.4426 -1.30458 0
M  V30 2574 O 238.804 1.91514 -0.402593 0
M  V30 2575 C 239.103 0.437067 -3.54717 0
M  V30 2576 C 238.769 -0.764632 -4.44369 0
M  V30 2577 C 237.431 -1.09423 -4.68594 0
M  V30 2578 C 239.783 -1.56713 -4.97082 0
M  V30 2579 C 237.111 -2.22732 -5.42777 0
M  V30 2580 C 239.463 -2.69107 -5.72507 0
M  V30 2581 C 238.127 -3.02541 -5.95 0
M  V30 2582 H 237.397 0.0559644 -0.738884 0
M  V30 2583 H 240.044 -0.562998 -1.83037 0
M  V30 2584 H 238.349 1.23469 -3.71837 0
M  V30 2585 H 240.046 0.893083 -3.90928 0
M  V30 2586 H 236.636 -0.497775 -4.257 0
M  V30 2587 H 240.82 -1.32571 -4.78266 0
M  V30 2588 H 236.076 -2.48971 -5.58411 0
M  V30 2589 H 240.25 -3.31671 -6.12346 0
M  V30 2590 H 237.877 -3.90457 -6.52264 0
M  V30 2591 N 239.452 1.56882 -0.150215 0
M  V30 2592 C 240.863 1.82995 0.370076 0
M  V30 2593 C 241.214 1.06907 1.64515 0
M  V30 2594 O 240.339 0.315369 2.1409 0
M  V30 2595 C 240.934 3.31942 0.678208 0
M  V30 2596 C 239.493 3.58625 1.14301 0
M  V30 2597 C 238.64 2.76792 0.167778 0
M  V30 2598 H 241.591 1.54209 -0.374858 0
M  V30 2599 H 241.612 3.48272 1.53254 0
M  V30 2600 H 241.124 3.87294 -0.249991 0
M  V30 2601 H 239.225 3.08664 2.08704 0
M  V30 2602 H 239.338 4.67073 1.06676 0
M  V30 2603 H 237.702 2.45972 0.661037 0
M  V30 2604 H 238.485 3.34916 -0.754069 0
M  V30 2605 N 240.93 -0.123565 1.57115 0
M  V30 2606 C 242.176 -0.833386 1.84885 0
M  V30 2607 C 242.509 -1.79742 0.735292 0
M  V30 2608 O 241.784 -1.92764 -0.25925 0
M  V30 2609 C 242.067 -1.5873 3.23228 0
M  V30 2610 C 241.92 -0.643183 4.45178 0
M  V30 2611 C 243.239 -2.54453 3.59085 0
M  V30 2612 H 240.358 -0.301518 0.6725 0
M  V30 2613 H 243 -0.097778 1.89748 0
M  V30 2614 H 241.15 -2.21438 3.19214 0
M  V30 2615 H 242.822 -0.0253015 4.61293 0
M  V30 2616 H 241.065 0.0456139 4.33776 0
M  V30 2617 H 241.736 -1.20724 5.38637 0
M  V30 2618 H 244.212 -2.01853 3.63861 0
M  V30 2619 H 243.088 -3.04238 4.5687 0
M  V30 2620 H 243.349 -3.36906 2.86264 0
M  V30 2621 N 242.408 -1.52605 -0.393616 0
M  V30 2622 C 243.318 -1.79971 -1.50492 0
M  V30 2623 C 244.334 -0.686181 -1.59899 0
M  V30 2624 O 245.51 -0.973274 -1.76322 0
M  V30 2625 C 242.575 -1.95867 -2.86072 0
M  V30 2626 C 241.636 -3.19781 -2.86424 0
M  V30 2627 C 240.869 -3.34909 -4.15538 0
M  V30 2628 O 241.092 -2.54948 -5.10253 0
M  V30 2629 O 240.026 -4.28141 -4.23059 0
M  V30 2630 H 243.852 -2.74328 -1.30299 0
M  V30 2631 H 241.437 -1.3764 -0.581005 0
M  V30 2632 H 243.319 -2.08056 -3.66457 0
M  V30 2633 H 241.994 -1.04699 -3.063 0
M  V30 2634 H 240.901 -3.13038 -2.04837 0
M  V30 2635 H 242.234 -4.1078 -2.71147 0
M  V30 2636 N 243.887 0.651787 -1.4349 0
M  V30 2637 C 245.133 1.41376 -1.45398 0
M  V30 2638 C 245.466 1.94041 -0.0784823 0
M  V30 2639 O 244.741 1.72379 0.900878 0
M  V30 2640 C 245.024 2.59414 -2.49752 0
M  V30 2641 C 244.877 2.12232 -3.96582 0
M  V30 2642 C 246.196 3.61626 -2.50827 0
M  V30 2643 H 243.315 0.512719 -0.529422 0
M  V30 2644 H 245.957 0.738796 -1.75048 0
M  V30 2645 H 244.107 3.16997 -2.246 0
M  V30 2646 H 245.779 1.59639 -4.32797 0
M  V30 2647 H 244.022 1.43592 -4.09346 0
M  V30 2648 H 244.693 2.9712 -4.65214 0
M  V30 2649 H 247.169 3.13805 -2.7325 0
M  V30 2650 H 246.045 4.41766 -3.25783 0
M  V30 2651 H 246.306 4.14314 -1.5426 0
M  V30 2652 N 245.365 1.30045 0.890287 0
M  V30 2653 C 246.611 1.18737 1.64406 0
M  V30 2654 C 246.944 -0.258525 1.92472 0
M  V30 2655 O 246.219 -1.18562 1.54186 0
M  V30 2656 C 246.502 2.01087 2.98724 0
M  V30 2657 C 246.355 3.53867 2.77665 0
M  V30 2658 C 247.674 1.84457 3.9958 0
M  V30 2659 H 244.793 0.432698 0.596608 0
M  V30 2660 H 247.435 1.5962 1.0306 0
M  V30 2661 H 245.585 1.66349 3.51084 0
M  V30 2662 H 247.257 3.98637 2.32133 0
M  V30 2663 H 245.5 3.78318 2.12269 0
M  V30 2664 H 246.171 4.06772 3.7315 0
M  V30 2665 H 248.647 2.14817 3.56361 0
M  V30 2666 H 247.523 2.44411 4.91482 0
M  V30 2667 H 247.784 0.802276 4.3476 0
M  V30 2668 N 246.843 -1.10192 1.12674 0
M  V30 2669 C 248.091 -1.81845 0.881861 0
M  V30 2670 C 248.412 -1.85737 -0.593867 0
M  V30 2671 O 247.682 -1.33724 -1.4316 0
M  V30 2672 H 246.262 -0.673432 0.323261 0
M  V30 2673 H 248.924 -1.33316 1.42172 0
M  V30 2674 H 248.02 -2.85288 1.2656 0
M  V30 2675 N 248.321 -0.919034 -1.28029 0
M  V30 2676 C 249.567 -0.555757 -1.95036 0
M  V30 2677 C 249.9 0.899198 -1.72128 0
M  V30 2678 O 249.175 1.64023 -1.04531 0
M  V30 2679 C 249.458 -0.872024 -3.49382 0
M  V30 2680 C 249.311 -2.3801 -3.81669 0
M  V30 2681 C 250.63 -0.37185 -4.38526 0
M  V30 2682 H 247.749 -0.203386 -0.708381 0
M  V30 2683 H 250.391 -1.14924 -1.51303 0
M  V30 2684 H 248.541 -0.366946 -3.86763 0
M  V30 2685 H 250.213 -2.9562 -3.54128 0
M  V30 2686 H 248.456 -2.83289 -3.28526 0
M  V30 2687 H 249.127 -2.55192 -4.8947 0
M  V30 2688 H 251.603 -0.804602 -4.08247 0
M  V30 2689 H 250.479 -0.622173 -5.45362 0
M  V30 2690 H 250.74 0.727934 -4.36066 0
M  V30 2691 N 249.799 1.42003 -0.683588 0
M  V30 2692 C 251.21 1.84501 -0.285736 0
M  V30 2693 C 251.561 1.57213 1.17382 0
M  V30 2694 O 250.686 1.03642 1.89966 0
M  V30 2695 C 251.281 3.34912 -0.511821 0
M  V30 2696 C 249.84 3.76025 -0.168005 0
M  V30 2697 C 248.987 2.6551 -0.799983 0
M  V30 2698 H 251.938 1.31724 -0.885119 0
M  V30 2699 H 251.959 3.79784 0.233292 0
M  V30 2700 H 251.471 3.54741 -1.57418 0
M  V30 2701 H 249.572 3.61801 0.890567 0
M  V30 2702 H 249.685 4.75141 -0.614661 0
M  V30 2703 H 248.049 2.53654 -0.230568 0
M  V30 2704 H 248.832 2.8816 -1.86597 0
M  V30 2705 N 251.277 0.427512 1.51691 0
M  V30 2706 C 252.505 -0.141191 2.06418 0
M  V30 2707 C 252.92 -1.37303 1.29589 0
M  V30 2708 O 252.277 -1.79059 0.352732 0
M  V30 2709 C 252.328 -0.473266 3.58389 0
M  V30 2710 O 252.049 0.709673 4.32314 0
M  V30 2711 C 253.55 -1.09371 4.29596 0
M  V30 2712 H 250.77 -0.0122747 0.670888 0
M  V30 2713 H 253.314 0.603764 1.95384 0
M  V30 2714 H 251.469 -1.16812 3.69369 0
M  V30 2715 H 251.883 0.42807 5.2275 0
M  V30 2716 H 253.357 -1.27613 5.37046 0
M  V30 2717 H 253.834 -2.072 3.87253 0
M  V30 2718 H 254.44 -0.43853 4.23033 0
M  V30 2719 N 252.755 -1.56801 0.158532 0
M  V30 2720 C 254.001 -1.96781 -0.490405 0
M  V30 2721 C 254.334 -1.04397 -1.63753 0
M  V30 2722 O 253.609 -0.0885805 -1.94298 0
M  V30 2723 C 253.892 -3.4635 -0.985594 0
M  V30 2724 C 253.745 -4.49512 0.160824 0
M  V30 2725 C 255.064 -3.98697 -1.86355 0
M  V30 2726 H 252.183 -0.715482 -0.176788 0
M  V30 2727 H 254.825 -1.88451 0.242088 0
M  V30 2728 H 252.975 -3.53579 -1.60978 0
M  V30 2729 H 254.647 -4.54353 0.797537 0
M  V30 2730 H 252.89 -4.26013 0.818256 0
M  V30 2731 H 253.561 -5.51531 -0.227569 0
M  V30 2732 H 256.037 -3.94019 -1.33746 0
M  V30 2733 H 254.913 -5.03792 -2.17909 0
M  V30 2734 H 255.174 -3.41744 -2.8047 0
M  V30 2735 N 254.233 0.115231 -1.57178 0
M  V30 2736 C 255.649 0.468877 -1.52557 0
M  V30 2737 C 255.849 1.81649 -0.872125 0
M  V30 2738 O 254.905 2.48347 -0.45606 0
M  V30 2739 C 256.218 0.4499 -2.97315 0
M  V30 2740 C 257.766 0.533185 -3.08425 0
M  V30 2741 C 258.241 0.54456 -4.54751 0
M  V30 2742 N 259.732 0.605892 -4.5922 0
M  V30 2743 C 260.467 0.636203 -5.6986 0
M  V30 2744 N 259.963 0.623931 -6.89985 0
M  V30 2745 N 261.756 0.679496 -5.57978 0
M  V30 2746 H 253.907 -0.767712 -1.9804 0
M  V30 2747 H 256.17 -0.283609 -0.904583 0
M  V30 2748 H 255.876 -0.472721 -3.48509 0
M  V30 2749 H 255.75 1.27632 -3.5495 0
M  V30 2750 H 258.137 1.44623 -2.57232 0
M  V30 2751 H 258.218 -0.320995 -2.53778 0
M  V30 2752 H 257.862 -0.364452 -5.06591 0
M  V30 2753 H 257.792 1.41568 -5.07214 0
M  V30 2754 H 260.283 0.621386 -3.72756 0
M  V30 2755 H 260.596 0.649787 -7.70063 0
M  V30 2756 H 258.941 0.591296 -6.9248 0
M  V30 2757 H 262.132 0.686472 -4.63039 0
M  V30 2758 H 262.305 0.69965 -6.44212 0
M  V30 2759 N 255.711 1.52812 0.385517 0
M  V30 2760 C 256.621 1.80766 1.49535 0
M  V30 2761 C 257.637 0.694651 1.59532 0
M  V30 2762 O 258.813 0.982611 1.75803 0
M  V30 2763 C 255.878 1.97381 2.85029 0
M  V30 2764 C 254.939 3.21295 2.84724 0
M  V30 2765 C 254.172 3.37108 4.13756 0
M  V30 2766 O 254.395 2.5765 5.08893 0
M  V30 2767 O 253.329 4.30378 4.20783 0
M  V30 2768 H 257.155 2.75015 1.28842 0
M  V30 2769 H 254.74 1.37946 0.573697 0
M  V30 2770 H 256.622 2.09996 3.65349 0
M  V30 2771 H 255.297 1.06322 3.05741 0
M  V30 2772 H 254.204 3.1412 2.03174 0
M  V30 2773 H 255.537 4.12212 2.68965 0
M  V30 2774 N 257.189 -0.644168 1.43834 0
M  V30 2775 C 258.099 -1.78563 1.52159 0
M  V30 2776 C 259.115 -1.69147 0.408069 0
M  V30 2777 O 260.291 -1.90156 0.663524 0
M  V30 2778 C 257.356 -3.14888 1.45073 0
M  V30 2779 C 256.417 -3.36034 2.6717 0
M  V30 2780 C 255.65 -4.65855 2.60413 0
M  V30 2781 O 255.873 -5.45805 1.65689 0
M  V30 2782 O 254.807 -4.88918 3.5106 0
M  V30 2783 H 258.633 -1.74494 2.48567 0
M  V30 2784 H 256.218 -0.80378 1.25935 0
M  V30 2785 H 258.1 -3.96179 1.43597 0
M  V30 2786 H 256.775 -3.19528 0.518037 0
M  V30 2787 H 255.682 -2.54472 2.74217 0
M  V30 2788 H 257.015 -3.36247 3.59442 0
M  V30 2789 N 258.668 -1.30515 -0.883378 0
M  V30 2790 C 259.945 -1.10086 -1.6168 0
M  V30 2791 C 260.325 0.349269 -2.08191 0
M  V30 2792 O 259.673 1.34105 -1.85008 0
M  V30 2793 C 259.883 -2.10315 -2.78511 0
M  V30 2794 C 261.231 -2.42119 -3.48803 0
M  V30 2795 O 262.255 -2.08638 -2.88702 0
M  V30 2796 O 261.114 -2.99396 -4.57192 0
M  V30 2797 H 258.208 -0.422907 -0.710689 0
M  V30 2798 H 260.754 -1.41947 -0.930015 0
M  V30 2799 H 259.526 -3.07917 -2.41459 0
M  V30 2800 H 259.149 -1.79282 -3.54886 0
M  V30 2801 N 260.146 1.09593 -1.13257 0
M  V30 2802 C 261.394 1.81375 -0.891492 0
M  V30 2803 C 261.715 1.86049 0.584009 0
M  V30 2804 O 260.985 1.34481 1.42449 0
M  V30 2805 H 259.565 0.671708 -0.326828 0
M  V30 2806 H 262.227 1.3256 -1.42877 0
M  V30 2807 H 261.323 2.84612 -1.28071 0
M  V30 2808 N 261.624 0.925811 1.2754 0
M  V30 2809 C 262.554 0.440748 2.29303 0
M  V30 2810 C 263.535 -0.497971 1.62648 0
M  V30 2811 O 264.72 -0.403126 1.8997 0
M  V30 2812 C 261.85 -0.309048 3.45922 0
M  V30 2813 C 260.804 0.54166 4.24559 0
M  V30 2814 C 260.13 -0.337191 5.33636 0
M  V30 2815 C 261.43 1.80516 4.90114 0
M  V30 2816 H 263.124 1.29121 2.70126 0
M  V30 2817 H 260.67 0.622323 1.29858 0
M  V30 2818 H 262.623 -0.659315 4.1621 0
M  V30 2819 H 261.347 -1.19352 3.04011 0
M  V30 2820 H 260.006 0.874609 3.56014 0
M  V30 2821 H 259.654 -1.22056 4.87966 0
M  V30 2822 H 259.354 0.228497 5.87156 0
M  V30 2823 H 260.878 -0.683072 6.06767 0
M  V30 2824 H 262.292 1.52307 5.52698 0
M  V30 2825 H 260.689 2.3142 5.53683 0
M  V30 2826 H 261.759 2.52581 4.13921 0
M  V30 2827 N 263.102 -1.41638 0.69111 0
M  V30 2828 C 264.065 -2.29178 0.0319786 0
M  V30 2829 C 265.065 -1.44153 -0.712496 0
M  V30 2830 O 266.255 -1.65354 -0.548053 0
M  V30 2831 C 263.387 -3.26952 -0.965161 0
M  V30 2832 H 264.58 -2.88959 0.802681 0
M  V30 2833 H 262.133 -1.4955 0.454356 0
M  V30 2834 H 262.868 -2.72142 -1.76378 0
M  V30 2835 H 262.653 -3.89685 -0.434522 0
M  V30 2836 H 264.143 -3.92561 -1.42428 0
M  V30 2837 N 264.58 -0.43555 -1.51462 0
M  V30 2838 C 265.51 0.367376 -2.30592 0
M  V30 2839 C 266.491 1.02263 -1.35928 0
M  V30 2840 O 267.676 1.02661 -1.64847 0
M  V30 2841 C 264.806 1.46983 -3.14664 0
M  V30 2842 C 263.76 0.938161 -4.17591 0
M  V30 2843 C 263.086 2.13622 -4.90173 0
M  V30 2844 C 264.386 -0.0261621 -5.22293 0
M  V30 2845 H 266.08 -0.292969 -2.97963 0
M  V30 2846 H 263.626 -0.14234 -1.43295 0
M  V30 2847 H 265.579 2.03873 -3.688 0
M  V30 2848 H 264.303 2.15843 -2.4511 0
M  V30 2849 H 262.962 0.391481 -3.64504 0
M  V30 2850 H 262.61 2.81098 -4.17124 0
M  V30 2851 H 262.31 1.78688 -5.59772 0
M  V30 2852 H 263.834 2.7107 -5.47132 0
M  V30 2853 H 265.248 0.452384 -5.71512 0
M  V30 2854 H 263.645 -0.287992 -5.99409 0
M  V30 2855 H 264.715 -0.963391 -4.75233 0
M  V30 2856 N 266.058 1.56714 -0.166846 0
M  V30 2857 C 267.283 2.01557 0.488833 0
M  V30 2858 C 267.708 1.0463 1.56314 0
M  V30 2859 O 267.066 0.0251304 1.81283 0
M  V30 2860 C 267.114 3.4503 1.04818 0
M  V30 2861 O 266.218 3.51163 2.16236 0
M  V30 2862 H 265.559 0.653516 0.117526 0
M  V30 2863 H 268.089 2.02818 -0.269421 0
M  V30 2864 H 268.099 3.84243 1.37191 0
M  V30 2865 H 266.774 4.15077 0.261572 0
M  V30 2866 H 265.351 3.23807 1.84942 0
M  V30 2867 N 267.536 -0.106894 1.57237 0
M  V30 2868 C 268.761 -0.830287 1.90055 0
M  V30 2869 C 269.186 -1.72064 0.75998 0
M  V30 2870 O 268.544 -1.78982 -0.288991 0
M  V30 2871 C 268.592 -1.6295 3.21683 0
M  V30 2872 O 267.696 -2.73748 3.08441 0
M  V30 2873 H 267.037 -0.228855 0.623315 0
M  V30 2874 H 269.567 -0.085658 2.04421 0
M  V30 2875 H 269.577 -2.01621 3.54701 0
M  V30 2876 H 268.252 -0.975989 4.04286 0
M  V30 2877 H 266.829 -2.38192 2.86913 0
M  V30 2878 N 269.014 -1.53014 -0.377408 0
M  V30 2879 C 270.43 -1.42523 -0.718281 0
M  V30 2880 C 270.63 -0.55487 -1.9371 0
M  V30 2881 O 269.686 -0.0327593 -2.52479 0
M  V30 2882 C 270.999 -2.85546 -0.942539 0
M  V30 2883 C 272.547 -2.95101 -1.04329 0
M  V30 2884 C 273.022 -4.3916 -1.3001 0
M  V30 2885 N 274.513 -4.42536 -1.36806 0
M  V30 2886 C 275.248 -5.51097 -1.58364 0
M  V30 2887 N 274.744 -6.69724 -1.77317 0
M  V30 2888 N 276.537 -5.38657 -1.60638 0
M  V30 2889 H 268.688 -2.08116 0.424426 0
M  V30 2890 H 270.951 -0.939352 0.127759 0
M  V30 2891 H 270.657 -3.51499 -0.118929 0
M  V30 2892 H 270.531 -3.28493 -1.85397 0
M  V30 2893 H 272.918 -2.29309 -1.85745 0
M  V30 2894 H 272.999 -2.55566 -0.109505 0
M  V30 2895 H 272.643 -5.05521 -0.490991 0
M  V30 2896 H 272.573 -4.76258 -2.24691 0
M  V30 2897 H 275.064 -3.57039 -1.23821 0
M  V30 2898 H 275.377 -7.48233 -1.93306 0
M  V30 2899 H 273.722 -6.72732 -1.74518 0
M  V30 2900 H 276.913 -4.44948 -1.45391 0
M  V30 2901 H 277.086 -6.2333 -1.77098 0
M  V30 2902 N 270.492 0.636531 -1.44174 0
M  V30 2903 C 271.44 1.76995 -1.50915 0
M  V30 2904 C 272.434 1.65053 -0.381295 0
M  V30 2905 O 273.64 1.71197 -0.55601 0
M  V30 2906 H 270.015 0.584247 -0.473455 0
M  V30 2907 H 271.986 1.68432 -2.4632 0
M  V30 2908 C 270.735 3.15314 -1.46534 0
M  V30 2909 H 270.058 3.25149 -2.32633 0
M  V30 2910 H 271.498 3.9453 -1.55312 0
M  V30 2911 C 269.957 3.3639 -0.185305 0
M  V30 2912 O 270.487 3.94699 0.746688 0
M  V30 2913 N 268.693 2.9046 -0.0901606 0
M  V30 2914 H 268.24 2.43193 -0.849416 0
M  V30 2915 H 268.198 3.04937 0.765553 0
M  V30 2916 N 271.97 1.30982 0.876444 0
M  V30 2917 C 273.216 1.20474 1.63138 0
M  V30 2918 C 273.549 -0.238096 1.92735 0
M  V30 2919 O 272.824 -1.1692 1.55435 0
M  V30 2920 C 273.107 2.04244 2.96574 0
M  V30 2921 C 272.96 3.56793 2.73896 0
M  V30 2922 C 274.279 1.88684 3.97601 0
M  V30 2923 H 271.398 0.439001 0.591985 0
M  V30 2924 H 274.04 1.60704 1.01361 0
M  V30 2925 H 272.19 1.70063 3.493 0
M  V30 2926 H 273.862 4.01077 2.27892 0
M  V30 2927 H 272.105 3.80548 2.08245 0
M  V30 2928 H 272.776 4.10706 3.68815 0
M  V30 2929 H 275.252 2.18584 3.54062 0
M  V30 2930 H 274.128 2.4961 4.88862 0
M  V30 2931 H 274.389 0.848343 4.33884 0
M  V30 2932 N 273.449 -1.08991 1.13837 0
M  V30 2933 C 274.679 -1.84743 0.924859 0
M  V30 2934 C 275.087 -1.81629 -0.529874 0
M  V30 2935 O 274.43 -1.21397 -1.37872 0
M  V30 2936 C 274.492 -3.33568 1.34061 0
M  V30 2937 C 274.156 -3.60425 2.80968 0
M  V30 2938 C 275.153 -3.55771 3.79108 0
M  V30 2939 C 272.838 -3.88627 3.18236 0
M  V30 2940 C 274.832 -3.78939 5.12527 0
M  V30 2941 C 272.519 -4.11449 4.51833 0
M  V30 2942 C 273.517 -4.06598 5.48787 0
M  V30 2943 O 273.205 -4.28826 6.79973 0
M  V30 2944 H 272.937 -0.590258 0.329502 0
M  V30 2945 H 275.491 -1.38598 1.51591 0
M  V30 2946 H 273.721 -3.80442 0.692853 0
M  V30 2947 H 275.41 -3.90743 1.09886 0
M  V30 2948 H 276.176 -3.34005 3.51661 0
M  V30 2949 H 272.055 -3.91526 2.43369 0
M  V30 2950 H 275.599 -3.75068 5.88192 0
M  V30 2951 H 271.496 -4.32698 4.79002 0
M  V30 2952 H 272.264 -4.46264 6.86142 0
M  V30 2953 N 274.927 -0.932562 -1.27047 0
M  V30 2954 C 275.857 -0.452902 -2.29066 0
M  V30 2955 C 276.838 0.489338 -1.62909 0
M  V30 2956 O 278.023 0.393046 -1.90181 0
M  V30 2957 C 275.153 0.290698 -3.46081 0
M  V30 2958 C 274.107 -0.564168 -4.24265 0
M  V30 2959 C 273.433 0.308886 -5.33807 0
M  V30 2960 C 274.733 -1.83112 -4.89149 0
M  V30 2961 H 276.427 -1.30552 -2.69437 0
M  V30 2962 H 273.973 -0.629201 -1.29526 0
M  V30 2963 H 275.926 0.637233 -4.16554 0
M  V30 2964 H 274.65 1.17738 -3.0464 0
M  V30 2965 H 273.309 -0.893477 -3.55545 0
M  V30 2966 H 272.957 1.19467 -4.88607 0
M  V30 2967 H 272.657 -0.259633 -5.87026 0
M  V30 2968 H 274.181 0.650884 -6.07121 0
M  V30 2969 H 275.595 -1.55236 -5.51883 0
M  V30 2970 H 273.992 -2.34353 -5.52448 0
M  V30 2971 H 275.062 -2.54772 -4.12576 0
M  V30 2972 N 276.405 1.4127 -0.698611 0
M  V30 2973 C 277.63 2.06024 -0.238512 0
M  V30 2974 C 278.055 1.5224 1.10475 0
M  V30 2975 O 277.413 0.650623 1.69223 0
M  V30 2976 C 277.461 3.59988 -0.209952 0
M  V30 2977 O 276.565 4.04282 0.814235 0
M  V30 2978 H 275.906 0.653829 -0.115775 0
M  V30 2979 H 278.436 1.8098 -0.954326 0
M  V30 2980 H 278.446 4.07979 -0.0418436 0
M  V30 2981 H 277.121 3.98503 -1.1903 0
M  V30 2982 H 275.698 3.6779 0.615234 0
M  V30 2983 N 277.883 0.443576 1.51229 0
M  V30 2984 C 279.294 -0.0180867 1.86691 0
M  V30 2985 C 279.645 -1.41384 1.36033 0
M  V30 2986 O 278.77 -2.04291 0.713722 0
M  V30 2987 C 279.365 -0.039597 3.38777 0
M  V30 2988 C 277.924 -0.445692 3.73752 0
M  V30 2989 C 277.071 0.357584 2.74985 0
M  V30 2990 H 280.022 0.659138 1.44364 0
M  V30 2991 H 280.043 -0.847761 3.70936 0
M  V30 2992 H 279.555 0.976382 3.75617 0
M  V30 2993 H 277.656 -1.46704 3.42503 0
M  V30 2994 H 277.769 -0.166155 4.78812 0
M  V30 2995 H 276.133 -0.184973 2.54027 0
M  V30 2996 H 276.916 1.37256 3.14668 0
M  V30 2997 N 279.361 -1.56624 0.175154 0
M  V30 2998 C 280.271 -2.21741 -0.766042 0
M  V30 2999 C 281.287 -1.21023 -1.25018 0
M  V30 3000 O 282.463 -1.53697 -1.3015 0
M  V30 3001 C 279.528 -2.84839 -1.97655 0
M  V30 3002 C 278.589 -4.00769 -1.53892 0
M  V30 3003 C 277.822 -4.60849 -2.69173 0
M  V30 3004 O 278.045 -4.19823 -3.86141 0
M  V30 3005 O 276.979 -5.50655 -2.43028 0
M  V30 3006 H 280.805 -3.02738 -0.241585 0
M  V30 3007 H 278.39 -1.49305 -0.053222 0
M  V30 3008 H 280.272 -3.24834 -2.68442 0
M  V30 3009 H 278.947 -2.06836 -2.48999 0
M  V30 3010 H 277.854 -3.65436 -0.80044 0
M  V30 3011 H 279.187 -4.80376 -1.07236 0
M  V30 3012 N 280.839 0.0985539 -1.57292 0
M  V30 3013 C 282.067 0.816318 -1.90115 0
M  V30 3014 C 282.482 1.72451 -0.768509 0
M  V30 3015 O 281.839 1.80643 0.259687 0
M  V30 3016 C 281.89 1.63259 -3.22535 0
M  V30 3017 O 281.611 0.760934 -4.31441 0
M  V30 3018 C 283.112 2.45372 -3.69199 0
M  V30 3019 H 280.332 0.233595 -0.629027 0
M  V30 3020 H 282.876 0.0768229 -2.04356 0
M  V30 3021 H 281.031 2.32463 -3.09903 0
M  V30 3022 H 281.445 1.32595 -5.07463 0
M  V30 3023 H 282.919 2.98144 -4.64558 0
M  V30 3024 H 283.396 3.23677 -2.96867 0
M  V30 3025 H 284.002 1.81373 -3.84687 0
M  V30 3026 N 282.317 1.53212 0.369288 0
M  V30 3027 C 283.733 1.42902 0.710712 0
M  V30 3028 C 283.933 0.565135 1.93413 0
M  V30 3029 O 282.989 0.0461484 2.52458 0
M  V30 3030 C 284.302 2.86042 0.927382 0
M  V30 3031 C 285.85 2.9565 1.02762 0
M  V30 3032 C 286.325 4.39843 1.27679 0
M  V30 3033 N 287.816 4.43256 1.34457 0
M  V30 3034 C 288.551 5.51929 1.55439 0
M  V30 3035 N 288.047 6.70655 1.73762 0
M  V30 3036 N 289.84 5.39502 1.57779 0
M  V30 3037 H 281.991 2.07888 -0.435457 0
M  V30 3038 H 284.254 0.938661 -0.132739 0
M  V30 3039 H 283.96 3.51557 0.100287 0
M  V30 3040 H 283.834 3.29472 1.83653 0
M  V30 3041 H 286.221 2.30291 1.84527 0
M  V30 3042 H 286.302 2.5562 0.0959504 0
M  V30 3043 H 285.946 5.05774 0.464175 0
M  V30 3044 H 285.876 4.77443 2.22162 0
M  V30 3045 H 288.367 3.5769 1.21926 0
M  V30 3046 H 288.68 7.49248 1.89335 0
M  V30 3047 H 287.025 6.73648 1.70948 0
M  V30 3048 H 290.216 4.45713 1.43029 0
M  V30 3049 H 290.389 6.2426 1.7379 0
M  V30 3050 N 283.795 -0.628877 1.44509 0
M  V30 3051 C 284.742 -1.74074 1.51549 0
M  V30 3052 C 285.712 -1.62084 0.363021 0
M  V30 3053 O 286.897 -1.81975 0.573567 0
M  V30 3054 C 284.037 -3.12328 1.46784 0
M  V30 3055 C 283.15 -3.35277 2.72422 0
M  V30 3056 C 282.285 -4.63515 2.59475 0
M  V30 3057 C 281.324 -4.7965 3.80266 0
M  V30 3058 N 280.461 -5.99168 3.65981 0
M  V30 3059 H 285.301 -1.67392 2.46544 0
M  V30 3060 H 282.838 -0.816527 1.22357 0
M  V30 3061 H 284.796 -3.92286 1.42012 0
M  V30 3062 H 283.426 -3.18018 0.553544 0
M  V30 3063 H 282.478 -2.49242 2.87372 0
M  V30 3064 H 283.79 -3.43078 3.62076 0
M  V30 3065 H 282.944 -5.51638 2.52548 0
M  V30 3066 H 281.683 -4.58076 1.67384 0
M  V30 3067 H 280.688 -3.89957 3.87574 0
M  V30 3068 H 281.913 -4.86902 4.73395 0
M  V30 3069 H 279.859 -5.94814 2.76644 0
M  V30 3070 H 279.776 -6.08035 4.49254 0
M  V30 3071 H 281.044 -6.89846 3.6295 0
M  V30 3072 N 285.273 -1.31445 -0.869486 0
M  V30 3073 C 286.22 -1.19135 -1.97675 0
M  V30 3074 C 287.19 -0.0770266 -1.65921 0
M  V30 3075 O 288.375 -0.249972 -1.89155 0
M  V30 3076 C 285.515 -0.905149 -3.33018 0
M  V30 3077 C 284.628 -2.10285 -3.77365 0
M  V30 3078 C 283.763 -1.75339 -5.01427 0
M  V30 3079 C 282.802 -2.91515 -5.38224 0
M  V30 3080 N 281.939 -2.56762 -6.53466 0
M  V30 3081 H 286.779 -2.13853 -2.07535 0
M  V30 3082 H 284.316 -1.06379 -1.01597 0
M  V30 3083 H 286.274 -0.719765 -4.10944 0
M  V30 3084 H 284.904 0.00519624 -3.228 0
M  V30 3085 H 283.956 -2.39899 -2.95216 0
M  V30 3086 H 285.268 -2.97237 -4.00564 0
M  V30 3087 H 284.422 -1.53266 -5.87022 0
M  V30 3088 H 283.161 -0.855801 -4.80133 0
M  V30 3089 H 282.166 -3.14237 -4.51149 0
M  V30 3090 H 283.391 -3.81985 -5.61484 0
M  V30 3091 H 281.337 -1.69526 -6.33717 0
M  V30 3092 H 281.254 -3.37243 -6.76612 0
M  V30 3093 H 282.522 -2.38083 -7.42251 0
M  V30 3094 N 286.751 1.08385 -1.14413 0
M  V30 3095 C 287.714 2.13486 -0.834048 0
M  V30 3096 C 288.714 1.59988 0.161418 0
M  V30 3097 O 289.904 1.74071 -0.0669575 0
M  V30 3098 C 287.036 3.4003 -0.243354 0
M  V30 3099 H 288.229 2.42425 -1.7655 0
M  V30 3100 H 285.782 1.24101 -0.950189 0
M  V30 3101 H 286.517 3.16726 0.696807 0
M  V30 3102 H 286.302 3.80157 -0.960367 0
M  V30 3103 H 287.792 4.17577 -0.0436242 0
M  V30 3104 N 288.23 0.939286 1.26551 0
M  V30 3105 C 289.641 0.628782 1.75793 0
M  V30 3106 C 289.992 -0.856046 1.7654 0
M  V30 3107 O 289.117 -1.66994 1.3763 0
M  V30 3108 C 289.712 1.13465 3.19235 0
M  V30 3109 C 288.271 0.874601 3.66098 0
M  V30 3110 C 287.418 1.28667 2.45642 0
M  V30 3111 H 290.369 1.1178 1.12654 0
M  V30 3112 H 290.39 0.487609 3.77363 0
M  V30 3113 H 289.902 2.21535 3.1866 0
M  V30 3114 H 288.003 -0.191793 3.72106 0
M  V30 3115 H 288.116 1.50028 4.55004 0
M  V30 3116 H 286.48 0.705109 2.44745 0
M  V30 3117 H 287.263 2.37625 2.47769 0
M  V30 3118 N 289.708 -1.40897 0.706093 0
M  V30 3119 C 290.954 -2.01352 0.241889 0
M  V30 3120 C 291.287 -1.55832 -1.15888 0
M  V30 3121 O 290.562 -0.774145 -1.7843 0
M  V30 3122 C 290.845 -3.58752 0.311311 0
M  V30 3123 C 290.698 -4.1437 1.74978 0
M  V30 3124 C 292.017 -4.38914 -0.322922 0
M  V30 3125 H 289.136 -0.731562 0.0893687 0
M  V30 3126 H 291.778 -1.67504 0.896802 0
M  V30 3127 H 289.928 -3.87718 -0.246302 0
M  V30 3128 H 291.6 -3.96239 2.36205 0
M  V30 3129 H 289.843 -3.69016 2.28057 0
M  V30 3130 H 290.514 -5.23532 1.74981 0
M  V30 3131 H 292.99 -4.15822 0.152089 0
M  V30 3132 H 291.866 -5.48358 -0.243855 0
M  V30 3133 H 292.127 -4.19176 -1.40513 0
M  V30 3134 N 291.186 -0.45159 -1.50991 0
M  V30 3135 C 292.116 0.342898 -2.30969 0
M  V30 3136 C 293.097 1.00815 -1.37005 0
M  V30 3137 O 294.282 1.00907 -1.65926 0
M  V30 3138 C 291.412 1.43637 -3.16205 0
M  V30 3139 C 290.366 0.893818 -4.18563 0
M  V30 3140 C 289.692 2.08411 -4.92411 0
M  V30 3141 C 290.992 -0.0815568 -5.22236 0
M  V30 3142 H 292.686 -0.324556 -2.97636 0
M  V30 3143 H 290.232 -0.157531 -1.43136 0
M  V30 3144 H 292.185 1.9995 -3.70942 0
M  V30 3145 H 290.909 2.13232 -2.47386 0
M  V30 3146 H 289.568 0.352798 -3.64898 0
M  V30 3147 H 289.216 2.76658 -4.20082 0
M  V30 3148 H 288.916 1.72741 -5.61636 0
M  V30 3149 H 290.44 2.65251 -5.49976 0
M  V30 3150 H 291.854 0.391742 -5.7196 0
M  V30 3151 H 290.251 -0.351551 -5.99069 0
M  V30 3152 H 291.321 -1.01374 -4.74185 0
M  V30 3153 N 292.664 1.56529 -0.183458 0
M  V30 3154 C 293.894 2.01331 0.463612 0
M  V30 3155 C 294.302 1.06278 1.5653 0
M  V30 3156 O 293.645 0.0577976 1.83609 0
M  V30 3157 C 293.707 3.42547 1.09096 0
M  V30 3158 C 293.371 4.56817 0.129442 0
M  V30 3159 C 294.368 5.15734 -0.656807 0
M  V30 3160 C 292.053 5.02295 0.02174 0
M  V30 3161 C 294.047 6.1857 -1.53784 0
M  V30 3162 C 291.734 6.04978 -0.862864 0
M  V30 3163 C 292.732 6.62988 -1.64123 0
M  V30 3164 O 292.42 7.63677 -2.51103 0
M  V30 3165 H 292.152 0.664917 0.121907 0
M  V30 3166 H 294.706 2.034 -0.285954 0
M  V30 3167 H 292.936 3.37428 1.88889 0
M  V30 3168 H 294.625 3.71228 1.64148 0
M  V30 3169 H 295.391 4.81473 -0.583839 0
M  V30 3170 H 291.27 4.56847 0.617392 0
M  V30 3171 H 294.814 6.63777 -2.14583 0
M  V30 3172 H 290.711 6.38663 -0.93699 0
M  V30 3173 H 291.479 7.81049 -2.44753 0
M  V30 3174 N 294.142 -0.090211 1.57342 0
M  V30 3175 C 295.558 -0.444547 1.53284 0
M  V30 3176 C 295.758 -1.80238 0.900914 0
M  V30 3177 O 294.814 -2.4759 0.495513 0
M  V30 3178 C 296.127 -0.402543 2.97993 0
M  V30 3179 C 297.675 -0.48405 3.09234 0
M  V30 3180 C 298.15 -0.472144 4.5556 0
M  V30 3181 N 299.641 -0.532757 4.60126 0
M  V30 3182 C 300.376 -0.545462 5.708 0
M  V30 3183 N 299.872 -0.514082 6.9089 0
M  V30 3184 N 301.665 -0.59064 5.58988 0
M  V30 3185 H 293.816 0.799121 1.96794 0
M  V30 3186 H 296.079 0.297965 0.899956 0
M  V30 3187 H 295.785 0.528106 3.47712 0
M  V30 3188 H 295.659 -1.21969 3.56936 0
M  V30 3189 H 298.046 -1.40512 2.595 0
M  V30 3190 H 298.127 0.361328 2.53235 0
M  V30 3191 H 297.771 0.445 5.05947 0
M  V30 3192 H 297.701 -1.3348 5.09402 0
M  V30 3193 H 300.192 -0.562006 3.73698 0
M  V30 3194 H 300.505 -0.527195 7.71 0
M  V30 3195 H 298.85 -0.481054 6.93333 0
M  V30 3196 H 302.041 -0.61272 4.64073 0
M  V30 3197 H 302.214 -0.597073 6.45243 0
M  V30 3198 N 295.62 -1.53406 -0.361157 0
M  V30 3199 C 296.583 -1.79479 -1.42548 0
M  V30 3200 C 297.583 -0.665327 -1.4639 0
M  V30 3201 O 298.773 -0.933549 -1.47073 0
M  V30 3202 C 295.905 -1.92087 -2.8163 0
M  V30 3203 H 297.098 -2.74538 -1.20701 0
M  V30 3204 H 294.651 -1.4455 -0.594546 0
M  V30 3205 H 295.386 -0.991099 -3.08784 0
M  V30 3206 H 295.171 -2.74241 -2.80239 0
M  V30 3207 H 296.661 -2.13836 -3.58697 0
M  V30 3208 N 297.098 0.621204 -1.44841 0
M  V30 3209 C 298.028 1.74366 -1.55303 0
M  V30 3210 C 299.009 1.65199 -0.405385 0
M  V30 3211 O 300.194 1.83807 -0.626787 0
M  V30 3212 C 297.324 3.12931 -1.50637 0
M  V30 3213 C 296.278 3.36896 -2.63979 0
M  V30 3214 C 295.604 4.75594 -2.44366 0
M  V30 3215 C 296.904 3.28483 -4.06074 0
M  V30 3216 H 298.598 1.65867 -2.49256 0
M  V30 3217 H 296.144 0.796558 -1.19962 0
M  V30 3218 H 298.097 3.9124 -1.56555 0
M  V30 3219 H 296.821 3.22237 -0.532057 0
M  V30 3220 H 295.48 2.60972 -2.57467 0
M  V30 3221 H 295.128 4.81616 -1.45105 0
M  V30 3222 H 294.828 4.92586 -3.20364 0
M  V30 3223 H 296.352 5.5612 -2.52117 0
M  V30 3224 H 297.766 3.96684 -4.13902 0
M  V30 3225 H 296.163 3.57008 -4.82354 0
M  V30 3226 H 297.233 2.26133 -4.28943 0
M  V30 3227 N 298.576 1.31904 0.862503 0
M  V30 3228 C 299.506 1.22782 1.98612 0
M  V30 3229 C 300.487 0.113362 1.69722 0
M  V30 3230 O 301.672 0.299218 1.91881 0
M  V30 3231 C 298.802 0.942058 3.34279 0
M  V30 3232 C 297.756 2.0169 3.77499 0
M  V30 3233 C 297.082 1.58369 5.10709 0
M  V30 3234 C 298.382 3.43096 3.93805 0
M  V30 3235 H 300.076 2.16788 2.06502 0
M  V30 3236 H 297.622 1.04366 0.992154 0
M  V30 3237 H 299.575 0.864818 4.1243 0
M  V30 3238 H 298.299 -0.0336603 3.26583 0
M  V30 3239 H 296.958 2.08416 3.01593 0
M  V30 3240 H 296.606 0.595628 4.99461 0
M  V30 3241 H 296.306 2.30279 5.40597 0
M  V30 3242 H 297.83 1.52067 5.91361 0
M  V30 3243 H 299.244 3.39003 4.62331 0
M  V30 3244 H 297.641 4.13288 4.35101 0
M  V30 3245 H 298.711 3.83334 2.96957 0
M  V30 3246 N 300.054 -1.07777 1.14986 0
M  V30 3247 C 301.017 -2.13041 0.845358 0
M  V30 3248 C 302.017 -1.60071 -0.152931 0
M  V30 3249 O 303.207 -1.74033 0.0761879 0
M  V30 3250 C 300.339 -3.39896 0.261383 0
M  V30 3251 H 301.532 -2.41485 1.77834 0
M  V30 3252 H 299.085 -1.23595 0.956757 0
M  V30 3253 H 299.82 -3.17091 -0.68 0
M  V30 3254 H 299.605 -3.79642 0.980514 0
M  V30 3255 H 301.095 -4.17548 0.0657687 0
M  V30 3256 N 301.532 -0.945985 -1.26051 0
M  V30 3257 C 302.465 -0.403619 -2.24602 0
M  V30 3258 C 303.443 0.510241 -1.54387 0
M  V30 3259 O 304.627 0.446593 -1.83133 0
M  V30 3260 C 301.754 0.419564 -3.36091 0
M  V30 3261 C 300.8 -0.433454 -4.24292 0
M  V30 3262 S 301.633 -1.86037 -5.02146 0
M  V30 3263 C 302.789 -1.04538 -6.17108 0
M  V30 3264 H 303.022 -1.23883 -2.7026 0
M  V30 3265 H 300.555 -0.749438 -1.34992 0
M  V30 3266 H 302.513 0.888595 -4.00767 0
M  V30 3267 H 301.174 1.22951 -2.89036 0
M  V30 3268 H 300.367 0.197486 -5.03613 0
M  V30 3269 H 299.969 -0.837357 -3.64506 0
M  V30 3270 H 302.261 -0.289923 -6.76879 0
M  V30 3271 H 303.204 -1.81222 -6.84518 0
M  V30 3272 H 303.612 -0.579319 -5.61519 0
M  V30 3273 N 303.011 1.40521 -0.713556 0
M  V30 3274 C 304.427 1.54839 -0.386907 0
M  V30 3275 C 304.627 1.68532 1.1045 0
M  V30 3276 O 303.683 1.67377 1.89053 0
M  V30 3277 C 304.996 2.77792 -1.15118 0
M  V30 3278 C 306.544 2.91607 -1.13729 0
M  V30 3279 C 307.019 4.1747 -1.88368 0
M  V30 3280 N 308.51 4.24466 -1.85427 0
M  V30 3281 C 309.245 5.20755 -2.40004 0
M  V30 3282 N 308.741 6.22965 -3.03129 0
M  V30 3283 N 310.534 5.1282 -2.30158 0
M  V30 3284 H 302.685 1.29879 -1.68063 0
M  V30 3285 H 304.948 0.627896 -0.710247 0
M  V30 3286 H 304.654 2.73944 -2.20561 0
M  V30 3287 H 304.528 3.6984 -0.741477 0
M  V30 3288 H 306.915 2.94959 -0.0910608 0
M  V30 3289 H 306.996 2.00682 -1.5862 0
M  V30 3290 H 306.64 4.1488 -2.9298 0
M  V30 3291 H 306.57 5.074 -1.40898 0
M  V30 3292 H 309.061 3.51241 -1.3942 0
M  V30 3293 H 309.374 6.92859 -3.42295 0
M  V30 3294 H 307.719 6.23415 -3.07212 0
M  V30 3295 H 310.91 4.31899 -1.80501 0
M  V30 3296 H 311.083 5.87689 -2.72993 0
M  V30 3297 N 304.489 0.459591 1.5075 0
M  V30 3298 C 305.399 -0.34613 2.32033 0
M  V30 3299 C 306.415 -1.00686 1.41909 0
M  V30 3300 O 307.591 -0.997361 1.7497 0
M  V30 3301 C 304.656 -1.42029 3.16273 0
M  V30 3302 C 303.717 -0.777362 4.22203 0
M  V30 3303 C 302.95 -1.80034 5.02418 0
M  V30 3304 O 303.173 -3.02544 4.83553 0
M  V30 3305 O 302.107 -1.37853 5.85901 0
M  V30 3306 H 305.933 0.318054 3.0203 0
M  V30 3307 H 303.518 0.221663 1.47746 0
M  V30 3308 H 305.4 -2.04275 3.68578 0
M  V30 3309 H 304.075 -2.06815 2.49016 0
M  V30 3310 H 302.982 -0.116256 3.73919 0
M  V30 3311 H 304.315 -0.172634 4.91897 0
M  V30 3312 N 305.967 -1.56429 0.191757 0
M  V30 3313 C 307.213 -1.97777 -0.448554 0
M  V30 3314 C 307.546 -1.07847 -1.61501 0
M  V30 3315 O 306.821 -0.129774 -1.94067 0
M  V30 3316 C 307.104 -3.48362 -0.911906 0
M  V30 3317 C 306.957 -4.4907 0.256136 0
M  V30 3318 C 308.276 -4.02561 -1.77857 0
M  V30 3319 H 305.395 -0.719071 -0.161572 0
M  V30 3320 H 308.037 -1.87896 0.282007 0
M  V30 3321 H 306.187 -3.56914 -1.53442 0
M  V30 3322 H 307.859 -4.5256 0.893733 0
M  V30 3323 H 306.102 -4.24181 0.908436 0
M  V30 3324 H 306.773 -5.51889 -0.11053 0
M  V30 3325 H 309.249 -3.96767 -1.25359 0
M  V30 3326 H 308.125 -5.08301 -2.07174 0
M  V30 3327 H 308.386 -3.47616 -2.73158 0
M  V30 3328 N 307.445 0.0818655 -1.57387 0
M  V30 3329 C 308.408 1.08265 -2.02018 0
M  V30 3330 C 309.408 1.32183 -0.915664 0
M  V30 3331 O 310.598 1.28073 -1.18081 0
M  V30 3332 C 307.73 2.42871 -2.39221 0
M  V30 3333 H 308.923 0.698204 -2.91659 0
M  V30 3334 H 306.476 0.327303 -1.52835 0
M  V30 3335 H 307.211 2.86167 -1.52575 0
M  V30 3336 H 306.996 2.26855 -3.19811 0
M  V30 3337 H 308.486 3.14826 -2.74362 0
M  V30 3338 N 308.923 1.53595 0.353017 0
M  V30 3339 C 310.171 1.70049 1.09215 0
M  V30 3340 C 310.492 0.461406 1.89463 0
M  V30 3341 O 309.762 -0.524633 1.88744 0
M  V30 3342 H 308.342 0.626912 0.40619 0
M  V30 3343 H 311.004 1.90822 0.396585 0
M  V30 3344 H 310.1 2.56718 1.77488 0
M  V30 3345 N 310.401 -0.613514 1.45168 0
M  V30 3346 C 311.333 -1.73825 1.4939 0
M  V30 3347 C 312.346 -1.58175 0.385304 0
M  V30 3348 O 313.535 -1.66165 0.652036 0
M  V30 3349 C 310.635 -3.11758 1.32891 0
M  V30 3350 C 309.808 -3.53704 2.57317 0
M  V30 3351 C 308.867 -4.70579 2.35462 0
M  V30 3352 O 307.893 -4.77996 3.09044 0
M  V30 3353 N 309.095 -5.63454 1.39644 0
M  V30 3354 H 311.86 -1.70669 2.46358 0
M  V30 3355 H 309.421 -0.79862 1.40832 0
M  V30 3356 H 311.413 -3.87692 1.1609 0
M  V30 3357 H 309.983 -3.09456 0.442218 0
M  V30 3358 H 309.203 -2.67794 2.89275 0
M  V30 3359 H 310.491 -3.78486 3.40038 0
M  V30 3360 H 309.889 -5.6017 0.789062 0
M  V30 3361 H 308.446 -6.38944 1.28816 0
M  V30 3362 N 311.879 -1.3236 -0.855495 0
M  V30 3363 C 313.127 -1.22629 -1.60644 0
M  V30 3364 C 313.448 0.212136 -1.93843 0
M  V30 3365 O 312.718 1.13666 -1.59552 0
M  V30 3366 H 311.298 -0.450882 -0.595579 0
M  V30 3367 H 313.96 -1.65871 -1.02337 0
M  V30 3368 H 313.056 -1.80832 -2.54374 0
M  V30 3369 N 313.357 1.07166 -1.15556 0
M  V30 3370 C 314.605 1.79443 -0.929764 0
M  V30 3371 C 314.926 1.87246 0.544414 0
M  V30 3372 O 314.196 1.37473 1.39564 0
M  V30 3373 H 312.776 0.664625 -0.341003 0
M  V30 3374 H 315.438 1.29499 -1.45657 0
M  V30 3375 H 314.534 2.81832 -1.34079 0
M  V30 3376 N 314.835 0.952656 1.25548 0
M  V30 3377 C 316.06 0.623025 1.97821 0
M  V30 3378 C 316.485 -0.7976 1.70352 0
M  V30 3379 O 315.843 -1.53905 0.958283 0
M  V30 3380 C 315.891 0.885532 3.49558 0
M  V30 3381 O 314.995 -0.0366641 4.12384 0
M  V30 3382 H 314.336 0.237082 0.620232 0
M  V30 3383 H 316.866 1.27871 1.59719 0
M  V30 3384 H 316.876 0.811009 3.99858 0
M  V30 3385 H 315.551 1.92094 3.6888 0
M  V30 3386 H 314.128 0.0898954 3.72792 0
M  V30 3387 N 316.313 -1.40141 0.720998 0
M  V30 3388 C 317.559 -2.01084 0.263231 0
M  V30 3389 C 317.892 -1.57052 -1.14229 0
M  V30 3390 O 317.167 -0.793027 -1.77599 0
M  V30 3391 C 317.45 -3.58401 0.349344 0
M  V30 3392 C 317.303 -4.12491 1.79363 0
M  V30 3393 C 318.622 -4.39231 -0.276351 0
M  V30 3394 H 315.741 -0.730572 0.0971228 0
M  V30 3395 H 318.383 -1.66543 0.914518 0
M  V30 3396 H 316.533 -3.87958 -0.205165 0
M  V30 3397 H 318.205 -3.93711 2.40394 0
M  V30 3398 H 316.448 -3.66576 2.31958 0
M  V30 3399 H 317.119 -5.21646 1.80524 0
M  V30 3400 H 319.595 -4.15637 0.196184 0
M  V30 3401 H 318.471 -5.48586 -0.185681 0
M  V30 3402 H 318.732 -4.20643 -1.36059 0
M  V30 3403 N 317.792 -0.46758 -1.50504 0
M  V30 3404 C 318.755 0.317059 -2.26996 0
M  V30 3405 C 319.755 0.923513 -1.31635 0
M  V30 3406 O 320.945 0.793239 -1.55091 0
M  V30 3407 C 318.077 1.45134 -3.08462 0
M  V30 3408 H 319.27 -0.353723 -2.97807 0
M  V30 3409 H 316.823 -0.221545 -1.54722 0
M  V30 3410 H 317.558 2.15728 -2.4214 0
M  V30 3411 H 317.343 1.02232 -3.78538 0
M  V30 3412 H 318.833 2.00493 -3.66323 0
M  V30 3413 N 319.27 1.56325 -0.20005 0
M  V30 3414 C 320.18 2.22931 0.730668 0
M  V30 3415 C 321.196 1.22997 1.23076 0
M  V30 3416 O 322.372 1.55748 1.27689 0
M  V30 3417 C 319.437 2.87948 1.93098 0
M  V30 3418 C 318.498 4.03166 1.47497 0
M  V30 3419 C 317.731 4.65073 2.61807 0
M  V30 3420 O 317.954 4.25913 3.79413 0
M  V30 3421 O 316.888 5.54452 2.34237 0
M  V30 3422 H 320.714 3.03084 0.193391 0
M  V30 3423 H 318.299 1.49371 0.0294621 0
M  V30 3424 H 320.181 3.29063 2.6324 0
M  V30 3425 H 318.856 2.10771 2.45677 0
M  V30 3426 H 317.763 3.66664 0.742201 0
M  V30 3427 H 319.096 4.82022 0.995796 0
M  V30 3428 N 320.748 -0.0735177 1.57428 0
M  V30 3429 C 321.711 -1.07192 2.02589 0
M  V30 3430 C 322.711 -1.31695 0.922661 0
M  V30 3431 O 323.901 -1.27445 1.18758 0
M  V30 3432 C 321.033 -2.41599 2.40506 0
M  V30 3433 H 322.226 -0.682727 2.92025 0
M  V30 3434 H 319.779 -0.319193 1.53006 0
M  V30 3435 H 320.514 -2.85354 1.5409 0
M  V30 3436 H 320.299 -2.25156 3.21009 0
M  V30 3437 H 321.789 -3.13367 2.76027 0
M  V30 3438 N 322.226 -1.5378 -0.344866 0
M  V30 3439 C 323.156 -1.84662 -1.42906 0
M  V30 3440 C 324.137 -0.701648 -1.54955 0
M  V30 3441 O 325.322 -0.953438 -1.69184 0
M  V30 3442 C 322.452 -2.05503 -2.79974 0
M  V30 3443 C 321.406 -3.21318 -2.82734 0
M  V30 3444 C 320.732 -3.2749 -4.22675 0
M  V30 3445 C 322.032 -4.59456 -2.48389 0
M  V30 3446 H 323.726 -2.75461 -1.17311 0
M  V30 3447 H 321.272 -1.32542 -0.562896 0
M  V30 3448 H 323.225 -2.25691 -3.55867 0
M  V30 3449 H 321.949 -1.11434 -3.07002 0
M  V30 3450 H 320.608 -3.00984 -2.09294 0
M  V30 3451 H 320.256 -2.31019 -4.4681 0
M  V30 3452 H 319.956 -4.05316 -4.25433 0
M  V30 3453 H 321.48 -3.49887 -5.00412 0
M  V30 3454 H 322.894 -4.79667 -3.13995 0
M  V30 3455 H 321.291 -5.39675 -2.62432 0
M  V30 3456 H 322.361 -4.63155 -1.4358 0
M  V30 3457 N 323.704 0.605807 -1.45491 0
M  V30 3458 C 325.12 0.926751 -1.29936 0
M  V30 3459 C 325.32 1.99896 -0.253706 0
M  V30 3460 O 324.376 2.50038 0.351737 0
M  V30 3461 C 325.689 1.36599 -2.67883 0
M  V30 3462 C 327.237 1.4801 -2.75793 0
M  V30 3463 C 327.712 1.95309 -4.14268 0
M  V30 3464 N 329.203 2.0254 -4.16571 0
M  V30 3465 C 329.938 2.40363 -5.20589 0
M  V30 3466 N 329.434 2.77143 -6.34952 0
M  V30 3467 N 331.227 2.40718 -5.07948 0
M  V30 3468 H 323.378 -0.102862 -2.12151 0
M  V30 3469 H 325.641 0.016639 -0.947854 0
M  V30 3470 H 325.347 0.652306 -3.45598 0
M  V30 3471 H 325.221 2.33215 -2.96463 0
M  V30 3472 H 327.608 2.1847 -1.98381 0
M  V30 3473 H 327.689 0.497041 -2.50925 0
M  V30 3474 H 327.333 1.25436 -4.92167 0
M  V30 3475 H 327.263 2.94532 -4.3653 0
M  V30 3476 H 329.754 1.76699 -3.34045 0
M  V30 3477 H 330.067 3.0489 -7.10114 0
M  V30 3478 H 328.412 2.74834 -6.3835 0
M  V30 3479 H 331.603 2.11392 -4.1765 0
M  V30 3480 H 331.776 2.69869 -5.89131 0
M  V30 3481 N 325.182 1.32811 0.848464 0
M  V30 3482 C 326.145 1.22194 1.9391 0
M  V30 3483 C 327.145 0.143404 1.60159 0
M  V30 3484 O 328.335 0.394253 1.6968 0
M  V30 3485 C 325.467 0.88067 3.29328 0
M  V30 3486 H 326.66 2.19127 2.04752 0
M  V30 3487 H 324.213 1.16731 1.0394 0
M  V30 3488 H 324.948 -0.0865776 3.24184 0
M  V30 3489 H 324.733 1.66052 3.55203 0
M  V30 3490 H 326.223 0.830871 4.09251 0
M  V30 3491 N 326.66 -1.06551 1.16123 0
M  V30 3492 C 327.908 -1.78947 0.939267 0
M  V30 3493 C 328.229 -1.87532 -0.534476 0
M  V30 3494 O 327.499 -1.38211 -1.38833 0
M  V30 3495 H 326.079 -0.662807 0.344523 0
M  V30 3496 H 328.741 -1.28725 1.46342 0
M  V30 3497 H 327.837 -2.81117 1.35572 0
M  V30 3498 N 328.138 -0.959301 -1.25041 0
M  V30 3499 C 329.048 -0.489994 -2.29426 0
M  V30 3500 C 330.064 0.444944 -1.68215 0
M  V30 3501 O 331.24 0.320046 -1.98841 0
M  V30 3502 C 328.305 0.220309 -3.45999 0
M  V30 3503 C 327.366 -0.753418 -4.22637 0
M  V30 3504 C 326.599 -0.076918 -5.33645 0
M  V30 3505 O 326.822 1.13649 -5.58963 0
M  V30 3506 O 325.756 -0.764824 -5.97021 0
M  V30 3507 H 329.582 -1.35755 -2.71669 0
M  V30 3508 H 327.167 -0.725961 -1.30576 0
M  V30 3509 H 329.049 0.619677 -4.16819 0
M  V30 3510 H 327.724 1.06296 -3.0575 0
M  V30 3511 H 326.631 -1.20308 -3.54227 0
M  V30 3512 H 327.964 -1.56423 -4.66683 0
M  V30 3513 N 329.616 1.39756 -0.72842 0
M  V30 3514 C 330.526 2.34444 -0.0855374 0
M  V30 3515 C 331.542 1.57976 0.729356 0
M  V30 3516 O 332.718 1.90301 0.659346 0
M  V30 3517 C 329.783 3.36965 0.815798 0
M  V30 3518 C 328.844 4.29299 -0.0105996 0
M  V30 3519 C 328.077 5.26923 0.84781 0
M  V30 3520 O 328.3 5.30859 2.08673 0
M  V30 3521 O 327.234 6.01249 0.279969 0
M  V30 3522 H 331.06 2.91065 -0.866892 0
M  V30 3523 H 328.645 1.4117 -0.48902 0
M  V30 3524 H 330.527 3.99804 1.33171 0
M  V30 3525 H 329.202 2.82739 1.57608 0
M  V30 3526 H 328.109 3.69703 -0.571877 0
M  V30 3527 H 329.442 4.86712 -0.73295 0
M  V30 3528 N 331.094 0.475555 1.50254 0
M  V30 3529 C 332.057 -0.305016 2.27161 0
M  V30 3530 C 333.057 -0.916519 1.32123 0
M  V30 3531 O 334.247 -0.785003 1.5551 0
M  V30 3532 C 331.379 -1.43496 3.09227 0
M  V30 3533 H 332.572 0.369511 2.97615 0
M  V30 3534 H 330.125 0.229747 1.54602 0
M  V30 3535 H 330.86 -2.14441 2.43281 0
M  V30 3536 H 330.645 -1.00223 3.79075 0
M  V30 3537 H 332.135 -1.98548 3.67381 0
M  V30 3538 N 332.573 -1.56217 0.208337 0
M  V30 3539 C 333.503 -2.22694 -0.702116 0
M  V30 3540 C 334.484 -1.19432 -1.2112 0
M  V30 3541 O 335.669 -1.47978 -1.25762 0
M  V30 3542 C 332.799 -2.8966 -1.9161 0
M  V30 3543 C 331.753 -3.9928 -1.5414 0
M  V30 3544 C 331.079 -4.53476 -2.83308 0
M  V30 3545 C 332.379 -5.17012 -0.741339 0
M  V30 3546 H 334.073 -2.99034 -0.147898 0
M  V30 3547 H 331.619 -1.43831 -0.0696951 0
M  V30 3548 H 333.572 -3.34852 -2.55836 0
M  V30 3549 H 332.296 -2.10746 -2.49507 0
M  V30 3550 H 330.955 -3.54799 -0.922668 0
M  V30 3551 H 330.603 -3.71308 -3.39322 0
M  V30 3552 H 330.303 -5.27451 -2.58976 0
M  V30 3553 H 331.827 -5.01378 -3.485 0
M  V30 3554 H 333.241 -5.58667 -1.28699 0
M  V30 3555 H 331.638 -5.97137 -0.595627 0
M  V30 3556 H 332.708 -4.8423 0.254851 0
M  V30 3557 N 334.051 0.0651679 -1.57465 0
M  V30 3558 C 335.467 0.420105 -1.53972 0
M  V30 3559 C 335.667 1.78782 -0.929474 0
M  V30 3560 O 334.723 2.46771 -0.534839 0
M  V30 3561 C 336.036 0.355084 -2.98596 0
M  V30 3562 C 337.584 0.434792 -3.09965 0
M  V30 3563 C 338.059 0.399609 -4.56253 0
M  V30 3564 N 339.55 0.459488 -4.60915 0
M  V30 3565 C 340.285 0.454584 -5.71595 0
M  V30 3566 N 339.781 0.404102 -6.9162 0
M  V30 3567 N 341.574 0.501635 -5.59857 0
M  V30 3568 H 333.725 -0.830328 -1.95498 0
M  V30 3569 H 335.988 -0.312244 -0.895102 0
M  V30 3570 H 335.694 -0.583357 -3.46828 0
M  V30 3571 H 335.568 1.16275 -3.58831 0
M  V30 3572 H 337.955 1.36366 -2.61703 0
M  V30 3573 H 338.036 -0.40157 -2.52628 0
M  V30 3574 H 337.68 -0.525436 -5.05175 0
M  V30 3575 H 337.61 1.25359 -5.11461 0
M  V30 3576 H 340.101 0.502482 -3.74544 0
M  V30 3577 H 340.414 0.404468 -7.71741 0
M  V30 3578 H 338.759 0.37069 -6.94011 0
M  V30 3579 H 341.95 0.538812 -4.64989 0
M  V30 3580 H 342.123 0.494345 -6.46112 0
M  V30 3581 N 335.529 1.53961 0.336706 0
M  V30 3582 C 336.492 1.81724 1.39675 0
M  V30 3583 C 337.492 0.688532 1.45313 0
M  V30 3584 O 338.682 0.956829 1.45569 0
M  V30 3585 C 335.814 1.96543 2.78538 0
M  V30 3586 H 337.007 2.76424 1.16318 0
M  V30 3587 H 334.56 1.45478 0.571474 0
M  V30 3588 H 335.295 1.0401 3.07168 0
M  V30 3589 H 335.08 2.78665 2.75841 0
M  V30 3590 H 336.57 2.19516 3.5525 0
M  V30 3591 N 337.007 -0.598083 1.45811 0
M  V30 3592 C 338.253 -1.35882 1.50545 0
M  V30 3593 C 338.586 -1.93616 0.150445 0
M  V30 3594 O 337.861 -1.75604 -0.83628 0
M  V30 3595 C 338.144 -2.49966 2.59208 0
M  V30 3596 C 337.997 -1.97367 4.04186 0
M  V30 3597 C 339.316 -3.52068 2.64076 0
M  V30 3598 H 336.435 -0.492717 0.548087 0
M  V30 3599 H 339.077 -0.673319 1.77669 0
M  V30 3600 H 337.227 -3.08443 2.3621 0
M  V30 3601 H 338.899 -1.43466 4.38423 0
M  V30 3602 H 337.142 -1.283 4.14393 0
M  V30 3603 H 337.813 -2.79649 4.75921 0
M  V30 3604 H 340.289 -3.03448 2.84708 0
M  V30 3605 H 339.165 -4.2937 3.41954 0
M  V30 3606 H 339.426 -4.08304 1.69531 0
M  V30 3607 N 338.485 -1.33259 -0.841409 0
M  V30 3608 C 339.896 -1.22066 -1.41269 0
M  V30 3609 C 340.247 0.161479 -1.95534 0
M  V30 3610 O 339.372 1.06094 -1.88608 0
M  V30 3611 C 339.967 -2.20996 -2.568 0
M  V30 3612 C 338.526 -2.13649 -3.09888 0
M  V30 3613 C 337.673 -2.08623 -1.82679 0
M  V30 3614 H 340.624 -1.44895 -0.647395 0
M  V30 3615 H 340.645 -1.81621 -3.34356 0
M  V30 3616 H 340.157 -3.2158 -2.17274 0
M  V30 3617 H 338.258 -1.16359 -3.53965 0
M  V30 3618 H 338.371 -3.04079 -3.70234 0
M  V30 3619 H 336.735 -1.54061 -2.02824 0
M  V30 3620 H 337.518 -3.1101 -1.45353 0
M  V30 3621 N 339.963 1.05934 -1.16686 0
M  V30 3622 C 340.873 2.17014 -0.891183 0
M  V30 3623 C 341.889 1.73453 0.137907 0
M  V30 3624 O 343.065 2.01361 -0.039592 0
M  V30 3625 C 340.13 3.44384 -0.400099 0
M  V30 3626 C 339.191 4.02433 -1.49486 0
M  V30 3627 C 338.424 5.23723 -1.02711 0
M  V30 3628 O 338.647 5.7027 0.121716 0
M  V30 3629 O 337.581 5.7382 -1.81699 0
M  V30 3630 H 341.407 2.43113 -1.82015 0
M  V30 3631 H 338.992 1.15541 -0.947132 0
M  V30 3632 H 340.874 4.21189 -0.133392 0
M  V30 3633 H 339.549 3.19802 0.500817 0
M  V30 3634 H 338.456 3.27102 -1.81535 0
M  V30 3635 H 339.789 4.31317 -2.37121 0
M  V30 3636 N 341.441 0.965919 1.2453 0
M  V30 3637 C 342.688 0.626831 1.92554 0
M  V30 3638 C 343.016 -0.837739 1.75534 0
M  V30 3639 O 342.271 -1.61793 1.10098 0
M  V30 3640 C 342.57 0.945428 3.44669 0
M  V30 3641 C 342.236 2.39785 3.81856 0
M  V30 3642 C 340.898 2.79483 3.91718 0
M  V30 3643 C 343.25 3.34055 4.00071 0
M  V30 3644 C 340.578 4.12496 4.1721 0
M  V30 3645 C 342.93 4.66694 4.27059 0
M  V30 3646 C 341.594 5.06172 4.3514 0
M  V30 3647 H 340.864 0.229374 0.704605 0
M  V30 3648 H 343.511 1.21707 1.4785 0
M  V30 3649 H 341.816 0.272926 3.90848 0
M  V30 3650 H 343.513 0.661484 3.95507 0
M  V30 3651 H 340.103 2.08003 3.74743 0
M  V30 3652 H 344.287 3.04571 3.91855 0
M  V30 3653 H 339.543 4.42709 4.21685 0
M  V30 3654 H 343.717 5.3971 4.40097 0
M  V30 3655 H 341.344 6.09262 4.54646 0
M  V30 3656 N 342.919 -1.39368 0.735821 0
M  V30 3657 C 344.335 -1.54204 0.411492 0
M  V30 3658 C 344.535 -1.70268 -1.07755 0
M  V30 3659 O 343.591 -1.70364 -1.86366 0
M  V30 3660 C 344.904 -2.75925 1.19523 0
M  V30 3661 C 346.452 -2.89761 1.18354 0
M  V30 3662 C 346.927 -4.14421 1.94986 0
M  V30 3663 N 348.418 -4.21462 1.92156 0
M  V30 3664 C 349.153 -5.16871 2.48258 0
M  V30 3665 N 348.649 -6.18063 3.13001 0
M  V30 3666 N 350.442 -5.09093 2.38287 0
M  V30 3667 H 342.593 -1.27189 1.70108 0
M  V30 3668 H 344.856 -0.616517 0.720147 0
M  V30 3669 H 344.562 -2.70401 2.24892 0
M  V30 3670 H 344.436 -3.68614 0.800222 0
M  V30 3671 H 346.823 -2.94777 0.137975 0
M  V30 3672 H 346.904 -1.98133 1.61793 0
M  V30 3673 H 346.548 -4.10166 2.99543 0
M  V30 3674 H 346.478 -5.05095 1.48953 0
M  V30 3675 H 348.969 -3.48979 1.44991 0
M  V30 3676 H 349.282 -6.87326 3.53275 0
M  V30 3677 H 347.627 -6.18448 3.17091 0
M  V30 3678 H 350.818 -4.28973 1.8735 0
M  V30 3679 H 350.991 -5.83272 2.82308 0
M  V30 3680 N 344.397 -0.483516 -1.5 0
M  V30 3681 C 345.344 0.304164 -2.28787 0
M  V30 3682 C 346.314 0.976114 -1.34392 0
M  V30 3683 O 347.499 0.986156 -1.63339 0
M  V30 3684 C 344.639 1.37298 -3.16612 0
M  V30 3685 C 343.752 0.714561 -4.26049 0
M  V30 3686 C 342.887 1.76232 -5.01114 0
M  V30 3687 C 341.926 1.08483 -6.0241 0
M  V30 3688 N 341.063 2.076 -6.70706 0
M  V30 3689 H 345.903 -0.373981 -2.95644 0
M  V30 3690 H 343.44 -0.196275 -1.45785 0
M  V30 3691 H 345.398 2.00445 -3.65893 0
M  V30 3692 H 344.028 2.02012 -2.51776 0
M  V30 3693 H 343.08 -0.0297798 -3.80388 0
M  V30 3694 H 344.392 0.180383 -4.98474 0
M  V30 3695 H 343.546 2.46929 -5.54176 0
M  V30 3696 H 342.285 2.33033 -4.28424 0
M  V30 3697 H 341.29 0.363545 -5.48597 0
M  V30 3698 H 342.515 0.523551 -6.77079 0
M  V30 3699 H 340.461 2.63394 -6.00799 0
M  V30 3700 H 340.378 1.59201 -7.39047 0
M  V30 3701 H 341.646 2.77639 -7.2838 0
M  V30 3702 N 345.875 1.56104 -0.216619 0
M  V30 3703 C 347.152 1.89988 0.465165 0
M  V30 3704 C 347.532 1.13326 1.78102 0
M  V30 3705 O 346.88 0.241033 2.27225 0
M  V30 3706 C 347.09 3.42646 0.662939 0
M  V30 3707 C 348.438 4.13311 0.972602 0
M  V30 3708 O 349.462 3.48217 0.749901 0
M  V30 3709 O 348.321 5.28396 1.39499 0
M  V30 3710 H 345.415 0.78979 0.245276 0
M  V30 3711 H 347.961 1.67721 -0.258436 0
M  V30 3712 H 346.733 3.90399 -0.26543 0
M  V30 3713 H 346.356 3.70677 1.43821 0
M  V30 3714 N 347.353 -0.0568162 1.57498 0
M  V30 3715 C 348.583 -0.764515 1.91934 0
M  V30 3716 C 348.991 -1.70877 0.81227 0
M  V30 3717 O 348.334 -1.82351 -0.222213 0
M  V30 3718 C 348.396 -1.5994 3.21962 0
M  V30 3719 C 348.06 -0.822925 4.4953 0
M  V30 3720 C 349.057 -0.135464 5.19723 0
M  V30 3721 C 346.742 -0.785666 4.96117 0
M  V30 3722 C 348.736 0.578861 6.34766 0
M  V30 3723 C 346.423 -0.0675784 6.11063 0
M  V30 3724 C 347.421 0.613471 6.80239 0
M  V30 3725 O 347.109 1.31996 7.92989 0
M  V30 3726 H 346.841 -0.221647 0.63863 0
M  V30 3727 H 349.395 -0.0268218 2.05382 0
M  V30 3728 H 347.625 -2.38026 3.04763 0
M  V30 3729 H 349.314 -2.18715 3.41934 0
M  V30 3730 H 350.08 -0.155458 4.84751 0
M  V30 3731 H 345.959 -1.30524 4.42136 0
M  V30 3732 H 349.503 1.111 6.88696 0
M  V30 3733 H 345.4 -0.0455636 6.45484 0
M  V30 3734 H 346.168 1.23077 8.09194 0
M  V30 3735 N 348.832 -1.54138 -0.328536 0
M  V30 3736 C 349.762 -1.86167 -1.40939 0
M  V30 3737 C 350.743 -0.718044 -1.54202 0
M  V30 3738 O 351.928 -0.971328 -1.68163 0
M  V30 3739 C 349.058 -2.08461 -2.77779 0
M  V30 3740 C 348.012 -3.24299 -2.7931 0
M  V30 3741 C 347.338 -3.31955 -4.19178 0
M  V30 3742 C 348.638 -4.62065 -2.43502 0
M  V30 3743 H 350.332 -2.76689 -1.14383 0
M  V30 3744 H 347.878 -1.33132 -0.548806 0
M  V30 3745 H 349.831 -2.29453 -3.53454 0
M  V30 3746 H 348.555 -1.14684 -3.05802 0
M  V30 3747 H 347.214 -3.03187 -2.0609 0
M  V30 3748 H 346.862 -2.35745 -4.44335 0
M  V30 3749 H 346.562 -4.09805 -4.2111 0
M  V30 3750 H 348.086 -3.55175 -4.96672 0
M  V30 3751 H 349.5 -4.8297 -3.08889 0
M  V30 3752 H 347.897 -5.42429 -2.56693 0
M  V30 3753 H 348.967 -4.64652 -1.38659 0
M  V30 3754 N 350.31 0.590341 -1.46126 0
M  V30 3755 C 351.273 1.68194 -1.55703 0
M  V30 3756 C 352.273 1.54808 -0.434868 0
M  V30 3757 O 353.463 1.59564 -0.698928 0
M  V30 3758 C 350.595 3.07575 -1.47005 0
M  V30 3759 H 351.788 1.61064 -2.52979 0
M  V30 3760 H 349.341 0.807541 -1.33823 0
M  V30 3761 H 350.076 3.20268 -0.509785 0
M  V30 3762 H 349.861 3.187 -2.28414 0
M  V30 3763 H 351.351 3.87055 -1.56776 0
M  V30 3764 N 351.788 1.33704 0.83433 0
M  V30 3765 C 353.037 1.24763 1.58484 0
M  V30 3766 C 353.35 -0.183775 1.94735 0
M  V30 3767 O 354.556 -0.395234 2.68608 0
M  V30 3768 C 353.012 2.18638 2.85876 0
M  V30 3769 C 352.62 3.66974 2.56971 0
M  V30 3770 C 354.364 2.18581 3.63899 0
M  V30 3771 C 352.271 4.5275 3.80488 0
M  V30 3772 H 351.201 0.463425 0.594772 0
M  V30 3773 H 353.852 1.58797 0.919551 0
M  V30 3774 H 352.234 1.77542 3.5397 0
M  V30 3775 H 353.408 4.16538 1.9706 0
M  V30 3776 H 351.723 3.69366 1.92244 0
M  V30 3777 H 354.32 2.79894 4.55591 0
M  V30 3778 H 354.663 1.18207 3.99165 0
M  V30 3779 H 355.196 2.58062 3.02735 0
M  V30 3780 H 351.935 5.54017 3.5035 0
M  V30 3781 H 351.455 4.07927 4.39722 0
M  V30 3782 H 353.134 4.66784 4.4802 0
M  V30 3783 N 353.266 -1.05314 1.17247 0
M  V30 3784 C 354.512 -1.78557 0.961513 0
M  V30 3785 C 354.845 -1.87419 -0.508697 0
M  V30 3786 O 354.12 -1.37307 -1.37757 0
M  V30 3787 C 354.403 -3.22514 1.60176 0
M  V30 3788 C 354.256 -3.21673 3.14399 0
M  V30 3789 C 355.575 -4.20318 1.30463 0
M  V30 3790 H 352.694 -0.6482 0.350723 0
M  V30 3791 H 355.336 -1.23102 1.44727 0
M  V30 3792 H 353.486 -3.69867 1.18871 0
M  V30 3793 H 355.158 -2.82405 3.64753 0
M  V30 3794 H 353.401 -2.60048 3.47214 0
M  V30 3795 H 354.072 -4.23271 3.54324 0
M  V30 3796 H 356.548 -3.81454 1.66229 0
M  V30 3797 H 355.424 -5.19289 1.77848 0
M  V30 3798 H 355.685 -4.41526 0.22521 0
M  V30 3799 N 354.744 -0.972509 -1.24016 0
M  V30 3800 C 355.694 -0.477561 -2.22942 0
M  V30 3801 C 356.678 0.44308 -1.54679 0
M  V30 3802 O 357.87 0.273219 -1.74879 0
M  V30 3803 C 354.999 0.226348 -3.42553 0
M  V30 3804 C 354.085 -0.713403 -4.18057 0
M  V30 3805 N 354.476 -1.8527 -4.70647 0
M  V30 3806 C 352.774 -0.525145 -4.42898 0
M  V30 3807 C 353.475 -2.44089 -5.28011 0
M  V30 3808 N 352.451 -1.72556 -5.15486 0
M  V30 3809 H 356.253 -1.34678 -2.61226 0
M  V30 3810 H 353.767 -0.832196 -1.39457 0
M  V30 3811 H 355.764 0.598184 -4.12586 0
M  V30 3812 H 354.424 1.09195 -3.05788 0
M  V30 3813 H 355.435 -2.2341 -4.67235 0
M  V30 3814 H 352.112 0.296096 -4.16449 0
M  V30 3815 H 353.502 -3.40259 -5.79374 0
M  V30 3816 N 356.222 1.38976 -0.743202 0
M  V30 3817 C 357.633 1.83123 -0.363732 0
M  V30 3818 C 357.984 1.6205 1.10609 0
M  V30 3819 O 357.109 1.11606 1.854 0
M  V30 3820 C 357.704 3.32439 -0.653408 0
M  V30 3821 C 356.263 3.74974 -0.327338 0
M  V30 3822 C 355.41 2.61878 -0.911875 0
M  V30 3823 H 358.361 1.27852 -0.940191 0
M  V30 3824 H 358.382 3.80432 0.0720031 0
M  V30 3825 H 357.894 3.47745 -1.72323 0
M  V30 3826 H 355.995 3.65252 0.736314 0
M  V30 3827 H 356.108 4.72106 -0.815631 0
M  V30 3828 H 354.472 2.52448 -0.337944 0
M  V30 3829 H 355.255 2.79987 -1.98651 0
M  V30 3830 N 357.7 0.491464 1.49741 0
M  V30 3831 C 358.61 -0.296835 2.32715 0
M  V30 3832 C 359.626 -0.976536 1.44013 0
M  V30 3833 O 360.802 -0.960023 1.77047 0
M  V30 3834 C 357.867 -1.35288 3.19215 0
M  V30 3835 C 356.928 -0.687632 4.23757 0
M  V30 3836 C 356.161 -1.69336 5.06123 0
M  V30 3837 O 356.384 -2.92219 4.89861 0
M  V30 3838 O 355.318 -1.25394 5.88693 0
M  V30 3839 H 359.144 0.382048 3.01287 0
M  V30 3840 H 356.729 0.252953 1.47243 0
M  V30 3841 H 358.611 -1.96411 3.72828 0
M  V30 3842 H 357.286 -2.01487 2.53347 0
M  V30 3843 H 356.193 -0.0369159 3.74082 0
M  V30 3844 H 357.526 -0.0682566 4.92153 0
M  V30 3845 N 359.178 -1.55987 0.224894 0
M  V30 3846 C 360.406 -2.02784 -0.410665 0
M  V30 3847 C 360.821 -1.10464 -1.53112 0
M  V30 3848 O 360.178 -0.114871 -1.82138 0
M  V30 3849 C 360.229 -3.49087 -0.939165 0
M  V30 3850 O 359.95 -4.37887 0.136614 0
M  V30 3851 C 361.451 -4.11543 -1.64763 0
M  V30 3852 H 358.671 -0.663484 -0.100148 0
M  V30 3853 H 361.215 -2.01614 0.342326 0
M  V30 3854 H 359.37 -3.50861 -1.64242 0
M  V30 3855 H 359.784 -5.23849 -0.261155 0
M  V30 3856 H 361.258 -5.15673 -1.96939 0
M  V30 3857 H 361.735 -3.56736 -2.56195 0
M  V30 3858 H 362.341 -4.13629 -0.989503 0
M  V30 3859 N 360.656 0.0484629 -1.57525 0
M  V30 3860 C 361.586 1.0549 -2.08313 0
M  V30 3861 C 362.567 1.38929 -0.981463 0
M  V30 3862 O 363.752 1.48151 -1.25558 0
M  V30 3863 C 360.882 2.36162 -2.54646 0
M  V30 3864 C 359.836 2.17016 -3.68901 0
M  V30 3865 C 359.162 3.53278 -4.01371 0
M  V30 3866 C 360.462 1.57219 -4.98076 0
M  V30 3867 H 362.156 0.632195 -2.92649 0
M  V30 3868 H 359.702 0.302654 -1.40784 0
M  V30 3869 H 361.655 3.06882 -2.88793 0
M  V30 3870 H 360.379 2.80456 -1.67368 0
M  V30 3871 H 359.038 1.48733 -3.35073 0
M  V30 3872 H 358.686 3.95185 -3.11188 0
M  V30 3873 H 358.386 3.41299 -4.78318 0
M  V30 3874 H 359.91 4.25391 -4.38035 0
M  V30 3875 H 361.324 2.17832 -5.30304 0
M  V30 3876 H 359.721 1.55871 -5.79503 0
M  V30 3877 H 360.791 0.535956 -4.81929 0
M  V30 3878 N 362.134 1.5431 0.320358 0
M  V30 3879 C 363.064 1.86912 1.3995 0
M  V30 3880 C 364.045 0.726211 1.53819 0
M  V30 3881 O 365.23 0.980233 1.67646 0
M  V30 3882 C 362.36 2.09932 2.7667 0
M  V30 3883 C 361.314 3.25776 2.77586 0
M  V30 3884 C 360.64 3.34173 4.17412 0
M  V30 3885 C 361.94 4.6335 2.41048 0
M  V30 3886 H 363.634 2.77292 1.12914 0
M  V30 3887 H 361.18 1.33421 0.541738 0
M  V30 3888 H 363.133 2.31324 3.52232 0
M  V30 3889 H 361.857 1.16304 3.0519 0
M  V30 3890 H 360.516 3.04276 2.04479 0
M  V30 3891 H 360.164 2.38098 4.43078 0
M  V30 3892 H 359.864 4.12033 4.18931 0
M  V30 3893 H 361.388 3.57803 4.94782 0
M  V30 3894 H 362.802 4.84602 3.06324 0
M  V30 3895 H 361.199 5.43782 2.53813 0
M  V30 3896 H 362.269 4.65381 1.36193 0
M  V30 3897 N 363.613 -0.582584 1.46437 0
M  V30 3898 C 365.024 -1.1647 1.45916 0
M  V30 3899 C 365.375 -1.95177 0.200077 0
M  V30 3900 O 364.5 -2.04874 -0.696819 0
M  V30 3901 C 365.095 -2.11885 2.64367 0
M  V30 3902 C 363.654 -2.65421 2.66887 0
M  V30 3903 C 362.801 -1.41294 2.38603 0
M  V30 3904 H 365.752 -0.370514 1.54314 0
M  V30 3905 H 365.773 -2.9535 2.39892 0
M  V30 3906 H 365.285 -1.54573 3.5599 0
M  V30 3907 H 363.386 -3.26602 1.79338 0
M  V30 3908 H 363.499 -3.08147 3.66854 0
M  V30 3909 H 361.863 -1.71109 1.88663 0
M  V30 3910 H 362.646 -0.858125 3.32402 0
M  V30 3911 N 365.091 -1.34144 -0.827227 0
M  V30 3912 C 366.021 -1.28005 -1.95287 0
M  V30 3913 C 367.002 -0.158321 -1.69362 0
M  V30 3914 O 368.187 -0.349987 -1.9102 0
M  V30 3915 C 365.317 -1.03036 -3.31664 0
M  V30 3916 C 364.271 -2.11628 -3.72019 0
M  V30 3917 C 363.597 -1.71854 -5.0633 0
M  V30 3918 C 364.897 -3.53417 -3.8457 0
M  V30 3919 H 366.591 -2.22187 -2.00682 0
M  V30 3920 H 364.137 -1.0696 -0.964135 0
M  V30 3921 H 366.09 -0.973863 -4.09993 0
M  V30 3922 H 364.814 -0.0529391 -3.26557 0
M  V30 3923 H 363.473 -2.16339 -2.95961 0
M  V30 3924 H 363.121 -0.727841 -4.97706 0
M  V30 3925 H 362.821 -2.44531 -5.34302 0
M  V30 3926 H 364.345 -1.67692 -5.87122 0
M  V30 3927 H 365.759 -3.51142 -4.5318 0
M  V30 3928 H 364.156 -4.24679 -4.2399 0
M  V30 3929 H 365.226 -3.91072 -2.86689 0
M  V30 3930 N 366.569 1.04691 -1.17803 0
M  V30 3931 C 367.794 1.81984 -0.994813 0
M  V30 3932 C 368.219 1.82586 0.452112 0
M  V30 3933 O 367.577 1.23854 1.324 0
M  V30 3934 C 367.625 3.2575 -1.54659 0
M  V30 3935 O 366.729 4.05267 -0.763728 0
M  V30 3936 H 366.07 0.562483 -0.352857 0
M  V30 3937 H 368.6 1.3189 -1.56417 0
M  V30 3938 H 368.61 3.76541 -1.57102 0
M  V30 3939 H 367.285 3.24627 -2.59981 0
M  V30 3940 H 365.862 3.63972 -0.811108 0
M  V30 3941 N 368.047 0.979072 1.23499 0
M  V30 3942 C 369.324 0.563674 1.87302 0
M  V30 3943 C 369.704 -0.959199 1.88049 0
M  V30 3944 O 369.052 -1.83535 1.36114 0
M  V30 3945 C 369.262 1.16822 3.28867 0
M  V30 3946 C 370.61 1.26014 4.0547 0
M  V30 3947 O 371.634 1.12158 3.38082 0
M  V30 3948 O 370.493 1.48044 5.26066 0
M  V30 3949 H 367.587 0.189602 0.804972 0
M  V30 3950 H 370.133 1.07407 1.31384 0
M  V30 3951 H 368.905 2.21049 3.22883 0
M  V30 3952 H 368.528 0.642564 3.92373 0
M  V30 3953 N 369.525 -1.3858 0.750561 0
M  V30 3954 C 370.771 -2.0095 0.31477 0
M  V30 3955 C 371.126 -1.58509 -1.09053 0
M  V30 3956 O 370.419 -0.8112 -1.7358 0
M  V30 3957 C 370.613 -3.55455 0.372373 0
M  V30 3958 C 370.442 -4.12898 1.78173 0
M  V30 3959 C 369.212 -4.44797 2.39757 0
M  V30 3960 C 371.41 -4.35366 2.7379 0
M  V30 3961 N 369.392 -4.87831 3.72685 0
M  V30 3962 C 370.763 -4.80775 3.91478 0
M  V30 3963 C 372.818 -4.1746 2.71351 0
M  V30 3964 C 371.521 -5.10155 5.07084 0
M  V30 3965 C 373.547 -4.47963 3.86113 0
M  V30 3966 C 372.909 -4.93593 5.02539 0
M  V30 3967 H 369.008 -0.765083 0.161776 0
M  V30 3968 H 371.592 -1.68246 0.979867 0
M  V30 3969 H 369.763 -3.87512 -0.26244 0
M  V30 3970 H 371.495 -4.04614 -0.0834479 0
M  V30 3971 H 368.25 -4.33135 1.91548 0
M  V30 3972 H 368.674 -5.13685 4.40972 0
M  V30 3973 H 373.316 -3.81372 1.82524 0
M  V30 3974 H 371.034 -5.45141 5.96529 0
M  V30 3975 H 374.62 -4.35717 3.85542 0
M  V30 3976 H 373.5 -5.16746 5.89867 0
M  V30 3977 N 371.003 -0.499398 -1.49478 0
M  V30 3978 C 372.249 0.0457576 -2.02748 0
M  V30 3979 C 372.582 1.36793 -1.37846 0
M  V30 3980 O 371.857 1.87596 -0.513601 0
M  V30 3981 C 372.14 0.199986 -3.59544 0
M  V30 3982 C 371.993 -1.1452 -4.34977 0
M  V30 3983 C 373.312 0.94137 -4.29914 0
M  V30 3984 H 370.431 0.0151552 -0.736844 0
M  V30 3985 H 373.073 -0.650498 -1.78518 0
M  V30 3986 H 371.223 0.793007 -3.8032 0
M  V30 3987 H 372.895 -1.77697 -4.25701 0
M  V30 3988 H 371.138 -1.73488 -3.97598 0
M  V30 3989 H 371.809 -0.990607 -5.43039 0
M  V30 3990 H 374.285 0.43844 -4.13784 0
M  V30 3991 H 373.161 1.01812 -5.39375 0
M  V30 3992 H 373.422 1.98471 -3.95046 0
M  V30 3993 N 372.481 1.55866 -0.233164 0
M  V30 3994 C 373.444 2.1953 0.658715 0
M  V30 3995 C 374.444 1.16053 1.11303 0
M  V30 3996 O 375.634 1.41218 1.01996 0
M  V30 3997 C 372.766 2.82791 1.90373 0
M  V30 3998 H 373.959 2.99721 0.10347 0
M  V30 3999 H 371.512 1.56291 0.0164245 0
M  V30 4000 H 372.247 2.06501 2.50056 0
M  V30 4001 H 372.032 3.58578 1.58632 0
M  V30 4002 H 373.522 3.31556 2.53891 0
M  V30 4003 N 373.959 -0.0401083 1.57549 0
M  V30 4004 C 375.207 -0.731677 1.8839 0
M  V30 4005 C 375.528 -1.76481 0.829425 0
M  V30 4006 O 374.798 -1.95411 -0.1383 0
M  V30 4007 H 373.378 -0.273225 0.695239 0
M  V30 4008 H 376.04 -0.00867725 1.94898 0
M  V30 4009 H 375.136 -1.22816 2.86919 0
M  V30 4010 N 375.437 -1.54477 -0.31217 0
M  V30 4011 C 376.4 -1.83923 -1.36766 0
M  V30 4012 C 377.4 -0.711563 -1.44199 0
M  V30 4013 O 378.59 -0.979866 -1.44029 0
M  V30 4014 C 375.722 -2.0095 -2.75376 0
M  V30 4015 H 376.915 -2.78239 -1.11906 0
M  V30 4016 H 374.468 -1.46369 -0.548257 0
M  V30 4017 H 375.203 -1.08883 -3.05475 0
M  V30 4018 H 374.988 -2.83018 -2.71373 0
M  V30 4019 H 376.478 -2.2514 -3.51713 0
M  V30 4020 N 376.915 0.57481 -1.46744 0
M  V30 4021 C 378.331 0.898981 -1.31873 0
M  V30 4022 C 378.531 1.99313 -0.29605 0
M  V30 4023 O 377.587 2.50728 0.298621 0
M  V30 4024 C 378.9 1.30886 -2.7072 0
M  V30 4025 C 380.448 1.42127 -2.78871 0
M  V30 4026 C 380.923 1.86478 -4.18318 0
M  V30 4027 N 382.414 1.93658 -4.20774 0
M  V30 4028 C 383.149 2.29267 -5.2557 0
M  V30 4029 N 382.645 2.63612 -6.40688 0
M  V30 4030 N 384.438 2.29889 -5.1294 0
M  V30 4031 H 376.589 -0.147839 -2.11885 0
M  V30 4032 H 378.852 -0.00347013 -0.947994 0
M  V30 4033 H 378.558 0.578853 -3.46904 0
M  V30 4034 H 378.432 2.26874 -3.01343 0
M  V30 4035 H 380.819 2.14213 -2.0297 0
M  V30 4036 H 380.9 0.443705 -2.51922 0
M  V30 4037 H 380.544 1.14968 -4.94717 0
M  V30 4038 H 380.474 2.85207 -4.42679 0
M  V30 4039 H 382.965 1.69574 -3.37718 0
M  V30 4040 H 383.278 2.89759 -7.16421 0
M  V30 4041 H 381.623 2.61232 -6.44036 0
M  V30 4042 H 384.814 2.02485 -4.22039 0
M  V30 4043 H 384.987 2.57312 -5.94722 0
M  V30 4044 N 378.394 1.34581 0.820102 0
M  V30 4045 C 379.642 1.26845 1.57336 0
M  V30 4046 C 379.963 -0.160667 1.94337 0
M  V30 4047 O 379.233 -1.09396 1.6251 0
M  V30 4048 H 377.813 0.466514 0.583415 0
M  V30 4049 H 380.475 1.68526 0.979027 0
M  V30 4050 H 379.571 1.87513 2.4949 0
M  V30 4051 N 379.872 -1.04064 1.18357 0
M  V30 4052 C 381.121 -1.76662 0.973313 0
M  V30 4053 C 381.434 -1.89154 -0.497991 0
M  V30 4054 O 382.64 -2.58606 -0.826762 0
M  V30 4055 C 381.096 -3.17624 1.69242 0
M  V30 4056 C 380.704 -3.13225 3.20303 0
M  V30 4057 C 382.448 -3.946 1.56497 0
M  V30 4058 C 380.355 -4.49046 3.84853 0
M  V30 4059 H 379.285 -0.662214 0.36054 0
M  V30 4060 H 381.936 -1.16553 1.41731 0
M  V30 4061 H 380.318 -3.78129 1.1762 0
M  V30 4062 H 381.492 -2.62172 3.78949 0
M  V30 4063 H 379.807 -2.49749 3.33189 0
M  V30 4064 H 382.404 -4.95042 2.02084 0
M  V30 4065 H 382.747 -4.13074 0.517243 0
M  V30 4066 H 383.28 -3.4067 2.05399 0
M  V30 4067 H 380.019 -4.35777 4.89672 0
M  V30 4068 H 379.539 -5.00203 3.30994 0
M  V30 4069 H 381.218 -5.17961 3.87718 0
M  V30 4070 N 381.35 -0.985608 -1.22978 0
M  V30 4071 C 382.596 -0.65836 -1.91816 0
M  V30 4072 C 382.929 0.806692 -1.76653 0
M  V30 4073 O 382.204 1.58252 -1.13078 0
M  V30 4074 C 382.487 -1.056 -3.44268 0
M  V30 4075 C 382.34 -2.57906 -3.68516 0
M  V30 4076 C 383.659 -0.603781 -4.35939 0
M  V30 4077 H 380.778 -0.24065 -0.696604 0
M  V30 4078 H 383.42 -1.22783 -1.44998 0
M  V30 4079 H 381.57 -0.571445 -3.84274 0
M  V30 4080 H 383.242 -3.13976 -3.3796 0
M  V30 4081 H 381.485 -3.00305 -3.13048 0
M  V30 4082 H 382.156 -2.80779 -4.75255 0
M  V30 4083 H 384.632 -1.01987 -4.03408 0
M  V30 4084 H 383.508 -0.910383 -5.41298 0
M  V30 4085 H 383.769 0.495761 -4.39312 0
M  V30 4086 N 382.828 1.3818 -0.7579 0
M  V30 4087 C 383.791 2.28764 -0.141286 0
M  V30 4088 C 384.791 1.47388 0.642907 0
M  V30 4089 O 385.981 1.67781 0.468536 0
M  V30 4090 C 383.113 3.31184 0.808069 0
M  V30 4091 H 384.306 2.848 -0.939633 0
M  V30 4092 H 381.859 1.47212 -0.525191 0
M  V30 4093 H 382.594 2.80247 1.63193 0
M  V30 4094 H 382.379 3.91314 0.248104 0
M  V30 4095 H 383.869 3.98909 1.23536 0
M  V30 4096 N 384.306 0.507319 1.49211 0
M  V30 4097 C 385.554 -0.0348839 2.0207 0
M  V30 4098 C 385.875 -1.36898 1.38866 0
M  V30 4099 O 385.145 -1.88133 0.546151 0
M  V30 4100 H 383.725 -0.0158812 0.746831 0
M  V30 4101 H 386.387 0.665998 1.83168 0
M  V30 4102 H 385.483 -0.159917 3.1169 0
M  V30 4103 N 385.784 -1.5574 0.241426 0
M  V30 4104 C 387.2 -1.59196 -0.113548 0
M  V30 4105 C 387.4 -1.25852 -1.57364 0
M  V30 4106 O 386.456 -1.00322 -2.31715 0
M  V30 4107 C 387.769 -2.99814 0.230695 0
M  V30 4108 C 389.317 -3.12513 0.174547 0
M  V30 4109 C 389.792 -4.55342 0.492744 0
M  V30 4110 N 391.283 -4.61076 0.443043 0
M  V30 4111 C 392.018 -5.6956 0.662484 0
M  V30 4112 N 391.514 -6.86328 0.944761 0
M  V30 4113 N 393.307 -5.58957 0.593564 0
M  V30 4114 H 385.458 -1.75685 1.19368 0
M  V30 4115 H 387.721 -0.81756 0.479896 0
M  V30 4116 H 387.427 -3.28932 1.24485 0
M  V30 4117 H 387.301 -3.74568 -0.444833 0
M  V30 4118 H 389.688 -2.83179 -0.830277 0
M  V30 4119 H 389.769 -2.40045 0.883845 0
M  V30 4120 H 389.413 -4.85396 1.4951 0
M  V30 4121 H 389.343 -5.26062 -0.23797 0
M  V30 4122 H 391.834 -3.77179 0.233374 0
M  V30 4123 H 392.147 -7.64935 1.09977 0
M  V30 4124 H 390.492 -6.88025 0.982175 0
M  V30 4125 H 393.683 -4.66611 0.373123 0
M  V30 4126 H 393.856 -6.43433 0.767981 0
M  V30 4127 N 387.262 0.0317525 -1.57568 0
M  V30 4128 C 388.509 0.723104 -1.89149 0
M  V30 4129 C 388.837 1.75504 -0.838377 0
M  V30 4130 O 388.092 1.95037 0.160982 0
M  V30 4131 C 388.391 1.43167 -3.27472 0
M  V30 4132 C 388.057 0.535972 -4.47703 0
M  V30 4133 C 386.719 0.289262 -4.8033 0
M  V30 4134 C 389.071 -0.0826125 -5.21135 0
M  V30 4135 C 386.399 -0.584853 -5.83778 0
M  V30 4136 C 388.751 -0.944414 -6.25511 0
M  V30 4137 C 387.415 -1.20061 -6.56614 0
M  V30 4138 H 386.685 0.264602 -0.692146 0
M  V30 4139 H 389.332 -0.0169496 -1.91492 0
M  V30 4140 H 387.637 2.24497 -3.21105 0
M  V30 4141 H 389.334 1.97209 -3.49155 0
M  V30 4142 H 385.924 0.738414 -4.22191 0
M  V30 4143 H 390.108 0.0950302 -4.96209 0
M  V30 4144 H 385.364 -0.79168 -6.06253 0
M  V30 4145 H 389.538 -1.43026 -6.81554 0
M  V30 4146 H 387.165 -1.87967 -7.36595 0
M  V30 4147 N 388.74 1.54641 0.303973 0
M  V30 4148 C 390.151 1.64811 0.877163 0
M  V30 4149 C 390.502 0.554838 1.88191 0
M  V30 4150 O 389.627 -0.309033 2.14182 0
M  V30 4151 C 390.222 2.9876 1.59775 0
M  V30 4152 C 388.781 3.11061 2.11938 0
M  V30 4153 C 387.928 2.60479 0.951097 0
M  V30 4154 H 390.879 1.58493 0.0810486 0
M  V30 4155 H 390.9 2.90017 2.46314 0
M  V30 4156 H 390.412 3.7831 0.866226 0
M  V30 4157 H 388.513 2.36225 2.88146 0
M  V30 4158 H 388.626 4.17171 2.35595 0
M  V30 4159 H 386.99 2.16859 1.33583 0
M  V30 4160 H 387.773 3.42504 0.233581 0
M  V30 4161 N 390.218 -0.567019 1.47046 0
M  V30 4162 C 391.128 -1.70247 1.6141 0
M  V30 4163 C 392.144 -1.66746 0.497157 0
M  V30 4164 O 393.32 -1.86371 0.763389 0
M  V30 4165 C 390.385 -3.06756 1.61561 0
M  V30 4166 C 389.446 -3.21399 2.84607 0
M  V30 4167 C 388.679 -4.51396 2.84741 0
M  V30 4168 O 388.902 -5.36255 1.94388 0
M  V30 4169 O 387.836 -4.69621 3.76483 0
M  V30 4170 H 391.662 -1.61073 2.57467 0
M  V30 4171 H 389.247 -0.735894 1.30019 0
M  V30 4172 H 391.129 -3.8801 1.64396 0
M  V30 4173 H 389.804 -3.16333 0.686684 0
M  V30 4174 H 388.711 -2.39579 2.8732 0
M  V30 4175 H 390.044 -3.16721 3.76761 0
M  V30 4176 N 391.696 -1.35014 -0.812953 0
M  V30 4177 C 392.659 -1.27292 -1.90602 0
M  V30 4178 C 393.659 -0.185817 -1.59723 0
M  V30 4179 O 394.849 -0.439102 -1.68575 0
M  V30 4180 C 391.981 -0.967676 -3.26877 0
M  V30 4181 H 393.174 -2.24479 -1.9887 0
M  V30 4182 H 390.727 -1.19446 -1.00808 0
M  V30 4183 H 391.462 0.0005954 -3.243 0
M  V30 4184 H 391.247 -1.75412 -3.50675 0
M  V30 4185 H 392.737 -0.939085 -4.06904 0
M  V30 4186 N 393.175 1.03435 -1.18907 0
M  V30 4187 C 394.591 1.28973 -0.940111 0
M  V30 4188 C 394.791 1.97676 0.390691 0
M  V30 4189 O 393.847 2.26127 1.12352 0
M  V30 4190 C 395.16 2.14221 -2.11021 0
M  V30 4191 C 396.708 2.27547 -2.14922 0
M  V30 4192 C 397.183 3.16164 -3.31367 0
M  V30 4193 N 398.674 3.23752 -3.31269 0
M  V30 4194 C 399.409 3.92495 -4.18014 0
M  V30 4195 N 398.905 4.63515 -5.14904 0
M  V30 4196 N 400.698 3.88838 -4.05908 0
M  V30 4197 H 392.849 0.57252 -2.04538 0
M  V30 4198 H 395.112 0.315184 -0.894071 0
M  V30 4199 H 394.818 1.71054 -3.073 0
M  V30 4200 H 394.692 3.14919 -2.0762 0
M  V30 4201 H 397.079 2.69947 -1.19217 0
M  V30 4202 H 397.16 1.26418 -2.22378 0
M  V30 4203 H 396.804 2.74474 -4.27348 0
M  V30 4204 H 396.734 4.17339 -3.21148 0
M  V30 4205 H 399.225 2.73167 -2.61129 0
M  V30 4206 H 399.538 5.13583 -5.77453 0
M  V30 4207 H 397.883 4.62398 -5.18857 0
M  V30 4208 H 401.074 3.32491 -3.29495 0
M  V30 4209 H 401.247 4.4214 -4.73726 0
M  V30 4210 N 394.653 0.992116 1.22453 0
M  V30 4211 C 395.583 0.561677 2.26644 0
M  V30 4212 C 396.564 -0.411055 1.65059 0
M  V30 4213 O 397.749 -0.301861 1.9184 0
M  V30 4214 C 394.879 -0.125247 3.47074 0
M  V30 4215 C 393.833 0.765948 4.21091 0
M  V30 4216 C 393.159 -0.0538484 5.34673 0
M  V30 4217 C 394.459 2.06242 4.79856 0
M  V30 4218 H 396.153 1.43259 2.62902 0
M  V30 4219 H 393.699 0.690283 1.26377 0
M  V30 4220 H 395.652 -0.437764 4.1912 0
M  V30 4221 H 394.376 -1.03069 3.0991 0
M  V30 4222 H 393.035 1.0621 3.50878 0
M  V30 4223 H 392.683 -0.960188 4.9375 0
M  V30 4224 H 392.383 0.539415 5.85119 0
M  V30 4225 H 393.907 -0.360477 6.09535 0
M  V30 4226 H 395.321 1.8139 5.43848 0
M  V30 4227 H 393.718 2.60444 5.40638 0
M  V30 4228 H 394.788 2.74167 3.99951 0
M  V30 4229 N 396.131 -1.37776 0.765217 0
M  V30 4230 C 397.38 -1.99092 0.323307 0
M  V30 4231 C 397.693 -1.61434 -1.10446 0
M  V30 4232 O 398.899 -2.15805 -1.64743 0
M  V30 4233 C 397.355 -3.56019 0.527098 0
M  V30 4234 C 396.963 -4.0262 1.96471 0
M  V30 4235 C 398.707 -4.2424 0.148483 0
M  V30 4236 C 396.614 -5.52233 2.11644 0
M  V30 4237 H 395.544 -0.744846 0.117137 0
M  V30 4238 H 398.195 -1.57391 0.943417 0
M  V30 4239 H 396.577 -3.95667 -0.162372 0
M  V30 4240 H 397.751 -3.74234 2.68859 0
M  V30 4241 H 396.066 -3.47161 2.29931 0
M  V30 4242 H 398.663 -5.34159 0.240456 0
M  V30 4243 H 399.006 -4.06446 -0.900422 0
M  V30 4244 H 399.539 -3.89872 0.79025 0
M  V30 4245 H 396.278 -5.74945 3.1483 0
M  V30 4246 H 395.798 -5.82324 1.4373 0
M  V30 4247 H 397.477 -6.18106 1.91193 0
M  V30 4248 N 397.609 -0.515225 -1.4894 0
M  V30 4249 C 398.886 0.0879088 -1.95402 0
M  V30 4250 C 399.266 1.52745 -1.45712 0
M  V30 4251 O 398.614 2.18238 -0.677093 0
M  V30 4252 C 398.824 -0.0141055 -3.48997 0
M  V30 4253 C 400.172 0.152646 -4.24326 0
M  V30 4254 O 401.196 0.0604025 -3.56149 0
M  V30 4255 O 400.055 0.34384 -5.45417 0
M  V30 4256 H 397.149 0.0874636 -0.822362 0
M  V30 4257 H 399.695 -0.578775 -1.59525 0
M  V30 4258 H 398.467 -1.01745 -3.77841 0
M  V30 4259 H 398.09 0.692091 -3.9153 0
M  V30 4260 N 399.087 1.5561 -0.249682 0
M  V30 4261 C 400.035 2.22894 0.664906 0
M  V30 4262 C 401.029 1.21743 1.17792 0
M  V30 4263 O 402.235 1.39748 1.13449 0
M  V30 4264 H 398.61 0.715022 0.232912 0
M  V30 4265 H 400.581 2.98307 0.0742998 0
M  V30 4266 C 399.33 2.94424 1.84959 0
M  V30 4267 H 398.653 3.72031 1.46399 0
M  V30 4268 H 400.093 3.44862 2.4667 0
M  V30 4269 C 398.552 1.98454 2.72245 0
M  V30 4270 O 399.082 1.51939 3.71857 0
M  V30 4271 N 397.288 1.65496 2.38871 0
M  V30 4272 H 396.835 2.03517 1.57919 0
M  V30 4273 H 396.793 1.0155 2.97548 0
M  V30 4274 N 400.565 -0.0233959 1.57583 0
M  V30 4275 C 401.495 -1.02162 2.09965 0
M  V30 4276 C 402.476 -1.3735 1.00344 0
M  V30 4277 O 403.661 -1.46135 1.27899 0
M  V30 4278 C 400.791 -2.32081 2.58371 0
M  V30 4279 C 399.745 -2.1112 3.72307 0
M  V30 4280 C 399.071 -3.46848 4.06941 0
M  V30 4281 C 400.371 -1.49276 5.00514 0
M  V30 4282 H 402.065 -0.585557 2.93618 0
M  V30 4283 H 399.611 -0.280218 1.41247 0
M  V30 4284 H 401.564 -3.02249 2.93639 0
M  V30 4285 H 400.288 -2.77758 1.71808 0
M  V30 4286 H 398.947 -1.43384 3.37397 0
M  V30 4287 H 398.595 -3.90184 3.17436 0
M  V30 4288 H 398.295 -3.33646 4.83688 0
M  V30 4289 H 399.819 -4.18369 4.44747 0
M  V30 4290 H 401.233 -2.09368 5.33702 0
M  V30 4291 H 399.63 -1.46632 5.8191 0
M  V30 4292 H 400.7 -0.459217 4.82721 0
M  V30 4293 N 402.043 -1.548 -0.295768 0
M  V30 4294 C 402.953 -1.89177 -1.38742 0
M  V30 4295 C 403.969 -0.786481 -1.55211 0
M  V30 4296 O 405.145 -1.08344 -1.69775 0
M  V30 4297 C 402.21 -2.13663 -2.73036 0
M  V30 4298 C 401.271 -3.37349 -2.65508 0
M  V30 4299 C 400.504 -3.60658 -3.93398 0
M  V30 4300 O 400.727 -2.86882 -4.93006 0
M  V30 4301 O 399.661 -4.54179 -3.94975 0
M  V30 4302 H 403.487 -2.82059 -1.12589 0
M  V30 4303 H 401.072 -1.41056 -0.492295 0
M  V30 4304 H 402.954 -2.3094 -3.52484 0
M  V30 4305 H 401.629 -1.23967 -2.99022 0
M  V30 4306 H 400.536 -3.25431 -1.84514 0
M  V30 4307 H 401.869 -4.27192 -2.44474 0
M  V30 4308 N 403.521 0.559213 -1.47345 0
M  V30 4309 C 404.767 1.31843 -1.54095 0
M  V30 4310 C 405.1 1.93149 -0.201726 0
M  V30 4311 O 404.375 1.77759 0.789428 0
M  V30 4312 C 404.658 2.43006 -2.65744 0
M  V30 4313 C 404.511 1.86581 -4.09277 0
M  V30 4314 C 405.83 3.44943 -2.73318 0
M  V30 4315 H 402.949 0.478012 -0.560957 0
M  V30 4316 H 405.591 0.625977 -1.79392 0
M  V30 4317 H 403.741 3.02072 -2.44305 0
M  V30 4318 H 405.413 1.31792 -4.42073 0
M  V30 4319 H 403.656 1.17268 -4.17649 0
M  V30 4320 H 404.327 2.66933 -4.83168 0
M  V30 4321 H 406.803 2.95793 -2.92653 0
M  V30 4322 H 405.679 4.20153 -3.53218 0
M  V30 4323 H 405.94 4.03665 -1.80296 0
M  V30 4324 N 404.999 1.35443 0.805782 0
M  V30 4325 C 406.229 1.31687 1.59192 0
M  V30 4326 C 406.637 -0.10756 1.88894 0
M  V30 4327 O 405.98 -1.07017 1.49309 0
M  V30 4328 C 406.042 2.05686 2.94845 0
M  V30 4329 C 405.706 3.54868 2.87954 0
M  V30 4330 C 406.703 4.49444 2.61335 0
M  V30 4331 C 404.388 3.97528 3.07046 0
M  V30 4332 C 406.382 5.84655 2.53885 0
M  V30 4333 C 404.069 5.32833 2.99219 0
M  V30 4334 C 405.067 6.26209 2.72674 0
M  V30 4335 O 404.755 7.59032 2.64811 0
M  V30 4336 H 404.487 0.453878 0.50097 0
M  V30 4337 H 407.041 1.78892 1.0093 0
M  V30 4338 H 405.271 1.5312 3.55093 0
M  V30 4339 H 406.96 1.94998 3.55993 0
M  V30 4340 H 407.726 4.17804 2.46303 0
M  V30 4341 H 403.605 3.25233 3.26718 0
M  V30 4342 H 407.149 6.57508 2.33086 0
M  V30 4343 H 403.046 5.64087 3.13809 0
M  V30 4344 H 403.814 7.68967 2.80413 0
M  V30 4345 N 406.477 -1.02803 1.19454 0
M  V30 4346 C 407.888 -1.57667 0.999899 0
M  V30 4347 C 408.239 -1.91041 -0.446956 0
M  V30 4348 O 407.364 -1.70978 -1.32648 0
M  V30 4349 C 407.959 -2.86477 1.80877 0
M  V30 4350 C 406.518 -3.37911 1.65811 0
M  V30 4351 C 405.665 -2.11343 1.79526 0
M  V30 4352 H 408.616 -0.853214 1.33813 0
M  V30 4353 H 408.637 -3.57408 1.30536 0
M  V30 4354 H 408.149 -2.62155 2.86175 0
M  V30 4355 H 406.25 -3.67218 0.63102 0
M  V30 4356 H 406.363 -4.10885 2.46395 0
M  V30 4357 H 404.727 -2.23254 1.22596 0
M  V30 4358 H 405.51 -1.89461 2.86285 0
M  V30 4359 O 407.994 -1.12654 -1.15721 0
M  V30 4360 H 408.685 -0.83899 -1.74587 0
M  V30 END ATOM
M  V30 BEGIN BOND
M  V30 END BOND
M  V30 END CTAB
M  END
$$$$
