drugbank_target|Q5SHN3 30S ribosomal protein S12 (DB08185)
 OpenBabel12092120483D

  0  0  0     0  0            999 V3000
M  V30 BEGIN CTAB
M  V30 COUNTS 2157 2173 0 0 0
M  V30 BEGIN ATOM
M  V30 1 H -0.908 1.98254 -0.117106 0
M  V30 2 N 0 1.576 0 0
M  V30 3 C 0.933 2.03868 1.02534 0
M  V30 4 C 1.911 0.928543 1.3348 0
M  V30 5 O 3.095 1.19667 1.45644 0
M  V30 6 C 0.222 2.43627 2.35294 0
M  V30 7 C -0.732 3.65373 2.2001 0
M  V30 8 S 0.101 5.13292 1.52614 0
M  V30 9 C 1.257 5.56322 2.86805 0
M  V30 10 H 1.49 2.90518 0.631377 0
M  V30 11 H -0.977 1.52953 0.210867 0
M  V30 12 H 0.981 2.67203 3.11629 0
M  V30 13 H -0.358 1.57376 2.7183 0
M  V30 14 H -1.165 3.90944 3.18086 0
M  V30 15 H -1.563 3.418 1.51819 0
M  V30 16 H 0.729 5.58782 3.83104 0
M  V30 17 H 1.672 6.56266 2.65933 0
M  V30 18 H 2.08 4.83886 2.90714 0
M  V30 19 N 1.4781 -0.272755 1.55222 0
M  V30 20 C 2.8891 -0.84378 1.66545 0
M  V30 21 C 3.2401 -1.87035 0.592641 0
M  V30 22 O 2.3651 -2.14761 -0.265818 0
M  V30 23 C 2.9601 -1.53723 3.01918 0
M  V30 24 C 1.5191 -2.05628 3.15268 0
M  V30 25 C 0.6661 -0.898424 2.62343 0
M  V30 26 H 3.6171 -0.0490998 1.58624 0
M  V30 27 H 3.6381 -2.40421 2.94921 0
M  V30 28 H 3.1501 -0.78983 3.79978 0
M  V30 29 H 1.2511 -2.83329 2.41983 0
M  V30 30 H 1.3641 -2.27142 4.21833 0
M  V30 31 H -0.2719 -1.29186 2.19506 0
M  V30 32 H 0.5111 -0.164528 3.42906 0
M  V30 33 N 2.9562 -1.48159 -0.537278 0
M  V30 34 C 4.1842 -1.59454 -1.31841 0
M  V30 35 C 4.5992 -0.252065 -1.8711 0
M  V30 36 O 3.9562 0.757621 -1.66031 0
M  V30 37 C 4.0072 -2.63546 -2.47439 0
M  V30 38 O 3.7282 -3.92583 -1.94449 0
M  V30 39 C 5.2292 -2.85212 -3.39366 0
M  V30 40 H 2.4492 -0.53785 -0.401196 0
M  V30 41 H 4.9932 -1.93932 -0.648891 0
M  V30 42 H 3.1482 -2.31946 -3.1029 0
M  V30 43 H 3.5622 -4.49629 -2.70063 0
M  V30 44 H 5.0362 -3.61863 -4.16844 0
M  V30 45 H 5.5132 -1.93765 -3.94147 0
M  V30 46 H 6.1192 -3.18086 -2.82314 0
M  V30 47 N 4.4343 0.785586 -1.36625 0
M  V30 48 C 5.6833 1.53883 -1.30396 0
M  V30 49 C 5.9963 1.95271 0.113452 0
M  V30 50 O 7.2023 2.69858 0.298142 0
M  V30 51 C 5.6583 2.77808 -2.28802 0
M  V30 52 C 5.2663 2.43574 -3.75999 0
M  V30 53 C 7.0103 3.55783 -2.31558 0
M  V30 54 C 4.9173 3.63919 -4.66173 0
M  V30 55 H 3.8473 0.577678 -0.484566 0
M  V30 56 H 6.4983 0.861705 -1.62009 0
M  V30 57 H 4.8803 3.47339 -1.90188 0
M  V30 58 H 6.0543 1.81916 -4.23371 0
M  V30 59 H 4.3693 1.78803 -3.76056 0
M  V30 60 H 6.9663 4.45205 -2.96137 0
M  V30 61 H 7.3093 3.94644 -1.3252 0
M  V30 62 H 7.8423 2.93235 -2.68809 0
M  V30 63 H 4.5813 3.3015 -5.66287 0
M  V30 64 H 4.1013 4.2473 -4.23515 0
M  V30 65 H 5.7803 4.30901 -4.82632 0
M  V30 66 N 5.9124 1.20967 1.01018 0
M  V30 67 C 6.8604 0.961223 2.1181 0
M  V30 68 C 7.8544 -0.0897034 1.69162 0
M  V30 69 O 9.0604 0.0612271 1.79896 0
M  V30 70 H 5.4354 0.29355 0.692338 0
M  V30 71 H 7.4064 1.90178 2.29946 0
M  V30 72 C 6.1554 0.536854 3.4353 0
M  V30 73 H 5.4784 1.33713 3.76777 0
M  V30 74 H 6.9184 0.402286 4.22087 0
M  V30 75 C 5.3774 -0.751574 3.2841 0
M  V30 76 O 5.9074 -1.80841 3.58691 0
M  V30 77 N 4.1134 -0.716079 2.81639 0
M  V30 78 H 3.6604 0.144236 2.57196 0
M  V30 79 H 3.6184 -1.57847 2.71904 0
M  V30 80 N 7.3905 -1.2043 1.01659 0
M  V30 81 C 8.3225 -2.22626 0.544988 0
M  V30 82 C 9.3355 -1.58479 -0.372609 0
M  V30 83 O 10.5245 -1.77679 -0.170958 0
M  V30 84 C 7.6245 -3.38141 -0.22663 0
M  V30 85 C 6.7975 -4.31877 0.692876 0
M  V30 86 C 5.8565 -5.26191 -0.0311616 0
M  V30 87 O 4.8825 -5.6612 0.591343 0
M  V30 88 N 6.0845 -5.65618 -1.30601 0
M  V30 89 H 8.8495 -2.63716 1.42388 0
M  V30 90 H 6.4105 -1.34971 0.894116 0
M  V30 91 H 8.4025 -3.98239 -0.72024 0
M  V30 92 H 6.9725 -2.95943 -1.00681 0
M  V30 93 H 6.1925 -3.69746 1.36679 0
M  V30 94 H 7.4805 -4.91426 1.31824 0
M  V30 95 H 6.8785 -5.3519 -1.83269 0
M  V30 96 H 5.4355 -6.28025 -1.74435 0
M  V30 97 N 8.8686 -0.792821 -1.36206 0
M  V30 98 C 9.7986 -0.207853 -2.32573 0
M  V30 99 C 10.7796 0.659055 -1.56813 0
M  V30 100 O 11.9646 0.592176 -1.84951 0
M  V30 101 C 9.0946 0.655449 -3.41059 0
M  V30 102 C 8.0486 -0.111842 -4.27854 0
M  V30 103 C 7.3746 0.872274 -5.27537 0
M  V30 104 C 8.6746 -1.30299 -5.05786 0
M  V30 105 H 10.3686 -1.01294 -2.81744 0
M  V30 106 H 7.9146 -0.48854 -1.3546 0
M  V30 107 H 9.8676 1.07464 -4.07467 0
M  V30 108 H 8.5916 1.49328 -2.90463 0
M  V30 109 H 7.2506 -0.512053 -3.63006 0
M  V30 110 H 6.8986 1.70523 -4.73214 0
M  V30 111 H 6.5986 0.363291 -5.86476 0
M  V30 112 H 8.1226 1.28996 -5.96818 0
M  V30 113 H 9.5366 -0.959379 -5.65216 0
M  V30 114 H 7.9336 -1.7455 -5.74154 0
M  V30 115 H 9.0036 -2.09663 -4.37229 0
M  V30 116 N 10.3467 1.47872 -0.545128 0
M  V30 117 C 11.5927 2.02793 -0.0166104 0
M  V30 118 C 11.9257 1.41987 1.32489 0
M  V30 119 O 11.2007 0.571045 1.85928 0
M  V30 120 C 11.4837 3.59989 0.0893294 0
M  V30 121 C 11.3367 4.3125 -1.27841 0
M  V30 122 C 12.6557 4.32606 0.808724 0
M  V30 123 H 9.7747 0.736962 -0.00751035 0
M  V30 124 H 12.4167 1.76433 -0.705085 0
M  V30 125 H 10.5667 3.82579 0.675681 0
M  V30 126 H 12.2387 4.20035 -1.90704 0
M  V30 127 H 10.4817 3.92076 -1.85632 0
M  V30 128 H 11.1527 5.39736 -1.15713 0
M  V30 129 H 13.6287 4.14936 0.310992 0
M  V30 130 H 12.5047 5.42251 0.851782 0
M  V30 131 H 12.7657 4.00963 1.86229 0
M  V30 132 N 11.8248 0.280983 1.55075 0
M  V30 133 C 13.2408 -0.0729964 1.59433 0
M  V30 134 C 13.4408 -1.5411 1.29817 0
M  V30 135 O 12.4968 -2.29086 1.06187 0
M  V30 136 C 13.8098 0.306921 2.9913 0
M  V30 137 C 15.3578 0.254023 3.11968 0
M  V30 138 C 15.8328 0.608467 4.5394 0
M  V30 139 N 17.3238 0.560241 4.59799 0
M  V30 140 C 18.0588 0.80722 5.6769 0
M  V30 141 N 17.5548 1.11912 6.83701 0
M  V30 142 N 19.3478 0.735623 5.57266 0
M  V30 143 H 11.4988 1.238 1.7259 0
M  V30 144 H 13.7618 0.500547 0.805082 0
M  V30 145 H 13.4678 1.32816 3.25657 0
M  V30 146 H 13.3418 -0.349363 3.75579 0
M  V30 147 H 15.7288 -0.75794 2.852 0
M  V30 148 H 15.8098 0.944649 2.37718 0
M  V30 149 H 15.4538 1.61814 4.81434 0
M  V30 150 H 15.3838 -0.104013 5.26497 0
M  V30 151 H 17.8748 0.329288 3.76463 0
M  V30 152 H 18.1878 1.29409 7.61888 0
M  V30 153 H 16.5328 1.15695 6.85303 0
M  V30 154 H 19.7238 0.491752 4.6551 0
M  V30 155 H 19.8968 0.931482 6.4127 0
M  V30 156 N 13.3029 -1.57598 0.00835791 0
M  V30 157 C 14.2499 -2.08945 -0.980346 0
M  V30 158 C 15.2199 -0.986738 -1.33614 0
M  V30 159 O 16.4049 -1.25968 -1.43306 0
M  V30 160 C 13.5449 -2.60425 -2.26435 0
M  V30 161 C 12.6579 -3.84628 -1.96685 0
M  V30 162 C 11.7929 -4.24579 -3.19228 0
M  V30 163 C 10.8319 -5.41596 -2.85202 0
M  V30 164 N 9.9689 -5.768 -4.00307 0
M  V30 165 H 14.8089 -2.93148 -0.535551 0
M  V30 166 H 12.3459 -1.44912 -0.252776 0
M  V30 167 H 14.3039 -2.88354 -3.01509 0
M  V30 168 H 12.9339 -1.79083 -2.68568 0
M  V30 169 H 11.9859 -3.63556 -1.11942 0
M  V30 170 H 13.2979 -4.69796 -1.67611 0
M  V30 171 H 12.4519 -4.53834 -4.02641 0
M  V30 172 H 11.1909 -3.38137 -3.51447 0
M  V30 173 H 10.1959 -5.12056 -2.00198 0
M  V30 174 H 11.4209 -6.29721 -2.54222 0
M  V30 175 H 9.3669 -4.93316 -4.32407 0
M  V30 176 H 9.2839 -6.5656 -3.74786 0
M  V30 177 H 10.5519 -6.10652 -4.84484 0
M  V30 178 N 14.781 0.264519 -1.55364 0
M  V30 179 C 16.029 0.993021 -1.76021 0
M  V30 180 C 16.35 1.86511 -0.569099 0
M  V30 181 O 15.62 1.91438 0.415735 0
M  V30 182 H 14.2 0.369639 -0.649135 0
M  V30 183 H 16.862 0.286707 -1.9278 0
M  V30 184 H 15.958 1.62502 -2.66457 0
M  V30 185 N 16.2591 1.48442 0.529413 0
M  V30 186 C 17.6751 1.34575 0.858004 0
M  V30 187 C 17.8751 0.3572 1.98309 0
M  V30 188 O 16.9311 -0.221379 2.51528 0
M  V30 189 C 18.2441 2.74617 1.22499 0
M  V30 190 C 19.7921 2.83109 1.33484 0
M  V30 191 C 20.2671 4.23854 1.73526 0
M  V30 192 N 21.7581 4.2653 1.80628 0
M  V30 193 C 22.4931 5.32372 2.12997 0
M  V30 194 N 21.9891 6.48491 2.43786 0
M  V30 195 N 23.7821 5.19766 2.14008 0
M  V30 196 H 15.9331 2.1133 -0.212925 0
M  V30 197 H 18.1961 0.947439 -0.0326199 0
M  V30 198 H 17.9021 3.4852 0.471905 0
M  V30 199 H 17.7761 3.08177 2.17501 0
M  V30 200 H 20.1631 2.09462 2.0787 0
M  V30 201 H 20.2441 2.53168 0.366027 0
M  V30 202 H 19.8881 4.98018 0.997013 0
M  V30 203 H 19.8181 4.5124 2.71459 0
M  V30 204 H 22.3091 3.42772 1.59108 0
M  V30 205 H 22.6221 7.24993 2.67592 0
M  V30 206 H 20.9671 6.51765 2.41304 0
M  V30 207 H 24.1581 4.28066 1.89412 0
M  V30 208 H 24.3311 6.02354 2.38902 0
M  V30 209 N 17.7372 -0.778329 1.37039 0
M  V30 210 C 18.6472 -1.92253 1.34446 0
M  V30 211 C 19.6632 -1.72267 0.244991 0
M  V30 212 O 20.8392 -1.95615 0.479258 0
M  V30 213 C 17.9042 -3.27282 1.144 0
M  V30 214 C 16.9652 -3.59969 2.33925 0
M  V30 215 C 16.1982 -4.88555 2.14825 0
M  V30 216 O 16.4212 -5.59113 1.12912 0
M  V30 217 O 15.3552 -5.20153 3.02861 0
M  V30 218 H 19.1812 -1.97392 2.30803 0
M  V30 219 H 16.7662 -0.920154 1.17701 0
M  V30 220 H 18.6482 -4.08062 1.05182 0
M  V30 221 H 17.3232 -3.23011 0.211124 0
M  V30 222 H 16.2302 -2.7945 2.48714 0
M  V30 223 H 17.5632 -3.68976 3.25757 0
M  V30 224 N 19.2153 -1.21501 -1.00376 0
M  V30 225 C 20.1623 -0.975387 -2.09177 0
M  V30 226 C 21.1323 0.0990615 -1.65804 0
M  V30 227 O 22.3173 -0.0483147 -1.90739 0
M  V30 228 C 19.4573 -0.547507 -3.40729 0
M  V30 229 C 18.5703 -1.69153 -3.97506 0
M  V30 230 C 17.7053 -1.2127 -5.17172 0
M  V30 231 C 16.7443 -2.32897 -5.66061 0
M  V30 232 N 15.8813 -1.86138 -6.76976 0
M  V30 233 H 20.7213 -1.9068 -2.29009 0
M  V30 234 H 18.2583 -0.950257 -1.12288 0
M  V30 235 H 20.2163 -0.280667 -4.16255 0
M  V30 236 H 18.8463 0.346904 -3.20931 0
M  V30 237 H 17.8983 -2.07298 -3.18954 0
M  V30 238 H 19.2103 -2.5316 -4.29781 0
M  V30 239 H 18.3643 -0.902591 -5.99948 0
M  V30 240 H 17.1033 -0.342692 -4.86495 0
M  V30 241 H 16.1083 -2.64709 -4.81881 0
M  V30 242 H 17.3333 -3.20396 -5.98768 0
M  V30 243 H 15.2793 -1.01484 -6.48103 0
M  V30 244 H 15.1963 -2.63717 -7.08512 0
M  V30 245 H 16.4643 -1.58165 -7.63285 0
M  V30 246 N 20.6934 1.19889 -1.02296 0
M  V30 247 C 21.9394 1.89701 -0.717033 0
M  V30 248 C 22.2724 1.7905 0.751989 0
M  V30 249 O 21.5474 1.17891 1.547 0
M  V30 250 C 21.8304 3.40858 -1.16136 0
M  V30 251 C 21.6834 3.60411 -2.69117 0
M  V30 252 C 23.0024 4.33876 -0.737549 0
M  V30 253 H 20.1214 0.688874 -0.261957 0
M  V30 254 H 22.7634 1.41154 -1.27183 0
M  V30 255 H 20.9134 3.82335 -0.689342 0
M  V30 256 H 22.5854 3.28145 -3.2422 0
M  V30 257 H 20.8284 3.03665 -3.0979 0
M  V30 258 H 21.4994 4.66396 -2.95261 0
M  V30 259 H 23.9754 4.00081 -1.14344 0
M  V30 260 H 22.8514 5.38242 -1.0764 0
M  V30 261 H 23.1124 4.40628 0.360436 0
M  V30 262 N 22.1715 0.800033 1.35784 0
M  V30 263 C 23.5875 0.482977 1.52117 0
M  V30 264 C 23.7875 -0.996948 1.75109 0
M  V30 265 O 22.8435 -1.78216 1.78872 0
M  V30 266 C 24.1565 1.32264 2.70049 0
M  V30 267 C 25.7045 1.31742 2.83924 0
M  V30 268 C 26.1795 2.14106 4.04874 0
M  V30 269 N 27.6705 2.11607 4.12039 0
M  V30 270 C 28.4055 2.72099 5.04727 0
M  V30 271 N 27.9015 3.41492 6.02789 0
M  V30 272 N 29.6945 2.61776 4.97423 0
M  V30 273 H 21.8455 1.75856 1.19115 0
M  V30 274 H 24.1085 0.748122 0.582252 0
M  V30 275 H 23.8145 2.37261 2.59616 0
M  V30 276 H 23.6885 0.971303 3.6448 0
M  V30 277 H 26.0755 0.275333 2.93813 0
M  V30 278 H 26.1565 1.70859 1.9037 0
M  V30 279 H 25.8005 3.18351 3.95746 0
M  V30 280 H 25.7305 1.72353 4.97596 0
M  V30 281 H 28.2215 1.61112 3.41835 0
M  V30 282 H 28.5345 3.84953 6.70098 0
M  V30 283 H 26.8795 3.45596 6.02983 0
M  V30 284 H 30.0705 2.07157 4.19766 0
M  V30 285 H 30.2435 3.0921 5.69468 0
M  V30 286 N 23.6496 -1.47581 0.552962 0
M  V30 287 C 24.5966 -2.29957 -0.197108 0
M  V30 288 C 25.5666 -1.38799 -0.912359 0
M  V30 289 O 26.7516 -1.67761 -0.908888 0
M  V30 290 C 23.8916 -3.22672 -1.22379 0
M  V30 291 C 23.0046 -4.28919 -0.515038 0
M  V30 292 C 22.1396 -5.0879 -1.52664 0
M  V30 293 C 21.1786 -6.06815 -0.802631 0
M  V30 294 N 20.3156 -6.7966 -1.76086 0
M  V30 295 H 25.1556 -2.93578 0.511486 0
M  V30 296 H 22.6926 -1.4471 0.264067 0
M  V30 297 H 24.6506 -3.74845 -1.83159 0
M  V30 298 H 23.2806 -2.60925 -1.90047 0
M  V30 299 H 22.3326 -3.79835 0.207192 0
M  V30 300 H 23.6446 -4.98773 0.0523425 0
M  V30 301 H 22.7986 -5.65091 -2.20809 0
M  V30 302 H 21.5376 -4.38828 -2.12794 0
M  V30 303 H 20.5426 -5.49695 -0.107238 0
M  V30 304 H 21.7676 -6.78784 -0.207135 0
M  V30 305 H 19.7136 -6.12432 -2.35081 0
M  V30 306 H 19.6306 -7.45669 -1.24552 0
M  V30 307 H 20.8986 -7.40538 -2.43359 0
M  V30 308 N 25.1277 -0.289203 -1.54924 0
M  V30 309 C 26.0747 0.592115 -2.23075 0
M  V30 310 C 27.0447 1.13881 -1.20915 0
M  V30 311 O 28.2297 1.18551 -1.495 0
M  V30 312 C 25.3697 1.76376 -2.96623 0
M  V30 313 C 24.4827 1.24959 -4.13533 0
M  V30 314 C 23.6177 2.38416 -4.74691 0
M  V30 315 C 22.6567 1.84072 -5.83767 0
M  V30 316 N 21.7937 2.91057 -6.38929 0
M  V30 317 H 26.6337 0.00432038 -2.98 0
M  V30 318 H 24.1707 -0.00963529 -1.47097 0
M  V30 319 H 26.1287 2.45268 -3.3749 0
M  V30 320 H 24.7587 2.32337 -2.24097 0
M  V30 321 H 23.8107 0.453307 -3.77689 0
M  V30 322 H 25.1227 0.811662 -4.92152 0
M  V30 323 H 24.2767 3.15276 -5.18349 0
M  V30 324 H 23.0157 2.8553 -3.95378 0
M  V30 325 H 22.0207 1.05697 -5.39545 0
M  V30 326 H 23.2457 1.37877 -6.64956 0
M  V30 327 H 21.1917 3.37526 -5.62505 0
M  V30 328 H 21.1087 2.51724 -7.12861 0
M  V30 329 H 22.3767 3.6785 -6.87246 0
M  V30 330 N 26.6058 1.57591 -0.0167156 0
M  V30 331 C 27.8308 1.9598 0.67872 0
M  V30 332 C 28.2558 0.892546 1.65575 0
M  V30 333 O 27.6138 -0.147772 1.80697 0
M  V30 334 C 27.6618 3.33468 1.37227 0
M  V30 335 O 26.7658 3.28954 2.48722 0
M  V30 336 H 26.1068 0.639339 0.17928 0
M  V30 337 H 28.6368 2.04463 -0.0748802 0
M  V30 338 H 28.6468 3.69417 1.7319 0
M  V30 339 H 27.3218 4.10694 0.656007 0
M  V30 340 H 25.8988 3.04705 2.14963 0
M  V30 341 N 28.0839 -0.256276 1.55502 0
M  V30 342 C 29.0309 -1.31714 1.89526 0
M  V30 343 C 30.0009 -1.4828 0.748479 0
M  V30 344 O 31.1859 -1.62416 1.00128 0
M  V30 345 C 28.3259 -2.66933 2.18725 0
M  V30 346 C 27.4389 -2.58452 3.4616 0
M  V30 347 C 26.5739 -3.85961 3.64976 0
M  V30 348 C 25.6129 -3.72059 4.86044 0
M  V30 349 N 24.7499 -4.9144 5.01429 0
M  V30 350 H 29.5899 -1.01998 2.80001 0
M  V30 351 H 27.1269 -0.492413 1.38613 0
M  V30 352 H 29.0849 -3.4563 2.33657 0
M  V30 353 H 27.7149 -2.94816 1.31466 0
M  V30 354 H 26.7669 -1.71374 3.3961 0
M  V30 355 H 28.0789 -2.44085 4.34999 0
M  V30 356 H 27.2329 -4.73101 3.79816 0
M  V30 357 H 25.9719 -4.03215 2.74353 0
M  V30 358 H 24.9769 -2.83302 4.7119 0
M  V30 359 H 26.2019 -3.56309 5.78118 0
M  V30 360 H 24.1479 -5.09072 4.13741 0
M  V30 361 H 24.0649 -4.79668 5.84341 0
M  V30 362 H 25.3329 -5.80104 5.20672 0
M  V30 363 N 29.562 -1.4872 -0.521534 0
M  V30 364 C 30.808 -1.574 -1.27879 0
M  V30 365 C 31.141 -0.250817 -1.92573 0
M  V30 366 O 30.416 0.743934 -1.79711 0
M  V30 367 C 30.699 -2.71843 -2.36164 0
M  V30 368 C 30.552 -4.13893 -1.76105 0
M  V30 369 C 31.871 -2.82008 -3.37875 0
M  V30 370 H 28.99 -0.572941 -0.463581 0
M  V30 371 H 31.632 -1.80927 -0.580119 0
M  V30 372 H 29.782 -2.51914 -2.95756 0
M  V30 373 H 31.454 -4.45284 -1.20499 0
M  V30 374 H 29.697 -4.20498 -1.06601 0
M  V30 375 H 30.368 -4.89804 -2.5455 0
M  V30 376 H 32.844 -3.00086 -2.88249 0
M  V30 377 H 31.72 -3.63796 -4.11028 0
M  V30 378 H 31.981 -1.90511 -3.98946 0
M  V30 379 N 31.0401 0.771051 -1.3745 0
M  V30 380 C 32.4511 1.34737 -1.29239 0
M  V30 381 C 32.8021 1.96109 0.0596908 0
M  V30 382 O 31.9271 1.93865 0.961534 0
M  V30 383 C 32.5221 2.44973 -2.34037 0
M  V30 384 C 31.0811 2.98372 -2.29458 0
M  V30 385 C 30.2281 1.71595 -2.17831 0
M  V30 386 H 33.1791 0.571256 -1.48062 0
M  V30 387 H 33.2001 3.24471 -1.98744 0
M  V30 388 H 32.7121 2.00276 -3.32432 0
M  V30 389 H 30.8131 3.47443 -1.34589 0
M  V30 390 H 30.9261 3.53939 -3.229 0
M  V30 391 H 29.2901 1.94547 -1.64388 0
M  V30 392 H 30.0731 1.29001 -3.18141 0
M  V30 393 N 32.5182 1.22032 0.997298 0
M  V30 394 C 33.4812 0.987909 2.06816 0
M  V30 395 C 34.4812 -0.0440084 1.6074 0
M  V30 396 O 35.6712 0.194053 1.73116 0
M  V30 397 C 32.8032 0.49132 3.37341 0
M  V30 398 H 33.9962 1.93803 2.28868 0
M  V30 399 H 31.5492 1.03838 1.16822 0
M  V30 400 H 32.2842 -0.463364 3.20973 0
M  V30 401 H 32.0692 1.23575 3.72118 0
M  V30 402 H 33.5592 0.348824 4.16141 0
M  V30 403 N 33.9963 -1.19345 1.0293 0
M  V30 404 C 34.9263 -2.2481 0.631105 0
M  V30 405 C 35.9073 -1.66245 -0.360104 0
M  V30 406 O 37.0923 -1.92677 -0.242726 0
M  V30 407 C 34.2223 -3.47295 -0.0184607 0
M  V30 408 C 33.1763 -4.18536 0.895073 0
M  V30 409 C 32.5023 -5.34586 0.110592 0
M  V30 410 C 33.8023 -4.73287 2.209 0
M  V30 411 H 35.4963 -2.58372 1.51275 0
M  V30 412 H 33.0423 -1.24194 0.728818 0
M  V30 413 H 34.9953 -4.20268 -0.308675 0
M  V30 414 H 33.7193 -3.12933 -0.934907 0
M  V30 415 H 32.3783 -3.47446 1.16949 0
M  V30 416 H 32.0263 -4.96469 -0.807902 0
M  V30 417 H 31.7263 -5.83183 0.719087 0
M  V30 418 H 33.2503 -6.10355 -0.172871 0
M  V30 419 H 34.6643 -5.38013 1.98028 0
M  V30 420 H 33.0613 -5.32373 2.76946 0
M  V30 421 H 34.1313 -3.91331 2.86336 0
M  V30 422 N 35.4744 -0.807222 -1.35358 0
M  V30 423 C 36.4214 -0.216037 -2.29787 0
M  V30 424 C 37.3914 0.650278 -1.52842 0
M  V30 425 O 38.5764 0.595227 -1.81278 0
M  V30 426 C 35.7164 0.628893 -3.39321 0
M  V30 427 C 34.8294 -0.257927 -4.31229 0
M  V30 428 C 33.9644 0.595069 -5.27856 0
M  V30 429 C 33.0034 -0.292111 -6.11403 0
M  V30 430 N 32.1404 0.520895 -7.00165 0
M  V30 431 H 36.9804 -1.02671 -2.79755 0
M  V30 432 H 34.5174 -0.517839 -1.37684 0
M  V30 433 H 36.4754 1.13393 -4.01494 0
M  V30 434 H 35.1054 1.40482 -2.90628 0
M  V30 435 H 34.1574 -0.881076 -3.70056 0
M  V30 436 H 35.4694 -0.940759 -4.89848 0
M  V30 437 H 34.6234 1.16522 -5.95405 0
M  V30 438 H 33.3624 1.31146 -4.69736 0
M  V30 439 H 32.3674 -0.874525 -5.428 0
M  V30 440 H 33.5924 -1.00638 -6.71602 0
M  V30 441 H 31.5384 1.22125 -6.44532 0
M  V30 442 H 31.4554 -0.103877 -7.55929 0
M  V30 443 H 32.7234 1.0743 -7.72062 0
M  V30 444 N 36.9525 1.47285 -0.560781 0
M  V30 445 C 38.2005 2.02064 -0.0379868 0
M  V30 446 C 38.5215 1.43711 1.31803 0
M  V30 447 O 37.7915 0.61362 1.86042 0
M  V30 448 H 36.3715 0.746918 -0.0110531 0
M  V30 449 H 39.0335 1.80648 -0.731598 0
M  V30 450 H 38.1295 3.12064 0.0474463 0
M  V30 451 N 38.4306 0.297415 1.54768 0
M  V30 452 C 39.3936 -0.567375 2.22066 0
M  V30 453 C 40.3936 -1.06409 1.20556 0
M  V30 454 O 41.5836 -0.960691 1.45315 0
M  V30 455 C 38.7156 -1.78517 2.90421 0
M  V30 456 H 39.9086 0.0205534 2.99893 0
M  V30 457 H 37.4616 0.0482163 1.56226 0
M  V30 458 H 38.1966 -2.41303 2.16664 0
M  V30 459 H 37.9816 -1.43669 3.64831 0
M  V30 460 H 39.4716 -2.39964 3.41771 0
M  V30 461 N 39.9087 -1.5758 0.0250728 0
M  V30 462 C 41.3197 -1.79476 -0.514323 0
M  V30 463 C 41.6707 -0.934956 -1.72491 0
M  V30 464 O 40.7957 -0.144245 -2.15919 0
M  V30 465 C 41.3907 -3.25503 -0.939842 0
M  V30 466 C 39.9497 -3.48408 -1.42438 0
M  V30 467 C 39.0967 -2.74583 -0.387201 0
M  V30 468 H 42.0477 -1.567 0.25113 0
M  V30 469 H 42.0687 -3.34992 -1.80445 0
M  V30 470 H 41.5807 -3.88056 -0.0585628 0
M  V30 471 H 39.6817 -2.91103 -2.32572 0
M  V30 472 H 39.7947 -4.57119 -1.43455 0
M  V30 473 H 38.1587 -2.39942 -0.854409 0
M  V30 474 H 38.9417 -3.39849 0.485543 0
M  V30 475 N 41.3868 0.248026 -1.55636 0
M  V30 476 C 42.6338 0.976224 -1.77415 0
M  V30 477 C 42.9618 1.85361 -0.589193 0
M  V30 478 O 42.2168 1.90973 0.427529 0
M  V30 479 C 42.5158 1.86819 -3.04686 0
M  V30 480 C 42.1818 1.14625 -4.36087 0
M  V30 481 C 40.8438 0.946723 -4.71795 0
M  V30 482 C 43.1958 0.634463 -5.17324 0
M  V30 483 C 40.5238 0.223091 -5.86276 0
M  V30 484 C 42.8758 -0.0756959 -6.32555 0
M  V30 485 C 41.5398 -0.286711 -6.66884 0
M  V30 486 H 40.8098 0.357226 -0.649208 0
M  V30 487 H 43.4568 0.246415 -1.89908 0
M  V30 488 H 41.7618 2.66502 -2.872 0
M  V30 489 H 43.4588 2.43329 -3.18735 0
M  V30 490 H 40.0488 1.3117 -4.08035 0
M  V30 491 H 44.2328 0.77616 -4.90193 0
M  V30 492 H 39.4888 0.0491185 -6.1138 0
M  V30 493 H 43.6628 -0.479899 -6.94745 0
M  V30 494 H 41.2898 -0.849389 -7.5544 0
M  V30 495 N 42.8649 1.48995 0.513639 0
M  V30 496 C 44.2809 1.35478 0.843682 0
M  V30 497 C 44.4809 0.378213 1.97919 0
M  V30 498 O 43.5369 -0.194689 2.51748 0
M  V30 499 C 44.8499 2.75901 1.1958 0
M  V30 500 C 46.3979 2.84509 1.30474 0
M  V30 501 C 46.8729 4.25671 1.69021 0
M  V30 502 N 48.3639 4.28422 1.76094 0
M  V30 503 C 49.0989 5.34601 2.07338 0
M  V30 504 N 48.5949 6.5104 2.36894 0
M  V30 505 N 50.3879 5.22007 2.08483 0
M  V30 506 H 42.5389 2.11092 -0.235328 0
M  V30 507 H 44.8019 0.947039 -0.0426669 0
M  V30 508 H 44.5079 3.49001 0.434913 0
M  V30 509 H 44.3819 3.10467 2.1422 0
M  V30 510 H 46.7689 2.11655 2.05637 0
M  V30 511 H 46.8499 2.53542 0.339155 0
M  V30 512 H 46.4939 4.99048 0.944135 0
M  V30 513 H 46.4239 4.54094 2.66658 0
M  V30 514 H 48.9149 3.44441 1.55464 0
M  V30 515 H 49.2279 7.2779 2.59887 0
M  V30 516 H 47.5729 6.54287 2.34378 0
M  V30 517 H 50.7639 4.30051 1.84861 0
M  V30 518 H 50.9369 6.04854 2.325 0
M  V30 519 N 44.343 -0.763751 1.37857 0
M  V30 520 C 45.759 -1.06542 1.18832 0
M  V30 521 C 45.959 -2.01478 0.0299722 0
M  V30 522 O 45.015 -2.4458 -0.627447 0
M  V30 523 C 46.328 -1.65525 2.51042 0
M  V30 524 C 47.876 -1.77745 2.57635 0
M  V30 525 C 48.351 -2.4014 3.89996 0
M  V30 526 N 49.842 -2.47582 3.91481 0
M  V30 527 C 50.577 -2.96732 4.9065 0
M  V30 528 N 50.073 -3.45993 6.00217 0
M  V30 529 N 51.866 -2.95679 4.78048 0
M  V30 530 H 44.017 -0.133556 2.1198 0
M  V30 531 H 46.28 -0.121879 0.940133 0
M  V30 532 H 45.986 -1.03236 3.36207 0
M  V30 533 H 45.86 -2.64719 2.68707 0
M  V30 534 H 48.247 -2.39164 1.72872 0
M  V30 535 H 48.328 -0.772836 2.43846 0
M  V30 536 H 47.972 -1.79358 4.75177 0
M  V30 537 H 47.902 -3.41223 4.01092 0
M  V30 538 H 50.393 -2.1273 3.12337 0
M  V30 539 H 50.706 -3.81922 6.7183 0
M  V30 540 H 49.051 -3.44077 6.03851 0
M  V30 541 H 52.242 -2.56499 3.91568 0
M  V30 542 H 52.415 -3.33672 5.55488 0
M  V30 543 N 45.8211 -1.22559 -0.990812 0
M  V30 544 C 47.0691 -1.04933 -1.72724 0
M  V30 545 C 47.3901 0.416158 -1.90508 0
M  V30 546 O 46.6601 1.29918 -1.46622 0
M  V30 547 H 45.2401 -0.385296 -0.639965 0
M  V30 548 H 47.9021 -1.54105 -1.19322 0
M  V30 549 H 46.9981 -1.52886 -2.72089 0
M  V30 550 N 47.2992 1.18797 -1.03562 0
M  V30 551 C 48.5452 1.8893 -0.737113 0
M  V30 552 C 48.8782 1.79837 0.732956 0
M  V30 553 O 48.1532 1.19525 1.5344 0
M  V30 554 C 48.4362 3.39607 -1.19745 0
M  V30 555 C 48.2892 3.57537 -2.72924 0
M  V30 556 C 49.6082 4.33069 -0.783526 0
M  V30 557 H 46.7272 0.686057 -0.269249 0
M  V30 558 H 49.3692 1.39797 -1.28673 0
M  V30 559 H 47.5192 3.81583 -0.729855 0
M  V30 560 H 49.1912 3.24688 -3.27682 0
M  V30 561 H 47.4342 3.00363 -3.12993 0
M  V30 562 H 48.1052 4.63238 -3.00191 0
M  V30 563 H 50.5812 3.98846 -1.18581 0
M  V30 564 H 49.4572 5.3707 -1.13343 0
M  V30 565 H 49.7182 4.40986 0.313681 0
M  V30 566 N 48.7773 0.814389 1.34928 0
M  V30 567 C 50.0173 0.404165 2.00364 0
M  V30 568 C 50.3813 -1.01166 1.63185 0
M  V30 569 O 51.5823 -1.52431 2.21401 0
M  V30 570 C 49.8533 0.590718 3.52484 0
M  V30 571 S 51.4123 0.272075 4.37956 0
M  V30 572 H 48.2303 0.15311 0.694319 0
M  V30 573 H 50.8323 1.05834 1.64376 0
M  V30 574 H 49.5363 1.62099 3.77031 0
M  V30 575 H 49.0673 -0.0785013 3.93322 0
M  V30 576 H 51.0823 -0.917405 4.87645 0
M  V30 577 N 50.2554 -1.46986 0.568584 0
M  V30 578 C 51.4834 -2.0683 0.0539956 0
M  V30 579 C 51.8984 -1.41953 -1.24478 0
M  V30 580 O 51.2554 -0.519933 -1.74937 0
M  V30 581 C 51.3064 -3.61254 -0.133362 0
M  V30 582 O 51.0274 -4.237 1.11399 0
M  V30 583 C 52.5284 -4.37992 -0.683927 0
M  V30 584 H 49.7484 -0.669058 0.0510141 0
M  V30 585 H 52.2924 -1.88824 0.785234 0
M  V30 586 H 50.4474 -3.78735 -0.81477 0
M  V30 587 H 50.8614 -5.16388 0.91888 0
M  V30 588 H 52.3354 -5.46684 -0.764263 0
M  V30 589 H 52.8124 -4.05058 -1.69778 0
M  V30 590 H 53.4184 -4.25283 -0.0378494 0
M  V30 591 N 51.7335 -0.305618 -1.54608 0
M  V30 592 C 52.9795 0.302746 -2.00528 0
M  V30 593 C 53.3125 1.53184 -1.19367 0
M  V30 594 O 52.5875 1.92598 -0.271321 0
M  V30 595 C 52.8705 0.654756 -3.54097 0
M  V30 596 C 52.7235 -0.583793 -4.45995 0
M  V30 597 C 54.0425 1.47947 -4.14487 0
M  V30 598 H 51.1615 0.108564 -0.72896 0
M  V30 599 H 53.8035 -0.418634 -1.85331 0
M  V30 600 H 51.9535 1.26935 -3.67178 0
M  V30 601 H 53.6255 -1.22224 -4.44814 0
M  V30 602 H 51.8685 -1.21615 -4.16404 0
M  V30 603 H 52.5395 -0.293287 -5.5122 0
M  V30 604 H 55.0155 0.96013 -4.04871 0
M  V30 605 H 53.8915 1.69454 -5.22088 0
M  V30 606 H 54.1525 2.47011 -3.66658 0
M  V30 607 N 53.2116 1.57565 -0.0334293 0
M  V30 608 C 54.4576 1.92262 0.645226 0
M  V30 609 C 54.7906 0.910543 1.71531 0
M  V30 610 O 54.0656 -0.066099 1.94388 0
M  V30 611 C 54.3486 3.37422 1.2577 0
M  V30 612 C 54.2016 4.49369 0.196891 0
M  V30 613 C 55.5206 3.82628 2.17449 0
M  V30 614 H 52.6396 0.699171 0.233085 0
M  V30 615 H 55.2816 1.89779 -0.0915694 0
M  V30 616 H 53.4316 3.39669 1.88566 0
M  V30 617 H 55.1036 4.59254 -0.433962 0
M  V30 618 H 53.3466 4.31168 -0.477137 0
M  V30 619 H 54.0176 5.47978 0.665124 0
M  V30 620 H 56.4936 3.82145 1.64634 0
M  V30 621 H 55.3696 4.84883 2.57254 0
M  V30 622 H 55.6306 3.18376 3.0674 0
M  V30 623 N 54.6897 -0.239769 1.55765 0
M  V30 624 C 56.1057 -0.588624 1.48349 0
M  V30 625 C 56.3057 -1.88005 0.72502 0
M  V30 626 O 55.3617 -2.51186 0.257269 0
M  V30 627 C 56.6747 -0.68474 2.928 0
M  V30 628 C 58.2227 -0.77659 3.03213 0
M  V30 629 C 58.6977 -0.904207 4.48986 0
M  V30 630 N 60.1887 -0.968896 4.52953 0
M  V30 631 C 60.9237 -1.08703 5.63002 0
M  V30 632 N 60.4197 -1.17026 6.82845 0
M  V30 633 N 62.2127 -1.12074 5.50814 0
M  V30 634 H 54.3637 0.607911 2.03515 0
M  V30 635 H 56.6267 0.21083 0.924259 0
M  V30 636 H 56.3327 0.194284 3.51163 0
M  V30 637 H 56.2067 -1.55435 3.43686 0
M  V30 638 H 58.5937 -1.64606 2.44926 0
M  V30 639 H 58.6747 0.118315 2.55526 0
M  V30 640 H 58.3187 -0.0392633 5.07885 0
M  V30 641 H 58.2487 -1.81426 4.9436 0
M  V30 642 H 60.7397 -0.915633 3.6664 0
M  V30 643 H 61.0527 -1.25966 7.62465 0
M  V30 644 H 59.3977 -1.13971 6.85591 0
M  V30 645 H 62.5887 -1.05226 4.5612 0
M  V30 646 H 62.7617 -1.20936 6.36615 0
M  V30 647 N 56.1678 -1.49265 -0.50573 0
M  V30 648 C 57.3958 -1.62215 -1.28429 0
M  V30 649 C 57.8108 -0.291697 -1.86533 0
M  V30 650 O 57.1678 0.722233 -1.67601 0
M  V30 651 C 57.2188 -2.68735 -2.41793 0
M  V30 652 O 56.9398 -3.96619 -1.86078 0
M  V30 653 C 58.4408 -2.92346 -3.3324 0
M  V30 654 H 55.6608 -0.546239 -0.389697 0
M  V30 655 H 58.2048 -1.95265 -0.607609 0
M  V30 656 H 56.3598 -2.38476 -3.053 0
M  V30 657 H 56.7738 -4.55256 -2.60465 0
M  V30 658 H 58.2478 -3.70623 -4.09075 0
M  V30 659 H 58.7248 -2.02081 -3.89948 0
M  V30 660 H 59.3308 -3.24003 -2.75503 0
M  V30 661 N 57.6459 0.756429 -1.3826 0
M  V30 662 C 58.8919 1.51772 -1.34511 0
M  V30 663 C 59.2249 1.94089 0.0656691 0
M  V30 664 O 58.4999 1.65221 1.02626 0
M  V30 665 C 58.7829 2.77226 -2.29821 0
M  V30 666 C 58.6359 2.41065 -3.79747 0
M  V30 667 C 59.9549 3.79236 -2.23312 0
M  V30 668 H 57.0739 0.550578 -0.489931 0
M  V30 669 H 59.7159 0.866607 -1.69086 0
M  V30 670 H 57.8659 3.32784 -2.00467 0
M  V30 671 H 59.5379 1.91303 -4.19763 0
M  V30 672 H 57.7809 1.7356 -3.97567 0
M  V30 673 H 58.4519 3.3081 -4.41892 0
M  V30 674 H 60.9279 3.3321 -2.49219 0
M  V30 675 H 59.8039 4.64714 -2.92116 0
M  V30 676 H 60.0649 4.24615 -1.23102 0
M  V30 677 N 59.124 1.23083 0.984299 0
M  V30 678 C 60.352 1.08714 1.76037 0
M  V30 679 C 60.767 -0.361691 1.85303 0
M  V30 680 O 60.124 -1.25034 1.32939 0
M  V30 681 C 60.175 1.70206 3.18923 0
M  V30 682 O 59.896 3.09423 3.10144 0
M  V30 683 C 61.397 1.61227 4.12941 0
M  V30 684 H 58.617 0.380664 0.552572 0
M  V30 685 H 61.161 1.62853 1.23689 0
M  V30 686 H 59.316 1.20109 3.6831 0
M  V30 687 H 59.73 3.39188 4.00065 0
M  V30 688 H 61.204 2.08962 5.10919 0
M  V30 689 H 61.681 0.570375 4.35481 0
M  V30 690 H 62.287 2.10671 3.69456 0
M  V30 691 N 60.6021 -1.18246 1.0419 0
M  V30 692 C 62.0131 -1.69914 0.773698 0
M  V30 693 C 62.3641 -1.83085 -0.705297 0
M  V30 694 O 61.4891 -1.51123 -1.5489 0
M  V30 695 C 62.0841 -3.08619 1.39784 0
M  V30 696 C 60.6431 -3.57494 1.17792 0
M  V30 697 C 59.7901 -2.34013 1.48773 0
M  V30 698 H 62.7411 -1.02904 1.20816 0
M  V30 699 H 62.7621 -3.71958 0.801714 0
M  V30 700 H 62.2741 -2.99001 2.47426 0
M  V30 701 H 60.3751 -3.72406 0.120295 0
M  V30 702 H 60.4881 -4.40852 1.87581 0
M  V30 703 H 58.8521 -2.37986 0.907463 0
M  V30 704 H 59.6351 -2.27013 2.57527 0
M  V30 705 N 62.0802 -0.821533 -1.34494 0
M  V30 706 C 63.0272 -0.240397 -2.29545 0
M  V30 707 C 63.9972 0.634031 -1.53523 0
M  V30 708 O 65.1822 0.575966 -1.81899 0
M  V30 709 C 62.3222 0.592869 -3.39969 0
M  V30 710 C 61.4352 -0.30365 -4.30932 0
M  V30 711 C 60.5702 0.539049 -5.28458 0
M  V30 712 C 59.6092 -0.356942 -6.11058 0
M  V30 713 N 58.7462 0.446603 -7.00678 0
M  V30 714 H 63.5862 -1.05632 -2.7865 0
M  V30 715 H 61.1232 -0.532413 -1.37127 0
M  V30 716 H 63.0812 1.09129 -4.02675 0
M  V30 717 H 61.7112 1.37392 -2.92102 0
M  V30 718 H 60.7632 -0.920276 -3.691 0
M  V30 719 H 62.0752 -0.992661 -4.88823 0
M  V30 720 H 61.2292 1.102 -5.96608 0
M  V30 721 H 59.9682 1.26157 -4.71101 0
M  V30 722 H 58.9732 -0.932047 -5.41842 0
M  V30 723 H 60.1982 -1.07755 -6.70497 0
M  V30 724 H 58.1442 1.15282 -6.45791 0
M  V30 725 H 58.0612 -0.184048 -7.55776 0
M  V30 726 H 59.3292 0.992352 -7.73158 0
M  V30 727 N 63.5583 1.46682 -0.576371 0
M  V30 728 C 64.5053 2.30241 0.160499 0
M  V30 729 C 65.4753 1.40233 0.890162 0
M  V30 730 O 66.6603 1.69186 0.882084 0
M  V30 731 C 63.8003 3.24578 1.1723 0
M  V30 732 C 62.9133 4.29684 0.446736 0
M  V30 733 C 62.0483 5.11154 1.44551 0
M  V30 734 C 61.0873 6.08015 0.70599 0
M  V30 735 N 60.2243 6.82376 1.65251 0
M  V30 736 H 65.0643 2.92727 -0.558127 0
M  V30 737 H 62.6013 1.44272 -0.287056 0
M  V30 738 H 64.5593 3.77711 1.77172 0
M  V30 739 H 63.1893 2.63916 1.85872 0
M  V30 740 H 62.2413 3.79458 -0.267594 0
M  V30 741 H 63.5533 4.98626 -0.131686 0
M  V30 742 H 62.7073 5.68533 2.11791 0
M  V30 743 H 61.4463 4.42158 2.05786 0
M  V30 744 H 60.4513 5.49796 0.0197725 0
M  V30 745 H 61.6763 6.79028 0.09912 0
M  V30 746 H 59.6223 6.16094 2.25308 0
M  V30 747 H 59.5393 7.47556 1.12673 0
M  V30 748 H 60.8073 7.44316 2.31546 0
M  V30 749 N 65.0364 0.313813 1.54444 0
M  V30 750 C 66.4474 -0.176243 1.85866 0
M  V30 751 C 66.7984 -1.52405 1.23561 0
M  V30 752 O 65.9234 -2.09605 0.538016 0
M  V30 753 C 66.5184 -0.32657 3.37222 0
M  V30 754 C 65.0774 -0.760846 3.6863 0
M  V30 755 C 64.2244 0.123247 2.77026 0
M  V30 756 H 67.1754 0.534418 1.49431 0
M  V30 757 H 67.1964 -1.15908 3.62416 0
M  V30 758 H 66.7084 0.654531 3.82541 0
M  V30 759 H 64.8094 -1.75204 3.28838 0
M  V30 760 H 64.9224 -0.571353 4.75681 0
M  V30 761 H 63.2864 -0.399597 2.51546 0
M  V30 762 H 64.0694 1.10094 3.25168 0
M  V30 763 N 66.5145 -1.57545 0.0417849 0
M  V30 764 C 67.4625 -2.12148 -0.953723 0
M  V30 765 C 68.4565 -1.05104 -1.32852 0
M  V30 766 O 69.6625 -1.23524 -1.30927 0
M  V30 767 H 66.0375 -0.677957 -0.325389 0
M  V30 768 H 68.0085 -2.94707 -0.467991 0
M  V30 769 C 66.7575 -2.6739 -2.22257 0
M  V30 770 H 66.0805 -3.49413 -1.94295 0
M  V30 771 H 67.5205 -3.09227 -2.90094 0
M  V30 772 C 65.9795 -1.60723 -2.96091 0
M  V30 773 O 66.5095 -1.01449 -3.88679 0
M  V30 774 N 64.7155 -1.32466 -2.58652 0
M  V30 775 H 64.2625 -1.80856 -1.83437 0
M  V30 776 H 64.2205 -0.61325 -3.08361 0
M  V30 777 N 67.9926 0.231505 -1.5589 0
M  V30 778 C 69.2176 0.978689 -1.82856 0
M  V30 779 C 69.6426 1.77559 -0.620846 0
M  V30 780 O 69.0006 1.76119 0.430305 0
M  V30 781 C 69.0486 1.87997 -3.07716 0
M  V30 782 O 68.1526 2.97393 -2.85712 0
M  V30 783 H 67.4936 0.277663 -0.603158 0
M  V30 784 H 70.0236 0.24783 -2.03093 0
M  V30 785 H 70.0336 2.2917 -3.37558 0
M  V30 786 H 68.7086 1.29417 -3.95252 0
M  V30 787 H 67.2856 2.60238 -2.67078 0
M  V30 788 N 69.4707 1.49531 0.497807 0
M  V30 789 C 70.4337 1.65916 1.58128 0
M  V30 790 C 71.4337 0.530825 1.51786 0
M  V30 791 O 72.6237 0.797342 1.54881 0
M  V30 792 C 69.7557 1.65951 2.9778 0
M  V30 793 H 70.9487 2.62556 1.44929 0
M  V30 794 H 68.5017 1.38611 0.722275 0
M  V30 795 H 69.2367 0.709065 3.16453 0
M  V30 796 H 69.0217 2.47897 3.03792 0
M  V30 797 H 70.5117 1.80673 3.76493 0
M  V30 798 N 70.9488 -0.749086 1.3866 0
M  V30 799 C 71.8788 -1.8764 1.38973 0
M  V30 800 C 72.8598 -1.68178 0.255004 0
M  V30 801 O 74.0448 -1.88704 0.458754 0
M  V30 802 C 71.1748 -3.25222 1.21851 0
M  V30 803 C 70.1288 -3.59295 2.32575 0
M  V30 804 C 69.4548 -4.95663 2.00555 0
M  V30 805 C 70.7548 -3.63709 3.7485 0
M  V30 806 H 72.4488 -1.87635 2.3331 0
M  V30 807 H 69.9948 -0.901329 1.12303 0
M  V30 808 H 71.9478 -4.03746 1.20695 0
M  V30 809 H 70.6718 -3.25719 0.239775 0
M  V30 810 H 69.3308 -2.83093 2.32925 0
M  V30 811 H 68.9788 -4.92724 1.01154 0
M  V30 812 H 68.6788 -5.19429 2.74714 0
M  V30 813 H 70.2028 -5.7656 2.01024 0
M  V30 814 H 71.6168 -4.32338 3.76506 0
M  V30 815 H 70.0138 -3.98986 4.48252 0
M  V30 816 H 71.0838 -2.63834 4.06841 0
M  V30 817 N 72.4269 -1.23603 -0.977757 0
M  V30 818 C 73.8429 -0.999251 -1.24447 0
M  V30 819 C 74.0429 0.298053 -1.99283 0
M  V30 820 O 73.0989 1.01681 -2.31122 0
M  V30 821 C 74.4119 -2.20784 -2.04144 0
M  V30 822 C 75.9599 -2.25303 -2.17273 0
M  V30 823 C 76.4349 -3.45755 -3.00362 0
M  V30 824 N 77.9259 -3.4601 -3.07947 0
M  V30 825 C 78.6609 -4.35868 -3.72568 0
M  V30 826 N 78.1569 -5.35966 -4.38991 0
M  V30 827 N 79.9499 -4.23605 -3.6948 0
M  V30 828 H 72.1009 -2.06986 -0.476483 0
M  V30 829 H 74.3639 -0.907801 -0.273134 0
M  V30 830 H 74.0699 -3.14945 -1.56533 0
M  V30 831 H 73.9439 -2.22085 -3.04891 0
M  V30 832 H 76.3309 -1.3168 -2.64092 0
M  V30 833 H 76.4119 -2.28033 -1.15907 0
M  V30 834 H 76.0559 -4.39687 -2.5424 0
M  V30 835 H 75.9859 -3.40266 -4.01904 0
M  V30 836 H 78.4769 -2.73588 -2.60688 0
M  V30 837 H 78.7899 -6.00783 -4.86086 0
M  V30 838 H 77.1349 -5.39863 -4.37691 0
M  V30 839 H 80.3259 -3.44647 -3.16759 0
M  V30 840 H 80.4989 -4.93836 -4.1956 0
M  V30 841 N 73.905 1.17692 -1.04816 0
M  V30 842 C 74.852 2.21581 -0.645797 0
M  V30 843 C 75.822 1.62367 0.350159 0
M  V30 844 O 77.007 1.89254 0.242433 0
M  V30 845 C 74.147 3.45092 -0.0227568 0
M  V30 846 C 73.26 4.18613 -1.06709 0
M  V30 847 C 72.395 5.29602 -0.411767 0
M  V30 848 C 71.434 5.94904 -1.44067 0
M  V30 849 N 70.571 6.97414 -0.809781 0
M  V30 850 H 75.411 2.55353 -1.5362 0
M  V30 851 H 72.948 1.25438 -0.768364 0
M  V30 852 H 74.906 4.15679 0.35588 0
M  V30 853 H 73.536 3.11917 0.831122 0
M  V30 854 H 72.588 3.46779 -1.5636 0
M  V30 855 H 73.9 4.63293 -1.84827 0
M  V30 856 H 73.054 6.06696 0.0206623 0
M  V30 857 H 71.793 4.86045 0.401438 0
M  V30 858 H 70.798 5.16544 -1.88316 0
M  V30 859 H 72.023 6.40542 -2.25571 0
M  V30 860 H 69.969 6.55998 -0.0170186 0
M  V30 861 H 69.886 7.40386 -1.52856 0
M  V30 862 H 71.154 7.78463 -0.401999 0
M  V30 863 N 75.3831 0.828654 1.34056 0
M  V30 864 C 76.6291 0.42008 1.98402 0
M  V30 865 C 76.9621 -1.01564 1.65525 0
M  V30 866 O 76.2371 -1.70834 0.929831 0
M  V30 867 C 76.5201 0.62927 3.54559 0
M  V30 868 C 76.3731 2.11152 3.97159 0
M  V30 869 C 77.6921 0.0688756 4.40046 0
M  V30 870 H 74.8111 0.154104 0.720709 0
M  V30 871 H 77.4531 1.04228 1.5886 0
M  V30 872 H 75.6031 0.0996418 3.88372 0
M  V30 873 H 77.2751 2.70522 3.73651 0
M  V30 874 H 75.5181 2.59985 3.47261 0
M  V30 875 H 76.1891 2.20868 5.05887 0
M  V30 876 H 78.6651 0.521458 4.1282 0
M  V30 877 H 77.5411 0.245006 5.48353 0
M  V30 878 H 77.8021 -1.0266 4.30015 0
M  V30 879 N 76.8612 -1.46375 0.584142 0
M  V30 880 C 77.8242 -2.28784 -0.138108 0
M  V30 881 C 78.8242 -1.38471 -0.817462 0
M  V30 882 O 80.0142 -1.60833 -0.669199 0
M  V30 883 C 77.1462 -3.18892 -1.20503 0
M  V30 884 H 78.3392 -2.94117 0.586127 0
M  V30 885 H 75.8922 -1.52509 0.342171 0
M  V30 886 H 76.6272 -2.58309 -1.96079 0
M  V30 887 H 76.4122 -3.85388 -0.722384 0
M  V30 888 H 77.9022 -3.80914 -1.71155 0
M  V30 889 N 78.3393 -0.321999 -1.54275 0
M  V30 890 C 79.2863 0.544664 -2.24281 0
M  V30 891 C 80.2563 1.1129 -1.23303 0
M  V30 892 O 81.4413 1.15354 -1.51981 0
M  V30 893 C 78.5813 1.70045 -3.00298 0
M  V30 894 C 77.6943 1.16159 -4.1609 0
M  V30 895 C 76.8293 2.28293 -4.79641 0
M  V30 896 C 75.8683 1.71648 -5.8754 0
M  V30 897 N 75.0053 2.77438 -6.44959 0
M  V30 898 H 79.8453 -0.0588907 -2.97942 0
M  V30 899 H 77.3823 -0.0408345 -1.47043 0
M  V30 900 H 79.3403 2.38054 -3.42616 0
M  V30 901 H 77.9703 2.27531 -2.28975 0
M  V30 902 H 77.0223 0.373092 -3.78566 0
M  V30 903 H 78.3343 0.707087 -4.93763 0
M  V30 904 H 77.4883 3.0421 -5.2492 0
M  V30 905 H 76.2273 2.77079 -4.01346 0
M  V30 906 H 75.2323 0.942282 -5.41665 0
M  V30 907 H 76.4573 1.23741 -6.67731 0
M  V30 908 H 74.4033 3.25519 -5.69538 0
M  V30 909 H 74.3203 2.36547 -7.1804 0
M  V30 910 H 75.5883 3.53189 -6.94894 0
M  V30 911 N 79.8174 1.5752 -0.0501392 0
M  V30 912 C 81.0634 1.92936 0.624798 0
M  V30 913 C 81.3964 0.928685 1.70555 0
M  V30 914 O 80.6714 -0.0454779 1.94447 0
M  V30 915 C 80.9544 3.38737 1.22185 0
M  V30 916 C 80.8074 4.49552 0.149218 0
M  V30 917 C 82.1264 3.84913 2.13378 0
M  V30 918 H 79.2454 0.701604 0.225657 0
M  V30 919 H 81.8874 1.89671 -0.111693 0
M  V30 920 H 80.0374 3.4165 1.84953 0
M  V30 921 H 81.7094 4.58768 -0.482648 0
M  V30 922 H 79.9524 4.30638 -0.522841 0
M  V30 923 H 80.6234 5.48653 0.606966 0
M  V30 924 H 83.0994 3.8387 1.60572 0
M  V30 925 H 81.9754 4.87584 2.52097 0
M  V30 926 H 82.2364 3.21611 3.03346 0
M  V30 927 N 81.2955 -0.223234 1.56011 0
M  V30 928 C 82.7115 -0.572856 1.48965 0
M  V30 929 C 82.9115 -1.87225 0.74492 0
M  V30 930 O 81.9675 -2.50899 0.283896 0
M  V30 931 C 83.2805 -0.653646 2.9351 0
M  V30 932 C 84.8285 -0.744386 3.0402 0
M  V30 933 C 85.3035 -0.856535 4.49919 0
M  V30 934 N 86.7945 -0.9208 4.53955 0
M  V30 935 C 87.5295 -1.02726 5.64123 0
M  V30 936 N 87.0255 -1.09777 6.84047 0
M  V30 937 N 88.8185 -1.06226 5.51971 0
M  V30 938 H 80.9695 0.629462 2.02858 0
M  V30 939 H 83.2325 0.220621 0.921971 0
M  V30 940 H 82.9385 0.231518 3.50937 0
M  V30 941 H 82.8125 -1.51781 3.45315 0
M  V30 942 H 85.1995 -1.61999 2.46658 0
M  V30 943 H 85.2805 0.14541 2.55386 0
M  V30 944 H 84.9245 0.0146069 5.07898 0
M  V30 945 H 84.8545 -1.76172 4.96257 0
M  V30 946 H 87.3455 -0.876694 3.6759 0
M  V30 947 H 87.6585 -1.17872 7.63758 0
M  V30 948 H 86.0035 -1.06693 6.86762 0
M  V30 949 H 89.1945 -1.00382 4.5721 0
M  V30 950 H 89.3675 -1.14177 6.37862 0
M  V30 951 N 82.7736 -1.49793 -0.48987 0
M  V30 952 C 83.7036 -1.70201 -1.59856 0
M  V30 953 C 84.6846 -0.55076 -1.60937 0
M  V30 954 O 85.8696 -0.787841 -1.77501 0
M  V30 955 C 82.9996 -1.77882 -2.98287 0
M  V30 956 C 81.9536 -2.92907 -3.12073 0
M  V30 957 C 81.2796 -2.85712 -4.51965 0
M  V30 958 C 82.5796 -4.3369 -2.91051 0
M  V30 959 H 84.2736 -2.63025 -1.43032 0
M  V30 960 H 81.8196 -1.26574 -0.686664 0
M  V30 961 H 83.7726 -1.90744 -3.75759 0
M  V30 962 H 82.4966 -0.816653 -3.16225 0
M  V30 963 H 81.1556 -2.79665 -2.37029 0
M  V30 964 H 80.8036 -1.8738 -4.66795 0
M  V30 965 H 80.5036 -3.62921 -4.62128 0
M  V30 966 H 82.0276 -3.00598 -5.31482 0
M  V30 967 H 83.4416 -4.47555 -3.58284 0
M  V30 968 H 81.8386 -5.12205 -3.12675 0
M  V30 969 H 82.9086 -4.47362 -1.87071 0
M  V30 970 N 84.2517 0.741722 -1.39055 0
M  V30 971 C 85.4797 1.53098 -1.39171 0
M  V30 972 C 85.8947 1.88794 0.0155099 0
M  V30 973 O 85.2517 1.53626 0.985159 0
M  V30 974 C 85.3027 2.82274 -2.2584 0
M  V30 975 O 85.0237 2.48097 -3.61081 0
M  V30 976 C 86.5247 3.76343 -2.34266 0
M  V30 977 H 83.7447 0.473335 -0.4756 0
M  V30 978 H 86.2887 0.917045 -1.82785 0
M  V30 979 H 84.4437 3.40015 -1.85656 0
M  V30 980 H 84.8577 3.31029 -4.06842 0
M  V30 981 H 86.3317 4.63898 -2.9917 0
M  V30 982 H 86.8087 4.17619 -1.35982 0
M  V30 983 H 87.4147 3.24523 -2.74891 0
M  V30 984 N 85.7298 1.2412 0.971189 0
M  V30 985 C 86.9548 1.10667 1.75407 0
M  V30 986 C 87.3798 -0.337048 1.85056 0
M  V30 987 O 86.7378 -1.24396 1.31892 0
M  V30 988 C 86.7858 1.74726 3.15441 0
M  V30 989 O 85.8898 1.01566 3.99697 0
M  V30 990 H 85.2308 0.387341 0.539317 0
M  V30 991 H 87.7608 1.64358 1.2185 0
M  V30 992 H 87.7708 1.80341 3.6598 0
M  V30 993 H 86.4458 2.79773 3.07734 0
M  V30 994 H 85.0228 1.03713 3.58187 0
M  V30 995 N 87.2079 -1.17134 1.05439 0
M  V30 996 C 88.4559 -1.87085 0.764429 0
M  V30 997 C 88.7769 -1.81584 -0.710787 0
M  V30 998 O 88.0469 -1.24349 -1.51374 0
M  V30 999 H 86.6269 -0.692627 0.279779 0
M  V30 1000 H 89.2889 -1.42087 1.33406 0
M  V30 1001 H 88.3849 -2.92759 1.0816 0
M  V30 1002 N 88.686 -0.835752 -1.33615 0
M  V30 1003 C 89.916 -0.442701 -2.01801 0
M  V30 1004 C 90.324 0.959807 -1.63047 0
M  V30 1005 O 89.667 1.63468 -0.838088 0
M  V30 1006 C 89.729 -0.480125 -3.56279 0
M  V30 1007 C 89.393 -1.8382 -4.18401 0
M  V30 1008 C 90.39 -2.80097 -4.37998 0
M  V30 1009 C 88.075 -2.13019 -4.54894 0
M  V30 1010 C 90.069 -4.03736 -4.9323 0
M  V30 1011 C 87.756 -3.36916 -5.09834 0
M  V30 1012 C 88.754 -4.32091 -5.28948 0
M  V30 1013 O 88.442 -5.53797 -5.82721 0
M  V30 1014 H 88.174 -0.17441 -0.653114 0
M  V30 1015 H 90.728 -1.129 -1.71589 0
M  V30 1016 H 88.958 0.262931 -3.85805 0
M  V30 1017 H 90.647 -0.105335 -4.05763 0
M  V30 1018 H 91.413 -2.58838 -4.10156 0
M  V30 1019 H 87.292 -1.39733 -4.39313 0
M  V30 1020 H 90.836 -4.78034 -5.08064 0
M  V30 1021 H 86.733 -3.58033 -5.37106 0
M  V30 1022 H 87.501 -5.55494 -6.0114 0
M  V30 1023 N 90.1641 1.46063 -0.591896 0
M  V30 1024 C 91.0741 2.34192 0.13831 0
M  V30 1025 C 92.0901 1.50305 0.876608 0
M  V30 1026 O 93.2661 1.8315 0.837728 0
M  V30 1027 C 90.3311 3.27656 1.13326 0
M  V30 1028 C 89.3921 4.27445 0.39863 0
M  V30 1029 C 88.6251 5.16443 1.34618 0
M  V30 1030 O 88.8481 5.08553 2.58321 0
M  V30 1031 O 87.7821 5.95843 0.851768 0
M  V30 1032 H 91.6081 2.98002 -0.58552 0
M  V30 1033 H 89.1931 1.45188 -0.352239 0
M  V30 1034 H 91.0751 3.85291 1.70671 0
M  V30 1035 H 89.7501 2.6643 1.83839 0
M  V30 1036 H 88.6571 3.73471 -0.216895 0
M  V30 1037 H 89.9901 4.91482 -0.265709 0
M  V30 1038 N 91.6422 0.330177 1.54103 0
M  V30 1039 C 92.8882 -0.270806 2.00984 0
M  V30 1040 C 93.2212 -1.51265 1.21789 0
M  V30 1041 O 92.4962 -1.92142 0.301927 0
M  V30 1042 C 92.7792 -0.598339 3.55094 0
M  V30 1043 C 92.6322 0.654674 4.4501 0
M  V30 1044 C 93.9512 -1.41334 4.16789 0
M  V30 1045 H 91.0702 -0.0969531 0.730595 0
M  V30 1046 H 93.7122 0.448066 1.84641 0
M  V30 1047 H 91.8622 -1.21078 3.69151 0
M  V30 1048 H 93.5342 1.29285 4.42813 0
M  V30 1049 H 91.7772 1.28224 4.14416 0
M  V30 1050 H 92.4482 0.380944 5.50684 0
M  V30 1051 H 94.9242 -0.895597 4.06347 0
M  V30 1052 H 93.8002 -1.61127 5.24718 0
M  V30 1053 H 94.0612 -2.41146 3.70541 0
M  V30 1054 N 93.1203 -1.57491 0.0584922 0
M  V30 1055 C 94.3483 -1.97296 -0.623037 0
M  V30 1056 C 94.7633 -0.936338 -1.63946 0
M  V30 1057 O 94.1203 0.0785981 -1.82331 0
M  V30 1058 C 94.1713 -3.37183 -1.30345 0
M  V30 1059 O 93.8923 -4.36872 -0.32773 0
M  V30 1060 C 95.3933 -3.91788 -2.07406 0
M  V30 1061 H 92.6133 -0.649153 -0.169826 0
M  V30 1062 H 95.1573 -2.04106 0.12696 0
M  V30 1063 H 93.3123 -3.31502 -2.00463 0
M  V30 1064 H 93.7263 -5.18141 -0.814269 0
M  V30 1065 H 95.2003 -4.91926 -2.50425 0
M  V30 1066 H 95.6773 -3.27609 -2.92521 0
M  V30 1067 H 96.2833 -4.00829 -1.42184 0
M  V30 1068 N 94.5984 0.214957 -1.56127 0
M  V30 1069 C 95.5614 1.24997 -1.92116 0
M  V30 1070 C 96.5614 1.39467 -0.800344 0
M  V30 1071 O 97.7514 1.37619 -1.06802 0
M  V30 1072 C 94.8834 2.62271 -2.17777 0
M  V30 1073 H 96.0764 0.942875 -2.84693 0
M  V30 1074 H 93.6294 0.455654 -1.49511 0
M  V30 1075 H 94.3644 2.98068 -1.27773 0
M  V30 1076 H 94.1494 2.53143 -2.99434 0
M  V30 1077 H 95.6394 3.36946 -2.46693 0
M  V30 1078 N 96.0765 1.50051 0.48192 0
M  V30 1079 C 97.3065 1.63999 1.2565 0
M  V30 1080 C 97.7145 0.318288 1.86504 0
M  V30 1081 O 97.0575 -0.708534 1.69486 0
M  V30 1082 C 97.1195 2.66504 2.4128 0
M  V30 1083 C 96.7835 4.10352 2.01148 0
M  V30 1084 C 97.7805 4.96562 1.54021 0
M  V30 1085 C 95.4655 4.56203 2.10199 0
M  V30 1086 C 97.4595 6.26668 1.16473 0
M  V30 1087 C 95.1465 5.86318 1.72264 0
M  V30 1088 C 96.1445 6.71375 1.25477 0
M  V30 1089 O 95.8325 7.99062 0.880626 0
M  V30 1090 H 95.5645 0.55456 0.386574 0
M  V30 1091 H 98.1185 1.96954 0.582944 0
M  V30 1092 H 96.3485 2.28769 3.11772 0
M  V30 1093 H 98.0375 2.69783 3.03268 0
M  V30 1094 H 98.8035 4.62358 1.46458 0
M  V30 1095 H 94.6825 3.90152 2.45566 0
M  V30 1096 H 98.2265 6.93011 0.798841 0
M  V30 1097 H 94.1235 6.20046 1.79482 0
M  V30 1098 H 94.8915 8.12239 1.01043 0
M  V30 1099 N 97.5546 -0.734337 1.39446 0
M  V30 1100 C 98.8036 -1.48937 1.36017 0
M  V30 1101 C 99.1166 -1.95557 -0.0409005 0
M  V30 1102 O 100.323 -2.70779 -0.19778 0
M  V30 1103 C 98.7786 -2.69125 2.38955 0
M  V30 1104 C 98.3866 -2.29452 3.8478 0
M  V30 1105 C 100.131 -3.46944 2.44603 0
M  V30 1106 C 98.0376 -3.46366 4.79358 0
M  V30 1107 H 96.9676 -0.559296 0.505672 0
M  V30 1108 H 99.6186 -0.800983 1.65095 0
M  V30 1109 H 98.0006 -3.40041 2.02948 0
M  V30 1110 H 99.1746 -1.66077 4.29831 0
M  V30 1111 H 97.4896 -1.64723 3.82433 0
M  V30 1112 H 100.087 -4.33907 3.12456 0
M  V30 1113 H 100.43 -3.89454 1.47076 0
M  V30 1114 H 100.963 -2.83056 2.79507 0
M  V30 1115 H 97.7016 -3.08905 5.78151 0
M  V30 1116 H 97.2216 -4.08719 4.38986 0
M  V30 1117 H 98.9006 -4.12691 4.98292 0
M  V30 1118 N 99.0327 -1.24633 -0.964593 0
M  V30 1119 C 100.444 -1.08045 -1.5226 0
M  V30 1120 C 100.795 0.347116 -1.93105 0
M  V30 1121 O 99.9197 1.23588 -1.77637 0
M  V30 1122 C 100.515 -1.95514 -2.76695 0
M  V30 1123 C 99.0737 -1.8314 -3.28841 0
M  V30 1124 C 98.2207 -1.90262 -2.01732 0
M  V30 1125 H 101.172 -1.38064 -0.782553 0
M  V30 1126 H 101.193 -1.48925 -3.50145 0
M  V30 1127 H 100.705 -2.99407 -2.46936 0
M  V30 1128 H 98.8057 -0.82092 -3.63444 0
M  V30 1129 H 98.9187 -2.67406 -3.97531 0
M  V30 1130 H 97.2827 -1.34027 -2.16584 0
M  V30 1131 H 98.0657 -2.9574 -1.74334 0
M  V30 1132 N 100.511 1.16574 -1.06058 0
M  V30 1133 C 101.759 1.86677 -0.77434 0
M  V30 1134 C 102.08 1.81959 0.701147 0
M  V30 1135 O 101.35 1.2515 1.50713 0
M  V30 1136 H 99.9298 0.691134 -0.283449 0
M  V30 1137 H 102.592 1.41378 -1.34158 0
M  V30 1138 H 101.688 2.92181 -1.09711 0
M  V30 1139 N 101.989 0.842826 1.3317 0
M  V30 1140 C 102.899 0.281444 2.32906 0
M  V30 1141 C 103.915 -0.594587 1.63526 0
M  V30 1142 O 105.091 -0.49777 1.95152 0
M  V30 1143 C 102.156 -0.530929 3.42611 0
M  V30 1144 C 101.217 0.369843 4.27704 0
M  V30 1145 C 100.45 -0.403853 5.3217 0
M  V30 1146 O 100.673 -1.63513 5.46461 0
M  V30 1147 O 99.6069 0.224199 6.01482 0
M  V30 1148 H 103.433 1.10744 2.82789 0
M  V30 1149 H 101.018 0.60545 1.36582 0
M  V30 1150 H 102.9 -0.992437 4.09547 0
M  V30 1151 H 101.575 -1.33392 2.94938 0
M  V30 1152 H 100.482 0.879275 3.6362 0
M  V30 1153 H 101.815 1.13771 4.78871 0
M  V30 1154 N 103.467 -1.45747 0.599634 0
M  V30 1155 C 104.715 -2.01893 0.0915472 0
M  V30 1156 C 105.036 -1.47155 -1.27946 0
M  V30 1157 O 104.306 -0.66273 -1.84349 0
M  V30 1158 H 102.886 -0.746363 0.0308524 0
M  V30 1159 H 105.548 -1.78645 0.779237 0
M  V30 1160 H 104.644 -3.1208 0.0353086 0
M  V30 1161 N 104.945 -0.338344 -1.53925 0
M  V30 1162 C 105.895 0.536712 -2.21593 0
M  V30 1163 C 106.879 1.07015 -1.20153 0
M  V30 1164 O 108.071 1.00471 -1.45721 0
M  V30 1165 C 105.2 1.68977 -2.98834 0
M  V30 1166 C 104.286 1.17052 -4.07627 0
M  V30 1167 N 104.677 0.372085 -5.0443 0
M  V30 1168 C 102.975 1.44789 -4.21844 0
M  V30 1169 C 103.676 0.0909171 -5.81629 0
M  V30 1170 N 102.652 0.681131 -5.39316 0
M  V30 1171 H 106.454 -0.0804298 -2.9379 0
M  V30 1172 H 103.968 -0.144943 -1.61752 0
M  V30 1173 H 105.965 2.32857 -3.45808 0
M  V30 1174 H 104.625 2.31024 -2.28162 0
M  V30 1175 H 105.636 0.0136217 -5.17898 0
M  V30 1176 H 102.313 2.07313 -3.62391 0
M  V30 1177 H 103.703 -0.552817 -6.69622 0
M  V30 1178 N 106.423 1.57458 -0.0668435 0
M  V30 1179 C 107.371 2.13639 0.919851 0
M  V30 1180 C 108.365 1.07204 1.31163 0
M  V30 1181 O 109.571 1.25591 1.28945 0
M  V30 1182 H 105.946 0.683048 0.314562 0
M  V30 1183 H 107.917 2.95415 0.421047 0
M  V30 1184 C 106.666 2.70892 2.17975 0
M  V30 1185 H 105.989 3.5246 1.88711 0
M  V30 1186 H 107.429 3.13803 2.85138 0
M  V30 1187 C 105.888 1.65414 2.93496 0
M  V30 1188 O 106.418 1.07619 3.87015 0
M  V30 1189 N 104.624 1.36564 2.56512 0
M  V30 1190 H 104.171 1.83751 1.80536 0
M  V30 1191 H 104.129 0.66223 3.07347 0
M  V30 1192 N 107.901 -0.206675 1.56239 0
M  V30 1193 C 108.831 -1.25909 1.96645 0
M  V30 1194 C 109.812 -1.48097 0.836734 0
M  V30 1195 O 110.997 -1.6003 1.10019 0
M  V30 1196 C 108.127 -2.6058 2.29599 0
M  V30 1197 C 107.081 -2.53024 3.452 0
M  V30 1198 C 106.407 -3.91861 3.63798 0
M  V30 1199 C 107.707 -2.06524 4.79734 0
M  V30 1200 H 109.401 -0.923369 2.84806 0
M  V30 1201 H 106.947 -0.442735 1.37025 0
M  V30 1202 H 108.9 -3.34375 2.56459 0
M  V30 1203 H 107.624 -2.95869 1.38307 0
M  V30 1204 H 106.283 -1.81684 3.18412 0
M  V30 1205 H 105.931 -4.24483 2.69857 0
M  V30 1206 H 105.631 -3.87683 4.4156 0
M  V30 1207 H 107.155 -4.67296 3.93022 0
M  V30 1208 H 108.569 -2.70072 5.05702 0
M  V30 1209 H 106.966 -2.13374 5.60885 0
M  V30 1210 H 108.036 -1.01802 4.74093 0
M  V30 1211 N 109.379 -1.50304 -0.473955 0
M  V30 1212 C 110.311 -1.65109 -1.58971 0
M  V30 1213 C 111.324 -0.532676 -1.53839 0
M  V30 1214 O 112.513 -0.805751 -1.59279 0
M  V30 1215 C 109.613 -1.61684 -2.97845 0
M  V30 1216 C 108.786 -2.8951 -3.27876 0
M  V30 1217 C 107.845 -2.78768 -4.4629 0
M  V30 1218 O 106.871 -3.52722 -4.46739 0
M  V30 1219 N 108.073 -1.9213 -5.47783 0
M  V30 1220 H 110.838 -2.61347 -1.46689 0
M  V30 1221 H 108.399 -1.47732 -0.662324 0
M  V30 1222 H 110.391 -1.52114 -3.75024 0
M  V30 1223 H 108.961 -0.731925 -3.03911 0
M  V30 1224 H 108.181 -3.13228 -2.39336 0
M  V30 1225 H 109.469 -3.74199 -3.4475 0
M  V30 1226 H 108.867 -1.31353 -5.50239 0
M  V30 1227 H 107.424 -1.88466 -6.23958 0
M  V30 1228 N 110.857 0.726932 -1.39834 0
M  V30 1229 C 111.767 1.87131 -1.41489 0
M  V30 1230 C 112.783 1.71239 -0.308757 0
M  V30 1231 O 113.959 1.93701 -0.551529 0
M  V30 1232 C 111.024 3.22811 -1.26468 0
M  V30 1233 C 110.085 3.51039 -2.47124 0
M  V30 1234 C 109.318 4.80245 -2.3281 0
M  V30 1235 O 109.541 5.54537 -1.33585 0
M  V30 1236 O 108.475 5.08554 -3.21957 0
M  V30 1237 H 112.301 1.8869 -2.3797 0
M  V30 1238 H 109.886 0.875837 -1.21035 0
M  V30 1239 H 111.768 4.03877 -1.20255 0
M  V30 1240 H 110.443 3.22005 -0.330862 0
M  V30 1241 H 109.35 2.70027 -2.58914 0
M  V30 1242 H 110.683 3.56632 -3.39227 0
M  V30 1243 N 112.336 1.25143 0.95797 0
M  V30 1244 C 113.286 1.01924 2.0395 0
M  V30 1245 C 114.27 -0.0427175 1.60843 0
M  V30 1246 O 115.462 0.17221 1.7616 0
M  V30 1247 C 112.591 0.636373 3.3735 0
M  V30 1248 C 111.677 1.73492 3.8699 0
M  V30 1249 N 112.068 2.96945 4.0946 0
M  V30 1250 C 110.366 1.61467 4.15746 0
M  V30 1251 C 111.067 3.68228 4.50315 0
M  V30 1252 N 110.043 2.95833 4.56053 0
M  V30 1253 H 113.845 1.95653 2.19311 0
M  V30 1254 H 111.359 1.15413 1.14253 0
M  V30 1255 H 113.356 0.451233 4.14451 0
M  V30 1256 H 112.016 -0.293621 3.2337 0
M  V30 1257 H 113.027 3.33025 3.96629 0
M  V30 1258 H 109.704 0.753394 4.10646 0
M  V30 1259 H 111.094 4.74178 4.76031 0
M  V30 1260 N 113.814 -1.1601 1.06675 0
M  V30 1261 C 115.039 -1.91068 0.806706 0
M  V30 1262 C 115.464 -1.77112 -0.633485 0
M  V30 1263 O 114.822 -1.09908 -1.44187 0
M  V30 1264 C 114.87 -3.39655 1.21106 0
M  V30 1265 O 113.974 -4.10893 0.352189 0
M  V30 1266 H 113.315 -0.595125 0.294486 0
M  V30 1267 H 115.845 -1.46955 1.42356 0
M  V30 1268 H 115.855 -3.90434 1.18428 0
M  V30 1269 H 114.53 -3.49132 2.26008 0
M  V30 1270 H 113.107 -3.70285 0.440868 0
M  V30 1271 N 115.292 -0.849877 -1.32721 0
M  V30 1272 C 116.538 -0.451591 -1.97708 0
M  V30 1273 C 116.871 0.989175 -1.6712 0
M  V30 1274 O 116.146 1.69334 -0.956891 0
M  V30 1275 C 116.429 -0.685598 -3.53513 0
M  V30 1276 C 116.282 -2.17444 -3.93749 0
M  V30 1277 C 117.601 -0.138874 -4.39881 0
M  V30 1278 H 114.72 -0.16555 -0.718166 0
M  V30 1279 H 117.362 -1.06742 -1.57182 0
M  V30 1280 H 115.512 -0.161416 -3.88165 0
M  V30 1281 H 117.184 -2.76433 -3.693 0
M  V30 1282 H 115.427 -2.65476 -3.43081 0
M  V30 1283 H 116.098 -2.28888 -5.02309 0
M  V30 1284 H 118.574 -0.587068 -4.11938 0
M  V30 1285 H 117.45 -0.332213 -5.47894 0
M  V30 1286 H 117.711 0.95806 -4.31594 0
M  V30 1287 N 116.77 1.45427 -0.607355 0
M  V30 1288 C 118.016 2.0254 -0.102607 0
M  V30 1289 C 118.349 1.47478 1.26348 0
M  V30 1290 O 117.624 0.64939 1.83339 0
M  V30 1291 C 117.907 3.60044 -0.0634347 0
M  V30 1292 C 117.76 4.2544 -1.46017 0
M  V30 1293 C 119.079 4.35646 0.624514 0
M  V30 1294 H 116.198 0.73598 -0.0387607 0
M  V30 1295 H 118.84 1.73284 -0.779282 0
M  V30 1296 H 116.99 3.85101 0.512808 0
M  V30 1297 H 118.662 4.11569 -2.08347 0
M  V30 1298 H 116.905 3.83849 -2.02094 0
M  V30 1299 H 117.576 5.34342 -1.385 0
M  V30 1300 H 120.052 4.15882 0.134723 0
M  V30 1301 H 118.928 5.45376 0.621028 0
M  V30 1302 H 119.189 4.08501 1.69055 0
M  V30 1303 N 118.248 0.346503 1.53744 0
M  V30 1304 C 119.178 -0.501193 2.28058 0
M  V30 1305 C 120.159 -1.10014 1.29734 0
M  V30 1306 O 121.344 -1.12097 1.58581 0
M  V30 1307 C 118.474 -1.65078 3.05559 0
M  V30 1308 C 117.428 -1.18003 4.11411 0
M  V30 1309 C 116.754 -2.41837 4.76884 0
M  V30 1310 C 118.054 -0.278394 5.21558 0
M  V30 1311 H 119.748 0.11875 2.99164 0
M  V30 1312 H 117.294 0.0585531 1.43881 0
M  V30 1313 H 119.247 -2.25028 3.56287 0
M  V30 1314 H 117.971 -2.29767 2.32109 0
M  V30 1315 H 116.63 -0.603331 3.61601 0
M  V30 1316 H 116.278 -3.0494 4.00026 0
M  V30 1317 H 115.978 -2.1102 5.48402 0
M  V30 1318 H 117.502 -3.02508 5.30397 0
M  V30 1319 H 118.916 -0.784823 5.67903 0
M  V30 1320 H 117.313 -0.0619707 6.00068 0
M  V30 1321 H 118.383 0.684677 4.80042 0
M  V30 1322 N 119.726 -1.57421 0.075193 0
M  V30 1323 C 120.975 -1.92794 -0.592731 0
M  V30 1324 C 121.288 -0.957478 -1.70563 0
M  V30 1325 O 122.494 -1.20417 -2.43335 0
M  V30 1326 C 120.95 -3.42495 -1.10569 0
M  V30 1327 C 120.558 -4.47994 -0.0236121 0
M  V30 1328 C 122.302 -3.86864 -1.74748 0
M  V30 1329 C 120.209 -5.88829 -0.550803 0
M  V30 1330 H 119.139 -0.719591 -0.225177 0
M  V30 1331 H 121.79 -1.82902 0.147978 0
M  V30 1332 H 120.172 -3.47471 -1.89947 0
M  V30 1333 H 121.346 -4.54637 0.751099 0
M  V30 1334 H 119.661 -4.13113 0.522159 0
M  V30 1335 H 122.258 -4.8947 -2.15229 0
M  V30 1336 H 122.601 -3.24417 -2.60882 0
M  V30 1337 H 123.134 -3.84504 -1.01986 0
M  V30 1338 H 119.873 -6.54929 0.273457 0
M  V30 1339 H 119.393 -5.85698 -1.29296 0
M  V30 1340 H 121.072 -6.38811 -1.02613 0
M  V30 1341 N 121.204 0.198386 -1.56346 0
M  V30 1342 C 122.62 0.549085 -1.49857 0
M  V30 1343 C 122.82 1.86016 -0.774611 0
M  V30 1344 O 121.876 2.50416 -0.323776 0
M  V30 1345 C 123.189 0.606868 -2.94512 0
M  V30 1346 C 124.737 0.695925 -3.05165 0
M  V30 1347 C 125.212 0.784848 -4.51225 0
M  V30 1348 N 126.703 0.848463 -4.55363 0
M  V30 1349 C 127.438 0.937378 -5.65686 0
M  V30 1350 N 126.934 0.9888 -6.85707 0
M  V30 1351 N 128.727 0.974312 -5.53592 0
M  V30 1352 H 120.878 -0.661655 -2.01831 0
M  V30 1353 H 123.141 -0.235261 -0.918344 0
M  V30 1354 H 122.847 -0.28732 -3.50524 0
M  V30 1355 H 122.721 1.46268 -3.47686 0
M  V30 1356 H 125.108 1.58055 -2.49204 0
M  V30 1357 H 125.189 -0.186022 -2.55123 0
M  V30 1358 H 124.833 -0.0954072 -5.0781 0
M  V30 1359 H 124.763 1.68255 -4.98997 0
M  V30 1360 H 127.254 0.818103 -3.68938 0
M  V30 1361 H 127.567 1.05707 -7.65536 0
M  V30 1362 H 125.912 0.957534 -6.88372 0
M  V30 1363 H 129.103 0.930954 -4.58749 0
M  V30 1364 H 129.276 1.04015 -6.39597 0
M  V30 1365 N 122.682 1.50554 0.465978 0
M  V30 1366 C 123.93 1.61479 1.21528 0
M  V30 1367 C 124.251 0.319596 1.92363 0
M  V30 1368 O 123.521 -0.663194 1.84333 0
M  V30 1369 H 122.101 0.595055 0.451573 0
M  V30 1370 H 124.763 1.87355 0.53704 0
M  V30 1371 H 123.859 2.42846 1.96042 0
M  V30 1372 N 124.16 -0.719506 1.40217 0
M  V30 1373 C 125.408 -1.47641 1.3801 0
M  V30 1374 C 125.729 -1.94992 -0.018145 0
M  V30 1375 O 124.999 -1.70073 -0.972207 0
M  V30 1376 H 123.579 -0.547744 0.507923 0
M  V30 1377 H 126.241 -0.853187 1.75233 0
M  V30 1378 H 125.337 -2.35112 2.05253 0
M  V30 1379 N 125.638 -1.25649 -0.95132 0
M  V30 1380 C 127.054 -1.02542 -1.223 0
M  V30 1381 C 127.254 0.255715 -1.99871 0
M  V30 1382 O 126.31 0.967558 -2.33226 0
M  V30 1383 C 127.623 -2.25065 -1.99415 0
M  V30 1384 C 129.171 -2.29861 -2.12446 0
M  V30 1385 C 129.646 -3.52048 -2.92961 0
M  V30 1386 N 131.137 -3.52465 -3.00538 0
M  V30 1387 C 131.872 -4.43672 -3.63239 0
M  V30 1388 N 131.368 -5.45157 -4.27523 0
M  V30 1389 N 133.161 -4.31346 -3.60412 0
M  V30 1390 H 125.312 -2.07951 -0.432471 0
M  V30 1391 H 127.575 -0.91339 -0.253816 0
M  V30 1392 H 127.281 -3.18194 -1.49817 0
M  V30 1393 H 127.155 -2.28502 -3.00111 0
M  V30 1394 H 129.542 -1.37252 -2.61239 0
M  V30 1395 H 129.623 -2.3044 -1.11044 0
M  V30 1396 H 129.267 -4.44981 -2.44856 0
M  V30 1397 H 129.197 -3.48715 -3.94596 0
M  V30 1398 H 131.688 -2.79056 -2.54826 0
M  V30 1399 H 132.001 -6.10958 -4.73234 0
M  V30 1400 H 130.346 -5.49025 -4.26141 0
M  V30 1401 H 133.537 -3.51288 -3.09377 0
M  V30 1402 H 133.71 -5.02624 -4.0899 0
M  V30 1403 N 127.117 1.15442 -1.07289 0
M  V30 1404 C 128.363 1.86489 -0.796846 0
M  V30 1405 C 128.696 1.82078 0.675371 0
M  V30 1406 O 127.971 1.24346 1.4956 0
M  V30 1407 C 128.254 3.35626 -1.30489 0
M  V30 1408 C 128.107 3.48673 -2.84161 0
M  V30 1409 C 129.426 4.30357 -0.920907 0
M  V30 1410 H 126.545 0.677144 -0.290939 0
M  V30 1411 H 129.187 1.35633 -1.33056 0
M  V30 1412 H 127.337 3.79068 -0.850883 0
M  V30 1413 H 129.009 3.14099 -3.37846 0
M  V30 1414 H 127.252 2.90253 -3.22391 0
M  V30 1415 H 127.923 4.53453 -3.14777 0
M  V30 1416 H 130.399 3.94871 -1.3121 0
M  V30 1417 H 129.275 5.33193 -1.30372 0
M  V30 1418 H 129.536 4.4176 0.173226 0
M  V30 1419 N 128.595 0.856903 1.32268 0
M  V30 1420 C 129.542 0.301172 2.28827 0
M  V30 1421 C 130.512 -0.593104 1.5515 0
M  V30 1422 O 131.697 -0.527537 1.83362 0
M  V30 1423 C 128.837 -0.502523 3.41422 0
M  V30 1424 C 127.95 0.417797 4.29975 0
M  V30 1425 C 127.085 -0.398749 5.29701 0
M  V30 1426 C 126.124 0.518827 6.09897 0
M  V30 1427 N 125.261 -0.260674 7.01616 0
M  V30 1428 H 130.101 1.12983 2.75751 0
M  V30 1429 H 127.638 0.568582 1.35667 0
M  V30 1430 H 129.596 -0.984141 4.05426 0
M  V30 1431 H 128.226 -1.29599 2.95642 0
M  V30 1432 H 127.278 1.01781 3.66531 0
M  V30 1433 H 128.59 1.12191 4.86019 0
M  V30 1434 H 127.744 -0.943435 5.9932 0
M  V30 1435 H 126.483 -1.13622 4.7428 0
M  V30 1436 H 125.488 1.07538 5.39181 0
M  V30 1437 H 126.713 1.25495 6.67404 0
M  V30 1438 H 124.659 -0.981198 6.4862 0
M  V30 1439 H 124.576 0.384364 7.55022 0
M  V30 1440 H 125.844 -0.787014 7.75517 0
M  V30 1441 N 130.073 -1.45103 0.615059 0
M  V30 1442 C 131.35 -1.95549 0.0448276 0
M  V30 1443 C 131.73 -1.55737 -1.4251 0
M  V30 1444 O 131.078 -0.823556 -2.13143 0
M  V30 1445 C 131.288 -3.48098 0.250785 0
M  V30 1446 C 132.636 -4.24384 0.135509 0
M  V30 1447 O 133.66 -3.55738 0.181299 0
M  V30 1448 O 132.519 -5.46493 0.0268878 0
M  V30 1449 H 129.613 -0.8264 -0.0314845 0
M  V30 1450 H 132.159 -1.55232 0.685642 0
M  V30 1451 H 130.931 -3.7007 1.27139 0
M  V30 1452 H 130.554 -3.95323 -0.424937 0
M  V30 1453 N 131.551 -0.354651 -1.53558 0
M  V30 1454 C 132.481 0.489091 -2.2832 0
M  V30 1455 C 133.462 1.09324 -1.30316 0
M  V30 1456 O 134.647 1.11255 -1.59173 0
M  V30 1457 C 131.777 1.63456 -3.0643 0
M  V30 1458 C 130.731 1.1582 -4.12031 0
M  V30 1459 C 130.057 2.39305 -4.7816 0
M  V30 1460 C 131.357 0.250731 -5.21698 0
M  V30 1461 H 133.051 -0.134614 -2.99097 0
M  V30 1462 H 130.597 -0.0661826 -1.43848 0
M  V30 1463 H 132.55 2.23136 -3.57475 0
M  V30 1464 H 131.274 2.28533 -2.33325 0
M  V30 1465 H 129.933 0.584146 -3.61916 0
M  V30 1466 H 129.581 3.02814 -4.01637 0
M  V30 1467 H 129.281 2.08109 -5.49513 0
M  V30 1468 H 130.805 2.99691 -5.31994 0
M  V30 1469 H 132.219 0.754695 -5.68311 0
M  V30 1470 H 130.616 0.0301468 -6.00092 0
M  V30 1471 H 131.686 -0.710125 -4.79672 0
M  V30 1472 N 133.029 1.57378 -0.0835403 0
M  V30 1473 C 134.44 1.81261 0.447358 0
M  V30 1474 C 134.791 0.998331 1.68902 0
M  V30 1475 O 133.916 0.224282 2.15235 0
M  V30 1476 C 134.511 3.28767 0.818386 0
M  V30 1477 C 133.07 3.53455 1.29409 0
M  V30 1478 C 132.217 2.75831 0.285024 0
M  V30 1479 H 135.168 1.5566 -0.309115 0
M  V30 1480 H 135.189 3.41459 1.67887 0
M  V30 1481 H 134.701 3.88006 -0.0855019 0
M  V30 1482 H 132.802 2.99534 2.21608 0
M  V30 1483 H 132.915 4.62128 1.2639 0
M  V30 1484 H 131.279 2.42947 0.764767 0
M  V30 1485 H 132.062 3.37813 -0.611341 0
M  V30 1486 N 134.507 -0.190092 1.56449 0
M  V30 1487 C 135.755 -0.907908 1.80559 0
M  V30 1488 C 136.076 -1.83583 0.657438 0
M  V30 1489 O 135.346 -1.93203 -0.323924 0
M  V30 1490 H 133.926 -0.338247 0.666032 0
M  V30 1491 H 136.588 -0.194403 1.93928 0
M  V30 1492 H 135.684 -1.49604 2.73907 0
M  V30 1493 N 135.985 -1.50799 -0.457987 0
M  V30 1494 C 137.231 -1.62683 -1.21088 0
M  V30 1495 C 137.564 -0.332268 -1.91336 0
M  V30 1496 O 136.839 0.667043 -1.82704 0
M  V30 1497 C 137.122 -2.81615 -2.24422 0
M  V30 1498 C 136.975 -4.20989 -1.58392 0
M  V30 1499 C 138.294 -2.96085 -3.2561 0
M  V30 1500 H 135.413 -0.592087 -0.438864 0
M  V30 1501 H 138.055 -1.83225 -0.50286 0
M  V30 1502 H 136.205 -2.64231 -2.84806 0
M  V30 1503 H 137.877 -4.49994 -1.01504 0
M  V30 1504 H 136.12 -4.24641 -0.886704 0
M  V30 1505 H 136.791 -5.0016 -2.33547 0
M  V30 1506 H 139.267 -3.12042 -2.75262 0
M  V30 1507 H 138.143 -3.80902 -3.95228 0
M  V30 1508 H 138.404 -2.0726 -3.90507 0
M  V30 1509 N 137.463 0.71206 -1.40597 0
M  V30 1510 C 138.879 1.02058 -1.22704 0
M  V30 1511 C 139.079 2.01228 -0.104729 0
M  V30 1512 O 138.135 2.4674 0.53624 0
M  V30 1513 C 139.448 1.56094 -2.57012 0
M  V30 1514 C 140.996 1.6806 -2.64054 0
M  V30 1515 C 141.471 2.25501 -3.9864 0
M  V30 1516 N 142.962 2.32882 -4.004 0
M  V30 1517 C 143.697 2.78317 -5.01325 0
M  V30 1518 N 143.193 3.23478 -6.12645 0
M  V30 1519 N 144.986 2.77733 -4.88693 0
M  V30 1520 H 137.137 0.0547896 -2.12329 0
M  V30 1521 H 139.4 0.0869027 -0.944008 0
M  V30 1522 H 139.106 0.906865 -3.39807 0
M  V30 1523 H 138.98 2.54564 -2.78347 0
M  V30 1524 H 141.367 2.32583 -1.81629 0
M  V30 1525 H 141.448 0.681802 -2.46546 0
M  V30 1526 H 141.092 1.61598 -4.81506 0
M  V30 1527 H 141.022 3.26102 -4.13479 0
M  V30 1528 H 143.513 2.00991 -3.20017 0
M  V30 1529 H 143.826 3.56725 -6.85542 0
M  V30 1530 H 142.171 3.21429 -6.16205 0
M  V30 1531 H 145.362 2.4179 -4.00818 0
M  V30 1532 H 145.535 3.12826 -5.67489 0
M  V30 1533 N 138.941 1.26152 0.944643 0
M  V30 1534 C 140.171 1.14094 1.72239 0
M  V30 1535 C 140.579 -0.306931 1.86694 0
M  V30 1536 O 139.922 -1.22222 1.3714 0
M  V30 1537 C 139.984 1.73316 3.14963 0
M  V30 1538 C 139.648 3.2239 3.23904 0
M  V30 1539 C 140.645 4.19252 3.07447 0
M  V30 1540 C 138.33 3.62788 3.47405 0
M  V30 1541 C 140.324 5.54491 3.14353 0
M  V30 1542 C 138.011 4.98162 3.53947 0
M  V30 1543 C 139.009 5.93823 3.37436 0
M  V30 1544 O 138.697 7.26732 3.43679 0
M  V30 1545 H 138.429 0.398292 0.546205 0
M  V30 1546 H 140.983 1.67201 1.19301 0
M  V30 1547 H 139.213 1.14667 3.69308 0
M  V30 1548 H 140.902 1.56214 3.74636 0
M  V30 1549 H 141.668 3.8938 2.8915 0
M  V30 1550 H 137.547 2.88816 3.59313 0
M  V30 1551 H 141.091 6.29137 3.01384 0
M  V30 1552 H 136.988 5.27695 3.71763 0
M  V30 1553 H 137.756 7.3496 3.60245 0
M  V30 1554 N 140.419 -1.14872 1.07899 0
M  V30 1555 C 141.369 -2.17809 0.674027 0
M  V30 1556 C 142.353 -1.58008 -0.303699 0
M  V30 1557 O 143.545 -1.76616 -0.11654 0
M  V30 1558 C 140.674 -3.43208 0.0793318 0
M  V30 1559 C 139.76 -4.10051 1.08253 0
M  V30 1560 N 140.151 -4.52296 2.2641 0
M  V30 1561 C 138.449 -4.36469 0.917124 0
M  V30 1562 C 139.15 -5.04199 2.901 0
M  V30 1563 N 138.126 -4.98088 2.17736 0
M  V30 1564 H 141.928 -2.48207 1.57386 0
M  V30 1565 H 139.442 -1.315 0.952976 0
M  V30 1566 H 141.439 -4.16272 -0.228719 0
M  V30 1567 H 140.099 -3.14291 -0.815551 0
M  V30 1568 H 141.11 -4.45504 2.64096 0
M  V30 1569 H 137.787 -4.17432 0.0756078 0
M  V30 1570 H 139.177 -5.46802 3.90458 0
M  V30 1571 N 141.898 -0.863906 -1.31812 0
M  V30 1572 C 143.147 -0.46801 -1.96195 0
M  V30 1573 C 143.46 0.983474 -1.69077 0
M  V30 1574 O 144.666 1.48523 -2.27273 0
M  V30 1575 C 143.122 -0.785995 -3.51212 0
M  V30 1576 C 142.73 -2.25383 -3.87178 0
M  V30 1577 C 144.474 -0.458274 -4.22019 0
M  V30 1578 C 142.381 -2.51455 -5.3528 0
M  V30 1579 H 141.311 -0.171283 -0.734287 0
M  V30 1580 H 143.962 -1.05597 -1.50072 0
M  V30 1581 H 142.344 -0.127359 -3.95795 0
M  V30 1582 H 143.518 -2.95502 -3.53575 0
M  V30 1583 H 141.833 -2.54698 -3.2942 0
M  V30 1584 H 144.43 -0.630369 -5.30971 0
M  V30 1585 H 144.773 0.600834 -4.11941 0
M  V30 1586 H 145.306 -1.07319 -3.8305 0
M  V30 1587 H 142.045 -3.56025 -5.50387 0
M  V30 1588 H 141.565 -1.85923 -5.70257 0
M  V30 1589 H 143.244 -2.35874 -6.02472 0
M  V30 1590 N 143.376 1.44774 -0.622745 0
M  V30 1591 C 144.622 2.0242 -0.124083 0
M  V30 1592 C 144.955 1.4881 1.24777 0
M  V30 1593 O 144.23 0.668799 1.8264 0
M  V30 1594 C 144.513 3.59957 -0.101619 0
M  V30 1595 C 144.366 4.23867 -1.50521 0
M  V30 1596 C 145.685 4.36284 0.578272 0
M  V30 1597 H 142.804 0.735528 -0.0465645 0
M  V30 1598 H 145.446 1.72447 -0.797617 0
M  V30 1599 H 143.596 3.85623 0.471934 0
M  V30 1600 H 145.268 4.09336 -2.12701 0
M  V30 1601 H 143.511 3.81684 -2.06154 0
M  V30 1602 H 144.182 5.32843 -1.4416 0
M  V30 1603 H 146.658 4.16001 0.0906057 0
M  V30 1604 H 145.534 5.46004 0.563149 0
M  V30 1605 H 145.795 4.10271 1.64713 0
M  V30 1606 N 144.854 0.36279 1.53368 0
M  V30 1607 C 146.27 0.0116182 1.59596 0
M  V30 1608 C 146.47 -1.47012 1.37803 0
M  V30 1609 O 145.526 -2.23136 1.18181 0
M  V30 1610 C 146.839 0.465052 2.97082 0
M  V30 1611 C 148.387 0.419033 3.10182 0
M  V30 1612 C 148.862 0.848235 4.50077 0
M  V30 1613 N 150.353 0.803183 4.56183 0
M  V30 1614 C 151.088 1.107 5.62613 0
M  V30 1615 N 150.584 1.47996 6.76808 0
M  V30 1616 N 152.377 1.02998 5.52583 0
M  V30 1617 H 144.528 1.32775 1.65785 0
M  V30 1618 H 146.791 0.542518 0.777417 0
M  V30 1619 H 146.497 1.49892 3.18159 0
M  V30 1620 H 146.371 -0.149786 3.76902 0
M  V30 1621 H 148.758 -0.605696 2.88817 0
M  V30 1622 H 148.839 1.06933 2.32377 0
M  V30 1623 H 148.483 1.87107 4.7218 0
M  V30 1624 H 148.413 0.175218 5.26308 0
M  V30 1625 H 150.904 0.52838 3.74188 0
M  V30 1626 H 151.217 1.69613 7.53957 0
M  V30 1627 H 149.562 1.51859 6.78206 0
M  V30 1628 H 152.753 0.737817 4.62249 0
M  V30 1629 H 152.926 1.2701 6.35431 0
M  V30 1630 N 146.332 -1.57332 0.0918853 0
M  V30 1631 C 147.58 -1.93853 -0.571446 0
M  V30 1632 C 147.901 -0.974212 -1.6892 0
M  V30 1633 O 147.171 -0.0257254 -1.95883 0
M  V30 1634 H 145.751 -0.715666 -0.214082 0
M  V30 1635 H 148.413 -1.94287 0.154464 0
M  V30 1636 H 147.509 -2.96191 -0.983729 0
M  V30 1637 N 147.81 0.181792 -1.56548 0
M  V30 1638 C 149.056 0.901431 -1.81665 0
M  V30 1639 C 149.389 1.82347 -0.668075 0
M  V30 1640 O 148.664 1.91669 0.330615 0
M  V30 1641 C 148.947 1.70618 -3.17115 0
M  V30 1642 C 148.8 0.807964 -4.42484 0
M  V30 1643 C 150.119 2.67605 -3.49393 0
M  V30 1644 H 147.238 0.32627 -0.660846 0
M  V30 1645 H 149.88 0.168134 -1.89255 0
M  V30 1646 H 148.03 2.33133 -3.10775 0
M  V30 1647 H 149.702 0.19649 -4.60881 0
M  V30 1648 H 147.945 0.115411 -4.33646 0
M  V30 1649 H 148.616 1.40632 -5.33785 0
M  V30 1650 H 151.092 2.15218 -3.56118 0
M  V30 1651 H 149.968 3.20985 -4.45264 0
M  V30 1652 H 150.229 3.47298 -2.73563 0
M  V30 1653 N 149.288 1.51039 0.449983 0
M  V30 1654 C 150.518 1.66627 1.22143 0
M  V30 1655 C 150.926 0.357776 1.85786 0
M  V30 1656 O 150.269 -0.672424 1.70951 0
M  V30 1657 C 150.331 2.71562 2.35573 0
M  V30 1658 C 149.995 4.14526 1.92399 0
M  V30 1659 C 150.992 4.99717 1.43453 0
M  V30 1660 C 148.677 4.60559 2.00475 0
M  V30 1661 C 150.671 6.28998 1.03155 0
M  V30 1662 C 148.358 5.8984 1.59788 0
M  V30 1663 C 149.356 6.73886 1.11208 0
M  V30 1664 O 149.044 8.0075 0.710935 0
M  V30 1665 H 148.776 0.562635 0.374724 0
M  V30 1666 H 151.33 1.98146 0.541036 0
M  V30 1667 H 149.56 2.3533 3.06849 0
M  V30 1668 H 151.249 2.76156 2.97478 0
M  V30 1669 H 152.015 4.65361 1.36618 0
M  V30 1670 H 147.894 3.95273 2.37235 0
M  V30 1671 H 151.438 6.9455 0.651663 0
M  V30 1672 H 147.335 6.23713 1.66289 0
M  V30 1673 H 148.103 8.142 0.837913 0
M  V30 1674 N 150.766 -0.704594 1.40972 0
M  V30 1675 C 152.043 -1.45847 1.30338 0
M  V30 1676 C 152.423 -2.10973 -0.0732344 0
M  V30 1677 O 151.771 -2.00997 -1.08685 0
M  V30 1678 C 151.981 -2.48525 2.45023 0
M  V30 1679 C 153.329 -3.1404 2.8577 0
M  V30 1680 O 154.353 -2.58848 2.44696 0
M  V30 1681 O 153.212 -4.13981 3.56766 0
M  V30 1682 H 150.306 -0.649092 0.512454 0
M  V30 1683 H 152.852 -0.735836 1.52917 0
M  V30 1684 H 151.624 -1.98994 3.36923 0
M  V30 1685 H 151.247 -3.2831 2.24272 0
M  V30 1686 N 152.244 -1.26651 -0.937939 0
M  V30 1687 C 153.207 -1.08546 -2.01867 0
M  V30 1688 C 154.207 -0.0327327 -1.60767 0
M  V30 1689 O 155.397 -0.276427 -1.71993 0
M  V30 1690 C 152.529 -0.651711 -3.34613 0
M  V30 1691 H 153.722 -2.04502 -2.1936 0
M  V30 1692 H 151.275 -1.09294 -1.11734 0
M  V30 1693 H 152.01 0.309696 -3.22818 0
M  V30 1694 H 151.795 -1.41189 -3.65798 0
M  V30 1695 H 153.285 -0.546973 -4.14002 0
M  V30 1696 N 153.722 1.14298 -1.08507 0
M  V30 1697 C 154.685 2.17607 -0.719711 0
M  V30 1698 C 155.685 1.58907 0.245997 0
M  V30 1699 O 156.875 1.74181 0.0254081 0
M  V30 1700 C 154.007 3.40842 -0.0627695 0
M  V30 1701 H 155.2 2.51443 -1.63452 0
M  V30 1702 H 152.753 1.28963 -0.88307 0
M  V30 1703 H 153.488 3.12587 0.863716 0
M  V30 1704 H 153.273 3.84713 -0.757504 0
M  V30 1705 H 154.763 4.17221 0.177786 0
M  V30 1706 N 155.201 0.870884 1.31352 0
M  V30 1707 C 156.449 0.48132 1.96285 0
M  V30 1708 C 156.77 -0.969813 1.69173 0
M  V30 1709 O 156.04 -1.67998 1.00764 0
M  V30 1710 H 154.62 0.175002 0.726212 0
M  V30 1711 H 157.282 1.11087 1.60143 0
M  V30 1712 H 156.378 0.639825 3.05471 0
M  V30 1713 N 156.679 -1.44442 0.630414 0
M  V30 1714 C 157.925 -2.02351 0.134816 0
M  V30 1715 C 158.258 -1.4947 -1.23986 0
M  V30 1716 O 157.533 -0.678475 -1.82283 0
M  V30 1717 C 157.816 -3.59898 0.120707 0
M  V30 1718 C 157.669 -4.23063 1.52767 0
M  V30 1719 C 158.988 -4.36585 -0.555127 0
M  V30 1720 H 156.107 -0.73527 0.0504646 0
M  V30 1721 H 158.749 -1.72022 0.806751 0
M  V30 1722 H 156.899 -3.85868 -0.451477 0
M  V30 1723 H 158.571 -4.08202 2.14869 0
M  V30 1724 H 156.814 -3.80586 2.08175 0
M  V30 1725 H 157.485 -5.32071 1.46984 0
M  V30 1726 H 159.961 -4.16044 -0.0685429 0
M  V30 1727 H 158.837 -5.46294 -0.534185 0
M  V30 1728 H 159.098 -4.11138 -1.62535 0
M  V30 1729 N 158.157 -0.370918 -1.53173 0
M  V30 1730 C 159.104 0.473035 -2.259 0
M  V30 1731 C 160.074 1.07311 -1.26781 0
M  V30 1732 O 161.259 1.1046 -1.55574 0
M  V30 1733 C 158.399 1.60405 -3.05556 0
M  V30 1734 C 157.512 1.02863 -4.19575 0
M  V30 1735 C 156.647 2.12918 -4.86661 0
M  V30 1736 C 155.686 1.52869 -5.92704 0
M  V30 1737 N 154.823 2.56779 -6.53459 0
M  V30 1738 H 159.663 -0.153649 -2.97604 0
M  V30 1739 H 157.2 -0.0875946 -1.46839 0
M  V30 1740 H 159.158 2.27034 -3.50016 0
M  V30 1741 H 157.788 2.20131 -2.36097 0
M  V30 1742 H 156.84 0.252465 -3.79561 0
M  V30 1743 H 158.152 0.549642 -4.95762 0
M  V30 1744 H 157.306 2.87356 -5.34333 0
M  V30 1745 H 156.045 2.6417 -4.09958 0
M  V30 1746 H 155.05 0.769479 -5.44389 0
M  V30 1747 H 156.275 1.02435 -6.7133 0
M  V30 1748 H 154.221 3.07235 -5.79606 0
M  V30 1749 H 154.138 2.13583 -7.25202 0
M  V30 1750 H 155.406 3.30903 -7.05779 0
M  V30 1751 N 159.635 1.57281 -0.100228 0
M  V30 1752 C 160.912 1.86014 0.604812 0
M  V30 1753 C 161.292 0.998025 1.86018 0
M  V30 1754 O 160.64 0.0718184 2.28387 0
M  V30 1755 C 160.85 3.36784 0.915278 0
M  V30 1756 C 162.198 4.04957 1.27651 0
M  V30 1757 O 163.222 3.41695 1.00613 0
M  V30 1758 O 162.081 5.16593 1.7831 0
M  V30 1759 H 159.175 0.76942 0.303185 0
M  V30 1760 H 161.721 1.69176 -0.133313 0
M  V30 1761 H 160.493 3.91292 0.0248896 0
M  V30 1762 H 160.116 3.58987 1.70921 0
M  V30 1763 N 161.113 -0.173488 1.56642 0
M  V30 1764 C 162.529 -0.525174 1.50712 0
M  V30 1765 C 162.729 -1.8476 0.804107 0
M  V30 1766 O 161.785 -2.49869 0.363574 0
M  V30 1767 C 163.098 -0.559937 2.95441 0
M  V30 1768 C 164.646 -0.647288 3.06234 0
M  V30 1769 C 165.121 -0.712963 4.52417 0
M  V30 1770 N 166.612 -0.775911 4.56655 0
M  V30 1771 C 167.347 -0.847264 5.67106 0
M  V30 1772 N 166.843 -0.879585 6.87194 0
M  V30 1773 N 168.636 -0.886117 5.55071 0
M  V30 1774 H 160.787 0.693681 2.00753 0
M  V30 1775 H 163.05 0.249841 0.914485 0
M  V30 1776 H 162.756 0.343049 3.50023 0
M  V30 1777 H 162.63 -1.40718 3.49969 0
M  V30 1778 H 165.017 -1.5407 2.51687 0
M  V30 1779 H 165.098 0.226586 2.54794 0
M  V30 1780 H 164.742 0.176183 5.07594 0
M  V30 1781 H 164.672 -1.60295 5.0161 0
M  V30 1782 H 167.163 -0.759304 3.70193 0
M  V30 1783 H 167.476 -0.935144 7.67121 0
M  V30 1784 H 165.821 -0.847898 6.89808 0
M  V30 1785 H 169.012 -0.857853 4.60172 0
M  V30 1786 H 169.185 -0.938263 6.41171 0
M  V30 1787 N 162.591 -1.51276 -0.441967 0
M  V30 1788 C 163.538 -1.72256 -1.53612 0
M  V30 1789 C 164.508 -0.564164 -1.56225 0
M  V30 1790 O 165.693 -0.798074 -1.73307 0
M  V30 1791 C 162.833 -1.84932 -2.91366 0
M  V30 1792 C 161.946 -3.12459 -2.98317 0
M  V30 1793 C 161.081 -3.15758 -4.27166 0
M  V30 1794 C 160.12 -4.37619 -4.27967 0
M  V30 1795 N 159.257 -4.38493 -5.48333 0
M  V30 1796 H 164.097 -2.65654 -1.35026 0
M  V30 1797 H 161.634 -1.31662 -0.656009 0
M  V30 1798 H 163.592 -1.90263 -3.7129 0
M  V30 1799 H 162.222 -0.949461 -3.08521 0
M  V30 1800 H 161.274 -3.1646 -2.11086 0
M  V30 1801 H 162.586 -4.02382 -2.94771 0
M  V30 1802 H 161.74 -3.19979 -5.15459 0
M  V30 1803 H 160.479 -2.23715 -4.33362 0
M  V30 1804 H 159.484 -4.33579 -3.38067 0
M  V30 1805 H 160.709 -5.30921 -4.23438 0
M  V30 1806 H 158.655 -3.49318 -5.55259 0
M  V30 1807 H 158.572 -5.22219 -5.46647 0
M  V30 1808 H 159.84 -4.469 -6.38671 0
M  V30 1809 N 164.069 0.697108 -1.41344 0
M  V30 1810 C 165.016 1.81106 -1.43071 0
M  V30 1811 C 165.986 1.63632 -0.285275 0
M  V30 1812 O 167.171 1.84504 -0.486091 0
M  V30 1813 C 164.311 3.18975 -1.31715 0
M  V30 1814 C 163.424 3.47892 -2.56115 0
M  V30 1815 C 162.559 4.75367 -2.37064 0
M  V30 1816 C 161.598 4.97247 -3.56948 0
M  V30 1817 N 160.735 6.15947 -3.36977 0
M  V30 1818 H 165.575 1.78965 -2.38276 0
M  V30 1819 H 163.112 0.873975 -1.18322 0
M  V30 1820 H 165.07 3.98615 -1.23133 0
M  V30 1821 H 163.7 3.20297 -0.401183 0
M  V30 1822 H 162.752 2.62669 -2.75153 0
M  V30 1823 H 164.064 3.59962 -3.45295 0
M  V30 1824 H 163.218 5.63059 -2.25941 0
M  V30 1825 H 161.957 4.65541 -1.45338 0
M  V30 1826 H 160.962 4.08004 -3.68527 0
M  V30 1827 H 162.187 5.08934 -4.49626 0
M  V30 1828 H 160.133 6.07336 -2.47949 0
M  V30 1829 H 160.05 6.28777 -4.19732 0
M  V30 1830 H 161.318 7.06377 -3.29623 0
M  V30 1831 N 165.547 1.27147 0.931209 0
M  V30 1832 C 166.772 1.16191 1.71797 0
M  V30 1833 C 167.197 -0.278004 1.86034 0
M  V30 1834 O 166.555 -1.20137 1.35782 0
M  V30 1835 C 166.603 1.84673 3.09723 0
M  V30 1836 O 165.707 1.14231 3.96264 0
M  V30 1837 H 165.048 0.404303 0.526721 0
M  V30 1838 H 167.578 1.68152 1.1656 0
M  V30 1839 H 167.588 1.91893 3.60057 0
M  V30 1840 H 166.263 2.89421 2.98677 0
M  V30 1841 H 164.84 1.15056 3.54706 0
M  V30 1842 N 167.025 -1.13721 1.09112 0
M  V30 1843 C 168.441 -1.36914 0.820174 0
M  V30 1844 C 168.641 -1.93356 -0.567079 0
M  V30 1845 O 167.697 -2.15093 -1.32255 0
M  V30 1846 C 169.01 -2.3235 1.90877 0
M  V30 1847 C 170.558 -2.45973 1.93562 0
M  V30 1848 C 171.033 -3.44714 3.01556 0
M  V30 1849 N 172.524 -3.52263 3.00775 0
M  V30 1850 C 173.259 -4.28536 3.80978 0
M  V30 1851 N 172.755 -5.07991 4.71081 0
M  V30 1852 N 174.548 -4.23804 3.69251 0
M  V30 1853 H 166.699 -0.754348 1.98553 0
M  V30 1854 H 168.962 -0.3944 0.862063 0
M  V30 1855 H 168.668 -1.98027 2.90651 0
M  V30 1856 H 168.542 -3.32332 1.78424 0
M  V30 1857 H 170.929 -2.79584 0.944286 0
M  V30 1858 H 171.01 -1.45926 2.10093 0
M  V30 1859 H 170.654 -3.11835 4.00901 0
M  V30 1860 H 170.584 -4.44558 2.82269 0
M  V30 1861 H 173.075 -2.95567 2.35475 0
M  V30 1862 H 173.388 -5.63487 5.28869 0
M  V30 1863 H 171.733 -5.07235 4.75119 0
M  V30 1864 H 174.924 -3.60806 2.98222 0
M  V30 1865 H 175.097 -4.82995 4.31995 0
M  V30 1866 N 168.503 -0.877838 -1.30888 0
M  V30 1867 C 169.728 -0.506629 -2.01117 0
M  V30 1868 C 170.153 0.895564 -1.65412 0
M  V30 1869 O 169.511 1.5923 -0.866922 0
M  V30 1870 C 169.559 -0.680223 -3.54126 0
M  V30 1871 O 168.663 0.277033 -4.11468 0
M  V30 1872 H 168.004 -0.200518 -0.633 0
M  V30 1873 H 170.534 -1.18342 -1.66902 0
M  V30 1874 H 170.544 -0.5765 -4.03907 0
M  V30 1875 H 169.219 -1.70261 -3.79452 0
M  V30 1876 H 167.796 0.127606 -3.72682 0
M  V30 1877 N 169.982 1.44106 -0.638065 0
M  V30 1878 C 170.929 2.30715 0.062701 0
M  V30 1879 C 171.899 1.43882 0.829883 0
M  V30 1880 O 173.084 1.72775 0.809532 0
M  V30 1881 C 170.224 3.29258 1.03358 0
M  V30 1882 C 169.337 4.31192 0.26409 0
M  V30 1883 C 168.472 5.16825 1.22741 0
M  V30 1884 C 167.511 6.10462 0.447475 0
M  V30 1885 N 166.648 6.8877 1.36161 0
M  V30 1886 H 171.488 2.90096 -0.681781 0
M  V30 1887 H 169.025 1.42925 -0.347988 0
M  V30 1888 H 170.983 3.84886 1.60992 0
M  V30 1889 H 169.613 2.71562 1.74511 0
M  V30 1890 H 168.665 3.77981 -0.428295 0
M  V30 1891 H 169.977 4.97619 -0.343052 0
M  V30 1892 H 169.131 5.77004 1.87487 0
M  V30 1893 H 167.87 4.50488 1.86847 0
M  V30 1894 H 166.875 5.49386 -0.213433 0
M  V30 1895 H 168.1 6.78837 -0.188968 0
M  V30 1896 H 166.046 6.25096 1.98975 0
M  V30 1897 H 165.963 7.51663 0.808656 0
M  V30 1898 H 167.231 7.53467 1.99769 0
M  V30 1899 N 171.46 0.379036 1.52974 0
M  V30 1900 C 172.69 -0.20649 2.05566 0
M  V30 1901 C 173.098 -1.41906 1.25137 0
M  V30 1902 O 172.441 -1.81421 0.288464 0
M  V30 1903 C 172.503 -0.651086 3.53555 0
M  V30 1904 C 172.167 0.446626 4.54812 0
M  V30 1905 C 173.164 1.30079 5.03364 0
M  V30 1906 C 170.849 0.610719 4.98573 0
M  V30 1907 C 172.843 2.30426 5.94292 0
M  V30 1908 C 170.53 1.61754 5.89304 0
M  V30 1909 C 171.528 2.46274 6.37054 0
M  V30 1910 O 171.216 3.45237 7.25994 0
M  V30 1911 H 170.948 -0.0372381 0.674974 0
M  V30 1912 H 173.502 0.539718 1.98182 0
M  V30 1913 H 171.732 -1.44911 3.58522 0
M  V30 1914 H 173.421 -1.16112 3.88938 0
M  V30 1915 H 174.187 1.18527 4.70294 0
M  V30 1916 H 170.066 -0.0374044 4.60985 0
M  V30 1917 H 173.61 2.96432 6.31485 0
M  V30 1918 H 169.507 1.73348 6.21788 0
M  V30 1919 H 170.275 3.41124 7.44027 0
M  V30 1920 N 172.938 -1.57226 0.108567 0
M  V30 1921 C 174.186 -1.94448 -0.550853 0
M  V30 1922 C 174.507 -0.992074 -1.67878 0
M  V30 1923 O 173.777 -0.0465 -1.95845 0
M  V30 1924 H 172.357 -0.717897 -0.206479 0
M  V30 1925 H 175.019 -1.94112 0.175062 0
M  V30 1926 H 174.115 -2.97218 -0.952259 0
M  V30 1927 N 174.416 0.165178 -1.56732 0
M  V30 1928 C 175.644 0.896218 -1.86482 0
M  V30 1929 C 176.059 1.75555 -0.694675 0
M  V30 1930 O 175.416 1.79379 0.33607 0
M  V30 1931 C 175.467 1.76792 -3.1532 0
M  V30 1932 O 175.188 0.943239 -4.27825 0
M  V30 1933 C 176.689 2.6081 -3.58459 0
M  V30 1934 H 173.909 0.260064 -0.618553 0
M  V30 1935 H 176.453 0.163428 -2.03846 0
M  V30 1936 H 174.608 2.45398 -2.99764 0
M  V30 1937 H 175.022 1.53998 -5.01383 0
M  V30 1938 H 176.496 3.17579 -4.51495 0
M  V30 1939 H 176.973 3.35977 -2.82872 0
M  V30 1940 H 177.579 1.97526 -3.76648 0
M  V30 1941 N 175.894 1.51508 0.433938 0
M  V30 1942 C 176.841 1.73068 1.52696 0
M  V30 1943 C 177.811 0.572441 1.55924 0
M  V30 1944 O 178.996 0.807253 1.72882 0
M  V30 1945 C 176.136 1.86474 2.90381 0
M  V30 1946 C 175.249 3.14037 2.96656 0
M  V30 1947 C 174.384 3.18019 4.25485 0
M  V30 1948 C 173.423 4.39882 4.2564 0
M  V30 1949 N 172.56 4.41394 5.45999 0
M  V30 1950 H 177.4 2.66366 1.33615 0
M  V30 1951 H 174.937 1.32008 0.649018 0
M  V30 1952 H 176.895 1.92229 3.70275 0
M  V30 1953 H 175.525 0.965809 3.08013 0
M  V30 1954 H 174.577 3.17575 2.09404 0
M  V30 1955 H 175.889 4.0394 2.92633 0
M  V30 1956 H 175.043 3.22708 5.13755 0
M  V30 1957 H 173.782 2.2601 4.3217 0
M  V30 1958 H 172.787 4.35366 3.35763 0
M  V30 1959 H 174.012 5.33159 4.20617 0
M  V30 1960 H 171.958 3.52258 5.53399 0
M  V30 1961 H 171.875 5.25111 5.4387 0
M  V30 1962 H 173.143 4.50281 6.36292 0
M  V30 1963 N 177.372 -0.689602 1.41712 0
M  V30 1964 C 178.319 -1.80345 1.44029 0
M  V30 1965 C 179.289 -1.63478 0.293948 0
M  V30 1966 O 180.474 -1.84244 0.495869 0
M  V30 1967 C 177.614 -3.18272 1.33405 0
M  V30 1968 C 176.727 -3.46529 2.57956 0
M  V30 1969 C 175.862 -4.74103 2.39582 0
M  V30 1970 C 174.901 -4.95347 3.5958 0
M  V30 1971 N 174.038 -6.14151 3.40239 0
M  V30 1972 H 178.878 -1.77698 2.39222 0
M  V30 1973 H 176.415 -0.867688 1.18784 0
M  V30 1974 H 178.373 -3.97956 1.25246 0
M  V30 1975 H 177.003 -3.2008 0.418164 0
M  V30 1976 H 176.055 -2.61207 2.76542 0
M  V30 1977 H 177.367 -3.58126 3.47199 0
M  V30 1978 H 176.521 -5.61853 2.28924 0
M  V30 1979 H 175.26 -4.64763 1.47805 0
M  V30 1980 H 174.265 -4.06044 3.70686 0
M  V30 1981 H 175.49 -5.06542 4.52318 0
M  V30 1982 H 173.436 -6.06013 2.51167 0
M  V30 1983 H 173.353 -6.26543 4.23061 0
M  V30 1984 H 174.621 -7.04619 3.33365 0
M  V30 1985 N 178.85 -1.27639 -0.924453 0
M  V30 1986 C 180.261 -1.12834 -1.48746 0
M  V30 1987 C 180.612 0.285505 -1.94112 0
M  V30 1988 O 179.737 1.17874 -1.81479 0
M  V30 1989 C 180.332 -2.04217 -2.70334 0
M  V30 1990 C 178.891 -1.93509 -3.22848 0
M  V30 1991 C 178.038 -1.96583 -1.95577 0
M  V30 1992 H 180.989 -1.40484 -0.738233 0
M  V30 1993 H 181.01 -1.59989 -3.4523 0
M  V30 1994 H 180.522 -3.07111 -2.37285 0
M  V30 1995 H 178.623 -0.936131 -3.60649 0
M  V30 1996 H 178.736 -2.79917 -3.88823 0
M  V30 1997 H 177.1 -1.4085 -2.12211 0
M  V30 1998 H 177.883 -3.01137 -1.64837 0
M  V30 1999 N 180.328 1.1314 -1.09713 0
M  V30 2000 C 181.275 2.18642 -0.739196 0
M  V30 2001 C 182.245 1.63706 0.280978 0
M  V30 2002 O 183.43 1.90111 0.161946 0
M  V30 2003 C 180.57 3.44685 -0.169102 0
M  V30 2004 C 179.683 4.13711 -1.24367 0
M  V30 2005 C 178.818 5.27379 -0.636019 0
M  V30 2006 C 177.857 5.88259 -1.69169 0
M  V30 2007 N 176.994 6.93352 -1.10485 0
M  V30 2008 H 181.834 2.48607 -1.64312 0
M  V30 2009 H 179.371 1.22066 -0.820875 0
M  V30 2010 H 181.329 4.16815 0.179256 0
M  V30 2011 H 179.959 3.15161 0.698079 0
M  V30 2012 H 179.011 3.39835 -1.70927 0
M  V30 2013 H 180.323 4.55037 -2.04311 0
M  V30 2014 H 179.477 6.06238 -0.236677 0
M  V30 2015 H 178.216 4.8731 0.194928 0
M  V30 2016 H 177.221 5.08092 -2.10055 0
M  V30 2017 H 178.446 6.30399 -2.52536 0
M  V30 2018 H 176.392 6.55335 -0.295234 0
M  V30 2019 H 176.309 7.33236 -1.84121 0
M  V30 2020 H 177.577 7.76057 -0.73181 0
M  V30 2021 N 181.806 0.884767 1.30421 0
M  V30 2022 C 182.716 0.355398 2.31892 0
M  V30 2023 C 183.732 -0.542261 1.65335 0
M  V30 2024 O 184.908 -0.435432 1.96637 0
M  V30 2025 C 181.973 -0.421661 3.44126 0
M  V30 2026 C 181.034 0.505727 4.26311 0
M  V30 2027 C 180.267 -0.234343 5.33185 0
M  V30 2028 O 180.49 -1.46045 5.51386 0
M  V30 2029 O 179.424 0.415443 6.00465 0
M  V30 2030 H 183.25 1.19685 2.79122 0
M  V30 2031 H 180.835 0.648596 1.34587 0
M  V30 2032 H 182.717 -0.861641 4.12497 0
M  V30 2033 H 181.392 -1.23942 2.99032 0
M  V30 2034 H 180.299 0.994513 3.60639 0
M  V30 2035 H 181.632 1.28948 4.75009 0
M  V30 2036 N 183.284 -1.43765 0.645699 0
M  V30 2037 C 184.247 -2.29163 -0.0409488 0
M  V30 2038 C 185.247 -1.41813 -0.757996 0
M  V30 2039 O 186.437 -1.63527 -0.600382 0
M  V30 2040 C 183.569 -3.23716 -1.06869 0
M  V30 2041 H 184.762 -2.91366 0.710345 0
M  V30 2042 H 182.315 -1.5092 0.406547 0
M  V30 2043 H 183.05 -2.66393 -1.84947 0
M  V30 2044 H 182.835 -3.88105 -0.558277 0
M  V30 2045 H 184.325 -3.87831 -1.54845 0
M  V30 2046 N 184.763 -0.387143 -1.52771 0
M  V30 2047 C 185.726 0.436939 -2.24997 0
M  V30 2048 C 186.726 0.991991 -1.26555 0
M  V30 2049 O 187.916 0.874335 -1.50669 0
M  V30 2050 C 185.048 1.61281 -3.00335 0
M  V30 2051 H 186.241 -0.195365 -2.99263 0
M  V30 2052 H 183.794 -0.139218 -1.55679 0
M  V30 2053 H 184.529 2.2826 -2.30364 0
M  V30 2054 H 184.314 1.22154 -3.72587 0
M  V30 2055 H 185.804 2.19629 -3.5518 0
M  V30 2056 N 186.241 1.57166 -0.116904 0
M  V30 2057 C 187.188 2.15202 0.83408 0
M  V30 2058 C 188.158 1.07644 1.26499 0
M  V30 2059 O 189.343 1.35541 1.34288 0
M  V30 2060 C 186.483 2.75405 2.07957 0
M  V30 2061 C 185.596 3.97264 1.69721 0
M  V30 2062 C 184.731 4.45561 2.89221 0
M  V30 2063 C 183.77 5.59956 2.47215 0
M  V30 2064 N 182.907 6.03006 3.59622 0
M  V30 2065 H 187.747 2.96141 0.332335 0
M  V30 2066 H 185.284 1.46309 0.152349 0
M  V30 2067 H 187.242 3.08439 2.80929 0
M  V30 2068 H 185.872 1.97159 2.55594 0
M  V30 2069 H 184.924 3.70404 0.866316 0
M  V30 2070 H 186.236 4.80226 1.34849 0
M  V30 2071 H 185.39 4.80493 3.7042 0
M  V30 2072 H 184.129 3.61544 3.27318 0
M  V30 2073 H 183.134 5.2463 1.64448 0
M  V30 2074 H 184.359 6.45738 2.10238 0
M  V30 2075 H 182.305 5.21931 3.97396 0
M  V30 2076 H 182.222 6.80819 3.28667 0
M  V30 2077 H 183.49 6.42576 4.41267 0
M  V30 2078 N 187.719 -0.156864 1.56817 0
M  V30 2079 C 188.947 -0.886316 1.86955 0
M  V30 2080 C 189.362 -1.75185 0.703975 0
M  V30 2081 O 188.719 -1.79555 -0.326552 0
M  V30 2082 C 188.77 -1.75117 3.16253 0
M  V30 2083 O 188.491 -0.920537 4.2832 0
M  V30 2084 C 189.992 -2.58905 3.59837 0
M  V30 2085 H 187.212 -0.25678 0.619923 0
M  V30 2086 H 189.756 -0.152615 2.0393 0
M  V30 2087 H 187.911 -2.43805 3.01062 0
M  V30 2088 H 188.325 -1.51337 5.02192 0
M  V30 2089 H 189.799 -3.1518 4.53172 0
M  V30 2090 H 190.276 -3.34472 2.84649 0
M  V30 2091 H 190.882 -1.95526 3.7769 0
M  V30 2092 N 189.197 -1.51736 -0.425897 0
M  V30 2093 C 190.16 -1.73271 -1.50032 0
M  V30 2094 C 191.16 -0.602639 -1.4908 0
M  V30 2095 O 192.35 -0.87033 -1.509 0
M  V30 2096 C 189.482 -1.79969 -2.89523 0
M  V30 2097 H 190.675 -2.69172 -1.32237 0
M  V30 2098 H 188.228 -1.41899 -0.65532 0
M  V30 2099 H 188.963 -0.859241 -3.1271 0
M  V30 2100 H 188.748 -2.62109 -2.91619 0
M  V30 2101 H 190.238 -1.9843 -3.67444 0
M  V30 2102 N 190.675 0.682077 -1.42076 0
M  V30 2103 C 191.638 1.77756 -1.44691 0
M  V30 2104 C 192.638 1.5726 -0.335535 0
M  V30 2105 O 193.828 1.63686 -0.596037 0
M  V30 2106 C 190.96 3.16301 -1.27146 0
M  V30 2107 H 192.153 1.76826 -2.42224 0
M  V30 2108 H 189.706 0.891012 -1.28416 0
M  V30 2109 H 190.441 3.22862 -0.305075 0
M  V30 2110 H 190.226 3.32581 -2.07683 0
M  V30 2111 H 191.716 3.96241 -1.31843 0
M  V30 2112 N 192.153 1.28127 0.917671 0
M  V30 2113 C 193.1 1.11717 2.0196 0
M  V30 2114 C 194.07 0.0153929 1.66093 0
M  V30 2115 O 195.255 0.179596 1.89953 0
M  V30 2116 C 192.395 0.780927 3.36148 0
M  V30 2117 C 191.508 1.96135 3.84909 0
M  V30 2118 C 190.643 1.56609 5.0759 0
M  V30 2119 C 189.682 2.71339 5.48673 0
M  V30 2120 N 188.819 2.32332 6.62545 0
M  V30 2121 H 193.659 2.06003 2.15329 0
M  V30 2122 H 191.196 1.02535 1.05475 0
M  V30 2123 H 193.154 0.56675 4.13333 0
M  V30 2124 H 191.784 -0.124998 3.22558 0
M  V30 2125 H 190.836 2.28777 3.03916 0
M  V30 2126 H 192.148 2.82165 4.1132 0
M  V30 2127 H 191.302 1.31374 5.92305 0
M  V30 2128 H 190.041 0.677014 4.82978 0
M  V30 2129 H 189.046 2.97276 4.62501 0
M  V30 2130 H 190.271 3.60882 5.75274 0
M  V30 2131 H 188.217 1.45889 6.39572 0
M  V30 2132 H 188.134 3.11899 6.88662 0
M  V30 2133 H 189.402 2.10371 7.50576 0
M  V30 2134 N 193.631 -1.12557 1.10312 0
M  V30 2135 C 194.578 -2.18247 0.750781 0
M  V30 2136 C 195.548 -1.63853 -0.272293 0
M  V30 2137 O 196.733 -1.90195 -0.151862 0
M  V30 2138 C 193.873 -3.44591 0.187379 0
M  V30 2139 C 192.986 -4.13046 1.2656 0
M  V30 2140 C 192.121 -5.27034 0.663978 0
M  V30 2141 C 191.16 -5.87353 1.72287 0
M  V30 2142 N 190.297 -6.92757 1.1416 0
M  V30 2143 H 195.137 -2.47732 1.65628 0
M  V30 2144 H 192.674 -1.21629 0.827337 0
M  V30 2145 H 194.632 -4.16904 -0.157148 0
M  V30 2146 H 193.262 -3.15527 -0.681355 0
M  V30 2147 H 192.314 -3.38924 1.72727 0
M  V30 2148 H 193.626 -4.53947 2.06721 0
M  V30 2149 H 192.78 -6.06104 0.268824 0
M  V30 2150 H 191.519 -4.87407 -0.169082 0
M  V30 2151 H 190.524 -5.06971 2.12746 0
M  V30 2152 H 191.749 -6.29051 2.55875 0
M  V30 2153 H 189.695 -6.5517 0.329984 0
M  V30 2154 H 189.612 -7.3225 1.88007 0
M  V30 2155 H 190.88 -7.75658 0.772956 0
M  V30 2156 O 195.148 -1.02442 -1.24852 0
M  V30 2157 H 195.839 -0.688008 -1.81069 0
M  V30 END ATOM
M  V30 BEGIN BOND
M  V30 END BOND
M  V30 END CTAB
M  END
$$$$
