drugbank_target|Q5SID9 Purine nucleoside phosphorylase (DB02857)
 OpenBabel12092120253D

  0  0  0     0  0            999 V3000
M  V30 BEGIN CTAB
M  V30 COUNTS 3598 3640 0 0 0
M  V30 BEGIN ATOM
M  V30 1 H -0.908 1.98254 -0.117106 0
M  V30 2 N 0 1.576 0 0
M  V30 3 C 0.933 2.03868 1.02534 0
M  V30 4 C 1.911 0.928543 1.3348 0
M  V30 5 O 3.095 1.19667 1.45644 0
M  V30 6 C 0.222 2.43627 2.35294 0
M  V30 7 C -0.732 3.65373 2.2001 0
M  V30 8 S 0.101 5.13292 1.52614 0
M  V30 9 C 1.257 5.56322 2.86805 0
M  V30 10 H 1.49 2.90518 0.631377 0
M  V30 11 H -0.977 1.52953 0.210867 0
M  V30 12 H 0.981 2.67203 3.11629 0
M  V30 13 H -0.358 1.57376 2.7183 0
M  V30 14 H -1.165 3.90944 3.18086 0
M  V30 15 H -1.563 3.418 1.51819 0
M  V30 16 H 0.729 5.58782 3.83104 0
M  V30 17 H 1.672 6.56266 2.65933 0
M  V30 18 H 2.08 4.83886 2.90714 0
M  V30 19 N 1.4781 -0.272755 1.55222 0
M  V30 20 C 2.7031 -1.02683 1.80197 0
M  V30 21 C 3.1281 -1.79142 0.573551 0
M  V30 22 O 2.4861 -1.74917 -0.476849 0
M  V30 23 C 2.5341 -1.9609 3.02624 0
M  V30 24 O 1.6381 -3.04863 2.77727 0
M  V30 25 H 0.9791 -0.293557 0.595584 0
M  V30 26 H 3.5091 -0.30159 2.02365 0
M  V30 27 H 3.5191 -2.38039 3.31363 0
M  V30 28 H 2.1941 -1.39851 3.91682 0
M  V30 29 H 0.7711 -2.67228 2.60084 0
M  V30 30 N 2.9562 -1.48159 -0.537278 0
M  V30 31 C 4.3672 -1.49429 -1.11928 0
M  V30 32 C 4.7182 -0.26 -1.9447 0
M  V30 33 O 3.8432 0.633489 -2.0692 0
M  V30 34 C 4.4382 -2.70758 -2.03656 0
M  V30 35 C 2.9972 -2.74923 -2.57088 0
M  V30 36 C 2.1442 -2.42835 -1.3389 0
M  V30 37 H 5.0952 -1.55381 -0.322886 0
M  V30 38 H 5.1162 -2.48861 -2.87834 0
M  V30 39 H 4.6282 -3.60575 -1.43553 0
M  V30 40 H 2.7292 -1.89296 -3.20933 0
M  V30 41 H 2.8422 -3.76157 -2.9672 0
M  V30 42 H 1.2062 -1.93836 -1.65226 0
M  V30 43 H 1.9892 -3.34884 -0.755504 0
M  V30 44 N 4.4343 0.785586 -1.36625 0
M  V30 45 C 5.6833 1.53883 -1.30396 0
M  V30 46 C 5.9963 1.95271 0.113452 0
M  V30 47 O 7.2023 2.69858 0.298142 0
M  V30 48 C 5.6583 2.77808 -2.28802 0
M  V30 49 C 5.2663 2.43574 -3.75999 0
M  V30 50 C 7.0103 3.55783 -2.31558 0
M  V30 51 C 4.9173 3.63919 -4.66173 0
M  V30 52 H 3.8473 0.577678 -0.484566 0
M  V30 53 H 6.4983 0.861705 -1.62009 0
M  V30 54 H 4.8803 3.47339 -1.90188 0
M  V30 55 H 6.0543 1.81916 -4.23371 0
M  V30 56 H 4.3693 1.78803 -3.76056 0
M  V30 57 H 6.9663 4.45205 -2.96137 0
M  V30 58 H 7.3093 3.94644 -1.3252 0
M  V30 59 H 7.8423 2.93235 -2.68809 0
M  V30 60 H 4.5813 3.3015 -5.66287 0
M  V30 61 H 4.1013 4.2473 -4.23515 0
M  V30 62 H 5.7803 4.30901 -4.82632 0
M  V30 63 N 5.9124 1.20967 1.01018 0
M  V30 64 C 6.8624 0.93182 2.08089 0
M  V30 65 C 7.8464 -0.110898 1.60517 0
M  V30 66 O 9.0384 0.0973392 1.76732 0
M  V30 67 C 6.1674 0.492719 3.39746 0
M  V30 68 C 5.2534 1.56922 3.94 0
M  V30 69 N 5.6444 2.79312 4.21686 0
M  V30 70 C 3.9424 1.43688 4.2222 0
M  V30 71 C 4.6434 3.48797 4.65527 0
M  V30 72 N 3.6194 2.76224 4.68189 0
M  V30 73 H 7.4214 1.86175 2.27412 0
M  V30 74 H 4.9354 1.10463 1.19045 0
M  V30 75 H 6.9324 0.275044 4.15992 0
M  V30 76 H 5.5924 -0.430509 3.21833 0
M  V30 77 H 6.6034 3.15903 4.10397 0
M  V30 78 H 3.2804 0.578548 4.13472 0
M  V30 79 H 4.6704 4.53561 4.95714 0
M  V30 80 N 7.3905 -1.2043 1.01659 0
M  V30 81 C 8.6365 -1.90079 0.706963 0
M  V30 82 C 8.9695 -1.78648 -0.761474 0
M  V30 83 O 8.2445 -1.17069 -1.55323 0
M  V30 84 C 8.5275 -3.41469 1.14327 0
M  V30 85 C 8.3805 -3.61833 2.67201 0
M  V30 86 C 9.6995 -4.34261 0.714529 0
M  V30 87 H 6.8185 -0.690254 0.2583 0
M  V30 88 H 9.4605 -1.41826 1.26433 0
M  V30 89 H 7.6105 -3.82696 0.669056 0
M  V30 90 H 9.2825 -3.2986 3.22475 0
M  V30 91 H 7.5255 -3.05304 3.08175 0
M  V30 92 H 8.1965 -4.67955 2.92783 0
M  V30 93 H 10.6725 -4.00682 1.12221 0
M  V30 94 H 9.5485 -5.38806 1.04784 0
M  V30 95 H 9.8095 -4.40431 -0.383799 0
M  V30 96 N 8.8686 -0.792821 -1.36206 0
M  V30 97 C 10.2846 -0.474903 -1.52371 0
M  V30 98 C 10.4846 1.00622 -1.74578 0
M  V30 99 O 9.5406 1.79162 -1.77924 0
M  V30 100 C 10.8536 -1.3083 -2.70747 0
M  V30 101 C 12.4016 -1.30234 -2.84619 0
M  V30 102 C 12.8766 -2.11956 -4.06004 0
M  V30 103 N 14.3676 -2.09419 -4.13156 0
M  V30 104 C 15.1026 -2.69419 -5.06163 0
M  V30 105 N 14.5986 -3.3829 -6.04592 0
M  V30 106 N 16.3916 -2.59134 -4.98804 0
M  V30 107 H 8.5426 -1.75222 -1.20046 0
M  V30 108 H 10.8056 -0.745024 -0.586211 0
M  V30 109 H 10.5116 -2.35881 -2.6087 0
M  V30 110 H 10.3856 -0.95196 -3.6499 0
M  V30 111 H 12.7726 -0.259748 -2.93955 0
M  V30 112 H 12.8536 -1.69847 -1.91274 0
M  V30 113 H 12.4976 -3.16248 -3.97429 0
M  V30 114 H 12.4276 -1.69711 -4.98503 0
M  V30 115 H 14.9186 -1.59297 -3.42685 0
M  V30 116 H 15.2316 -3.81394 -6.7213 0
M  V30 117 H 13.5766 -3.42393 -6.04807 0
M  V30 118 H 16.7676 -2.04927 -4.20859 0
M  V30 119 H 16.9406 -3.06185 -5.711 0
M  V30 120 N 10.3467 1.47872 -0.545128 0
M  V30 121 C 11.3097 2.28337 0.198717 0
M  V30 122 C 12.3097 1.36255 0.853888 0
M  V30 123 O 13.4997 1.59003 0.711606 0
M  V30 124 C 10.6317 3.15585 1.28915 0
M  V30 125 H 11.8247 2.95567 -0.507941 0
M  V30 126 H 9.3777 1.53362 -0.301616 0
M  V30 127 H 10.1127 2.53019 2.02859 0
M  V30 128 H 9.8977 3.83337 0.824309 0
M  V30 129 H 11.3877 3.76243 1.81194 0
M  V30 130 N 11.8248 0.280983 1.55075 0
M  V30 131 C 12.7748 -0.618585 2.19448 0
M  V30 132 C 13.7588 -1.11401 1.16098 0
M  V30 133 O 14.9508 -1.0581 1.41891 0
M  V30 134 C 12.0798 -1.79951 2.92357 0
M  V30 135 C 11.1658 -1.321 4.03002 0
M  V30 136 N 11.5568 -0.559044 5.02701 0
M  V30 137 C 9.8548 -1.60346 4.16179 0
M  V30 138 C 10.5558 -0.306722 5.80891 0
M  V30 139 N 9.5318 -0.880825 5.36416 0
M  V30 140 H 13.3338 -0.0286638 2.93886 0
M  V30 141 H 10.8478 0.0848104 1.62178 0
M  V30 142 H 12.8448 -2.45531 3.36927 0
M  V30 143 H 11.5048 -2.39333 2.19431 0
M  V30 144 H 12.5158 -0.205827 5.17491 0
M  V30 145 H 9.1928 -2.20621 3.54447 0
M  V30 146 H 10.5828 0.30391 6.71212 0
M  V30 147 N 13.3029 -1.57598 0.00835791 0
M  V30 148 C 14.7139 -1.7892 -0.53333 0
M  V30 149 C 15.0649 -0.916609 -1.73473 0
M  V30 150 O 14.1899 -0.121336 -2.1606 0
M  V30 151 C 14.7849 -3.24488 -0.974313 0
M  V30 152 C 13.3439 -3.46878 -1.46125 0
M  V30 153 C 12.4909 -2.74157 -0.416302 0
M  V30 154 H 15.4419 -1.56958 0.234495 0
M  V30 155 H 15.4629 -3.3306 -1.83988 0
M  V30 156 H 14.9749 -3.87972 -0.099718 0
M  V30 157 H 13.0759 -2.8862 -2.35646 0
M  V30 158 H 13.1889 -4.55572 -1.48295 0
M  V30 159 H 11.5529 -2.39022 -0.87981 0
M  V30 160 H 12.3359 -3.40345 0.44947 0
M  V30 161 N 14.781 0.264519 -1.55364 0
M  V30 162 C 16.029 0.993021 -1.76021 0
M  V30 163 C 16.35 1.86511 -0.569099 0
M  V30 164 O 15.62 1.91438 0.415735 0
M  V30 165 H 14.2 0.369639 -0.649135 0
M  V30 166 H 16.862 0.286707 -1.9278 0
M  V30 167 H 15.958 1.62502 -2.66457 0
M  V30 168 N 16.2591 1.48442 0.529413 0
M  V30 169 C 17.5361 1.46978 1.29062 0
M  V30 170 C 17.9161 0.181769 2.10316 0
M  V30 171 O 17.2641 -0.836481 2.12639 0
M  V30 172 C 17.4741 2.7321 2.17157 0
M  V30 173 C 18.8221 3.21562 2.77278 0
M  V30 174 O 19.8461 2.74131 2.27444 0
M  V30 175 O 18.7051 4.04094 3.67927 0
M  V30 176 H 15.7991 0.587003 0.582543 0
M  V30 177 H 18.3451 1.60676 0.546021 0
M  V30 178 H 17.1171 3.58465 1.56903 0
M  V30 179 H 16.7401 2.62235 2.98862 0
M  V30 180 N 17.7372 -0.778329 1.37039 0
M  V30 181 C 18.9832 -1.53892 1.32079 0
M  V30 182 C 19.3162 -1.9396 -0.0965386 0
M  V30 183 O 18.5912 -1.63568 -1.05242 0
M  V30 184 C 18.8742 -2.80847 2.25382 0
M  V30 185 C 18.7272 -2.47076 3.75864 0
M  V30 186 C 20.0462 -3.82741 2.1725 0
M  V30 187 H 17.1652 -0.558303 0.48111 0
M  V30 188 H 19.8072 -0.893397 1.67685 0
M  V30 189 H 17.9572 -3.35931 1.95148 0
M  V30 190 H 19.6292 -1.97957 4.16666 0
M  V30 191 H 17.8722 -1.79863 3.94755 0
M  V30 192 H 18.5432 -3.37798 4.36574 0
M  V30 193 H 21.0192 -3.37133 2.43887 0
M  V30 194 H 19.8952 -4.69303 2.84686 0
M  V30 195 H 20.1562 -4.2652 1.16331 0
M  V30 196 N 19.2153 -1.21501 -1.00376 0
M  V30 197 C 20.1783 -0.976927 -2.07337 0
M  V30 198 C 21.1783 0.0525322 -1.60714 0
M  V30 199 O 22.3683 -0.184869 -1.73216 0
M  V30 200 C 19.5003 -0.473423 -3.37597 0
M  V30 201 H 20.6933 -1.92587 -2.29892 0
M  V30 202 H 18.2463 -1.03217 -1.17371 0
M  V30 203 H 18.9813 0.480379 -3.20722 0
M  V30 204 H 18.7663 -1.216 -3.72768 0
M  V30 205 H 20.2563 -0.32675 -4.1632 0
M  V30 206 N 20.6934 1.19889 -1.02296 0
M  V30 207 C 21.6034 2.26571 -0.608508 0
M  V30 208 C 22.6194 1.70299 0.356964 0
M  V30 209 O 23.7954 2.00235 0.216326 0
M  V30 210 C 20.8604 3.46677 0.0402814 0
M  V30 211 C 19.9214 4.18153 -0.97194 0
M  V30 212 C 19.1544 5.32525 -0.354016 0
M  V30 213 O 19.3774 5.64112 0.844604 0
M  V30 214 O 18.3114 5.92242 -1.07391 0
M  V30 215 H 22.1374 2.64251 -1.49684 0
M  V30 216 H 19.7224 1.26629 -0.792809 0
M  V30 217 H 21.6044 4.19475 0.402324 0
M  V30 218 H 20.2794 3.10858 0.902707 0
M  V30 219 H 19.1864 3.47499 -1.38546 0
M  V30 220 H 20.5194 4.57927 -1.80454 0
M  V30 221 N 22.1715 0.800033 1.35784 0
M  V30 222 C 23.5875 0.482977 1.52117 0
M  V30 223 C 23.7875 -0.996948 1.75109 0
M  V30 224 O 22.8435 -1.78216 1.78872 0
M  V30 225 C 24.1565 1.32264 2.70049 0
M  V30 226 C 25.7045 1.31742 2.83924 0
M  V30 227 C 26.1795 2.14106 4.04874 0
M  V30 228 N 27.6705 2.11607 4.12039 0
M  V30 229 C 28.4055 2.72099 5.04727 0
M  V30 230 N 27.9015 3.41492 6.02789 0
M  V30 231 N 29.6945 2.61776 4.97423 0
M  V30 232 H 21.8455 1.75856 1.19115 0
M  V30 233 H 24.1085 0.748122 0.582252 0
M  V30 234 H 23.8145 2.37261 2.59616 0
M  V30 235 H 23.6885 0.971303 3.6448 0
M  V30 236 H 26.0755 0.275333 2.93813 0
M  V30 237 H 26.1565 1.70859 1.9037 0
M  V30 238 H 25.8005 3.18351 3.95746 0
M  V30 239 H 25.7305 1.72353 4.97596 0
M  V30 240 H 28.2215 1.61112 3.41835 0
M  V30 241 H 28.5345 3.84953 6.70098 0
M  V30 242 H 26.8795 3.45596 6.02983 0
M  V30 243 H 30.0705 2.07157 4.19766 0
M  V30 244 H 30.2435 3.0921 5.69468 0
M  V30 245 N 23.6496 -1.47581 0.552962 0
M  V30 246 C 24.8956 -2.02782 0.0273648 0
M  V30 247 C 25.2286 -1.42687 -1.31734 0
M  V30 248 O 24.5036 -0.580897 -1.85623 0
M  V30 249 C 24.7866 -3.60031 -0.0702371 0
M  V30 250 C 24.6396 -4.30566 1.30126 0
M  V30 251 C 25.9586 -4.33028 -0.785771 0
M  V30 252 H 23.0776 -0.736912 0.0114185 0
M  V30 253 H 25.7196 -1.76056 0.714432 0
M  V30 254 H 23.8696 -3.82932 -0.655382 0
M  V30 255 H 25.5416 -4.19018 1.92929 0
M  V30 256 H 23.7846 -3.91086 1.87709 0
M  V30 257 H 24.4556 -5.39114 1.18573 0
M  V30 258 H 26.9316 -4.15095 -0.288982 0
M  V30 259 H 25.8076 -5.42695 -0.823013 0
M  V30 260 H 26.0686 -4.01945 -1.841 0
M  V30 261 N 25.1277 -0.289203 -1.54924 0
M  V30 262 C 26.0577 0.58549 -2.2604 0
M  V30 263 C 27.0387 1.14753 -1.25562 0
M  V30 264 O 28.2237 1.17906 -1.54311 0
M  V30 265 C 25.3537 1.76305 -2.99222 0
M  V30 266 C 24.3077 1.33191 -4.06748 0
M  V30 267 C 23.6337 2.5937 -4.6758 0
M  V30 268 C 24.9337 0.471775 -5.20165 0
M  V30 269 H 26.6277 -0.00763532 -2.99399 0
M  V30 270 H 24.1737 -0.00511229 -1.43999 0
M  V30 271 H 26.1267 2.38097 -3.47689 0
M  V30 272 H 24.8507 2.38223 -2.23422 0
M  V30 273 H 23.5097 0.737121 -3.59113 0
M  V30 274 H 23.1577 3.19576 -3.88433 0
M  V30 275 H 22.8577 2.31228 -5.40192 0
M  V30 276 H 24.3817 3.21985 -5.18804 0
M  V30 277 H 25.7957 0.995056 -5.64599 0
M  V30 278 H 24.1927 0.284639 -5.99425 0
M  V30 279 H 25.2627 -0.506041 -4.82252 0
M  V30 280 N 26.6058 1.57591 -0.0167156 0
M  V30 281 C 27.5358 2.12496 0.967858 0
M  V30 282 C 28.5168 1.03807 1.34752 0
M  V30 283 O 29.7018 1.31577 1.42833 0
M  V30 284 C 26.8318 2.64194 2.25431 0
M  V30 285 C 25.7858 3.77559 2.01576 0
M  V30 286 C 25.1118 4.15636 3.36379 0
M  V30 287 C 26.4118 5.04151 1.36489 0
M  V30 288 H 28.1058 2.95013 0.510643 0
M  V30 289 H 25.6518 1.41915 0.244181 0
M  V30 290 H 27.6048 3.01236 2.94678 0
M  V30 291 H 26.3288 1.78821 2.73296 0
M  V30 292 H 24.9878 3.40937 1.34751 0
M  V30 293 H 24.6358 3.27263 3.81979 0
M  V30 294 H 24.3358 4.92022 3.21229 0
M  V30 295 H 25.8598 4.5525 4.06915 0
M  V30 296 H 27.2738 5.38857 1.95718 0
M  V30 297 H 25.6708 5.85453 1.31776 0
M  V30 298 H 26.7408 4.83733 0.336219 0
M  V30 299 N 28.0839 -0.256276 1.55502 0
M  V30 300 C 29.4949 -0.826068 1.67431 0
M  V30 301 C 29.8459 -1.86396 0.612446 0
M  V30 302 O 28.9709 -2.15031 -0.243025 0
M  V30 303 C 29.5659 -1.50512 3.03532 0
M  V30 304 C 28.1249 -2.02273 3.17431 0
M  V30 305 C 27.2719 -0.870548 2.63281 0
M  V30 306 H 30.2229 -0.0322728 1.58667 0
M  V30 307 H 30.2439 -2.37279 2.97454 0
M  V30 308 H 29.7559 -0.749484 3.80794 0
M  V30 309 H 27.8569 -2.80746 2.44974 0
M  V30 310 H 27.9699 -2.22655 4.24219 0
M  V30 311 H 26.3339 -1.26851 2.20864 0
M  V30 312 H 27.1169 -0.128149 3.43061 0
M  V30 313 N 29.562 -1.4872 -0.521534 0
M  V30 314 C 30.81 -1.56857 -1.27437 0
M  V30 315 C 31.131 -0.247982 -1.93417 0
M  V30 316 O 30.401 0.731151 -1.81744 0
M  V30 317 H 28.981 -0.577885 -0.473347 0
M  V30 318 H 31.643 -1.85233 -0.606205 0
M  V30 319 H 30.739 -2.35402 -2.0492 0
M  V30 320 N 31.0401 0.771051 -1.3745 0
M  V30 321 C 32.3171 1.519 -1.23231 0
M  V30 322 C 32.6971 2.10383 0.173809 0
M  V30 323 O 32.0451 1.95583 1.18151 0
M  V30 324 C 32.2551 2.59933 -2.32886 0
M  V30 325 C 33.6031 3.27316 -2.70461 0
M  V30 326 O 34.6271 2.70228 -2.32068 0
M  V30 327 O 33.4861 4.30531 -3.36608 0
M  V30 328 H 30.5801 0.672803 -0.480901 0
M  V30 329 H 33.1261 0.807957 -1.49232 0
M  V30 330 H 31.8981 2.14842 -3.27045 0
M  V30 331 H 31.5211 3.38637 -2.08353 0
M  V30 332 N 32.5182 1.22032 0.997298 0
M  V30 333 C 33.9292 1.0397 1.55071 0
M  V30 334 C 34.2802 -0.398192 1.92117 0
M  V30 335 O 33.4052 -1.28254 1.74298 0
M  V30 336 C 34.0002 1.88109 2.81781 0
M  V30 337 C 32.5592 1.74357 3.33581 0
M  V30 338 C 31.7062 1.84846 2.06706 0
M  V30 339 H 34.6572 1.35941 0.818883 0
M  V30 340 H 34.6782 1.39589 3.53971 0
M  V30 341 H 34.1902 2.92754 2.54787 0
M  V30 342 H 32.2912 0.72427 3.65493 0
M  V30 343 H 32.4042 2.56772 4.04481 0
M  V30 344 H 30.7682 1.28238 2.20062 0
M  V30 345 H 31.5512 2.91014 1.82114 0
M  V30 346 N 33.9963 -1.19345 1.0293 0
M  V30 347 C 35.2443 -1.88665 0.724574 0
M  V30 348 C 35.5653 -1.80036 -0.749144 0
M  V30 349 O 34.8353 -1.2111 -1.53978 0
M  V30 350 H 33.4153 -0.698406 0.265025 0
M  V30 351 H 36.0773 -1.44885 1.30362 0
M  V30 352 H 35.1733 -2.94987 1.01926 0
M  V30 353 N 35.4744 -0.807222 -1.35358 0
M  V30 354 C 36.8904 -0.491038 -1.51858 0
M  V30 355 C 37.0904 0.987648 -1.75635 0
M  V30 356 O 36.1464 1.77265 -1.79815 0
M  V30 357 C 37.4594 -1.33695 -2.69344 0
M  V30 358 C 39.0074 -1.33246 -2.83222 0
M  V30 359 C 39.4824 -2.1625 -4.03733 0
M  V30 360 N 40.9734 -2.1379 -4.10911 0
M  V30 361 C 41.7084 -2.74772 -5.03277 0
M  V30 362 N 41.2044 -3.44684 -6.0097 0
M  V30 363 N 42.9974 -2.6441 -4.96028 0
M  V30 364 H 35.1484 -1.76485 -1.18181 0
M  V30 365 H 37.4114 -0.751199 -0.578276 0
M  V30 366 H 37.1174 -2.38634 -2.58354 0
M  V30 367 H 36.9914 -0.990618 -3.6396 0
M  V30 368 H 39.3784 -0.290911 -2.93663 0
M  V30 369 H 39.4594 -1.71866 -1.89461 0
M  V30 370 H 39.1034 -3.20445 -3.94052 0
M  V30 371 H 39.0334 -1.74989 -4.96675 0
M  V30 372 H 41.5244 -1.62923 -3.40976 0
M  V30 373 H 41.8374 -3.88501 -6.68047 0
M  V30 374 H 40.1824 -3.48788 -6.01142 0
M  V30 375 H 43.3734 -2.0938 -4.18662 0
M  V30 376 H 43.5464 -3.12225 -5.6782 0
M  V30 377 N 36.9525 1.47285 -0.560781 0
M  V30 378 C 37.9155 2.28535 0.174488 0
M  V30 379 C 38.9155 1.37153 0.839388 0
M  V30 380 O 40.1055 1.59748 0.694702 0
M  V30 381 C 37.2375 3.16934 1.25561 0
M  V30 382 H 38.4305 2.95012 -0.539262 0
M  V30 383 H 35.9835 1.53034 -0.317865 0
M  V30 384 H 36.7185 2.55157 2.00164 0
M  V30 385 H 36.5035 3.8419 0.783604 0
M  V30 386 H 37.9935 3.78143 1.77193 0
M  V30 387 N 38.4306 0.297415 1.54768 0
M  V30 388 C 39.3406 -0.58983 2.27064 0
M  V30 389 C 40.3566 -1.15144 1.30453 0
M  V30 390 O 41.5326 -1.17699 1.63428 0
M  V30 391 C 38.5976 -1.74714 2.9946 0
M  V30 392 C 37.6586 -1.21997 4.11601 0
M  V30 393 C 36.8916 -2.32212 4.80535 0
M  V30 394 O 37.1146 -3.52036 4.48806 0
M  V30 395 O 36.0486 -1.99106 5.68014 0
M  V30 396 H 39.8746 -0.00348199 3.037 0
M  V30 397 H 37.4596 0.0640035 1.49263 0
M  V30 398 H 39.3416 -2.42147 3.44881 0
M  V30 399 H 38.0166 -2.32016 2.25722 0
M  V30 400 H 36.9236 -0.511458 3.70587 0
M  V30 401 H 38.2566 -0.692419 4.87305 0
M  V30 402 N 39.9087 -1.5758 0.0250728 0
M  V30 403 C 41.1547 -1.92746 -0.649648 0
M  V30 404 C 41.5097 -0.901588 -1.69968 0
M  V30 405 O 40.8027 0.0829251 -1.9142 0
M  V30 406 C 40.9967 -3.32421 -1.31268 0
M  V30 407 C 40.8257 -4.48499 -0.328394 0
M  V30 408 C 39.5957 -5.05251 0.070284 0
M  V30 409 C 41.7937 -5.12618 0.415665 0
M  V30 410 N 39.7757 -6.04851 1.05016 0
M  V30 411 C 41.1467 -6.0728 1.24943 0
M  V30 412 C 43.2017 -4.95612 0.476803 0
M  V30 413 C 41.9047 -6.86766 2.1388 0
M  V30 414 C 43.9307 -5.75703 1.3535 0
M  V30 415 C 43.2927 -6.69978 2.17504 0
M  V30 416 H 39.3917 -0.753231 -0.210159 0
M  V30 417 H 41.9757 -1.94486 0.0912999 0
M  V30 418 H 40.1467 -3.31508 -2.02379 0
M  V30 419 H 41.8787 -3.54946 -1.94411 0
M  V30 420 H 38.6337 -4.72628 -0.303323 0
M  V30 421 H 39.0577 -6.5934 1.53622 0
M  V30 422 H 43.6997 -4.22554 -0.144105 0
M  V30 423 H 41.4177 -7.59132 2.77027 0
M  V30 424 H 45.0037 -5.64579 1.40504 0
M  V30 425 H 43.8837 -7.30873 2.84244 0
M  V30 426 N 41.3868 0.248026 -1.55636 0
M  V30 427 C 42.6358 0.974134 -1.76617 0
M  V30 428 C 42.9488 1.86528 -0.588796 0
M  V30 429 O 44.1548 2.62805 -0.681594 0
M  V30 430 C 42.6108 1.78213 -3.12679 0
M  V30 431 C 42.2188 0.93843 -4.38061 0
M  V30 432 C 43.9628 2.50104 -3.42999 0
M  V30 433 C 41.8698 1.74225 -5.65155 0
M  V30 434 H 40.7998 0.36745 -0.658405 0
M  V30 435 H 43.4508 0.22884 -1.82067 0
M  V30 436 H 41.8328 2.56933 -3.01333 0
M  V30 437 H 43.0068 0.193635 -4.60393 0
M  V30 438 H 41.3218 0.332905 -4.15067 0
M  V30 439 H 43.9188 3.10694 -4.3517 0
M  V30 440 H 44.2618 3.21662 -2.64271 0
M  V30 441 H 44.7948 1.78395 -3.55556 0
M  V30 442 H 41.5338 1.07043 -6.46701 0
M  V30 443 H 41.0538 2.46235 -5.46926 0
M  V30 444 H 42.7328 2.30967 -6.0437 0
M  V30 445 N 42.8649 1.48995 0.513639 0
M  V30 446 C 43.8279 1.64229 1.59879 0
M  V30 447 C 44.8279 0.514696 1.5234 0
M  V30 448 O 46.0179 0.78087 1.55718 0
M  V30 449 C 43.1499 1.62783 2.99524 0
M  V30 450 H 44.3429 2.61004 1.47705 0
M  V30 451 H 41.8959 1.37837 0.736936 0
M  V30 452 H 42.6309 0.675461 3.17188 0
M  V30 453 H 42.4159 2.4466 3.06404 0
M  V30 454 H 43.9059 1.76669 3.78388 0
M  V30 455 N 44.343 -0.763751 1.37857 0
M  V30 456 C 45.29 -1.87726 1.34267 0
M  V30 457 C 46.26 -1.64807 0.206879 0
M  V30 458 O 47.445 -1.86613 0.397508 0
M  V30 459 C 44.585 -3.24896 1.16346 0
M  V30 460 C 43.698 -3.59716 2.39225 0
M  V30 461 C 42.833 -4.86137 2.14114 0
M  V30 462 C 41.872 -5.13711 3.32817 0
M  V30 463 N 41.009 -6.31323 3.07206 0
M  V30 464 H 45.849 -1.90129 2.29466 0
M  V30 465 H 43.386 -0.929433 1.14017 0
M  V30 466 H 45.344 -4.04036 1.03975 0
M  V30 467 H 43.974 -3.21847 0.247909 0
M  V30 468 H 43.026 -2.75498 2.62307 0
M  V30 469 H 44.338 -3.76027 3.27728 0
M  V30 470 H 43.492 -5.73198 1.9882 0
M  V30 471 H 42.231 -4.71945 1.22961 0
M  V30 472 H 41.236 -4.25123 3.48641 0
M  V30 473 H 42.461 -5.29807 4.24832 0
M  V30 474 H 40.407 -6.18474 2.1869 0
M  V30 475 H 40.324 -6.48087 3.89254 0
M  V30 476 H 41.592 -7.213 2.95546 0
M  V30 477 N 45.8211 -1.22559 -0.990812 0
M  V30 478 C 47.0491 -1.07779 -1.76611 0
M  V30 479 C 47.4641 0.371513 -1.85109 0
M  V30 480 O 46.8211 1.25737 -1.32274 0
M  V30 481 C 46.8721 -1.68512 -3.19822 0
M  V30 482 O 46.5931 -3.07774 -3.1178 0
M  V30 483 C 48.0941 -1.59035 -4.13791 0
M  V30 484 H 45.3141 -0.377729 -0.554583 0
M  V30 485 H 47.8581 -1.62195 -1.24551 0
M  V30 486 H 46.0131 -1.18154 -3.68942 0
M  V30 487 H 46.4271 -3.37062 -4.01858 0
M  V30 488 H 47.9011 -2.0625 -5.1202 0
M  V30 489 H 48.3781 -0.547273 -4.35777 0
M  V30 490 H 48.9841 -2.08709 -3.70568 0
M  V30 491 N 47.2992 1.18797 -1.03562 0
M  V30 492 C 48.5462 1.8865 -0.736023 0
M  V30 493 C 48.8742 1.80041 0.735889 0
M  V30 494 O 48.1292 1.19179 1.55225 0
M  V30 495 C 48.4282 3.38692 -1.14117 0
M  V30 496 C 48.0942 3.67504 -2.6125 0
M  V30 497 C 46.7562 3.75078 -3.01447 0
M  V30 498 C 49.1082 3.80293 -3.56408 0
M  V30 499 C 46.4362 3.92915 -4.35701 0
M  V30 500 C 48.7882 3.99645 -4.90374 0
M  V30 501 C 47.4522 4.05453 -5.30249 0
M  V30 502 H 46.7222 0.690321 -0.26933 0
M  V30 503 H 49.3692 1.40641 -1.29971 0
M  V30 504 H 47.6742 3.88645 -0.496202 0
M  V30 505 H 49.3712 3.91072 -0.886789 0
M  V30 506 H 45.9612 3.62223 -2.29113 0
M  V30 507 H 50.1452 3.73779 -3.26501 0
M  V30 508 H 45.4012 3.95653 -4.66121 0
M  V30 509 H 49.5752 4.08482 -5.64017 0
M  V30 510 H 47.2022 4.19027 -6.34288 0
M  V30 511 N 48.7773 0.814389 1.34928 0
M  V30 512 C 49.7073 0.244827 2.32213 0
M  V30 513 C 50.6883 -0.634024 1.57842 0
M  V30 514 O 51.8733 -0.562676 1.8587 0
M  V30 515 C 49.0033 -0.601106 3.42058 0
M  V30 516 C 47.9573 0.179896 4.27622 0
M  V30 517 C 47.2833 -0.788237 5.28858 0
M  V30 518 C 48.5833 1.38329 5.03649 0
M  V30 519 H 50.2773 1.05763 2.80097 0
M  V30 520 H 47.8233 0.510029 1.34665 0
M  V30 521 H 49.7763 -1.00968 4.09125 0
M  V30 522 H 48.5003 -1.44688 2.92802 0
M  V30 523 H 47.1593 0.569739 3.62146 0
M  V30 524 H 46.8073 -1.62973 4.75866 0
M  V30 525 H 46.5073 -0.269942 5.8698 0
M  V30 526 H 48.0313 -1.19485 5.98795 0
M  V30 527 H 49.4453 1.04918 5.63618 0
M  V30 528 H 47.8423 1.83662 5.71304 0
M  V30 529 H 48.9123 2.16592 4.33839 0
M  V30 530 N 50.2554 -1.46986 0.568584 0
M  V30 531 C 51.1874 -2.28233 -0.210337 0
M  V30 532 C 52.2004 -1.37682 -0.868767 0
M  V30 533 O 53.3894 -1.62406 -0.740705 0
M  V30 534 C 50.4894 -3.12293 -1.3163 0
M  V30 535 C 49.6624 -4.30878 -0.7525 0
M  V30 536 C 48.7214 -4.96445 -1.74439 0
M  V30 537 O 47.7474 -5.54482 -1.286 0
M  V30 538 N 48.9494 -4.92171 -3.07812 0
M  V30 539 H 51.7144 -2.95723 0.486648 0
M  V30 540 H 49.2754 -1.56742 0.405409 0
M  V30 541 H 51.2674 -3.53022 -1.97883 0
M  V30 542 H 49.8374 -2.46971 -1.91636 0
M  V30 543 H 49.0574 -3.94104 0.0871128 0
M  V30 544 H 50.3454 -5.07558 -0.35536 0
M  V30 545 H 49.7434 -4.46239 -3.47688 0
M  V30 546 H 48.3004 -5.36884 -3.69592 0
M  V30 547 N 51.7335 -0.305618 -1.54608 0
M  V30 548 C 52.6815 0.584119 -2.25146 0
M  V30 549 C 53.6755 1.13326 -1.25911 0
M  V30 550 O 54.8815 1.08337 -1.43747 0
M  V30 551 H 51.2565 0.206983 -0.722954 0
M  V30 552 H 53.2275 -0.033291 -2.98381 0
M  V30 553 C 51.9765 1.74225 -3.009 0
M  V30 554 H 51.2995 1.32892 -3.77067 0
M  V30 555 H 52.7395 2.34077 -3.53531 0
M  V30 556 C 51.1985 2.64914 -2.0814 0
M  V30 557 O 51.7285 3.66137 -1.65246 0
M  V30 558 N 49.9345 2.3275 -1.74 0
M  V30 559 H 49.4815 1.50479 -2.09078 0
M  V30 560 H 49.4395 2.93694 -1.12211 0
M  V30 561 N 53.2116 1.57565 -0.0334293 0
M  V30 562 C 54.6226 1.79746 0.504798 0
M  V30 563 C 54.9736 0.944091 1.71992 0
M  V30 564 O 54.0986 0.155694 2.15839 0
M  V30 565 C 54.6936 3.25997 0.922567 0
M  V30 566 C 53.2526 3.49159 1.40588 0
M  V30 567 C 52.3996 2.74785 0.372633 0
M  V30 568 H 55.3506 1.56565 -0.259436 0
M  V30 569 H 55.3716 3.35945 1.78666 0
M  V30 570 H 54.8836 3.88081 0.0379825 0
M  V30 571 H 52.9846 2.92332 2.31025 0
M  V30 572 H 53.0976 4.57873 1.41028 0
M  V30 573 H 51.4616 2.40391 0.841672 0
M  V30 574 H 52.2446 3.39587 -0.503559 0
M  V30 575 N 54.6897 -0.239769 1.55765 0
M  V30 576 C 56.1057 -0.588624 1.48349 0
M  V30 577 C 56.3057 -1.88005 0.72502 0
M  V30 578 O 55.3617 -2.51186 0.257269 0
M  V30 579 C 56.6747 -0.68474 2.928 0
M  V30 580 C 58.2227 -0.77659 3.03213 0
M  V30 581 C 58.6977 -0.904207 4.48986 0
M  V30 582 N 60.1887 -0.968896 4.52953 0
M  V30 583 C 60.9237 -1.08703 5.63002 0
M  V30 584 N 60.4197 -1.17026 6.82845 0
M  V30 585 N 62.2127 -1.12074 5.50814 0
M  V30 586 H 54.3637 0.607911 2.03515 0
M  V30 587 H 56.6267 0.21083 0.924259 0
M  V30 588 H 56.3327 0.194284 3.51163 0
M  V30 589 H 56.2067 -1.55435 3.43686 0
M  V30 590 H 58.5937 -1.64606 2.44926 0
M  V30 591 H 58.6747 0.118315 2.55526 0
M  V30 592 H 58.3187 -0.0392633 5.07885 0
M  V30 593 H 58.2487 -1.81426 4.9436 0
M  V30 594 H 60.7397 -0.915633 3.6664 0
M  V30 595 H 61.0527 -1.25966 7.62465 0
M  V30 596 H 59.3977 -1.13971 6.85591 0
M  V30 597 H 62.5887 -1.05226 4.5612 0
M  V30 598 H 62.7617 -1.20936 6.36615 0
M  V30 599 N 56.1678 -1.49265 -0.50573 0
M  V30 600 C 57.5838 -1.35923 -0.836486 0
M  V30 601 C 57.7838 -0.388704 -1.97715 0
M  V30 602 O 56.8398 0.181336 -2.51848 0
M  V30 603 C 58.1528 -2.76531 -1.18115 0
M  V30 604 C 59.7008 -2.85197 -1.28964 0
M  V30 605 C 60.1758 -4.26561 -1.66761 0
M  V30 606 N 61.6668 -4.2935 -1.73819 0
M  V30 607 C 62.4018 -5.35693 -2.045 0
M  V30 608 N 61.8978 -6.52287 -2.33438 0
M  V30 609 N 63.6908 -5.23105 -2.05711 0
M  V30 610 H 55.8418 -2.10965 0.246519 0
M  V30 611 H 58.1048 -0.9468 0.0476887 0
M  V30 612 H 57.8108 -3.49226 -0.416398 0
M  V30 613 H 57.6848 -3.11599 -2.1257 0
M  V30 614 H 60.0718 -2.12742 -2.04511 0
M  V30 615 H 60.1528 -2.53718 -0.325704 0
M  V30 616 H 59.7968 -4.99541 -0.917656 0
M  V30 617 H 59.7268 -4.55502 -2.64246 0
M  V30 618 H 62.2178 -3.4526 -1.53635 0
M  V30 619 H 62.5308 -7.29158 -2.56024 0
M  V30 620 H 60.8758 -6.55521 -2.30905 0
M  V30 621 H 64.0668 -4.31026 -1.82577 0
M  V30 622 H 64.2398 -6.06078 -2.29289 0
M  V30 623 N 57.6459 0.756429 -1.3826 0
M  V30 624 C 58.8759 1.54341 -1.3734 0
M  V30 625 C 59.2839 1.89159 0.0393917 0
M  V30 626 O 58.6269 1.5307 1.01565 0
M  V30 627 C 58.6889 2.87238 -2.16182 0
M  V30 628 C 58.3529 2.74973 -3.65019 0
M  V30 629 C 59.3499 2.44962 -4.58574 0
M  V30 630 C 57.0349 2.92515 -4.08338 0
M  V30 631 C 59.0289 2.32642 -5.93428 0
M  V30 632 C 56.7159 2.79815 -5.43274 0
M  V30 633 C 57.7139 2.49921 -6.35632 0
M  V30 634 O 57.4019 2.37275 -7.68086 0
M  V30 635 H 57.1339 0.484281 -0.471643 0
M  V30 636 H 59.6879 0.944152 -1.82414 0
M  V30 637 H 57.9179 3.49342 -1.65822 0
M  V30 638 H 59.6069 3.48731 -2.07705 0
M  V30 639 H 60.3729 2.31081 -4.26412 0
M  V30 640 H 56.2519 3.14781 -3.368 0
M  V30 641 H 59.7959 2.0923 -6.65484 0
M  V30 642 H 55.6929 2.93269 -5.75034 0
M  V30 643 H 56.4609 2.52509 -7.78577 0
M  V30 644 N 59.124 1.23083 0.984299 0
M  V30 645 C 60.072 1.00593 2.09723 0
M  V30 646 C 61.066 -0.0538014 1.69315 0
M  V30 647 O 62.272 0.0993719 1.79725 0
M  V30 648 H 58.647 0.30817 0.685956 0
M  V30 649 H 60.618 1.95012 2.2586 0
M  V30 650 C 59.367 0.609601 3.42314 0
M  V30 651 H 58.69 1.41675 3.73856 0
M  V30 652 H 60.13 0.491726 4.21139 0
M  V30 653 C 58.589 -0.681745 3.2993 0
M  V30 654 O 59.119 -1.73192 3.62446 0
M  V30 655 N 57.325 -0.656178 2.83095 0
M  V30 656 H 56.872 0.198759 2.56832 0
M  V30 657 H 56.83 -1.52044 2.75191 0
M  V30 658 N 60.6021 -1.18246 1.0419 0
M  V30 659 C 61.8791 -1.84121 0.660208 0
M  V30 660 C 62.2591 -1.92778 -0.860221 0
M  V30 661 O 61.6071 -1.45464 -1.76217 0
M  V30 662 C 61.8171 -3.22355 1.33747 0
M  V30 663 C 63.1651 -3.98376 1.46906 0
M  V30 664 O 64.1891 -3.31799 1.29568 0
M  V30 665 O 63.0481 -5.17665 1.75171 0
M  V30 666 H 60.1421 -0.794036 0.231161 0
M  V30 667 H 62.6881 -1.25628 1.14087 0
M  V30 668 H 61.4601 -3.10964 2.37522 0
M  V30 669 H 61.0831 -3.88506 0.845515 0
M  V30 670 N 62.0802 -0.821533 -1.34494 0
M  V30 671 C 63.0302 -0.214793 -2.26986 0
M  V30 672 C 64.0142 0.620125 -1.4847 0
M  V30 673 O 65.2062 0.474933 -1.70509 0
M  V30 674 C 62.3352 0.623566 -3.37589 0
M  V30 675 C 61.4212 -0.221904 -4.23519 0
M  V30 676 N 61.8122 -1.29223 -4.89014 0
M  V30 677 C 60.1102 -0.00600922 -4.46 0
M  V30 678 C 60.8112 -1.80965 -5.52835 0
M  V30 679 N 59.7872 -1.11376 -5.32068 0
M  V30 680 H 63.5892 -1.03354 -2.75128 0
M  V30 681 H 61.1032 -0.6642 -1.48196 0
M  V30 682 H 63.1002 1.0744 -4.02818 0
M  V30 683 H 61.7602 1.44049 -2.90998 0
M  V30 684 H 62.7712 -1.67502 -4.90065 0
M  V30 685 H 59.4482 0.77886 -4.10171 0
M  V30 686 H 60.8382 -2.70502 -6.15043 0
M  V30 687 N 63.5583 1.46682 -0.576371 0
M  V30 688 C 64.9743 1.57822 -0.237562 0
M  V30 689 C 65.1743 1.57237 1.26011 0
M  V30 690 O 64.2303 1.48596 2.04146 0
M  V30 691 C 65.5433 2.87499 -0.881168 0
M  V30 692 C 67.0913 3.01119 -0.85417 0
M  V30 693 C 67.5663 4.33524 -1.4772 0
M  V30 694 N 69.0573 4.40207 -1.44125 0
M  V30 695 C 69.7923 5.4126 -1.89276 0
M  V30 696 N 69.2883 6.49021 -2.42371 0
M  V30 697 N 71.0813 5.32422 -1.80231 0
M  V30 698 H 63.2323 1.45306 -1.54919 0
M  V30 699 H 65.4953 0.692733 -0.647167 0
M  V30 700 H 65.2013 2.9372 -1.93447 0
M  V30 701 H 65.0753 3.75224 -0.385592 0
M  V30 702 H 67.4623 2.94485 0.190491 0
M  V30 703 H 67.5433 2.14887 -1.3877 0
M  V30 704 H 67.1873 4.40916 -2.52103 0
M  V30 705 H 67.1173 5.1852 -0.918947 0
M  V30 706 H 69.6083 3.62931 -1.05307 0
M  V30 707 H 69.9213 7.2233 -2.74698 0
M  V30 708 H 68.2663 6.49858 -2.46393 0
M  V30 709 H 71.4573 4.47137 -1.38514 0
M  V30 710 H 71.6303 6.11034 -2.15735 0
M  V30 711 N 65.0364 0.313813 1.54444 0
M  V30 712 C 66.2844 -0.291099 1.99993 0
M  V30 713 C 66.6054 -1.53418 1.20366 0
M  V30 714 O 65.8754 -1.93544 0.302927 0
M  V30 715 H 64.4554 -0.110552 0.738774 0
M  V30 716 H 67.1174 0.428106 1.9014 0
M  V30 717 H 66.2134 -0.554268 3.07139 0
M  V30 718 N 66.5145 -1.57545 0.0417849 0
M  V30 719 C 67.4445 -2.14009 -0.933929 0
M  V30 720 C 68.4255 -1.05938 -1.33083 0
M  V30 721 O 69.6105 -1.33833 -1.40721 0
M  V30 722 C 66.7405 -2.67747 -2.21199 0
M  V30 723 C 65.6945 -3.80718 -1.95544 0
M  V30 724 C 65.0205 -4.20935 -3.29724 0
M  V30 725 C 66.3205 -5.06258 -1.28452 0
M  V30 726 H 68.0145 -2.95788 -0.463645 0
M  V30 727 H 65.5605 -1.42285 -0.221573 0
M  V30 728 H 67.5135 -3.05886 -2.89848 0
M  V30 729 H 66.2375 -1.83147 -2.70416 0
M  V30 730 H 64.8965 -3.43037 -1.2931 0
M  V30 731 H 64.5445 -3.33298 -3.76724 0
M  V30 732 H 64.2445 -4.9707 -3.13361 0
M  V30 733 H 65.7685 -4.61666 -3.9962 0
M  V30 734 H 67.1825 -5.41903 -1.8712 0
M  V30 735 H 65.5795 -5.87475 -1.22445 0
M  V30 736 H 66.6495 -4.84207 -0.259219 0
M  V30 737 N 67.9926 0.231505 -1.5589 0
M  V30 738 C 69.2386 0.954429 -1.79617 0
M  V30 739 C 69.5936 1.82367 -0.613199 0
M  V30 740 O 68.8866 1.87524 0.393094 0
M  V30 741 C 69.0806 1.83577 -3.0665 0
M  V30 742 C 68.9096 1.05334 -4.3719 0
M  V30 743 C 67.6796 0.75225 -4.99669 0
M  V30 744 C 69.8776 0.423444 -5.12554 0
M  V30 745 N 67.8596 -0.052627 -6.13877 0
M  V30 746 C 69.2306 -0.245287 -6.19515 0
M  V30 747 C 71.2856 0.335466 -4.96769 0
M  V30 748 C 69.9886 -0.993566 -7.12405 0
M  V30 749 C 72.0146 -0.399321 -5.9005 0
M  V30 750 C 71.3766 -1.05663 -6.9643 0
M  V30 751 H 67.4756 0.329846 -0.709031 0
M  V30 752 H 70.0596 0.226172 -1.93382 0
M  V30 753 H 68.2306 2.53592 -2.94186 0
M  V30 754 H 69.9626 2.49541 -3.18608 0
M  V30 755 H 66.7176 1.06783 -4.61405 0
M  V30 756 H 67.1416 -0.443609 -6.75545 0
M  V30 757 H 71.7836 0.829311 -4.14587 0
M  V30 758 H 69.5016 -1.49896 -7.94076 0
M  V30 759 H 73.0876 -0.468265 -5.79913 0
M  V30 760 H 71.9676 -1.61612 -7.67366 0
M  V30 761 N 69.4707 1.49531 0.497807 0
M  V30 762 C 70.7187 1.58865 1.24926 0
M  V30 763 C 71.0397 0.278721 1.92998 0
M  V30 764 O 70.3097 -0.702144 1.82885 0
M  V30 765 H 68.8897 0.585343 0.464094 0
M  V30 766 H 71.5517 1.86174 0.57666 0
M  V30 767 H 70.6477 2.38633 2.01149 0
M  V30 768 N 70.9488 -0.749086 1.3866 0
M  V30 769 C 72.1788 -1.53611 1.38157 0
M  V30 770 C 72.5868 -1.89177 -0.0293595 0
M  V30 771 O 71.9298 -1.53606 -1.00752 0
M  V30 772 C 71.9918 -2.86087 2.17702 0
M  V30 773 C 71.6558 -2.73034 3.66472 0
M  V30 774 C 72.6528 -2.42526 4.59866 0
M  V30 775 C 70.3378 -2.90345 4.09884 0
M  V30 776 C 72.3318 -2.29492 5.94653 0
M  V30 777 C 70.0188 -2.7693 5.4475 0
M  V30 778 C 71.0168 -2.46547 6.36949 0
M  V30 779 O 70.7048 -2.33199 7.69333 0
M  V30 780 H 70.4368 -0.481773 0.474205 0
M  V30 781 H 72.9908 -0.934465 1.82912 0
M  V30 782 H 71.2208 -3.48458 1.67672 0
M  V30 783 H 72.9098 -3.47625 2.09551 0
M  V30 784 H 73.6758 -2.28816 4.27631 0
M  V30 785 H 69.5548 -3.1299 3.38464 0
M  V30 786 H 73.0988 -2.05698 6.66584 0
M  V30 787 H 68.9958 -2.90215 5.76581 0
M  V30 788 H 69.7638 -2.48376 7.79905 0
M  V30 789 N 72.4269 -1.23603 -0.977757 0
M  V30 790 C 73.6549 -1.09646 -1.75458 0
M  V30 791 C 74.0699 0.351859 -1.85492 0
M  V30 792 O 73.4269 1.24327 -1.336 0
M  V30 793 C 73.4779 -1.71895 -3.18016 0
M  V30 794 O 73.1989 -3.11063 -3.08498 0
M  V30 795 C 74.6999 -1.63415 -4.12081 0
M  V30 796 H 71.9199 -0.38359 -0.550545 0
M  V30 797 H 74.4639 -1.63507 -1.22824 0
M  V30 798 H 72.6189 -1.22061 -3.67668 0
M  V30 799 H 73.0329 -3.41305 -3.9826 0
M  V30 800 H 74.5069 -2.11669 -5.09804 0
M  V30 801 H 74.9839 -0.593462 -4.35172 0
M  V30 802 H 75.5899 -2.12628 -3.68334 0
M  V30 803 N 73.905 1.17692 -1.04816 0
M  V30 804 C 75.153 1.87488 -0.754497 0
M  V30 805 C 75.474 1.81205 0.720407 0
M  V30 806 O 74.744 1.23544 1.52032 0
M  V30 807 H 73.324 0.694101 -0.276102 0
M  V30 808 H 75.986 1.42793 -1.32651 0
M  V30 809 H 75.082 2.93328 -1.06606 0
M  V30 810 N 75.3831 0.828654 1.34056 0
M  V30 811 C 76.3131 0.269443 2.3194 0
M  V30 812 C 77.2941 -0.617247 1.58506 0
M  V30 813 O 78.4791 -0.542931 1.86456 0
M  V30 814 C 75.6091 -0.564793 3.42677 0
M  V30 815 C 74.5631 0.225241 4.27407 0
M  V30 816 C 73.8891 -0.7321 5.29664 0
M  V30 817 C 75.1891 1.43663 5.02154 0
M  V30 818 H 76.8831 1.08728 2.7896 0
M  V30 819 H 74.4291 0.524283 1.34117 0
M  V30 820 H 76.3821 -0.966233 4.10173 0
M  V30 821 H 75.1061 -1.41574 2.9432 0
M  V30 822 H 73.7651 0.608117 3.61521 0
M  V30 823 H 73.4131 -1.57916 4.77568 0
M  V30 824 H 73.1131 -0.20767 5.87233 0
M  V30 825 H 74.6371 -1.13128 6.00029 0
M  V30 826 H 76.0511 1.1089 5.62473 0
M  V30 827 H 74.4481 1.89711 5.69324 0
M  V30 828 H 75.5181 2.21181 4.31517 0
M  V30 829 N 76.8612 -1.46375 0.584142 0
M  V30 830 C 78.0912 -2.06461 0.0758195 0
M  V30 831 C 78.4992 -1.43322 -1.23512 0
M  V30 832 O 77.8422 -0.533216 -1.75791 0
M  V30 833 C 77.9042 -3.59131 -0.162773 0
M  V30 834 C 77.5682 -4.4447 1.06279 0
M  V30 835 C 78.5652 -4.80918 1.97519 0
M  V30 836 C 76.2502 -4.85584 1.28504 0
M  V30 837 C 78.2442 -5.57309 3.09331 0
M  V30 838 C 75.9312 -5.61734 2.4062 0
M  V30 839 C 76.9292 -5.9751 3.30863 0
M  V30 840 O 76.6172 -6.72121 4.41032 0
M  V30 841 H 76.3492 -0.673745 0.0551725 0
M  V30 842 H 78.9032 -1.88969 0.804984 0
M  V30 843 H 77.1332 -3.74936 -0.946565 0
M  V30 844 H 78.8222 -4.0114 -0.619782 0
M  V30 845 H 79.5882 -4.49732 1.81565 0
M  V30 846 H 75.4672 -4.57187 0.591702 0
M  V30 847 H 79.0112 -5.85152 3.79793 0
M  V30 848 H 74.9082 -5.92334 2.56537 0
M  V30 849 H 75.6762 -6.90547 4.39417 0
M  V30 850 N 78.3393 -0.321999 -1.54275 0
M  V30 851 C 79.2863 0.544664 -2.24281 0
M  V30 852 C 80.2563 1.1129 -1.23303 0
M  V30 853 O 81.4413 1.15354 -1.51981 0
M  V30 854 C 78.5813 1.70045 -3.00298 0
M  V30 855 C 77.6943 1.16159 -4.1609 0
M  V30 856 C 76.8293 2.28293 -4.79641 0
M  V30 857 C 75.8683 1.71648 -5.8754 0
M  V30 858 N 75.0053 2.77438 -6.44959 0
M  V30 859 H 79.8453 -0.0588907 -2.97942 0
M  V30 860 H 77.3823 -0.0408345 -1.47043 0
M  V30 861 H 79.3403 2.38054 -3.42616 0
M  V30 862 H 77.9703 2.27531 -2.28975 0
M  V30 863 H 77.0223 0.373092 -3.78566 0
M  V30 864 H 78.3343 0.707087 -4.93763 0
M  V30 865 H 77.4883 3.0421 -5.2492 0
M  V30 866 H 76.2273 2.77079 -4.01346 0
M  V30 867 H 75.2323 0.942282 -5.41665 0
M  V30 868 H 76.4573 1.23741 -6.67731 0
M  V30 869 H 74.4033 3.25519 -5.69538 0
M  V30 870 H 74.3203 2.36547 -7.1804 0
M  V30 871 H 75.5883 3.53189 -6.94894 0
M  V30 872 N 79.8174 1.5752 -0.0501392 0
M  V30 873 C 81.0654 1.9227 0.622642 0
M  V30 874 C 81.3864 0.929083 1.71444 0
M  V30 875 O 80.6564 -0.0262186 1.95882 0
M  V30 876 H 79.2364 0.709739 0.232981 0
M  V30 877 H 81.8984 1.94628 -0.102898 0
M  V30 878 H 80.9944 2.93479 1.06191 0
M  V30 879 N 81.2955 -0.223234 1.56011 0
M  V30 880 C 82.5415 -0.949279 1.79211 0
M  V30 881 C 82.8745 -1.84054 0.619494 0
M  V30 882 O 82.1495 -1.90726 -0.381317 0
M  V30 883 C 82.4325 -1.78965 3.12479 0
M  V30 884 C 82.2855 -0.924997 4.40186 0
M  V30 885 C 83.6045 -2.76774 3.42175 0
M  V30 886 H 80.7235 -0.343676 0.651963 0
M  V30 887 H 83.3655 -0.218253 1.88742 0
M  V30 888 H 81.5155 -2.41291 3.04485 0
M  V30 889 H 83.1875 -0.318615 4.60198 0
M  V30 890 H 81.4305 -0.230344 4.33188 0
M  V30 891 H 82.1015 -1.54735 5.29869 0
M  V30 892 H 84.5775 -2.24584 3.50287 0
M  V30 893 H 83.4535 -3.32678 4.36597 0
M  V30 894 H 83.7145 -3.54429 2.64258 0
M  V30 895 N 82.7736 -1.49793 -0.48987 0
M  V30 896 C 84.1846 -1.52914 -1.07118 0
M  V30 897 C 84.5356 -0.321738 -1.93544 0
M  V30 898 O 83.6606 0.567338 -2.08831 0
M  V30 899 C 84.2556 -2.771 -1.94938 0
M  V30 900 C 82.8146 -2.82963 -2.48212 0
M  V30 901 C 81.9616 -2.46972 -1.26096 0
M  V30 902 H 84.9126 -1.56329 -0.273289 0
M  V30 903 H 84.9336 -2.57892 -2.79771 0
M  V30 904 H 84.4456 -3.64959 -1.32009 0
M  V30 905 H 82.5466 -1.99411 -3.14748 0
M  V30 906 H 82.6596 -3.85406 -2.84603 0
M  V30 907 H 81.0236 -1.98994 -1.58976 0
M  V30 908 H 81.8066 -3.37118 -0.648581 0
M  V30 909 N 84.2517 0.741722 -1.39055 0
M  V30 910 C 85.4977 1.50336 -1.36113 0
M  V30 911 C 85.8307 1.94148 0.0450796 0
M  V30 912 O 85.1057 1.66301 1.00868 0
M  V30 913 C 85.3887 2.74773 -2.32749 0
M  V30 914 C 85.2417 2.37023 -3.82283 0
M  V30 915 C 86.5607 3.76846 -2.27322 0
M  V30 916 H 83.6797 0.545351 -0.495743 0
M  V30 917 H 86.3217 0.848624 -1.69995 0
M  V30 918 H 84.4717 3.30639 -2.03986 0
M  V30 919 H 86.1437 1.8684 -4.21768 0
M  V30 920 H 84.3867 1.69334 -3.99385 0
M  V30 921 H 85.0577 3.26104 -4.45376 0
M  V30 922 H 87.5337 3.30548 -2.5274 0
M  V30 923 H 86.4097 4.6159 -2.97028 0
M  V30 924 H 86.6707 4.23286 -1.27599 0
M  V30 925 N 85.7298 1.2412 0.971189 0
M  V30 926 C 86.9548 1.10667 1.75407 0
M  V30 927 C 87.3798 -0.337048 1.85056 0
M  V30 928 O 86.7378 -1.24396 1.31892 0
M  V30 929 C 86.7858 1.74726 3.15441 0
M  V30 930 O 85.8898 1.01566 3.99697 0
M  V30 931 H 85.2308 0.387341 0.539317 0
M  V30 932 H 87.7608 1.64358 1.2185 0
M  V30 933 H 87.7708 1.80341 3.6598 0
M  V30 934 H 86.4458 2.79773 3.07734 0
M  V30 935 H 85.0228 1.03713 3.58187 0
M  V30 936 N 87.2079 -1.17134 1.05439 0
M  V30 937 C 88.4539 -1.87733 0.767077 0
M  V30 938 C 88.7869 -1.8098 -0.704253 0
M  V30 939 O 88.0619 -1.21951 -1.5152 0
M  V30 940 C 88.3449 -3.37659 1.25133 0
M  V30 941 C 88.1979 -3.53149 2.78578 0
M  V30 942 C 89.5169 -4.31768 0.852324 0
M  V30 943 H 86.6359 -0.681687 0.280129 0
M  V30 944 H 89.2779 -1.37732 1.30881 0
M  V30 945 H 87.4279 -3.80373 0.790469 0
M  V30 946 H 89.0999 -3.19434 3.32806 0
M  V30 947 H 87.3429 -2.95345 3.17732 0
M  V30 948 H 88.0139 -4.58403 3.07523 0
M  V30 949 H 90.4899 -3.96909 1.24911 0
M  V30 950 H 89.3659 -5.35199 1.21873 0
M  V30 951 H 89.6269 -4.41429 -0.243485 0
M  V30 952 N 88.686 -0.835752 -1.33615 0
M  V30 953 C 89.618 -0.224151 -2.28101 0
M  V30 954 C 90.631 0.593331 -1.51603 0
M  V30 955 O 91.82 0.420911 -1.73466 0
M  V30 956 C 88.92 0.703309 -3.31522 0
M  V30 957 C 88.093 -0.0741528 -4.37337 0
M  V30 958 C 87.152 0.776176 -5.20444 0
M  V30 959 O 86.178 0.216506 -5.68788 0
M  V30 960 N 87.38 2.09401 -5.41416 0
M  V30 961 H 90.145 -1.03598 -2.81225 0
M  V30 962 H 87.706 -0.69392 -1.46275 0
M  V30 963 H 89.698 1.27707 -3.84022 0
M  V30 964 H 88.268 1.41585 -2.78698 0
M  V30 965 H 87.488 -0.82928 -3.85378 0
M  V30 966 H 88.776 -0.608863 -5.05144 0
M  V30 967 H 88.174 2.57229 -5.03835 0
M  V30 968 H 86.731 2.61633 -5.96985 0
M  V30 969 N 90.1641 1.46063 -0.591896 0
M  V30 970 C 91.3921 2.06717 -0.0868936 0
M  V30 971 C 91.8071 1.43916 1.22203 0
M  V30 972 O 91.1641 0.547698 1.74088 0
M  V30 973 C 91.2151 3.6142 0.0758725 0
M  V30 974 O 90.9361 4.21874 -1.18126 0
M  V30 975 C 92.4371 4.39025 0.61416 0
M  V30 976 H 89.6571 0.668162 -0.0616518 0
M  V30 977 H 92.2011 1.8755 -0.815175 0
M  V30 978 H 90.3561 3.79983 0.754413 0
M  V30 979 H 90.7701 5.14861 -1.00092 0
M  V30 980 H 92.2441 5.4783 0.677193 0
M  V30 981 H 92.7211 4.07708 1.63312 0
M  V30 982 H 93.3271 4.2529 -0.0298142 0
M  V30 983 N 91.6422 0.330177 1.54103 0
M  V30 984 C 92.8702 -0.272179 2.05102 0
M  V30 985 C 93.2852 -1.45267 1.20595 0
M  V30 986 O 92.6422 -1.8094 0.238144 0
M  V30 987 C 92.6932 -0.70023 3.54653 0
M  V30 988 O 92.4142 0.433301 4.35952 0
M  V30 989 C 93.9152 -1.3647 4.21771 0
M  V30 990 H 91.1352 -0.0549159 0.668749 0
M  V30 991 H 93.6792 0.478285 1.98828 0
M  V30 992 H 91.8342 -1.40066 3.61193 0
M  V30 993 H 92.2482 0.0947539 5.24414 0
M  V30 994 H 93.7222 -1.61509 5.27843 0
M  V30 995 H 94.1992 -2.31409 3.73292 0
M  V30 996 H 94.8052 -0.706675 4.19388 0
M  V30 997 N 93.1203 -1.57491 0.0584922 0
M  V30 998 C 94.3683 -1.92597 -0.612436 0
M  V30 999 C 94.6893 -0.938162 -1.70949 0
M  V30 1000 O 93.9593 0.0158301 -1.95894 0
M  V30 1001 H 92.5393 -0.710964 -0.229214 0
M  V30 1002 H 95.2013 -1.94571 0.113218 0
M  V30 1003 H 94.2973 -2.94038 -1.04633 0
M  V30 1004 N 94.5984 0.214957 -1.56127 0
M  V30 1005 C 95.5314 1.29382 -1.87977 0
M  V30 1006 C 96.5094 1.44897 -0.737807 0
M  V30 1007 O 97.6934 1.60605 -0.986833 0
M  V30 1008 C 94.8204 2.66325 -2.09258 0
M  V30 1009 C 93.8664 2.67789 -3.31951 0
M  V30 1010 S 94.6994 2.21198 -4.8768 0
M  V30 1011 C 95.8554 3.60003 -5.12004 0
M  V30 1012 H 96.0884 1.02173 -2.79192 0
M  V30 1013 H 93.6214 0.417516 -1.48648 0
M  V30 1014 H 95.5794 3.45162 -2.22201 0
M  V30 1015 H 94.2404 2.90755 -1.18829 0
M  V30 1016 H 93.4334 3.68436 -3.43906 0
M  V30 1017 H 93.0354 1.9702 -3.17898 0
M  V30 1018 H 95.3274 4.55739 -5.01307 0
M  V30 1019 H 96.2704 3.52959 -6.13861 0
M  V30 1020 H 96.6784 3.53996 -4.39712 0
M  V30 1021 N 96.0765 1.50051 0.48192 0
M  V30 1022 C 97.3245 1.60181 1.23234 0
M  V30 1023 C 97.6455 0.299176 1.92691 0
M  V30 1024 O 96.9155 -0.682708 1.83619 0
M  V30 1025 H 95.4955 0.590232 0.457859 0
M  V30 1026 H 98.1575 1.86775 0.556881 0
M  V30 1027 H 97.2535 2.40753 1.98607 0
M  V30 1028 N 97.5546 -0.734337 1.39446 0
M  V30 1029 C 98.7826 -1.52358 1.39981 0
M  V30 1030 C 99.1976 -1.88799 -0.0054975 0
M  V30 1031 O 98.5546 -1.54146 -0.976998 0
M  V30 1032 C 98.6056 -2.81072 2.27333 0
M  V30 1033 O 98.3266 -2.46178 3.62392 0
M  V30 1034 C 99.8276 -3.75096 2.36259 0
M  V30 1035 H 97.0476 -0.470806 0.478103 0
M  V30 1036 H 99.5916 -0.907339 1.83269 0
M  V30 1037 H 97.7466 -3.39026 1.87457 0
M  V30 1038 H 98.1606 -3.28866 4.08592 0
M  V30 1039 H 99.6346 -4.62305 3.01626 0
M  V30 1040 H 100.112 -4.16892 1.38194 0
M  V30 1041 H 100.718 -3.23061 2.76608 0
M  V30 1042 N 99.0327 -1.24633 -0.964593 0
M  V30 1043 C 100.444 -1.08045 -1.5226 0
M  V30 1044 C 100.795 0.347116 -1.93105 0
M  V30 1045 O 99.9197 1.23588 -1.77637 0
M  V30 1046 C 100.515 -1.95514 -2.76695 0
M  V30 1047 C 99.0737 -1.8314 -3.28841 0
M  V30 1048 C 98.2207 -1.90262 -2.01732 0
M  V30 1049 H 101.172 -1.38064 -0.782553 0
M  V30 1050 H 101.193 -1.48925 -3.50145 0
M  V30 1051 H 100.705 -2.99407 -2.46936 0
M  V30 1052 H 98.8057 -0.82092 -3.63444 0
M  V30 1053 H 98.9187 -2.67406 -3.97531 0
M  V30 1054 H 97.2827 -1.34027 -2.16584 0
M  V30 1055 H 98.0657 -2.9574 -1.74334 0
M  V30 1056 N 100.511 1.16574 -1.06058 0
M  V30 1057 C 101.736 1.91493 -0.796562 0
M  V30 1058 C 102.161 1.76773 0.642868 0
M  V30 1059 O 101.519 1.09142 1.44768 0
M  V30 1060 C 101.567 3.40293 -1.19303 0
M  V30 1061 O 100.671 4.11074 -0.330394 0
M  V30 1062 H 100.012 0.596678 -0.291326 0
M  V30 1063 H 102.542 1.47708 -1.41575 0
M  V30 1064 H 102.552 3.91057 -1.16356 0
M  V30 1065 H 101.227 3.50326 -2.24153 0
M  V30 1066 H 99.8038 3.70513 -0.421225 0
M  V30 1067 N 101.989 0.842826 1.3317 0
M  V30 1068 C 102.952 0.284065 2.27433 0
M  V30 1069 C 103.952 -0.54948 1.5112 0
M  V30 1070 O 105.142 -0.362699 1.70382 0
M  V30 1071 C 102.274 -0.599384 3.35589 0
M  V30 1072 H 103.467 1.11589 2.78366 0
M  V30 1073 H 101.02 0.616221 1.4364 0
M  V30 1074 H 101.755 -1.45349 2.89904 0
M  V30 1075 H 101.54 -0.00291266 3.921 0
M  V30 1076 H 103.03 -0.983488 4.05854 0
M  V30 1077 N 103.467 -1.45747 0.599634 0
M  V30 1078 C 104.43 -2.28917 -0.113835 0
M  V30 1079 C 105.43 -1.3933 -0.802729 0
M  V30 1080 O 106.62 -1.61534 -0.652103 0
M  V30 1081 C 103.752 -3.20152 -1.17114 0
M  V30 1082 H 104.945 -2.93478 0.617289 0
M  V30 1083 H 102.498 -1.52137 0.358327 0
M  V30 1084 H 103.233 -2.60374 -1.93329 0
M  V30 1085 H 103.018 -3.86133 -0.681468 0
M  V30 1086 H 104.508 -3.82708 -1.67105 0
M  V30 1087 N 104.945 -0.338344 -1.53925 0
M  V30 1088 C 106.194 0.260732 -2.00008 0
M  V30 1089 C 106.507 1.52073 -1.23017 0
M  V30 1090 O 107.713 2.19672 -1.5955 0
M  V30 1091 C 106.169 0.51515 -3.56194 0
M  V30 1092 C 105.777 -0.728645 -4.42035 0
M  V30 1093 C 107.521 1.07337 -4.10706 0
M  V30 1094 C 105.428 -0.445315 -5.89721 0
M  V30 1095 H 104.358 0.101205 -0.747177 0
M  V30 1096 H 107.009 -0.452866 -1.77824 0
M  V30 1097 H 105.391 1.28932 -3.74423 0
M  V30 1098 H 106.565 -1.50352 -4.35581 0
M  V30 1099 H 104.88 -1.20813 -3.98489 0
M  V30 1100 H 107.477 1.30022 -5.18651 0
M  V30 1101 H 107.82 2.0273 -3.63602 0
M  V30 1102 H 108.353 0.360034 -3.96167 0
M  V30 1103 H 105.092 -1.36883 -6.41049 0
M  V30 1104 H 104.612 0.291569 -5.99091 0
M  V30 1105 H 106.291 -0.0606218 -6.46972 0
M  V30 1106 N 106.423 1.57458 -0.0668435 0
M  V30 1107 C 107.669 1.93587 0.6043 0
M  V30 1108 C 108.002 0.946722 1.69561 0
M  V30 1109 O 107.277 -0.0248516 1.94484 0
M  V30 1110 C 107.56 3.40014 1.18585 0
M  V30 1111 C 107.413 4.49685 0.101529 0
M  V30 1112 C 108.732 3.87154 2.09284 0
M  V30 1113 H 105.851 0.703958 0.218202 0
M  V30 1114 H 108.493 1.89542 -0.131804 0
M  V30 1115 H 106.643 3.43592 1.81319 0
M  V30 1116 H 108.315 4.5823 -0.531279 0
M  V30 1117 H 106.558 4.30059 -0.568487 0
M  V30 1118 H 107.229 5.49266 0.54874 0
M  V30 1119 H 109.705 3.85551 1.56491 0
M  V30 1120 H 108.581 4.90231 2.46911 0
M  V30 1121 H 108.842 3.2481 2.99918 0
M  V30 1122 N 107.901 -0.206675 1.56239 0
M  V30 1123 C 109.147 -0.930218 1.80208 0
M  V30 1124 C 109.48 -1.83387 0.638981 0
M  V30 1125 O 108.755 -1.91119 -0.361066 0
M  V30 1126 C 109.038 -1.75641 3.1436 0
M  V30 1127 C 108.891 -0.878257 4.41142 0
M  V30 1128 C 110.21 -2.73129 3.45092 0
M  V30 1129 H 107.329 -0.336742 0.655571 0
M  V30 1130 H 109.971 -0.198222 1.88963 0
M  V30 1131 H 108.121 -2.38048 3.07027 0
M  V30 1132 H 109.793 -0.269787 4.6051 0
M  V30 1133 H 108.036 -0.184385 4.33408 0
M  V30 1134 H 108.707 -1.49106 5.3148 0
M  V30 1135 H 111.183 -2.20856 3.52649 0
M  V30 1136 H 110.059 -3.28028 4.40101 0
M  V30 1137 H 110.32 -3.51606 2.68003 0
M  V30 1138 N 109.379 -1.50304 -0.473955 0
M  V30 1139 C 110.289 -1.7174 -1.5982 0
M  V30 1140 C 111.305 -0.600457 -1.63311 0
M  V30 1141 O 112.481 -0.878441 -1.81233 0
M  V30 1142 C 109.546 -1.80427 -2.96052 0
M  V30 1143 C 108.607 -3.04148 -3.02972 0
M  V30 1144 C 107.84 -3.12411 -4.32706 0
M  V30 1145 O 108.063 -2.27542 -5.23049 0
M  V30 1146 O 106.997 -4.05113 -4.45159 0
M  V30 1147 H 110.823 -2.67035 -1.44657 0
M  V30 1148 H 108.408 -1.34366 -0.653148 0
M  V30 1149 H 110.29 -1.88338 -3.7697 0
M  V30 1150 H 108.965 -0.883156 -3.11419 0
M  V30 1151 H 107.872 -3.0174 -2.21142 0
M  V30 1152 H 109.205 -3.95829 -2.92541 0
M  V30 1153 N 110.857 0.726932 -1.39834 0
M  V30 1154 C 111.767 1.87131 -1.41489 0
M  V30 1155 C 112.783 1.71239 -0.308757 0
M  V30 1156 O 113.959 1.93701 -0.551529 0
M  V30 1157 C 111.024 3.22811 -1.26468 0
M  V30 1158 C 110.085 3.51039 -2.47124 0
M  V30 1159 C 109.318 4.80245 -2.3281 0
M  V30 1160 O 109.541 5.54537 -1.33585 0
M  V30 1161 O 108.475 5.08554 -3.21957 0
M  V30 1162 H 112.301 1.8869 -2.3797 0
M  V30 1163 H 109.886 0.875837 -1.21035 0
M  V30 1164 H 111.768 4.03877 -1.20255 0
M  V30 1165 H 110.443 3.22005 -0.330862 0
M  V30 1166 H 109.35 2.70027 -2.58914 0
M  V30 1167 H 110.683 3.56632 -3.39227 0
M  V30 1168 N 112.336 1.25143 0.95797 0
M  V30 1169 C 113.266 1.07711 2.07173 0
M  V30 1170 C 114.247 -0.0128462 1.70095 0
M  V30 1171 O 115.432 0.156061 1.93572 0
M  V30 1172 C 112.562 0.691503 3.40346 0
M  V30 1173 C 111.516 1.73132 3.9142 0
M  V30 1174 C 110.842 1.20049 5.21049 0
M  V30 1175 C 112.142 3.1294 4.1817 0
M  V30 1176 H 113.836 2.00873 2.22014 0
M  V30 1177 H 111.382 0.967191 1.06684 0
M  V30 1178 H 113.335 0.556505 4.17709 0
M  V30 1179 H 112.059 -0.275819 3.25433 0
M  V30 1180 H 110.718 1.8547 3.16222 0
M  V30 1181 H 110.366 0.223499 5.02503 0
M  V30 1182 H 110.066 1.89545 5.56189 0
M  V30 1183 H 111.59 1.07782 6.01012 0
M  V30 1184 H 113.004 3.03775 4.86203 0
M  V30 1185 H 111.401 3.79875 4.64559 0
M  V30 1186 H 112.471 3.6025 3.24573 0
M  V30 1187 N 113.814 -1.1601 1.06675 0
M  V30 1188 C 115.06 -1.86909 0.786945 0
M  V30 1189 C 115.393 -1.81717 -0.685018 0
M  V30 1190 O 114.668 -1.23551 -1.50218 0
M  V30 1191 C 114.951 -3.36313 1.28707 0
M  V30 1192 C 114.804 -3.50175 2.82308 0
M  V30 1193 C 116.123 -4.3084 0.898071 0
M  V30 1194 H 113.242 -0.678677 0.287343 0
M  V30 1195 H 115.884 -1.36336 1.32334 0
M  V30 1196 H 114.034 -3.79513 0.830768 0
M  V30 1197 H 115.706 -3.15886 3.36175 0
M  V30 1198 H 113.949 -2.91959 3.20847 0
M  V30 1199 H 114.62 -4.55116 3.12368 0
M  V30 1200 H 117.096 -3.95561 1.29114 0
M  V30 1201 H 115.972 -5.33876 1.27543 0
M  V30 1202 H 116.233 -4.41662 -0.196651 0
M  V30 1203 N 115.292 -0.849877 -1.32721 0
M  V30 1204 C 116.708 -0.539102 -1.50219 0
M  V30 1205 C 116.908 0.931271 -1.78689 0
M  V30 1206 O 115.964 1.71455 -1.85363 0
M  V30 1207 C 117.277 -1.42196 -2.64954 0
M  V30 1208 C 118.825 -1.42189 -2.78839 0
M  V30 1209 C 119.3 -2.28985 -3.96648 0
M  V30 1210 N 120.791 -2.26754 -4.03902 0
M  V30 1211 C 121.526 -2.90644 -4.94281 0
M  V30 1212 N 121.022 -3.63629 -5.897 0
M  V30 1213 N 122.815 -2.80057 -4.87365 0
M  V30 1214 H 114.966 -1.80156 -1.12506 0
M  V30 1215 H 117.229 -0.769217 -0.554085 0
M  V30 1216 H 116.935 -2.46733 -2.50631 0
M  V30 1217 H 116.809 -1.10591 -3.60624 0
M  V30 1218 H 119.196 -0.38419 -2.92588 0
M  V30 1219 H 119.277 -1.77807 -1.83898 0
M  V30 1220 H 118.921 -3.32819 -3.83658 0
M  V30 1221 H 118.851 -1.90702 -4.90857 0
M  V30 1222 H 121.342 -1.73688 -3.3562 0
M  V30 1223 H 121.655 -4.09558 -6.55349 0
M  V30 1224 H 120 -3.67737 -5.89741 0
M  V30 1225 H 123.191 -2.22593 -4.11789 0
M  V30 1226 H 123.364 -3.30132 -5.57599 0
M  V30 1227 N 116.77 1.45427 -0.607355 0
M  V30 1228 C 117.7 2.3329 0.0989352 0
M  V30 1229 C 118.681 1.46816 0.859007 0
M  V30 1230 O 119.866 1.75588 0.829604 0
M  V30 1231 C 116.996 3.29518 1.09705 0
M  V30 1232 C 115.95 4.25626 0.450206 0
M  V30 1233 C 115.276 5.11542 1.55655 0
M  V30 1234 C 116.576 5.18505 -0.628455 0
M  V30 1235 H 118.27 2.92595 -0.634716 0
M  V30 1236 H 115.816 1.40696 -0.306681 0
M  V30 1237 H 117.769 3.89855 1.59971 0
M  V30 1238 H 116.493 2.68372 1.86129 0
M  V30 1239 H 115.152 3.66586 -0.0315886 0
M  V30 1240 H 114.8 4.46765 2.31107 0
M  V30 1241 H 114.5 5.76647 1.12925 0
M  V30 1242 H 116.024 5.74748 2.06148 0
M  V30 1243 H 117.438 5.72916 -0.209877 0
M  V30 1244 H 115.835 5.92085 -0.977489 0
M  V30 1245 H 116.905 4.60948 -1.50514 0
M  V30 1246 N 118.248 0.346503 1.53744 0
M  V30 1247 C 119.496 -0.248612 2.00565 0
M  V30 1248 C 119.817 -1.5083 1.23593 0
M  V30 1249 O 119.087 -1.92858 0.343912 0
M  V30 1250 H 117.667 -0.0948564 0.740953 0
M  V30 1251 H 120.329 0.468341 1.89189 0
M  V30 1252 H 119.425 -0.488994 3.08245 0
M  V30 1253 N 119.726 -1.57421 0.075193 0
M  V30 1254 C 120.689 -2.11791 -0.876203 0
M  V30 1255 C 121.689 -1.04268 -1.22412 0
M  V30 1256 O 122.879 -1.30242 -1.15684 0
M  V30 1257 C 120.011 -2.62207 -2.17854 0
M  V30 1258 H 121.204 -2.9716 -0.40444 0
M  V30 1259 H 118.757 -1.55333 -0.173557 0
M  V30 1260 H 119.492 -1.803 -2.6956 0
M  V30 1261 H 119.277 -3.40802 -1.93897 0
M  V30 1262 H 120.767 -3.04335 -2.85955 0
M  V30 1263 N 121.204 0.198386 -1.56346 0
M  V30 1264 C 122.62 0.549085 -1.49857 0
M  V30 1265 C 122.82 1.86016 -0.774611 0
M  V30 1266 O 121.876 2.50416 -0.323776 0
M  V30 1267 C 123.189 0.606868 -2.94512 0
M  V30 1268 C 124.737 0.695925 -3.05165 0
M  V30 1269 C 125.212 0.784848 -4.51225 0
M  V30 1270 N 126.703 0.848463 -4.55363 0
M  V30 1271 C 127.438 0.937378 -5.65686 0
M  V30 1272 N 126.934 0.9888 -6.85707 0
M  V30 1273 N 128.727 0.974312 -5.53592 0
M  V30 1274 H 120.878 -0.661655 -2.01831 0
M  V30 1275 H 123.141 -0.235261 -0.918344 0
M  V30 1276 H 122.847 -0.28732 -3.50524 0
M  V30 1277 H 122.721 1.46268 -3.47686 0
M  V30 1278 H 125.108 1.58055 -2.49204 0
M  V30 1279 H 125.189 -0.186022 -2.55123 0
M  V30 1280 H 124.833 -0.0954072 -5.0781 0
M  V30 1281 H 124.763 1.68255 -4.98997 0
M  V30 1282 H 127.254 0.818103 -3.68938 0
M  V30 1283 H 127.567 1.05707 -7.65536 0
M  V30 1284 H 125.912 0.957534 -6.88372 0
M  V30 1285 H 129.103 0.930954 -4.58749 0
M  V30 1286 H 129.276 1.04015 -6.39597 0
M  V30 1287 N 122.682 1.50554 0.465978 0
M  V30 1288 C 123.928 1.62038 1.21949 0
M  V30 1289 C 124.261 0.322116 1.9151 0
M  V30 1290 O 123.536 -0.676723 1.82348 0
M  V30 1291 C 123.819 2.80421 2.25912 0
M  V30 1292 C 123.672 4.20144 1.60622 0
M  V30 1293 C 124.991 2.94354 3.27176 0
M  V30 1294 H 122.11 0.589752 0.441998 0
M  V30 1295 H 124.752 1.82956 0.51257 0
M  V30 1296 H 122.902 2.62717 2.86203 0
M  V30 1297 H 124.574 4.49449 1.03889 0
M  V30 1298 H 122.817 4.24165 0.909211 0
M  V30 1299 H 123.488 4.98914 2.36196 0
M  V30 1300 H 125.964 3.10578 2.76913 0
M  V30 1301 H 124.84 3.788 3.97242 0
M  V30 1302 H 125.101 2.05186 3.916 0
M  V30 1303 N 124.16 -0.719506 1.40217 0
M  V30 1304 C 125.09 -1.8465 1.42922 0
M  V30 1305 C 126.071 -1.67599 0.29062 0
M  V30 1306 O 127.256 -1.87688 0.498677 0
M  V30 1307 C 124.386 -3.22565 1.28722 0
M  V30 1308 C 123.34 -3.54281 2.40144 0
M  V30 1309 C 122.666 -4.91298 2.11023 0
M  V30 1310 C 123.966 -3.55676 3.82481 0
M  V30 1311 H 125.66 -1.82644 2.37237 0
M  V30 1312 H 123.206 -0.877305 1.1419 0
M  V30 1313 H 125.159 -4.01095 1.29232 0
M  V30 1314 H 123.883 -3.25137 0.308811 0
M  V30 1315 H 122.542 -2.78088 2.38877 0
M  V30 1316 H 122.19 -4.90468 1.11582 0
M  V30 1317 H 121.89 -5.13485 2.8567 0
M  V30 1318 H 123.414 -5.72166 2.13209 0
M  V30 1319 H 124.828 -4.24254 3.85592 0
M  V30 1320 H 123.225 -3.89388 4.56614 0
M  V30 1321 H 124.295 -2.55144 4.12346 0
M  V30 1322 N 125.638 -1.25649 -0.95132 0
M  V30 1323 C 126.884 -1.10757 -1.69884 0
M  V30 1324 C 127.217 0.350061 -1.91019 0
M  V30 1325 O 126.492 1.25783 -1.48354 0
M  V30 1326 C 126.775 -1.86606 -3.07978 0
M  V30 1327 C 126.628 -3.40217 -2.94232 0
M  V30 1328 C 127.947 -1.65182 -4.07925 0
M  V30 1329 H 125.066 -0.40374 -0.616574 0
M  V30 1330 H 127.708 -1.54521 -1.10558 0
M  V30 1331 H 125.858 -1.49409 -3.58621 0
M  V30 1332 H 127.53 -3.87108 -2.50889 0
M  V30 1333 H 125.773 -3.67759 -2.30078 0
M  V30 1334 H 126.444 -3.88505 -3.92133 0
M  V30 1335 H 128.92 -1.9757 -3.66204 0
M  V30 1336 H 127.796 -2.20683 -5.02583 0
M  V30 1337 H 128.057 -0.593933 -4.38092 0
M  V30 1338 N 127.117 1.15442 -1.07289 0
M  V30 1339 C 128.533 1.38201 -0.798288 0
M  V30 1340 C 128.733 1.92429 0.597769 0
M  V30 1341 O 127.789 2.12962 1.3566 0
M  V30 1342 C 129.102 2.35357 -1.87156 0
M  V30 1343 C 130.65 2.49021 -1.89624 0
M  V30 1344 C 131.125 3.49468 -2.96034 0
M  V30 1345 N 132.616 3.57003 -2.95132 0
M  V30 1346 C 133.351 4.34543 -3.74112 0
M  V30 1347 N 132.847 5.15421 -4.6294 0
M  V30 1348 N 134.64 4.29625 -3.62462 0
M  V30 1349 H 126.791 0.78584 -1.97328 0
M  V30 1350 H 129.054 0.408065 -0.855679 0
M  V30 1351 H 128.76 2.02626 -2.87464 0
M  V30 1352 H 128.634 3.35129 -1.73114 0
M  V30 1353 H 131.021 2.81051 -0.899687 0
M  V30 1354 H 131.102 1.4925 -2.07745 0
M  V30 1355 H 130.746 3.18173 -3.95889 0
M  V30 1356 H 130.676 4.48992 -2.75161 0
M  V30 1357 H 133.167 2.99276 -2.30743 0
M  V30 1358 H 133.48 5.7183 -5.19837 0
M  V30 1359 H 131.825 5.14729 -4.66989 0
M  V30 1360 H 135.016 3.65505 -2.92444 0
M  V30 1361 H 135.189 4.89807 -4.24256 0
M  V30 1362 N 128.595 0.856903 1.32268 0
M  V30 1363 C 129.841 0.462069 1.97466 0
M  V30 1364 C 130.174 -0.980298 1.67642 0
M  V30 1365 O 129.449 -1.68824 0.965858 0
M  V30 1366 C 129.732 0.704336 3.53145 0
M  V30 1367 C 129.585 2.19529 3.9259 0
M  V30 1368 C 130.904 0.1622 4.39801 0
M  V30 1369 H 128.023 0.169357 0.717278 0
M  V30 1370 H 130.665 1.07574 1.56614 0
M  V30 1371 H 128.815 0.181999 3.88073 0
M  V30 1372 H 130.487 2.78387 3.67829 0
M  V30 1373 H 128.73 2.67292 3.41668 0
M  V30 1374 H 129.401 2.31549 5.01088 0
M  V30 1375 H 131.877 0.608905 4.11621 0
M  V30 1376 H 130.753 0.361265 5.4771 0
M  V30 1377 H 131.014 -0.935158 4.32096 0
M  V30 1378 N 130.073 -1.45103 0.615059 0
M  V30 1379 C 131.321 -2.01784 0.112955 0
M  V30 1380 C 131.642 -1.48504 -1.26378 0
M  V30 1381 O 130.912 -0.682245 -1.83636 0
M  V30 1382 H 129.492 -0.745993 0.0387668 0
M  V30 1383 H 132.154 -1.77808 0.798141 0
M  V30 1384 H 131.25 -3.12025 0.0684069 0
M  V30 1385 N 131.551 -0.354651 -1.53558 0
M  V30 1386 C 132.779 0.239515 -2.05509 0
M  V30 1387 C 133.194 1.4333 -1.2289 0
M  V30 1388 O 132.551 1.80538 -0.266899 0
M  V30 1389 C 132.602 0.643719 -3.55723 0
M  V30 1390 O 132.323 -0.502602 -4.35207 0
M  V30 1391 C 133.824 1.29743 -4.23889 0
M  V30 1392 H 131.044 0.0442697 -0.669538 0
M  V30 1393 H 133.588 -0.509856 -1.98042 0
M  V30 1394 H 131.743 1.34302 -3.63376 0
M  V30 1395 H 132.157 -0.178172 -5.24197 0
M  V30 1396 H 133.631 1.53091 -5.30346 0
M  V30 1397 H 134.108 2.25441 -3.76926 0
M  V30 1398 H 134.714 0.639865 -4.20459 0
M  V30 1399 N 133.029 1.57378 -0.0835403 0
M  V30 1400 C 133.992 2.12252 0.864959 0
M  V30 1401 C 134.992 1.04916 1.21858 0
M  V30 1402 O 136.182 1.30853 1.14991 0
M  V30 1403 C 133.314 2.63358 2.16461 0
M  V30 1404 H 134.507 2.97371 0.388676 0
M  V30 1405 H 132.06 1.55423 0.165317 0
M  V30 1406 H 132.795 1.81727 2.686 0
M  V30 1407 H 132.58 3.41826 1.92087 0
M  V30 1408 H 134.07 3.05847 2.84337 0
M  V30 1409 N 134.507 -0.190092 1.56449 0
M  V30 1410 C 135.755 -0.907908 1.80559 0
M  V30 1411 C 136.076 -1.83583 0.657438 0
M  V30 1412 O 135.346 -1.93203 -0.323924 0
M  V30 1413 H 133.926 -0.338247 0.666032 0
M  V30 1414 H 136.588 -0.194403 1.93928 0
M  V30 1415 H 135.684 -1.49604 2.73907 0
M  V30 1416 N 135.985 -1.50799 -0.457987 0
M  V30 1417 C 136.948 -1.7005 -1.53674 0
M  V30 1418 C 137.948 -0.570881 -1.50325 0
M  V30 1419 O 139.138 -0.838126 -1.52712 0
M  V30 1420 C 136.27 -1.73788 -2.93276 0
M  V30 1421 H 137.463 -2.66306 -1.37917 0
M  V30 1422 H 135.016 -1.40477 -0.685271 0
M  V30 1423 H 135.751 -0.792717 -3.14462 0
M  V30 1424 H 135.536 -2.55864 -2.97113 0
M  V30 1425 H 137.026 -1.90591 -3.71571 0
M  V30 1426 N 137.463 0.71206 -1.40597 0
M  V30 1427 C 138.426 1.80785 -1.40888 0
M  V30 1428 C 139.426 1.57937 -0.302103 0
M  V30 1429 O 140.616 1.64913 -0.561182 0
M  V30 1430 C 137.748 3.18927 -1.20409 0
M  V30 1431 H 138.941 1.81924 -2.38419 0
M  V30 1432 H 136.494 0.91805 -1.26497 0
M  V30 1433 H 137.229 3.23436 -0.236522 0
M  V30 1434 H 137.014 3.36911 -2.00582 0
M  V30 1435 H 138.504 3.98949 -1.23408 0
M  V30 1436 N 138.941 1.26152 0.944643 0
M  V30 1437 C 140.166 1.14363 1.7302 0
M  V30 1438 C 140.591 -0.29772 1.85729 0
M  V30 1439 O 139.949 -1.2157 1.34501 0
M  V30 1440 C 139.997 1.81378 3.11664 0
M  V30 1441 O 139.101 1.10022 3.97453 0
M  V30 1442 H 138.442 0.398694 0.53098 0
M  V30 1443 H 140.972 1.66906 1.18337 0
M  V30 1444 H 140.982 1.88064 3.62072 0
M  V30 1445 H 139.657 2.86237 3.0173 0
M  V30 1446 H 138.234 1.11287 3.55907 0
M  V30 1447 N 140.419 -1.14872 1.07899 0
M  V30 1448 C 141.644 -1.90202 0.826926 0
M  V30 1449 C 142.069 -1.77774 -0.614664 0
M  V30 1450 O 141.427 -1.11431 -1.43013 0
M  V30 1451 C 141.475 -3.38352 1.24702 0
M  V30 1452 O 140.579 -4.10497 0.39575 0
M  V30 1453 H 139.92 -0.591968 0.300782 0
M  V30 1454 H 142.45 -1.45437 1.43907 0
M  V30 1455 H 142.46 -3.89156 1.22563 0
M  V30 1456 H 141.135 -3.46715 2.29698 0
M  V30 1457 H 139.712 -3.69796 0.480117 0
M  V30 1458 N 141.898 -0.863906 -1.31812 0
M  V30 1459 C 143.175 -0.39275 -1.91616 0
M  V30 1460 C 143.555 1.12461 -1.7865 0
M  V30 1461 O 142.903 1.95045 -1.19037 0
M  V30 1462 C 143.113 -0.867385 -3.38049 0
M  V30 1463 C 144.461 -0.889966 -4.15168 0
M  V30 1464 O 145.485 -0.812635 -3.46806 0
M  V30 1465 O 144.344 -1.00079 -5.37258 0
M  V30 1466 H 141.438 -0.116358 -0.818773 0
M  V30 1467 H 143.984 -0.951418 -1.40521 0
M  V30 1468 H 142.756 -1.91081 -3.41473 0
M  V30 1469 H 142.379 -0.286687 -3.96565 0
M  V30 1470 N 143.376 1.44774 -0.622745 0
M  V30 1471 C 144.306 2.33382 0.0741861 0
M  V30 1472 C 145.287 1.47719 0.843387 0
M  V30 1473 O 146.472 1.76458 0.810934 0
M  V30 1474 C 143.602 3.30663 1.06204 0
M  V30 1475 C 142.556 4.26079 0.405037 0
M  V30 1476 C 141.882 5.13165 1.5022 0
M  V30 1477 C 143.182 5.1781 -0.683414 0
M  V30 1478 H 144.876 2.91905 -0.665713 0
M  V30 1479 H 142.422 1.40363 -0.321587 0
M  V30 1480 H 144.375 3.9153 1.55827 0
M  V30 1481 H 143.099 2.70331 1.83272 0
M  V30 1482 H 141.758 3.66532 -0.0704683 0
M  V30 1483 H 141.406 4.49191 2.26355 0
M  V30 1484 H 141.106 5.77812 1.06803 0
M  V30 1485 H 142.63 5.76902 2.00041 0
M  V30 1486 H 144.044 5.72661 -0.270631 0
M  V30 1487 H 142.441 5.91015 -1.04023 0
M  V30 1488 H 143.511 4.59326 -1.55395 0
M  V30 1489 N 144.854 0.36279 1.53368 0
M  V30 1490 C 145.817 -0.472679 2.24273 0
M  V30 1491 C 146.817 -1.012 1.24961 0
M  V30 1492 O 148.007 -0.898194 1.49259 0
M  V30 1493 C 145.139 -1.66039 2.97731 0
M  V30 1494 H 146.332 0.14773 2.99536 0
M  V30 1495 H 143.885 0.114434 1.55881 0
M  V30 1496 H 144.62 -2.31896 2.26704 0
M  V30 1497 H 144.405 -1.28066 3.70596 0
M  V30 1498 H 145.895 -2.25252 3.51641 0
M  V30 1499 N 146.332 -1.57332 0.0918853 0
M  V30 1500 C 147.743 -1.81496 -0.437739 0
M  V30 1501 C 148.094 -1.00727 -1.6837 0
M  V30 1502 O 147.219 -0.235694 -2.15113 0
M  V30 1503 C 147.814 -3.29197 -0.800939 0
M  V30 1504 C 146.373 -3.54136 -1.27532 0
M  V30 1505 C 145.52 -2.75979 -0.270392 0
M  V30 1506 H 148.471 -1.55494 0.317366 0
M  V30 1507 H 148.492 -3.42344 -1.66074 0
M  V30 1508 H 148.004 -3.87955 0.106078 0
M  V30 1509 H 146.105 -3.00705 -2.20016 0
M  V30 1510 H 146.218 -4.62792 -1.23938 0
M  V30 1511 H 144.582 -2.43349 -0.751872 0
M  V30 1512 H 145.365 -3.37484 0.629248 0
M  V30 1513 N 147.81 0.181792 -1.56548 0
M  V30 1514 C 149.058 0.89832 -1.81038 0
M  V30 1515 C 149.379 1.83232 -0.667164 0
M  V30 1516 O 148.649 1.93372 0.313673 0
M  V30 1517 H 147.229 0.33471 -0.667816 0
M  V30 1518 H 149.891 0.184116 -1.94028 0
M  V30 1519 H 148.987 1.4815 -2.74696 0
M  V30 1520 N 149.288 1.51039 0.449983 0
M  V30 1521 C 150.198 1.74261 1.57067 0
M  V30 1522 C 151.214 0.626363 1.62335 0
M  V30 1523 O 152.39 0.907162 1.79812 0
M  V30 1524 C 149.455 1.85114 2.93144 0
M  V30 1525 C 148.516 3.0893 2.98095 0
M  V30 1526 C 147.749 3.19256 4.27681 0
M  V30 1527 O 147.972 2.35835 5.19363 0
M  V30 1528 O 146.906 4.12144 4.38658 0
M  V30 1529 H 150.732 2.69303 1.40391 0
M  V30 1530 H 148.317 1.35389 0.631688 0
M  V30 1531 H 150.199 1.94311 3.73926 0
M  V30 1532 H 148.874 0.932588 3.09975 0
M  V30 1533 H 147.781 3.0522 2.16314 0
M  V30 1534 H 149.114 4.00433 2.86206 0
M  V30 1535 N 150.766 -0.704594 1.40972 0
M  V30 1536 C 151.696 -1.83124 1.44872 0
M  V30 1537 C 152.677 -1.67281 0.30838 0
M  V30 1538 O 153.862 -1.87149 0.518556 0
M  V30 1539 C 150.992 -3.21181 1.32136 0
M  V30 1540 C 149.946 -3.51714 2.43888 0
M  V30 1541 C 149.272 -4.89032 2.16222 0
M  V30 1542 C 150.572 -3.516 3.86232 0
M  V30 1543 H 152.266 -1.80117 2.39161 0
M  V30 1544 H 149.812 -0.865145 1.15114 0
M  V30 1545 H 151.765 -3.99702 1.33479 0
M  V30 1546 H 150.489 -3.24791 0.343279 0
M  V30 1547 H 149.148 -2.75539 2.41813 0
M  V30 1548 H 148.796 -4.89256 1.16778 0
M  V30 1549 H 148.496 -5.10426 2.911 0
M  V30 1550 H 150.02 -5.69873 2.19265 0
M  V30 1551 H 151.434 -4.2014 3.9007 0
M  V30 1552 H 149.831 -3.84523 4.60719 0
M  V30 1553 H 150.901 -2.50757 4.15029 0
M  V30 1554 N 152.244 -1.26651 -0.937939 0
M  V30 1555 C 153.493 -1.11775 -1.67897 0
M  V30 1556 C 153.806 0.33794 -1.92659 0
M  V30 1557 O 155.012 0.607434 -2.64618 0
M  V30 1558 C 153.468 -1.9523 -3.02346 0
M  V30 1559 C 153.076 -3.45393 -2.8532 0
M  V30 1560 C 154.82 -1.88972 -3.80118 0
M  V30 1561 C 152.727 -4.21083 -4.15263 0
M  V30 1562 H 151.657 -0.414696 -0.629717 0
M  V30 1563 H 154.308 -1.50988 -1.04283 0
M  V30 1564 H 152.69 -1.48853 -3.66959 0
M  V30 1565 H 153.864 -3.99561 -2.29537 0
M  V30 1566 H 152.179 -3.52921 -2.20988 0
M  V30 1567 H 154.776 -2.42805 -4.76392 0
M  V30 1568 H 155.119 -0.86113 -4.07296 0
M  V30 1569 H 155.652 -2.33189 -3.22285 0
M  V30 1570 H 152.391 -5.24425 -3.93267 0
M  V30 1571 H 151.911 -3.71695 -4.70747 0
M  V30 1572 H 153.59 -4.29706 -4.83696 0
M  V30 1573 N 153.722 1.14298 -1.08507 0
M  V30 1574 C 154.968 1.85633 -0.816581 0
M  V30 1575 C 155.301 1.82784 0.656021 0
M  V30 1576 O 154.576 1.25926 1.48233 0
M  V30 1577 C 154.859 3.34223 -1.34041 0
M  V30 1578 C 154.712 3.45639 -2.87843 0
M  V30 1579 C 156.031 4.29356 -0.9665 0
M  V30 1580 H 153.15 0.67402 -0.298104 0
M  V30 1581 H 155.792 1.34214 -1.34487 0
M  V30 1582 H 153.942 3.78144 -0.89104 0
M  V30 1583 H 155.614 3.10498 -3.41158 0
M  V30 1584 H 153.857 2.86817 -3.25451 0
M  V30 1585 H 154.528 4.50089 -3.19569 0
M  V30 1586 H 157.004 3.93457 -1.35391 0
M  V30 1587 H 155.88 5.3178 -1.3602 0
M  V30 1588 H 156.141 4.41919 0.126362 0
M  V30 1589 N 155.201 0.870884 1.31352 0
M  V30 1590 C 156.164 0.332243 2.26779 0
M  V30 1591 C 157.164 -0.517302 1.52252 0
M  V30 1592 O 158.354 -0.326477 1.71113 0
M  V30 1593 C 155.486 -0.528066 3.36785 0
M  V30 1594 H 156.679 1.17469 2.75937 0
M  V30 1595 H 154.232 0.64655 1.423 0
M  V30 1596 H 154.967 -1.39167 2.92922 0
M  V30 1597 H 154.752 0.0802582 3.92018 0
M  V30 1598 H 156.242 -0.897179 4.07849 0
M  V30 1599 N 156.679 -1.44442 0.630414 0
M  V30 1600 C 157.611 -2.2892 -0.113347 0
M  V30 1601 C 158.624 -1.41243 -0.80959 0
M  V30 1602 O 159.813 -1.65402 -0.671156 0
M  V30 1603 C 156.913 -3.17594 -1.18266 0
M  V30 1604 C 156.086 -4.33682 -0.569073 0
M  V30 1605 C 155.145 -5.03397 -1.53226 0
M  V30 1606 O 154.171 -5.59438 -1.04967 0
M  V30 1607 N 155.373 -5.04783 -2.86661 0
M  V30 1608 H 158.138 -2.93392 0.611636 0
M  V30 1609 H 155.699 -1.54881 0.471523 0
M  V30 1610 H 157.691 -3.61097 -1.82732 0
M  V30 1611 H 156.261 -2.54876 -1.80988 0
M  V30 1612 H 155.481 -3.9338 0.254187 0
M  V30 1613 H 156.769 -5.08608 -0.139767 0
M  V30 1614 H 156.167 -4.60584 -3.28449 0
M  V30 1615 H 154.724 -5.52077 -3.46489 0
M  V30 1616 N 158.157 -0.370918 -1.53173 0
M  V30 1617 C 159.405 0.216673 -2.00935 0
M  V30 1618 C 159.726 1.48845 -1.25977 0
M  V30 1619 O 158.996 1.92286 -0.374551 0
M  V30 1620 H 157.576 0.0830565 -0.742368 0
M  V30 1621 H 160.238 -0.49838 -1.8842 0
M  V30 1622 H 159.334 0.439893 -3.08984 0
M  V30 1623 N 159.635 1.57281 -0.100228 0
M  V30 1624 C 160.598 2.13158 0.842398 0
M  V30 1625 C 161.598 1.06202 1.20738 0
M  V30 1626 O 162.788 1.32066 1.13597 0
M  V30 1627 C 159.92 2.65639 2.13655 0
M  V30 1628 H 161.113 2.97766 0.357114 0
M  V30 1629 H 158.666 1.5559 0.148823 0
M  V30 1630 H 159.401 1.84566 2.66657 0
M  V30 1631 H 159.186 3.43844 1.88451 0
M  V30 1632 H 160.676 3.08846 2.81077 0
M  V30 1633 N 161.113 -0.173488 1.56642 0
M  V30 1634 C 162.359 -0.891784 1.8214 0
M  V30 1635 C 162.692 -1.8199 0.677736 0
M  V30 1636 O 161.967 -1.91842 -0.320446 0
M  V30 1637 C 162.25 -1.68933 3.18015 0
M  V30 1638 C 162.103 -0.784487 4.42906 0
M  V30 1639 C 163.422 -2.65748 3.50808 0
M  V30 1640 H 160.541 -0.322761 0.662567 0
M  V30 1641 H 163.183 -0.158095 1.89341 0
M  V30 1642 H 161.333 -2.31482 3.12007 0
M  V30 1643 H 163.005 -0.172046 4.60979 0
M  V30 1644 H 161.248 -0.0924117 4.33702 0
M  V30 1645 H 161.919 -1.37799 5.34524 0
M  V30 1646 H 164.395 -2.13327 3.57255 0
M  V30 1647 H 163.271 -3.18619 4.4696 0
M  V30 1648 H 163.532 -3.45842 2.75401 0
M  V30 1649 N 162.591 -1.51276 -0.441967 0
M  V30 1650 C 164.002 -1.56244 -1.02199 0
M  V30 1651 C 164.353 -0.383149 -1.92422 0
M  V30 1652 O 163.478 0.500613 -2.1053 0
M  V30 1653 C 164.073 -2.83162 -1.86024 0
M  V30 1654 C 162.632 -2.90716 -2.39084 0
M  V30 1655 C 161.779 -2.50858 -1.18175 0
M  V30 1656 H 164.73 -1.5712 -0.223416 0
M  V30 1657 H 164.751 -2.66663 -2.71425 0
M  V30 1658 H 164.263 -3.68974 -1.20331 0
M  V30 1659 H 162.364 -2.09323 -3.08244 0
M  V30 1660 H 162.477 -3.94266 -2.72198 0
M  V30 1661 H 160.841 -2.03951 -1.52565 0
M  V30 1662 H 161.624 -3.3901 -0.541001 0
M  V30 1663 N 164.069 0.697108 -1.41344 0
M  V30 1664 C 164.999 1.82353 -1.45841 0
M  V30 1665 C 165.98 1.67115 -0.317247 0
M  V30 1666 O 167.165 1.86871 -0.528474 0
M  V30 1667 C 164.295 3.20476 -1.33838 0
M  V30 1668 C 163.249 3.50415 -2.4575 0
M  V30 1669 C 162.575 4.87878 -2.18813 0
M  V30 1670 C 163.875 3.49546 -3.88091 0
M  V30 1671 H 165.569 1.78846 -2.40113 0
M  V30 1672 H 163.115 0.859028 -1.15571 0
M  V30 1673 H 165.068 3.98988 -1.35596 0
M  V30 1674 H 163.792 3.24604 -0.360498 0
M  V30 1675 H 162.451 2.74253 -2.43271 0
M  V30 1676 H 162.099 4.8863 -1.19371 0
M  V30 1677 H 161.799 5.08875 -2.93803 0
M  V30 1678 H 163.323 5.68702 -2.22284 0
M  V30 1679 H 164.737 4.18066 -3.92293 0
M  V30 1680 H 163.134 3.82075 -4.62751 0
M  V30 1681 H 164.204 2.48552 -4.16353 0
M  V30 1682 N 165.547 1.27147 0.931209 0
M  V30 1683 C 166.824 1.0401 1.65654 0
M  V30 1684 C 167.204 -0.426297 2.06751 0
M  V30 1685 O 166.552 -1.40879 1.79904 0
M  V30 1686 C 166.762 1.99834 2.86125 0
M  V30 1687 C 168.11 2.29007 3.57549 0
M  V30 1688 O 169.134 1.97779 2.96246 0
M  V30 1689 O 167.993 2.82222 4.67989 0
M  V30 1690 H 165.087 0.396239 0.725895 0
M  V30 1691 H 167.633 1.38397 0.982056 0
M  V30 1692 H 166.405 2.98744 2.52721 0
M  V30 1693 H 166.028 1.65987 3.61295 0
M  V30 1694 N 167.025 -1.13721 1.09112 0
M  V30 1695 C 168.273 -1.84559 0.823562 0
M  V30 1696 C 168.594 -1.83754 -0.652658 0
M  V30 1697 O 167.864 -1.29102 -1.47342 0
M  V30 1698 H 166.444 -0.683376 0.301673 0
M  V30 1699 H 169.106 -1.37771 1.37859 0
M  V30 1700 H 168.202 -2.8917 1.17419 0
M  V30 1701 N 168.503 -0.877838 -1.30888 0
M  V30 1702 C 169.731 -0.507414 -2.00581 0
M  V30 1703 C 170.146 0.902216 -1.65848 0
M  V30 1704 O 169.503 1.59225 -0.891831 0
M  V30 1705 C 169.554 -0.664162 -3.55347 0
M  V30 1706 O 169.275 -2.01829 -3.8884 0
M  V30 1707 C 170.776 -0.295787 -4.42312 0
M  V30 1708 H 167.996 -0.196866 -0.641471 0
M  V30 1709 H 170.54 -1.18117 -1.66939 0
M  V30 1710 H 168.695 -0.0378619 -3.87381 0
M  V30 1711 H 169.109 -2.03174 -4.8355 0
M  V30 1712 H 170.583 -0.456388 -5.5011 0
M  V30 1713 H 171.06 0.765663 -4.32475 0
M  V30 1714 H 171.666 -0.898113 -4.15709 0
M  V30 1715 N 169.982 1.44106 -0.638065 0
M  V30 1716 C 171.21 2.06336 -0.152615 0
M  V30 1717 C 171.625 1.47731 1.17563 0
M  V30 1718 O 170.982 0.602806 1.72257 0
M  V30 1719 C 171.033 3.61479 -0.0391491 0
M  V30 1720 O 170.754 4.17903 -1.31487 0
M  V30 1721 C 172.255 4.40757 0.474176 0
M  V30 1722 H 169.475 0.665862 -0.0828776 0
M  V30 1723 H 172.019 1.84862 -0.87443 0
M  V30 1724 H 170.174 3.82191 0.633142 0
M  V30 1725 H 170.588 5.11416 -1.16421 0
M  V30 1726 H 172.062 5.49707 0.502562 0
M  V30 1727 H 172.539 4.12697 1.50258 0
M  V30 1728 H 173.145 4.24979 -0.165102 0
M  V30 1729 N 171.46 0.379036 1.52974 0
M  V30 1730 C 172.876 0.0285448 1.59574 0
M  V30 1731 C 173.076 -1.45542 1.39355 0
M  V30 1732 O 172.132 -2.2187 1.20541 0
M  V30 1733 C 173.445 0.496535 2.96572 0
M  V30 1734 C 174.993 0.451909 3.0972 0
M  V30 1735 C 175.468 0.895924 4.49152 0
M  V30 1736 N 176.959 0.851522 4.55306 0
M  V30 1737 C 177.694 1.16661 5.61407 0
M  V30 1738 N 177.19 1.55166 6.752 0
M  V30 1739 N 178.983 1.08853 5.51459 0
M  V30 1740 H 171.134 1.34525 1.64367 0
M  V30 1741 H 173.397 0.550733 0.771619 0
M  V30 1742 H 173.103 1.53258 3.16552 0
M  V30 1743 H 172.977 -0.109802 3.7704 0
M  V30 1744 H 175.364 -0.575029 2.89443 0
M  V30 1745 H 175.445 1.09392 2.3123 0
M  V30 1746 H 175.089 1.92104 4.70168 0
M  V30 1747 H 175.019 0.23103 5.26093 0
M  V30 1748 H 177.51 0.568038 3.73606 0
M  V30 1749 H 177.823 1.776 7.52116 0
M  V30 1750 H 176.168 1.59044 6.76557 0
M  V30 1751 H 179.359 0.786803 4.6144 0
M  V30 1752 H 179.532 1.33742 6.34048 0
M  V30 1753 N 172.938 -1.57226 0.108567 0
M  V30 1754 C 173.87 -2.11809 -0.875752 0
M  V30 1755 C 174.883 -1.05839 -1.23701 0
M  V30 1756 O 176.072 -1.33245 -1.18778 0
M  V30 1757 C 173.172 -2.59411 -2.18081 0
M  V30 1758 C 172.345 -3.89364 -1.99284 0
M  V30 1759 C 171.404 -4.22672 -3.13424 0
M  V30 1760 O 170.43 -4.91668 -2.86795 0
M  V30 1761 N 171.632 -3.79154 -4.3957 0
M  V30 1762 H 174.397 -2.9689 -0.409477 0
M  V30 1763 H 171.958 -1.61721 -0.076158 0
M  V30 1764 H 173.95 -2.7873 -2.93414 0
M  V30 1765 H 172.52 -1.79268 -2.5609 0
M  V30 1766 H 171.74 -3.79059 -1.08203 0
M  V30 1767 H 173.028 -4.74358 -1.84017 0
M  V30 1768 H 172.426 -3.23486 -4.64083 0
M  V30 1769 H 170.983 -4.03602 -5.11809 0
M  V30 1770 N 174.416 0.165178 -1.56732 0
M  V30 1771 C 175.646 0.894919 -1.86212 0
M  V30 1772 C 176.054 1.76066 -0.692627 0
M  V30 1773 O 175.397 1.80387 0.347303 0
M  V30 1774 C 175.459 1.8174 -3.10179 0
M  V30 1775 C 175.123 1.13064 -4.42793 0
M  V30 1776 C 176.12 0.493169 -5.17556 0
M  V30 1777 C 173.805 1.12556 -4.89527 0
M  V30 1778 C 175.799 -0.140209 -6.37246 0
M  V30 1779 C 173.486 0.488366 -6.09145 0
M  V30 1780 C 174.484 -0.143411 -6.82849 0
M  V30 1781 O 174.172 -0.77055 -8.00199 0
M  V30 1782 H 173.904 0.265114 -0.621844 0
M  V30 1783 H 176.458 0.168242 -2.0471 0
M  V30 1784 H 174.688 2.58455 -2.87642 0
M  V30 1785 H 176.377 2.4175 -3.26055 0
M  V30 1786 H 177.143 0.489023 -4.82528 0
M  V30 1787 H 173.022 1.60672 -4.32094 0
M  V30 1788 H 176.566 -0.633932 -6.94714 0
M  V30 1789 H 172.463 0.490116 -6.43637 0
M  V30 1790 H 173.231 -0.670408 -8.1575 0
M  V30 1791 N 175.894 1.51508 0.433938 0
M  V30 1792 C 176.824 1.76016 1.53429 0
M  V30 1793 C 177.805 0.610112 1.58782 0
M  V30 1794 O 178.99 0.853177 1.74455 0
M  V30 1795 C 176.12 1.88831 2.9148 0
M  V30 1796 C 175.074 3.04288 3.00987 0
M  V30 1797 C 174.4 3.0229 4.4105 0
M  V30 1798 C 175.7 4.44193 2.74754 0
M  V30 1799 H 177.394 2.68152 1.33171 0
M  V30 1800 H 174.94 1.29035 0.639214 0
M  V30 1801 H 176.893 2.04559 3.6842 0
M  V30 1802 H 175.617 0.933455 3.12976 0
M  V30 1803 H 174.276 2.8827 2.26486 0
M  V30 1804 H 173.924 2.04576 4.59519 0
M  V30 1805 H 173.624 3.79822 4.4834 0
M  V30 1806 H 175.148 3.20116 5.1996 0
M  V30 1807 H 176.562 4.60544 3.41426 0
M  V30 1808 H 174.959 5.23457 2.9345 0
M  V30 1809 H 176.029 4.53996 1.70339 0
M  V30 1810 N 177.372 -0.689602 1.41712 0
M  V30 1811 C 178.282 -1.83314 1.46401 0
M  V30 1812 C 179.298 -1.7036 0.35405 0
M  V30 1813 O 180.474 -1.92171 0.602692 0
M  V30 1814 C 177.539 -3.19344 1.34982 0
M  V30 1815 C 176.6 -3.44363 2.56344 0
M  V30 1816 C 175.833 -4.73904 2.45461 0
M  V30 1817 O 176.056 -5.508 1.48241 0
M  V30 1818 O 174.99 -4.99839 3.35328 0
M  V30 1819 H 178.816 -1.82314 2.42889 0
M  V30 1820 H 176.401 -0.843438 1.23315 0
M  V30 1821 H 178.283 -4.00547 1.3092 0
M  V30 1822 H 176.958 -3.21014 0.41612 0
M  V30 1823 H 175.865 -2.63067 2.65982 0
M  V30 1824 H 177.198 -3.47512 3.48563 0
M  V30 1825 N 178.85 -1.27639 -0.924453 0
M  V30 1826 C 180.098 -1.13941 -1.66918 0
M  V30 1827 C 180.419 0.314589 -1.92446 0
M  V30 1828 O 179.689 1.21964 -1.53303 0
M  V30 1829 H 178.269 -0.418678 -0.618642 0
M  V30 1830 H 180.931 -1.60213 -1.10985 0
M  V30 1831 H 180.027 -1.67094 -2.63602 0
M  V30 1832 N 180.328 1.1314 -1.09713 0
M  V30 1833 C 181.744 1.36477 -0.827423 0
M  V30 1834 C 181.944 1.93654 0.556817 0
M  V30 1835 O 181 2.15791 1.31112 0
M  V30 1836 C 182.313 2.31334 -1.92106 0
M  V30 1837 C 183.861 2.44943 -1.94864 0
M  V30 1838 C 184.336 3.4311 -3.0338 0
M  V30 1839 N 185.827 3.50662 -3.02639 0
M  V30 1840 C 186.562 4.2651 -3.83246 0
M  V30 1841 N 186.058 5.05485 -4.73768 0
M  V30 1842 N 187.851 4.2184 -3.71493 0
M  V30 1843 H 180.002 0.743807 -1.9895 0
M  V30 1844 H 182.265 0.389823 -0.864143 0
M  V30 1845 H 181.971 1.96483 -2.91698 0
M  V30 1846 H 181.845 3.31381 -1.80184 0
M  V30 1847 H 184.232 2.79079 -0.959099 0
M  V30 1848 H 184.313 1.4481 -2.10864 0
M  V30 1849 H 183.957 3.09704 -4.02549 0
M  V30 1850 H 183.887 4.43055 -2.84622 0
M  V30 1851 H 186.378 2.94315 -2.37039 0
M  V30 1852 H 186.691 5.60675 -5.3185 0
M  V30 1853 H 185.036 5.04708 -4.77802 0
M  V30 1854 H 188.227 3.5922 -3.00131 0
M  V30 1855 H 188.4 4.80697 -4.3455 0
M  V30 1856 N 181.806 0.884767 1.30421 0
M  V30 1857 C 183.217 0.553656 1.78302 0
M  V30 1858 C 183.568 -0.930153 1.7275 0
M  V30 1859 O 182.693 -1.72681 1.30423 0
M  V30 1860 C 183.288 0.998234 3.2376 0
M  V30 1861 C 181.847 0.71854 3.69478 0
M  V30 1862 C 180.994 1.18132 2.50879 0
M  V30 1863 H 183.945 1.06901 1.17294 0
M  V30 1864 H 183.966 0.327118 3.79091 0
M  V30 1865 H 183.478 2.0782 3.27769 0
M  V30 1866 H 181.579 -0.349444 3.70958 0
M  V30 1867 H 181.692 1.30595 4.60958 0
M  V30 1868 H 180.056 0.600669 2.47516 0
M  V30 1869 H 180.839 2.26902 2.57624 0
M  V30 1870 N 183.284 -1.43765 0.645699 0
M  V30 1871 C 184.514 -2.05953 0.163318 0
M  V30 1872 C 184.922 -1.48432 -1.17322 0
M  V30 1873 O 184.265 -0.607295 -1.73371 0
M  V30 1874 C 184.327 -3.59499 -0.0103065 0
M  V30 1875 C 183.991 -4.39563 1.25035 0
M  V30 1876 C 184.988 -4.72108 2.17739 0
M  V30 1877 C 182.673 -4.79697 1.48983 0
M  V30 1878 C 184.667 -5.43688 3.3269 0
M  V30 1879 C 182.354 -5.51023 2.64229 0
M  V30 1880 C 183.352 -5.8294 3.55908 0
M  V30 1881 O 183.04 -6.5281 4.69142 0
M  V30 1882 H 182.772 -0.670798 0.0836986 0
M  V30 1883 H 185.326 -1.85384 0.884407 0
M  V30 1884 H 183.556 -3.78613 -0.78669 0
M  V30 1885 H 185.245 -4.03408 -0.449087 0
M  V30 1886 H 186.011 -4.41627 2.00476 0
M  V30 1887 H 181.89 -4.54266 0.785078 0
M  V30 1888 H 185.434 -5.68517 4.04269 0
M  V30 1889 H 181.331 -5.8092 2.81429 0
M  V30 1890 H 182.099 -6.71288 4.6831 0
M  V30 1891 N 184.763 -0.387143 -1.52771 0
M  V30 1892 C 185.726 0.436939 -2.24997 0
M  V30 1893 C 186.726 0.991991 -1.26555 0
M  V30 1894 O 187.916 0.874335 -1.50669 0
M  V30 1895 C 185.048 1.61281 -3.00335 0
M  V30 1896 H 186.241 -0.195365 -2.99263 0
M  V30 1897 H 183.794 -0.139218 -1.55679 0
M  V30 1898 H 184.529 2.2826 -2.30364 0
M  V30 1899 H 184.314 1.22154 -3.72587 0
M  V30 1900 H 185.804 2.19629 -3.5518 0
M  V30 1901 N 186.241 1.57166 -0.116904 0
M  V30 1902 C 187.652 1.82169 0.408809 0
M  V30 1903 C 188.003 1.03393 1.66746 0
M  V30 1904 O 187.128 0.269886 2.1471 0
M  V30 1905 C 187.723 3.30429 0.748466 0
M  V30 1906 C 186.282 3.5612 1.21882 0
M  V30 1907 C 185.429 2.76374 0.226452 0
M  V30 1908 H 188.38 1.5497 -0.342063 0
M  V30 1909 H 188.401 3.44943 1.60607 0
M  V30 1910 H 187.913 3.87737 -0.167784 0
M  V30 1911 H 186.014 3.04168 2.15204 0
M  V30 1912 H 186.127 4.64705 1.16559 0
M  V30 1913 H 184.491 2.44515 0.713063 0
M  V30 1914 H 185.274 3.3644 -0.682859 0
M  V30 1915 N 187.719 -0.156864 1.56817 0
M  V30 1916 C 188.965 -0.872416 1.83076 0
M  V30 1917 C 189.298 -1.81261 0.697001 0
M  V30 1918 O 188.573 -1.92171 -0.30008 0
M  V30 1919 C 188.856 -1.65551 3.19789 0
M  V30 1920 C 188.709 -0.737467 4.43713 0
M  V30 1921 C 190.028 -2.62012 3.53606 0
M  V30 1922 H 187.147 -0.315715 0.665953 0
M  V30 1923 H 189.789 -0.138004 1.89498 0
M  V30 1924 H 187.939 -2.28159 3.14445 0
M  V30 1925 H 189.611 -0.123143 4.61136 0
M  V30 1926 H 187.854 -0.0464067 4.33775 0
M  V30 1927 H 188.525 -1.32122 5.35955 0
M  V30 1928 H 191.001 -2.09525 3.59497 0
M  V30 1929 H 189.877 -3.13861 4.50314 0
M  V30 1930 H 190.138 -3.42902 2.79053 0
M  V30 1931 N 189.197 -1.51736 -0.425897 0
M  V30 1932 C 190.608 -1.5732 -1.00536 0
M  V30 1933 C 190.959 -0.403537 -1.92005 0
M  V30 1934 O 190.084 0.478256 -2.11049 0
M  V30 1935 C 190.679 -2.85119 -1.8301 0
M  V30 1936 C 189.238 -2.93236 -2.35987 0
M  V30 1937 C 188.385 -2.52098 -1.15508 0
M  V30 1938 H 191.336 -1.57348 -0.206739 0
M  V30 1939 H 191.357 -2.69526 -2.68581 0
M  V30 1940 H 190.869 -3.7023 -1.16411 0
M  V30 1941 H 188.97 -2.12581 -3.06007 0
M  V30 1942 H 189.083 -3.9713 -2.68001 0
M  V30 1943 H 187.447 -2.05558 -1.50393 0
M  V30 1944 H 188.23 -3.39565 -0.505014 0
M  V30 1945 N 190.675 0.682077 -1.42076 0
M  V30 1946 C 191.952 1.43755 -1.32642 0
M  V30 1947 C 192.332 2.11063 0.0396611 0
M  V30 1948 O 191.68 2.02701 1.05474 0
M  V30 1949 C 191.89 2.44596 -2.48946 0
M  V30 1950 C 193.238 3.09454 -2.9073 0
M  V30 1951 O 194.262 2.54922 -2.48783 0
M  V30 1952 O 193.121 4.08253 -3.63307 0
M  V30 1953 H 190.215 0.640857 -0.522715 0
M  V30 1954 H 192.761 0.711415 -1.54068 0
M  V30 1955 H 191.533 1.93609 -3.40046 0
M  V30 1956 H 191.156 3.24701 -2.29467 0
M  V30 1957 N 192.153 1.28127 0.917671 0
M  V30 1958 C 193.564 1.13622 1.48145 0
M  V30 1959 C 193.915 -0.275207 1.9426 0
M  V30 1960 O 193.04 -1.1691 1.82102 0
M  V30 1961 C 193.635 2.05648 2.69248 0
M  V30 1962 C 192.194 1.95219 3.21818 0
M  V30 1963 C 191.341 1.97618 1.94532 0
M  V30 1964 H 194.292 1.40874 0.730772 0
M  V30 1965 H 194.313 1.61818 3.44377 0
M  V30 1966 H 193.825 3.08365 2.35653 0
M  V30 1967 H 191.926 0.955244 3.60147 0
M  V30 1968 H 192.039 2.81976 3.87333 0
M  V30 1969 H 190.403 1.41973 2.11461 0
M  V30 1970 H 191.186 3.02007 1.63238 0
M  V30 1971 N 193.631 -1.12557 1.10312 0
M  V30 1972 C 194.541 -2.21841 0.763142 0
M  V30 1973 C 195.557 -1.72354 -0.238801 0
M  V30 1974 O 196.733 -2.01249 -0.0778746 0
M  V30 1975 C 193.798 -3.46131 0.198632 0
M  V30 1976 C 192.859 -4.10464 1.25769 0
M  V30 1977 C 192.092 -5.28821 0.72002 0
M  V30 1978 O 192.315 -5.6859 -0.453993 0
M  V30 1979 O 191.249 -5.83437 1.47935 0
M  V30 1980 H 195.075 -2.53312 1.67532 0
M  V30 1981 H 192.66 -1.20867 0.878157 0
M  V30 1982 H 194.542 -4.2125 -0.112401 0
M  V30 1983 H 193.217 -3.16338 -0.686419 0
M  V30 1984 H 192.124 -3.3713 1.62156 0
M  V30 1985 H 193.457 -4.44408 2.11571 0
M  V30 1986 N 195.109 -0.891671 -1.2995 0
M  V30 1987 C 196.355 -0.514261 -1.96171 0
M  V30 1988 C 196.688 0.935506 -1.70182 0
M  V30 1989 O 195.963 1.66204 -1.01028 0
M  V30 1990 C 196.246 -0.797719 -3.51153 0
M  V30 1991 C 196.099 -2.2986 -3.86632 0
M  V30 1992 C 197.418 -0.278749 -4.39216 0
M  V30 1993 H 194.537 -0.188314 -0.712535 0
M  V30 1994 H 197.179 -1.11689 -1.53706 0
M  V30 1995 H 195.329 -0.284826 -3.87455 0
M  V30 1996 H 197.001 -2.88042 -3.60319 0
M  V30 1997 H 195.244 -2.76257 -3.34462 0
M  V30 1998 H 195.915 -2.44753 -4.94773 0
M  V30 1999 H 198.391 -0.717825 -4.09862 0
M  V30 2000 H 197.267 -0.506353 -5.46559 0
M  V30 2001 H 197.528 0.820266 -4.34424 0
M  V30 2002 N 196.587 1.43421 -0.653314 0
M  V30 2003 C 197.834 2.01812 -0.166745 0
M  V30 2004 C 198.162 1.51535 1.21931 0
M  V30 2005 O 197.417 0.698975 1.82792 0
M  V30 2006 C 197.716 3.57176 -0.126623 0
M  V30 2007 C 197.382 4.26798 -1.45444 0
M  V30 2008 C 196.044 4.45534 -1.81805 0
M  V30 2009 C 198.396 4.66225 -2.32989 0
M  V30 2010 C 195.724 5.00961 -3.05377 0
M  V30 2011 C 198.076 5.23021 -3.55853 0
M  V30 2012 C 196.74 5.39973 -3.9241 0
M  V30 2013 H 196.01 0.738484 -0.0610162 0
M  V30 2014 H 198.657 1.71896 -0.84404 0
M  V30 2015 H 196.962 3.86634 0.634123 0
M  V30 2016 H 198.659 4.00112 0.266723 0
M  V30 2017 H 195.249 4.12561 -1.16153 0
M  V30 2018 H 199.433 4.51443 -2.06187 0
M  V30 2019 H 194.689 5.12271 -3.3375 0
M  V30 2020 H 198.863 5.52518 -4.23907 0
M  V30 2021 H 196.49 5.82687 -4.88242 0
M  V30 2022 N 198.065 0.39524 1.52563 0
M  V30 2023 C 199.481 0.0454682 1.59535 0
M  V30 2024 C 199.681 -1.44056 1.4089 0
M  V30 2025 O 198.737 -2.20579 1.22888 0
M  V30 2026 C 200.05 0.527963 2.96029 0
M  V30 2027 C 201.598 0.484733 3.09224 0
M  V30 2028 C 202.073 0.943512 4.48176 0
M  V30 2029 N 203.564 0.899765 4.54377 0
M  V30 2030 C 204.299 1.22609 5.60138 0
M  V30 2031 N 203.795 1.62319 6.73516 0
M  V30 2032 N 205.588 1.14696 5.50274 0
M  V30 2033 H 197.739 1.36261 1.62931 0
M  V30 2034 H 200.002 0.558887 0.765735 0
M  V30 2035 H 199.708 1.56607 3.14908 0
M  V30 2036 H 199.582 -0.0698056 3.77135 0
M  V30 2037 H 201.969 -0.544298 2.90037 0
M  V30 2038 H 202.05 1.11838 2.30056 0
M  V30 2039 H 201.694 1.9708 4.68104 0
M  V30 2040 H 201.624 0.286817 5.25818 0
M  V30 2041 H 204.115 0.607632 3.72983 0
M  V30 2042 H 204.428 1.85567 7.5019 0
M  V30 2043 H 202.773 1.66211 6.74833 0
M  V30 2044 H 205.964 0.835701 4.6058 0
M  V30 2045 H 206.137 1.40459 6.32594 0
M  V30 2046 N 199.544 -1.57102 0.125237 0
M  V30 2047 C 200.507 -2.14471 -0.80838 0
M  V30 2048 C 201.507 -1.0811 -1.19033 0
M  V30 2049 O 202.697 -1.33856 -1.11482 0
M  V30 2050 C 199.829 -2.69005 -2.09402 0
M  V30 2051 H 201.022 -2.98297 -0.309696 0
M  V30 2052 H 198.575 -1.55807 -0.124051 0
M  V30 2053 H 199.31 -1.88785 -2.63687 0
M  V30 2054 H 199.095 -3.46799 -1.82957 0
M  V30 2055 H 200.585 -3.13278 -2.76128 0
M  V30 2056 N 201.022 0.148545 -1.56898 0
M  V30 2057 C 201.952 1.18524 -2.01182 0
M  V30 2058 C 202.933 1.4489 -0.891123 0
M  V30 2059 O 204.118 1.55836 -1.15882 0
M  V30 2060 C 201.248 2.51879 -2.39112 0
M  V30 2061 C 200.202 2.40038 -3.54353 0
M  V30 2062 C 199.528 3.78089 -3.78091 0
M  V30 2063 C 200.828 1.88577 -4.87069 0
M  V30 2064 H 202.522 0.817029 -2.88036 0
M  V30 2065 H 200.068 0.391575 -1.38574 0
M  V30 2066 H 202.021 3.24627 -2.68692 0
M  V30 2067 H 200.745 2.90532 -1.49193 0
M  V30 2068 H 199.404 1.69742 -3.24936 0
M  V30 2069 H 199.052 4.14175 -2.85426 0
M  V30 2070 H 198.752 3.71028 -4.55645 0
M  V30 2071 H 200.276 4.52387 -4.10095 0
M  V30 2072 H 201.69 2.51117 -5.15377 0
M  V30 2073 H 200.087 1.9241 -5.68417 0
M  V30 2074 H 201.157 0.84136 -4.77545 0
M  V30 2075 N 202.5 1.5196 0.417844 0
M  V30 2076 C 203.746 1.66793 1.16411 0
M  V30 2077 C 204.101 0.388758 1.88432 0
M  V30 2078 O 203.394 -0.616409 1.81414 0
M  V30 2079 C 203.588 2.82269 2.19223 0
M  V30 2080 C 203.417 4.21293 1.57297 0
M  V30 2081 C 202.187 4.86948 1.34944 0
M  V30 2082 C 204.385 5.03704 1.03858 0
M  V30 2083 N 202.367 6.1003 0.688195 0
M  V30 2084 C 203.738 6.1795 0.503742 0
M  V30 2085 C 205.793 4.89095 0.932203 0
M  V30 2086 C 204.496 7.19188 -0.127034 0
M  V30 2087 C 206.522 5.90559 0.315293 0
M  V30 2088 C 205.884 7.0409 -0.208906 0
M  V30 2089 H 201.983 0.66407 0.412959 0
M  V30 2090 H 204.567 1.89242 0.457772 0
M  V30 2091 H 202.738 2.61451 2.87225 0
M  V30 2092 H 204.47 2.86183 2.86149 0
M  V30 2093 H 201.225 4.45156 1.61657 0
M  V30 2094 H 201.649 6.75964 0.374449 0
M  V30 2095 H 206.291 4.01557 1.32332 0
M  V30 2096 H 204.009 8.06359 -0.530231 0
M  V30 2097 H 207.595 5.81327 0.234625 0
M  V30 2098 H 206.475 7.81257 -0.67875 0
M  V30 2099 N 203.978 -0.674533 1.42435 0
M  V30 2100 C 205.394 -0.98769 1.25367 0
M  V30 2101 C 205.594 -2.00879 0.158044 0
M  V30 2102 O 204.65 -2.48075 -0.470633 0
M  V30 2103 C 205.963 -1.49224 2.6106 0
M  V30 2104 C 207.511 -1.61 2.68417 0
M  V30 2105 C 207.986 -2.14852 4.04478 0
M  V30 2106 N 209.477 -2.22185 4.06434 0
M  V30 2107 C 210.212 -2.64928 5.08528 0
M  V30 2108 N 209.708 -3.07121 6.21006 0
M  V30 2109 N 211.501 -2.64679 4.95885 0
M  V30 2110 H 203.652 0.00152503 2.124 0
M  V30 2111 H 205.915 -0.0618434 0.945981 0
M  V30 2112 H 205.621 -0.816453 3.42092 0
M  V30 2113 H 205.495 -2.47094 2.84999 0
M  V30 2114 H 207.882 -2.27686 1.87732 0
M  V30 2115 H 207.963 -0.616195 2.48267 0
M  V30 2116 H 207.607 -1.48775 4.85622 0
M  V30 2117 H 207.537 -3.15024 4.2198 0
M  V30 2118 H 210.028 -1.92435 3.25234 0
M  V30 2119 H 210.341 -3.38423 6.94759 0
M  V30 2120 H 208.686 -3.04978 6.24511 0
M  V30 2121 H 211.877 -2.31078 4.07088 0
M  V30 2122 H 212.05 -2.9767 5.75584 0
M  V30 2123 N 205.456 -1.28612 -0.910864 0
M  V30 2124 C 206.872 -1.06381 -1.18976 0
M  V30 2125 C 207.072 0.191998 -2.00583 0
M  V30 2126 O 206.128 0.892869 -2.36187 0
M  V30 2127 C 207.441 -2.31295 -1.92154 0
M  V30 2128 C 208.989 -2.36503 -2.05025 0
M  V30 2129 C 209.464 -3.61191 -2.81612 0
M  V30 2130 N 210.955 -3.61847 -2.89172 0
M  V30 2131 C 211.69 -4.55004 -3.4894 0
M  V30 2132 N 211.186 -5.58482 -4.09963 0
M  V30 2133 N 212.979 -4.42594 -3.46506 0
M  V30 2134 H 205.13 -2.09221 -0.366094 0
M  V30 2135 H 207.393 -0.921003 -0.224629 0
M  V30 2136 H 207.099 -3.228 -1.39618 0
M  V30 2137 H 206.973 -2.37934 -2.9269 0
M  V30 2138 H 209.36 -1.45494 -2.5674 0
M  V30 2139 H 209.441 -2.33857 -1.03657 0
M  V30 2140 H 209.085 -4.52545 -2.30576 0
M  V30 2141 H 209.015 -3.61092 -3.83302 0
M  V30 2142 H 211.506 -2.87022 -2.45819 0
M  V30 2143 H 211.819 -6.25704 -4.53557 0
M  V30 2144 H 210.164 -5.62305 -4.08459 0
M  V30 2145 H 213.355 -3.60953 -2.98045 0
M  V30 2146 H 213.528 -5.15381 -3.92793 0
M  V30 2147 N 206.934 1.1197 -1.10907 0
M  V30 2148 C 207.897 2.16031 -0.765707 0
M  V30 2149 C 208.897 1.59393 0.212235 0
M  V30 2150 O 210.087 1.74196 -0.0115441 0
M  V30 2151 C 207.219 3.40632 -0.135053 0
M  V30 2152 H 208.412 2.47919 -1.68748 0
M  V30 2153 H 205.965 1.27061 -0.910226 0
M  V30 2154 H 206.7 3.14348 0.797218 0
M  V30 2155 H 206.485 3.8302 -0.838937 0
M  V30 2156 H 207.975 4.17505 0.0892469 0
M  V30 2157 N 208.412 0.89855 1.29475 0
M  V30 2158 C 209.322 0.379974 2.31502 0
M  V30 2159 C 210.338 -0.524695 1.659 0
M  V30 2160 O 211.514 -0.414551 1.97087 0
M  V30 2161 C 208.579 -0.385138 3.44554 0
M  V30 2162 C 207.64 0.550914 4.2575 0
M  V30 2163 C 206.873 -0.177778 5.33404 0
M  V30 2164 O 207.096 -1.40189 5.52904 0
M  V30 2165 O 206.03 0.479106 5.9999 0
M  V30 2166 H 209.856 1.22639 2.77837 0
M  V30 2167 H 207.441 0.662834 1.33891 0
M  V30 2168 H 209.323 -0.817841 4.13388 0
M  V30 2169 H 207.998 -1.20763 3.0033 0
M  V30 2170 H 206.905 1.03271 3.59564 0
M  V30 2171 H 208.238 1.33979 4.73614 0
M  V30 2172 N 209.89 -1.43072 0.660911 0
M  V30 2173 C 210.853 -2.29194 -0.0166406 0
M  V30 2174 C 211.853 -1.42609 -0.742912 0
M  V30 2175 O 213.043 -1.64155 -0.583004 0
M  V30 2176 C 210.175 -3.24831 -1.0343 0
M  V30 2177 H 211.368 -2.90596 0.741208 0
M  V30 2178 H 208.921 -1.5048 0.422532 0
M  V30 2179 H 209.656 -2.68339 -1.82111 0
M  V30 2180 H 209.441 -3.88676 -0.517082 0
M  V30 2181 H 210.931 -3.89451 -1.50723 0
M  V30 2182 N 211.368 -0.403325 -1.52352 0
M  V30 2183 C 212.298 0.416205 -2.29761 0
M  V30 2184 C 213.279 1.05123 -1.33728 0
M  V30 2185 O 214.464 1.06134 -1.62632 0
M  V30 2186 C 211.594 1.53624 -3.11475 0
M  V30 2187 C 210.548 1.02653 -4.15507 0
M  V30 2188 C 209.874 2.23971 -4.85532 0
M  V30 2189 C 211.174 0.08463 -5.22231 0
M  V30 2190 H 212.868 -0.229701 -2.98518 0
M  V30 2191 H 210.414 -0.111913 -1.43564 0
M  V30 2192 H 212.367 2.1165 -3.64393 0
M  V30 2193 H 211.091 2.20994 -2.40477 0
M  V30 2194 H 209.75 0.46871 -3.63591 0
M  V30 2195 H 209.398 2.89883 -4.11068 0
M  V30 2196 H 209.098 1.90521 -5.55856 0
M  V30 2197 H 210.622 2.82614 -5.41259 0
M  V30 2198 H 212.036 0.573509 -5.70424 0
M  V30 2199 H 210.433 -0.160783 -5.99885 0
M  V30 2200 H 211.503 -0.86237 -4.7717 0
M  V30 2201 N 212.846 1.57033 -0.133567 0
M  V30 2202 C 214.094 1.953 0.519848 0
M  V30 2203 C 214.415 1.01866 1.66278 0
M  V30 2204 O 213.685 0.0776513 1.95746 0
M  V30 2205 H 212.265 0.721091 0.195032 0
M  V30 2206 H 214.927 1.93809 -0.205921 0
M  V30 2207 H 214.023 2.98695 0.904854 0
M  V30 2208 N 214.325 -0.140222 1.56975 0
M  V30 2209 C 215.555 -0.865181 1.87612 0
M  V30 2210 C 215.963 -1.74942 0.72055 0
M  V30 2211 O 215.306 -1.80917 -0.318561 0
M  V30 2212 C 215.368 -1.76782 3.13031 0
M  V30 2213 C 215.032 -1.06005 4.44536 0
M  V30 2214 C 216.029 -0.410768 5.18275 0
M  V30 2215 C 213.714 -1.04754 4.91255 0
M  V30 2216 C 215.708 0.241572 6.36942 0
M  V30 2217 C 213.395 -0.391394 6.09845 0
M  V30 2218 C 214.393 0.252029 6.82535 0
M  V30 2219 O 214.081 0.897757 7.98871 0
M  V30 2220 H 213.813 -0.255188 0.625983 0
M  V30 2221 H 216.367 -0.135653 2.04952 0
M  V30 2222 H 214.597 -2.53846 2.91718 0
M  V30 2223 H 216.286 -2.36533 3.29859 0
M  V30 2224 H 217.052 -0.412195 4.83245 0
M  V30 2225 H 212.931 -1.53777 4.34596 0
M  V30 2226 H 216.475 0.744375 6.93617 0
M  V30 2227 H 212.372 -0.387656 6.44335 0
M  V30 2228 H 213.14 0.800102 8.1458 0
M  V30 2229 N 215.803 -1.52179 -0.40978 0
M  V30 2230 C 217.214 -1.58377 -0.988615 0
M  V30 2231 C 217.565 -0.423879 -1.91566 0
M  V30 2232 O 216.69 0.455844 -2.11544 0
M  V30 2233 C 217.285 -2.87044 -1.79976 0
M  V30 2234 C 215.844 -2.95722 -2.32863 0
M  V30 2235 C 214.991 -2.53309 -1.12828 0
M  V30 2236 H 217.942 -1.57558 -0.190039 0
M  V30 2237 H 217.963 -2.7236 -2.65707 0
M  V30 2238 H 217.475 -3.71444 -1.12478 0
M  V30 2239 H 215.576 -2.15814 -3.03735 0
M  V30 2240 H 215.689 -3.99951 -2.63773 0
M  V30 2241 H 214.053 -2.07142 -1.48204 0
M  V30 2242 H 214.836 -3.40082 -0.46897 0
M  V30 2243 N 217.281 0.66697 -1.42791 0
M  V30 2244 C 218.231 1.77313 -1.43332 0
M  V30 2245 C 219.215 1.5801 -0.303586 0
M  V30 2246 O 220.407 1.68356 -0.546385 0
M  V30 2247 C 217.536 3.15822 -1.34578 0
M  V30 2248 C 216.622 3.40721 -2.52528 0
M  V30 2249 N 217.013 3.36162 -3.77927 0
M  V30 2250 C 215.311 3.71387 -2.46956 0
M  V30 2251 C 216.012 3.60762 -4.56318 0
M  V30 2252 N 214.988 3.81908 -3.86843 0
M  V30 2253 H 218.79 1.72193 -2.38174 0
M  V30 2254 H 216.304 0.868114 -1.3725 0
M  V30 2255 H 218.301 3.951 -1.33048 0
M  V30 2256 H 216.961 3.22133 -0.407453 0
M  V30 2257 H 217.972 3.15885 -4.10411 0
M  V30 2258 H 214.649 3.84897 -1.61743 0
M  V30 2259 H 216.039 3.63132 -5.65318 0
M  V30 2260 N 218.759 1.29093 0.90403 0
M  V30 2261 C 220.175 1.07011 1.1841 0
M  V30 2262 C 220.375 -0.181358 2.00682 0
M  V30 2263 O 219.431 -0.880331 2.36657 0
M  V30 2264 C 220.744 2.32311 1.90924 0
M  V30 2265 C 222.292 2.37587 2.03768 0
M  V30 2266 C 222.767 3.62679 2.79693 0
M  V30 2267 N 224.258 3.63376 2.87249 0
M  V30 2268 C 224.993 4.56848 3.46522 0
M  V30 2269 N 224.489 5.60648 4.06996 0
M  V30 2270 N 226.282 4.44426 3.44154 0
M  V30 2271 H 218.433 2.09412 0.354993 0
M  V30 2272 H 220.696 0.922181 0.219742 0
M  V30 2273 H 220.402 3.23536 1.37905 0
M  V30 2274 H 220.276 2.39483 2.91424 0
M  V30 2275 H 222.663 1.46853 2.55965 0
M  V30 2276 H 222.744 2.34403 1.02415 0
M  V30 2277 H 222.388 4.53762 2.28173 0
M  V30 2278 H 222.318 3.63119 3.81381 0
M  V30 2279 H 224.809 2.88321 2.44293 0
M  V30 2280 H 225.122 6.28101 4.50232 0
M  V30 2281 H 223.467 5.64463 4.05471 0
M  V30 2282 H 226.658 3.62529 2.96126 0
M  V30 2283 H 226.831 5.17457 3.90054 0
M  V30 2284 N 220.237 -1.11381 1.11499 0
M  V30 2285 C 221.483 -1.83403 0.865512 0
M  V30 2286 C 221.816 -1.84459 -0.607329 0
M  V30 2287 O 221.091 -1.29811 -1.44842 0
M  V30 2288 C 221.374 -3.30552 1.42855 0
M  V30 2289 C 221.227 -3.37886 2.96906 0
M  V30 2290 C 222.546 -4.26643 1.08 0
M  V30 2291 H 219.665 -0.665879 0.31587 0
M  V30 2292 H 222.307 -1.30601 1.37998 0
M  V30 2293 H 220.457 -3.75648 0.990985 0
M  V30 2294 H 222.129 -3.01343 3.49271 0
M  V30 2295 H 220.372 -2.78088 3.32941 0
M  V30 2296 H 221.043 -4.41458 3.31389 0
M  V30 2297 H 223.519 -3.89729 1.45775 0
M  V30 2298 H 222.395 -5.27986 1.50072 0
M  V30 2299 H 222.656 -4.42099 -0.00915037 0
M  V30 2300 N 221.715 -0.905404 -1.28997 0
M  V30 2301 C 222.963 -0.533192 -1.9494 0
M  V30 2302 C 223.284 0.924618 -1.71685 0
M  V30 2303 O 222.554 1.65268 -1.05183 0
M  V30 2304 H 221.134 -0.194194 -0.721317 0
M  V30 2305 H 223.796 -1.15294 -1.57141 0
M  V30 2306 H 222.892 -0.72059 -3.03667 0
M  V30 2307 N 223.193 1.4272 -0.668489 0
M  V30 2308 C 224.123 2.335 -0.000100175 0
M  V30 2309 C 225.104 1.50328 0.795964 0
M  V30 2310 O 226.289 1.78949 0.754385 0
M  V30 2311 C 223.419 3.33874 0.956302 0
M  V30 2312 C 222.373 4.27152 0.269278 0
M  V30 2313 C 221.699 5.17684 1.33818 0
M  V30 2314 C 222.999 5.15373 -0.847805 0
M  V30 2315 H 224.693 2.89639 -0.758244 0
M  V30 2316 H 222.239 1.39269 -0.366079 0
M  V30 2317 H 224.192 3.9629 1.43292 0
M  V30 2318 H 222.916 2.76025 1.74579 0
M  V30 2319 H 221.575 3.66123 -0.187042 0
M  V30 2320 H 221.223 4.56165 2.1195 0
M  V30 2321 H 220.923 5.80918 0.883659 0
M  V30 2322 H 222.447 5.82974 1.81586 0
M  V30 2323 H 223.861 5.7151 -0.452681 0
M  V30 2324 H 222.258 5.87407 -1.22773 0
M  V30 2325 H 223.328 4.5415 -1.69929 0
M  V30 2326 N 224.671 0.411399 1.52136 0
M  V30 2327 C 225.917 -0.163888 2.02137 0
M  V30 2328 C 226.25 -1.44597 1.29636 0
M  V30 2329 O 225.525 -1.90272 0.403353 0
M  V30 2330 C 225.808 -0.40927 3.57767 0
M  V30 2331 C 225.661 0.889643 4.40914 0
M  V30 2332 C 226.98 -1.19042 4.23694 0
M  V30 2333 H 224.099 -0.0580896 0.734707 0
M  V30 2334 H 226.741 0.54531 1.82007 0
M  V30 2335 H 224.891 -1.0134 3.7505 0
M  V30 2336 H 226.563 1.52575 4.35337 0
M  V30 2337 H 224.806 1.50011 4.07037 0
M  V30 2338 H 225.477 0.672314 5.4789 0
M  V30 2339 H 227.953 -0.678942 4.10524 0
M  V30 2340 H 226.829 -1.33086 5.32522 0
M  V30 2341 H 227.09 -2.21166 3.82803 0
M  V30 2342 N 226.149 -1.5696 0.141893 0
M  V30 2343 C 227.112 -2.15316 -0.785587 0
M  V30 2344 C 228.112 -1.09366 -1.1788 0
M  V30 2345 O 229.302 -1.35031 -1.10056 0
M  V30 2346 C 226.434 -2.71211 -2.06537 0
M  V30 2347 H 227.627 -2.98608 -0.278041 0
M  V30 2348 H 225.18 -1.5593 -0.107519 0
M  V30 2349 H 225.915 -1.91571 -2.6167 0
M  V30 2350 H 225.7 -3.4872 -1.79268 0
M  V30 2351 H 227.19 -3.16189 -2.72789 0
M  V30 2352 N 227.627 0.131896 -1.57047 0
M  V30 2353 C 228.852 0.860418 -1.8871 0
M  V30 2354 C 229.277 1.73251 -0.73251 0
M  V30 2355 O 228.635 1.785 0.317429 0
M  V30 2356 C 228.683 1.68047 -3.19049 0
M  V30 2357 O 227.787 2.7862 -3.04047 0
M  V30 2358 H 227.128 0.238743 -0.619595 0
M  V30 2359 H 229.658 0.118169 -2.04258 0
M  V30 2360 H 229.668 2.07238 -3.51449 0
M  V30 2361 H 228.343 1.04018 -4.02682 0
M  V30 2362 H 226.92 2.42726 -2.83088 0
M  V30 2363 N 229.106 1.52395 0.401703 0
M  V30 2364 C 230.016 1.7917 1.51444 0
M  V30 2365 C 231.032 0.677691 1.6026 0
M  V30 2366 O 232.208 0.963909 1.76835 0
M  V30 2367 C 229.273 1.94347 2.87107 0
M  V30 2368 C 228.334 3.18257 2.88116 0
M  V30 2369 C 227.567 3.32701 4.17308 0
M  V30 2370 O 227.79 2.52238 5.11598 0
M  V30 2371 O 226.724 4.25891 4.25324 0
M  V30 2372 H 230.55 2.73633 1.31752 0
M  V30 2373 H 228.135 1.3733 0.588296 0
M  V30 2374 H 230.017 2.06109 3.67555 0
M  V30 2375 H 228.692 1.03073 3.06851 0
M  V30 2376 H 227.599 3.11947 2.06494 0
M  V30 2377 H 228.932 4.09336 2.73322 0
M  V30 2378 N 230.584 -0.659388 1.43143 0
M  V30 2379 C 231.861 -1.41627 1.34912 0
M  V30 2380 C 232.241 -2.11099 -0.00607785 0
M  V30 2381 O 231.589 -2.04353 -1.02236 0
M  V30 2382 C 231.799 -2.40604 2.52805 0
M  V30 2383 C 233.147 -3.04789 2.95616 0
M  V30 2384 O 234.171 -2.50932 2.52807 0
M  V30 2385 O 233.03 -4.02421 3.69756 0
M  V30 2386 H 230.124 -0.63246 0.532844 0
M  V30 2387 H 232.67 -0.686814 1.5518 0
M  V30 2388 H 231.442 -1.88174 3.43083 0
M  V30 2389 H 231.065 -3.21009 2.34604 0
M  V30 2390 N 232.062 -1.29571 -0.897171 0
M  V30 2391 C 233.025 -1.14913 -1.98312 0
M  V30 2392 C 234.025 -0.0838629 -1.60581 0
M  V30 2393 O 235.215 -0.331006 -1.71026 0
M  V30 2394 C 232.347 -0.757835 -3.3237 0
M  V30 2395 H 233.54 -2.11377 -2.12743 0
M  V30 2396 H 231.093 -1.12793 -1.08201 0
M  V30 2397 H 231.828 0.206837 -3.2364 0
M  V30 2398 H 231.613 -1.52755 -3.61121 0
M  V30 2399 H 233.103 -0.678408 -4.12053 0
M  V30 2400 N 233.54 1.10788 -1.12088 0
M  V30 2401 C 234.787 1.82671 -0.873931 0
M  V30 2402 C 235.115 1.85004 0.600311 0
M  V30 2403 O 234.37 1.30365 1.45957 0
M  V30 2404 C 234.669 3.29294 -1.38926 0
M  V30 2405 C 234.335 3.47113 -2.87791 0
M  V30 2406 C 232.997 3.51684 -3.28439 0
M  V30 2407 C 235.349 3.52808 -3.83635 0
M  V30 2408 C 232.677 3.59513 -4.63646 0
M  V30 2409 C 235.029 3.62169 -5.18668 0
M  V30 2410 C 233.693 3.65003 -5.58864 0
M  V30 2411 H 232.963 0.668441 -0.319794 0
M  V30 2412 H 235.61 1.30613 -1.40045 0
M  V30 2413 H 233.915 3.83894 -0.783122 0
M  V30 2414 H 235.612 3.83416 -1.17443 0
M  V30 2415 H 232.202 3.4423 -2.5535 0
M  V30 2416 H 236.386 3.4853 -3.53328 0
M  V30 2417 H 231.642 3.59987 -4.94185 0
M  V30 2418 H 235.816 3.6552 -5.92763 0
M  V30 2419 H 233.443 3.70822 -6.63623 0
M  V30 2420 N 235.018 0.912232 1.28515 0
M  V30 2421 C 236.248 0.559604 1.98877 0
M  V30 2422 C 236.656 -0.863113 1.68366 0
M  V30 2423 O 235.999 -1.58304 0.931969 0
M  V30 2424 C 236.061 0.68703 3.52874 0
M  V30 2425 C 235.725 2.07901 4.06972 0
M  V30 2426 C 236.722 3.05157 4.20922 0
M  V30 2427 C 234.407 2.39178 4.417 0
M  V30 2428 C 236.401 4.31806 4.68852 0
M  V30 2429 C 234.088 3.66068 4.89324 0
M  V30 2430 C 235.086 4.62195 5.02856 0
M  V30 2431 O 234.774 5.86829 5.49442 0
M  V30 2432 H 234.506 0.212191 0.641834 0
M  V30 2433 H 237.06 1.22712 1.64715 0
M  V30 2434 H 235.29 -0.0375486 3.86682 0
M  V30 2435 H 236.979 0.341727 4.04459 0
M  V30 2436 H 237.745 2.82311 3.94367 0
M  V30 2437 H 233.624 1.65109 4.30418 0
M  V30 2438 H 237.168 5.06842 4.79329 0
M  V30 2439 H 233.065 3.88739 5.15318 0
M  V30 2440 H 233.833 5.89597 5.6773 0
M  V30 2441 N 236.496 -1.42363 0.676048 0
M  V30 2442 C 237.459 -2.29199 0.00766941 0
M  V30 2443 C 238.459 -1.43389 -0.727745 0
M  V30 2444 O 239.649 -1.64764 -0.56556 0
M  V30 2445 C 236.781 -3.2591 -0.999785 0
M  V30 2446 H 237.974 -2.89794 0.771988 0
M  V30 2447 H 235.527 -1.50024 0.438468 0
M  V30 2448 H 236.262 -2.70256 -1.79255 0
M  V30 2449 H 236.047 -3.89202 -0.475829 0
M  V30 2450 H 237.537 -3.91028 -1.46583 0
M  V30 2451 N 237.974 -0.419461 -1.51915 0
M  V30 2452 C 239.202 0.152136 -2.0634 0
M  V30 2453 C 239.617 1.37988 -1.28859 0
M  V30 2454 O 238.974 1.79243 -0.343232 0
M  V30 2455 C 239.025 0.492266 -3.58133 0
M  V30 2456 O 238.746 -0.686736 -4.32684 0
M  V30 2457 C 240.247 1.11648 -4.2901 0
M  V30 2458 H 237.467 0.0158325 -0.670813 0
M  V30 2459 H 240.011 -0.593394 -1.95702 0
M  V30 2460 H 238.166 1.18769 -3.68745 0
M  V30 2461 H 238.58 -0.400341 -5.2297 0
M  V30 2462 H 240.054 1.3046 -5.36362 0
M  V30 2463 H 240.531 2.09251 -3.86148 0
M  V30 2464 H 241.137 0.460958 -4.22795 0
M  V30 2465 N 239.452 1.56882 -0.150215 0
M  V30 2466 C 240.68 2.00593 0.506948 0
M  V30 2467 C 241.095 1.03033 1.58208 0
M  V30 2468 O 240.452 0.0278396 1.82479 0
M  V30 2469 C 240.503 3.44209 1.10465 0
M  V30 2470 O 240.224 4.3804 0.0724636 0
M  V30 2471 C 241.725 4.03214 1.84211 0
M  V30 2472 H 238.945 0.65795 0.13169 0
M  V30 2473 H 241.489 2.03018 -0.245743 0
M  V30 2474 H 239.644 3.42625 1.80795 0
M  V30 2475 H 240.058 5.22007 0.510793 0
M  V30 2476 H 241.532 5.0569 2.21318 0
M  V30 2477 H 242.009 3.44107 2.72923 0
M  V30 2478 H 242.615 4.08437 1.18572 0
M  V30 2479 N 240.93 -0.123565 1.57115 0
M  V30 2480 C 242.341 -0.681198 1.73829 0
M  V30 2481 C 242.692 -1.80535 0.768214 0
M  V30 2482 O 241.817 -2.16317 -0.0599103 0
M  V30 2483 C 242.412 -1.24246 3.15196 0
M  V30 2484 C 240.971 -1.74643 3.33432 0
M  V30 2485 C 240.118 -0.644284 2.69711 0
M  V30 2486 H 243.069 0.102315 1.5837 0
M  V30 2487 H 243.09 -2.11216 3.16493 0
M  V30 2488 H 242.602 -0.424062 3.85776 0
M  V30 2489 H 240.703 -2.58974 2.67886 0
M  V30 2490 H 240.816 -1.85902 4.41562 0
M  V30 2491 H 239.18 -1.07676 2.3082 0
M  V30 2492 H 239.963 0.163058 3.42913 0
M  V30 2493 N 242.408 -1.52605 -0.393616 0
M  V30 2494 C 243.318 -1.79971 -1.50492 0
M  V30 2495 C 244.334 -0.686181 -1.59899 0
M  V30 2496 O 245.51 -0.973274 -1.76322 0
M  V30 2497 C 242.575 -1.95867 -2.86072 0
M  V30 2498 C 241.636 -3.19781 -2.86424 0
M  V30 2499 C 240.869 -3.34909 -4.15538 0
M  V30 2500 O 241.092 -2.54948 -5.10253 0
M  V30 2501 O 240.026 -4.28141 -4.23059 0
M  V30 2502 H 243.852 -2.74328 -1.30299 0
M  V30 2503 H 241.437 -1.3764 -0.581005 0
M  V30 2504 H 243.319 -2.08056 -3.66457 0
M  V30 2505 H 241.994 -1.04699 -3.063 0
M  V30 2506 H 240.901 -3.13038 -2.04837 0
M  V30 2507 H 242.234 -4.1078 -2.71147 0
M  V30 2508 N 243.887 0.651787 -1.4349 0
M  V30 2509 C 244.797 1.79368 -1.5121 0
M  V30 2510 C 245.813 1.69361 -0.399093 0
M  V30 2511 O 246.989 1.90505 -0.653431 0
M  V30 2512 C 244.054 3.15653 -1.43401 0
M  V30 2513 C 243.115 3.37446 -2.65384 0
M  V30 2514 C 242.348 4.67229 -2.57939 0
M  V30 2515 O 242.571 5.46676 -1.62792 0
M  V30 2516 O 241.505 4.90773 -3.48462 0
M  V30 2517 H 245.331 1.7581 -2.47638 0
M  V30 2518 H 242.916 0.810447 -1.25507 0
M  V30 2519 H 244.798 3.96935 -1.41494 0
M  V30 2520 H 243.473 3.19798 -0.501085 0
M  V30 2521 H 242.38 2.55923 -2.72863 0
M  V30 2522 H 243.713 3.38148 -3.57654 0
M  V30 2523 N 245.365 1.30045 0.890287 0
M  V30 2524 C 246.328 1.15963 1.977 0
M  V30 2525 C 247.328 0.0923777 1.60534 0
M  V30 2526 O 248.518 0.340071 1.70848 0
M  V30 2527 C 245.65 0.775451 3.31963 0
M  V30 2528 H 246.843 2.12502 2.11619 0
M  V30 2529 H 244.396 1.13366 1.07601 0
M  V30 2530 H 245.131 -0.189671 3.23745 0
M  V30 2531 H 244.916 1.54668 3.60306 0
M  V30 2532 H 246.406 0.700251 4.11687 0
M  V30 2533 N 246.843 -1.10192 1.12674 0
M  V30 2534 C 248.259 -1.34235 0.863317 0
M  V30 2535 C 248.459 -1.95062 -0.505277 0
M  V30 2536 O 247.515 -2.19192 -1.25345 0
M  V30 2537 C 248.828 -2.2616 1.98172 0
M  V30 2538 C 250.376 -2.3969 2.0129 0
M  V30 2539 C 250.851 -3.34946 3.1237 0
M  V30 2540 N 252.342 -3.42515 3.11829 0
M  V30 2541 C 253.077 -4.16199 3.94419 0
M  V30 2542 N 252.573 -4.92747 4.87004 0
M  V30 2543 N 254.366 -4.11843 3.82547 0
M  V30 2544 H 246.517 -0.690798 2.00853 0
M  V30 2545 H 248.78 -0.366774 0.874174 0
M  V30 2546 H 248.486 -1.8868 2.96804 0
M  V30 2547 H 248.36 -3.26488 1.88906 0
M  V30 2548 H 250.747 -2.76438 1.03276 0
M  V30 2549 H 250.828 -1.39169 2.14629 0
M  V30 2550 H 250.472 -2.98923 4.10619 0
M  V30 2551 H 250.402 -4.35353 2.96269 0
M  V30 2552 H 252.893 -2.87926 2.44759 0
M  V30 2553 H 253.206 -5.46376 5.46528 0
M  V30 2554 H 251.551 -4.91862 4.91016 0
M  V30 2555 H 254.742 -3.51136 3.0955 0
M  V30 2556 H 254.915 -4.69007 4.47142 0
M  V30 2557 N 248.321 -0.919034 -1.28029 0
M  V30 2558 C 249.284 -0.416182 -2.2539 0
M  V30 2559 C 250.284 0.460438 -1.54067 0
M  V30 2560 O 251.474 0.262744 -1.72207 0
M  V30 2561 C 248.606 0.402707 -3.38513 0
M  V30 2562 H 249.799 -1.27629 -2.71387 0
M  V30 2563 H 247.352 -0.698919 -1.39803 0
M  V30 2564 H 248.087 1.282 -2.97885 0
M  V30 2565 H 247.872 -0.225698 -3.9145 0
M  V30 2566 H 249.362 0.745191 -4.10897 0
M  V30 2567 N 249.799 1.42003 -0.683588 0
M  V30 2568 C 251.045 2.02223 -0.218536 0
M  V30 2569 C 251.4 1.53126 1.16492 0
M  V30 2570 O 250.693 0.727459 1.77253 0
M  V30 2571 C 250.887 3.56827 -0.202357 0
M  V30 2572 C 250.716 4.20928 -1.5827 0
M  V30 2573 C 249.486 4.5573 -2.18262 0
M  V30 2574 C 251.684 4.47933 -2.52706 0
M  V30 2575 N 249.666 5.05056 -3.48986 0
M  V30 2576 C 251.037 4.98906 -3.68094 0
M  V30 2577 C 253.092 4.29931 -2.51125 0
M  V30 2578 C 251.795 5.33768 -4.82166 0
M  V30 2579 C 253.821 4.65875 -3.643 0
M  V30 2580 C 253.183 5.17008 -4.78417 0
M  V30 2581 H 249.282 0.771931 -0.125088 0
M  V30 2582 H 251.866 1.72729 -0.898479 0
M  V30 2583 H 250.037 3.85819 0.447029 0
M  V30 2584 H 251.769 4.03755 0.276399 0
M  V30 2585 H 248.524 4.41781 -1.70665 0
M  V30 2586 H 248.948 5.34139 -4.15962 0
M  V30 2587 H 253.59 3.89647 -1.6412 0
M  V30 2588 H 251.308 5.72981 -5.6984 0
M  V30 2589 H 254.894 4.53615 -3.64314 0
M  V30 2590 H 253.774 5.44301 -5.64541 0
M  V30 2591 N 251.277 0.427512 1.51691 0
M  V30 2592 C 252.24 -0.377132 2.26076 0
M  V30 2593 C 253.24 -0.958089 1.29141 0
M  V30 2594 O 254.43 -0.83408 1.52934 0
M  V30 2595 C 251.562 -1.53262 3.04506 0
M  V30 2596 H 252.755 0.27464 2.9864 0
M  V30 2597 H 250.308 0.180445 1.55255 0
M  V30 2598 H 251.043 -2.22072 2.36335 0
M  V30 2599 H 250.828 -1.12232 3.75694 0
M  V30 2600 H 252.318 -2.10135 3.60878 0
M  V30 2601 N 252.755 -1.56801 0.158532 0
M  V30 2602 C 254.171 -1.5837 -0.197774 0
M  V30 2603 C 254.371 -1.17334 -1.63814 0
M  V30 2604 O 253.427 -0.878988 -2.36707 0
M  V30 2605 C 254.74 -3.00615 0.0714459 0
M  V30 2606 C 256.288 -3.12999 0.00864533 0
M  V30 2607 C 256.763 -4.57313 0.250685 0
M  V30 2608 N 258.254 -4.62777 0.198014 0
M  V30 2609 C 258.989 -5.72271 0.359642 0
M  V30 2610 N 258.485 -6.90371 0.579625 0
M  V30 2611 N 260.278 -5.61318 0.296438 0
M  V30 2612 H 252.429 -1.81765 1.09887 0
M  V30 2613 H 254.692 -0.841849 0.435884 0
M  V30 2614 H 254.398 -3.35068 1.06874 0
M  V30 2615 H 254.272 -3.71683 -0.642757 0
M  V30 2616 H 256.659 -2.7838 -0.979217 0
M  V30 2617 H 256.74 -2.44393 0.755359 0
M  V30 2618 H 256.384 -4.92639 1.2357 0
M  V30 2619 H 256.314 -5.24061 -0.516489 0
M  V30 2620 H 258.805 -3.77885 0.0331115 0
M  V30 2621 H 259.118 -7.69689 0.69275 0
M  V30 2622 H 257.463 -6.92264 0.616087 0
M  V30 2623 H 260.654 -4.67932 0.125258 0
M  V30 2624 H 260.827 -6.46599 0.425831 0
M  V30 2625 N 254.233 0.115231 -1.57178 0
M  V30 2626 C 255.463 0.835224 -1.88964 0
M  V30 2627 C 255.871 1.73774 -0.74829 0
M  V30 2628 O 255.214 1.81401 0.289739 0
M  V30 2629 C 255.276 1.7178 -3.15804 0
M  V30 2630 C 254.94 0.989198 -4.46166 0
M  V30 2631 C 255.937 0.328263 -5.18863 0
M  V30 2632 C 253.622 0.969256 -4.9286 0
M  V30 2633 C 255.616 -0.342873 -6.36477 0
M  V30 2634 C 253.303 0.294324 -6.10391 0
M  V30 2635 C 254.301 -0.360582 -6.82048 0
M  V30 2636 O 253.989 -1.02474 -7.97342 0
M  V30 2637 H 253.721 0.245197 -0.629964 0
M  V30 2638 H 256.275 0.10303 -2.05141 0
M  V30 2639 H 254.505 2.49173 -2.95719 0
M  V30 2640 H 256.194 2.31255 -3.33581 0
M  V30 2641 H 256.96 0.335263 -4.8384 0
M  V30 2642 H 252.839 1.46844 -4.36987 0
M  V30 2643 H 256.383 -0.854629 -6.92345 0
M  V30 2644 H 252.28 0.285099 -6.4487 0
M  V30 2645 H 253.048 -0.929594 -8.13204 0
M  V30 2646 N 255.711 1.52812 0.385517 0
M  V30 2647 C 256.959 1.67694 1.12797 0
M  V30 2648 C 257.28 0.421115 1.90399 0
M  V30 2649 O 256.55 -0.564551 1.87589 0
M  V30 2650 H 255.13 0.618155 0.419396 0
M  V30 2651 H 257.792 1.89938 0.436972 0
M  V30 2652 H 256.888 2.52896 1.82894 0
M  V30 2653 N 257.189 -0.644168 1.43834 0
M  V30 2654 C 258.435 -1.40603 1.46146 0
M  V30 2655 C 258.768 -1.93997 0.0887717 0
M  V30 2656 O 258.043 -1.72854 -0.891724 0
M  V30 2657 C 258.326 -2.58086 2.51124 0
M  V30 2658 C 258.179 -2.10126 3.97702 0
M  V30 2659 C 259.498 -3.60291 2.52742 0
M  V30 2660 H 256.617 -0.509905 0.532134 0
M  V30 2661 H 259.259 -0.729502 1.75437 0
M  V30 2662 H 257.409 -3.15801 2.26278 0
M  V30 2663 H 259.081 -1.57342 4.33637 0
M  V30 2664 H 257.324 -1.41419 4.10101 0
M  V30 2665 H 257.995 -2.94649 4.66783 0
M  V30 2666 H 260.471 -3.12352 2.7491 0
M  V30 2667 H 259.347 -4.40032 3.28121 0
M  V30 2668 H 259.608 -4.1349 1.56455 0
M  V30 2669 N 258.668 -1.30515 -0.883378 0
M  V30 2670 C 259.598 -1.19607 -2.00541 0
M  V30 2671 C 260.579 -0.086346 -1.69881 0
M  V30 2672 O 261.764 -0.268654 -1.92333 0
M  V30 2673 C 258.894 -0.888758 -3.35736 0
M  V30 2674 C 257.848 -1.95659 -3.8066 0
M  V30 2675 C 257.174 -1.50224 -5.13164 0
M  V30 2676 C 258.474 -3.36788 -3.99213 0
M  V30 2677 H 260.168 -2.13476 -2.09925 0
M  V30 2678 H 257.714 -1.02775 -1.00863 0
M  V30 2679 H 259.667 -0.799094 -4.13754 0
M  V30 2680 H 258.391 0.0856125 -3.26488 0
M  V30 2681 H 257.05 -2.03591 -3.04871 0
M  V30 2682 H 256.698 -0.516092 -5.00345 0
M  V30 2683 H 256.398 -2.2165 -5.44192 0
M  V30 2684 H 257.922 -1.42639 -5.93706 0
M  V30 2685 H 259.336 -3.31605 -4.67665 0
M  V30 2686 H 257.733 -4.06314 -4.41621 0
M  V30 2687 H 258.803 -3.78561 -3.03017 0
M  V30 2688 N 260.146 1.09593 -1.13257 0
M  V30 2689 C 261.109 2.14359 -0.811358 0
M  V30 2690 C 262.109 1.59808 0.178377 0
M  V30 2691 O 263.299 1.74132 -0.0484911 0
M  V30 2692 C 260.431 3.40269 -0.207276 0
M  V30 2693 H 261.624 2.44284 -1.73969 0
M  V30 2694 H 259.177 1.25102 -0.936973 0
M  V30 2695 H 259.912 3.15969 0.73036 0
M  V30 2696 H 259.697 3.81154 -0.919992 0
M  V30 2697 H 261.187 4.176 0.000667944 0
M  V30 2698 N 261.624 0.925811 1.2754 0
M  V30 2699 C 262.871 0.565255 1.94451 0
M  V30 2700 C 263.199 -0.89316 1.7278 0
M  V30 2701 O 262.454 -1.65213 1.04895 0
M  V30 2702 C 262.753 0.835296 3.47502 0
M  V30 2703 C 262.419 2.27515 3.89291 0
M  V30 2704 C 261.081 2.66879 4.00411 0
M  V30 2705 C 263.433 3.21158 4.10496 0
M  V30 2706 C 260.761 3.99014 4.30122 0
M  V30 2707 C 263.113 4.52871 4.4169 0
M  V30 2708 C 261.777 4.92072 4.51023 0
M  V30 2709 H 261.047 0.206841 0.711546 0
M  V30 2710 H 263.694 1.16942 1.51647 0
M  V30 2711 H 261.999 0.148442 3.91519 0
M  V30 2712 H 263.696 0.535322 3.97411 0
M  V30 2713 H 260.286 1.95976 3.81171 0
M  V30 2714 H 264.47 2.9195 4.01346 0
M  V30 2715 H 259.726 4.2907 4.35556 0
M  V30 2716 H 263.9 5.25436 4.57045 0
M  V30 2717 H 261.527 5.9449 4.738 0
M  V30 2718 N 263.102 -1.41638 0.69111 0
M  V30 2719 C 264.012 -2.34588 0.0233487 0
M  V30 2720 C 265.028 -1.55987 -0.770984 0
M  V30 2721 O 266.204 -1.88486 -0.709569 0
M  V30 2722 C 263.269 -3.34684 -0.904851 0
M  V30 2723 C 262.33 -4.29176 -0.103225 0
M  V30 2724 C 261.563 -5.2449 -0.987216 0
M  V30 2725 O 261.786 -5.2514 -2.22674 0
M  V30 2726 O 260.72 -6.00295 -0.439281 0
M  V30 2727 H 264.546 -2.93261 0.789416 0
M  V30 2728 H 262.131 -1.42417 0.45142 0
M  V30 2729 H 264.013 -3.96133 -1.43724 0
M  V30 2730 H 262.688 -2.78461 -1.65049 0
M  V30 2731 H 261.595 -3.71089 0.473655 0
M  V30 2732 H 262.928 -4.88484 0.60365 0
M  V30 2733 N 264.58 -0.43555 -1.51462 0
M  V30 2734 C 265.513 0.421989 -2.24264 0
M  V30 2735 C 266.491 1.02619 -1.26127 0
M  V30 2736 O 267.675 1.069 -1.55257 0
M  V30 2737 C 264.802 1.588 -2.99166 0
M  V30 2738 C 263.848 1.10465 -4.11946 0
M  V30 2739 S 264.681 0.048146 -5.35478 0
M  V30 2740 C 265.837 1.21887 -6.13917 0
M  V30 2741 H 266.07 -0.196102 -2.96653 0
M  V30 2742 H 263.603 -0.220054 -1.52824 0
M  V30 2743 H 265.561 2.25647 -3.42919 0
M  V30 2744 H 264.222 2.1775 -2.26371 0
M  V30 2745 H 263.415 1.97654 -4.63626 0
M  V30 2746 H 263.017 0.51445 -3.70445 0
M  V30 2747 H 265.309 2.13756 -6.42895 0
M  V30 2748 H 266.252 0.742076 -7.04201 0
M  V30 2749 H 266.66 1.45663 -5.45383 0
M  V30 2750 N 266.058 1.56714 -0.166846 0
M  V30 2751 C 266.968 2.21331 0.777791 0
M  V30 2752 C 267.984 1.20358 1.25658 0
M  V30 2753 O 269.16 1.53005 1.30964 0
M  V30 2754 C 266.225 2.83787 1.99163 0
M  V30 2755 C 265.286 3.99947 1.56016 0
M  V30 2756 C 264.519 4.59415 2.71613 0
M  V30 2757 O 264.742 4.17769 3.88362 0
M  V30 2758 O 263.676 5.49359 2.45945 0
M  V30 2759 H 267.502 3.02605 0.257636 0
M  V30 2760 H 265.087 1.49275 0.0611393 0
M  V30 2761 H 266.969 3.23405 2.70161 0
M  V30 2762 H 265.644 2.05513 2.50092 0
M  V30 2763 H 264.551 3.65007 0.819809 0
M  V30 2764 H 265.884 4.79801 1.09782 0
M  V30 2765 N 267.536 -0.106894 1.57237 0
M  V30 2766 C 268.499 -1.11466 2.0027 0
M  V30 2767 C 269.499 -1.33623 0.894519 0
M  V30 2768 O 270.689 -1.29935 1.16028 0
M  V30 2769 C 267.821 -2.46646 2.35327 0
M  V30 2770 H 269.014 -0.744516 2.90512 0
M  V30 2771 H 266.567 -0.351576 1.52295 0
M  V30 2772 H 267.302 -2.88558 1.48003 0
M  V30 2773 H 267.087 -2.31915 3.16161 0
M  V30 2774 H 268.577 -3.19151 2.69318 0
M  V30 2775 N 269.014 -1.53014 -0.377408 0
M  V30 2776 C 270.239 -1.72818 -1.14668 0
M  V30 2777 C 270.664 -0.450725 -1.8262 0
M  V30 2778 O 270.022 0.59439 -1.7128 0
M  V30 2779 C 270.07 -2.88627 -2.16164 0
M  V30 2780 O 269.174 -2.56409 -3.22998 0
M  V30 2781 H 268.515 -0.574301 -0.333278 0
M  V30 2782 H 271.045 -1.99853 -0.438152 0
M  V30 2783 H 271.055 -3.14455 -2.59966 0
M  V30 2784 H 269.73 -3.81294 -1.66095 0
M  V30 2785 H 268.307 -2.4136 -2.84253 0
M  V30 2786 N 270.492 0.636531 -1.44174 0
M  V30 2787 C 271.455 1.73063 -1.50273 0
M  V30 2788 C 272.455 1.56113 -0.385397 0
M  V30 2789 O 273.645 1.61707 -0.64781 0
M  V30 2790 C 270.777 3.12096 -1.37145 0
M  V30 2791 H 271.97 1.69031 -2.47727 0
M  V30 2792 H 269.523 0.849706 -1.31186 0
M  V30 2793 H 270.258 3.21728 -0.407636 0
M  V30 2794 H 270.043 3.25805 -2.18159 0
M  V30 2795 H 271.533 3.91846 -1.44382 0
M  V30 2796 N 271.97 1.30982 0.876444 0
M  V30 2797 C 272.9 1.20668 1.99903 0
M  V30 2798 C 273.881 0.095354 1.69833 0
M  V30 2799 O 275.066 0.27885 1.92188 0
M  V30 2800 C 272.196 0.90655 3.3526 0
M  V30 2801 C 271.15 1.97675 3.79617 0
M  V30 2802 C 270.476 1.52943 5.1236 0
M  V30 2803 C 271.776 3.389 3.97422 0
M  V30 2804 H 273.47 2.14586 2.0879 0
M  V30 2805 H 271.016 1.03308 1.00317 0
M  V30 2806 H 272.969 0.821025 4.13324 0
M  V30 2807 H 271.693 -0.0682969 3.26529 0
M  V30 2808 H 270.352 2.05205 3.03787 0
M  V30 2809 H 270 0.54262 5.00065 0
M  V30 2810 H 269.7 2.24532 5.43009 0
M  V30 2811 H 271.224 1.45786 5.92941 0
M  V30 2812 H 272.638 3.34081 4.659 0
M  V30 2813 H 271.035 4.0865 4.3946 0
M  V30 2814 H 272.105 3.80163 3.01006 0
M  V30 2815 N 273.449 -1.08991 1.13837 0
M  V30 2816 C 274.696 -1.81258 0.902882 0
M  V30 2817 C 275.024 -1.85936 -0.570803 0
M  V30 2818 O 274.279 -1.3267 -1.43865 0
M  V30 2819 C 274.578 -3.27042 1.44147 0
M  V30 2820 C 274.244 -3.4249 2.93276 0
M  V30 2821 C 272.906 -3.46414 3.33992 0
M  V30 2822 C 275.258 -3.4666 3.892 0
M  V30 2823 C 272.586 -3.52091 4.69307 0
M  V30 2824 C 274.938 -3.53872 5.24364 0
M  V30 2825 C 273.602 -3.56066 5.646 0
M  V30 2826 H 272.872 -0.663268 0.330388 0
M  V30 2827 H 275.519 -1.28368 1.42105 0
M  V30 2828 H 273.824 -3.82599 0.844097 0
M  V30 2829 H 275.521 -3.81499 1.23528 0
M  V30 2830 H 272.111 -3.40124 2.60794 0
M  V30 2831 H 276.295 -3.42865 3.58828 0
M  V30 2832 H 271.551 -3.52079 4.9985 0
M  V30 2833 H 275.725 -3.56043 5.98503 0
M  V30 2834 H 273.352 -3.60218 6.69438 0
M  V30 2835 N 274.927 -0.932562 -1.27047 0
M  V30 2836 C 275.857 -0.452902 -2.29066 0
M  V30 2837 C 276.838 0.489338 -1.62909 0
M  V30 2838 O 278.023 0.393046 -1.90181 0
M  V30 2839 C 275.153 0.290698 -3.46081 0
M  V30 2840 C 274.107 -0.564168 -4.24265 0
M  V30 2841 C 273.433 0.308886 -5.33807 0
M  V30 2842 C 274.733 -1.83112 -4.89149 0
M  V30 2843 H 276.427 -1.30552 -2.69437 0
M  V30 2844 H 273.973 -0.629201 -1.29526 0
M  V30 2845 H 275.926 0.637233 -4.16554 0
M  V30 2846 H 274.65 1.17738 -3.0464 0
M  V30 2847 H 273.309 -0.893477 -3.55545 0
M  V30 2848 H 272.957 1.19467 -4.88607 0
M  V30 2849 H 272.657 -0.259633 -5.87026 0
M  V30 2850 H 274.181 0.650884 -6.07121 0
M  V30 2851 H 275.595 -1.55236 -5.51883 0
M  V30 2852 H 273.992 -2.34353 -5.52448 0
M  V30 2853 H 275.062 -2.54772 -4.12576 0
M  V30 2854 N 276.405 1.4127 -0.698611 0
M  V30 2855 C 277.335 2.33447 -0.049629 0
M  V30 2856 C 278.316 1.51982 0.763898 0
M  V30 2857 O 279.501 1.80509 0.716257 0
M  V30 2858 C 276.631 3.35828 0.885267 0
M  V30 2859 C 275.585 4.27627 0.178613 0
M  V30 2860 C 274.911 5.20406 1.22807 0
M  V30 2861 C 276.211 5.13459 -0.956933 0
M  V30 2862 H 277.905 2.87966 -0.81951 0
M  V30 2863 H 275.451 1.38461 -0.395538 0
M  V30 2864 H 277.404 3.9924 1.34854 0
M  V30 2865 H 276.128 2.79666 1.68685 0
M  V30 2866 H 274.787 3.65643 -0.26466 0
M  V30 2867 H 274.435 4.60558 2.02226 0
M  V30 2868 H 274.135 5.82661 0.760239 0
M  V30 2869 H 275.659 5.86695 1.69179 0
M  V30 2870 H 277.073 5.70421 -0.573805 0
M  V30 2871 H 275.47 5.8467 -1.35205 0
M  V30 2872 H 276.54 4.50443 -1.79524 0
M  V30 2873 N 277.883 0.443576 1.51229 0
M  V30 2874 C 279.131 -0.120557 2.0174 0
M  V30 2875 C 279.452 -1.42665 1.32935 0
M  V30 2876 O 278.722 -1.9028 0.465866 0
M  V30 2877 H 277.302 -0.0475426 0.745486 0
M  V30 2878 H 279.964 0.587711 1.85828 0
M  V30 2879 H 279.06 -0.291972 3.10731 0
M  V30 2880 N 279.361 -1.56624 0.175154 0
M  V30 2881 C 280.777 -1.58571 -0.180966 0
M  V30 2882 C 280.977 -1.19065 -1.6256 0
M  V30 2883 O 280.033 -0.904044 -2.35761 0
M  V30 2884 C 281.346 -3.00522 0.103326 0
M  V30 2885 C 282.894 -3.12972 0.0418426 0
M  V30 2886 C 283.369 -4.57022 0.299175 0
M  V30 2887 N 284.86 -4.62541 0.247086 0
M  V30 2888 C 285.595 -5.71857 0.420318 0
M  V30 2889 N 285.091 -6.89717 0.652816 0
M  V30 2890 N 286.884 -5.60972 0.355957 0
M  V30 2891 H 279.035 -1.80589 1.11809 0
M  V30 2892 H 281.298 -0.837178 0.444788 0
M  V30 2893 H 281.004 -3.33916 1.10422 0
M  V30 2894 H 280.878 -3.72344 -0.603299 0
M  V30 2895 H 283.265 -2.79403 -0.949636 0
M  V30 2896 H 283.346 -2.43578 0.781238 0
M  V30 2897 H 282.99 -4.913 1.28788 0
M  V30 2898 H 282.92 -5.24579 -0.460876 0
M  V30 2899 H 285.411 -3.77829 0.0731895 0
M  V30 2900 H 285.724 -7.68911 0.774347 0
M  V30 2901 H 284.069 -6.91572 0.689476 0
M  V30 2902 H 287.26 -4.67773 0.174882 0
M  V30 2903 H 287.433 -6.46111 0.494388 0
M  V30 2904 N 280.839 0.0985539 -1.57292 0
M  V30 2905 C 281.772 1.15082 -1.97057 0
M  V30 2906 C 282.75 1.39025 -0.843255 0
M  V30 2907 O 283.934 1.52842 -1.10325 0
M  V30 2908 C 281.061 2.50069 -2.28437 0
M  V30 2909 C 280.107 2.42428 -3.509 0
M  V30 2910 S 280.94 1.84414 -5.02744 0
M  V30 2911 C 282.096 3.21032 -5.37298 0
M  V30 2912 H 282.329 0.811815 -2.86002 0
M  V30 2913 H 279.862 0.306102 -1.51335 0
M  V30 2914 H 281.82 3.27729 -2.47192 0
M  V30 2915 H 280.481 2.8114 -1.40069 0
M  V30 2916 H 279.674 3.41911 -3.70288 0
M  V30 2917 H 279.276 1.72896 -3.31637 0
M  V30 2918 H 281.568 4.17297 -5.33731 0
M  V30 2919 H 282.511 3.06452 -6.38352 0
M  V30 2920 H 282.919 3.20404 -4.64759 0
M  V30 2921 N 282.317 1.53212 0.369288 0
M  V30 2922 C 283.733 1.42902 0.710712 0
M  V30 2923 C 283.933 0.565135 1.93413 0
M  V30 2924 O 282.989 0.0461484 2.52458 0
M  V30 2925 C 284.302 2.86042 0.927382 0
M  V30 2926 C 285.85 2.9565 1.02762 0
M  V30 2927 C 286.325 4.39843 1.27679 0
M  V30 2928 N 287.816 4.43256 1.34457 0
M  V30 2929 C 288.551 5.51929 1.55439 0
M  V30 2930 N 288.047 6.70655 1.73762 0
M  V30 2931 N 289.84 5.39502 1.57779 0
M  V30 2932 H 281.991 2.07888 -0.435457 0
M  V30 2933 H 284.254 0.938661 -0.132739 0
M  V30 2934 H 283.96 3.51557 0.100287 0
M  V30 2935 H 283.834 3.29472 1.83653 0
M  V30 2936 H 286.221 2.30291 1.84527 0
M  V30 2937 H 286.302 2.5562 0.0959504 0
M  V30 2938 H 285.946 5.05774 0.464175 0
M  V30 2939 H 285.876 4.77443 2.22162 0
M  V30 2940 H 288.367 3.5769 1.21926 0
M  V30 2941 H 288.68 7.49248 1.89335 0
M  V30 2942 H 287.025 6.73648 1.70948 0
M  V30 2943 H 290.216 4.45713 1.43029 0
M  V30 2944 H 290.389 6.2426 1.7379 0
M  V30 2945 N 283.795 -0.628877 1.44509 0
M  V30 2946 C 285.043 -1.38565 1.4712 0
M  V30 2947 C 285.364 -1.94712 0.105899 0
M  V30 2948 O 284.634 -1.75912 -0.862079 0
M  V30 2949 H 283.214 -0.514333 0.541729 0
M  V30 2950 H 285.876 -0.740018 1.80305 0
M  V30 2951 H 284.972 -2.21583 2.19789 0
M  V30 2952 N 285.273 -1.31445 -0.869486 0
M  V30 2953 C 286.519 -1.21337 -1.62496 0
M  V30 2954 C 286.852 0.227872 -1.92858 0
M  V30 2955 O 286.127 1.16094 -1.56053 0
M  V30 2956 C 286.41 -2.05814 -2.95487 0
M  V30 2957 C 286.263 -3.5824 -2.72 0
M  V30 2958 C 287.582 -1.9079 -3.96594 0
M  V30 2959 H 284.701 -0.442135 -0.589649 0
M  V30 2960 H 287.343 -1.6124 -1.00507 0
M  V30 2961 H 285.493 -1.71913 -3.48394 0
M  V30 2962 H 287.165 -4.0228 -2.25762 0
M  V30 2963 H 285.408 -3.81647 -2.06224 0
M  V30 2964 H 286.079 -4.12657 -3.66631 0
M  V30 2965 H 288.555 -2.20459 -3.52898 0
M  V30 2966 H 287.431 -2.52199 -4.87531 0
M  V30 2967 H 287.692 -0.871341 -4.33428 0
M  V30 2968 N 286.751 1.08385 -1.14413 0
M  V30 2969 C 288.167 1.32844 -0.884563 0
M  V30 2970 C 288.367 1.95841 0.474181 0
M  V30 2971 O 287.423 2.21158 1.21842 0
M  V30 2972 C 288.736 2.22978 -2.01745 0
M  V30 2973 C 290.284 2.36458 -2.05077 0
M  V30 2974 C 290.759 3.29934 -3.1766 0
M  V30 2975 N 292.25 3.37511 -3.17239 0
M  V30 2976 C 292.985 4.09871 -4.0099 0
M  V30 2977 N 292.481 4.84936 -4.94781 0
M  V30 2978 N 294.274 4.05704 -3.89051 0
M  V30 2979 H 286.425 0.658756 -2.01926 0
M  V30 2980 H 288.688 0.352821 -0.879899 0
M  V30 2981 H 288.394 1.83934 -2.99769 0
M  V30 2982 H 288.268 3.23441 -1.94077 0
M  V30 2983 H 290.655 2.7476 -1.0766 0
M  V30 2984 H 290.736 1.35736 -2.16816 0
M  V30 2985 H 290.38 2.92352 -4.15322 0
M  V30 2986 H 290.31 4.30584 -3.03158 0
M  V30 2987 H 292.801 2.83996 -2.49308 0
M  V30 2988 H 293.114 5.37612 -5.55151 0
M  V30 2989 H 291.459 4.83988 -4.98779 0
M  V30 2990 H 294.65 3.46167 -3.15097 0
M  V30 2991 H 294.823 4.61834 -4.54547 0
M  V30 2992 N 288.23 0.939286 1.26551 0
M  V30 2993 C 289.458 0.602536 1.97932 0
M  V30 2994 C 289.873 -0.82206 1.69964 0
M  V30 2995 O 289.23 -1.54789 0.966784 0
M  V30 2996 C 289.281 0.832946 3.51773 0
M  V30 2997 O 289.002 2.20151 3.78768 0
M  V30 2998 C 290.503 0.506483 4.40397 0
M  V30 2999 H 287.723 0.227248 0.631347 0
M  V30 3000 H 290.267 1.25948 1.61113 0
M  V30 3001 H 288.422 0.222644 3.8676 0
M  V30 3002 H 288.836 2.26013 4.73306 0
M  V30 3003 H 290.31 0.718333 5.47306 0
M  V30 3004 H 290.787 -0.558451 4.35635 0
M  V30 3005 H 291.393 1.09543 4.10951 0
M  V30 3006 N 289.708 -1.40897 0.706093 0
M  V30 3007 C 290.956 -2.00657 0.241054 0
M  V30 3008 C 291.277 -1.56241 -1.16678 0
M  V30 3009 O 290.547 -0.79765 -1.78926 0
M  V30 3010 H 289.127 -0.742018 0.0861308 0
M  V30 3011 H 291.789 -1.72372 0.909604 0
M  V30 3012 H 290.885 -3.10958 0.266705 0
M  V30 3013 N 291.186 -0.45159 -1.50991 0
M  V30 3014 C 292.149 0.341117 -2.26647 0
M  V30 3015 C 293.149 0.937422 -1.30649 0
M  V30 3016 O 294.339 0.809644 -1.54241 0
M  V30 3017 C 291.471 1.48398 -3.06905 0
M  V30 3018 H 292.664 -0.322117 -2.98165 0
M  V30 3019 H 290.217 -0.205122 -1.54948 0
M  V30 3020 H 290.952 2.18284 -2.39838 0
M  V30 3021 H 290.737 1.06241 -3.77432 0
M  V30 3022 H 292.227 2.04367 -3.64176 0
M  V30 3023 N 292.664 1.56529 -0.183458 0
M  V30 3024 C 293.913 1.96419 0.458511 0
M  V30 3025 C 294.226 1.0727 1.63562 0
M  V30 3026 O 295.432 1.36893 2.34462 0
M  V30 3027 C 293.888 3.49298 0.867122 0
M  V30 3028 C 293.496 4.47092 -0.285057 0
M  V30 3029 C 295.24 3.97983 1.47683 0
M  V30 3030 C 293.147 5.91225 0.143862 0
M  V30 3031 H 292.077 0.733394 0.175071 0
M  V30 3032 H 294.728 1.81448 -0.273624 0
M  V30 3033 H 293.11 3.59731 1.65559 0
M  V30 3034 H 294.284 4.48383 -1.0625 0
M  V30 3035 H 292.599 4.08535 -0.805503 0
M  V30 3036 H 295.196 5.03134 1.80999 0
M  V30 3037 H 295.539 3.41618 2.37914 0
M  V30 3038 H 296.072 3.90617 0.752562 0
M  V30 3039 H 292.811 6.5149 -0.723974 0
M  V30 3040 H 292.331 5.93214 0.886413 0
M  V30 3041 H 294.01 6.44362 0.583628 0
M  V30 3042 N 294.142 -0.090211 1.57342 0
M  V30 3043 C 295.072 -1.10976 2.05443 0
M  V30 3044 C 296.053 -1.41482 0.944284 0
M  V30 3045 O 297.238 -1.51428 1.21586 0
M  V30 3046 C 294.368 -2.42831 2.48295 0
M  V30 3047 C 293.322 -2.26721 3.63018 0
M  V30 3048 C 292.648 -3.63796 3.91863 0
M  V30 3049 C 293.948 -1.7037 4.93732 0
M  V30 3050 H 295.642 -0.709564 2.9087 0
M  V30 3051 H 293.188 -0.339874 1.39932 0
M  V30 3052 H 295.141 -3.14431 2.80555 0
M  V30 3053 H 293.865 -2.84795 1.59873 0
M  V30 3054 H 292.524 -1.57565 3.31012 0
M  V30 3055 H 292.172 -4.03297 3.00601 0
M  V30 3056 H 291.872 -3.53861 4.69101 0
M  V30 3057 H 293.396 -4.36855 4.26603 0
M  V30 3058 H 294.81 -2.31816 5.24342 0
M  V30 3059 H 293.207 -1.71181 5.75167 0
M  V30 3060 H 294.277 -0.663542 4.80339 0
M  V30 3061 N 295.62 -1.53406 -0.361157 0
M  V30 3062 C 296.583 -1.79479 -1.42548 0
M  V30 3063 C 297.583 -0.665327 -1.4639 0
M  V30 3064 O 298.773 -0.933549 -1.47073 0
M  V30 3065 C 295.905 -1.92087 -2.8163 0
M  V30 3066 H 297.098 -2.74538 -1.20701 0
M  V30 3067 H 294.651 -1.4455 -0.594546 0
M  V30 3068 H 295.386 -0.991099 -3.08784 0
M  V30 3069 H 295.171 -2.74241 -2.80239 0
M  V30 3070 H 296.661 -2.13836 -3.58697 0
M  V30 3071 N 297.098 0.621204 -1.44841 0
M  V30 3072 C 298.344 1.3826 -1.48365 0
M  V30 3073 C 298.677 1.93831 -0.119624 0
M  V30 3074 O 297.952 1.74251 0.864111 0
M  V30 3075 C 298.235 2.54058 -2.55199 0
M  V30 3076 C 298.088 2.03772 -4.00995 0
M  V30 3077 C 299.407 3.56225 -2.58442 0
M  V30 3078 H 296.526 0.501374 -0.540179 0
M  V30 3079 H 299.168 0.7015 -1.76576 0
M  V30 3080 H 297.318 3.12162 -2.31274 0
M  V30 3081 H 298.99 1.50423 -4.36086 0
M  V30 3082 H 297.233 1.34876 -4.12299 0
M  V30 3083 H 297.904 2.87185 -4.71411 0
M  V30 3084 H 300.38 3.07939 -2.79844 0
M  V30 3085 H 299.256 4.34756 -3.3508 0
M  V30 3086 H 299.517 4.10949 -1.63013 0
M  V30 3087 N 298.576 1.31904 0.862503 0
M  V30 3088 C 299.801 1.25135 1.65397 0
M  V30 3089 C 300.226 -0.179 1.87246 0
M  V30 3090 O 299.584 -1.1277 1.4196 0
M  V30 3091 C 299.632 2.00832 2.99498 0
M  V30 3092 O 298.736 1.35075 3.89652 0
M  V30 3093 H 298.077 0.431655 0.504549 0
M  V30 3094 H 300.607 1.74094 1.07483 0
M  V30 3095 H 300.617 2.10709 3.49379 0
M  V30 3096 H 299.292 3.04847 2.82916 0
M  V30 3097 H 297.869 1.33696 3.48109 0
M  V30 3098 N 300.054 -1.07777 1.14986 0
M  V30 3099 C 301.002 -2.16964 0.838406 0
M  V30 3100 C 301.996 -1.68372 -0.186386 0
M  V30 3101 O 303.202 -1.79951 -0.0418465 0
M  V30 3102 H 299.577 -0.708006 0.253439 0
M  V30 3103 H 301.548 -2.40454 1.76704 0
M  V30 3104 C 300.297 -3.4604 0.339335 0
M  V30 3105 H 299.62 -3.83813 1.11927 0
M  V30 3106 H 301.06 -4.23698 0.160021 0
M  V30 3107 C 299.519 -3.23569 -0.938325 0
M  V30 3108 O 300.049 -3.47752 -2.01077 0
M  V30 3109 N 298.255 -2.77079 -0.876117 0
M  V30 3110 H 297.802 -2.576 -0.00322037 0
M  V30 3111 H 297.76 -2.62422 -1.73153 0
M  V30 3112 N 301.532 -0.945985 -1.26051 0
M  V30 3113 C 302.948 -0.649045 -1.45807 0
M  V30 3114 C 303.148 0.796158 -1.85104 0
M  V30 3115 O 302.204 1.57233 -1.97571 0
M  V30 3116 C 303.517 -1.61458 -2.53677 0
M  V30 3117 C 305.065 -1.62481 -2.67524 0
M  V30 3118 C 305.54 -2.57776 -3.7857 0
M  V30 3119 N 307.031 -2.5609 -3.85969 0
M  V30 3120 C 307.766 -3.26508 -4.7136 0
M  V30 3121 N 307.262 -4.0637 -5.61102 0
M  V30 3122 N 309.055 -3.15437 -4.65248 0
M  V30 3123 H 301.206 -1.88005 -0.988328 0
M  V30 3124 H 303.469 -0.808198 -0.4955 0
M  V30 3125 H 303.175 -2.64644 -2.31638 0
M  V30 3126 H 303.049 -1.37036 -3.51427 0
M  V30 3127 H 305.436 -0.600167 -2.88933 0
M  V30 3128 H 305.517 -1.90958 -1.70202 0
M  V30 3129 H 305.161 -3.60361 -3.57913 0
M  V30 3130 H 305.091 -2.26587 -4.75359 0
M  V30 3131 H 307.582 -1.98105 -3.21812 0
M  V30 3132 H 307.895 -4.57042 -6.23164 0
M  V30 3133 H 306.24 -4.10469 -5.60839 0
M  V30 3134 H 309.431 -2.52525 -3.94143 0
M  V30 3135 H 309.604 -3.70584 -5.31575 0
M  V30 3136 N 303.011 1.40521 -0.713556 0
M  V30 3137 C 304.26 2.00155 -0.249192 0
M  V30 3138 C 304.573 1.57224 1.16362 0
M  V30 3139 O 305.779 2.09542 1.72639 0
M  V30 3140 C 304.235 3.5773 -0.3946 0
M  V30 3141 C 303.843 4.09635 -1.81392 0
M  V30 3142 C 305.587 4.24499 0.00907364 0
M  V30 3143 C 303.494 5.59707 -1.91003 0
M  V30 3144 H 302.424 0.74868 -0.0894114 0
M  V30 3145 H 305.075 1.60784 -0.884352 0
M  V30 3146 H 303.457 3.94792 0.30911 0
M  V30 3147 H 304.631 3.83955 -2.54785 0
M  V30 3148 H 302.946 3.55456 -2.16888 0
M  V30 3149 H 305.543 5.34683 -0.0420404 0
M  V30 3150 H 305.886 4.02824 1.05065 0
M  V30 3151 H 306.419 3.92536 -0.645007 0
M  V30 3152 H 303.158 5.86234 -2.93275 0
M  V30 3153 H 302.678 5.87258 -1.22019 0
M  V30 3154 H 304.357 6.24776 -1.6812 0
M  V30 3155 N 304.489 0.459591 1.5075 0
M  V30 3156 C 305.737 -0.0991532 2.01857 0
M  V30 3157 C 306.058 -1.41247 1.34441 0
M  V30 3158 O 305.328 -1.89775 0.486022 0
M  V30 3159 H 303.908 -0.039633 0.745948 0
M  V30 3160 H 306.57 0.607387 1.85194 0
M  V30 3161 H 305.666 -0.258998 3.11023 0
M  V30 3162 N 305.967 -1.56429 0.191757 0
M  V30 3163 C 307.244 -1.89224 -0.495332 0
M  V30 3164 C 307.624 -1.10478 -1.79883 0
M  V30 3165 O 306.972 -0.204852 -2.2758 0
M  V30 3166 C 307.182 -3.41548 -0.717367 0
M  V30 3167 C 308.53 -4.11711 -1.03823 0
M  V30 3168 O 309.554 -3.4698 -0.805204 0
M  V30 3169 O 308.413 -5.2611 -1.47887 0
M  V30 3170 H 305.507 -0.785788 -0.25781 0
M  V30 3171 H 308.053 -1.68111 0.231721 0
M  V30 3172 H 306.825 -3.90772 0.203287 0
M  V30 3173 H 306.448 -3.68342 -1.497 0
M  V30 3174 N 307.445 0.0818655 -1.57387 0
M  V30 3175 C 308.856 0.634871 -1.75574 0
M  V30 3176 C 309.207 1.78435 -0.815809 0
M  V30 3177 O 308.332 2.164 0.0025366 0
M  V30 3178 C 308.927 1.15845 -3.18379 0
M  V30 3179 C 307.486 1.65741 -3.37945 0
M  V30 3180 C 306.633 0.572549 -2.71325 0
M  V30 3181 H 309.584 -0.144268 -1.58043 0
M  V30 3182 H 309.605 2.02751 -3.21982 0
M  V30 3183 H 309.117 0.321631 -3.86765 0
M  V30 3184 H 307.218 2.51781 -2.74658 0
M  V30 3185 H 307.331 1.74129 -4.46336 0
M  V30 3186 H 305.695 1.01518 -2.33594 0
M  V30 3187 H 306.478 -0.253918 -3.4236 0
M  V30 3188 N 308.923 1.53595 0.353017 0
M  V30 3189 C 309.833 1.83897 1.45667 0
M  V30 3190 C 310.849 0.728334 1.58023 0
M  V30 3191 O 312.025 1.01968 1.73679 0
M  V30 3192 C 309.09 2.03383 2.80778 0
M  V30 3193 C 308.151 3.27262 2.77845 0
M  V30 3194 C 307.384 3.45809 4.06512 0
M  V30 3195 O 307.607 2.68387 5.03314 0
M  V30 3196 O 306.541 4.39207 4.11559 0
M  V30 3197 H 310.367 2.77686 1.2298 0
M  V30 3198 H 307.952 1.39132 0.544308 0
M  V30 3199 H 309.834 2.17698 3.60812 0
M  V30 3200 H 308.509 1.12783 3.03417 0
M  V30 3201 H 307.416 3.18359 1.96465 0
M  V30 3202 H 308.749 4.17824 2.60161 0
M  V30 3203 N 310.401 -0.613514 1.45168 0
M  V30 3204 C 311.331 -1.7354 1.56225 0
M  V30 3205 C 312.312 -1.64981 0.41414 0
M  V30 3206 O 313.497 -1.83472 0.636526 0
M  V30 3207 C 310.627 -3.12128 1.52295 0
M  V30 3208 C 309.581 -3.35491 2.65762 0
M  V30 3209 C 308.907 -4.74291 2.46885 0
M  V30 3210 C 310.207 -3.26325 4.0781 0
M  V30 3211 H 311.901 -1.64543 2.50132 0
M  V30 3212 H 309.447 -0.790185 1.20383 0
M  V30 3213 H 311.4 -3.90404 1.58628 0
M  V30 3214 H 310.124 -3.2195 0.549139 0
M  V30 3215 H 308.783 -2.59603 2.58847 0
M  V30 3216 H 308.431 -4.80839 1.47657 0
M  V30 3217 H 308.131 -4.9088 3.22972 0
M  V30 3218 H 309.655 -5.54775 2.55063 0
M  V30 3219 H 311.069 -3.94483 4.16 0
M  V30 3220 H 309.466 -3.54445 4.8424 0
M  V30 3221 H 310.536 -2.23855 4.30136 0
M  V30 3222 N 311.879 -1.3236 -0.855495 0
M  V30 3223 C 312.842 -1.21164 -1.94556 0
M  V30 3224 C 313.842 -0.134908 -1.60233 0
M  V30 3225 O 315.032 -0.385249 -1.69887 0
M  V30 3226 C 312.164 -0.863192 -3.29791 0
M  V30 3227 H 313.357 -2.18038 -2.05911 0
M  V30 3228 H 310.91 -1.16179 -1.04557 0
M  V30 3229 H 311.645 0.103769 -3.24134 0
M  V30 3230 H 311.43 -1.64166 -3.56078 0
M  V30 3231 H 312.92 -0.809156 -4.09686 0
M  V30 3232 N 313.357 1.07166 -1.15556 0
M  V30 3233 C 314.768 1.6127 -0.940693 0
M  V30 3234 C 315.119 1.89251 0.517551 0
M  V30 3235 O 314.244 1.65937 1.38903 0
M  V30 3236 C 314.839 2.92993 -1.7012 0
M  V30 3237 C 313.398 3.43832 -1.53156 0
M  V30 3238 C 312.545 2.1786 -1.71558 0
M  V30 3239 H 315.496 0.90229 -1.30554 0
M  V30 3240 H 315.517 3.62007 -1.17181 0
M  V30 3241 H 315.029 2.72596 -2.76248 0
M  V30 3242 H 313.13 3.69307 -0.494294 0
M  V30 3243 H 313.243 4.19747 -2.30975 0
M  V30 3244 H 311.607 2.2765 -1.14225 0
M  V30 3245 H 312.39 1.99956 -2.79056 0
M  V30 3246 N 314.835 0.952656 1.25548 0
M  V30 3247 C 316.246 0.647392 1.75116 0
M  V30 3248 C 316.597 -0.837274 1.77438 0
M  V30 3249 O 315.722 -1.65525 1.39393 0
M  V30 3250 C 316.317 1.16845 3.18014 0
M  V30 3251 C 314.876 0.913382 3.6515 0
M  V30 3252 C 314.023 1.31265 2.44264 0
M  V30 3253 H 316.974 1.12968 1.11462 0
M  V30 3254 H 316.995 0.527606 3.76824 0
M  V30 3255 H 316.507 2.24902 3.16292 0
M  V30 3256 H 314.608 -0.152316 3.72289 0
M  V30 3257 H 314.721 1.54845 4.53387 0
M  V30 3258 H 313.085 0.731028 2.43984 0
M  V30 3259 H 313.868 2.40239 2.45234 0
M  V30 3260 N 316.313 -1.40141 0.720998 0
M  V30 3261 C 317.223 -2.34486 0.0731031 0
M  V30 3262 C 318.239 -1.57587 -0.737723 0
M  V30 3263 O 319.415 -1.89949 -0.669429 0
M  V30 3264 C 316.48 -3.36528 -0.833656 0
M  V30 3265 C 315.541 -4.29298 -0.0121673 0
M  V30 3266 C 314.774 -5.26466 -0.875742 0
M  V30 3267 O 314.997 -5.29745 -2.11485 0
M  V30 3268 O 313.931 -6.01092 -0.31185 0
M  V30 3269 H 317.757 -2.9152 0.851444 0
M  V30 3270 H 315.342 -1.41427 0.481527 0
M  V30 3271 H 317.224 -3.99093 -1.35289 0
M  V30 3272 H 315.899 -2.81899 -1.59105 0
M  V30 3273 H 314.806 -3.70001 0.552262 0
M  V30 3274 H 316.139 -4.87094 0.707129 0
M  V30 3275 N 317.792 -0.46758 -1.50504 0
M  V30 3276 C 319.038 0.0887532 -2.02606 0
M  V30 3277 C 319.371 1.39686 -1.34913 0
M  V30 3278 O 318.646 1.88644 -0.473694 0
M  V30 3279 C 318.929 0.276206 -3.59039 0
M  V30 3280 C 318.782 -1.05267 -4.37309 0
M  V30 3281 C 320.101 1.03235 -4.27821 0
M  V30 3282 H 317.22 0.0307814 -0.736357 0
M  V30 3283 H 319.862 -0.612485 -1.79857 0
M  V30 3284 H 318.012 0.8735 -3.78553 0
M  V30 3285 H 319.684 -1.68628 -4.29374 0
M  V30 3286 H 317.927 -1.65015 -4.01189 0
M  V30 3287 H 318.598 -0.875197 -5.45018 0
M  V30 3288 H 321.074 0.526111 -4.12761 0
M  V30 3289 H 319.95 1.1323 -5.37094 0
M  V30 3290 H 320.211 2.06806 -3.90748 0
M  V30 3291 N 319.27 1.56325 -0.20005 0
M  V30 3292 C 320.2 2.22318 0.713916 0
M  V30 3293 C 321.181 1.18788 1.21752 0
M  V30 3294 O 322.366 1.47309 1.26545 0
M  V30 3295 C 319.496 2.88639 1.93144 0
M  V30 3296 C 318.45 3.98457 1.56255 0
M  V30 3297 C 317.776 4.51967 2.85709 0
M  V30 3298 C 319.076 5.16612 0.768747 0
M  V30 3299 H 320.77 2.98952 0.163755 0
M  V30 3300 H 318.316 1.43792 0.0773219 0
M  V30 3301 H 320.269 3.33491 2.57608 0
M  V30 3302 H 318.993 2.09419 2.50621 0
M  V30 3303 H 317.652 3.54305 0.941471 0
M  V30 3304 H 317.3 3.69503 3.41287 0
M  V30 3305 H 317 5.26071 2.6177 0
M  V30 3306 H 318.524 4.99523 3.51154 0
M  V30 3307 H 319.938 5.57977 1.3166 0
M  V30 3308 H 318.335 5.96812 0.627286 0
M  V30 3309 H 319.405 4.84358 -0.229168 0
M  V30 3310 N 320.748 -0.0735177 1.57428 0
M  V30 3311 C 321.68 -1.11423 2.00294 0
M  V30 3312 C 322.693 -1.35084 0.908637 0
M  V30 3313 O 323.882 -1.33355 1.18654 0
M  V30 3314 C 320.982 -2.46548 2.32523 0
M  V30 3315 C 320.155 -2.42867 3.63778 0
M  V30 3316 C 319.214 -3.60087 3.83697 0
M  V30 3317 O 318.24 -3.41595 4.55304 0
M  V30 3318 N 319.442 -4.80372 3.25919 0
M  V30 3319 H 322.207 -0.749206 2.90184 0
M  V30 3320 H 319.768 -0.262195 1.59763 0
M  V30 3321 H 321.76 -3.23607 2.43024 0
M  V30 3322 H 320.33 -2.75059 1.48531 0
M  V30 3323 H 319.55 -1.51206 3.64047 0
M  V30 3324 H 320.838 -2.37506 4.49965 0
M  V30 3325 H 320.236 -4.983 2.67795 0
M  V30 3326 H 318.793 -5.54948 3.41871 0
M  V30 3327 N 322.226 -1.5378 -0.344866 0
M  V30 3328 C 323.136 -1.84667 -1.4469 0
M  V30 3329 C 324.152 -0.736704 -1.57635 0
M  V30 3330 O 325.328 -1.02888 -1.73136 0
M  V30 3331 C 322.393 -2.04869 -2.79696 0
M  V30 3332 C 321.454 -3.28731 -2.76106 0
M  V30 3333 C 320.687 -3.4796 -4.04673 0
M  V30 3334 O 320.91 -2.71052 -5.01883 0
M  V30 3335 O 319.844 -4.41383 -4.09224 0
M  V30 3336 H 323.67 -2.78334 -1.21506 0
M  V30 3337 H 321.255 -1.39418 -0.536921 0
M  V30 3338 H 323.137 -2.19609 -3.59652 0
M  V30 3339 H 321.812 -1.14391 -3.02814 0
M  V30 3340 H 320.719 -3.19396 -1.94774 0
M  V30 3341 H 322.052 -4.19198 -2.57941 0
M  V30 3342 N 323.704 0.605807 -1.45491 0
M  V30 3343 C 324.952 1.36207 -1.49305 0
M  V30 3344 C 325.273 1.94519 -0.136863 0
M  V30 3345 O 324.543 1.77261 0.833983 0
M  V30 3346 H 323.123 0.50565 -0.549843 0
M  V30 3347 H 325.785 0.711239 -1.81459 0
M  V30 3348 H 324.881 2.18058 -2.23287 0
M  V30 3349 N 325.182 1.32811 0.848464 0
M  V30 3350 C 326.428 1.23907 1.60546 0
M  V30 3351 C 326.761 -0.197161 1.93197 0
M  V30 3352 O 326.036 -1.13596 1.5788 0
M  V30 3353 C 326.319 2.10489 2.92175 0
M  V30 3354 C 326.172 3.62522 2.66266 0
M  V30 3355 C 327.491 1.97075 3.93509 0
M  V30 3356 H 324.61 0.451459 0.58254 0
M  V30 3357 H 327.252 1.62818 0.979296 0
M  V30 3358 H 325.402 1.77434 3.45614 0
M  V30 3359 H 327.074 4.05821 2.19334 0
M  V30 3360 H 325.317 3.84879 2.00126 0
M  V30 3361 H 325.988 4.18437 3.6002 0
M  V30 3362 H 328.464 2.26045 3.49346 0
M  V30 3363 H 327.34 2.59923 4.83457 0
M  V30 3364 H 327.601 0.940186 4.31987 0
M  V30 3365 N 326.66 -1.06551 1.16123 0
M  V30 3366 C 328.076 -1.3142 0.905585 0
M  V30 3367 C 328.276 -1.96571 -0.442964 0
M  V30 3368 O 327.332 -2.23068 -1.18308 0
M  V30 3369 C 328.645 -2.19741 2.05267 0
M  V30 3370 C 330.193 -2.33165 2.08813 0
M  V30 3371 C 330.668 -3.24838 3.22868 0
M  V30 3372 N 332.159 -3.32421 3.22568 0
M  V30 3373 C 332.894 -4.0344 4.0746 0
M  V30 3374 N 332.39 -4.77003 5.02434 0
M  V30 3375 N 334.183 -3.99464 3.95456 0
M  V30 3376 H 326.334 -0.626548 2.02949 0
M  V30 3377 H 328.597 -0.338777 0.8854 0
M  V30 3378 H 328.303 -1.79142 3.02657 0
M  V30 3379 H 328.177 -3.20313 1.99198 0
M  V30 3380 H 330.564 -2.73013 1.12018 0
M  V30 3381 H 330.645 -1.3227 2.18948 0
M  V30 3382 H 330.289 -2.85708 4.19921 0
M  V30 3383 H 330.219 -4.25707 3.0997 0
M  V30 3384 H 332.71 -2.79994 2.53795 0
M  V30 3385 H 333.023 -5.28712 5.63634 0
M  V30 3386 H 331.368 -4.75992 5.06415 0
M  V30 3387 H 334.559 -3.4111 3.20564 0
M  V30 3388 H 334.732 -4.54544 4.61837 0
M  V30 3389 N 328.138 -0.959301 -1.25041 0
M  V30 3390 C 329.554 -0.664474 -1.4511 0
M  V30 3391 C 329.754 0.776481 -1.85938 0
M  V30 3392 O 328.81 1.55128 -1.99227 0
M  V30 3393 C 330.123 -1.64139 -2.5195 0
M  V30 3394 C 331.671 -1.65309 -2.65786 0
M  V30 3395 C 332.146 -2.61777 -3.75815 0
M  V30 3396 N 333.637 -2.60169 -3.83231 0
M  V30 3397 C 334.372 -3.31489 -4.6787 0
M  V30 3398 N 333.868 -4.12298 -5.56761 0
M  V30 3399 N 335.661 -3.20354 -4.61876 0
M  V30 3400 H 327.812 -1.89043 -0.968332 0
M  V30 3401 H 330.075 -0.813408 -0.4869 0
M  V30 3402 H 329.781 -2.67086 -2.28819 0
M  V30 3403 H 329.655 -1.40756 -3.49954 0
M  V30 3404 H 332.042 -0.630778 -2.8828 0
M  V30 3405 H 332.123 -1.92753 -1.68167 0
M  V30 3406 H 331.767 -3.64137 -3.54071 0
M  V30 3407 H 331.697 -2.31616 -4.72929 0
M  V30 3408 H 334.188 -2.01507 -3.19692 0
M  V30 3409 H 334.501 -4.63625 -6.18281 0
M  V30 3410 H 332.846 -4.16395 -5.56454 0
M  V30 3411 H 336.037 -2.56692 -3.91442 0
M  V30 3412 H 336.21 -3.76201 -5.27614 0
M  V30 3413 N 329.616 1.39756 -0.72842 0
M  V30 3414 C 330.549 2.28176 -0.0330172 0
M  V30 3415 C 331.527 1.44035 0.754501 0
M  V30 3416 O 332.711 1.73434 0.738445 0
M  V30 3417 C 329.838 3.24795 0.960504 0
M  V30 3418 C 328.884 4.25693 0.262264 0
M  V30 3419 S 329.717 5.25714 -1.01906 0
M  V30 3420 C 330.873 6.25894 -0.0279717 0
M  V30 3421 H 331.106 2.86807 -0.78287 0
M  V30 3422 H 328.639 1.45382 -0.519951 0
M  V30 3423 H 330.597 3.80983 1.52846 0
M  V30 3424 H 329.258 2.65196 1.68315 0
M  V30 3425 H 328.451 4.93699 1.01379 0
M  V30 3426 H 328.053 3.7327 -0.233482 0
M  V30 3427 H 330.345 6.72585 0.814621 0
M  V30 3428 H 331.288 7.04876 -0.67499 0
M  V30 3429 H 331.696 5.63466 0.341489 0
M  V30 3430 N 331.094 0.475555 1.50254 0
M  V30 3431 C 332.34 -0.0780073 2.0265 0
M  V30 3432 C 332.673 -1.38968 1.35652 0
M  V30 3433 O 331.948 -1.8839 0.483691 0
M  V30 3434 C 332.231 -0.257161 3.59181 0
M  V30 3435 C 332.084 1.07585 4.36744 0
M  V30 3436 C 333.403 -1.00965 4.28362 0
M  V30 3437 H 330.522 -0.0268758 0.73651 0
M  V30 3438 H 333.164 0.622015 1.7953 0
M  V30 3439 H 331.314 -0.853412 3.79011 0
M  V30 3440 H 332.986 1.70902 4.28474 0
M  V30 3441 H 331.229 1.6714 4.00308 0
M  V30 3442 H 331.9 0.904088 5.44546 0
M  V30 3443 H 334.376 -0.504214 4.13034 0
M  V30 3444 H 333.252 -1.10381 5.37687 0
M  V30 3445 H 333.513 -2.04731 3.91839 0
M  V30 3446 N 332.573 -1.56217 0.208337 0
M  V30 3447 C 333.483 -2.23316 -0.718836 0
M  V30 3448 C 334.499 -1.23648 -1.22422 0
M  V30 3449 O 335.675 -1.56423 -1.26861 0
M  V30 3450 C 332.74 -2.88968 -1.91568 0
M  V30 3451 C 331.801 -4.03943 -1.45357 0
M  V30 3452 C 331.034 -4.66455 -2.59337 0
M  V30 3453 O 331.257 -4.27919 -3.77149 0
M  V30 3454 O 330.191 -5.55686 -2.31293 0
M  V30 3455 H 334.017 -3.03182 -0.177315 0
M  V30 3456 H 331.602 -1.49384 -0.0215402 0
M  V30 3457 H 333.484 -3.30455 -2.61491 0
M  V30 3458 H 332.159 -2.12071 -2.44556 0
M  V30 3459 H 331.066 -3.67052 -0.722746 0
M  V30 3460 H 332.399 -4.82543 -0.970219 0
M  V30 3461 N 334.051 0.0651679 -1.57465 0
M  V30 3462 C 335.297 0.764193 -1.87851 0
M  V30 3463 C 335.63 1.76889 -0.801495 0
M  V30 3464 O 334.905 1.93594 0.187528 0
M  V30 3465 C 335.188 1.46625 -3.28897 0
M  V30 3466 C 335.041 0.477515 -4.47258 0
M  V30 3467 C 336.36 2.4095 -3.68281 0
M  V30 3468 H 333.479 0.276351 -0.683227 0
M  V30 3469 H 336.121 0.0272868 -1.8998 0
M  V30 3470 H 334.271 2.09438 -3.27212 0
M  V30 3471 H 335.943 -0.145922 -4.61069 0
M  V30 3472 H 334.186 -0.206576 -4.33308 0
M  V30 3473 H 334.857 1.0065 -5.42746 0
M  V30 3474 H 337.333 1.88209 -3.71102 0
M  V30 3475 H 336.209 2.87072 -4.67847 0
M  V30 3476 H 336.47 3.26049 -2.98571 0
M  V30 3477 N 335.529 1.53961 0.336706 0
M  V30 3478 C 336.492 1.81724 1.39675 0
M  V30 3479 C 337.492 0.688532 1.45313 0
M  V30 3480 O 338.682 0.956829 1.45569 0
M  V30 3481 C 335.814 1.96543 2.78538 0
M  V30 3482 H 337.007 2.76424 1.16318 0
M  V30 3483 H 334.56 1.45478 0.571474 0
M  V30 3484 H 335.295 1.0401 3.07168 0
M  V30 3485 H 335.08 2.78665 2.75841 0
M  V30 3486 H 336.57 2.19516 3.5525 0
M  V30 3487 N 337.007 -0.598083 1.45811 0
M  V30 3488 C 337.937 -1.71873 1.58057 0
M  V30 3489 C 338.918 -1.64533 0.431615 0
M  V30 3490 O 340.103 -1.82787 0.65595 0
M  V30 3491 C 337.233 -3.10495 1.55597 0
M  V30 3492 C 336.187 -3.32654 2.69305 0
M  V30 3493 C 335.513 -4.71646 2.51902 0
M  V30 3494 C 336.813 -3.21981 4.11248 0
M  V30 3495 H 338.507 -1.61881 2.51863 0
M  V30 3496 H 336.053 -0.777372 1.21214 0
M  V30 3497 H 338.006 -3.88699 1.6276 0
M  V30 3498 H 336.73 -3.2135 0.583255 0
M  V30 3499 H 335.389 -2.56843 2.61586 0
M  V30 3500 H 335.037 -4.79246 1.52748 0
M  V30 3501 H 334.737 -4.87426 3.2816 0
M  V30 3502 H 336.261 -5.52038 2.60933 0
M  V30 3503 H 337.675 -3.90049 4.20161 0
M  V30 3504 H 336.072 -3.49289 4.87972 0
M  V30 3505 H 337.142 -2.1928 4.32486 0
M  V30 3506 N 338.485 -1.33259 -0.841409 0
M  V30 3507 C 339.395 -1.25332 -1.98316 0
M  V30 3508 C 340.411 -0.164364 -1.73222 0
M  V30 3509 O 341.587 -0.387486 -1.97637 0
M  V30 3510 C 338.652 -0.990078 -3.32262 0
M  V30 3511 C 337.713 -2.16879 -3.70489 0
M  V30 3512 C 336.946 -1.91801 -4.98044 0
M  V30 3513 O 337.169 -0.867075 -5.63771 0
M  V30 3514 O 336.103 -2.78267 -5.33714 0
M  V30 3515 H 339.929 -2.21344 -2.07944 0
M  V30 3516 H 337.514 -1.1328 -0.974058 0
M  V30 3517 H 339.396 -0.860321 -4.12524 0
M  V30 3518 H 338.071 -0.0602155 -3.23644 0
M  V30 3519 H 336.978 -2.35407 -2.90748 0
M  V30 3520 H 338.311 -3.0819 -3.8377 0
M  V30 3521 N 339.963 1.05934 -1.16686 0
M  V30 3522 C 340.926 2.11669 -0.879144 0
M  V30 3523 C 341.926 1.60294 0.127445 0
M  V30 3524 O 343.116 1.7389 -0.103865 0
M  V30 3525 C 340.248 3.39438 -0.315425 0
M  V30 3526 H 341.441 2.38626 -1.81653 0
M  V30 3527 H 338.994 1.22058 -0.976299 0
M  V30 3528 H 339.729 3.18132 0.629468 0
M  V30 3529 H 339.514 3.78034 -1.04079 0
M  V30 3530 H 341.004 4.17391 -0.132189 0
M  V30 3531 N 341.441 0.965919 1.2453 0
M  V30 3532 C 342.687 0.62776 1.92839 0
M  V30 3533 C 343.02 -0.834694 1.75347 0
M  V30 3534 O 342.295 -1.60031 1.10546 0
M  V30 3535 C 342.578 1.00109 3.45905 0
M  V30 3536 C 342.431 2.52011 3.72573 0
M  V30 3537 C 343.75 0.53435 4.36844 0
M  V30 3538 H 340.869 0.229537 0.700344 0
M  V30 3539 H 343.511 1.2046 1.46933 0
M  V30 3540 H 341.661 0.510238 3.85135 0
M  V30 3541 H 343.333 3.08559 3.42912 0
M  V30 3542 H 341.576 2.95287 3.17786 0
M  V30 3543 H 342.247 2.73183 4.79661 0
M  V30 3544 H 344.723 0.955565 4.04979 0
M  V30 3545 H 343.599 0.824152 5.42678 0
M  V30 3546 H 343.86 -0.565589 4.38467 0
M  V30 3547 N 342.919 -1.39368 0.735821 0
M  V30 3548 C 343.849 -2.33234 0.111506 0
M  V30 3549 C 344.83 -1.53954 -0.723334 0
M  V30 3550 O 346.015 -1.82344 -0.668147 0
M  V30 3551 C 343.145 -3.38057 -0.795917 0
M  V30 3552 C 342.099 -4.2795 -0.065172 0
M  V30 3553 C 341.425 -5.23479 -1.08967 0
M  V30 3554 C 342.725 -5.10741 1.09273 0
M  V30 3555 H 344.419 -2.85692 0.895571 0
M  V30 3556 H 341.965 -1.37364 0.432109 0
M  V30 3557 H 343.918 -4.02675 -1.24221 0
M  V30 3558 H 342.642 -2.8404 -1.61211 0
M  V30 3559 H 341.301 -3.64813 0.361511 0
M  V30 3560 H 340.949 -4.65758 -1.89944 0
M  V30 3561 H 340.649 -5.84472 -0.605489 0
M  V30 3562 H 342.173 -5.90974 -1.53565 0
M  V30 3563 H 343.587 -5.68699 0.724841 0
M  V30 3564 H 341.984 -5.8088 1.50659 0
M  V30 3565 H 343.054 -4.45525 1.91404 0
M  V30 3566 N 344.397 -0.483516 -1.5 0
M  V30 3567 C 345.307 0.309172 -2.32554 0
M  V30 3568 C 346.323 0.984159 -1.43493 0
M  V30 3569 O 347.499 0.969399 -1.76535 0
M  V30 3570 C 344.564 1.36979 -3.18493 0
M  V30 3571 C 343.625 0.710095 -4.23387 0
M  V30 3572 C 342.858 1.72018 -5.05218 0
M  V30 3573 O 343.081 2.94813 -4.88305 0
M  V30 3574 O 342.015 1.28515 -5.8802 0
M  V30 3575 H 345.841 -0.366064 -3.01486 0
M  V30 3576 H 343.426 -0.24514 -1.47375 0
M  V30 3577 H 345.308 1.98385 -3.71781 0
M  V30 3578 H 343.983 2.02828 -2.52275 0
M  V30 3579 H 342.89 0.0567539 -3.74057 0
M  V30 3580 H 344.223 0.0943557 -4.9211 0
M  V30 3581 N 345.875 1.56104 -0.216619 0
M  V30 3582 C 347.121 1.98466 0.417033 0
M  V30 3583 C 347.454 1.10403 1.59765 0
M  V30 3584 O 346.729 0.160632 1.93836 0
M  V30 3585 C 347.012 3.49769 0.85637 0
M  V30 3586 C 346.865 4.48606 -0.327546 0
M  V30 3587 C 348.184 4.05339 1.7143 0
M  V30 3588 H 345.303 0.721551 0.150112 0
M  V30 3589 H 347.945 1.87423 -0.311864 0
M  V30 3590 H 346.095 3.5931 1.47745 0
M  V30 3591 H 347.767 4.5108 -0.965618 0
M  V30 3592 H 346.01 4.22682 -0.975805 0
M  V30 3593 H 346.681 5.51995 0.0227149 0
M  V30 3594 H 349.157 3.98712 1.19031 0
M  V30 3595 H 348.033 5.11533 1.99061 0
M  V30 3596 H 348.294 3.51918 2.67593 0
M  V30 3597 O 347.392 0.0802023 1.61301 0
M  V30 3598 H 348.083 -0.524716 1.86458 0
M  V30 END ATOM
M  V30 BEGIN BOND
M  V30 END BOND
M  V30 END CTAB
M  END
$$$$
