drugbank_target|Q5SJH3 30S ribosomal protein S16 (DB08185)
 OpenBabel12092120483D

  0  0  0     0  0            999 V3000
M  V30 BEGIN CTAB
M  V30 COUNTS 1487 1503 0 0 0
M  V30 BEGIN ATOM
M  V30 1 H -0.908 1.98254 -0.117106 0
M  V30 2 N 0 1.576 0 0
M  V30 3 C 0.933 2.03868 1.02534 0
M  V30 4 C 1.911 0.928543 1.3348 0
M  V30 5 O 3.095 1.19667 1.45644 0
M  V30 6 C 0.222 2.43627 2.35294 0
M  V30 7 C -0.732 3.65373 2.2001 0
M  V30 8 S 0.101 5.13292 1.52614 0
M  V30 9 C 1.257 5.56322 2.86805 0
M  V30 10 H 1.49 2.90518 0.631377 0
M  V30 11 H -0.977 1.52953 0.210867 0
M  V30 12 H 0.981 2.67203 3.11629 0
M  V30 13 H -0.358 1.57376 2.7183 0
M  V30 14 H -1.165 3.90944 3.18086 0
M  V30 15 H -1.563 3.418 1.51819 0
M  V30 16 H 0.729 5.58782 3.83104 0
M  V30 17 H 1.672 6.56266 2.65933 0
M  V30 18 H 2.08 4.83886 2.90714 0
M  V30 19 N 1.4781 -0.272755 1.55222 0
M  V30 20 C 2.7241 -1.00581 1.761 0
M  V30 21 C 3.0571 -1.85932 0.560625 0
M  V30 22 O 2.3321 -1.89416 -0.441801 0
M  V30 23 C 2.6151 -1.88816 3.06628 0
M  V30 24 C 2.4681 -1.06457 4.37021 0
M  V30 25 C 3.7871 -2.8752 3.33197 0
M  V30 26 H 0.9061 -0.364244 0.640699 0
M  V30 27 H 3.5481 -0.278189 1.87952 0
M  V30 28 H 1.6981 -2.50856 2.96654 0
M  V30 29 H 3.3701 -0.464863 4.58952 0
M  V30 30 H 1.6131 -0.368043 4.32236 0
M  V30 31 H 2.2841 -1.71514 5.24678 0
M  V30 32 H 4.7601 -2.35615 3.42965 0
M  V30 33 H 3.6361 -3.46399 4.25792 0
M  V30 34 H 3.8971 -3.62657 2.52849 0
M  V30 35 N 2.9562 -1.48159 -0.537278 0
M  V30 36 C 3.9032 -1.62138 -1.64256 0
M  V30 37 C 4.8732 -0.463668 -1.59497 0
M  V30 38 O 6.0582 -0.686241 -1.78032 0
M  V30 39 C 3.1982 -1.66028 -3.02537 0
M  V30 40 C 2.3112 -2.92855 -3.17585 0
M  V30 41 C 1.4462 -2.87952 -4.46382 0
M  V30 42 C 0.4852 -4.09516 -4.54932 0
M  V30 43 N -0.3778 -4.02733 -5.75109 0
M  V30 44 H 4.4622 -2.56529 -1.51647 0
M  V30 45 H 1.9992 -1.27224 -0.738414 0
M  V30 46 H 3.9572 -1.66265 -3.82638 0
M  V30 47 H 2.5872 -0.751331 -3.13934 0
M  V30 48 H 1.6392 -3.02395 -2.30784 0
M  V30 49 H 2.9512 -3.82822 -3.19764 0
M  V30 50 H 2.1052 -2.8655 -5.34765 0
M  V30 51 H 0.8442 -1.95702 -4.46712 0
M  V30 52 H -0.1508 -4.11201 -3.64957 0
M  V30 53 H 1.0742 -5.02917 -4.56346 0
M  V30 54 H -0.9798 -3.13299 -5.76351 0
M  V30 55 H -1.0628 -4.86397 -5.78752 0
M  V30 56 H 0.2052 -4.05379 -6.65799 0
M  V30 57 N 4.4343 0.785586 -1.36625 0
M  V30 58 C 5.6833 1.53883 -1.30396 0
M  V30 59 C 5.9963 1.95271 0.113452 0
M  V30 60 O 7.2023 2.69858 0.298142 0
M  V30 61 C 5.6583 2.77808 -2.28802 0
M  V30 62 C 5.2663 2.43574 -3.75999 0
M  V30 63 C 7.0103 3.55783 -2.31558 0
M  V30 64 C 4.9173 3.63919 -4.66173 0
M  V30 65 H 3.8473 0.577678 -0.484566 0
M  V30 66 H 6.4983 0.861705 -1.62009 0
M  V30 67 H 4.8803 3.47339 -1.90188 0
M  V30 68 H 6.0543 1.81916 -4.23371 0
M  V30 69 H 4.3693 1.78803 -3.76056 0
M  V30 70 H 6.9663 4.45205 -2.96137 0
M  V30 71 H 7.3093 3.94644 -1.3252 0
M  V30 72 H 7.8423 2.93235 -2.68809 0
M  V30 73 H 4.5813 3.3015 -5.66287 0
M  V30 74 H 4.1013 4.2473 -4.23515 0
M  V30 75 H 5.7803 4.30901 -4.82632 0
M  V30 76 N 5.9124 1.20967 1.01018 0
M  V30 77 C 7.3284 0.965905 1.27053 0
M  V30 78 C 7.5284 -0.350785 1.98423 0
M  V30 79 O 6.5844 -1.07773 2.28344 0
M  V30 80 C 7.8974 2.15294 2.09926 0
M  V30 81 C 9.4454 2.19463 2.23171 0
M  V30 82 C 9.9204 3.3767 3.09424 0
M  V30 83 N 11.4114 3.37724 3.17012 0
M  V30 84 C 12.1464 4.25837 3.83993 0
M  V30 85 N 11.6424 5.24138 4.53047 0
M  V30 86 N 13.4354 4.1366 3.80581 0
M  V30 87 H 5.5864 2.0565 0.531194 0
M  V30 88 H 7.8494 0.90024 0.297106 0
M  V30 89 H 7.5554 3.10684 1.64828 0
M  V30 90 H 7.4294 2.13923 3.10672 0
M  V30 91 H 9.8164 1.24632 2.6749 0
M  V30 92 H 9.8974 2.2488 1.21912 0
M  V30 93 H 9.5414 4.32791 2.65808 0
M  V30 94 H 9.4714 3.29491 4.10784 0
M  V30 95 H 11.9624 2.6658 2.6785 0
M  V30 96 H 12.2754 5.87684 5.01844 0
M  V30 97 H 10.6204 5.28068 4.5185 0
M  V30 98 H 13.8114 3.36127 3.25785 0
M  V30 99 H 13.9844 4.82538 4.32505 0
M  V30 100 N 7.3905 -1.2043 1.01659 0
M  V30 101 C 8.3205 -2.25466 0.607226 0
M  V30 102 C 9.3015 -1.65853 -0.377716 0
M  V30 103 O 10.4865 -1.92409 -0.263149 0
M  V30 104 C 7.6165 -3.47256 -0.0552949 0
M  V30 105 C 6.5705 -4.19462 0.850632 0
M  V30 106 C 5.8965 -5.34673 0.0538859 0
M  V30 107 C 7.1965 -4.75603 2.15868 0
M  V30 108 H 8.8905 -2.59962 1.48526 0
M  V30 109 H 6.4365 -1.2496 0.715605 0
M  V30 110 H 8.3895 -4.19917 -0.353233 0
M  V30 111 H 7.1135 -3.11924 -0.968045 0
M  V30 112 H 5.7725 -3.48667 1.13257 0
M  V30 113 H 5.4205 -4.95585 -0.860514 0
M  V30 114 H 5.1205 -5.83913 0.657192 0
M  V30 115 H 6.6445 -6.10138 -0.237598 0
M  V30 116 H 8.0585 -5.40083 1.92311 0
M  V30 117 H 6.4555 -5.3528 2.71284 0
M  V30 118 H 7.5255 -3.94346 2.82169 0
M  V30 119 N 8.8686 -0.792821 -1.36206 0
M  V30 120 C 9.8316 -0.199459 -2.2833 0
M  V30 121 C 10.8316 0.605189 -1.48977 0
M  V30 122 O 12.0216 0.425685 -1.68919 0
M  V30 123 C 9.1536 0.723523 -3.33134 0
M  V30 124 H 10.3466 -1.01181 -2.82316 0
M  V30 125 H 7.8996 -0.562485 -1.45828 0
M  V30 126 H 8.6346 1.56008 -2.84309 0
M  V30 127 H 8.4196 0.148436 -3.91819 0
M  V30 128 H 9.9096 1.13344 -4.01924 0
M  V30 129 N 10.3467 1.47872 -0.545128 0
M  V30 130 C 11.7627 1.5829 -0.204032 0
M  V30 131 C 11.9627 1.54529 1.29317 0
M  V30 132 O 11.0187 1.44232 2.07252 0
M  V30 133 C 12.3317 2.89304 -0.819987 0
M  V30 134 C 13.8797 3.02864 -0.790105 0
M  V30 135 C 14.3547 4.3656 -1.38491 0
M  V30 136 N 15.8457 4.43165 -1.34755 0
M  V30 137 C 16.5807 5.45153 -1.77753 0
M  V30 138 N 16.0767 6.54016 -2.2855 0
M  V30 139 N 17.8697 5.36125 -1.68897 0
M  V30 140 H 10.0207 1.4856 -1.51802 0
M  V30 141 H 12.2837 0.706305 -0.632327 0
M  V30 142 H 11.9897 2.97757 -1.87173 0
M  V30 143 H 11.8637 3.75957 -0.305915 0
M  V30 144 H 14.2507 2.94014 0.252913 0
M  V30 145 H 14.3317 2.17782 -1.34181 0
M  V30 146 H 13.9757 4.46164 -2.42693 0
M  V30 147 H 13.9057 5.20353 -0.808754 0
M  V30 148 H 16.3967 3.65083 -0.975855 0
M  V30 149 H 16.7097 7.27994 -2.59314 0
M  V30 150 H 15.0547 6.54938 -2.32553 0
M  V30 151 H 18.2457 4.49975 -1.28998 0
M  V30 152 H 18.4187 6.15472 -2.02726 0
M  V30 153 N 11.8248 0.280983 1.55075 0
M  V30 154 C 13.0718 -0.334115 1.99725 0
M  V30 155 C 13.3998 -1.5542 1.1694 0
M  V30 156 O 12.6548 -1.94361 0.228531 0
M  V30 157 C 12.9538 -0.754656 3.49342 0
M  V30 158 C 12.6198 0.361445 4.49449 0
M  V30 159 C 11.2818 0.667893 4.76542 0
M  V30 160 C 13.6338 1.11322 5.09173 0
M  V30 161 C 10.9618 1.7296 5.60626 0
M  V30 162 C 13.3138 2.1647 5.9441 0
M  V30 163 C 11.9778 2.47742 6.19822 0
M  V30 164 H 11.2478 -0.122261 0.730844 0
M  V30 165 H 13.8948 0.395917 1.87363 0
M  V30 166 H 12.1998 -1.56446 3.5921 0
M  V30 167 H 13.8968 -1.24142 3.813 0
M  V30 168 H 10.4868 0.112481 4.28452 0
M  V30 169 H 14.6708 0.88973 4.8826 0
M  V30 170 H 9.9268 1.97684 5.78559 0
M  V30 171 H 14.1008 2.75193 6.3972 0
M  V30 172 H 11.7278 3.30145 6.84769 0
M  V30 173 N 13.3029 -1.57598 0.00835791 0
M  V30 174 C 14.5509 -1.90551 -0.6734 0
M  V30 175 C 14.8719 -0.883301 -1.73847 0
M  V30 176 O 14.1419 0.0781442 -1.95744 0
M  V30 177 H 12.7219 -0.703312 -0.251717 0
M  V30 178 H 15.3839 -1.94833 0.0512592 0
M  V30 179 H 14.4799 -2.9056 -1.13935 0
M  V30 180 N 14.781 0.264519 -1.55364 0
M  V30 181 C 16.006 1.01726 -1.80739 0
M  V30 182 C 16.431 1.78836 -0.583044 0
M  V30 183 O 15.789 1.75167 0.467566 0
M  V30 184 C 15.837 1.94482 -3.03659 0
M  V30 185 O 14.941 3.03386 -2.7934 0
M  V30 186 H 14.282 0.290395 -0.597132 0
M  V30 187 H 16.812 0.290854 -2.02522 0
M  V30 188 H 16.822 2.36278 -3.32621 0
M  V30 189 H 15.497 1.37772 -3.92418 0
M  V30 190 H 14.074 2.65844 -2.61498 0
M  V30 191 N 16.2591 1.48442 0.529413 0
M  V30 192 C 17.2061 1.63007 1.63394 0
M  V30 193 C 18.1761 0.47212 1.59249 0
M  V30 194 O 19.3611 0.695673 1.77666 0
M  V30 195 C 16.5011 1.6763 3.01653 0
M  V30 196 C 15.6141 2.94535 3.16027 0
M  V30 197 C 14.7491 2.90316 4.44849 0
M  V30 198 C 13.7881 4.11923 4.52754 0
M  V30 199 N 12.9251 4.05777 5.72965 0
M  V30 200 H 17.7651 2.5733 1.50285 0
M  V30 201 H 15.3021 1.27613 0.731656 0
M  V30 202 H 17.2601 1.68292 3.81751 0
M  V30 203 H 15.8901 0.76797 3.13532 0
M  V30 204 H 14.9421 3.03615 2.29177 0
M  V30 205 H 16.2541 3.84512 3.17729 0
M  V30 206 H 15.4081 2.89382 5.33238 0
M  V30 207 H 14.1471 1.98068 4.45668 0
M  V30 208 H 13.1521 4.13131 3.62771 0
M  V30 209 H 14.3771 5.0533 4.53672 0
M  V30 210 H 12.3231 3.16351 5.74681 0
M  V30 211 H 12.2401 4.8946 5.76164 0
M  V30 212 H 13.5081 4.08904 6.6364 0
M  V30 213 N 17.7372 -0.778329 1.37039 0
M  V30 214 C 18.6872 -1.88142 1.28789 0
M  V30 215 C 19.6712 -1.59923 0.177063 0
M  V30 216 O 20.8632 -1.72165 0.410873 0
M  V30 217 C 17.9922 -3.25518 1.09055 0
M  V30 218 C 17.0782 -3.5971 2.24654 0
M  V30 219 N 17.4692 -3.65131 3.50018 0
M  V30 220 C 15.7672 -3.89837 2.16663 0
M  V30 221 C 16.4682 -3.95882 4.26207 0
M  V30 222 N 15.4442 -4.11441 3.55271 0
M  V30 223 H 19.2462 -1.90575 2.23737 0
M  V30 224 H 16.7602 -0.974435 1.29917 0
M  V30 225 H 18.7572 -4.04423 1.0123 0
M  V30 226 H 17.4172 -3.24353 0.15018 0
M  V30 227 H 18.4282 -3.475 3.84011 0
M  V30 228 H 15.1052 -3.96533 1.30645 0
M  V30 229 H 16.4952 -4.06907 5.34674 0
M  V30 230 N 19.2153 -1.21501 -1.00376 0
M  V30 231 C 20.1633 -0.972442 -2.11297 0
M  V30 232 C 21.1573 0.080731 -1.69208 0
M  V30 233 O 22.3633 -0.0707666 -1.79861 0
M  V30 234 H 18.7383 -0.297218 -0.690772 0
M  V30 235 H 20.7093 -1.91394 -2.28934 0
M  V30 236 C 19.4583 -0.555065 -3.43241 0
M  V30 237 H 18.7813 -1.35709 -3.76062 0
M  V30 238 H 20.2213 -0.424664 -4.21868 0
M  V30 239 C 18.6803 0.734147 -3.28804 0
M  V30 240 O 19.2103 1.78937 -3.59645 0
M  V30 241 N 17.4163 0.701133 -2.82015 0
M  V30 242 H 16.9633 -0.157874 -2.57116 0
M  V30 243 H 16.9213 1.56403 -2.72737 0
M  V30 244 N 20.6934 1.19889 -1.02296 0
M  V30 245 C 22.1044 1.71124 -0.746568 0
M  V30 246 C 22.4554 1.81939 0.734335 0
M  V30 247 O 21.5804 1.48639 1.57275 0
M  V30 248 C 22.1754 3.10804 -1.34857 0
M  V30 249 C 20.7344 3.59323 -1.1209 0
M  V30 250 C 19.8814 2.3635 -1.45031 0
M  V30 251 H 22.8324 1.04813 -1.19163 0
M  V30 252 H 22.8534 3.73186 -0.742437 0
M  V30 253 H 22.3654 3.029 -2.42638 0
M  V30 254 H 20.4664 3.7255 -0.0610337 0
M  V30 255 H 20.5794 4.4378 -1.80544 0
M  V30 256 H 18.9434 2.39399 -0.869487 0
M  V30 257 H 19.7264 2.31081 -2.53883 0
M  V30 258 N 22.1715 0.800033 1.35784 0
M  V30 259 C 23.1215 0.178654 2.27299 0
M  V30 260 C 24.1055 -0.643667 1.47464 0
M  V30 261 O 25.2975 -0.502 1.69732 0
M  V30 262 C 22.4265 -0.677194 3.36555 0
M  V30 263 C 21.5125 0.154497 4.23818 0
M  V30 264 N 21.9035 1.21427 4.91008 0
M  V30 265 C 20.2015 -0.0649462 4.45953 0
M  V30 266 C 20.9025 1.72147 5.55644 0
M  V30 267 N 19.8785 1.02897 5.33773 0
M  V30 268 H 23.6805 0.989637 2.76737 0
M  V30 269 H 21.1945 0.64054 1.49234 0
M  V30 270 H 23.1915 -1.13835 4.01058 0
M  V30 271 H 21.8515 -1.4866 2.8867 0
M  V30 272 H 22.8625 1.59684 4.92668 0
M  V30 273 H 19.5395 -0.844016 4.0888 0
M  V30 274 H 20.9295 2.60683 6.19269 0
M  V30 275 N 23.6496 -1.47581 0.552962 0
M  V30 276 C 24.8796 -2.06575 0.0320091 0
M  V30 277 C 25.2876 -1.4067 -1.26525 0
M  V30 278 O 24.6306 -0.495808 -1.76883 0
M  V30 279 C 24.6926 -3.58705 -0.238913 0
M  V30 280 C 24.3566 -4.46625 0.968272 0
M  V30 281 C 25.3536 -4.85 1.87274 0
M  V30 282 C 23.0386 -4.88201 1.18175 0
M  V30 283 C 25.0326 -5.63745 2.9744 0
M  V30 284 C 22.7196 -5.66712 2.28651 0
M  V30 285 C 23.7176 -6.04394 3.18114 0
M  V30 286 O 23.4056 -6.81324 4.26676 0
M  V30 287 H 23.1376 -0.674763 0.0408689 0
M  V30 288 H 25.6916 -1.90634 0.764719 0
M  V30 289 H 23.9216 -3.72844 -1.02588 0
M  V30 290 H 25.6106 -3.99735 -0.704731 0
M  V30 291 H 26.3766 -4.53482 1.71984 0
M  V30 292 H 22.2556 -4.58339 0.494593 0
M  V30 293 H 25.7996 -5.93077 3.67296 0
M  V30 294 H 21.6966 -5.97642 2.43915 0
M  V30 295 H 22.4646 -6.99712 4.24671 0
M  V30 296 N 25.1277 -0.289203 -1.54924 0
M  V30 297 C 26.5437 0.0645403 -1.59469 0
M  V30 298 C 26.7437 1.53419 -1.30632 0
M  V30 299 O 25.7997 2.2852 -1.074 0
M  V30 300 C 27.1127 -0.32278 -2.98963 0
M  V30 301 C 28.6607 -0.270564 -3.11828 0
M  V30 302 C 29.1357 -0.632532 -4.53611 0
M  V30 303 N 30.6267 -0.584617 -4.59496 0
M  V30 304 C 31.3617 -0.837314 -5.67254 0
M  V30 305 N 30.8577 -1.15536 -6.83098 0
M  V30 306 N 32.6507 -0.765166 -5.56868 0
M  V30 307 H 24.8017 -1.24714 -1.71931 0
M  V30 308 H 27.0647 -0.504809 -0.802416 0
M  V30 309 H 26.7707 -1.34541 -3.24948 0
M  V30 310 H 26.6447 0.32944 -3.75759 0
M  V30 311 H 29.0317 0.742805 -2.85598 0
M  V30 312 H 29.1127 -0.957242 -2.37214 0
M  V30 313 H 28.7567 -1.64365 -4.80569 0
M  V30 314 H 28.6867 0.07609 -5.26545 0
M  V30 315 H 31.1777 -0.349248 -3.76283 0
M  V30 316 H 31.4907 -1.33447 -7.61191 0
M  V30 317 H 29.8357 -1.19328 -6.84679 0
M  V30 318 H 33.0267 -0.516432 -4.65243 0
M  V30 319 H 33.1997 -0.965477 -6.40767 0
M  V30 320 N 26.6058 1.57591 -0.0167156 0
M  V30 321 C 27.8548 1.90461 0.663877 0
M  V30 322 C 28.1678 0.893515 1.73999 0
M  V30 323 O 29.3738 1.11302 2.47637 0
M  V30 324 C 27.8298 3.38155 1.23204 0
M  V30 325 C 27.4378 4.47597 0.189866 0
M  V30 326 C 29.1818 3.80111 1.88986 0
M  V30 327 C 27.0888 5.86379 0.768964 0
M  V30 328 H 26.0188 0.710738 0.251729 0
M  V30 329 H 28.6698 1.83326 -0.0799926 0
M  V30 330 H 27.0518 3.40182 2.02712 0
M  V30 331 H 28.2258 4.57112 -0.581846 0
M  V30 332 H 26.5408 4.14766 -0.368475 0
M  V30 333 H 29.1378 4.81145 2.33247 0
M  V30 334 H 29.4808 3.14511 2.72743 0
M  V30 335 H 30.0138 3.80454 1.16187 0
M  V30 336 H 26.7528 6.55493 -0.0301957 0
M  V30 337 H 26.2728 5.80496 1.50945 0
M  V30 338 H 27.9518 6.34563 1.26251 0
M  V30 339 N 28.0839 -0.256276 1.55502 0
M  V30 340 C 29.3299 -0.987079 1.77157 0
M  V30 341 C 29.6629 -1.85327 0.580315 0
M  V30 342 O 28.9379 -1.89874 -0.421686 0
M  V30 343 C 29.2209 -1.85553 3.08613 0
M  V30 344 C 29.0739 -1.01816 4.38125 0
M  V30 345 C 30.3929 -2.8397 3.36228 0
M  V30 346 H 27.5119 -0.357428 0.644526 0
M  V30 347 H 30.1539 -0.258239 1.88237 0
M  V30 348 H 28.3039 -2.47695 2.99298 0
M  V30 349 H 29.9759 -0.416159 4.59419 0
M  V30 350 H 28.2189 -0.322178 4.32602 0
M  V30 351 H 28.8899 -1.65939 5.26468 0
M  V30 352 H 31.3659 -2.31964 3.45445 0
M  V30 353 H 30.2419 -3.41864 4.29442 0
M  V30 354 H 30.5029 -3.59955 2.56681 0
M  V30 355 N 29.562 -1.4872 -0.521534 0
M  V30 356 C 30.808 -1.574 -1.27879 0
M  V30 357 C 31.141 -0.250817 -1.92573 0
M  V30 358 O 30.416 0.743934 -1.79711 0
M  V30 359 C 30.699 -2.71843 -2.36164 0
M  V30 360 C 30.552 -4.13893 -1.76105 0
M  V30 361 C 31.871 -2.82008 -3.37875 0
M  V30 362 H 28.99 -0.572941 -0.463581 0
M  V30 363 H 31.632 -1.80927 -0.580119 0
M  V30 364 H 29.782 -2.51914 -2.95756 0
M  V30 365 H 31.454 -4.45284 -1.20499 0
M  V30 366 H 29.697 -4.20498 -1.06601 0
M  V30 367 H 30.368 -4.89804 -2.5455 0
M  V30 368 H 32.844 -3.00086 -2.88249 0
M  V30 369 H 31.72 -3.63796 -4.11028 0
M  V30 370 H 31.981 -1.90511 -3.98946 0
M  V30 371 N 31.0401 0.771051 -1.3745 0
M  V30 372 C 32.2681 1.56015 -1.35893 0
M  V30 373 C 32.6831 1.88718 0.0555523 0
M  V30 374 O 32.0401 1.51502 1.01752 0
M  V30 375 C 32.0911 2.87001 -2.19801 0
M  V30 376 O 31.8121 2.557 -3.55738 0
M  V30 377 C 33.3131 3.81228 -2.26231 0
M  V30 378 H 30.5331 0.483317 -0.465453 0
M  V30 379 H 33.0771 0.955611 -1.80799 0
M  V30 380 H 31.2321 3.43877 -1.78402 0
M  V30 381 H 31.6461 3.39584 -3.99729 0
M  V30 382 H 33.1201 4.70139 -2.89263 0
M  V30 383 H 33.5971 4.20409 -1.27093 0
M  V30 384 H 34.2031 3.30281 -2.67945 0
M  V30 385 N 32.5182 1.22032 0.997298 0
M  V30 386 C 33.7952 0.950823 1.70935 0
M  V30 387 C 34.1752 -0.535292 2.042 0
M  V30 388 O 33.5232 -1.50217 1.72183 0
M  V30 389 C 33.7332 1.84386 2.96315 0
M  V30 390 C 35.0812 2.09732 3.69185 0
M  V30 391 O 36.1052 1.81798 3.06314 0
M  V30 392 O 34.9642 2.57018 4.82291 0
M  V30 393 H 32.0582 0.357204 0.745878 0
M  V30 394 H 34.6042 1.32997 1.05404 0
M  V30 395 H 33.3762 2.84928 2.68201 0
M  V30 396 H 32.9992 1.46602 3.69586 0
M  V30 397 N 33.9963 -1.19345 1.0293 0
M  V30 398 C 34.9593 -2.20793 0.615069 0
M  V30 399 C 35.9593 -1.57553 -0.321533 0
M  V30 400 O 37.1493 -1.73862 -0.108483 0
M  V30 401 C 34.2813 -3.40754 -0.0999222 0
M  V30 402 H 35.4743 -2.58955 1.51269 0
M  V30 403 H 33.0273 -1.3303 0.820534 0
M  V30 404 H 33.7623 -3.0811 -1.01187 0
M  V30 405 H 33.5473 -3.87889 0.57309 0
M  V30 406 H 35.0373 -4.15898 -0.376645 0
M  V30 407 N 35.4744 -0.807222 -1.35358 0
M  V30 408 C 36.8904 -0.491038 -1.51858 0
M  V30 409 C 37.0904 0.987648 -1.75635 0
M  V30 410 O 36.1464 1.77265 -1.79815 0
M  V30 411 C 37.4594 -1.33695 -2.69344 0
M  V30 412 C 39.0074 -1.33246 -2.83222 0
M  V30 413 C 39.4824 -2.1625 -4.03733 0
M  V30 414 N 40.9734 -2.1379 -4.10911 0
M  V30 415 C 41.7084 -2.74772 -5.03277 0
M  V30 416 N 41.2044 -3.44684 -6.0097 0
M  V30 417 N 42.9974 -2.6441 -4.96028 0
M  V30 418 H 35.1484 -1.76485 -1.18181 0
M  V30 419 H 37.4114 -0.751199 -0.578276 0
M  V30 420 H 37.1174 -2.38634 -2.58354 0
M  V30 421 H 36.9914 -0.990618 -3.6396 0
M  V30 422 H 39.3784 -0.290911 -2.93663 0
M  V30 423 H 39.4594 -1.71866 -1.89461 0
M  V30 424 H 39.1034 -3.20445 -3.94052 0
M  V30 425 H 39.0334 -1.74989 -4.96675 0
M  V30 426 H 41.5244 -1.62923 -3.40976 0
M  V30 427 H 41.8374 -3.88501 -6.68047 0
M  V30 428 H 40.1824 -3.48788 -6.01142 0
M  V30 429 H 43.3734 -2.0938 -4.18662 0
M  V30 430 H 43.5464 -3.12225 -5.6782 0
M  V30 431 N 36.9525 1.47285 -0.560781 0
M  V30 432 C 38.3685 1.58065 -0.22081 0
M  V30 433 C 38.5685 1.55892 1.27671 0
M  V30 434 O 37.6245 1.46422 2.0571 0
M  V30 435 C 38.9375 2.88418 -0.850625 0
M  V30 436 C 40.4855 3.02009 -0.822184 0
M  V30 437 C 40.9605 4.35066 -1.43113 0
M  V30 438 N 42.4515 4.41711 -1.39448 0
M  V30 439 C 43.1865 5.43237 -1.83525 0
M  V30 440 N 42.6825 6.51555 -2.35474 0
M  V30 441 N 44.4755 5.34304 -1.74574 0
M  V30 442 H 36.6265 1.46941 -1.53369 0
M  V30 443 H 38.8895 0.699558 -0.639783 0
M  V30 444 H 38.5955 2.95755 -1.9032 0
M  V30 445 H 38.4695 3.75612 -0.345773 0
M  V30 446 H 40.8565 2.94266 0.221714 0
M  V30 447 H 40.9375 2.16347 -1.36483 0
M  V30 448 H 40.5815 4.43565 -2.47412 0
M  V30 449 H 40.5115 5.19465 -0.863899 0
M  V30 450 H 43.0025 3.64027 -1.01452 0
M  V30 451 H 43.3155 7.25203 -2.67021 0
M  V30 452 H 41.6605 6.52435 -2.39487 0
M  V30 453 H 44.8515 4.48581 -1.33763 0
M  V30 454 H 45.0245 6.13288 -2.09242 0
M  V30 455 N 38.4306 0.297415 1.54768 0
M  V30 456 C 39.3776 -0.580276 2.23386 0
M  V30 457 C 40.3476 -1.13238 1.21517 0
M  V30 458 O 41.5326 -1.17757 1.50126 0
M  V30 459 C 38.6726 -1.74801 2.97555 0
M  V30 460 C 37.7856 -1.22764 4.1419 0
M  V30 461 C 36.9206 -2.35895 4.75949 0
M  V30 462 C 35.9596 -1.80974 5.84735 0
M  V30 463 N 35.0966 -2.87664 6.40464 0
M  V30 464 H 39.9366 0.0114833 2.97998 0
M  V30 465 H 37.4736 0.0174361 1.4709 0
M  V30 466 H 39.4316 -2.43475 3.38786 0
M  V30 467 H 38.0616 -2.31145 2.25326 0
M  V30 468 H 37.1136 -0.433271 3.77924 0
M  V30 469 H 38.4256 -0.785551 4.92575 0
M  V30 470 H 37.5796 -3.12523 5.20014 0
M  V30 471 H 36.3186 -2.83429 3.96887 0
M  V30 472 H 35.3236 -1.02834 5.40097 0
M  V30 473 H 36.5486 -1.34348 6.65678 0
M  V30 474 H 34.4946 -3.34538 5.64287 0
M  V30 475 H 34.4116 -2.4794 7.14186 0
M  V30 476 H 35.6796 -3.642 6.89187 0
M  V30 477 N 39.9087 -1.5758 0.0250728 0
M  V30 478 C 41.3247 -1.56124 -0.331282 0
M  V30 479 C 41.5247 -1.03029 -1.73169 0
M  V30 480 O 40.5807 -0.675215 -2.43305 0
M  V30 481 C 41.8937 -3.00139 -0.183584 0
M  V30 482 C 43.4417 -3.11946 -0.256654 0
M  V30 483 C 43.9167 -4.57793 -0.137792 0
M  V30 484 N 45.4077 -4.6279 -0.194904 0
M  V30 485 C 46.1427 -5.7326 -0.126655 0
M  V30 486 N 45.6387 -6.928 -0.00755288 0
M  V30 487 N 47.4317 -5.61811 -0.180348 0
M  V30 488 H 39.5827 -1.90424 0.94087 0
M  V30 489 H 41.8457 -0.875761 0.362968 0
M  V30 490 H 41.5517 -3.4292 0.780927 0
M  V30 491 H 41.4257 -3.64899 -0.955448 0
M  V30 492 H 43.8127 -2.69079 -1.21162 0
M  V30 493 H 43.8937 -2.49915 0.545517 0
M  V30 494 H 43.5377 -5.01339 0.813739 0
M  V30 495 H 43.4677 -5.17798 -0.958775 0
M  V30 496 H 45.9587 -3.76807 -0.287267 0
M  V30 497 H 46.2717 -7.72791 0.0379428 0
M  V30 498 H 44.6167 -6.94995 0.0271731 0
M  V30 499 H 47.8077 -4.6731 -0.271767 0
M  V30 500 H 47.9807 -6.47882 -0.123697 0
M  V30 501 N 41.3868 0.248026 -1.55636 0
M  V30 502 C 42.6638 0.998988 -1.68165 0
M  V30 503 C 43.0438 2.03409 -0.564621 0
M  V30 504 O 42.3918 2.24378 0.432076 0
M  V30 505 C 42.6018 1.63334 -3.0842 0
M  V30 506 C 43.9498 2.13562 -3.66983 0
M  V30 507 O 44.9738 1.73277 -3.11213 0
M  V30 508 O 43.8328 2.87526 -4.64749 0
M  V30 509 H 40.9268 0.464933 -0.683935 0
M  V30 510 H 43.4728 0.241902 -1.67967 0
M  V30 511 H 42.2448 0.884583 -3.8117 0
M  V30 512 H 41.8678 2.45666 -3.12624 0
M  V30 513 N 42.8649 1.48995 0.513639 0
M  V30 514 C 44.1129 1.57531 1.26604 0
M  V30 515 C 44.4339 0.258236 1.93283 0
M  V30 516 O 43.7039 -0.721502 1.8213 0
M  V30 517 H 42.2839 0.580387 0.470276 0
M  V30 518 H 44.9459 1.85552 0.596373 0
M  V30 519 H 44.0419 2.36486 2.03669 0
M  V30 520 N 44.343 -0.763751 1.37857 0
M  V30 521 C 45.29 -1.87726 1.34267 0
M  V30 522 C 46.26 -1.64807 0.206879 0
M  V30 523 O 47.445 -1.86613 0.397508 0
M  V30 524 C 44.585 -3.24896 1.16346 0
M  V30 525 C 43.698 -3.59716 2.39225 0
M  V30 526 C 42.833 -4.86137 2.14114 0
M  V30 527 C 41.872 -5.13711 3.32817 0
M  V30 528 N 41.009 -6.31323 3.07206 0
M  V30 529 H 45.849 -1.90129 2.29466 0
M  V30 530 H 43.386 -0.929433 1.14017 0
M  V30 531 H 45.344 -4.04036 1.03975 0
M  V30 532 H 43.974 -3.21847 0.247909 0
M  V30 533 H 43.026 -2.75498 2.62307 0
M  V30 534 H 44.338 -3.76027 3.27728 0
M  V30 535 H 43.492 -5.73198 1.9882 0
M  V30 536 H 42.231 -4.71945 1.22961 0
M  V30 537 H 41.236 -4.25123 3.48641 0
M  V30 538 H 42.461 -5.29807 4.24832 0
M  V30 539 H 40.407 -6.18474 2.1869 0
M  V30 540 H 40.324 -6.48087 3.89254 0
M  V30 541 H 41.592 -7.213 2.95546 0
M  V30 542 N 45.8211 -1.22559 -0.990812 0
M  V30 543 C 47.0511 -1.07623 -1.76355 0
M  V30 544 C 47.4591 0.37601 -1.85426 0
M  V30 545 O 46.8021 1.27228 -1.32509 0
M  V30 546 C 46.8641 -1.61507 -3.21179 0
M  V30 547 C 46.5281 -3.10146 -3.35646 0
M  V30 548 C 47.5251 -4.07553 -3.22796 0
M  V30 549 C 45.2101 -3.49644 -3.60631 0
M  V30 550 C 47.2041 -5.42442 -3.34716 0
M  V30 551 C 44.8911 -4.84682 -3.72192 0
M  V30 552 C 45.8891 -5.8089 -3.59243 0
M  V30 553 O 45.5771 -7.13476 -3.70415 0
M  V30 554 H 45.3091 -0.377745 -0.560611 0
M  V30 555 H 47.8631 -1.62658 -1.25425 0
M  V30 556 H 46.0931 -1.00881 -3.73309 0
M  V30 557 H 47.7821 -1.42202 -3.80175 0
M  V30 558 H 48.5481 -3.78381 -3.03403 0
M  V30 559 H 44.4271 -2.75282 -3.69785 0
M  V30 560 H 47.9711 -6.17518 -3.24526 0
M  V30 561 H 43.8681 -5.13534 -3.91092 0
M  V30 562 H 44.6361 -7.21083 -3.87275 0
M  V30 563 N 47.2992 1.18797 -1.03562 0
M  V30 564 C 48.5482 1.87978 -0.731235 0
M  V30 565 C 48.8612 1.80911 0.743671 0
M  V30 566 O 50.0672 2.45407 1.16137 0
M  V30 567 C 48.5232 3.3721 -1.25768 0
M  V30 568 C 48.1312 3.52818 -2.76085 0
M  V30 569 C 49.8752 4.11825 -1.0296 0
M  V30 570 C 47.7822 4.9598 -3.22114 0
M  V30 571 H 46.7122 0.704063 -0.269835 0
M  V30 572 H 49.3632 1.34266 -1.25079 0
M  V30 573 H 47.7452 3.90359 -0.666011 0
M  V30 574 H 48.9192 3.09965 -3.40966 0
M  V30 575 H 47.2342 2.91602 -2.97249 0
M  V30 576 H 49.8312 5.17411 -1.34869 0
M  V30 577 H 50.1742 4.16287 0.0333546 0
M  V30 578 H 50.7072 3.64833 -1.58562 0
M  V30 579 H 47.4462 4.96684 -4.27768 0
M  V30 580 H 46.9662 5.39569 -2.61965 0
M  V30 581 H 48.6452 5.6467 -3.15844 0
M  V30 582 N 48.7773 0.814389 1.34928 0
M  V30 583 C 49.6873 0.231978 2.3345 0
M  V30 584 C 50.7033 -0.629139 1.62228 0
M  V30 585 O 51.8793 -0.539052 1.94052 0
M  V30 586 C 48.9443 -0.603482 3.41407 0
M  V30 587 C 48.0053 0.279037 4.28392 0
M  V30 588 C 47.2383 -0.516643 5.31193 0
M  V30 589 O 47.4613 -1.75068 5.4287 0
M  V30 590 O 46.3953 0.0965652 6.01823 0
M  V30 591 H 50.2213 1.04721 2.85074 0
M  V30 592 H 47.8063 0.576343 1.37836 0
M  V30 593 H 49.6883 -1.07908 4.0735 0
M  V30 594 H 48.3633 -1.39618 2.92042 0
M  V30 595 H 47.2703 0.801948 3.65403 0
M  V30 596 H 48.6033 1.03588 4.81176 0
M  V30 597 N 50.2554 -1.46986 0.568584 0
M  V30 598 C 51.2024 -2.30153 -0.172707 0
M  V30 599 C 52.1724 -1.39759 -0.897586 0
M  V30 600 O 53.3574 -1.68716 -0.891044 0
M  V30 601 C 50.4974 -3.23952 -1.1895 0
M  V30 602 C 49.6104 -4.29441 -0.469517 0
M  V30 603 C 48.7454 -5.1038 -1.47259 0
M  V30 604 C 47.7844 -6.07632 -0.738225 0
M  V30 605 N 46.9214 -6.8149 -1.68868 0
M  V30 606 H 51.7614 -2.93019 0.542596 0
M  V30 607 H 49.2984 -1.44422 0.279401 0
M  V30 608 H 51.2564 -3.76767 -1.79173 0
M  V30 609 H 49.8864 -2.62926 -1.87269 0
M  V30 610 H 48.9384 -3.79594 0.247467 0
M  V30 611 H 50.2504 -4.98689 0.105241 0
M  V30 612 H 49.4044 -5.67402 -2.14803 0
M  V30 613 H 48.1434 -4.4106 -2.08128 0
M  V30 614 H 47.1484 -5.49778 -0.0489293 0
M  V30 615 H 48.3734 -6.78966 -0.135129 0
M  V30 616 H 46.3194 -6.14891 -2.28573 0
M  V30 617 H 46.2364 -7.46948 -1.16636 0
M  V30 618 H 47.5044 -7.43078 -2.3549 0
M  V30 619 N 51.7335 -0.305618 -1.54608 0
M  V30 620 C 52.9825 0.303098 -1.9941 0
M  V30 621 C 53.2955 1.54648 -1.19764 0
M  V30 622 O 54.5015 2.23007 -1.54855 0
M  V30 623 C 52.9575 0.590588 -3.55021 0
M  V30 624 C 52.5655 -0.634719 -4.43481 0
M  V30 625 C 54.3095 1.16025 -4.08336 0
M  V30 626 C 52.2165 -0.320126 -5.90533 0
M  V30 627 H 51.1465 0.117031 -0.744862 0
M  V30 628 H 53.7975 -0.415045 -1.78745 0
M  V30 629 H 52.1795 1.36845 -3.71604 0
M  V30 630 H 53.3535 -1.41079 -4.38672 0
M  V30 631 H 51.6685 -1.12333 -4.00962 0
M  V30 632 H 54.2655 1.40994 -5.15776 0
M  V30 633 H 54.6085 2.10397 -3.5922 0
M  V30 634 H 55.1415 0.443985 -3.95315 0
M  V30 635 H 51.8805 -1.23254 -6.43808 0
M  V30 636 H 51.4005 0.418579 -5.98338 0
M  V30 637 H 53.0795 0.0766241 -6.46955 0
M  V30 638 N 53.2116 1.57565 -0.0334293 0
M  V30 639 C 54.4596 1.91598 0.642999 0
M  V30 640 C 54.7806 0.910847 1.7242 0
M  V30 641 O 54.0506 -0.0469931 1.95844 0
M  V30 642 H 52.6306 0.707228 0.240496 0
M  V30 643 H 55.2926 1.94726 -0.0822488 0
M  V30 644 H 54.3886 2.92336 1.09298 0
M  V30 645 N 54.6897 -0.239769 1.55765 0
M  V30 646 C 55.9197 -0.982743 1.8173 0
M  V30 647 C 56.3277 -1.7917 0.607835 0
M  V30 648 O 55.6707 -1.78525 -0.432973 0
M  V30 649 C 55.7327 -1.96332 3.01155 0
M  V30 650 C 55.3967 -1.34062 4.36894 0
M  V30 651 C 56.3937 -0.739539 5.14613 0
M  V30 652 C 54.0787 -1.35784 4.83599 0
M  V30 653 C 56.0727 -0.163989 6.37189 0
M  V30 654 C 53.7597 -0.778441 6.06122 0
M  V30 655 C 54.7577 -0.182548 6.82756 0
M  V30 656 O 54.4457 0.387887 8.02964 0
M  V30 657 H 54.1777 -0.294481 0.608487 0
M  V30 658 H 56.7317 -0.26572 2.03674 0
M  V30 659 H 54.9617 -2.71884 2.74984 0
M  V30 660 H 56.6507 -2.57032 3.14149 0
M  V30 661 H 57.4167 -0.718687 4.79646 0
M  V30 662 H 53.2957 -1.81105 4.23936 0
M  V30 663 H 56.8397 0.301753 6.96947 0
M  V30 664 H 52.7367 -0.796645 6.40565 0
M  V30 665 H 53.5047 0.28044 8.18019 0
M  V30 666 N 56.1678 -1.49265 -0.50573 0
M  V30 667 C 57.3978 -1.61979 -1.28243 0
M  V30 668 C 57.8058 -0.288576 -1.86986 0
M  V30 669 O 57.1488 0.735408 -1.68337 0
M  V30 670 C 57.2108 -2.62632 -2.45489 0
M  V30 671 C 56.8748 -4.071 -2.07651 0
M  V30 672 C 57.8718 -4.94049 -1.61901 0
M  V30 673 C 55.5568 -4.52801 -2.17431 0
M  V30 674 C 57.5508 -6.24736 -1.26428 0
M  V30 675 C 55.2378 -5.83503 -1.8157 0
M  V30 676 C 56.2358 -6.69294 -1.36142 0
M  V30 677 O 55.9238 -7.9756 -1.00764 0
M  V30 678 H 55.6558 -0.54834 -0.395347 0
M  V30 679 H 58.2098 -1.96002 -0.614204 0
M  V30 680 H 56.4398 -2.2378 -3.15372 0
M  V30 681 H 58.1288 -2.64925 -3.07522 0
M  V30 682 H 58.8948 -4.5997 -1.53795 0
M  V30 683 H 54.7738 -3.86196 -2.51742 0
M  V30 684 H 58.3178 -6.91652 -0.908992 0
M  V30 685 H 54.2148 -6.17112 -1.89324 0
M  V30 686 H 54.9828 -8.10529 -1.13952 0
M  V30 687 N 57.6459 0.756429 -1.3826 0
M  V30 688 C 58.9229 1.50584 -1.24835 0
M  V30 689 C 59.3029 2.10556 0.151485 0
M  V30 690 O 58.6509 1.96825 1.1607 0
M  V30 691 C 58.8609 2.57448 -2.3563 0
M  V30 692 C 60.2089 3.24429 -2.73917 0
M  V30 693 O 61.2329 2.67751 -2.34921 0
M  V30 694 O 60.0919 4.26937 -3.41156 0
M  V30 695 H 57.1859 0.667664 -0.48801 0
M  V30 696 H 59.7319 0.792083 -1.5008 0
M  V30 697 H 58.5039 2.11362 -3.29305 0
M  V30 698 H 58.1269 3.36408 -2.11933 0
M  V30 699 N 59.124 1.23083 0.984299 0
M  V30 700 C 60.535 1.05609 1.5396 0
M  V30 701 C 60.886 -0.377793 1.92528 0
M  V30 702 O 60.011 -1.26398 1.75649 0
M  V30 703 C 60.606 1.91087 2.7977 0
M  V30 704 C 59.165 1.77885 3.31713 0
M  V30 705 C 58.312 1.87028 2.04733 0
M  V30 706 H 61.263 1.36802 0.804419 0
M  V30 707 H 61.284 1.43336 3.5247 0
M  V30 708 H 60.796 2.9544 2.51668 0
M  V30 709 H 58.897 0.762995 3.64704 0
M  V30 710 H 59.01 2.61047 4.01735 0
M  V30 711 H 57.374 1.30565 2.18689 0
M  V30 712 H 58.157 2.92929 1.79017 0
M  V30 713 N 60.6021 -1.18246 1.0419 0
M  V30 714 C 62.0181 -1.40269 0.761366 0
M  V30 715 C 62.2181 -1.90777 -0.648578 0
M  V30 716 O 61.2741 -2.0929 -1.41258 0
M  V30 717 C 62.5871 -2.40237 1.8085 0
M  V30 718 C 64.1351 -2.53961 1.82955 0
M  V30 719 C 64.6101 -3.57194 2.86664 0
M  V30 720 N 66.1011 -3.64702 2.85563 0
M  V30 721 C 66.8361 -4.44309 3.6246 0
M  V30 722 N 66.3321 -5.27514 4.49111 0
M  V30 723 N 68.1251 -4.39084 3.50944 0
M  V30 724 H 60.2761 -0.837882 1.95175 0
M  V30 725 H 62.5391 -0.430608 0.84456 0
M  V30 726 H 62.2451 -2.10176 2.81991 0
M  V30 727 H 62.1191 -3.39601 1.64168 0
M  V30 728 H 64.5061 -2.83338 0.824855 0
M  V30 729 H 64.5871 -1.54706 2.03715 0
M  V30 730 H 64.2311 -3.28558 3.87314 0
M  V30 731 H 64.1611 -4.5613 2.6316 0
M  V30 732 H 66.6521 -3.05289 2.22727 0
M  V30 733 H 66.9651 -5.85411 5.04493 0
M  V30 734 H 65.3101 -5.2693 4.53178 0
M  V30 735 H 68.5011 -3.7313 2.82651 0
M  V30 736 H 68.6741 -5.00883 4.11121 0
M  V30 737 N 62.0802 -0.821533 -1.34494 0
M  V30 738 C 63.0272 -0.240397 -2.29545 0
M  V30 739 C 63.9972 0.634031 -1.53523 0
M  V30 740 O 65.1822 0.575966 -1.81899 0
M  V30 741 C 62.3222 0.592869 -3.39969 0
M  V30 742 C 61.4352 -0.30365 -4.30932 0
M  V30 743 C 60.5702 0.539049 -5.28458 0
M  V30 744 C 59.6092 -0.356942 -6.11058 0
M  V30 745 N 58.7462 0.446603 -7.00678 0
M  V30 746 H 63.5862 -1.05632 -2.7865 0
M  V30 747 H 61.1232 -0.532413 -1.37127 0
M  V30 748 H 63.0812 1.09129 -4.02675 0
M  V30 749 H 61.7112 1.37392 -2.92102 0
M  V30 750 H 60.7632 -0.920276 -3.691 0
M  V30 751 H 62.0752 -0.992661 -4.88823 0
M  V30 752 H 61.2292 1.102 -5.96608 0
M  V30 753 H 59.9682 1.26157 -4.71101 0
M  V30 754 H 58.9732 -0.932047 -5.41842 0
M  V30 755 H 60.1982 -1.07755 -6.70497 0
M  V30 756 H 58.1442 1.15282 -6.45791 0
M  V30 757 H 58.0612 -0.184048 -7.55776 0
M  V30 758 H 59.3292 0.992352 -7.73158 0
M  V30 759 N 63.5583 1.46682 -0.576371 0
M  V30 760 C 64.7863 2.06798 -0.0649635 0
M  V30 761 C 65.2013 1.42612 1.23723 0
M  V30 762 O 64.5583 0.529203 1.74659 0
M  V30 763 C 64.6093 3.6132 0.114202 0
M  V30 764 O 64.3303 4.23104 -1.13644 0
M  V30 765 C 65.8313 4.38349 0.66069 0
M  V30 766 H 63.0513 0.668778 -0.0545616 0
M  V30 767 H 65.5953 1.88404 -0.795237 0
M  V30 768 H 63.7503 3.79162 0.794673 0
M  V30 769 H 64.1643 5.15894 -0.946253 0
M  V30 770 H 65.6383 5.47081 0.73526 0
M  V30 771 H 66.1153 4.05953 1.67627 0
M  V30 772 H 66.7213 4.25297 0.0152951 0
M  V30 773 N 65.0364 0.313813 1.54444 0
M  V30 774 C 66.2644 -0.293918 2.04802 0
M  V30 775 C 66.6794 -1.46537 1.19047 0
M  V30 776 O 66.0364 -1.81182 0.218939 0
M  V30 777 C 66.0874 -0.737806 3.53891 0
M  V30 778 O 65.8084 0.387038 4.36387 0
M  V30 779 C 67.3094 -1.40936 4.203 0
M  V30 780 H 64.5294 -0.0620057 0.668129 0
M  V30 781 H 67.0734 0.457169 1.99324 0
M  V30 782 H 65.2284 -1.43889 3.59687 0
M  V30 783 H 65.6424 0.0391274 5.24485 0
M  V30 784 H 67.1164 -1.67099 5.26101 0
M  V30 785 H 67.5934 -2.35355 3.70816 0
M  V30 786 H 68.1994 -0.751117 4.18615 0
M  V30 787 N 66.5145 -1.57545 0.0417849 0
M  V30 788 C 67.9255 -1.80011 -0.495259 0
M  V30 789 C 68.2765 -0.953199 -1.71489 0
M  V30 790 O 67.4015 -0.167138 -2.15754 0
M  V30 791 C 67.9965 -3.26482 -0.905265 0
M  V30 792 C 66.5555 -3.499 -1.38734 0
M  V30 793 C 65.7025 -2.74979 -0.358056 0
M  V30 794 H 68.6535 -1.56425 0.267736 0
M  V30 795 H 68.6745 -3.36887 -1.76882 0
M  V30 796 H 68.1865 -3.88096 -0.017401 0
M  V30 797 H 66.2875 -2.93553 -2.29471 0
M  V30 798 H 66.4005 -4.58615 -1.38598 0
M  V30 799 H 64.7645 -2.40834 -0.828912 0
M  V30 800 H 65.5475 -3.39315 0.521561 0
M  V30 801 N 67.9926 0.231505 -1.5589 0
M  V30 802 C 69.2696 0.981096 -1.69215 0
M  V30 803 C 69.6496 2.02799 -0.586164 0
M  V30 804 O 68.9976 2.24823 0.408253 0
M  V30 805 C 69.2076 1.60054 -3.10135 0
M  V30 806 C 70.5556 2.09658 -3.69227 0
M  V30 807 O 71.5796 1.69967 -3.13033 0
M  V30 808 O 70.4386 2.8258 -4.67772 0
M  V30 809 H 67.5326 0.457653 -0.688827 0
M  V30 810 H 70.0786 0.224073 -1.68214 0
M  V30 811 H 68.8506 0.844105 -3.82087 0
M  V30 812 H 68.4736 2.42336 -3.15212 0
M  V30 813 N 69.4707 1.49531 0.497807 0
M  V30 814 C 70.7167 1.60388 1.25089 0
M  V30 815 C 71.0717 0.288328 1.90227 0
M  V30 816 O 70.3647 -0.711706 1.77891 0
M  V30 817 C 70.5587 2.70252 2.33878 0
M  V30 818 C 70.3877 4.12363 1.79408 0
M  V30 819 C 69.1577 4.7911 1.60566 0
M  V30 820 C 71.3557 4.97491 1.30412 0
M  V30 821 N 69.3377 6.05525 1.01059 0
M  V30 822 C 70.7087 6.14411 0.830595 0
M  V30 823 C 72.7637 4.83466 1.19015 0
M  V30 824 C 71.4667 7.1885 0.254371 0
M  V30 825 C 73.4927 5.88057 0.627892 0
M  V30 826 C 72.8547 7.04208 0.16461 0
M  V30 827 H 68.9537 0.641246 0.447579 0
M  V30 828 H 71.5377 1.86549 0.557441 0
M  V30 829 H 69.7087 2.45858 3.0068 0
M  V30 830 H 71.4407 2.70613 3.00917 0
M  V30 831 H 68.1957 4.35961 1.85026 0
M  V30 832 H 68.6197 6.73028 0.732236 0
M  V30 833 H 73.2617 3.93978 1.53431 0
M  V30 834 H 70.9797 8.08036 -0.102052 0
M  V30 835 H 74.5657 5.79266 0.542444 0
M  V30 836 H 73.4457 7.83757 -0.263669 0
M  V30 837 N 70.9488 -0.749086 1.3866 0
M  V30 838 C 71.8788 -1.8764 1.38973 0
M  V30 839 C 72.8598 -1.68178 0.255004 0
M  V30 840 O 74.0448 -1.88704 0.458754 0
M  V30 841 C 71.1748 -3.25222 1.21851 0
M  V30 842 C 70.1288 -3.59295 2.32575 0
M  V30 843 C 69.4548 -4.95663 2.00555 0
M  V30 844 C 70.7548 -3.63709 3.7485 0
M  V30 845 H 72.4488 -1.87635 2.3331 0
M  V30 846 H 69.9948 -0.901329 1.12303 0
M  V30 847 H 71.9478 -4.03746 1.20695 0
M  V30 848 H 70.6718 -3.25719 0.239775 0
M  V30 849 H 69.3308 -2.83093 2.32925 0
M  V30 850 H 68.9788 -4.92724 1.01154 0
M  V30 851 H 68.6788 -5.19429 2.74714 0
M  V30 852 H 70.2028 -5.7656 2.01024 0
M  V30 853 H 71.6168 -4.32338 3.76506 0
M  V30 854 H 70.0138 -3.98986 4.48252 0
M  V30 855 H 71.0838 -2.63834 4.06841 0
M  V30 856 N 72.4269 -1.23603 -0.977757 0
M  V30 857 C 73.3739 -1.01954 -2.07061 0
M  V30 858 C 74.3439 0.0638697 -1.65977 0
M  V30 859 O 75.5289 -0.0887624 -1.90593 0
M  V30 860 C 72.6689 -0.619658 -3.39491 0
M  V30 861 C 71.7819 -1.77547 -3.93829 0
M  V30 862 C 70.9169 -1.32212 -5.14484 0
M  V30 863 C 69.9559 -2.44852 -5.60994 0
M  V30 864 N 69.0929 -2.00456 -6.72876 0
M  V30 865 H 73.9329 -1.95495 -2.24913 0
M  V30 866 H 71.4699 -0.973861 -1.10247 0
M  V30 867 H 73.4279 -0.368898 -4.15566 0
M  V30 868 H 72.0579 0.278752 -3.21594 0
M  V30 869 H 71.1099 -2.14016 -3.14486 0
M  V30 870 H 72.4219 -2.62219 -4.24314 0
M  V30 871 H 71.5759 -1.02965 -5.97899 0
M  V30 872 H 70.3149 -0.445808 -4.85658 0
M  V30 873 H 69.3199 -2.74871 -4.76157 0
M  V30 874 H 70.5449 -3.33024 -5.91837 0
M  V30 875 H 68.4909 -1.15208 -6.45804 0
M  V30 876 H 68.4079 -2.78687 -7.02759 0
M  V30 877 H 69.6759 -1.7432 -7.59758 0
M  V30 878 N 73.905 1.17692 -1.04816 0
M  V30 879 C 75.151 1.88137 -0.75711 0
M  V30 880 C 75.484 1.80604 0.713841 0
M  V30 881 O 74.759 1.21146 1.52164 0
M  V30 882 C 75.042 3.38318 -1.2334 0
M  V30 883 C 74.895 3.54622 -2.76701 0
M  V30 884 C 76.214 4.32214 -0.829415 0
M  V30 885 H 73.333 0.683163 -0.27651 0
M  V30 886 H 75.975 1.38424 -1.30149 0
M  V30 887 H 74.125 3.80787 -0.770286 0
M  V30 888 H 75.797 3.21194 -3.31107 0
M  V30 889 H 74.04 2.97026 -3.16161 0
M  V30 890 H 74.711 4.60028 -3.05088 0
M  V30 891 H 77.187 3.97565 -1.22805 0
M  V30 892 H 76.063 5.35838 -1.19033 0
M  V30 893 H 76.324 4.41294 0.266891 0
M  V30 894 N 75.3831 0.828654 1.34056 0
M  V30 895 C 76.6601 0.341809 1.9259 0
M  V30 896 C 77.0401 -1.17158 1.75605 0
M  V30 897 O 76.3881 -1.98132 1.13824 0
M  V30 898 C 76.5981 0.777453 3.4023 0
M  V30 899 C 77.9461 0.779579 4.17382 0
M  V30 900 O 78.9701 0.7204 3.48839 0
M  V30 901 O 77.8291 0.857996 5.39723 0
M  V30 902 H 74.9231 0.0946085 0.821571 0
M  V30 903 H 77.4691 0.913827 1.42994 0
M  V30 904 H 76.2411 1.8196 3.46419 0
M  V30 905 H 75.8641 0.181444 3.97186 0
M  V30 906 N 76.8612 -1.46375 0.584142 0
M  V30 907 C 78.1072 -2.02678 0.0703716 0
M  V30 908 C 78.4402 -1.4545 -1.28678 0
M  V30 909 O 77.7152 -0.62014 -1.84349 0
M  V30 910 C 77.9982 -3.60099 0.00614674 0
M  V30 911 C 77.8512 -4.27709 1.3923 0
M  V30 912 C 79.1702 -4.34598 -0.693742 0
M  V30 913 H 76.2892 -0.736504 0.027047 0
M  V30 914 H 78.9312 -1.74501 0.751615 0
M  V30 915 H 77.0812 -3.84236 -0.574009 0
M  V30 916 H 78.7532 -4.14832 2.01773 0
M  V30 917 H 76.9962 -3.87016 1.95962 0
M  V30 918 H 77.6672 -5.36478 1.29982 0
M  V30 919 H 80.1432 -4.15615 -0.200869 0
M  V30 920 H 79.0192 -5.44318 -0.707714 0
M  V30 921 H 79.2802 -4.05759 -1.75533 0
M  V30 922 N 78.3393 -0.321999 -1.54275 0
M  V30 923 C 79.2493 0.553631 -2.27974 0
M  V30 924 C 80.2653 1.13054 -1.32268 0
M  V30 925 O 81.4413 1.15084 -1.6528 0
M  V30 926 C 78.5063 1.69927 -3.02201 0
M  V30 927 C 77.5673 1.15433 -4.1349 0
M  V30 928 C 76.8003 2.24537 -4.84168 0
M  V30 929 O 77.0233 3.44852 -4.5435 0
M  V30 930 O 75.9573 1.90044 -5.7111 0
M  V30 931 H 79.7833 -0.0448345 -3.03667 0
M  V30 932 H 77.3683 -0.0877418 -1.49142 0
M  V30 933 H 79.2503 2.3663 -3.48689 0
M  V30 934 H 77.9253 2.28395 -2.29385 0
M  V30 935 H 76.8323 0.452436 -3.71354 0
M  V30 936 H 78.1653 0.614805 -4.88345 0
M  V30 937 N 79.8174 1.5752 -0.0501392 0
M  V30 938 C 81.2334 1.56631 0.306402 0
M  V30 939 C 81.4334 1.0577 1.71508 0
M  V30 940 O 80.4894 0.713837 2.422 0
M  V30 941 C 81.8024 3.00393 0.135811 0
M  V30 942 C 83.3504 3.12315 0.206993 0
M  V30 943 C 83.8254 4.57954 0.064944 0
M  V30 944 N 85.3164 4.63041 0.121254 0
M  V30 945 C 86.0514 5.73389 0.0354381 0
M  V30 946 N 85.5474 6.92724 -0.102666 0
M  V30 947 N 87.3404 5.62026 0.090946 0
M  V30 948 H 79.4914 1.88903 -0.971046 0
M  V30 949 H 81.7544 0.869876 -0.376855 0
M  V30 950 H 81.4604 3.41635 -0.835384 0
M  V30 951 H 81.3344 3.66373 0.897275 0
M  V30 952 H 83.7214 2.70973 1.16866 0
M  V30 953 H 83.8024 2.49016 -0.585208 0
M  V30 954 H 83.4464 4.99981 -0.893394 0
M  V30 955 H 83.3764 5.19258 0.876277 0
M  V30 956 H 85.8674 3.77216 0.227284 0
M  V30 957 H 86.1804 7.72633 -0.160882 0
M  V30 958 H 84.5254 6.94864 -0.137737 0
M  V30 959 H 87.7164 4.67684 0.197388 0
M  V30 960 H 87.8894 6.47997 0.0206089 0
M  V30 961 N 81.2955 -0.223234 1.56011 0
M  V30 962 C 82.2585 -1.26014 1.9145 0
M  V30 963 C 83.2585 -1.3989 0.792937 0
M  V30 964 O 84.4485 -1.38184 1.0607 0
M  V30 965 C 81.5805 -2.63422 2.16383 0
M  V30 966 H 82.7735 -0.95796 2.84189 0
M  V30 967 H 80.3265 -0.463576 1.49267 0
M  V30 968 H 81.0615 -2.98741 1.2619 0
M  V30 969 H 80.8465 -2.54728 2.98088 0
M  V30 970 H 82.3365 -3.38249 2.44903 0
M  V30 971 N 82.7736 -1.49793 -0.48987 0
M  V30 972 C 84.1896 -1.36803 -0.822022 0
M  V30 973 C 84.3896 -0.409652 -1.97292 0
M  V30 974 O 83.4456 0.154614 -2.52026 0
M  V30 975 C 84.7586 -2.77768 -1.15175 0
M  V30 976 C 86.3066 -2.86549 -1.25931 0
M  V30 977 C 86.7816 -4.28306 -1.62228 0
M  V30 978 N 88.2726 -4.31169 -1.69256 0
M  V30 979 C 89.0076 -5.37832 -1.98807 0
M  V30 980 N 88.5036 -6.54726 -2.26507 0
M  V30 981 N 90.2966 -5.25258 -2.00152 0
M  V30 982 H 82.4476 -2.10691 0.268881 0
M  V30 983 H 84.7106 -0.946241 0.057728 0
M  V30 984 H 84.4166 -3.49648 -0.379335 0
M  V30 985 H 84.2906 -3.13836 -2.09253 0
M  V30 986 H 86.6776 -2.14899 -2.02243 0
M  V30 987 H 86.7586 -2.54049 -0.298776 0
M  V30 988 H 86.4026 -5.00486 -0.864622 0
M  V30 989 H 86.3326 -4.58279 -2.594 0
M  V30 990 H 88.8236 -3.4687 -1.49965 0
M  V30 991 H 89.1366 -7.31833 -2.48276 0
M  V30 992 H 87.4816 -6.57933 -2.23939 0
M  V30 993 H 90.6726 -4.32938 -1.77996 0
M  V30 994 H 90.8456 -6.08476 -2.22848 0
M  V30 995 N 84.2517 0.741722 -1.39055 0
M  V30 996 C 85.4817 1.52876 -1.3897 0
M  V30 997 C 85.8897 1.8919 0.0193266 0
M  V30 998 O 85.2327 1.54138 0.999356 0
M  V30 999 C 85.2947 2.84929 -2.19216 0
M  V30 1000 C 84.9587 2.71086 -3.67915 0
M  V30 1001 C 85.9557 2.40084 -4.61146 0
M  V30 1002 C 83.6407 2.88168 -4.11418 0
M  V30 1003 C 85.6347 2.26335 -5.95862 0
M  V30 1004 C 83.3217 2.74037 -5.46211 0
M  V30 1005 C 84.3197 2.43166 -6.38247 0
M  V30 1006 O 84.0077 2.29115 -7.70559 0
M  V30 1007 H 83.7397 0.479252 -0.476753 0
M  V30 1008 H 86.2937 0.924751 -1.83405 0
M  V30 1009 H 84.5237 3.47564 -1.69518 0
M  V30 1010 H 86.2127 3.46509 -2.11392 0
M  V30 1011 H 86.9787 2.26545 -4.28838 0
M  V30 1012 H 82.8577 3.11191 -3.40119 0
M  V30 1013 H 86.4017 2.0216 -6.67665 0
M  V30 1014 H 82.2987 2.87153 -5.78112 0
M  V30 1015 H 83.0667 2.44237 -7.81211 0
M  V30 1016 N 85.7298 1.2412 0.971189 0
M  V30 1017 C 86.9758 1.09048 1.71698 0
M  V30 1018 C 87.3308 -0.367442 1.88859 0
M  V30 1019 O 86.6238 -1.26792 1.43646 0
M  V30 1020 C 86.8178 1.75983 3.11071 0
M  V30 1021 C 86.6468 3.28133 3.07504 0
M  V30 1022 C 85.4168 3.97331 3.1218 0
M  V30 1023 C 87.6148 4.24773 2.89952 0
M  V30 1024 N 85.5968 5.3639 2.98596 0
M  V30 1025 C 86.9678 5.50806 2.84627 0
M  V30 1026 C 89.0228 4.15392 2.74506 0
M  V30 1027 C 87.7258 6.68533 2.65437 0
M  V30 1028 C 89.7518 5.32793 2.56682 0
M  V30 1029 C 89.1138 6.57756 2.52063 0
M  V30 1030 H 85.2128 0.453632 0.636979 0
M  V30 1031 H 87.7968 1.56983 1.15171 0
M  V30 1032 H 85.9678 1.30566 3.65796 0
M  V30 1033 H 87.6998 1.53803 3.74335 0
M  V30 1034 H 84.4548 3.48473 3.20724 0
M  V30 1035 H 84.8788 6.09321 2.95054 0
M  V30 1036 H 89.5208 3.19543 2.76861 0
M  V30 1037 H 87.2388 7.64509 2.61825 0
M  V30 1038 H 90.8248 5.27383 2.4568 0
M  V30 1039 H 89.7048 7.4707 2.38446 0
M  V30 1040 N 87.2079 -1.17134 1.05439 0
M  V30 1041 C 88.1379 -2.2342 0.678649 0
M  V30 1042 C 89.1189 -1.66971 -0.32476 0
M  V30 1043 O 90.3039 -1.93149 -0.201802 0
M  V30 1044 C 87.4339 -3.47256 0.0552099 0
M  V30 1045 C 86.3879 -4.16543 0.98365 0
M  V30 1046 C 85.7139 -5.34231 0.223961 0
M  V30 1047 C 87.0139 -4.68495 2.3089 0
M  V30 1048 H 88.7079 -2.55105 1.56722 0
M  V30 1049 H 86.2539 -1.2262 0.754998 0
M  V30 1050 H 88.2069 -4.20828 -0.21946 0
M  V30 1051 H 86.9309 -3.14846 -0.868319 0
M  V30 1052 H 85.5899 -3.44887 1.24293 0
M  V30 1053 H 85.2379 -4.98071 -0.702412 0
M  V30 1054 H 84.9379 -5.81527 0.842627 0
M  V30 1055 H 86.4619 -6.10585 -0.0433671 0
M  V30 1056 H 87.8759 -5.33691 2.09396 0
M  V30 1057 H 86.2729 -5.26379 2.88176 0
M  V30 1058 H 87.3429 -3.85169 2.94572 0
M  V30 1059 N 88.686 -0.835752 -1.33615 0
M  V30 1060 C 89.911 -0.442389 -2.02627 0
M  V30 1061 C 90.336 0.947735 -1.62479 0
M  V30 1062 O 89.694 1.61907 -0.815826 0
M  V30 1063 C 89.742 -0.567216 -3.56111 0
M  V30 1064 O 88.846 0.407799 -4.10379 0
M  V30 1065 H 88.187 -0.180278 -0.639059 0
M  V30 1066 H 90.717 -1.12972 -1.70583 0
M  V30 1067 H 90.727 -0.447708 -4.05536 0
M  V30 1068 H 89.402 -1.58103 -3.84677 0
M  V30 1069 H 87.979 0.246107 -3.72087 0
M  V30 1070 N 90.1641 1.46063 -0.591896 0
M  V30 1071 C 91.4101 2.02638 -0.0811191 0
M  V30 1072 C 91.7431 1.4613 1.27905 0
M  V30 1073 O 91.0181 0.629908 1.84017 0
M  V30 1074 C 91.3011 3.60091 -0.0252436 0
M  V30 1075 C 91.1541 4.26965 -1.41496 0
M  V30 1076 C 92.4731 4.3496 0.670685 0
M  V30 1077 H 89.5921 0.73635 -0.0309524 0
M  V30 1078 H 92.2341 1.741 -0.760859 0
M  V30 1079 H 90.3841 3.84535 0.553624 0
M  V30 1080 H 92.0561 4.13756 -2.0397 0
M  V30 1081 H 90.2991 3.85971 -1.98011 0
M  V30 1082 H 90.9701 5.35781 -1.32825 0
M  V30 1083 H 93.4461 4.15716 0.178825 0
M  V30 1084 H 92.3221 5.44686 0.678837 0
M  V30 1085 H 92.5831 4.06685 1.73379 0
M  V30 1086 N 91.6422 0.330177 1.54103 0
M  V30 1087 C 92.8902 -0.269871 2.0029 0
M  V30 1088 C 93.2112 -1.52133 1.21986 0
M  V30 1089 O 92.4812 -1.93212 0.323438 0
M  V30 1090 H 91.0612 -0.10271 0.739905 0
M  V30 1091 H 93.7232 0.448249 1.89675 0
M  V30 1092 H 92.8192 -0.52166 3.07709 0
M  V30 1093 N 93.1203 -1.57491 0.0584922 0
M  V30 1094 C 94.0833 -2.1085 -0.898617 0
M  V30 1095 C 95.0833 -1.02964 -1.23511 0
M  V30 1096 O 96.2733 -1.29007 -1.17059 0
M  V30 1097 C 93.4053 -2.59881 -2.20623 0
M  V30 1098 H 94.5983 -2.96715 -0.435936 0
M  V30 1099 H 92.1513 -1.55141 -0.190023 0
M  V30 1100 H 92.8863 -1.77431 -2.71457 0
M  V30 1101 H 92.6713 -3.38727 -1.97501 0
M  V30 1102 H 94.1613 -3.01285 -2.89166 0
M  V30 1103 N 94.5984 0.214957 -1.56127 0
M  V30 1104 C 95.5304 1.29004 -1.89448 0
M  V30 1105 C 96.5434 1.42716 -0.783326 0
M  V30 1106 O 97.7324 1.43496 -1.06166 0
M  V30 1107 C 94.8324 2.66482 -2.09381 0
M  V30 1108 C 94.0054 2.74633 -3.40434 0
M  V30 1109 C 93.0644 3.9317 -3.49719 0
M  V30 1110 O 92.0904 3.812 -4.227 0
M  V30 1111 N 93.2924 5.07765 -2.81346 0
M  V30 1112 H 96.0574 1.00743 -2.82261 0
M  V30 1113 H 93.6184 0.40497 -1.56753 0
M  V30 1114 H 95.6104 3.44173 -2.12901 0
M  V30 1115 H 94.1804 2.87314 -1.23163 0
M  V30 1116 H 93.4004 1.83368 -3.48955 0
M  V30 1117 H 94.6884 2.77054 -4.26754 0
M  V30 1118 H 94.0864 5.20386 -2.21843 0
M  V30 1119 H 92.6434 5.83474 -2.90519 0
M  V30 1120 N 96.0765 1.50051 0.48192 0
M  V30 1121 C 97.4875 1.5348 1.06305 0
M  V30 1122 C 97.8385 0.331997 1.93371 0
M  V30 1123 O 96.9635 -0.556256 2.09129 0
M  V30 1124 C 97.5585 2.7813 1.93466 0
M  V30 1125 C 96.1175 2.84275 2.46707 0
M  V30 1126 C 95.2645 2.47637 1.24785 0
M  V30 1127 H 98.2155 1.56472 0.264995 0
M  V30 1128 H 98.2365 2.59372 2.78399 0
M  V30 1129 H 97.7485 3.65654 1.30072 0
M  V30 1130 H 95.8495 2.01077 3.13686 0
M  V30 1131 H 95.9625 3.8691 2.82555 0
M  V30 1132 H 94.3265 1.99835 1.57918 0
M  V30 1133 H 95.1095 3.37457 0.630694 0
M  V30 1134 N 97.5546 -0.734337 1.39446 0
M  V30 1135 C 98.7826 -1.52358 1.39981 0
M  V30 1136 C 99.1976 -1.88799 -0.0054975 0
M  V30 1137 O 98.5546 -1.54146 -0.976998 0
M  V30 1138 C 98.6056 -2.81072 2.27333 0
M  V30 1139 O 98.3266 -2.46178 3.62392 0
M  V30 1140 C 99.8276 -3.75096 2.36259 0
M  V30 1141 H 97.0476 -0.470806 0.478103 0
M  V30 1142 H 99.5916 -0.907339 1.83269 0
M  V30 1143 H 97.7466 -3.39026 1.87457 0
M  V30 1144 H 98.1606 -3.28866 4.08592 0
M  V30 1145 H 99.6346 -4.62305 3.01626 0
M  V30 1146 H 100.112 -4.16892 1.38194 0
M  V30 1147 H 100.718 -3.23061 2.76608 0
M  V30 1148 N 99.0327 -1.24633 -0.964593 0
M  V30 1149 C 100.31 -0.995809 -1.68354 0
M  V30 1150 C 100.69 0.480964 -2.05548 0
M  V30 1151 O 100.038 1.45599 -1.76105 0
M  V30 1152 C 100.248 -1.92177 -2.91323 0
M  V30 1153 C 101.596 -2.19446 -3.63495 0
M  V30 1154 O 102.62 -1.89855 -3.01386 0
M  V30 1155 O 101.479 -2.69714 -4.75307 0
M  V30 1156 H 98.5727 -0.376854 -0.736146 0
M  V30 1157 H 101.119 -1.35745 -1.0184 0
M  V30 1158 H 99.8907 -2.91938 -2.60553 0
M  V30 1159 H 99.5137 -1.56349 -3.65569 0
M  V30 1160 N 100.511 1.16574 -1.06058 0
M  V30 1161 C 101.739 1.90952 -0.796552 0
M  V30 1162 C 102.154 1.77302 0.648808 0
M  V30 1163 O 101.511 1.11605 1.44397 0
M  V30 1164 C 101.562 3.41736 -1.17894 0
M  V30 1165 O 101.283 3.54975 -2.56758 0
M  V30 1166 C 102.784 4.33169 -0.942308 0
M  V30 1167 H 100.004 0.605594 -0.288959 0
M  V30 1168 H 102.548 1.47777 -1.41358 0
M  V30 1169 H 100.703 3.82623 -0.606491 0
M  V30 1170 H 101.117 4.4846 -2.72 0
M  V30 1171 H 102.591 5.37439 -1.25952 0
M  V30 1172 H 103.068 4.3903 0.122078 0
M  V30 1173 H 103.674 3.98007 -1.49902 0
M  V30 1174 N 101.989 0.842826 1.3317 0
M  V30 1175 C 102.952 0.284065 2.27433 0
M  V30 1176 C 103.952 -0.54948 1.5112 0
M  V30 1177 O 105.142 -0.362699 1.70382 0
M  V30 1178 C 102.274 -0.599384 3.35589 0
M  V30 1179 H 103.467 1.11589 2.78366 0
M  V30 1180 H 101.02 0.616221 1.4364 0
M  V30 1181 H 101.755 -1.45349 2.89904 0
M  V30 1182 H 101.54 -0.00291266 3.921 0
M  V30 1183 H 103.03 -0.983488 4.05854 0
M  V30 1184 N 103.467 -1.45747 0.599634 0
M  V30 1185 C 104.883 -1.57424 0.26264 0
M  V30 1186 C 105.083 -1.59222 -1.23493 0
M  V30 1187 O 104.139 -1.51825 -2.01756 0
M  V30 1188 C 105.452 -2.86061 0.926795 0
M  V30 1189 C 107 -2.99722 0.901967 0
M  V30 1190 C 107.475 -4.31119 1.54598 0
M  V30 1191 N 108.966 -4.37858 1.5111 0
M  V30 1192 C 109.701 -5.3818 1.97863 0
M  V30 1193 N 109.197 -6.45083 2.52666 0
M  V30 1194 N 110.99 -5.29487 1.88679 0
M  V30 1195 H 103.141 -1.42823 1.57211 0
M  V30 1196 H 105.404 -0.68235 0.658105 0
M  V30 1197 H 105.11 -2.90605 1.98095 0
M  V30 1198 H 104.984 -3.74563 0.445238 0
M  V30 1199 H 107.371 -2.9475 -0.143617 0
M  V30 1200 H 107.452 -2.12652 1.42171 0
M  V30 1201 H 107.096 -4.36849 2.59085 0
M  V30 1202 H 107.026 -5.16992 1.00132 0
M  V30 1203 H 109.517 -3.61209 1.11068 0
M  V30 1204 H 109.83 -7.17869 2.86155 0
M  V30 1205 H 108.175 -6.45856 2.56701 0
M  V30 1206 H 111.366 -4.44877 1.4561 0
M  V30 1207 H 111.539 -6.07524 2.25429 0
M  V30 1208 N 104.945 -0.338344 -1.53925 0
M  V30 1209 C 106.361 0.0137736 -1.59594 0
M  V30 1210 C 106.561 1.49186 -1.35447 0
M  V30 1211 O 105.617 2.24987 -1.14616 0
M  V30 1212 C 106.93 -0.41773 -2.97784 0
M  V30 1213 C 108.478 -0.369633 -3.1081 0
M  V30 1214 C 108.953 -0.776524 -4.51369 0
M  V30 1215 N 110.444 -0.730506 -4.57403 0
M  V30 1216 C 111.179 -1.01736 -5.64303 0
M  V30 1217 N 110.675 -1.3721 -6.79077 0
M  V30 1218 N 112.468 -0.941942 -5.54151 0
M  V30 1219 H 104.619 -1.3012 -1.67876 0
M  V30 1220 H 106.882 -0.530082 -0.78595 0
M  V30 1221 H 106.588 -1.44811 -3.20504 0
M  V30 1222 H 106.462 0.209729 -3.76616 0
M  V30 1223 H 108.849 0.651568 -2.87817 0
M  V30 1224 H 108.93 -1.03223 -2.34049 0
M  V30 1225 H 108.574 -1.79571 -4.75096 0
M  V30 1226 H 108.504 -0.0914649 -5.26521 0
M  V30 1227 H 110.995 -0.468783 -3.74981 0
M  V30 1228 H 111.308 -1.57597 -7.5656 0
M  V30 1229 H 109.653 -1.4105 -6.80536 0
M  V30 1230 H 112.844 -0.664184 -4.63364 0
M  V30 1231 H 113.017 -1.16884 -6.37371 0
M  V30 1232 N 106.423 1.57458 -0.0668435 0
M  V30 1233 C 107.353 2.15468 0.899764 0
M  V30 1234 C 108.334 1.08042 1.31381 0
M  V30 1235 O 109.519 1.36054 1.38574 0
M  V30 1236 C 106.649 2.71232 2.16911 0
M  V30 1237 C 105.603 3.83781 1.89463 0
M  V30 1238 C 104.929 4.26127 3.22986 0
M  V30 1239 C 106.229 5.08238 1.20381 0
M  V30 1240 H 107.923 2.96488 0.416529 0
M  V30 1241 H 105.469 1.4262 0.198908 0
M  V30 1242 H 107.422 3.10458 2.84945 0
M  V30 1243 H 106.146 1.87426 2.67468 0
M  V30 1244 H 104.805 3.45051 1.23836 0
M  V30 1245 H 104.453 3.39249 3.71374 0
M  V30 1246 H 104.153 5.01993 3.05413 0
M  V30 1247 H 105.677 4.67966 3.92225 0
M  V30 1248 H 107.091 5.44811 1.78475 0
M  V30 1249 H 105.488 5.89349 1.13083 0
M  V30 1250 H 106.558 4.84558 0.182153 0
M  V30 1251 N 107.901 -0.206675 1.56239 0
M  V30 1252 C 108.831 -1.25909 1.96645 0
M  V30 1253 C 109.812 -1.48097 0.836734 0
M  V30 1254 O 110.997 -1.6003 1.10019 0
M  V30 1255 C 108.127 -2.6058 2.29599 0
M  V30 1256 C 107.081 -2.53024 3.452 0
M  V30 1257 C 106.407 -3.91861 3.63798 0
M  V30 1258 C 107.707 -2.06524 4.79734 0
M  V30 1259 H 109.401 -0.923369 2.84806 0
M  V30 1260 H 106.947 -0.442735 1.37025 0
M  V30 1261 H 108.9 -3.34375 2.56459 0
M  V30 1262 H 107.624 -2.95869 1.38307 0
M  V30 1263 H 106.283 -1.81684 3.18412 0
M  V30 1264 H 105.931 -4.24483 2.69857 0
M  V30 1265 H 105.631 -3.87683 4.4156 0
M  V30 1266 H 107.155 -4.67296 3.93022 0
M  V30 1267 H 108.569 -2.70072 5.05702 0
M  V30 1268 H 106.966 -2.13374 5.60885 0
M  V30 1269 H 108.036 -1.01802 4.74093 0
M  V30 1270 N 109.379 -1.50304 -0.473955 0
M  V30 1271 C 110.795 -1.37667 -0.807466 0
M  V30 1272 C 110.995 -0.430555 -1.96846 0
M  V30 1273 O 110.051 0.127874 -2.52176 0
M  V30 1274 C 111.364 -2.78974 -1.12223 0
M  V30 1275 C 112.912 -2.87868 -1.22885 0
M  V30 1276 C 113.387 -4.30003 -1.57676 0
M  V30 1277 N 114.878 -4.3294 -1.64673 0
M  V30 1278 C 115.613 -5.3991 -1.93091 0
M  V30 1279 N 115.109 -6.57092 -2.1955 0
M  V30 1280 N 116.902 -5.27351 -1.94569 0
M  V30 1281 H 109.053 -2.10394 0.291212 0
M  V30 1282 H 111.316 -0.945575 0.0677609 0
M  V30 1283 H 111.022 -3.50031 -0.342229 0
M  V30 1284 H 110.896 -3.16038 -2.05913 0
M  V30 1285 H 113.283 -2.17032 -1.99953 0
M  V30 1286 H 113.364 -2.54352 -0.271814 0
M  V30 1287 H 113.008 -5.01375 -0.81149 0
M  V30 1288 H 112.938 -4.61004 -2.54525 0
M  V30 1289 H 115.429 -3.48441 -1.46277 0
M  V30 1290 H 115.742 -7.34425 -2.405 0
M  V30 1291 H 114.087 -6.60272 -2.16948 0
M  V30 1292 H 117.278 -4.34801 -1.73394 0
M  V30 1293 H 117.451 -6.10805 -2.16381 0
M  V30 1294 N 110.857 0.726932 -1.39834 0
M  V30 1295 C 111.789 1.85147 -1.35104 0
M  V30 1296 C 112.802 1.60736 -0.258392 0
M  V30 1297 O 113.991 1.70821 -0.517931 0
M  V30 1298 C 111.091 3.21332 -1.07697 0
M  V30 1299 C 110.264 3.73033 -2.28396 0
M  V30 1300 C 109.323 4.87802 -1.97322 0
M  V30 1301 O 108.349 5.01043 -2.70083 0
M  V30 1302 N 109.551 5.72768 -0.944273 0
M  V30 1303 H 112.316 1.89706 -2.32017 0
M  V30 1304 H 109.877 0.908006 -1.3404 0
M  V30 1305 H 111.869 3.95691 -0.849144 0
M  V30 1306 H 110.439 3.11992 -0.194909 0
M  V30 1307 H 109.659 2.89934 -2.6708 0
M  V30 1308 H 110.947 4.0431 -3.08887 0
M  V30 1309 H 110.345 5.64669 -0.341427 0
M  V30 1310 H 108.902 6.4716 -0.776346 0
M  V30 1311 N 112.336 1.25143 0.95797 0
M  V30 1312 C 113.299 1.05321 2.03569 0
M  V30 1313 C 114.299 0.007152 1.60798 0
M  V30 1314 O 115.489 0.24903 1.72411 0
M  V30 1315 C 112.621 0.598394 3.35607 0
M  V30 1316 H 113.814 2.00986 2.22586 0
M  V30 1317 H 111.367 1.07502 1.13459 0
M  V30 1318 H 112.102 -0.361014 3.22284 0
M  V30 1319 H 111.887 1.35351 3.67998 0
M  V30 1320 H 113.377 0.48104 4.1482 0
M  V30 1321 N 113.814 -1.1601 1.06675 0
M  V30 1322 C 115.062 -1.86264 0.784229 0
M  V30 1323 C 115.383 -1.82328 -0.691488 0
M  V30 1324 O 114.653 -1.25947 -1.50047 0
M  V30 1325 H 113.233 -0.689621 0.28711 0
M  V30 1326 H 115.895 -1.40664 1.34906 0
M  V30 1327 H 114.991 -2.91595 1.11259 0
M  V30 1328 N 115.292 -0.849877 -1.32721 0
M  V30 1329 C 116.538 -0.451591 -1.97708 0
M  V30 1330 C 116.871 0.989175 -1.6712 0
M  V30 1331 O 116.146 1.69334 -0.956891 0
M  V30 1332 C 116.429 -0.685598 -3.53513 0
M  V30 1333 C 116.282 -2.17444 -3.93749 0
M  V30 1334 C 117.601 -0.138874 -4.39881 0
M  V30 1335 H 114.72 -0.16555 -0.718166 0
M  V30 1336 H 117.362 -1.06742 -1.57182 0
M  V30 1337 H 115.512 -0.161416 -3.88165 0
M  V30 1338 H 117.184 -2.76433 -3.693 0
M  V30 1339 H 115.427 -2.65476 -3.43081 0
M  V30 1340 H 116.098 -2.28888 -5.02309 0
M  V30 1341 H 118.574 -0.587068 -4.11938 0
M  V30 1342 H 117.45 -0.332213 -5.47894 0
M  V30 1343 H 117.711 0.95806 -4.31594 0
M  V30 1344 N 116.77 1.45427 -0.607355 0
M  V30 1345 C 118.017 2.02241 -0.102455 0
M  V30 1346 C 118.345 1.4758 1.26691 0
M  V30 1347 O 117.6 0.640468 1.84923 0
M  V30 1348 C 117.899 3.57398 -0.0129263 0
M  V30 1349 C 117.565 4.3121 -1.31792 0
M  V30 1350 C 116.227 4.51092 -1.67539 0
M  V30 1351 C 118.579 4.73401 -2.18039 0
M  V30 1352 C 115.907 5.10422 -2.89285 0
M  V30 1353 C 118.259 5.34078 -3.39034 0
M  V30 1354 C 116.923 5.52184 -3.75033 0
M  V30 1355 H 116.193 0.740051 -0.037491 0
M  V30 1356 H 118.84 1.74494 -0.788926 0
M  V30 1357 H 117.145 3.84421 0.756806 0
M  V30 1358 H 118.842 3.99061 0.393881 0
M  V30 1359 H 115.432 4.16047 -1.02968 0
M  V30 1360 H 119.616 4.57774 -1.91721 0
M  V30 1361 H 114.872 5.22629 -3.17283 0
M  V30 1362 H 119.046 5.65724 -4.06115 0
M  V30 1363 H 116.673 5.97925 -4.69457 0
M  V30 1364 N 118.248 0.346503 1.53744 0
M  V30 1365 C 119.664 -0.00530975 1.59599 0
M  V30 1366 C 119.864 -1.48465 1.36236 0
M  V30 1367 O 118.92 -2.24376 1.15808 0
M  V30 1368 C 120.233 0.433516 2.97559 0
M  V30 1369 C 121.781 0.386111 3.10609 0
M  V30 1370 C 122.256 0.800451 4.50951 0
M  V30 1371 N 123.747 0.754753 4.5701 0
M  V30 1372 C 124.482 1.04727 5.63755 0
M  V30 1373 N 123.978 1.4081 6.7834 0
M  V30 1374 N 125.771 0.971316 5.53644 0
M  V30 1375 H 117.922 1.31009 1.67184 0
M  V30 1376 H 120.185 0.534242 0.783128 0
M  V30 1377 H 119.891 1.46509 3.19731 0
M  V30 1378 H 119.765 -0.189753 3.76722 0
M  V30 1379 H 122.152 -0.636295 2.88158 0
M  V30 1380 H 122.233 1.04462 2.33498 0
M  V30 1381 H 121.877 1.82088 4.74137 0
M  V30 1382 H 121.807 0.119386 5.26465 0
M  V30 1383 H 124.298 0.488662 3.74727 0
M  V30 1384 H 124.611 1.61607 7.55714 0
M  V30 1385 H 122.956 1.44657 6.79779 0
M  V30 1386 H 126.147 0.688748 4.63005 0
M  V30 1387 H 126.32 1.20263 6.36742 0
M  V30 1388 N 119.726 -1.57421 0.075193 0
M  V30 1389 C 120.658 -2.09904 -0.920483 0
M  V30 1390 C 121.671 -1.03191 -1.25918 0
M  V30 1391 O 122.86 -1.30695 -1.21577 0
M  V30 1392 C 119.96 -2.54726 -2.23534 0
M  V30 1393 C 119.133 -3.8505 -2.07498 0
M  V30 1394 C 118.192 -4.15929 -3.22319 0
M  V30 1395 O 117.218 -4.85474 -2.9716 0
M  V30 1396 N 118.42 -3.69745 -4.47514 0
M  V30 1397 H 121.185 -2.95954 -0.472359 0
M  V30 1398 H 118.746 -1.61523 -0.110444 0
M  V30 1399 H 120.738 -2.72443 -2.9926 0
M  V30 1400 H 119.308 -1.73795 -2.59835 0
M  V30 1401 H 118.528 -3.76679 -1.16219 0
M  V30 1402 H 119.816 -4.70348 -1.94038 0
M  V30 1403 H 119.214 -3.13569 -4.7084 0
M  V30 1404 H 117.771 -3.92655 -5.20255 0
M  V30 1405 N 121.204 0.198386 -1.56346 0
M  V30 1406 C 122.114 1.2664 -1.97483 0
M  V30 1407 C 123.13 1.49989 -0.882002 0
M  V30 1408 O 124.306 1.62668 -1.18748 0
M  V30 1409 C 121.371 2.59141 -2.30319 0
M  V30 1410 C 120.432 2.43892 -3.53292 0
M  V30 1411 C 119.665 3.70074 -3.84553 0
M  V30 1412 O 119.888 4.74101 -3.1715 0
M  V30 1413 O 118.822 3.658 -4.7799 0
M  V30 1414 H 122.648 0.947304 -2.88548 0
M  V30 1415 H 120.233 0.403123 -1.43859 0
M  V30 1416 H 122.115 3.37352 -2.5253 0
M  V30 1417 H 120.79 2.90684 -1.42423 0
M  V30 1418 H 119.697 1.63803 -3.36332 0
M  V30 1419 H 121.03 2.17282 -4.41644 0
M  V30 1420 N 122.682 1.50554 0.465978 0
M  V30 1421 C 123.645 1.69233 1.54574 0
M  V30 1422 C 124.645 0.562901 1.50626 0
M  V30 1423 O 125.835 0.830016 1.53155 0
M  V30 1424 C 122.967 1.7223 2.94193 0
M  V30 1425 H 124.16 2.65571 1.39327 0
M  V30 1426 H 121.713 1.40111 0.692711 0
M  V30 1427 H 122.448 0.77603 3.14878 0
M  V30 1428 H 122.233 2.54285 2.98466 0
M  V30 1429 H 123.723 1.88618 3.72576 0
M  V30 1430 N 124.16 -0.719506 1.40217 0
M  V30 1431 C 125.576 -1.02707 1.22161 0
M  V30 1432 C 125.776 -2.0128 0.0940557 0
M  V30 1433 O 124.832 -2.46452 -0.549318 0
M  V30 1434 C 126.145 -1.57454 2.56181 0
M  V30 1435 C 127.693 -1.69458 2.63159 0
M  V30 1436 C 128.168 -2.27611 3.97438 0
M  V30 1437 N 129.659 -2.35002 3.99159 0
M  V30 1438 C 130.394 -2.80972 4.99842 0
M  V30 1439 N 129.89 -3.26723 6.10921 0
M  V30 1440 N 131.683 -2.80321 4.87213 0
M  V30 1441 H 123.834 -0.0660492 2.12297 0
M  V30 1442 H 126.097 -0.0919077 0.943534 0
M  V30 1443 H 125.803 -0.924873 3.39321 0
M  V30 1444 H 125.677 -2.56036 2.76993 0
M  V30 1445 H 128.064 -2.33543 1.80393 0
M  V30 1446 H 128.145 -0.694867 2.46181 0
M  V30 1447 H 127.789 -1.6415 4.80643 0
M  V30 1448 H 127.719 -3.2829 4.11744 0
M  V30 1449 H 130.21 -2.02685 3.18947 0
M  V30 1450 H 130.523 -3.60355 6.8364 0
M  V30 1451 H 128.868 -3.24692 6.14492 0
M  V30 1452 H 132.059 -2.43912 3.9953 0
M  V30 1453 H 132.232 -3.15831 5.65822 0
M  V30 1454 N 125.638 -1.25649 -0.95132 0
M  V30 1455 C 126.548 -1.08073 -2.08224 0
M  V30 1456 C 127.564 -0.0169666 -1.73992 0
M  V30 1457 O 128.74 -0.218593 -2.0021 0
M  V30 1458 C 125.805 -0.704922 -3.39458 0
M  V30 1459 C 124.866 -1.84699 -3.87537 0
M  V30 1460 C 124.099 -1.48902 -5.12508 0
M  V30 1461 O 124.322 -0.386156 -5.69091 0
M  V30 1462 O 123.256 -2.32033 -5.55378 0
M  V30 1463 H 127.082 -2.02924 -2.25954 0
M  V30 1464 H 124.667 -1.04618 -1.06656 0
M  V30 1465 H 126.549 -0.507609 -4.18332 0
M  V30 1466 H 125.224 0.214291 -3.2299 0
M  V30 1467 H 124.131 -2.09919 -3.09653 0
M  V30 1468 H 125.464 -2.74557 -4.08509 0
M  V30 1469 N 127.117 1.15442 -1.07289 0
M  V30 1470 C 128.365 1.85845 -0.794096 0
M  V30 1471 C 128.686 1.82692 0.681809 0
M  V30 1472 O 127.956 1.26741 1.49377 0
M  V30 1473 H 126.536 0.688089 -0.290763 0
M  V30 1474 H 129.198 1.39947 -1.3565 0
M  V30 1475 H 128.294 2.91001 -1.12804 0
M  V30 1476 N 128.595 0.856903 1.32268 0
M  V30 1477 C 129.558 0.308171 2.27119 0
M  V30 1478 C 130.558 -0.533421 1.51695 0
M  V30 1479 O 131.748 -0.344607 1.70757 0
M  V30 1480 C 128.88 -0.563757 3.36206 0
M  V30 1481 H 130.073 1.14535 2.77167 0
M  V30 1482 H 127.626 0.631421 1.42978 0
M  V30 1483 H 128.361 -1.42266 2.91429 0
M  V30 1484 H 128.146 0.0386749 3.92081 0
M  V30 1485 H 129.636 -0.940386 4.06874 0
M  V30 1486 O 130.112 -1.4275 0.755297 0
M  V30 1487 H 130.803 -1.91143 0.313685 0
M  V30 END ATOM
M  V30 BEGIN BOND
M  V30 END BOND
M  V30 END CTAB
M  END
$$$$
