drugbank_target|Q5SJ28 Deoxyribose-phosphate aldolase (DB04087)
 OpenBabel12092120563D

  0  0  0     0  0            999 V3000
M  V30 BEGIN CTAB
M  V30 COUNTS 3311 3339 0 0 0
M  V30 BEGIN ATOM
M  V30 1 H -0.908 1.98254 -0.117106 0
M  V30 2 N 0 1.576 0 0
M  V30 3 C 0.933 2.03868 1.02534 0
M  V30 4 C 1.911 0.928543 1.3348 0
M  V30 5 O 3.095 1.19667 1.45644 0
M  V30 6 C 0.222 2.43627 2.35294 0
M  V30 7 C -0.732 3.65373 2.2001 0
M  V30 8 S 0.101 5.13292 1.52614 0
M  V30 9 C 1.257 5.56322 2.86805 0
M  V30 10 H 1.49 2.90518 0.631377 0
M  V30 11 H -0.977 1.52953 0.210867 0
M  V30 12 H 0.981 2.67203 3.11629 0
M  V30 13 H -0.358 1.57376 2.7183 0
M  V30 14 H -1.165 3.90944 3.18086 0
M  V30 15 H -1.563 3.418 1.51819 0
M  V30 16 H 0.729 5.58782 3.83104 0
M  V30 17 H 1.672 6.56266 2.65933 0
M  V30 18 H 2.08 4.83886 2.90714 0
M  V30 19 N 1.4781 -0.272755 1.55222 0
M  V30 20 C 2.7551 -1.02562 1.66555 0
M  V30 21 C 3.1351 -2.04282 0.532189 0
M  V30 22 O 2.4831 -2.23662 -0.467717 0
M  V30 23 C 2.6931 -1.6822 3.05782 0
M  V30 24 C 4.0411 -2.19373 3.63539 0
M  V30 25 O 5.0651 -1.78206 3.08417 0
M  V30 26 O 3.9241 -2.94883 4.60115 0
M  V30 27 H 1.0181 -0.475755 0.676451 0
M  V30 28 H 3.5641 -0.268593 1.67561 0
M  V30 29 H 2.3361 -0.945112 3.79715 0
M  V30 30 H 1.9591 -2.50609 3.08676 0
M  V30 31 N 2.9562 -1.48159 -0.537278 0
M  V30 32 C 3.8862 -1.65029 -1.6519 0
M  V30 33 C 4.8672 -0.499281 -1.62607 0
M  V30 34 O 6.0522 -0.730972 -1.79918 0
M  V30 35 C 3.1822 -1.68303 -3.03795 0
M  V30 36 C 2.1362 -2.8283 -3.21234 0
M  V30 37 C 1.4622 -2.71189 -4.60826 0
M  V30 38 C 2.7622 -4.24211 -3.04701 0
M  V30 39 H 4.4562 -2.58341 -1.51328 0
M  V30 40 H 2.0022 -1.24325 -0.726585 0
M  V30 41 H 3.9552 -1.78693 -3.81637 0
M  V30 42 H 2.6792 -0.715635 -3.18663 0
M  V30 43 H 1.3382 -2.71983 -2.45807 0
M  V30 44 H 0.9862 -1.72435 -4.7252 0
M  V30 45 H 0.6862 -3.48035 -4.7344 0
M  V30 46 H 2.2102 -2.83537 -5.40777 0
M  V30 47 H 3.6242 -4.3593 -3.72341 0
M  V30 48 H 2.0212 -5.01998 -3.28813 0
M  V30 49 H 3.0912 -4.41184 -2.01209 0
M  V30 50 N 4.4343 0.785586 -1.36625 0
M  V30 51 C 5.3973 1.87999 -1.31107 0
M  V30 52 C 6.3973 1.59316 -0.217959 0
M  V30 53 O 7.5873 1.67656 -0.472977 0
M  V30 54 C 4.7193 3.24861 -1.03334 0
M  V30 55 H 5.9123 1.94307 -2.2844 0
M  V30 56 H 3.4653 0.983813 -1.21453 0
M  V30 57 H 4.2003 3.24235 -0.0647432 0
M  V30 58 H 3.9853 3.4707 -1.82441 0
M  V30 59 H 5.4753 4.04929 -1.02088 0
M  V30 60 N 5.9124 1.20967 1.01018 0
M  V30 61 C 6.8754 0.965918 2.07853 0
M  V30 62 C 7.8754 -0.0610545 1.60684 0
M  V30 63 O 9.0654 0.175681 1.73312 0
M  V30 64 C 6.1974 0.455513 3.37843 0
M  V30 65 H 7.3904 1.91365 2.3091 0
M  V30 66 H 4.9434 1.02594 1.17916 0
M  V30 67 H 5.6784 -0.497381 3.20463 0
M  V30 68 H 5.4634 1.19622 3.73407 0
M  V30 69 H 6.9534 0.304667 4.16487 0
M  V30 70 N 7.3905 -1.2043 1.01659 0
M  V30 71 C 8.3405 -2.21076 0.557623 0
M  V30 72 C 9.3245 -1.56176 -0.387029 0
M  V30 73 O 10.5165 -1.7575 -0.209996 0
M  V30 74 C 7.6455 -3.43146 -0.102707 0
M  V30 75 C 6.7315 -4.15213 0.863652 0
M  V30 76 N 7.1225 -4.63662 2.02117 0
M  V30 77 C 5.4205 -4.40716 0.684472 0
M  V30 78 C 6.1215 -5.18868 2.62966 0
M  V30 79 N 5.0975 -5.0893 1.91027 0
M  V30 80 H 8.8995 -2.56201 1.44008 0
M  V30 81 H 6.4135 -1.36366 0.881931 0
M  V30 82 H 8.4105 -4.14475 -0.449054 0
M  V30 83 H 7.0705 -3.09526 -0.981003 0
M  V30 84 H 8.0815 -4.58877 2.40109 0
M  V30 85 H 4.7585 -4.17245 -0.14577 0
M  V30 86 H 6.1485 -5.6673 3.60924 0
M  V30 87 N 8.8686 -0.792821 -1.36206 0
M  V30 88 C 10.1176 -0.363353 -1.984 0
M  V30 89 C 10.4306 1.07172 -1.63626 0
M  V30 90 O 11.6366 1.60362 -2.19081 0
M  V30 91 C 10.0926 -0.59872 -3.54885 0
M  V30 92 C 9.7006 -2.04543 -3.9858 0
M  V30 93 C 11.4446 -0.233926 -4.23855 0
M  V30 94 C 9.3516 -2.22727 -5.47856 0
M  V30 95 H 8.2816 -0.13212 -0.742334 0
M  V30 96 H 10.9326 -0.974935 -1.55458 0
M  V30 97 H 9.3146 0.0826222 -3.95914 0
M  V30 98 H 10.4886 -2.76345 -3.68741 0
M  V30 99 H 8.8036 -2.36879 -3.42458 0
M  V30 100 H 11.4006 -0.348027 -5.33566 0
M  V30 101 H 11.7436 0.818351 -4.08177 0
M  V30 102 H 12.2766 -0.868639 -3.882 0
M  V30 103 H 9.0156 -3.2635 -5.68486 0
M  V30 104 H 8.5356 -1.55434 -5.7931 0
M  V30 105 H 10.2146 -2.03607 -6.14128 0
M  V30 106 N 10.3467 1.47872 -0.545128 0
M  V30 107 C 11.6237 1.9554 0.0485222 0
M  V30 108 C 12.0037 1.4876 1.49779 0
M  V30 109 O 11.3517 0.720925 2.16829 0
M  V30 110 C 11.5617 3.48898 -0.084417 0
M  V30 111 C 12.9097 4.24547 0.0671239 0
M  V30 112 O 13.9337 3.56198 -0.0113649 0
M  V30 113 O 12.7927 5.45999 0.233882 0
M  V30 114 H 9.8867 0.823957 0.0708773 0
M  V30 115 H 12.4327 1.58327 -0.610798 0
M  V30 116 H 11.2047 3.75714 -1.09337 0
M  V30 117 H 10.8277 3.92845 0.613066 0
M  V30 118 N 11.8248 0.280983 1.55075 0
M  V30 119 C 12.7748 -0.618585 2.19448 0
M  V30 120 C 13.7588 -1.11401 1.16098 0
M  V30 121 O 14.9508 -1.0581 1.41891 0
M  V30 122 C 12.0798 -1.79951 2.92357 0
M  V30 123 C 11.1658 -1.321 4.03002 0
M  V30 124 N 11.5568 -0.559044 5.02701 0
M  V30 125 C 9.8548 -1.60346 4.16179 0
M  V30 126 C 10.5558 -0.306722 5.80891 0
M  V30 127 N 9.5318 -0.880825 5.36416 0
M  V30 128 H 13.3338 -0.0286638 2.93886 0
M  V30 129 H 10.8478 0.0848104 1.62178 0
M  V30 130 H 12.8448 -2.45531 3.36927 0
M  V30 131 H 11.5048 -2.39333 2.19431 0
M  V30 132 H 12.5158 -0.205827 5.17491 0
M  V30 133 H 9.1928 -2.20621 3.54447 0
M  V30 134 H 10.5828 0.30391 6.71212 0
M  V30 135 N 13.3029 -1.57598 0.00835791 0
M  V30 136 C 14.5309 -1.95214 -0.68549 0
M  V30 137 C 14.9459 -0.883706 -1.66841 0
M  V30 138 O 14.3029 0.136565 -1.81988 0
M  V30 139 C 14.3539 -3.32865 -1.41007 0
M  V30 140 O 14.0749 -4.35609 -0.466552 0
M  V30 141 C 15.5759 -3.84991 -2.19765 0
M  V30 142 H 12.7959 -0.643422 -0.190392 0
M  V30 143 H 15.3399 -2.04406 0.0619607 0
M  V30 144 H 13.4949 -3.24956 -2.10908 0
M  V30 145 H 13.9089 -5.15288 -0.978699 0
M  V30 146 H 15.3829 -4.8371 -2.65948 0
M  V30 147 H 15.8599 -3.18137 -3.02796 0
M  V30 148 H 16.4659 -3.96103 -1.54864 0
M  V30 149 N 14.781 0.264519 -1.55364 0
M  V30 150 C 15.711 1.33121 -1.91836 0
M  V30 151 C 16.692 1.51101 -0.781192 0
M  V30 152 O 17.877 1.64003 -1.04003 0
M  V30 153 C 15.007 2.68921 -2.19769 0
M  V30 154 C 13.961 2.65661 -3.35571 0
M  V30 155 C 13.287 4.05093 -3.49004 0
M  V30 156 C 14.587 2.24187 -4.71739 0
M  V30 157 H 16.281 1.02844 -2.81182 0
M  V30 158 H 13.827 0.493286 -1.35287 0
M  V30 159 H 15.78 3.43663 -2.43872 0
M  V30 160 H 14.504 3.00799 -1.27231 0
M  V30 161 H 13.163 1.93377 -3.1145 0
M  V30 162 H 12.811 4.34206 -2.53917 0
M  V30 163 H 12.511 4.03804 -4.26868 0
M  V30 164 H 14.035 4.81561 -3.75408 0
M  V30 165 H 15.449 2.88654 -4.9533 0
M  V30 166 H 13.846 2.34044 -5.52579 0
M  V30 167 H 14.916 1.19327 -4.69988 0
M  V30 168 N 16.2591 1.48442 0.529413 0
M  V30 169 C 17.1891 1.65902 1.64313 0
M  V30 170 C 18.1701 0.507897 1.6234 0
M  V30 171 O 19.3551 0.740503 1.79528 0
M  V30 172 C 16.4851 1.69911 3.02898 0
M  V30 173 C 15.4391 2.8453 3.19729 0
M  V30 174 C 14.7651 2.73629 4.59381 0
M  V30 175 C 16.0651 4.25821 3.02447 0
M  V30 176 H 17.7591 2.5914 1.49955 0
M  V30 177 H 15.3051 1.24709 0.719982 0
M  V30 178 H 17.2581 1.80715 3.80684 0
M  V30 179 H 15.9821 0.732524 3.18279 0
M  V30 180 H 14.6411 2.73283 2.44361 0
M  V30 181 H 14.2891 1.74938 4.71599 0
M  V30 182 H 13.9891 3.50541 4.71588 0
M  V30 183 H 15.5131 2.86401 5.39265 0
M  V30 184 H 16.9271 4.37898 3.70024 0
M  V30 185 H 15.3241 5.03735 3.26146 0
M  V30 186 H 16.3941 4.42244 1.98867 0
M  V30 187 N 17.7372 -0.778329 1.37039 0
M  V30 188 C 18.6842 -1.89139 1.32269 0
M  V30 189 C 19.6542 -1.65017 0.189387 0
M  V30 190 O 20.8392 -1.87024 0.377693 0
M  V30 191 C 17.9792 -3.26112 1.12894 0
M  V30 192 C 17.0922 -3.62233 2.35396 0
M  V30 193 C 16.2272 -4.8838 2.08946 0
M  V30 194 C 15.2662 -5.17212 3.2735 0
M  V30 195 N 14.4032 -6.34546 3.00492 0
M  V30 196 H 19.2432 -1.92552 2.27437 0
M  V30 197 H 16.7802 -0.941473 1.13025 0
M  V30 198 H 18.7382 -4.05116 0.996835 0
M  V30 199 H 17.3682 -3.22091 0.213758 0
M  V30 200 H 16.4202 -2.78265 2.5937 0
M  V30 201 H 17.7322 -3.79481 3.23721 0
M  V30 202 H 16.8862 -5.75274 1.92729 0
M  V30 203 H 15.6252 -4.73222 1.17949 0
M  V30 204 H 14.6302 -4.28796 3.44113 0
M  V30 205 H 15.8552 -5.34283 4.19188 0
M  V30 206 H 13.8012 -6.20759 2.12118 0
M  V30 207 H 13.7182 -6.52179 3.82358 0
M  V30 208 H 14.9862 -7.24394 2.87879 0
M  V30 209 N 19.2153 -1.21501 -1.00376 0
M  V30 210 C 20.6263 -1.03146 -1.55621 0
M  V30 211 C 20.9773 0.408375 -1.91903 0
M  V30 212 O 20.1023 1.29177 -1.73616 0
M  V30 213 C 20.6973 -1.86612 -2.82775 0
M  V30 214 C 19.2563 -1.72586 -3.34501 0
M  V30 215 C 18.4033 -1.83747 -2.07683 0
M  V30 216 H 21.3543 -1.35505 -0.826081 0
M  V30 217 H 21.3753 -1.3771 -3.54706 0
M  V30 218 H 20.8873 -2.91399 -2.56336 0
M  V30 219 H 18.9883 -0.704877 -3.65872 0
M  V30 220 H 19.1013 -2.54623 -4.05837 0
M  V30 221 H 17.4653 -1.27069 -2.20739 0
M  V30 222 H 18.2483 -2.90044 -1.83655 0
M  V30 223 N 20.6934 1.19889 -1.02296 0
M  V30 224 C 21.9214 1.9339 -0.735399 0
M  V30 225 C 22.3364 1.75148 0.704887 0
M  V30 226 O 21.6934 1.06954 1.47875 0
M  V30 227 C 21.7444 3.45313 -1.06962 0
M  V30 228 O 21.4654 3.62964 -2.45334 0
M  V30 229 C 22.9664 4.35948 -0.804021 0
M  V30 230 H 20.1864 0.61448 -0.269546 0
M  V30 231 H 22.7304 1.522 -1.36585 0
M  V30 232 H 20.8854 3.84359 -0.484455 0
M  V30 233 H 21.2994 4.56886 -2.57595 0
M  V30 234 H 22.7734 5.41174 -1.0879 0
M  V30 235 H 23.2504 4.3842 0.261691 0
M  V30 236 H 23.8564 4.02574 -1.37164 0
M  V30 237 N 22.1715 0.800033 1.35784 0
M  V30 238 C 23.1345 0.211565 2.28221 0
M  V30 239 C 24.1345 -0.59728 1.49296 0
M  V30 240 O 25.3245 -0.416721 1.69142 0
M  V30 241 C 22.4565 -0.705846 3.33513 0
M  V30 242 H 23.6495 1.02677 2.81776 0
M  V30 243 H 21.2025 0.570211 1.45528 0
M  V30 244 H 21.9375 -1.54498 2.85133 0
M  V30 245 H 21.7225 -0.127655 3.91892 0
M  V30 246 H 23.2125 -1.11211 4.02519 0
M  V30 247 N 23.6496 -1.47581 0.552962 0
M  V30 248 C 24.8776 -2.06875 0.0320556 0
M  V30 249 C 25.2926 -1.40625 -1.25976 0
M  V30 250 O 24.6496 -0.501349 -1.75479 0
M  V30 251 C 24.7006 -3.61092 -0.17167 0
M  V30 252 O 24.4216 -4.24858 1.06899 0
M  V30 253 C 25.9226 -4.37242 -0.730344 0
M  V30 254 H 23.1426 -0.669561 0.043915 0
M  V30 255 H 25.6866 -1.89646 0.765163 0
M  V30 256 H 23.8416 -3.7785 -0.854894 0
M  V30 257 H 24.2556 -5.17334 0.864059 0
M  V30 258 H 25.7296 -5.45842 -0.822203 0
M  V30 259 H 26.2066 -4.03235 -1.74064 0
M  V30 260 H 26.8126 -4.25219 -0.0829543 0
M  V30 261 N 25.1277 -0.289203 -1.54924 0
M  V30 262 C 26.0577 0.58549 -2.2604 0
M  V30 263 C 27.0387 1.14753 -1.25562 0
M  V30 264 O 28.2237 1.17906 -1.54311 0
M  V30 265 C 25.3537 1.76305 -2.99222 0
M  V30 266 C 24.3077 1.33191 -4.06748 0
M  V30 267 C 23.6337 2.5937 -4.6758 0
M  V30 268 C 24.9337 0.471775 -5.20165 0
M  V30 269 H 26.6277 -0.00763532 -2.99399 0
M  V30 270 H 24.1737 -0.00511229 -1.43999 0
M  V30 271 H 26.1267 2.38097 -3.47689 0
M  V30 272 H 24.8507 2.38223 -2.23422 0
M  V30 273 H 23.5097 0.737121 -3.59113 0
M  V30 274 H 23.1577 3.19576 -3.88433 0
M  V30 275 H 22.8577 2.31228 -5.40192 0
M  V30 276 H 24.3817 3.21985 -5.18804 0
M  V30 277 H 25.7957 0.995056 -5.64599 0
M  V30 278 H 24.1927 0.284639 -5.99425 0
M  V30 279 H 25.2627 -0.506041 -4.82252 0
M  V30 280 N 26.6058 1.57591 -0.0167156 0
M  V30 281 C 27.5158 2.1291 0.98521 0
M  V30 282 C 28.5318 1.07834 1.36557 0
M  V30 283 O 29.7078 1.39826 1.44951 0
M  V30 284 C 26.7728 2.63512 2.25305 0
M  V30 285 C 25.8338 3.83256 1.93426 0
M  V30 286 C 25.0668 4.31435 3.14165 0
M  V30 287 O 25.2898 3.78851 4.26413 0
M  V30 288 O 24.2238 5.23416 2.97186 0
M  V30 289 H 28.0498 2.98772 0.544888 0
M  V30 290 H 25.6348 1.48012 0.203141 0
M  V30 291 H 27.5168 2.96183 2.99756 0
M  V30 292 H 26.1918 1.8074 2.68542 0
M  V30 293 H 25.0988 3.55531 1.16398 0
M  V30 294 H 26.4318 4.67153 1.55013 0
M  V30 295 N 28.0839 -0.256276 1.55502 0
M  V30 296 C 28.9939 -1.33882 1.92647 0
M  V30 297 C 30.0099 -1.53159 0.825727 0
M  V30 298 O 31.1859 -1.66963 1.12629 0
M  V30 299 C 28.2509 -2.6751 2.20543 0
M  V30 300 C 27.3119 -2.56836 3.43997 0
M  V30 301 C 26.5449 -3.84092 3.70553 0
M  V30 302 O 26.7679 -4.85545 2.99336 0
M  V30 303 O 25.7019 -3.83288 4.64084 0
M  V30 304 H 29.5279 -1.05374 2.84833 0
M  V30 305 H 27.1129 -0.456237 1.42263 0
M  V30 306 H 28.9949 -3.46492 2.39835 0
M  V30 307 H 27.6699 -2.9577 1.31536 0
M  V30 308 H 26.5769 -1.76172 3.30021 0
M  V30 309 H 27.9099 -2.33523 4.33275 0
M  V30 310 N 29.562 -1.4872 -0.521534 0
M  V30 311 C 30.808 -1.574 -1.27879 0
M  V30 312 C 31.141 -0.250817 -1.92573 0
M  V30 313 O 30.416 0.743934 -1.79711 0
M  V30 314 C 30.699 -2.71843 -2.36164 0
M  V30 315 C 30.552 -4.13893 -1.76105 0
M  V30 316 C 31.871 -2.82008 -3.37875 0
M  V30 317 H 28.99 -0.572941 -0.463581 0
M  V30 318 H 31.632 -1.80927 -0.580119 0
M  V30 319 H 29.782 -2.51914 -2.95756 0
M  V30 320 H 31.454 -4.45284 -1.20499 0
M  V30 321 H 29.697 -4.20498 -1.06601 0
M  V30 322 H 30.368 -4.89804 -2.5455 0
M  V30 323 H 32.844 -3.00086 -2.88249 0
M  V30 324 H 31.72 -3.63796 -4.11028 0
M  V30 325 H 31.981 -1.90511 -3.98946 0
M  V30 326 N 31.0401 0.771051 -1.3745 0
M  V30 327 C 32.0031 1.86598 -1.33093 0
M  V30 328 C 33.0031 1.59076 -0.234845 0
M  V30 329 O 34.1931 1.67145 -0.490732 0
M  V30 330 C 31.3251 3.23747 -1.06773 0
M  V30 331 H 32.5181 1.91873 -2.30488 0
M  V30 332 H 30.0711 0.970876 -1.2249 0
M  V30 333 H 30.8061 3.24148 -0.099129 0
M  V30 334 H 30.5911 3.45115 -1.86112 0
M  V30 335 H 32.0811 4.03824 -1.06377 0
M  V30 336 N 32.5182 1.22032 0.997298 0
M  V30 337 C 33.4652 0.986467 2.08656 0
M  V30 338 C 34.4352 -0.0902671 1.65855 0
M  V30 339 O 35.6202 0.0584294 1.90711 0
M  V30 340 C 32.7602 0.565569 3.40434 0
M  V30 341 C 31.8732 1.71259 3.96604 0
M  V30 342 C 31.0082 1.24011 5.16522 0
M  V30 343 C 30.0472 2.35896 5.64818 0
M  V30 344 N 29.1842 1.89726 6.7598 0
M  V30 345 H 34.0242 1.91892 2.27994 0
M  V30 346 H 31.5612 0.956199 1.11782 0
M  V30 347 H 33.5192 0.302738 4.161 0
M  V30 348 H 32.1492 -0.329879 3.2111 0
M  V30 349 H 31.2012 2.08986 3.17851 0
M  V30 350 H 32.5132 2.55436 4.28432 0
M  V30 351 H 31.6672 0.934395 5.99461 0
M  V30 352 H 30.4062 0.368487 4.86306 0
M  V30 353 H 29.4112 2.67261 4.8047 0
M  V30 354 H 30.6362 3.23567 5.97061 0
M  V30 355 H 28.5822 1.0492 6.47555 0
M  V30 356 H 28.4992 2.67471 7.07103 0
M  V30 357 H 29.7672 1.62211 7.62435 0
M  V30 358 N 33.9963 -1.19345 1.0293 0
M  V30 359 C 34.9593 -2.20793 0.615069 0
M  V30 360 C 35.9593 -1.57553 -0.321533 0
M  V30 361 O 37.1493 -1.73862 -0.108483 0
M  V30 362 C 34.2813 -3.40754 -0.0999222 0
M  V30 363 H 35.4743 -2.58955 1.51269 0
M  V30 364 H 33.0273 -1.3303 0.820534 0
M  V30 365 H 33.7623 -3.0811 -1.01187 0
M  V30 366 H 33.5473 -3.87889 0.57309 0
M  V30 367 H 35.0373 -4.15898 -0.376645 0
M  V30 368 N 35.4744 -0.807222 -1.35358 0
M  V30 369 C 36.4374 -0.223665 -2.28106 0
M  V30 370 C 37.4374 0.589354 -1.4961 0
M  V30 371 O 38.6274 0.407745 -1.69361 0
M  V30 372 C 35.7594 0.688149 -3.33882 0
M  V30 373 H 36.9524 -1.04169 -2.81227 0
M  V30 374 H 34.5054 -0.577921 -1.45223 0
M  V30 375 H 35.2404 1.52984 -2.85948 0
M  V30 376 H 35.0254 0.10687 -3.91954 0
M  V30 377 H 36.5154 1.09075 -4.03104 0
M  V30 378 N 36.9525 1.47285 -0.560781 0
M  V30 379 C 37.8625 2.33846 0.187954 0
M  V30 380 C 38.8785 1.48412 0.908293 0
M  V30 381 O 40.0545 1.81332 0.876388 0
M  V30 382 C 37.1195 3.25178 1.2025 0
M  V30 383 C 36.1805 4.26504 0.489208 0
M  V30 384 C 35.4135 5.13472 1.45542 0
M  V30 385 O 35.6365 5.02959 2.6905 0
M  V30 386 O 34.5705 5.93902 0.977963 0
M  V30 387 H 38.3965 2.99177 -0.522177 0
M  V30 388 H 35.9815 1.45903 -0.321364 0
M  V30 389 H 37.8635 3.81584 1.78805 0
M  V30 390 H 36.5385 2.6247 1.89449 0
M  V30 391 H 35.4455 3.73847 -0.137627 0
M  V30 392 H 36.7785 4.91935 -0.161399 0
M  V30 393 N 38.4306 0.297415 1.54768 0
M  V30 394 C 39.3406 -0.58983 2.27064 0
M  V30 395 C 40.3566 -1.15144 1.30453 0
M  V30 396 O 41.5326 -1.17699 1.63428 0
M  V30 397 C 38.5976 -1.74714 2.9946 0
M  V30 398 C 37.6586 -1.21997 4.11601 0
M  V30 399 C 36.8916 -2.32212 4.80535 0
M  V30 400 O 37.1146 -3.52036 4.48806 0
M  V30 401 O 36.0486 -1.99106 5.68014 0
M  V30 402 H 39.8746 -0.00348199 3.037 0
M  V30 403 H 37.4596 0.0640035 1.49263 0
M  V30 404 H 39.3416 -2.42147 3.44881 0
M  V30 405 H 38.0166 -2.32016 2.25722 0
M  V30 406 H 36.9236 -0.511458 3.70587 0
M  V30 407 H 38.2566 -0.692419 4.87305 0
M  V30 408 N 39.9087 -1.5758 0.0250728 0
M  V30 409 C 40.8717 -2.08896 -0.943139 0
M  V30 410 C 41.8717 -1.00321 -1.25668 0
M  V30 411 O 43.0617 -1.26495 -1.19769 0
M  V30 412 C 40.1937 -2.55143 -2.26086 0
M  V30 413 H 41.3867 -2.95723 -0.498775 0
M  V30 414 H 38.9397 -1.54703 -0.222888 0
M  V30 415 H 39.6747 -1.71633 -2.75159 0
M  V30 416 H 39.4597 -3.34461 -2.04641 0
M  V30 417 H 40.9497 -2.95083 -2.95492 0
M  V30 418 N 41.3868 0.248026 -1.55636 0
M  V30 419 C 42.3168 1.31079 -1.93237 0
M  V30 420 C 43.2978 1.50264 -0.797174 0
M  V30 421 O 44.4828 1.62891 -1.05737 0
M  V30 422 C 41.6128 2.66575 -2.22609 0
M  V30 423 C 40.5668 2.62087 -3.3837 0
M  V30 424 C 39.8928 4.01369 -3.53281 0
M  V30 425 C 41.1928 2.19171 -4.7409 0
M  V30 426 H 42.8868 0.998556 -2.82257 0
M  V30 427 H 40.4328 0.47891 -1.35803 0
M  V30 428 H 42.3858 3.41057 -2.47503 0
M  V30 429 H 41.1098 2.99432 -1.30414 0
M  V30 430 H 39.7688 1.90063 -3.13483 0
M  V30 431 H 39.4168 4.31489 -2.58508 0
M  V30 432 H 39.1168 3.99254 -4.31127 0
M  V30 433 H 40.6408 4.77552 -3.80495 0
M  V30 434 H 42.0548 2.83384 -4.98363 0
M  V30 435 H 40.4518 2.2817 -5.5503 0
M  V30 436 H 41.5218 1.14336 -4.71227 0
M  V30 437 N 42.8649 1.48995 0.513639 0
M  V30 438 C 43.7749 1.67443 1.64317 0
M  V30 439 C 44.7909 0.556947 1.64846 0
M  V30 440 O 45.9669 0.830082 1.83498 0
M  V30 441 C 43.0319 1.72515 3.00732 0
M  V30 442 C 42.0929 2.96009 3.1093 0
M  V30 443 C 41.3259 3.00829 4.40837 0
M  V30 444 O 41.5489 2.13594 5.28898 0
M  V30 445 O 40.4829 3.93168 4.55744 0
M  V30 446 H 44.3089 2.63106 1.51687 0
M  V30 447 H 41.8939 1.32588 0.688543 0
M  V30 448 H 43.7759 1.78277 3.81831 0
M  V30 449 H 42.4509 0.800278 3.13651 0
M  V30 450 H 41.3579 2.9577 2.29065 0
M  V30 451 H 42.6909 3.87934 3.02933 0
M  V30 452 N 44.343 -0.763751 1.37857 0
M  V30 453 C 45.573 -1.55067 1.3652 0
M  V30 454 C 45.981 -1.89135 -0.0494227 0
M  V30 455 O 45.324 -1.52529 -1.02375 0
M  V30 456 C 45.386 -2.8838 2.14656 0
M  V30 457 C 45.05 -2.76905 3.63555 0
M  V30 458 C 46.047 -2.4739 4.57268 0
M  V30 459 C 43.732 -2.94676 4.06781 0
M  V30 460 C 45.726 -2.35786 5.92186 0
M  V30 461 C 43.413 -2.82692 5.41782 0
M  V30 462 C 44.411 -2.53289 6.34298 0
M  V30 463 O 44.099 -2.41345 7.66817 0
M  V30 464 H 43.831 -0.486776 0.469069 0
M  V30 465 H 46.385 -0.953812 1.81911 0
M  V30 466 H 44.615 -3.50217 1.63967 0
M  V30 467 H 46.304 -3.49828 2.05852 0
M  V30 468 H 47.07 -2.33339 4.2518 0
M  V30 469 H 42.949 -3.16563 3.35126 0
M  V30 470 H 46.493 -2.12757 6.64365 0
M  V30 471 H 42.39 -2.96314 5.7347 0
M  V30 472 H 43.158 -2.56634 7.77226 0
M  V30 473 N 45.8211 -1.22559 -0.990812 0
M  V30 474 C 47.0691 -1.04933 -1.72724 0
M  V30 475 C 47.3901 0.416158 -1.90508 0
M  V30 476 O 46.6601 1.29918 -1.46622 0
M  V30 477 H 45.2401 -0.385296 -0.639965 0
M  V30 478 H 47.9021 -1.54105 -1.19322 0
M  V30 479 H 46.9981 -1.52886 -2.72089 0
M  V30 480 N 47.2992 1.18797 -1.03562 0
M  V30 481 C 48.5462 1.8865 -0.736023 0
M  V30 482 C 48.8742 1.80041 0.735889 0
M  V30 483 O 48.1292 1.19179 1.55225 0
M  V30 484 C 48.4282 3.38692 -1.14117 0
M  V30 485 C 48.0942 3.67504 -2.6125 0
M  V30 486 C 46.7562 3.75078 -3.01447 0
M  V30 487 C 49.1082 3.80293 -3.56408 0
M  V30 488 C 46.4362 3.92915 -4.35701 0
M  V30 489 C 48.7882 3.99645 -4.90374 0
M  V30 490 C 47.4522 4.05453 -5.30249 0
M  V30 491 H 46.7222 0.690321 -0.26933 0
M  V30 492 H 49.3692 1.40641 -1.29971 0
M  V30 493 H 47.6742 3.88645 -0.496202 0
M  V30 494 H 49.3712 3.91072 -0.886789 0
M  V30 495 H 45.9612 3.62223 -2.29113 0
M  V30 496 H 50.1452 3.73779 -3.26501 0
M  V30 497 H 45.4012 3.95653 -4.66121 0
M  V30 498 H 49.5752 4.08482 -5.64017 0
M  V30 499 H 47.2022 4.19027 -6.34288 0
M  V30 500 N 48.7773 0.814389 1.34928 0
M  V30 501 C 50.0073 0.41054 2.0248 0
M  V30 502 C 50.4153 -0.985625 1.61499 0
M  V30 503 O 49.7583 -1.64781 0.811976 0
M  V30 504 C 49.8203 0.423384 3.56998 0
M  V30 505 C 49.4843 1.77141 4.21272 0
M  V30 506 C 50.4813 2.73093 4.42398 0
M  V30 507 C 48.1663 2.05755 4.58225 0
M  V30 508 C 50.1603 3.95838 4.9959 0
M  V30 509 C 47.8473 3.28762 5.1513 0
M  V30 510 C 48.8453 4.23621 5.35755 0
M  V30 511 O 48.5333 5.44456 5.91458 0
M  V30 512 H 48.2653 0.163997 0.655806 0
M  V30 513 H 50.8193 1.10155 1.73364 0
M  V30 514 H 49.0493 -0.324276 3.85338 0
M  V30 515 H 50.7383 0.0407683 4.0588 0
M  V30 516 H 51.5043 2.5228 4.14222 0
M  V30 517 H 47.3833 1.32727 4.4148 0
M  V30 518 H 50.9273 4.69891 5.15605 0
M  V30 519 H 46.8243 3.49443 5.42734 0
M  V30 520 H 47.5923 5.4586 6.09901 0
M  V30 521 N 50.2554 -1.46986 0.568584 0
M  V30 522 C 51.5034 -2.02041 0.0487022 0
M  V30 523 C 51.8244 -1.44408 -1.31039 0
M  V30 524 O 51.0944 -0.623477 -1.85714 0
M  V30 525 H 49.6744 -0.746849 0.015014 0
M  V30 526 H 52.3364 -1.80257 0.741168 0
M  V30 527 H 51.4324 -3.12085 -0.0308961 0
M  V30 528 N 51.7335 -0.305618 -1.54608 0
M  V30 529 C 52.6635 0.561482 -2.26649 0
M  V30 530 C 53.6445 1.13415 -1.26772 0
M  V30 531 O 54.8295 1.16262 -1.55553 0
M  V30 532 C 51.9595 1.73122 -3.01075 0
M  V30 533 C 50.9135 1.2887 -4.08138 0
M  V30 534 C 50.2395 2.54396 -4.70305 0
M  V30 535 C 51.5395 0.416578 -5.20636 0
M  V30 536 H 53.2335 -0.0393902 -2.99374 0
M  V30 537 H 50.7795 -0.020385 -1.43986 0
M  V30 538 H 52.7325 2.34396 -3.50195 0
M  V30 539 H 51.4565 2.3584 -2.25936 0
M  V30 540 H 50.1155 0.698991 -3.59875 0
M  V30 541 H 49.7635 3.15439 -3.918 0
M  V30 542 H 49.4635 2.25486 -5.42614 0
M  V30 543 H 50.9875 3.16464 -5.2219 0
M  V30 544 H 52.4015 0.935116 -5.65622 0
M  V30 545 H 50.7985 0.221046 -5.99693 0
M  V30 546 H 51.8685 -0.557162 -4.81688 0
M  V30 547 N 53.2116 1.57565 -0.0334293 0
M  V30 548 C 54.4516 1.93844 0.648379 0
M  V30 549 C 54.8156 0.910387 1.69044 0
M  V30 550 O 56.0166 1.15952 2.42505 0
M  V30 551 C 54.2876 3.35017 1.24492 0
M  V30 552 S 55.8466 3.93229 1.94721 0
M  V30 553 H 52.6646 0.678231 0.213364 0
M  V30 554 H 55.2666 1.95254 -0.0981253 0
M  V30 555 H 53.9706 4.07652 0.474128 0
M  V30 556 H 53.5016 3.37061 2.02864 0
M  V30 557 H 55.5166 3.77014 3.22606 0
M  V30 558 N 54.6897 -0.239769 1.55765 0
M  V30 559 C 55.9387 -0.964754 1.77131 0
M  V30 560 C 56.2517 -1.86213 0.59868 0
M  V30 561 O 57.4577 -2.6244 0.695522 0
M  V30 562 C 55.9137 -1.76552 3.1362 0
M  V30 563 C 55.5217 -0.915185 4.38553 0
M  V30 564 C 57.2657 -2.48281 3.44321 0
M  V30 565 C 55.1727 -1.71225 5.66071 0
M  V30 566 H 54.1027 -0.363953 0.660344 0
M  V30 567 H 56.7537 -0.219181 1.82186 0
M  V30 568 H 55.1357 -2.55331 3.02691 0
M  V30 569 H 56.3097 -0.169217 4.60489 0
M  V30 570 H 54.6247 -0.310889 4.15238 0
M  V30 571 H 57.2217 -3.08382 4.36812 0
M  V30 572 H 57.5647 -3.20256 2.65973 0
M  V30 573 H 58.0977 -1.76507 3.56497 0
M  V30 574 H 54.8367 -1.03612 6.4726 0
M  V30 575 H 54.3567 -2.43331 5.48224 0
M  V30 576 H 56.0357 -2.27758 6.05587 0
M  V30 577 N 56.1678 -1.49265 -0.50573 0
M  V30 578 C 57.5788 -1.51769 -1.08734 0
M  V30 579 C 57.9298 -0.301192 -1.93874 0
M  V30 580 O 57.0548 0.589456 -2.08217 0
M  V30 581 C 57.6498 -2.75017 -1.97867 0
M  V30 582 C 56.2088 -2.80314 -2.51199 0
M  V30 583 C 55.3558 -2.4562 -1.28709 0
M  V30 584 H 58.3068 -1.56031 -0.289855 0
M  V30 585 H 58.3278 -2.5491 -2.82491 0
M  V30 586 H 57.8398 -3.63539 -1.35873 0
M  V30 587 H 55.9408 -1.96061 -3.16845 0
M  V30 588 H 56.0538 -3.82366 -2.88675 0
M  V30 589 H 54.4178 -1.97297 -1.61078 0
M  V30 590 H 55.2008 -3.36411 -0.6843 0
M  V30 591 N 57.6459 0.756429 -1.3826 0
M  V30 592 C 59.0569 1.33359 -1.30661 0
M  V30 593 C 59.4079 1.96161 0.0388875 0
M  V30 594 O 58.5329 1.94874 0.940918 0
M  V30 595 C 59.1279 2.42477 -2.36622 0
M  V30 596 C 57.6869 2.95922 -2.3261 0
M  V30 597 C 56.8339 1.69275 -2.19639 0
M  V30 598 H 59.7849 0.55552 -1.4866 0
M  V30 599 H 59.8059 3.22345 -2.02174 0
M  V30 600 H 59.3179 1.96739 -3.34538 0
M  V30 601 H 57.4189 3.45996 -1.38267 0
M  V30 602 H 57.5319 3.50494 -3.26636 0
M  V30 603 H 55.8959 1.92793 -1.66442 0
M  V30 604 H 56.6789 1.25619 -3.19491 0
M  V30 605 N 59.124 1.23083 0.984299 0
M  V30 606 C 60.349 1.088 1.76571 0
M  V30 607 C 60.774 -0.356657 1.84688 0
M  V30 608 O 60.132 -1.25788 1.30565 0
M  V30 609 C 60.18 1.71371 3.17277 0
M  V30 610 O 59.284 0.973213 4.00752 0
M  V30 611 H 58.625 0.381599 0.543395 0
M  V30 612 H 61.155 1.63057 1.23587 0
M  V30 613 H 61.165 1.76449 3.67872 0
M  V30 614 H 59.84 2.76493 3.10684 0
M  V30 615 H 58.417 0.999078 3.59267 0
M  V30 616 N 60.6021 -1.18246 1.0419 0
M  V30 617 C 61.8321 -1.91916 0.764961 0
M  V30 618 C 62.2401 -1.76485 -0.681898 0
M  V30 619 O 61.5831 -1.09275 -1.47664 0
M  V30 620 C 61.6451 -3.4373 1.05309 0
M  V30 621 C 61.3091 -3.8294 2.4941 0
M  V30 622 C 62.3061 -3.86621 3.47592 0
M  V30 623 C 59.9911 -4.142 2.84155 0
M  V30 624 C 61.9851 -4.21013 4.78568 0
M  V30 625 C 59.6721 -4.48262 4.15337 0
M  V30 626 C 60.6701 -4.51645 5.12353 0
M  V30 627 O 60.3581 -4.84911 6.41183 0
M  V30 628 H 60.0901 -0.61606 0.278292 0
M  V30 629 H 62.6441 -1.50947 1.39299 0
M  V30 630 H 60.8741 -3.84946 0.367933 0
M  V30 631 H 62.5631 -3.9865 0.763752 0
M  V30 632 H 63.3291 -3.62607 3.22089 0
M  V30 633 H 59.2081 -4.10743 2.09311 0
M  V30 634 H 62.7521 -4.23568 5.54289 0
M  V30 635 H 58.6491 -4.71737 4.40607 0
M  V30 636 H 59.4171 -5.02809 6.45852 0
M  V30 637 N 62.0802 -0.821533 -1.34494 0
M  V30 638 C 63.3262 -0.409552 -1.98622 0
M  V30 639 C 63.6592 1.0244 -1.64984 0
M  V30 640 O 62.9342 1.71325 -0.920758 0
M  V30 641 C 63.2172 -0.610458 -3.54888 0
M  V30 642 C 63.0702 -2.09043 -3.98273 0
M  V30 643 C 64.3892 -0.0455379 -4.40076 0
M  V30 644 H 61.5082 -0.15028 -0.721516 0
M  V30 645 H 64.1502 -1.03384 -1.59411 0
M  V30 646 H 62.3002 -0.079044 -3.8842 0
M  V30 647 H 63.9722 -2.68537 -3.75081 0
M  V30 648 H 62.2152 -2.58139 -3.48635 0
M  V30 649 H 62.8862 -2.18182 -5.07051 0
M  V30 650 H 65.3622 -0.499557 -4.1309 0
M  V30 651 H 64.2382 -0.215922 -5.48475 0
M  V30 652 H 64.4992 1.04939 -4.29465 0
M  V30 653 N 63.5583 1.46682 -0.576371 0
M  V30 654 C 64.5213 2.28707 0.150239 0
M  V30 655 C 65.5213 1.38035 0.824794 0
M  V30 656 O 66.7113 1.60476 0.677719 0
M  V30 657 C 63.8433 3.18248 1.22192 0
M  V30 658 H 65.0363 2.94423 -0.570521 0
M  V30 659 H 62.5893 1.52688 -0.334078 0
M  V30 660 H 63.3243 2.57265 1.97447 0
M  V30 661 H 63.1093 3.85 0.742812 0
M  V30 662 H 64.5993 3.80001 1.73172 0
M  V30 663 N 65.0364 0.313813 1.54444 0
M  V30 664 C 66.2824 -0.284918 2.01395 0
M  V30 665 C 66.6374 -1.50537 1.19818 0
M  V30 666 O 65.9304 -1.89692 0.269748 0
M  V30 667 C 66.1244 -0.680386 3.50864 0
M  V30 668 C 65.9534 0.500198 4.4691 0
M  V30 669 C 64.7234 0.996248 4.95382 0
M  V30 670 C 66.9214 1.34928 4.96285 0
M  V30 671 N 64.9034 2.14226 5.75309 0
M  V30 672 C 66.2744 2.3426 5.7404 0
M  V30 673 C 68.3294 1.37818 4.78446 0
M  V30 674 C 67.0324 3.36272 6.35856 0
M  V30 675 C 69.0584 2.38695 5.4109 0
M  V30 676 C 68.4204 3.36755 6.18688 0
M  V30 677 H 64.5194 -0.0683689 0.779006 0
M  V30 678 H 67.1034 0.44664 1.89508 0
M  V30 679 H 65.2744 -1.38109 3.63016 0
M  V30 680 H 67.0064 -1.25975 3.84594 0
M  V30 681 H 63.7614 0.56912 4.70168 0
M  V30 682 H 64.1854 2.72005 6.19953 0
M  V30 683 H 68.8274 0.633747 4.18023 0
M  V30 684 H 66.5454 4.11627 6.95405 0
M  V30 685 H 70.1314 2.41721 5.29209 0
M  V30 686 H 69.0114 4.13535 6.66302 0
M  V30 687 N 66.5145 -1.57545 0.0417849 0
M  V30 688 C 67.7605 -1.92601 -0.635021 0
M  V30 689 C 68.0935 -0.919627 -1.71045 0
M  V30 690 O 67.3685 0.0557892 -1.9442 0
M  V30 691 C 67.6515 -3.38085 -1.23979 0
M  V30 692 C 67.5045 -4.49467 -0.173057 0
M  V30 693 C 68.8235 -3.83776 -2.15416 0
M  V30 694 H 65.9425 -0.700397 -0.229374 0
M  V30 695 H 68.5845 -1.89728 0.101633 0
M  V30 696 H 66.7345 -3.40664 -1.86762 0
M  V30 697 H 68.4065 -4.59018 0.458312 0
M  V30 698 H 66.6495 -4.30909 0.499996 0
M  V30 699 H 67.3205 -5.48323 -0.636054 0
M  V30 700 H 69.7965 -3.83013 -1.62605 0
M  V30 701 H 68.6725 -4.8624 -2.54679 0
M  V30 702 H 68.9335 -3.19998 -3.05047 0
M  V30 703 N 67.9926 0.231505 -1.5589 0
M  V30 704 C 69.4086 0.580748 -1.48659 0
M  V30 705 C 69.6086 1.87617 -0.73498 0
M  V30 706 O 68.6646 2.51046 -0.270586 0
M  V30 707 C 69.9776 0.669202 -2.93159 0
M  V30 708 C 71.5256 0.760499 -3.03621 0
M  V30 709 C 72.0006 0.880383 -4.49459 0
M  V30 710 N 73.4916 0.944861 -4.53461 0
M  V30 711 C 74.2266 1.05716 -5.63571 0
M  V30 712 N 73.7226 1.13403 -6.83456 0
M  V30 713 N 75.5156 1.09152 -5.514 0
M  V30 714 H 67.6666 -0.618695 -2.03189 0
M  V30 715 H 69.9296 -0.215728 -0.923128 0
M  V30 716 H 69.6356 -0.212904 -3.51055 0
M  V30 717 H 69.5096 1.5361 -3.44505 0
M  V30 718 H 71.8966 1.63305 -2.45796 0
M  V30 719 H 71.9776 -0.131864 -2.5546 0
M  V30 720 H 71.6216 0.0123284 -5.07899 0
M  V30 721 H 71.5516 1.78802 -4.95316 0
M  V30 722 H 74.0426 0.896176 -3.6712 0
M  V30 723 H 74.3556 1.21921 -7.63122 0
M  V30 724 H 72.7006 1.10333 -6.86186 0
M  V30 725 H 75.8916 1.02805 -4.56671 0
M  V30 726 H 76.0646 1.17558 -6.37247 0
M  V30 727 N 69.4707 1.49531 0.497807 0
M  V30 728 C 70.4337 1.65916 1.58128 0
M  V30 729 C 71.4337 0.530825 1.51786 0
M  V30 730 O 72.6237 0.797342 1.54881 0
M  V30 731 C 69.7557 1.65951 2.9778 0
M  V30 732 H 70.9487 2.62556 1.44929 0
M  V30 733 H 68.5017 1.38611 0.722275 0
M  V30 734 H 69.2367 0.709065 3.16453 0
M  V30 735 H 69.0217 2.47897 3.03792 0
M  V30 736 H 70.5117 1.80673 3.76493 0
M  V30 737 N 70.9488 -0.749086 1.3866 0
M  V30 738 C 72.3648 -1.05276 1.19955 0
M  V30 739 C 72.5648 -2.01435 0.05134 0
M  V30 740 O 71.6208 -2.45232 -0.60147 0
M  V30 741 C 72.9338 -1.62853 2.52783 0
M  V30 742 C 74.4818 -1.75002 2.59506 0
M  V30 743 C 74.9568 -2.35991 3.92521 0
M  V30 744 N 76.4478 -2.43416 3.94085 0
M  V30 745 C 77.1828 -2.91511 4.9377 0
M  V30 746 N 76.6788 -3.39608 6.03853 0
M  V30 747 N 78.4718 -2.90592 4.81157 0
M  V30 748 H 70.6228 -0.111066 2.12109 0
M  V30 749 H 72.8858 -0.111901 0.941373 0
M  V30 750 H 72.5918 -0.99664 3.37283 0
M  V30 751 H 72.4658 -2.61854 2.715 0
M  V30 752 H 74.8528 -2.37317 1.75398 0
M  V30 753 H 74.9338 -0.74693 2.44652 0
M  V30 754 H 74.5778 -1.74308 4.77053 0
M  V30 755 H 74.5078 -3.3695 4.04688 0
M  V30 756 H 76.9988 -2.09405 3.14576 0
M  V30 757 H 77.3118 -3.74775 6.75843 0
M  V30 758 H 75.6568 -3.37653 6.07466 0
M  V30 759 H 78.8478 -2.52332 3.94267 0
M  V30 760 H 79.0208 -3.27762 5.58996 0
M  V30 761 N 72.4269 -1.23603 -0.977757 0
M  V30 762 C 73.6569 -1.09487 -1.75203 0
M  V30 763 C 74.0649 0.356321 -1.85814 0
M  V30 764 O 73.4079 1.25816 -1.33851 0
M  V30 765 C 73.4699 -1.64905 -3.19447 0
M  V30 766 C 73.1339 -3.13688 -3.32338 0
M  V30 767 C 74.1309 -4.10953 -3.18455 0
M  V30 768 C 71.8159 -3.53449 -3.56902 0
M  V30 769 C 73.8099 -5.45962 -3.28944 0
M  V30 770 C 71.4969 -4.88602 -3.6703 0
M  V30 771 C 72.4949 -5.84668 -3.53062 0
M  V30 772 O 72.1829 -7.17365 -3.62826 0
M  V30 773 H 71.9149 -0.38367 -0.556573 0
M  V30 774 H 74.4689 -1.6398 -1.23693 0
M  V30 775 H 72.6989 -1.04835 -3.72218 0
M  V30 776 H 74.3879 -1.46226 -3.78646 0
M  V30 777 H 75.1539 -3.81577 -2.99372 0
M  V30 778 H 71.0329 -2.79188 -3.66844 0
M  V30 779 H 74.5769 -6.20925 -3.17958 0
M  V30 780 H 70.4739 -5.17653 -3.85623 0
M  V30 781 H 71.2419 -7.2515 -3.79605 0
M  V30 782 N 73.905 1.17692 -1.04816 0
M  V30 783 C 75.316 1.69501 -0.782698 0
M  V30 784 C 75.667 1.83456 0.695577 0
M  V30 785 O 74.792 1.51942 1.54086 0
M  V30 786 C 75.387 3.07874 -1.41419 0
M  V30 787 C 73.946 3.56864 -1.19686 0
M  V30 788 C 73.093 2.3322 -1.50012 0
M  V30 789 H 76.044 1.02262 -1.2136 0
M  V30 790 H 76.065 3.71528 -0.821428 0
M  V30 791 H 75.577 2.97685 -2.49009 0
M  V30 792 H 73.678 3.72337 -0.140043 0
M  V30 793 H 73.791 4.39851 -1.89916 0
M  V30 794 H 72.155 2.37501 -0.920071 0
M  V30 795 H 72.938 2.25644 -2.58727 0
M  V30 796 N 75.3831 0.828654 1.34056 0
M  V30 797 C 76.3331 0.226828 2.26869 0
M  V30 798 C 77.3171 -0.612243 1.48796 0
M  V30 799 O 78.5091 -0.465884 1.70759 0
M  V30 800 C 75.6381 -0.605654 3.37915 0
M  V30 801 C 74.7241 0.244361 4.23395 0
M  V30 802 N 75.1151 1.31815 4.88322 0
M  V30 803 C 73.4131 0.0296616 4.4599 0
M  V30 804 C 74.1141 1.83895 5.51867 0
M  V30 805 N 73.0901 1.14196 5.3147 0
M  V30 806 H 76.8921 1.04811 2.74576 0
M  V30 807 H 74.4061 0.67205 1.47842 0
M  V30 808 H 76.4031 -1.05302 4.03382 0
M  V30 809 H 75.0631 -1.42504 2.91758 0
M  V30 810 H 76.0741 1.70099 4.8917 0
M  V30 811 H 72.7511 -0.757097 4.10578 0
M  V30 812 H 74.1411 2.7376 6.136 0
M  V30 813 N 76.8612 -1.46375 0.584142 0
M  V30 814 C 77.8242 -2.28784 -0.138108 0
M  V30 815 C 78.8242 -1.38471 -0.817462 0
M  V30 816 O 80.0142 -1.60833 -0.669199 0
M  V30 817 C 77.1462 -3.18892 -1.20503 0
M  V30 818 H 78.3392 -2.94117 0.586127 0
M  V30 819 H 75.8922 -1.52509 0.342171 0
M  V30 820 H 76.6272 -2.58309 -1.96079 0
M  V30 821 H 76.4122 -3.85388 -0.722384 0
M  V30 822 H 77.9022 -3.80914 -1.71155 0
M  V30 823 N 78.3393 -0.321999 -1.54275 0
M  V30 824 C 79.7503 0.166384 -1.85957 0
M  V30 825 C 80.1013 1.51747 -1.24367 0
M  V30 826 O 79.2263 2.09317 -0.549124 0
M  V30 827 C 79.8213 0.308681 -3.37391 0
M  V30 828 C 78.3803 0.741286 -3.69028 0
M  V30 829 C 77.5273 -0.137937 -2.76957 0
M  V30 830 H 80.4783 -0.542335 -1.49146 0
M  V30 831 H 80.4993 1.13984 -3.63026 0
M  V30 832 H 80.0113 -0.674809 -3.82188 0
M  V30 833 H 78.1123 1.73458 -3.29762 0
M  V30 834 H 78.2253 0.546118 -4.75977 0
M  V30 835 H 76.5893 0.386251 -2.51754 0
M  V30 836 H 77.3723 -1.11816 -3.2458 0
M  V30 837 N 79.8174 1.5752 -0.0501392 0
M  V30 838 C 81.0644 1.9265 0.623874 0
M  V30 839 C 81.3924 0.928411 1.70912 0
M  V30 840 O 80.6474 -0.0594525 1.9561 0
M  V30 841 C 80.9464 3.34467 1.25963 0
M  V30 842 C 80.6124 4.49883 0.302689 0
M  V30 843 C 79.2744 4.81184 0.0393636 0
M  V30 844 C 81.6264 5.20002 -0.353205 0
M  V30 845 C 78.9544 5.79951 -0.887308 0
M  V30 846 C 81.3064 6.1976 -1.26806 0
M  V30 847 C 79.9704 6.49491 -1.54007 0
M  V30 848 H 79.2404 0.704957 0.228292 0
M  V30 849 H 81.8874 1.91146 -0.116398 0
M  V30 850 H 80.1924 3.32333 2.07514 0
M  V30 851 H 81.8894 3.58928 1.78806 0
M  V30 852 H 78.4794 4.25457 0.518109 0
M  V30 853 H 82.6634 4.96033 -0.162854 0
M  V30 854 H 77.9194 6.01322 -1.10553 0
M  V30 855 H 82.0934 6.73205 -1.78236 0
M  V30 856 H 79.7204 7.25837 -2.25976 0
M  V30 857 N 81.2955 -0.223234 1.56011 0
M  V30 858 C 82.7115 -0.572856 1.48965 0
M  V30 859 C 82.9115 -1.87225 0.74492 0
M  V30 860 O 81.9675 -2.50899 0.283896 0
M  V30 861 C 83.2805 -0.653646 2.9351 0
M  V30 862 C 84.8285 -0.744386 3.0402 0
M  V30 863 C 85.3035 -0.856535 4.49919 0
M  V30 864 N 86.7945 -0.9208 4.53955 0
M  V30 865 C 87.5295 -1.02726 5.64123 0
M  V30 866 N 87.0255 -1.09777 6.84047 0
M  V30 867 N 88.8185 -1.06226 5.51971 0
M  V30 868 H 80.9695 0.629462 2.02858 0
M  V30 869 H 83.2325 0.220621 0.921971 0
M  V30 870 H 82.9385 0.231518 3.50937 0
M  V30 871 H 82.8125 -1.51781 3.45315 0
M  V30 872 H 85.1995 -1.61999 2.46658 0
M  V30 873 H 85.2805 0.14541 2.55386 0
M  V30 874 H 84.9245 0.0146069 5.07898 0
M  V30 875 H 84.8545 -1.76172 4.96257 0
M  V30 876 H 87.3455 -0.876694 3.6759 0
M  V30 877 H 87.6585 -1.17872 7.63758 0
M  V30 878 H 86.0035 -1.06693 6.86762 0
M  V30 879 H 89.1945 -1.00382 4.5721 0
M  V30 880 H 89.3675 -1.14177 6.37862 0
M  V30 881 N 82.7736 -1.49793 -0.48987 0
M  V30 882 C 83.7036 -1.70201 -1.59856 0
M  V30 883 C 84.6846 -0.55076 -1.60937 0
M  V30 884 O 85.8696 -0.787841 -1.77501 0
M  V30 885 C 82.9996 -1.77882 -2.98287 0
M  V30 886 C 81.9536 -2.92907 -3.12073 0
M  V30 887 C 81.2796 -2.85712 -4.51965 0
M  V30 888 C 82.5796 -4.3369 -2.91051 0
M  V30 889 H 84.2736 -2.63025 -1.43032 0
M  V30 890 H 81.8196 -1.26574 -0.686664 0
M  V30 891 H 83.7726 -1.90744 -3.75759 0
M  V30 892 H 82.4966 -0.816653 -3.16225 0
M  V30 893 H 81.1556 -2.79665 -2.37029 0
M  V30 894 H 80.8036 -1.8738 -4.66795 0
M  V30 895 H 80.5036 -3.62921 -4.62128 0
M  V30 896 H 82.0276 -3.00598 -5.31482 0
M  V30 897 H 83.4416 -4.47555 -3.58284 0
M  V30 898 H 81.8386 -5.12205 -3.12675 0
M  V30 899 H 82.9086 -4.47362 -1.87071 0
M  V30 900 N 84.2517 0.741722 -1.39055 0
M  V30 901 C 85.4977 1.50336 -1.36113 0
M  V30 902 C 85.8307 1.94148 0.0450796 0
M  V30 903 O 85.1057 1.66301 1.00868 0
M  V30 904 C 85.3887 2.74773 -2.32749 0
M  V30 905 C 85.2417 2.37023 -3.82283 0
M  V30 906 C 86.5607 3.76846 -2.27322 0
M  V30 907 H 83.6797 0.545351 -0.495743 0
M  V30 908 H 86.3217 0.848624 -1.69995 0
M  V30 909 H 84.4717 3.30639 -2.03986 0
M  V30 910 H 86.1437 1.8684 -4.21768 0
M  V30 911 H 84.3867 1.69334 -3.99385 0
M  V30 912 H 85.0577 3.26104 -4.45376 0
M  V30 913 H 87.5337 3.30548 -2.5274 0
M  V30 914 H 86.4097 4.6159 -2.97028 0
M  V30 915 H 86.6707 4.23286 -1.27599 0
M  V30 916 N 85.7298 1.2412 0.971189 0
M  V30 917 C 86.9578 1.10575 1.74874 0
M  V30 918 C 87.3728 -0.342017 1.85676 0
M  V30 919 O 86.7298 -1.23617 1.34258 0
M  V30 920 C 86.7808 1.73579 3.171 0
M  V30 921 O 86.5018 3.12695 3.06844 0
M  V30 922 C 88.0028 1.65598 4.11208 0
M  V30 923 H 85.2228 0.386504 0.548503 0
M  V30 924 H 87.7668 1.64156 1.21955 0
M  V30 925 H 85.9218 1.24009 3.67016 0
M  V30 926 H 86.3358 3.43412 3.96445 0
M  V30 927 H 87.8098 2.1437 5.08674 0
M  V30 928 H 88.2868 0.616532 4.34851 0
M  V30 929 H 88.8928 2.14578 3.67201 0
M  V30 930 N 87.2079 -1.17134 1.05439 0
M  V30 931 C 88.4539 -1.87733 0.767077 0
M  V30 932 C 88.7869 -1.8098 -0.704253 0
M  V30 933 O 88.0619 -1.21951 -1.5152 0
M  V30 934 C 88.3449 -3.37659 1.25133 0
M  V30 935 C 88.1979 -3.53149 2.78578 0
M  V30 936 C 89.5169 -4.31768 0.852324 0
M  V30 937 H 86.6359 -0.681687 0.280129 0
M  V30 938 H 89.2779 -1.37732 1.30881 0
M  V30 939 H 87.4279 -3.80373 0.790469 0
M  V30 940 H 89.0999 -3.19434 3.32806 0
M  V30 941 H 87.3429 -2.95345 3.17732 0
M  V30 942 H 88.0139 -4.58403 3.07523 0
M  V30 943 H 90.4899 -3.96909 1.24911 0
M  V30 944 H 89.3659 -5.35199 1.21873 0
M  V30 945 H 89.6269 -4.41429 -0.243485 0
M  V30 946 N 88.686 -0.835752 -1.33615 0
M  V30 947 C 89.932 -0.430596 -1.98176 0
M  V30 948 C 90.265 1.00684 -1.66061 0
M  V30 949 O 89.54 1.70339 -0.938877 0
M  V30 950 C 89.823 -0.648065 -3.5422 0
M  V30 951 C 89.676 -2.13255 -3.96033 0
M  V30 952 C 90.995 -0.0922113 -4.40003 0
M  V30 953 H 88.114 -0.157924 -0.719881 0
M  V30 954 H 90.756 -1.05069 -1.58305 0
M  V30 955 H 88.906 -0.120237 -3.88314 0
M  V30 956 H 90.578 -2.725 -3.72211 0
M  V30 957 H 88.821 -2.61823 -3.45878 0
M  V30 958 H 89.492 -2.23547 -5.04708 0
M  V30 959 H 91.968 -0.543343 -4.12537 0
M  V30 960 H 90.844 -0.274083 -5.48215 0
M  V30 961 H 91.105 1.00378 -4.30554 0
M  V30 962 N 90.1641 1.46063 -0.591896 0
M  V30 963 C 91.4121 2.01938 -0.0808391 0
M  V30 964 C 91.7331 1.46475 1.28725 0
M  V30 965 O 91.0031 0.652944 1.84698 0
M  V30 966 H 89.5831 0.746516 -0.0268938 0
M  V30 967 H 92.2451 1.79055 -0.769752 0
M  V30 968 H 91.3411 3.12094 -0.0187578 0
M  V30 969 N 91.6422 0.330177 1.54103 0
M  V30 970 C 92.8892 -0.270405 2.00686 0
M  V30 971 C 93.2172 -1.51621 1.21825 0
M  V30 972 O 92.4722 -1.93536 0.29025 0
M  V30 973 C 92.7712 -0.643134 3.51566 0
M  V30 974 C 92.4372 0.504251 4.48072 0
M  V30 975 C 91.0992 0.819163 4.74176 0
M  V30 976 C 93.4512 1.27465 5.05373 0
M  V30 977 C 90.7792 1.90708 5.5484 0
M  V30 978 C 93.1312 2.35271 5.87223 0
M  V30 979 C 91.7952 2.67336 6.11627 0
M  V30 980 H 91.0652 -0.0989482 0.734364 0
M  V30 981 H 93.7122 0.455324 1.86008 0
M  V30 982 H 92.0172 -1.44938 3.64006 0
M  V30 983 H 93.7142 -1.11949 3.85056 0
M  V30 984 H 90.3042 0.248733 4.27878 0
M  V30 985 H 94.4882 1.04462 4.85182 0
M  V30 986 H 89.7442 2.15991 5.71977 0
M  V30 987 H 93.9182 2.95405 6.30641 0
M  V30 988 H 91.5452 3.51763 6.73919 0
M  V30 989 N 93.1203 -1.57491 0.0584922 0
M  V30 990 C 94.5313 -1.80526 -0.476138 0
M  V30 991 C 94.8823 -0.971334 -1.70469 0
M  V30 992 O 94.0073 -0.190012 -2.15564 0
M  V30 993 C 94.6023 -3.27424 -0.870587 0
M  V30 994 C 93.1613 -3.51351 -1.35015 0
M  V30 995 C 92.3083 -2.75343 -0.32887 0
M  V30 996 H 95.2593 -1.56133 0.284312 0
M  V30 997 H 95.2803 -3.38745 -1.73299 0
M  V30 998 H 94.7923 -3.88093 0.0237627 0
M  V30 999 H 92.8933 -2.95971 -2.26345 0
M  V30 1000 H 93.0063 -4.60059 -1.33726 0
M  V30 1001 H 91.3703 -2.417 -0.803321 0
M  V30 1002 H 92.1533 -3.38743 0.557521 0
M  V30 1003 N 94.5984 0.214957 -1.56127 0
M  V30 1004 C 95.5284 1.2695 -1.95974 0
M  V30 1005 C 96.5094 1.48539 -0.828868 0
M  V30 1006 O 97.6944 1.60611 -1.09168 0
M  V30 1007 C 94.8244 2.61794 -2.28214 0
M  V30 1008 C 93.7784 2.54851 -3.43853 0
M  V30 1009 C 93.1044 3.93785 -3.61715 0
M  V30 1010 C 94.4044 2.09065 -4.78632 0
M  V30 1011 H 96.0984 0.93846 -2.84312 0
M  V30 1012 H 93.6444 0.449996 -1.36788 0
M  V30 1013 H 95.5974 3.35731 -2.54682 0
M  V30 1014 H 94.3214 2.96599 -1.36736 0
M  V30 1015 H 92.9804 1.8337 -3.17444 0
M  V30 1016 H 92.6284 4.25908 -2.67602 0
M  V30 1017 H 92.3284 3.90019 -4.39498 0
M  V30 1018 H 93.8524 4.69374 -3.90539 0
M  V30 1019 H 95.2664 2.7275 -5.04262 0
M  V30 1020 H 93.6634 2.16346 -5.59745 0
M  V30 1021 H 94.7334 1.04315 -4.73547 0
M  V30 1022 N 96.0765 1.50051 0.48192 0
M  V30 1023 C 97.3245 1.60181 1.23234 0
M  V30 1024 C 97.6455 0.299176 1.92691 0
M  V30 1025 O 96.9155 -0.682708 1.83619 0
M  V30 1026 H 95.4955 0.590232 0.457859 0
M  V30 1027 H 98.1575 1.86775 0.556881 0
M  V30 1028 H 97.2535 2.40753 1.98607 0
M  V30 1029 N 97.5546 -0.734337 1.39446 0
M  V30 1030 C 98.7846 -1.52137 1.39778 0
M  V30 1031 C 99.1926 -1.89198 -0.00929312 0
M  V30 1032 O 98.5356 -1.54666 -0.991168 0
M  V30 1033 C 98.5976 -2.83762 2.20724 0
M  V30 1034 C 98.2616 -2.69131 3.69347 0
M  V30 1035 C 99.2586 -2.37635 4.62413 0
M  V30 1036 C 96.9436 -2.85982 4.1294 0
M  V30 1037 C 98.9376 -2.23172 5.97054 0
M  V30 1038 C 96.6246 -2.71137 5.47657 0
M  V30 1039 C 97.6226 -2.39777 6.39528 0
M  V30 1040 O 97.3106 -2.25026 7.71763 0
M  V30 1041 H 97.0426 -0.476717 0.479288 0
M  V30 1042 H 99.5966 -0.915012 1.83893 0
M  V30 1043 H 97.8266 -3.4666 1.71359 0
M  V30 1044 H 99.5156 -3.45383 2.13226 0
M  V30 1045 H 100.282 -2.24267 4.30034 0
M  V30 1046 H 96.1606 -3.09383 3.41765 0
M  V30 1047 H 99.7046 -1.98617 6.68728 0
M  V30 1048 H 95.6016 -2.84083 5.79626 0
M  V30 1049 H 96.3696 -2.40091 7.82495 0
M  V30 1050 N 99.0327 -1.24633 -0.964593 0
M  V30 1051 C 99.9647 -0.999302 -2.06268 0
M  V30 1052 C 100.978 0.0323226 -1.62768 0
M  V30 1053 O 102.167 -0.205079 -1.77318 0
M  V30 1054 C 99.2667 -0.486816 -3.35385 0
M  V30 1055 C 98.4397 -1.5823 -4.07777 0
M  V30 1056 C 97.4987 -1.07191 -5.15166 0
M  V30 1057 O 96.5247 -1.76426 -5.41168 0
M  V30 1058 N 97.7267 0.0920373 -5.80427 0
M  V30 1059 H 100.492 -1.94477 -2.28033 0
M  V30 1060 H 98.0527 -1.15704 -1.13244 0
M  V30 1061 H 100.045 -0.130066 -4.04491 0
M  V30 1062 H 98.6147 0.364459 -3.10468 0
M  V30 1063 H 97.8347 -2.11109 -3.32906 0
M  V30 1064 H 99.1227 -2.31854 -4.52903 0
M  V30 1065 H 98.5207 0.670784 -5.61709 0
M  V30 1066 H 97.0777 0.389905 -6.50633 0
M  V30 1067 N 100.511 1.16574 -1.06058 0
M  V30 1068 C 101.421 2.2452 -0.680282 0
M  V30 1069 C 102.437 1.71348 0.302604 0
M  V30 1070 O 103.613 2.00822 0.152513 0
M  V30 1071 C 100.678 3.46629 -0.0700315 0
M  V30 1072 C 99.7388 4.14849 -1.10448 0
M  V30 1073 C 98.9718 5.31129 -0.523256 0
M  V30 1074 O 99.1948 5.66514 0.664709 0
M  V30 1075 O 98.1288 5.88526 -1.26179 0
M  V30 1076 H 101.955 2.59355 -1.58015 0
M  V30 1077 H 99.5398 1.24043 -0.832694 0
M  V30 1078 H 101.422 4.20543 0.268667 0
M  V30 1079 H 100.097 3.13573 0.803353 0
M  V30 1080 H 99.0038 3.42916 -1.49532 0
M  V30 1081 H 100.337 4.51954 -1.94931 0
M  V30 1082 N 101.989 0.842826 1.3317 0
M  V30 1083 C 102.936 0.276885 2.29133 0
M  V30 1084 C 103.906 -0.609527 1.54512 0
M  V30 1085 O 105.091 -0.546955 1.82792 0
M  V30 1086 C 102.231 -0.538707 3.40869 0
M  V30 1087 C 101.344 0.372169 4.30394 0
M  V30 1088 C 100.479 -0.454908 5.29249 0
M  V30 1089 C 99.5179 0.45411 6.10413 0
M  V30 1090 N 98.6549 -0.335075 7.013 0
M  V30 1091 H 103.495 1.10052 2.76934 0
M  V30 1092 H 101.032 0.554161 1.36262 0
M  V30 1093 H 102.99 -1.02709 4.0436 0
M  V30 1094 H 101.62 -1.32727 2.9425 0
M  V30 1095 H 100.672 0.97888 3.6759 0
M  V30 1096 H 101.984 1.0703 4.87182 0
M  V30 1097 H 101.138 -1.00695 5.98285 0
M  V30 1098 H 99.8769 -1.18646 4.73048 0
M  V30 1099 H 98.8819 1.01813 5.40291 0
M  V30 1100 H 100.107 1.18409 6.68697 0
M  V30 1101 H 98.0529 -1.04994 6.47543 0
M  V30 1102 H 97.9699 0.304262 7.55387 0
M  V30 1103 H 99.2379 -0.869224 7.74638 0
M  V30 1104 N 103.467 -1.45747 0.599634 0
M  V30 1105 C 104.377 -2.34262 -0.125888 0
M  V30 1106 C 105.393 -1.50768 -0.868625 0
M  V30 1107 O 106.569 -1.83592 -0.828003 0
M  V30 1108 C 103.634 -3.28252 -1.11587 0
M  V30 1109 C 102.695 -4.27651 -0.375956 0
M  V30 1110 C 101.928 -5.1715 -1.31877 0
M  V30 1111 O 102.151 -5.09916 -2.55621 0
M  V30 1112 O 101.085 -5.96286 -0.820157 0
M  V30 1113 H 104.911 -2.97688 0.601315 0
M  V30 1114 H 102.496 -1.44999 0.359934 0
M  V30 1115 H 104.378 -3.86191 -1.68626 0
M  V30 1116 H 103.053 -2.67401 -1.82424 0
M  V30 1117 H 101.96 -3.7335 0.236698 0
M  V30 1118 H 103.293 -4.91334 0.29177 0
M  V30 1119 N 104.945 -0.338344 -1.53925 0
M  V30 1120 C 106.191 0.260143 -2.01125 0
M  V30 1121 C 106.524 1.50617 -1.22589 0
M  V30 1122 O 105.799 1.91979 -0.312113 0
M  V30 1123 C 106.082 0.579499 -3.55407 0
M  V30 1124 C 105.935 -0.678264 -4.44657 0
M  V30 1125 C 107.254 1.39122 -4.17532 0
M  V30 1126 H 104.373 0.0930772 -0.731099 0
M  V30 1127 H 107.015 -0.457852 -1.84401 0
M  V30 1128 H 105.165 1.19118 -3.69788 0
M  V30 1129 H 106.837 -1.31631 -4.42121 0
M  V30 1130 H 105.08 -1.3042 -4.13731 0
M  V30 1131 H 105.751 -0.410143 -5.50474 0
M  V30 1132 H 108.227 0.874035 -4.06817 0
M  V30 1133 H 107.103 1.58342 -5.25565 0
M  V30 1134 H 107.364 2.39178 -3.71815 0
M  V30 1135 N 106.423 1.57458 -0.0668435 0
M  V30 1136 C 107.37 2.12439 0.902122 0
M  V30 1137 C 108.34 1.03565 1.2986 0
M  V30 1138 O 109.525 1.312 1.38532 0
M  V30 1139 C 106.665 2.6865 2.16614 0
M  V30 1140 C 105.778 3.91663 1.82274 0
M  V30 1141 C 104.913 4.36134 3.0325 0
M  V30 1142 C 103.952 5.51808 2.64904 0
M  V30 1143 N 103.089 5.9126 3.78624 0
M  V30 1144 H 107.929 2.94934 0.426382 0
M  V30 1145 H 105.466 1.4575 0.198819 0
M  V30 1146 H 107.424 2.99346 2.90599 0
M  V30 1147 H 106.054 1.88928 2.61737 0
M  V30 1148 H 105.106 3.6746 0.983719 0
M  V30 1149 H 106.418 4.75693 1.50059 0
M  V30 1150 H 105.572 4.68465 3.85519 0
M  V30 1151 H 104.311 3.50948 3.38655 0
M  V30 1152 H 103.316 5.19133 1.81055 0
M  V30 1153 H 104.541 6.38722 2.30675 0
M  V30 1154 H 102.487 5.09024 4.138 0
M  V30 1155 H 102.404 6.70018 3.5016 0
M  V30 1156 H 103.672 6.28212 4.61486 0
M  V30 1157 N 107.901 -0.206675 1.56239 0
M  V30 1158 C 108.864 -1.23976 1.92776 0
M  V30 1159 C 109.864 -1.39041 0.807729 0
M  V30 1160 O 111.054 -1.37051 1.0753 0
M  V30 1161 C 108.186 -2.61112 2.19165 0
M  V30 1162 H 109.379 -0.927764 2.85189 0
M  V30 1163 H 106.932 -0.447718 1.4975 0
M  V30 1164 H 107.667 -2.97386 1.29352 0
M  V30 1165 H 107.452 -2.51552 3.00772 0
M  V30 1166 H 108.942 -3.35633 2.48476 0
M  V30 1167 N 109.379 -1.50304 -0.473955 0
M  V30 1168 C 110.309 -1.71886 -1.58042 0
M  V30 1169 C 111.29 -0.567799 -1.60344 0
M  V30 1170 O 112.475 -0.806623 -1.76656 0
M  V30 1171 C 109.605 -1.81036 -2.96384 0
M  V30 1172 C 108.559 -2.962 -3.08949 0
M  V30 1173 C 107.885 -2.9049 -4.48909 0
M  V30 1174 C 109.185 -4.36752 -2.86434 0
M  V30 1175 H 110.879 -2.64527 -1.40234 0
M  V30 1176 H 108.425 -1.27295 -0.673201 0
M  V30 1177 H 110.378 -1.94719 -3.73714 0
M  V30 1178 H 109.102 -0.850147 -3.15341 0
M  V30 1179 H 107.761 -2.82164 -2.3405 0
M  V30 1180 H 107.409 -1.92321 -4.64781 0
M  V30 1181 H 107.109 -3.67802 -4.58253 0
M  V30 1182 H 108.633 -3.06218 -5.28264 0
M  V30 1183 H 110.047 -4.5133 -3.53517 0
M  V30 1184 H 108.444 -5.15493 -3.07225 0
M  V30 1185 H 109.514 -4.49321 -1.82316 0
M  V30 1186 N 110.857 0.726932 -1.39834 0
M  V30 1187 C 111.767 1.87131 -1.41489 0
M  V30 1188 C 112.783 1.71239 -0.308757 0
M  V30 1189 O 113.959 1.93701 -0.551529 0
M  V30 1190 C 111.024 3.22811 -1.26468 0
M  V30 1191 C 110.085 3.51039 -2.47124 0
M  V30 1192 C 109.318 4.80245 -2.3281 0
M  V30 1193 O 109.541 5.54537 -1.33585 0
M  V30 1194 O 108.475 5.08554 -3.21957 0
M  V30 1195 H 112.301 1.8869 -2.3797 0
M  V30 1196 H 109.886 0.875837 -1.21035 0
M  V30 1197 H 111.768 4.03877 -1.20255 0
M  V30 1198 H 110.443 3.22005 -0.330862 0
M  V30 1199 H 109.35 2.70027 -2.58914 0
M  V30 1200 H 110.683 3.56632 -3.39227 0
M  V30 1201 N 112.336 1.25143 0.95797 0
M  V30 1202 C 113.299 1.05321 2.03569 0
M  V30 1203 C 114.299 0.007152 1.60798 0
M  V30 1204 O 115.489 0.24903 1.72411 0
M  V30 1205 C 112.621 0.598394 3.35607 0
M  V30 1206 H 113.814 2.00986 2.22586 0
M  V30 1207 H 111.367 1.07502 1.13459 0
M  V30 1208 H 112.102 -0.361014 3.22284 0
M  V30 1209 H 111.887 1.35351 3.67998 0
M  V30 1210 H 113.377 0.48104 4.1482 0
M  V30 1211 N 113.814 -1.1601 1.06675 0
M  V30 1212 C 114.777 -2.18724 0.685001 0
M  V30 1213 C 115.777 -1.58496 -0.271246 0
M  V30 1214 O 116.967 -1.74119 -0.0531156 0
M  V30 1215 C 114.099 -3.40899 0.00853648 0
M  V30 1216 H 115.292 -2.54011 1.59431 0
M  V30 1217 H 112.845 -1.30352 0.862441 0
M  V30 1218 H 113.58 -3.11173 -0.913337 0
M  V30 1219 H 113.365 -3.8587 0.696204 0
M  V30 1220 H 114.855 -4.16886 -0.24414 0
M  V30 1221 N 115.292 -0.849877 -1.32721 0
M  V30 1222 C 116.222 -0.306308 -2.31482 0
M  V30 1223 C 117.203 0.591952 -1.59468 0
M  V30 1224 O 118.388 0.513199 -1.87296 0
M  V30 1225 C 115.518 0.510204 -3.43532 0
M  V30 1226 C 114.472 -0.293209 -4.26994 0
M  V30 1227 C 113.798 0.647743 -5.30762 0
M  V30 1228 C 115.098 -1.51634 -4.99804 0
M  V30 1229 H 116.792 -1.13153 -2.77195 0
M  V30 1230 H 114.338 -0.545553 -1.33266 0
M  V30 1231 H 116.291 0.900856 -4.11658 0
M  V30 1232 H 115.015 1.36874 -2.96535 0
M  V30 1233 H 113.674 -0.665555 -3.60508 0
M  V30 1234 H 113.322 1.50299 -4.8002 0
M  V30 1235 H 113.022 0.11422 -5.87489 0
M  V30 1236 H 114.546 1.03567 -6.01753 0
M  V30 1237 H 115.96 -1.19824 -5.60638 0
M  V30 1238 H 114.357 -1.98745 -5.66234 0
M  V30 1239 H 115.427 -2.28018 -4.27943 0
M  V30 1240 N 116.77 1.45427 -0.607355 0
M  V30 1241 C 117.733 2.28974 0.101693 0
M  V30 1242 C 118.733 1.39754 0.795329 0
M  V30 1243 O 119.923 1.61878 0.643527 0
M  V30 1244 C 117.055 3.20768 1.15414 0
M  V30 1245 H 118.248 2.93147 -0.632844 0
M  V30 1246 H 115.801 1.51945 -0.366391 0
M  V30 1247 H 116.536 2.61395 1.91945 0
M  V30 1248 H 116.321 3.86489 0.66098 0
M  V30 1249 H 117.811 3.83589 1.65073 0
M  V30 1250 N 118.248 0.346503 1.53744 0
M  V30 1251 C 119.488 -0.249413 2.02873 0
M  V30 1252 C 119.852 -1.47532 1.22876 0
M  V30 1253 O 121.053 -2.1456 1.61918 0
M  V30 1254 C 119.324 -0.552909 3.53097 0
M  V30 1255 S 120.883 -1.12521 4.24128 0
M  V30 1256 H 117.701 -0.074042 0.707134 0
M  V30 1257 H 120.303 0.48495 1.8939 0
M  V30 1258 H 119.007 0.347083 4.0893 0
M  V30 1259 H 118.538 -1.31686 3.70705 0
M  V30 1260 H 120.553 -2.41075 4.33702 0
M  V30 1261 N 119.726 -1.57421 0.075193 0
M  V30 1262 C 120.689 -2.11791 -0.876203 0
M  V30 1263 C 121.689 -1.04268 -1.22412 0
M  V30 1264 O 122.879 -1.30242 -1.15684 0
M  V30 1265 C 120.011 -2.62207 -2.17854 0
M  V30 1266 H 121.204 -2.9716 -0.40444 0
M  V30 1267 H 118.757 -1.55333 -0.173557 0
M  V30 1268 H 119.492 -1.803 -2.6956 0
M  V30 1269 H 119.277 -3.40802 -1.93897 0
M  V30 1270 H 120.767 -3.04335 -2.85955 0
M  V30 1271 N 121.204 0.198386 -1.56346 0
M  V30 1272 C 122.62 0.549085 -1.49857 0
M  V30 1273 C 122.82 1.86016 -0.774611 0
M  V30 1274 O 121.876 2.50416 -0.323776 0
M  V30 1275 C 123.189 0.606868 -2.94512 0
M  V30 1276 C 124.737 0.695925 -3.05165 0
M  V30 1277 C 125.212 0.784848 -4.51225 0
M  V30 1278 N 126.703 0.848463 -4.55363 0
M  V30 1279 C 127.438 0.937378 -5.65686 0
M  V30 1280 N 126.934 0.9888 -6.85707 0
M  V30 1281 N 128.727 0.974312 -5.53592 0
M  V30 1282 H 120.878 -0.661655 -2.01831 0
M  V30 1283 H 123.141 -0.235261 -0.918344 0
M  V30 1284 H 122.847 -0.28732 -3.50524 0
M  V30 1285 H 122.721 1.46268 -3.47686 0
M  V30 1286 H 125.108 1.58055 -2.49204 0
M  V30 1287 H 125.189 -0.186022 -2.55123 0
M  V30 1288 H 124.833 -0.0954072 -5.0781 0
M  V30 1289 H 124.763 1.68255 -4.98997 0
M  V30 1290 H 127.254 0.818103 -3.68938 0
M  V30 1291 H 127.567 1.05707 -7.65536 0
M  V30 1292 H 125.912 0.957534 -6.88372 0
M  V30 1293 H 129.103 0.930954 -4.58749 0
M  V30 1294 H 129.276 1.04015 -6.39597 0
M  V30 1295 N 122.682 1.50554 0.465978 0
M  V30 1296 C 123.93 1.61479 1.21528 0
M  V30 1297 C 124.251 0.319596 1.92363 0
M  V30 1298 O 123.521 -0.663194 1.84333 0
M  V30 1299 H 122.101 0.595055 0.451573 0
M  V30 1300 H 124.763 1.87355 0.53704 0
M  V30 1301 H 123.859 2.42846 1.96042 0
M  V30 1302 N 124.16 -0.719506 1.40217 0
M  V30 1303 C 125.123 -1.8153 1.39927 0
M  V30 1304 C 126.123 -1.58095 0.293723 0
M  V30 1305 O 127.313 -1.65209 0.552429 0
M  V30 1306 C 124.445 -3.19561 1.18716 0
M  V30 1307 H 125.638 -1.83186 2.37451 0
M  V30 1308 H 123.191 -0.924746 1.26008 0
M  V30 1309 H 123.926 -3.23557 0.219366 0
M  V30 1310 H 123.711 -3.3797 1.98793 0
M  V30 1311 H 125.201 -3.99598 1.21291 0
M  V30 1312 N 125.638 -1.25649 -0.95132 0
M  V30 1313 C 126.915 -1.01361 -1.67288 0
M  V30 1314 C 127.295 0.459135 -2.06046 0
M  V30 1315 O 126.643 1.43723 -1.7764 0
M  V30 1316 C 126.853 -1.95256 -2.89268 0
M  V30 1317 C 128.201 -2.23289 -3.61147 0
M  V30 1318 O 129.225 -1.93041 -2.99355 0
M  V30 1319 O 128.084 -2.74741 -4.72419 0
M  V30 1320 H 125.178 -0.38464 -0.732107 0
M  V30 1321 H 127.724 -1.36817 -1.00395 0
M  V30 1322 H 126.496 -2.94685 -2.57442 0
M  V30 1323 H 126.119 -1.60218 -3.6389 0
M  V30 1324 N 127.117 1.15442 -1.07289 0
M  V30 1325 C 128.027 2.23786 -0.704057 0
M  V30 1326 C 129.043 1.7166 0.284413 0
M  V30 1327 O 130.219 2.00972 0.131205 0
M  V30 1328 C 127.284 3.46535 -0.106792 0
M  V30 1329 C 126.345 4.13654 -1.14842 0
M  V30 1330 C 125.578 5.30544 -0.57956 0
M  V30 1331 O 125.801 5.67187 0.604585 0
M  V30 1332 O 124.735 5.87154 -1.32414 0
M  V30 1333 H 128.561 2.57664 -1.60757 0
M  V30 1334 H 126.146 1.23152 -0.845803 0
M  V30 1335 H 128.028 4.20804 0.224048 0
M  V30 1336 H 126.703 3.14407 0.770049 0
M  V30 1337 H 125.61 3.4131 -1.5316 0
M  V30 1338 H 126.943 4.49861 -1.99714 0
M  V30 1339 N 128.595 0.856903 1.32268 0
M  V30 1340 C 129.841 0.462069 1.97466 0
M  V30 1341 C 130.174 -0.980298 1.67642 0
M  V30 1342 O 129.449 -1.68824 0.965858 0
M  V30 1343 C 129.732 0.704336 3.53145 0
M  V30 1344 C 129.585 2.19529 3.9259 0
M  V30 1345 C 130.904 0.1622 4.39801 0
M  V30 1346 H 128.023 0.169357 0.717278 0
M  V30 1347 H 130.665 1.07574 1.56614 0
M  V30 1348 H 128.815 0.181999 3.88073 0
M  V30 1349 H 130.487 2.78387 3.67829 0
M  V30 1350 H 128.73 2.67292 3.41668 0
M  V30 1351 H 129.401 2.31549 5.01088 0
M  V30 1352 H 131.877 0.608905 4.11621 0
M  V30 1353 H 130.753 0.361265 5.4771 0
M  V30 1354 H 131.014 -0.935158 4.32096 0
M  V30 1355 N 130.073 -1.45103 0.615059 0
M  V30 1356 C 131.35 -1.95549 0.0448276 0
M  V30 1357 C 131.73 -1.55737 -1.4251 0
M  V30 1358 O 131.078 -0.823556 -2.13143 0
M  V30 1359 C 131.288 -3.48098 0.250785 0
M  V30 1360 C 132.636 -4.24384 0.135509 0
M  V30 1361 O 133.66 -3.55738 0.181299 0
M  V30 1362 O 132.519 -5.46493 0.0268878 0
M  V30 1363 H 129.613 -0.8264 -0.0314845 0
M  V30 1364 H 132.159 -1.55232 0.685642 0
M  V30 1365 H 130.931 -3.7007 1.27139 0
M  V30 1366 H 130.554 -3.95323 -0.424937 0
M  V30 1367 N 131.551 -0.354651 -1.53558 0
M  V30 1368 C 132.484 0.540273 -2.21712 0
M  V30 1369 C 133.462 1.09161 -1.2051 0
M  V30 1370 O 134.646 1.14979 -1.49372 0
M  V30 1371 C 131.773 1.74435 -2.90328 0
M  V30 1372 C 130.819 1.32146 -4.05512 0
M  V30 1373 S 131.652 0.331924 -5.3447 0
M  V30 1374 C 132.808 1.54258 -6.06593 0
M  V30 1375 H 133.041 -0.0385776 -2.97275 0
M  V30 1376 H 130.574 -0.138736 -1.53775 0
M  V30 1377 H 132.532 2.43507 -3.30476 0
M  V30 1378 H 131.193 2.29444 -2.1451 0
M  V30 1379 H 130.386 2.21952 -4.52497 0
M  V30 1380 H 129.988 0.710091 -3.67197 0
M  V30 1381 H 132.28 2.47534 -6.30661 0
M  V30 1382 H 133.223 1.11431 -6.99277 0
M  V30 1383 H 133.631 1.74367 -5.36895 0
M  V30 1384 N 133.029 1.57378 -0.0835403 0
M  V30 1385 C 134.275 1.94217 0.583733 0
M  V30 1386 C 134.608 0.964653 1.68547 0
M  V30 1387 O 133.883 -0.00422258 1.945 0
M  V30 1388 C 134.166 3.41253 1.14972 0
M  V30 1389 C 134.019 4.49768 0.0538277 0
M  V30 1390 C 135.338 3.89352 2.05166 0
M  V30 1391 H 132.457 0.706233 0.210724 0
M  V30 1392 H 135.099 1.89392 -0.1519 0
M  V30 1393 H 133.249 3.45496 1.77665 0
M  V30 1394 H 134.921 4.57641 -0.579851 0
M  V30 1395 H 133.164 4.29432 -0.614068 0
M  V30 1396 H 133.835 5.49817 0.490452 0
M  V30 1397 H 136.311 3.87189 1.52393 0
M  V30 1398 H 135.187 4.92822 2.41698 0
M  V30 1399 H 135.448 3.27973 2.96456 0
M  V30 1400 N 134.507 -0.190092 1.56449 0
M  V30 1401 C 135.437 -1.23816 1.97969 0
M  V30 1402 C 136.418 -1.47201 0.852395 0
M  V30 1403 O 137.603 -1.58854 1.1171 0
M  V30 1404 C 134.733 -2.5813 2.3235 0
M  V30 1405 C 133.687 -2.49348 3.47864 0
M  V30 1406 C 133.013 -3.8798 3.67934 0
M  V30 1407 C 134.313 -2.01424 4.81898 0
M  V30 1408 H 136.007 -0.89311 2.85769 0
M  V30 1409 H 133.553 -0.428177 1.37487 0
M  V30 1410 H 135.506 -3.31637 2.59991 0
M  V30 1411 H 134.23 -2.94386 1.41438 0
M  V30 1412 H 132.889 -1.78297 3.20321 0
M  V30 1413 H 132.537 -4.21597 2.74344 0
M  V30 1414 H 132.237 -3.82978 4.45648 0
M  V30 1415 H 133.761 -4.63101 3.97957 0
M  V30 1416 H 135.175 -2.64693 5.08538 0
M  V30 1417 H 133.572 -2.07413 5.63116 0
M  V30 1418 H 134.642 -0.967677 4.75146 0
M  V30 1419 N 135.985 -1.50799 -0.457987 0
M  V30 1420 C 136.935 -1.67003 -1.55222 0
M  V30 1421 C 137.919 -0.52434 -1.52117 0
M  V30 1422 O 139.111 -0.779345 -1.58919 0
M  V30 1423 C 136.24 -1.77956 -2.93576 0
M  V30 1424 C 135.326 -2.98243 -3.01516 0
M  V30 1425 N 135.717 -4.21732 -2.79241 0
M  V30 1426 C 134.015 -2.97072 -3.32662 0
M  V30 1427 C 134.716 -5.02817 -2.92489 0
M  V30 1428 N 133.692 -4.37038 -3.23262 0
M  V30 1429 H 137.494 -2.60163 -1.36721 0
M  V30 1430 H 135.008 -1.48163 -0.664952 0
M  V30 1431 H 137.005 -1.87671 -3.72271 0
M  V30 1432 H 135.665 -0.859634 -3.13114 0
M  V30 1433 H 136.676 -4.51016 -2.54567 0
M  V30 1434 H 133.353 -2.14631 -3.58106 0
M  V30 1435 H 134.743 -6.11054 -2.79396 0
M  V30 1436 N 137.463 0.71206 -1.40597 0
M  V30 1437 C 138.393 1.83889 -1.43899 0
M  V30 1438 C 139.374 1.67442 -0.299504 0
M  V30 1439 O 140.559 1.87421 -0.508624 0
M  V30 1440 C 137.689 3.21877 -1.30431 0
M  V30 1441 C 136.643 3.53002 -2.42019 0
M  V30 1442 C 135.969 4.90172 -2.13626 0
M  V30 1443 C 137.269 3.53643 -3.84362 0
M  V30 1444 H 138.963 1.81383 -2.38203 0
M  V30 1445 H 136.509 0.871237 -1.14654 0
M  V30 1446 H 138.462 4.00404 -1.31357 0
M  V30 1447 H 137.186 3.24968 -0.326049 0
M  V30 1448 H 135.845 2.76818 -2.40349 0
M  V30 1449 H 135.493 4.89869 -1.14182 0
M  V30 1450 H 135.193 5.11962 -2.88389 0
M  V30 1451 H 136.717 5.71028 -2.1624 0
M  V30 1452 H 138.131 4.22203 -3.87837 0
M  V30 1453 H 136.528 3.86961 -4.58673 0
M  V30 1454 H 137.598 2.52954 -4.13693 0
M  V30 1455 N 138.941 1.26152 0.944643 0
M  V30 1456 C 140.189 1.11271 1.6871 0
M  V30 1457 C 140.51 -0.345166 1.91921 0
M  V30 1458 O 139.78 -1.24387 1.51343 0
M  V30 1459 H 138.36 0.408783 0.625224 0
M  V30 1460 H 141.022 1.58427 1.1352 0
M  V30 1461 H 140.118 1.62879 2.66227 0
M  V30 1462 N 140.419 -1.14872 1.07899 0
M  V30 1463 C 141.835 -1.37776 0.805606 0
M  V30 1464 C 142.035 -1.92743 -0.587555 0
M  V30 1465 O 141.091 -2.13678 -1.34528 0
M  V30 1466 C 142.404 -2.34361 1.88402 0
M  V30 1467 C 143.952 -2.48012 1.90942 0
M  V30 1468 C 144.427 -3.47893 2.97883 0
M  V30 1469 N 145.918 -3.55433 2.97021 0
M  V30 1470 C 146.653 -4.32553 3.76412 0
M  V30 1471 N 146.149 -5.12959 4.65666 0
M  V30 1472 N 147.942 -4.27697 3.64735 0
M  V30 1473 H 140.093 -0.775365 1.97742 0
M  V30 1474 H 142.356 -0.403521 0.857831 0
M  V30 1475 H 142.062 -2.01098 2.88535 0
M  V30 1476 H 141.936 -3.34206 1.74889 0
M  V30 1477 H 144.323 -2.8057 0.914579 0
M  V30 1478 H 144.404 -1.48147 2.08534 0
M  V30 1479 H 144.048 -3.16069 3.97571 0
M  V30 1480 H 143.978 -4.47527 2.77538 0
M  V30 1481 H 146.469 -2.98048 2.32326 0
M  V30 1482 H 146.782 -5.69065 5.22862 0
M  V30 1483 H 145.127 -5.12245 4.69712 0
M  V30 1484 H 148.318 -3.63949 2.94378 0
M  V30 1485 H 148.491 -4.8755 4.26848 0
M  V30 1486 N 141.898 -0.863906 -1.31812 0
M  V30 1487 C 142.861 -0.320212 -2.26952 0
M  V30 1488 C 143.861 0.525369 -1.51975 0
M  V30 1489 O 145.051 0.335547 -1.70938 0
M  V30 1490 C 142.183 0.545919 -3.365 0
M  V30 1491 H 143.376 -1.16004 -2.76556 0
M  V30 1492 H 140.929 -0.638995 -1.42641 0
M  V30 1493 H 141.664 1.40718 -2.92179 0
M  V30 1494 H 141.449 -0.0594674 -3.92055 0
M  V30 1495 H 142.939 0.918796 -4.07367 0
M  V30 1496 N 143.376 1.44774 -0.622745 0
M  V30 1497 C 144.323 2.30635 0.0871679 0
M  V30 1498 C 145.293 1.42994 0.845097 0
M  V30 1499 O 146.478 1.71907 0.827812 0
M  V30 1500 C 143.618 3.28144 1.06844 0
M  V30 1501 C 142.731 4.30888 0.309809 0
M  V30 1502 C 141.866 5.15494 1.28215 0
M  V30 1503 C 140.905 6.09953 0.512198 0
M  V30 1504 N 140.042 6.87287 1.43458 0
M  V30 1505 H 144.882 2.90803 -0.650974 0
M  V30 1506 H 142.419 1.43286 -0.33281 0
M  V30 1507 H 144.377 3.83157 1.65066 0
M  V30 1508 H 143.007 2.69695 1.77382 0
M  V30 1509 H 142.059 3.78414 -0.388181 0
M  V30 1510 H 143.371 4.97955 -0.290254 0
M  V30 1511 H 142.525 5.74983 1.93596 0
M  V30 1512 H 141.264 4.48481 1.91614 0
M  V30 1513 H 140.269 5.49581 -0.155151 0
M  V30 1514 H 141.494 6.78999 -0.116958 0
M  V30 1515 H 139.44 6.2295 2.05594 0
M  V30 1516 H 139.357 7.50763 0.888335 0
M  V30 1517 H 140.625 7.51306 2.07749 0
M  V30 1518 N 144.854 0.36279 1.53368 0
M  V30 1519 C 145.817 -0.472679 2.24273 0
M  V30 1520 C 146.817 -1.012 1.24961 0
M  V30 1521 O 148.007 -0.898194 1.49259 0
M  V30 1522 C 145.139 -1.66039 2.97731 0
M  V30 1523 H 146.332 0.14773 2.99536 0
M  V30 1524 H 143.885 0.114434 1.55881 0
M  V30 1525 H 144.62 -2.31896 2.26704 0
M  V30 1526 H 144.405 -1.28066 3.70596 0
M  V30 1527 H 145.895 -2.25252 3.51641 0
M  V30 1528 N 146.332 -1.57332 0.0918853 0
M  V30 1529 C 147.58 -1.93853 -0.571446 0
M  V30 1530 C 147.901 -0.974212 -1.6892 0
M  V30 1531 O 147.171 -0.0257254 -1.95883 0
M  V30 1532 H 145.751 -0.715666 -0.214082 0
M  V30 1533 H 148.413 -1.94287 0.154464 0
M  V30 1534 H 147.509 -2.96191 -0.983729 0
M  V30 1535 N 147.81 0.181792 -1.56548 0
M  V30 1536 C 149.087 0.926765 -1.72251 0
M  V30 1537 C 149.467 2.00831 -0.650386 0
M  V30 1538 O 148.815 2.26008 0.336521 0
M  V30 1539 C 149.025 1.50106 -3.1507 0
M  V30 1540 C 150.373 1.97805 -3.75711 0
M  V30 1541 O 151.397 1.59922 -3.18282 0
M  V30 1542 O 150.256 2.67555 -4.76525 0
M  V30 1543 H 147.35 0.435506 -0.703039 0
M  V30 1544 H 149.896 0.170443 -1.68842 0
M  V30 1545 H 148.668 0.72212 -3.84579 0
M  V30 1546 H 148.291 2.32186 -3.22763 0
M  V30 1547 N 149.288 1.51039 0.449983 0
M  V30 1548 C 150.218 1.74379 1.55288 0
M  V30 1549 C 151.199 0.593236 1.5942 0
M  V30 1550 O 152.384 0.834625 1.7535 0
M  V30 1551 C 149.514 1.85728 2.93466 0
M  V30 1552 C 148.468 3.01078 3.04197 0
M  V30 1553 C 147.794 2.97595 4.44231 0
M  V30 1554 C 149.094 4.41254 2.7945 0
M  V30 1555 H 150.788 2.66725 1.36008 0
M  V30 1556 H 148.334 1.2835 0.652864 0
M  V30 1557 H 150.287 2.0064 3.70569 0
M  V30 1558 H 149.011 0.900207 3.13949 0
M  V30 1559 H 147.67 2.85851 2.29531 0
M  V30 1560 H 147.318 1.99691 4.61663 0
M  V30 1561 H 147.018 3.75046 4.52343 0
M  V30 1562 H 148.542 3.14583 5.23326 0
M  V30 1563 H 149.956 4.56897 3.46292 0
M  V30 1564 H 148.353 5.20315 2.98985 0
M  V30 1565 H 149.423 4.52164 1.75144 0
M  V30 1566 N 150.766 -0.704594 1.40972 0
M  V30 1567 C 152.043 -1.45847 1.30338 0
M  V30 1568 C 152.423 -2.10973 -0.0732344 0
M  V30 1569 O 151.771 -2.00997 -1.08685 0
M  V30 1570 C 151.981 -2.48525 2.45023 0
M  V30 1571 C 153.329 -3.1404 2.8577 0
M  V30 1572 O 154.353 -2.58848 2.44696 0
M  V30 1573 O 153.212 -4.13981 3.56766 0
M  V30 1574 H 150.306 -0.649092 0.512454 0
M  V30 1575 H 152.852 -0.735836 1.52917 0
M  V30 1576 H 151.624 -1.98994 3.36923 0
M  V30 1577 H 151.247 -3.2831 2.24272 0
M  V30 1578 N 152.244 -1.26651 -0.937939 0
M  V30 1579 C 153.474 -1.15006 -1.71631 0
M  V30 1580 C 153.882 0.297026 -1.86854 0
M  V30 1581 O 153.225 1.21493 -1.37786 0
M  V30 1582 C 153.287 -1.74984 -3.14039 0
M  V30 1583 C 152.951 -3.24103 -3.2219 0
M  V30 1584 C 153.948 -4.20877 -3.05219 0
M  V30 1585 C 151.633 -3.64625 -3.45476 0
M  V30 1586 C 153.627 -5.56151 -3.11408 0
M  V30 1587 C 151.314 -5.00032 -3.513 0
M  V30 1588 C 152.312 -5.95604 -3.34282 0
M  V30 1589 O 152 -7.28545 -3.3982 0
M  V30 1590 H 151.732 -0.401183 -0.544085 0
M  V30 1591 H 154.286 -1.67832 -1.18413 0
M  V30 1592 H 152.516 -1.16624 -3.68695 0
M  V30 1593 H 154.205 -1.58199 -3.73802 0
M  V30 1594 H 154.971 -3.90908 -2.87081 0
M  V30 1595 H 150.85 -2.90718 -3.57777 0
M  V30 1596 H 154.394 -6.30727 -2.98043 0
M  V30 1597 H 150.291 -5.29659 -3.68959 0
M  V30 1598 H 151.059 -7.3686 -3.56343 0
M  V30 1599 N 153.722 1.14298 -1.08507 0
M  V30 1600 C 154.652 2.21542 -0.737646 0
M  V30 1601 C 155.633 1.67773 0.280377 0
M  V30 1602 O 156.818 1.93616 0.150521 0
M  V30 1603 C 153.948 3.46988 -0.147259 0
M  V30 1604 C 152.902 4.13789 -1.09374 0
M  V30 1605 C 152.228 5.33449 -0.365524 0
M  V30 1606 C 153.528 4.62208 -2.4323 0
M  V30 1607 H 155.222 2.5086 -1.6343 0
M  V30 1608 H 152.768 1.20576 -0.787243 0
M  V30 1609 H 154.721 4.21262 0.107808 0
M  V30 1610 H 153.445 3.17037 0.784538 0
M  V30 1611 H 152.104 3.4147 -1.33393 0
M  V30 1612 H 151.752 4.99759 0.57011 0
M  V30 1613 H 151.452 5.79088 -0.996512 0
M  V30 1614 H 152.976 6.10485 -0.118534 0
M  V30 1615 H 154.39 5.27952 -2.23472 0
M  V30 1616 H 152.787 5.18553 -3.02031 0
M  V30 1617 H 153.857 3.77224 -3.04681 0
M  V30 1618 N 155.201 0.870884 1.31352 0
M  V30 1619 C 156.111 0.330783 2.32256 0
M  V30 1620 C 157.127 -0.559767 1.6475 0
M  V30 1621 O 158.303 -0.456263 1.96164 0
M  V30 1622 C 155.368 -0.458137 3.4366 0
M  V30 1623 C 154.429 0.460482 4.26823 0
M  V30 1624 C 153.662 -0.290881 5.32907 0
M  V30 1625 O 153.885 -1.51885 5.49806 0
M  V30 1626 O 152.819 0.351732 6.00871 0
M  V30 1627 H 156.645 1.16718 2.80376 0
M  V30 1628 H 154.23 0.634285 1.35267 0
M  V30 1629 H 156.112 -0.905343 4.1156 0
M  V30 1630 H 154.787 -1.27106 2.97701 0
M  V30 1631 H 153.694 0.956207 3.61673 0
M  V30 1632 H 155.027 1.23903 4.7635 0
M  V30 1633 N 156.679 -1.44442 0.630414 0
M  V30 1634 C 157.642 -2.29107 -0.0652523 0
M  V30 1635 C 158.642 -1.41002 -0.772995 0
M  V30 1636 O 159.832 -1.62881 -0.617692 0
M  V30 1637 C 156.964 -3.22564 -1.10296 0
M  V30 1638 H 158.157 -2.92103 0.679401 0
M  V30 1639 H 155.71 -1.51343 0.390517 0
M  V30 1640 H 156.445 -2.64416 -1.87762 0
M  V30 1641 H 156.23 -3.87491 -0.59941 0
M  V30 1642 H 157.72 -3.86167 -1.5895 0
M  V30 1643 N 158.157 -0.370918 -1.53173 0
M  V30 1644 C 159.067 0.480823 -2.2962 0
M  V30 1645 C 160.083 1.08789 -1.35798 0
M  V30 1646 O 161.259 1.09768 -1.68858 0
M  V30 1647 C 158.324 1.60227 -3.07454 0
M  V30 1648 C 157.385 1.0222 -4.16953 0
M  V30 1649 C 156.618 2.0902 -4.91066 0
M  V30 1650 O 156.841 3.30222 -4.65091 0
M  V30 1651 O 155.775 1.71778 -5.76867 0
M  V30 1652 H 159.601 -0.141421 -3.03371 0
M  V30 1653 H 157.186 -0.135146 -1.48787 0
M  V30 1654 H 159.068 2.25417 -3.56041 0
M  V30 1655 H 157.743 2.20982 -2.36535 0
M  V30 1656 H 156.65 0.334064 -3.72605 0
M  V30 1657 H 157.983 0.459131 -4.90054 0
M  V30 1658 N 159.635 1.57281 -0.100228 0
M  V30 1659 C 160.881 1.94826 0.563101 0
M  V30 1660 C 161.214 0.982475 1.67514 0
M  V30 1661 O 160.489 0.0164069 1.94493 0
M  V30 1662 C 160.772 3.42453 1.11346 0
M  V30 1663 C 160.625 4.498 0.00612081 0
M  V30 1664 C 161.944 3.91506 2.01024 0
M  V30 1665 H 159.063 0.708428 0.203221 0
M  V30 1666 H 161.705 1.8922 -0.171979 0
M  V30 1667 H 159.855 3.47361 1.7399 0
M  V30 1668 H 161.527 4.57 -0.628357 0
M  V30 1669 H 159.77 4.28756 -0.659581 0
M  V30 1670 H 160.441 5.50306 0.432109 0
M  V30 1671 H 162.917 3.88784 1.48278 0
M  V30 1672 H 161.793 4.95358 2.36457 0
M  V30 1673 H 162.054 3.31099 2.92961 0
M  V30 1674 N 161.113 -0.173488 1.56642 0
M  V30 1675 C 162.529 -0.525174 1.50712 0
M  V30 1676 C 162.729 -1.8476 0.804107 0
M  V30 1677 O 161.785 -2.49869 0.363574 0
M  V30 1678 C 163.098 -0.559937 2.95441 0
M  V30 1679 C 164.646 -0.647288 3.06234 0
M  V30 1680 C 165.121 -0.712963 4.52417 0
M  V30 1681 N 166.612 -0.775911 4.56655 0
M  V30 1682 C 167.347 -0.847264 5.67106 0
M  V30 1683 N 166.843 -0.879585 6.87194 0
M  V30 1684 N 168.636 -0.886117 5.55071 0
M  V30 1685 H 160.787 0.693681 2.00753 0
M  V30 1686 H 163.05 0.249841 0.914485 0
M  V30 1687 H 162.756 0.343049 3.50023 0
M  V30 1688 H 162.63 -1.40718 3.49969 0
M  V30 1689 H 165.017 -1.5407 2.51687 0
M  V30 1690 H 165.098 0.226586 2.54794 0
M  V30 1691 H 164.742 0.176183 5.07594 0
M  V30 1692 H 164.672 -1.60295 5.0161 0
M  V30 1693 H 167.163 -0.759304 3.70193 0
M  V30 1694 H 167.476 -0.935144 7.67121 0
M  V30 1695 H 165.821 -0.847898 6.89808 0
M  V30 1696 H 169.012 -0.857853 4.60172 0
M  V30 1697 H 169.185 -0.938263 6.41171 0
M  V30 1698 N 162.591 -1.51276 -0.441967 0
M  V30 1699 C 163.554 -1.7167 -1.51862 0
M  V30 1700 C 164.554 -0.586793 -1.49711 0
M  V30 1701 O 165.744 -0.854276 -1.51815 0
M  V30 1702 C 162.876 -1.76889 -2.91416 0
M  V30 1703 H 164.069 -2.67754 -1.35084 0
M  V30 1704 H 161.622 -1.41196 -0.670333 0
M  V30 1705 H 162.357 -0.826026 -3.13604 0
M  V30 1706 H 162.142 -2.59001 -2.94382 0
M  V30 1707 H 163.632 -1.94522 -3.69528 0
M  V30 1708 N 164.069 0.697108 -1.41344 0
M  V30 1709 C 165.315 1.4593 -1.40827 0
M  V30 1710 C 165.648 1.94193 -0.0167098 0
M  V30 1711 O 164.923 1.69425 0.955263 0
M  V30 1712 C 165.206 2.67229 -2.41373 0
M  V30 1713 C 165.059 2.24741 -3.8963 0
M  V30 1714 C 166.378 3.69423 -2.39196 0
M  V30 1715 H 163.497 0.529303 -0.512842 0
M  V30 1716 H 166.139 0.794112 -1.72609 0
M  V30 1717 H 164.289 3.23982 -2.14401 0
M  V30 1718 H 165.961 1.73327 -4.27499 0
M  V30 1719 H 164.204 1.56542 -4.0457 0
M  V30 1720 H 164.875 3.1177 -4.55525 0
M  V30 1721 H 167.351 3.2234 -2.63128 0
M  V30 1722 H 166.227 4.51907 -3.11563 0
M  V30 1723 H 166.488 4.19012 -1.41001 0
M  V30 1724 N 165.547 1.27147 0.931209 0
M  V30 1725 C 166.963 1.04475 1.20653 0
M  V30 1726 C 167.163 -0.223885 2.00252 0
M  V30 1727 O 166.219 -0.930332 2.34736 0
M  V30 1728 C 167.532 2.28209 1.95809 0
M  V30 1729 C 169.08 2.33211 2.08762 0
M  V30 1730 C 169.555 3.56665 2.87323 0
M  V30 1731 N 171.046 3.57201 2.94892 0
M  V30 1732 C 171.781 4.49395 3.56134 0
M  V30 1733 N 171.277 5.51889 4.18796 0
M  V30 1734 N 173.07 4.37026 3.53504 0
M  V30 1735 H 165.221 2.08612 0.399333 0
M  V30 1736 H 167.484 0.917312 0.239253 0
M  V30 1737 H 167.19 3.20538 1.44736 0
M  V30 1738 H 167.064 2.33247 2.96438 0
M  V30 1739 H 169.451 1.41391 2.59023 0
M  V30 1740 H 169.532 2.32178 1.07364 0
M  V30 1741 H 169.176 4.4882 2.37746 0
M  V30 1742 H 169.106 3.54948 3.88998 0
M  V30 1743 H 171.597 2.83074 2.50354 0
M  V30 1744 H 171.91 6.18409 4.63454 0
M  V30 1745 H 170.255 5.55735 4.17353 0
M  V30 1746 H 173.446 3.56166 3.03749 0
M  V30 1747 H 173.619 5.09067 4.00942 0
M  V30 1748 N 167.025 -1.13721 1.09112 0
M  V30 1749 C 167.935 -2.22638 0.73957 0
M  V30 1750 C 168.951 -1.72091 -0.257068 0
M  V30 1751 O 170.127 -2.01155 -0.0992154 0
M  V30 1752 C 167.192 -3.46322 0.16191 0
M  V30 1753 C 166.253 -4.11775 1.21408 0
M  V30 1754 C 165.486 -5.29555 0.663891 0
M  V30 1755 O 165.709 -5.68077 -0.514274 0
M  V30 1756 O 164.643 -5.84973 1.41738 0
M  V30 1757 H 168.469 -2.55074 1.64836 0
M  V30 1758 H 166.054 -1.21791 0.865289 0
M  V30 1759 H 167.936 -4.21107 -0.157073 0
M  V30 1760 H 166.611 -3.15593 -0.719932 0
M  V30 1761 H 165.518 -3.3883 1.58571 0
M  V30 1762 H 166.851 -4.46627 2.06845 0
M  V30 1763 N 168.503 -0.877838 -1.30888 0
M  V30 1764 C 169.466 -0.344265 -2.266 0
M  V30 1765 C 170.466 0.50922 -1.52524 0
M  V30 1766 O 171.656 0.317398 -1.71284 0
M  V30 1767 C 168.788 0.510198 -3.37061 0
M  V30 1768 H 169.981 -1.1893 -2.7531 0
M  V30 1769 H 167.534 -0.654088 -1.41956 0
M  V30 1770 H 168.269 1.37612 -2.93655 0
M  V30 1771 H 168.054 -0.101047 -3.9197 0
M  V30 1772 H 169.544 0.875537 -4.08319 0
M  V30 1773 N 169.982 1.44106 -0.638065 0
M  V30 1774 C 171.228 2.02277 -0.145546 0
M  V30 1775 C 171.561 1.50125 1.23191 0
M  V30 1776 O 170.836 0.688133 1.8192 0
M  V30 1777 C 171.119 3.59829 -0.139791 0
M  V30 1778 C 170.972 4.22247 -1.55008 0
M  V30 1779 C 172.291 4.36873 0.531966 0
M  V30 1780 H 169.41 0.734992 -0.0543632 0
M  V30 1781 H 172.052 1.71592 -0.815863 0
M  V30 1782 H 170.202 3.86102 0.431007 0
M  V30 1783 H 171.874 4.07057 -2.1703 0
M  V30 1784 H 170.117 3.79476 -2.10191 0
M  V30 1785 H 170.788 5.31284 -1.49804 0
M  V30 1786 H 173.264 4.16074 0.0464781 0
M  V30 1787 H 172.14 5.4657 0.505206 0
M  V30 1788 H 172.401 4.11995 1.60352 0
M  V30 1789 N 171.46 0.379036 1.52974 0
M  V30 1790 C 172.871 -0.0972525 1.86447 0
M  V30 1791 C 173.222 -1.47027 1.29914 0
M  V30 1792 O 172.347 -2.07135 0.626433 0
M  V30 1793 C 172.942 -0.183248 3.38304 0
M  V30 1794 C 171.501 -0.603812 3.71525 0
M  V30 1795 C 170.648 0.240632 2.76254 0
M  V30 1796 H 173.599 0.597316 1.4703 0
M  V30 1797 H 173.62 -1.00432 3.67006 0
M  V30 1798 H 173.132 0.816191 3.79421 0
M  V30 1799 H 171.233 -1.61099 3.35973 0
M  V30 1800 H 171.346 -0.369086 4.77676 0
M  V30 1801 H 169.71 -0.292548 2.53014 0
M  V30 1802 H 170.493 1.23786 3.20206 0
M  V30 1803 N 172.938 -1.57226 0.108567 0
M  V30 1804 C 173.87 -2.11809 -0.875752 0
M  V30 1805 C 174.883 -1.05839 -1.23701 0
M  V30 1806 O 176.072 -1.33245 -1.18778 0
M  V30 1807 C 173.172 -2.59411 -2.18081 0
M  V30 1808 C 172.345 -3.89364 -1.99284 0
M  V30 1809 C 171.404 -4.22672 -3.13424 0
M  V30 1810 O 170.43 -4.91668 -2.86795 0
M  V30 1811 N 171.632 -3.79154 -4.3957 0
M  V30 1812 H 174.397 -2.9689 -0.409477 0
M  V30 1813 H 171.958 -1.61721 -0.076158 0
M  V30 1814 H 173.95 -2.7873 -2.93414 0
M  V30 1815 H 172.52 -1.79268 -2.5609 0
M  V30 1816 H 171.74 -3.79059 -1.08203 0
M  V30 1817 H 173.028 -4.74358 -1.84017 0
M  V30 1818 H 172.426 -3.23486 -4.64083 0
M  V30 1819 H 170.983 -4.03602 -5.11809 0
M  V30 1820 N 174.416 0.165178 -1.56732 0
M  V30 1821 C 175.379 1.18822 -1.95995 0
M  V30 1822 C 176.379 1.3685 -0.84431 0
M  V30 1823 O 177.569 1.34152 -1.11126 0
M  V30 1824 C 174.701 2.5521 -2.26011 0
M  V30 1825 H 175.894 0.851825 -2.87548 0
M  V30 1826 H 173.447 0.407857 -1.50885 0
M  V30 1827 H 174.182 2.93852 -1.37191 0
M  V30 1828 H 173.967 2.43489 -3.07336 0
M  V30 1829 H 175.457 3.28927 -2.57288 0
M  V30 1830 N 175.894 1.51508 0.433938 0
M  V30 1831 C 177.14 1.64588 1.18484 0
M  V30 1832 C 177.473 0.362666 1.90784 0
M  V30 1833 O 176.748 -0.637892 1.83742 0
M  V30 1834 C 177.031 2.85149 2.19913 0
M  V30 1835 C 176.884 4.23456 1.51674 0
M  V30 1836 C 178.203 3.01227 3.20858 0
M  V30 1837 H 175.322 0.598994 0.429389 0
M  V30 1838 H 177.964 1.84002 0.473647 0
M  V30 1839 H 176.114 2.68729 2.80566 0
M  V30 1840 H 177.786 4.51552 0.943322 0
M  V30 1841 H 176.029 4.25998 0.819035 0
M  V30 1842 H 176.7 5.03812 2.2556 0
M  V30 1843 H 179.176 3.16382 2.70263 0
M  V30 1844 H 178.052 3.87141 3.89118 0
M  V30 1845 H 178.313 2.13447 3.8716 0
M  V30 1846 N 177.372 -0.689602 1.41712 0
M  V30 1847 C 178.302 -1.81577 1.46806 0
M  V30 1848 C 179.283 -1.66945 0.326105 0
M  V30 1849 O 180.468 -1.86588 0.538377 0
M  V30 1850 C 177.598 -3.19762 1.35535 0
M  V30 1851 C 176.552 -3.49107 2.47605 0
M  V30 1852 C 175.878 -4.86711 2.21397 0
M  V30 1853 C 177.178 -3.47483 3.89939 0
M  V30 1854 H 178.872 -1.7757 2.41058 0
M  V30 1855 H 176.418 -0.852887 1.16025 0
M  V30 1856 H 178.371 -3.98263 1.3771 0
M  V30 1857 H 177.095 -3.24409 0.377708 0
M  V30 1858 H 175.754 -2.72959 2.44722 0
M  V30 1859 H 175.402 -4.8799 1.21961 0
M  V30 1860 H 175.102 -5.0731 2.96497 0
M  V30 1861 H 176.626 -5.67515 2.25297 0
M  V30 1862 H 178.04 -4.1598 3.94505 0
M  V30 1863 H 176.437 -3.79615 4.64771 0
M  V30 1864 H 177.507 -2.46341 4.17665 0
M  V30 1865 N 178.85 -1.27639 -0.924453 0
M  V30 1866 C 179.797 -1.10644 -2.0255 0
M  V30 1867 C 180.767 -0.00658438 -1.66099 0
M  V30 1868 O 181.952 -0.16952 -1.90045 0
M  V30 1869 C 179.092 -0.76309 -3.36557 0
M  V30 1870 C 178.205 -1.94091 -3.85944 0
M  V30 1871 C 177.34 -1.53914 -5.08413 0
M  V30 1872 C 176.379 -2.68425 -5.50104 0
M  V30 1873 N 175.516 -2.28815 -6.63768 0
M  V30 1874 H 180.356 -2.04858 -2.16419 0
M  V30 1875 H 177.893 -1.01974 -1.06017 0
M  V30 1876 H 179.851 -0.544822 -4.13627 0
M  V30 1877 H 178.481 0.142102 -3.22487 0
M  V30 1878 H 177.533 -2.27162 -3.05125 0
M  V30 1879 H 178.845 -2.7998 -4.12811 0
M  V30 1880 H 177.999 -1.28231 -5.92994 0
M  V30 1881 H 176.738 -0.651391 -4.8333 0
M  V30 1882 H 175.743 -2.94819 -4.64071 0
M  V30 1883 H 176.968 -3.57826 -5.7718 0
M  V30 1884 H 174.914 -1.42495 -6.40337 0
M  V30 1885 H 174.831 -3.08242 -6.90306 0
M  V30 1886 H 176.099 -2.06387 -7.51681 0
M  V30 1887 N 180.328 1.1314 -1.09713 0
M  V30 1888 C 181.574 1.84757 -0.836224 0
M  V30 1889 C 181.907 1.8347 0.636598 0
M  V30 1890 O 181.182 1.27491 1.46889 0
M  V30 1891 C 181.465 3.32782 -1.37578 0
M  V30 1892 C 181.318 3.42567 -2.91493 0
M  V30 1893 C 182.637 4.28307 -1.01198 0
M  V30 1894 H 179.756 0.67082 -0.305236 0
M  V30 1895 H 182.398 1.3278 -1.35903 0
M  V30 1896 H 180.548 3.77177 -0.931097 0
M  V30 1897 H 182.22 3.06862 -3.44432 0
M  V30 1898 H 180.463 2.83349 -3.28475 0
M  V30 1899 H 181.134 4.46674 -3.24324 0
M  V30 1900 H 183.61 3.91999 -1.39556 0
M  V30 1901 H 182.486 5.30307 -1.41653 0
M  V30 1902 H 182.747 4.42029 0.0794833 0
M  V30 1903 N 181.806 0.884767 1.30421 0
M  V30 1904 C 183.055 0.499164 1.95426 0
M  V30 1905 C 183.368 -0.95645 1.70621 0
M  V30 1906 O 184.574 -1.44889 2.29607 0
M  V30 1907 C 183.03 0.84177 3.49917 0
M  V30 1908 C 182.638 2.31514 3.83543 0
M  V30 1909 C 184.382 0.525355 4.21237 0
M  V30 1910 C 182.289 2.59939 5.31212 0
M  V30 1911 H 181.219 0.182944 0.73147 0
M  V30 1912 H 183.87 1.07971 1.48373 0
M  V30 1913 H 182.252 0.190311 3.95542 0
M  V30 1914 H 183.426 3.0109 3.48829 0
M  V30 1915 H 181.741 2.59907 3.25326 0
M  V30 1916 H 184.338 0.714762 5.29901 0
M  V30 1917 H 184.681 -0.535222 4.12845 0
M  V30 1918 H 185.214 1.134 3.81294 0
M  V30 1919 H 181.953 3.64736 5.44654 0
M  V30 1920 H 181.473 1.94972 5.67227 0
M  V30 1921 H 183.152 2.45429 5.98643 0
M  V30 1922 N 183.284 -1.43765 0.645699 0
M  V30 1923 C 184.214 -2.33471 -0.0370477 0
M  V30 1924 C 185.195 -1.49042 -0.819779 0
M  V30 1925 O 186.38 -1.77726 -0.782758 0
M  V30 1926 C 183.51 -3.32311 -1.0093 0
M  V30 1927 C 182.464 -4.2667 -0.337201 0
M  V30 1928 C 181.79 -5.1549 -1.42037 0
M  V30 1929 C 183.09 -5.16657 0.765706 0
M  V30 1930 H 184.784 -2.90809 0.712069 0
M  V30 1931 H 182.33 -1.39834 0.343876 0
M  V30 1932 H 184.283 -3.9396 -1.49578 0
M  V30 1933 H 183.007 -2.73213 -1.78948 0
M  V30 1934 H 181.666 -3.66374 0.128771 0
M  V30 1935 H 181.314 -4.52735 -2.1918 0
M  V30 1936 H 181.014 -5.79438 -0.975966 0
M  V30 1937 H 182.538 -5.80012 -1.90838 0
M  V30 1938 H 183.952 -5.72158 0.361702 0
M  V30 1939 H 182.349 -5.89286 1.13413 0
M  V30 1940 H 183.419 -4.56796 1.62683 0
M  V30 1941 N 184.763 -0.387143 -1.52771 0
M  V30 1942 C 185.673 0.456442 -2.30117 0
M  V30 1943 C 186.689 1.07342 -1.36944 0
M  V30 1944 O 187.865 1.07971 -1.70013 0
M  V30 1945 C 184.93 1.56957 -3.09136 0
M  V30 1946 C 183.991 0.977916 -4.18014 0
M  V30 1947 C 183.224 2.038 -4.93256 0
M  V30 1948 O 183.447 3.25271 -4.68567 0
M  V30 1949 O 182.381 1.6565 -5.78657 0
M  V30 1950 H 186.207 -0.17359 -3.03203 0
M  V30 1951 H 183.792 -0.150919 -1.48636 0
M  V30 1952 H 185.674 2.21628 -3.58412 0
M  V30 1953 H 184.349 2.18461 -2.38865 0
M  V30 1954 H 183.256 0.294525 -3.72939 0
M  V30 1955 H 184.589 0.407128 -4.90513 0
M  V30 1956 N 186.241 1.57166 -0.116904 0
M  V30 1957 C 187.469 1.99473 0.549383 0
M  V30 1958 C 187.884 0.996541 1.60357 0
M  V30 1959 O 187.241 -0.0108731 1.82497 0
M  V30 1960 C 187.292 3.41788 1.17741 0
M  V30 1961 O 187.013 4.37788 0.165362 0
M  V30 1962 C 188.514 3.99216 1.92722 0
M  V30 1963 H 185.734 0.655009 0.145616 0
M  V30 1964 H 188.278 2.03494 -0.202625 0
M  V30 1965 H 186.433 3.38713 1.88021 0
M  V30 1966 H 186.847 5.20806 0.621403 0
M  V30 1967 H 188.321 5.00882 2.31995 0
M  V30 1968 H 188.798 3.3824 2.80161 0
M  V30 1969 H 189.404 4.0583 1.27209 0
M  V30 1970 N 187.719 -0.156864 1.56817 0
M  V30 1971 C 188.967 -0.869404 1.82444 0
M  V30 1972 C 189.288 -1.82147 0.69623 0
M  V30 1973 O 188.558 -1.93847 -0.28287 0
M  V30 1974 H 187.138 -0.324043 0.673056 0
M  V30 1975 H 189.8 -0.153224 1.94297 0
M  V30 1976 H 188.896 -1.43761 2.77019 0
M  V30 1977 N 189.197 -1.51736 -0.425897 0
M  V30 1978 C 190.427 -1.68549 -1.19476 0
M  V30 1979 C 190.835 -0.387288 -1.85194 0
M  V30 1980 O 190.178 0.645142 -1.71999 0
M  V30 1981 C 190.24 -2.75275 -2.31223 0
M  V30 1982 C 189.904 -4.17534 -1.8578 0
M  V30 1983 C 190.901 -5.01936 -1.35485 0
M  V30 1984 C 188.586 -4.6369 -1.93123 0
M  V30 1985 C 190.58 -6.30559 -0.931347 0
M  V30 1986 C 188.267 -5.92307 -1.50384 0
M  V30 1987 C 189.265 -6.75569 -1.00473 0
M  V30 1988 O 188.953 -8.0178 -0.583452 0
M  V30 1989 H 188.685 -0.568525 -0.365725 0
M  V30 1990 H 191.239 -1.98982 -0.509444 0
M  V30 1991 H 189.469 -2.40182 -3.03067 0
M  V30 1992 H 191.158 -2.80853 -2.93047 0
M  V30 1993 H 191.924 -4.67475 -1.29197 0
M  V30 1994 H 187.803 -3.98997 -2.30916 0
M  V30 1995 H 191.347 -6.95498 -0.541084 0
M  V30 1996 H 187.244 -6.2628 -1.56346 0
M  V30 1997 H 188.012 -8.1543 -0.708275 0
M  V30 1998 N 190.675 0.682077 -1.42076 0
M  V30 1999 C 191.922 1.44215 -1.42156 0
M  V30 2000 C 192.25 1.94468 -0.0354186 0
M  V30 2001 O 191.505 1.70816 0.955002 0
M  V30 2002 C 191.804 2.66036 -2.38662 0
M  V30 2003 C 191.47 2.34366 -3.85206 0
M  V30 2004 C 190.132 2.25439 -4.25124 0
M  V30 2005 C 192.484 2.08513 -4.77673 0
M  V30 2006 C 189.812 1.88775 -5.55501 0
M  V30 2007 C 192.164 1.73354 -6.08384 0
M  V30 2008 C 190.828 1.62933 -6.47309 0
M  V30 2009 H 190.098 0.527718 -0.520187 0
M  V30 2010 H 192.745 0.778387 -1.74967 0
M  V30 2011 H 191.05 3.3741 -1.99152 0
M  V30 2012 H 192.747 3.24205 -2.35991 0
M  V30 2013 H 189.337 2.42213 -3.53597 0
M  V30 2014 H 193.521 2.14346 -4.47626 0
M  V30 2015 H 188.777 1.7927 -5.84527 0
M  V30 2016 H 192.951 1.52373 -6.79526 0
M  V30 2017 H 190.578 1.34292 -7.48244 0
M  V30 2018 N 192.153 1.28127 0.917671 0
M  V30 2019 C 193.378 1.18007 1.70555 0
M  V30 2020 C 193.803 -0.258257 1.86319 0
M  V30 2021 O 193.161 -1.1869 1.37049 0
M  V30 2022 C 193.209 1.87948 3.07746 0
M  V30 2023 O 192.313 1.18427 3.9503 0
M  V30 2024 H 191.654 0.409867 0.522403 0
M  V30 2025 H 194.184 1.69379 1.1477 0
M  V30 2026 H 194.194 1.95701 3.58001 0
M  V30 2027 H 192.869 2.92573 2.95591 0
M  V30 2028 H 191.446 1.18811 3.53466 0
M  V30 2029 N 193.631 -1.12557 1.10312 0
M  V30 2030 C 195.042 -1.65574 0.862678 0
M  V30 2031 C 195.393 -1.86566 -0.607256 0
M  V30 2032 O 194.518 -1.59121 -1.46662 0
M  V30 2033 C 195.113 -3.00776 1.55947 0
M  V30 2034 C 193.672 -3.50748 1.36576 0
M  V30 2035 C 192.819 -2.25797 1.60968 0
M  V30 2036 H 195.77 -0.963552 1.26101 0
M  V30 2037 H 195.791 -3.67185 0.997753 0
M  V30 2038 H 195.303 -2.85465 2.62928 0
M  V30 2039 H 193.404 -3.71245 0.317531 0
M  V30 2040 H 193.517 -4.30289 2.10686 0
M  V30 2041 H 191.881 -2.32841 1.03234 0
M  V30 2042 H 192.664 -2.13043 2.69198 0
M  V30 2043 N 195.109 -0.891671 -1.2995 0
M  V30 2044 C 196.019 -0.367691 -2.31701 0
M  V30 2045 C 197.035 0.533486 -1.6562 0
M  V30 2046 O 198.211 0.424997 -1.96865 0
M  V30 2047 C 195.276 0.403406 -3.44345 0
M  V30 2048 C 194.337 -0.528328 -4.26037 0
M  V30 2049 C 193.57 0.206063 -5.33302 0
M  V30 2050 O 193.793 1.43119 -5.52153 0
M  V30 2051 O 192.727 -0.447281 -6.00236 0
M  V30 2052 H 196.553 -1.21163 -2.78484 0
M  V30 2053 H 194.138 -0.655725 -1.34241 0
M  V30 2054 H 196.02 0.839753 -4.12948 0
M  V30 2055 H 194.695 1.22354 -2.99685 0
M  V30 2056 H 193.602 -1.01362 -3.60106 0
M  V30 2057 H 194.935 -1.31465 -4.74318 0
M  V30 2058 N 196.587 1.43421 -0.653314 0
M  V30 2059 C 197.497 2.34568 0.0388565 0
M  V30 2060 C 198.513 1.53888 0.81207 0
M  V30 2061 O 199.689 1.86539 0.759294 0
M  V30 2062 C 196.754 3.32167 0.993269 0
M  V30 2063 C 195.815 4.28751 0.216977 0
M  V30 2064 C 195.048 5.21688 1.12593 0
M  V30 2065 O 195.271 5.19052 2.36519 0
M  V30 2066 O 194.205 5.98919 0.598284 0
M  V30 2067 H 198.031 2.95251 -0.711386 0
M  V30 2068 H 195.616 1.43564 -0.413502 0
M  V30 2069 H 197.498 3.92183 1.54176 0
M  V30 2070 H 196.173 2.73987 1.72374 0
M  V30 2071 H 195.08 3.72215 -0.375101 0
M  V30 2072 H 196.413 4.89913 -0.473924 0
M  V30 2073 N 198.065 0.39524 1.52563 0
M  V30 2074 C 199.314 -0.186321 2.00838 0
M  V30 2075 C 199.627 -1.47402 1.28577 0
M  V30 2076 O 200.833 -2.13599 1.67593 0
M  V30 2077 C 199.289 -0.382595 3.57861 0
M  V30 2078 C 198.897 0.892202 4.39026 0
M  V30 2079 C 200.641 -0.9202 4.14406 0
M  V30 2080 C 198.548 0.66388 5.87662 0
M  V30 2081 H 197.478 -0.0734041 0.750418 0
M  V30 2082 H 200.129 0.518552 1.76021 0
M  V30 2083 H 198.511 -1.14946 3.7895 0
M  V30 2084 H 199.685 1.66414 4.29701 0
M  V30 2085 H 198 1.35519 3.9373 0
M  V30 2086 H 200.597 -1.10683 5.23119 0
M  V30 2087 H 200.94 -1.89096 3.70875 0
M  V30 2088 H 201.473 -0.212751 3.97231 0
M  V30 2089 H 198.212 1.6058 6.35527 0
M  V30 2090 H 197.732 -0.0690193 5.9976 0
M  V30 2091 H 199.411 0.300699 6.46301 0
M  V30 2092 N 199.544 -1.57102 0.125237 0
M  V30 2093 C 200.507 -2.14471 -0.80838 0
M  V30 2094 C 201.507 -1.0811 -1.19033 0
M  V30 2095 O 202.697 -1.33856 -1.11482 0
M  V30 2096 C 199.829 -2.69005 -2.09402 0
M  V30 2097 H 201.022 -2.98297 -0.309696 0
M  V30 2098 H 198.575 -1.55807 -0.124051 0
M  V30 2099 H 199.31 -1.88785 -2.63687 0
M  V30 2100 H 199.095 -3.46799 -1.82957 0
M  V30 2101 H 200.585 -3.13278 -2.76128 0
M  V30 2102 N 201.022 0.148545 -1.56898 0
M  V30 2103 C 202.438 0.501131 -1.51528 0
M  V30 2104 C 202.638 1.83458 -0.833399 0
M  V30 2105 O 201.694 2.49259 -0.40328 0
M  V30 2106 C 203.007 0.512864 -2.96294 0
M  V30 2107 C 204.555 0.598487 -3.07225 0
M  V30 2108 C 205.03 0.640897 -4.53494 0
M  V30 2109 N 206.521 0.703163 -4.57832 0
M  V30 2110 C 207.256 0.756935 -5.68382 0
M  V30 2111 N 206.752 0.770147 -6.88506 0
M  V30 2112 N 208.545 0.797698 -5.56411 0
M  V30 2113 H 200.696 -0.725532 -1.99624 0
M  V30 2114 H 202.959 -0.264358 -0.910395 0
M  V30 2115 H 202.665 -0.398691 -3.49433 0
M  V30 2116 H 202.539 1.35133 -3.52163 0
M  V30 2117 H 204.926 1.50046 -2.54106 0
M  V30 2118 H 205.007 -0.267093 -2.54402 0
M  V30 2119 H 204.651 -0.256915 -5.0725 0
M  V30 2120 H 204.581 1.52295 -5.04097 0
M  V30 2121 H 207.072 0.700314 -3.71354 0
M  V30 2122 H 207.385 0.812983 -7.68512 0
M  V30 2123 H 205.73 0.738049 -6.9107 0
M  V30 2124 H 208.921 0.784535 -4.61479 0
M  V30 2125 H 209.094 0.83614 -6.42583 0
M  V30 2126 N 202.5 1.5196 0.417844 0
M  V30 2127 C 203.43 1.77634 1.51554 0
M  V30 2128 C 204.411 0.626918 1.58126 0
M  V30 2129 O 205.596 0.871632 1.7354 0
M  V30 2130 C 202.726 1.91911 2.8946 0
M  V30 2131 C 201.68 3.07463 2.97743 0
M  V30 2132 C 201.006 3.06951 4.37819 0
M  V30 2133 C 202.306 4.47082 2.70027 0
M  V30 2134 H 204 2.6955 1.3032 0
M  V30 2135 H 201.546 1.29706 0.625492 0
M  V30 2136 H 203.499 2.08455 3.6623 0
M  V30 2137 H 202.223 0.966598 3.11969 0
M  V30 2138 H 200.882 2.90656 2.23416 0
M  V30 2139 H 200.53 2.09438 4.57323 0
M  V30 2140 H 200.23 3.84556 4.44286 0
M  V30 2141 H 201.754 3.25613 5.16535 0
M  V30 2142 H 203.168 4.6414 3.36522 0
M  V30 2143 H 201.565 5.2654 2.87881 0
M  V30 2144 H 202.635 4.55777 1.65514 0
M  V30 2145 N 203.978 -0.674533 1.42435 0
M  V30 2146 C 204.941 -1.76986 1.45632 0
M  V30 2147 C 205.941 -1.5708 0.343871 0
M  V30 2148 O 207.131 -1.63367 0.604709 0
M  V30 2149 C 204.263 -3.15623 1.28822 0
M  V30 2150 H 205.456 -1.75539 2.43158 0
M  V30 2151 H 203.009 -0.884189 1.28887 0
M  V30 2152 H 203.744 -3.22696 0.322193 0
M  V30 2153 H 203.529 -3.31475 2.09444 0
M  V30 2154 H 205.019 -3.95537 1.33942 0
M  V30 2155 N 205.456 -1.28612 -0.910864 0
M  V30 2156 C 206.366 -1.14643 -2.0468 0
M  V30 2157 C 207.382 -0.0723121 -1.7385 0
M  V30 2158 O 208.558 -0.282178 -1.99413 0
M  V30 2159 C 205.623 -0.812561 -3.37044 0
M  V30 2160 C 204.684 -1.96935 -3.81465 0
M  V30 2161 C 203.917 -1.65131 -5.07511 0
M  V30 2162 O 204.14 -0.567013 -5.67575 0
M  V30 2163 O 203.074 -2.49585 -5.47714 0
M  V30 2164 H 206.9 -2.1001 -2.19384 0
M  V30 2165 H 204.485 -1.07958 -1.03274 0
M  V30 2166 H 206.367 -0.640441 -4.16505 0
M  V30 2167 H 205.042 0.111426 -3.23508 0
M  V30 2168 H 203.949 -2.19664 -3.02818 0
M  V30 2169 H 205.282 -2.87414 -3.99567 0
M  V30 2170 N 206.934 1.1197 -1.10907 0
M  V30 2171 C 207.897 2.16031 -0.765707 0
M  V30 2172 C 208.897 1.59393 0.212235 0
M  V30 2173 O 210.087 1.74196 -0.0115441 0
M  V30 2174 C 207.219 3.40632 -0.135053 0
M  V30 2175 H 208.412 2.47919 -1.68748 0
M  V30 2176 H 205.965 1.27061 -0.910226 0
M  V30 2177 H 206.7 3.14348 0.797218 0
M  V30 2178 H 206.485 3.8302 -0.838937 0
M  V30 2179 H 207.975 4.17505 0.0892469 0
M  V30 2180 N 208.412 0.89855 1.29475 0
M  V30 2181 C 209.375 0.380272 2.26023 0
M  V30 2182 C 210.375 -0.484891 1.53315 0
M  V30 2183 O 211.565 -0.290108 1.71767 0
M  V30 2184 C 208.697 -0.45651 3.3783 0
M  V30 2185 H 209.89 1.23295 2.73383 0
M  V30 2186 H 207.443 0.676589 1.40897 0
M  V30 2187 H 208.178 -1.32922 2.95808 0
M  V30 2188 H 207.963 0.163393 3.91759 0
M  V30 2189 H 209.453 -0.810466 4.0966 0
M  V30 2190 N 209.89 -1.43072 0.660911 0
M  V30 2191 C 211.139 -2.00942 0.174735 0
M  V30 2192 C 211.452 -1.52797 -1.22117 0
M  V30 2193 O 212.658 -2.02991 -1.80297 0
M  V30 2194 C 211.114 -3.58948 0.261559 0
M  V30 2195 C 210.722 -4.16085 1.66064 0
M  V30 2196 C 212.466 -4.24173 -0.166617 0
M  V30 2197 C 210.373 -5.6641 1.70098 0
M  V30 2198 H 209.303 -0.751483 0.0615631 0
M  V30 2199 H 211.954 -1.63955 0.824069 0
M  V30 2200 H 210.336 -3.93372 -0.455421 0
M  V30 2201 H 211.51 -3.93147 2.40359 0
M  V30 2202 H 209.825 -3.6326 2.03546 0
M  V30 2203 H 212.422 -5.34471 -0.156433 0
M  V30 2204 H 212.765 -3.98647 -1.19943 0
M  V30 2205 H 213.298 -3.94659 0.498875 0
M  V30 2206 H 210.037 -5.96715 2.71315 0
M  V30 2207 H 209.557 -5.91382 1.00139 0
M  V30 2208 H 211.236 -6.30585 1.44816 0
M  V30 2209 N 211.368 -0.403325 -1.52352 0
M  V30 2210 C 212.784 -0.0539281 -1.59509 0
M  V30 2211 C 212.984 1.43307 -1.41652 0
M  V30 2212 O 212.04 2.19924 -1.24056 0
M  V30 2213 C 213.353 -0.543654 -2.95745 0
M  V30 2214 C 214.901 -0.501125 -3.08962 0
M  V30 2215 C 215.376 -0.967267 -4.47669 0
M  V30 2216 N 216.867 -0.923849 -4.53893 0
M  V30 2217 C 217.602 -1.25578 -5.5948 0
M  V30 2218 N 217.098 -1.65889 -6.72646 0
M  V30 2219 N 218.891 -1.17613 -5.49658 0
M  V30 2220 H 211.042 -1.37123 -1.62206 0
M  V30 2221 H 213.305 -0.56294 -0.76276 0
M  V30 2222 H 213.011 -1.58275 -3.14073 0
M  V30 2223 H 212.885 0.0498042 -3.77167 0
M  V30 2224 H 215.272 0.528909 -2.90321 0
M  V30 2225 H 215.353 -1.13056 -2.2946 0
M  V30 2226 H 214.997 -1.9956 -4.67053 0
M  V30 2227 H 214.927 -0.314698 -5.25659 0
M  V30 2228 H 217.418 -0.627403 -3.72655 0
M  V30 2229 H 217.731 -1.89543 -7.49195 0
M  V30 2230 H 216.076 -1.69787 -6.73942 0
M  V30 2231 H 219.267 -0.860115 -4.6013 0
M  V30 2232 H 219.44 -1.43812 -6.3184 0
M  V30 2233 N 212.846 1.57033 -0.133567 0
M  V30 2234 C 214.094 1.953 0.519848 0
M  V30 2235 C 214.415 1.01866 1.66278 0
M  V30 2236 O 213.685 0.0776513 1.95746 0
M  V30 2237 H 212.265 0.721091 0.195032 0
M  V30 2238 H 214.927 1.93809 -0.205921 0
M  V30 2239 H 214.023 2.98695 0.904854 0
M  V30 2240 N 214.325 -0.140222 1.56975 0
M  V30 2241 C 215.573 -0.850005 1.83356 0
M  V30 2242 C 215.894 -1.81399 0.71551 0
M  V30 2243 O 215.164 -1.94136 -0.262294 0
M  V30 2244 H 213.744 -0.316886 0.676456 0
M  V30 2245 H 216.406 -0.132608 1.94448 0
M  V30 2246 H 215.502 -1.40814 2.78528 0
M  V30 2247 N 215.803 -1.52179 -0.40978 0
M  V30 2248 C 216.766 -1.74853 -1.48186 0
M  V30 2249 C 217.766 -0.618417 -1.48433 0
M  V30 2250 O 218.956 -0.886286 -1.49969 0
M  V30 2251 C 216.088 -1.8303 -2.87598 0
M  V30 2252 H 217.281 -2.70559 -1.29374 0
M  V30 2253 H 214.834 -1.42586 -0.640233 0
M  V30 2254 H 215.569 -0.89236 -3.11781 0
M  V30 2255 H 215.354 -2.65187 -2.88822 0
M  V30 2256 H 216.844 -2.02316 -3.65319 0
M  V30 2257 N 217.281 0.66697 -1.42791 0
M  V30 2258 C 218.558 1.4234 -1.34159 0
M  V30 2259 C 218.938 2.11093 0.0172729 0
M  V30 2260 O 218.286 2.03808 1.03318 0
M  V30 2261 C 218.496 2.41942 -2.51526 0
M  V30 2262 C 219.844 3.06353 -2.93995 0
M  V30 2263 O 220.868 2.52269 -2.51473 0
M  V30 2264 O 219.727 4.04376 -3.67617 0
M  V30 2265 H 216.821 0.635277 -0.529483 0
M  V30 2266 H 219.367 0.695034 -1.54814 0
M  V30 2267 H 218.139 1.89991 -3.42081 0
M  V30 2268 H 217.762 3.22249 -2.32898 0
M  V30 2269 N 218.759 1.29093 0.90403 0
M  V30 2270 C 220.006 1.16813 1.65411 0
M  V30 2271 C 220.334 -0.28128 1.92455 0
M  V30 2272 O 219.589 -1.22006 1.53013 0
M  V30 2273 C 219.888 1.92224 3.01305 0
M  V30 2274 C 219.554 3.41968 2.93885 0
M  V30 2275 C 218.216 3.82807 2.91569 0
M  V30 2276 C 220.568 4.37409 2.83413 0
M  V30 2277 C 217.896 5.1741 2.76594 0
M  V30 2278 C 220.248 5.72097 2.69977 0
M  V30 2279 C 218.912 6.12199 2.66024 0
M  V30 2280 H 218.182 0.42745 0.605283 0
M  V30 2281 H 220.829 1.59981 1.05254 0
M  V30 2282 H 219.134 1.41635 3.65304 0
M  V30 2283 H 220.831 1.80131 3.58265 0
M  V30 2284 H 217.421 3.09504 2.96488 0
M  V30 2285 H 221.605 4.06813 2.84283 0
M  V30 2286 H 216.861 5.47596 2.71935 0
M  V30 2287 H 221.035 6.45704 2.60844 0
M  V30 2288 H 218.662 7.16448 2.54178 0
M  V30 2289 N 220.237 -1.11381 1.11499 0
M  V30 2290 C 221.167 -2.19509 0.796125 0
M  V30 2291 C 222.148 -1.68458 -0.235796 0
M  V30 2292 O 223.333 -1.93947 -0.0991344 0
M  V30 2293 C 220.463 -3.46475 0.239205 0
M  V30 2294 C 219.417 -4.10744 1.20307 0
M  V30 2295 C 218.743 -5.32293 0.50683 0
M  V30 2296 C 220.043 -4.55597 2.55399 0
M  V30 2297 H 221.737 -2.46439 1.70024 0
M  V30 2298 H 219.283 -1.18446 0.818935 0
M  V30 2299 H 221.236 -4.214 0.00392006 0
M  V30 2300 H 219.96 -3.19006 -0.700206 0
M  V30 2301 H 218.619 -3.37813 1.42399 0
M  V30 2302 H 218.267 -5.01095 -0.437408 0
M  V30 2303 H 217.967 -5.76243 1.1497 0
M  V30 2304 H 219.491 -6.09956 0.280351 0
M  V30 2305 H 220.905 -5.21841 2.37391 0
M  V30 2306 H 219.302 -5.10363 3.15673 0
M  V30 2307 H 220.372 -3.69013 3.14575 0
M  V30 2308 N 221.715 -0.905404 -1.28997 0
M  V30 2309 C 222.662 -0.385892 -2.27551 0
M  V30 2310 C 223.632 0.535113 -1.57244 0
M  V30 2311 O 224.817 0.459119 -1.85194 0
M  V30 2312 C 221.957 0.375461 -3.43051 0
M  V30 2313 C 221.07 -0.577092 -4.28128 0
M  V30 2314 C 220.205 0.201879 -5.30816 0
M  V30 2315 C 219.244 -0.744829 -6.07551 0
M  V30 2316 N 218.381 9.42587e-05 -7.021 0
M  V30 2317 H 223.221 -1.23139 -2.71368 0
M  V30 2318 H 220.758 -0.618542 -1.33463 0
M  V30 2319 H 222.716 0.832992 -4.088 0
M  V30 2320 H 221.346 1.18537 -3.00248 0
M  V30 2321 H 220.398 -1.15315 -3.62501 0
M  V30 2322 H 221.71 -1.30152 -4.8152 0
M  V30 2323 H 220.864 0.720351 -6.02408 0
M  V30 2324 H 219.603 0.959413 -4.7817 0
M  V30 2325 H 218.608 -1.27475 -5.34818 0
M  V30 2326 H 219.833 -1.50178 -6.62286 0
M  V30 2327 H 217.779 0.739791 -6.51815 0
M  V30 2328 H 217.696 -0.664321 -7.53076 0
M  V30 2329 H 218.964 0.498644 -7.77903 0
M  V30 2330 N 223.193 1.4272 -0.668489 0
M  V30 2331 C 224.421 2.05966 -0.196348 0
M  V30 2332 C 224.836 1.50191 1.14403 0
M  V30 2333 O 224.193 0.639208 1.7094 0
M  V30 2334 C 224.244 3.61314 -0.115815 0
M  V30 2335 O 223.965 4.1502 -1.40322 0
M  V30 2336 C 225.466 4.41663 0.380579 0
M  V30 2337 H 222.686 0.663954 -0.0969829 0
M  V30 2338 H 225.23 1.82966 -0.913446 0
M  V30 2339 H 223.385 3.83448 0.551931 0
M  V30 2340 H 223.799 5.08832 -1.27243 0
M  V30 2341 H 225.273 5.5065 0.385848 0
M  V30 2342 H 225.75 4.15792 1.41471 0
M  V30 2343 H 226.356 4.24534 -0.255209 0
M  V30 2344 N 224.671 0.411399 1.52136 0
M  V30 2345 C 225.896 -0.165538 2.06738 0
M  V30 2346 C 226.321 -1.379 1.27926 0
M  V30 2347 O 225.679 -1.78628 0.310114 0
M  V30 2348 C 225.727 -0.492124 3.57226 0
M  V30 2349 O 224.831 -1.58276 3.80818 0
M  V30 2350 H 224.172 -0.0132132 0.663869 0
M  V30 2351 H 226.702 0.585253 1.96051 0
M  V30 2352 H 226.712 -0.750104 4.01045 0
M  V30 2353 H 225.387 0.394922 4.14021 0
M  V30 2354 H 223.964 -1.31677 3.48877 0
M  V30 2355 N 226.149 -1.5696 0.141893 0
M  V30 2356 C 227.377 -2.00322 -0.517579 0
M  V30 2357 C 227.792 -1.02193 -1.58752 0
M  V30 2358 O 227.149 -0.0181619 -1.82491 0
M  V30 2359 C 227.2 -3.43618 -1.12289 0
M  V30 2360 O 226.921 -4.37995 -0.0956929 0
M  V30 2361 C 228.422 -4.02231 -1.86347 0
M  V30 2362 H 225.642 -0.657243 -0.135177 0
M  V30 2363 H 228.186 -2.03146 0.234973 0
M  V30 2364 H 226.341 -3.41662 -1.82609 0
M  V30 2365 H 226.755 -5.21729 -0.538469 0
M  V30 2366 H 228.229 -5.04509 -2.23997 0
M  V30 2367 H 228.706 -3.42655 -2.74744 0
M  V30 2368 H 229.312 -4.07802 -1.20737 0
M  V30 2369 N 227.627 0.131896 -1.57047 0
M  V30 2370 C 228.875 0.840269 -1.83804 0
M  V30 2371 C 229.196 1.81017 -0.72512 0
M  V30 2372 O 228.466 1.94272 0.251995 0
M  V30 2373 H 227.046 0.313294 -0.678127 0
M  V30 2374 H 229.708 0.122294 -1.94516 0
M  V30 2375 H 228.804 1.39335 -2.79271 0
M  V30 2376 N 229.106 1.52395 0.401703 0
M  V30 2377 C 230.353 1.66817 1.14796 0
M  V30 2378 C 230.681 0.401772 1.90305 0
M  V30 2379 O 229.936 -0.615487 1.85769 0
M  V30 2380 C 230.235 2.84578 2.16217 0
M  V30 2381 C 229.901 4.22513 1.5746 0
M  V30 2382 C 228.563 4.60029 1.41161 0
M  V30 2383 C 230.915 5.0844 1.14622 0
M  V30 2384 C 228.243 5.81144 0.80552 0
M  V30 2385 C 230.595 6.30167 0.55428 0
M  V30 2386 C 229.259 6.66426 0.378482 0
M  V30 2387 H 228.529 0.610428 0.420069 0
M  V30 2388 H 231.176 1.86512 0.434212 0
M  V30 2389 H 229.481 2.59248 2.93764 0
M  V30 2390 H 231.178 2.92933 2.73845 0
M  V30 2391 H 227.768 3.92953 1.71132 0
M  V30 2392 H 231.952 4.80034 1.26021 0
M  V30 2393 H 227.208 6.07855 0.657399 0
M  V30 2394 H 231.382 6.96071 0.213983 0
M  V30 2395 H 229.009 7.60143 -0.0932606 0
M  V30 2396 N 230.584 -0.659388 1.43143 0
M  V30 2397 C 231.832 -1.41654 1.44147 0
M  V30 2398 C 232.153 -1.94893 0.0645739 0
M  V30 2399 O 231.423 -1.74044 -0.899198 0
M  V30 2400 H 230.003 -0.525708 0.530697 0
M  V30 2401 H 232.665 -0.778097 1.78694 0
M  V30 2402 H 231.761 -2.26195 2.1504 0
M  V30 2403 N 232.062 -1.29571 -0.897171 0
M  V30 2404 C 233.473 -1.15964 -1.46319 0
M  V30 2405 C 233.824 0.244267 -1.94674 0
M  V30 2406 O 232.949 1.13998 -1.83939 0
M  V30 2407 C 233.544 -2.09906 -2.65942 0
M  V30 2408 C 232.103 -2.00314 -3.18671 0
M  V30 2409 C 231.25 -2.00687 -1.91363 0
M  V30 2410 H 234.201 -1.42019 -0.708268 0
M  V30 2411 H 234.222 -1.67276 -3.41759 0
M  V30 2412 H 233.734 -3.12075 -2.30718 0
M  V30 2413 H 231.835 -1.01242 -3.58582 0
M  V30 2414 H 231.948 -2.88102 -3.82798 0
M  V30 2415 H 230.312 -1.45319 -2.09175 0
M  V30 2416 H 231.095 -3.04566 -1.58413 0
M  V30 2417 N 233.54 1.10788 -1.12088 0
M  V30 2418 C 234.956 1.34691 -0.856186 0
M  V30 2419 C 235.156 1.94791 0.515615 0
M  V30 2420 O 234.212 2.18524 1.26505 0
M  V30 2421 C 235.525 2.27208 -1.9697 0
M  V30 2422 C 237.073 2.40755 -2.00016 0
M  V30 2423 C 237.548 3.36598 -3.1059 0
M  V30 2424 N 239.039 3.44164 -3.10008 0
M  V30 2425 C 239.774 4.18284 -3.92206 0
M  V30 2426 N 239.27 4.95322 -4.84384 0
M  V30 2427 N 241.063 4.13865 -3.80357 0
M  V30 2428 H 233.214 0.70144 -2.00483 0
M  V30 2429 H 235.477 0.371405 -0.872217 0
M  V30 2430 H 235.183 1.90251 -2.958 0
M  V30 2431 H 235.057 3.27485 -1.87172 0
M  V30 2432 H 237.444 2.76982 -1.01808 0
M  V30 2433 H 237.525 1.40305 -2.13888 0
M  V30 2434 H 237.169 3.01096 -4.09028 0
M  V30 2435 H 237.099 4.36918 -2.93956 0
M  V30 2436 H 239.59 2.8922 -2.43228 0
M  V30 2437 H 239.903 5.49267 -5.43623 0
M  V30 2438 H 238.248 4.94459 -4.884 0
M  V30 2439 H 241.439 3.52773 -3.07683 0
M  V30 2440 H 241.612 4.71372 -4.44649 0
M  V30 2441 N 235.018 0.912232 1.28515 0
M  V30 2442 C 236.266 0.543523 1.94654 0
M  V30 2443 C 236.587 -0.9155 1.72173 0
M  V30 2444 O 235.857 -1.64708 1.06058 0
M  V30 2445 H 234.437 0.198017 0.720277 0
M  V30 2446 H 237.099 1.16126 1.56527 0
M  V30 2447 H 236.195 0.736684 3.03281 0
M  V30 2448 N 236.496 -1.42363 0.676048 0
M  V30 2449 C 237.459 -2.29199 0.00766941 0
M  V30 2450 C 238.459 -1.43389 -0.727745 0
M  V30 2451 O 239.649 -1.64764 -0.56556 0
M  V30 2452 C 236.781 -3.2591 -0.999785 0
M  V30 2453 H 237.974 -2.89794 0.771988 0
M  V30 2454 H 235.527 -1.50024 0.438468 0
M  V30 2455 H 236.262 -2.70256 -1.79255 0
M  V30 2456 H 236.047 -3.89202 -0.475829 0
M  V30 2457 H 237.537 -3.91028 -1.46583 0
M  V30 2458 N 237.974 -0.419461 -1.51915 0
M  V30 2459 C 239.199 0.154572 -2.06823 0
M  V30 2460 C 239.624 1.3722 -1.28656 0
M  V30 2461 O 238.982 1.78461 -0.319583 0
M  V30 2462 C 239.03 0.473172 -3.57482 0
M  V30 2463 O 238.134 1.56255 -3.81652 0
M  V30 2464 H 237.475 0.0096924 -0.663929 0
M  V30 2465 H 240.005 -0.595642 -1.95738 0
M  V30 2466 H 240.015 0.728825 -4.01438 0
M  V30 2467 H 238.69 -0.416873 -4.13805 0
M  V30 2468 H 237.267 1.29825 -3.49571 0
M  V30 2469 N 239.452 1.56882 -0.150215 0
M  V30 2470 C 240.382 2.19935 0.784284 0
M  V30 2471 C 241.363 1.14854 1.25469 0
M  V30 2472 O 242.548 1.43209 1.31168 0
M  V30 2473 C 239.678 2.82349 2.02229 0
M  V30 2474 C 238.632 3.93285 1.68853 0
M  V30 2475 C 237.958 4.42649 2.99944 0
M  V30 2476 C 239.258 5.13904 0.932714 0
M  V30 2477 H 240.952 2.9828 0.258781 0
M  V30 2478 H 238.498 1.43473 0.123029 0
M  V30 2479 H 240.451 3.25126 2.68088 0
M  V30 2480 H 239.175 2.0134 2.57157 0
M  V30 2481 H 237.834 3.5113 1.05371 0
M  V30 2482 H 237.482 3.58458 3.52869 0
M  V30 2483 H 237.182 5.17476 2.78374 0
M  V30 2484 H 238.706 4.88099 3.66868 0
M  V30 2485 H 240.12 5.53506 1.49345 0
M  V30 2486 H 238.517 5.94515 0.81684 0
M  V30 2487 H 239.587 4.84842 -0.0749568 0
M  V30 2488 N 240.93 -0.123565 1.57115 0
M  V30 2489 C 241.84 -1.17074 2.033 0
M  V30 2490 C 242.856 -1.4561 0.952559 0
M  V30 2491 O 244.032 -1.56817 1.26374 0
M  V30 2492 C 241.097 -2.47857 2.42421 0
M  V30 2493 C 240.158 -2.26758 3.64526 0
M  V30 2494 C 239.391 -3.51305 4.01771 0
M  V30 2495 O 239.614 -4.5843 3.39409 0
M  V30 2496 O 238.548 -3.42578 4.94898 0
M  V30 2497 H 242.374 -0.808555 2.92739 0
M  V30 2498 H 239.959 -0.334027 1.45618 0
M  V30 2499 H 241.841 -3.2492 2.68338 0
M  V30 2500 H 240.516 -2.83558 1.5613 0
M  V30 2501 H 239.423 -1.47569 3.43765 0
M  V30 2502 H 240.756 -1.95963 4.51508 0
M  V30 2503 N 242.408 -1.52605 -0.393616 0
M  V30 2504 C 243.685 -1.58001 -1.15304 0
M  V30 2505 C 244.065 -0.370385 -2.07825 0
M  V30 2506 O 243.413 0.641638 -2.19306 0
M  V30 2507 C 243.623 -2.91652 -1.91677 0
M  V30 2508 C 244.971 -3.4522 -2.47201 0
M  V30 2509 O 245.995 -2.93495 -2.01839 0
M  V30 2510 O 244.854 -4.35579 -3.3005 0
M  V30 2511 H 241.948 -0.637068 -0.527327 0
M  V30 2512 H 244.494 -1.64939 -0.399141 0
M  V30 2513 H 243.266 -3.71136 -1.23992 0
M  V30 2514 H 242.889 -2.88077 -2.74039 0
M  V30 2515 N 243.887 0.651787 -1.4349 0
M  V30 2516 C 245.133 1.41376 -1.45398 0
M  V30 2517 C 245.466 1.94041 -0.0784823 0
M  V30 2518 O 244.741 1.72379 0.900878 0
M  V30 2519 C 245.024 2.59414 -2.49752 0
M  V30 2520 C 244.877 2.12232 -3.96582 0
M  V30 2521 C 246.196 3.61626 -2.50827 0
M  V30 2522 H 243.315 0.512719 -0.529422 0
M  V30 2523 H 245.957 0.738796 -1.75048 0
M  V30 2524 H 244.107 3.16997 -2.246 0
M  V30 2525 H 245.779 1.59639 -4.32797 0
M  V30 2526 H 244.022 1.43592 -4.09346 0
M  V30 2527 H 244.693 2.9712 -4.65214 0
M  V30 2528 H 247.169 3.13805 -2.7325 0
M  V30 2529 H 246.045 4.41766 -3.25783 0
M  V30 2530 H 246.306 4.14314 -1.5426 0
M  V30 2531 N 245.365 1.30045 0.890287 0
M  V30 2532 C 246.328 1.15963 1.977 0
M  V30 2533 C 247.328 0.0923777 1.60534 0
M  V30 2534 O 248.518 0.340071 1.70848 0
M  V30 2535 C 245.65 0.775451 3.31963 0
M  V30 2536 H 246.843 2.12502 2.11619 0
M  V30 2537 H 244.396 1.13366 1.07601 0
M  V30 2538 H 245.131 -0.189671 3.23745 0
M  V30 2539 H 244.916 1.54668 3.60306 0
M  V30 2540 H 246.406 0.700251 4.11687 0
M  V30 2541 N 246.843 -1.10192 1.12674 0
M  V30 2542 C 247.773 -2.18652 0.819362 0
M  V30 2543 C 248.754 -1.68698 -0.217915 0
M  V30 2544 O 249.939 -1.94041 -0.0785581 0
M  V30 2545 C 247.069 -3.46202 0.27594 0
M  V30 2546 C 246.023 -4.09444 1.24656 0
M  V30 2547 C 245.349 -5.31725 0.563258 0
M  V30 2548 C 246.649 -4.52863 2.60217 0
M  V30 2549 H 248.343 -2.44622 1.72628 0
M  V30 2550 H 245.889 -1.17571 0.831451 0
M  V30 2551 H 247.842 -4.21372 0.0486149 0
M  V30 2552 H 246.566 -3.1973 -0.666331 0
M  V30 2553 H 245.225 -3.36284 1.45974 0
M  V30 2554 H 244.873 -5.0153 -0.384235 0
M  V30 2555 H 244.573 -5.74991 1.21075 0
M  V30 2556 H 246.097 -6.09624 0.34503 0
M  V30 2557 H 247.511 -5.19294 2.42913 0
M  V30 2558 H 245.908 -5.06986 3.21068 0
M  V30 2559 H 246.978 -3.65656 3.18471 0
M  V30 2560 N 248.321 -0.919034 -1.28029 0
M  V30 2561 C 249.251 -0.428581 -2.29533 0
M  V30 2562 C 250.232 0.50659 -1.62381 0
M  V30 2563 O 251.417 0.413195 -1.89753 0
M  V30 2564 C 248.547 0.327388 -3.45753 0
M  V30 2565 C 247.501 -0.519137 -4.2484 0
M  V30 2566 C 246.827 0.365486 -5.33449 0
M  V30 2567 C 248.127 -1.77914 -4.91064 0
M  V30 2568 H 249.821 -1.27687 -2.70807 0
M  V30 2569 H 247.367 -0.615428 -1.30186 0
M  V30 2570 H 249.32 0.681378 -4.15855 0
M  V30 2571 H 248.044 1.20963 -3.03374 0
M  V30 2572 H 246.703 -0.855717 -3.56473 0
M  V30 2573 H 246.351 1.24642 -4.87312 0
M  V30 2574 H 246.051 -0.197356 -5.87268 0
M  V30 2575 H 247.575 0.715241 -6.06396 0
M  V30 2576 H 248.989 -1.49374 -5.53498 0
M  V30 2577 H 247.386 -2.2848 -5.54903 0
M  V30 2578 H 248.456 -2.50382 -4.15255 0
M  V30 2579 N 249.799 1.42003 -0.683588 0
M  V30 2580 C 251.045 2.01712 -0.209825 0
M  V30 2581 C 251.378 1.53968 1.18353 0
M  V30 2582 O 250.653 0.745661 1.79639 0
M  V30 2583 C 250.936 3.59202 -0.254197 0
M  V30 2584 C 250.789 4.17102 -1.68363 0
M  V30 2585 C 252.108 4.38344 0.392709 0
M  V30 2586 H 249.227 0.732891 -0.0777189 0
M  V30 2587 H 251.869 1.68909 -0.87004 0
M  V30 2588 H 250.019 3.87278 0.307954 0
M  V30 2589 H 251.691 3.99946 -2.29871 0
M  V30 2590 H 249.934 3.72597 -2.22157 0
M  V30 2591 H 250.605 5.26249 -1.6663 0
M  V30 2592 H 253.081 4.16011 -0.0859162 0
M  V30 2593 H 251.957 5.47901 0.331063 0
M  V30 2594 H 252.218 4.16887 1.47164 0
M  V30 2595 N 251.277 0.427512 1.51691 0
M  V30 2596 C 252.693 0.0792977 1.59403 0
M  V30 2597 C 252.893 -1.41035 1.43914 0
M  V30 2598 O 251.949 -2.17922 1.27539 0
M  V30 2599 C 253.262 0.590636 2.94842 0
M  V30 2600 C 254.81 0.550215 3.08126 0
M  V30 2601 C 255.285 1.03836 4.46074 0
M  V30 2602 N 256.776 0.995943 4.52366 0
M  V30 2603 C 257.511 1.34463 5.57411 0
M  V30 2604 N 257.007 1.76569 6.69922 0
M  V30 2605 N 258.8 1.26343 5.47717 0
M  V30 2606 H 250.951 1.39687 1.60004 0
M  V30 2607 H 253.214 0.575003 0.753708 0
M  V30 2608 H 252.92 1.63251 3.11516 0
M  V30 2609 H 252.794 0.0102061 3.77199 0
M  V30 2610 H 255.181 -0.482654 2.91126 0
M  V30 2611 H 255.262 1.16693 2.27632 0
M  V30 2612 H 254.906 2.06965 4.63819 0
M  V30 2613 H 254.836 0.398286 5.25092 0
M  V30 2614 H 257.327 0.68661 3.7161 0
M  V30 2615 H 257.64 2.01438 7.46085 0
M  V30 2616 H 255.985 1.80488 6.71155 0
M  V30 2617 H 259.176 0.933209 4.58703 0
M  V30 2618 H 259.349 1.53846 6.29472 0
M  V30 2619 N 252.755 -1.56801 0.158532 0
M  V30 2620 C 254.001 -1.96781 -0.490405 0
M  V30 2621 C 254.334 -1.04397 -1.63753 0
M  V30 2622 O 253.609 -0.0885805 -1.94298 0
M  V30 2623 C 253.892 -3.4635 -0.985594 0
M  V30 2624 C 253.745 -4.49512 0.160824 0
M  V30 2625 C 255.064 -3.98697 -1.86355 0
M  V30 2626 H 252.183 -0.715482 -0.176788 0
M  V30 2627 H 254.825 -1.88451 0.242088 0
M  V30 2628 H 252.975 -3.53579 -1.60978 0
M  V30 2629 H 254.647 -4.54353 0.797537 0
M  V30 2630 H 252.89 -4.26013 0.818256 0
M  V30 2631 H 253.561 -5.51531 -0.227569 0
M  V30 2632 H 256.037 -3.94019 -1.33746 0
M  V30 2633 H 254.913 -5.03792 -2.17909 0
M  V30 2634 H 255.174 -3.41744 -2.8047 0
M  V30 2635 N 254.233 0.115231 -1.57178 0
M  V30 2636 C 255.196 1.12526 -1.99676 0
M  V30 2637 C 256.196 1.34095 -0.88742 0
M  V30 2638 O 257.386 1.30548 -1.15337 0
M  V30 2639 C 254.518 2.4789 -2.34015 0
M  V30 2640 H 255.711 0.759912 -2.90113 0
M  V30 2641 H 253.264 0.359648 -1.52106 0
M  V30 2642 H 253.999 2.89339 -1.4647 0
M  V30 2643 H 253.784 2.33588 -3.14927 0
M  V30 2644 H 255.274 3.20575 -2.67622 0
M  V30 2645 N 255.711 1.52812 0.385517 0
M  V30 2646 C 256.643 1.74096 1.49074 0
M  V30 2647 C 257.656 0.621462 1.50472 0
M  V30 2648 O 258.845 0.897245 1.54311 0
M  V30 2649 C 255.945 1.78774 2.87911 0
M  V30 2650 C 255.118 3.08134 3.10439 0
M  V30 2651 C 254.177 3.04313 4.29278 0
M  V30 2652 O 253.203 3.78168 4.25415 0
M  V30 2653 N 254.405 2.23741 5.35649 0
M  V30 2654 H 257.17 2.69455 1.31202 0
M  V30 2655 H 254.731 1.51343 0.575065 0
M  V30 2656 H 256.723 1.73721 3.65518 0
M  V30 2657 H 255.293 0.907869 2.99126 0
M  V30 2658 H 254.513 3.26649 2.20667 0
M  V30 2659 H 255.801 3.93662 3.22347 0
M  V30 2660 H 255.199 1.63211 5.41645 0
M  V30 2661 H 253.756 2.24524 6.11909 0
M  V30 2662 N 257.189 -0.644168 1.43834 0
M  V30 2663 C 258.437 -1.40117 1.45642 0
M  V30 2664 C 258.758 -1.94814 0.0852413 0
M  V30 2665 O 258.028 -1.74988 -0.880688 0
M  V30 2666 H 256.608 -0.52005 0.536243 0
M  V30 2667 H 259.27 -0.7591 1.7951 0
M  V30 2668 H 258.366 -2.23902 2.17427 0
M  V30 2669 N 258.668 -1.30515 -0.883378 0
M  V30 2670 C 260.084 -1.08881 -1.16692 0
M  V30 2671 C 260.284 0.149409 -2.00945 0
M  V30 2672 O 259.34 0.84257 -2.38027 0
M  V30 2673 C 260.653 -2.35319 -1.87204 0
M  V30 2674 C 262.201 -2.40799 -1.99962 0
M  V30 2675 C 262.676 -3.67083 -2.73887 0
M  V30 2676 N 264.167 -3.679 -2.81432 0
M  V30 2677 C 264.902 -4.62303 -3.3921 0
M  V30 2678 N 264.398 -5.67052 -3.98025 0
M  V30 2679 N 266.191 -4.49845 -3.3704 0
M  V30 2680 H 258.342 -2.09951 -0.321633 0
M  V30 2681 H 260.605 -0.92556 -0.205043 0
M  V30 2682 H 260.311 -3.25689 -1.3274 0
M  V30 2683 H 260.185 -2.44089 -2.87577 0
M  V30 2684 H 262.572 -1.50907 -2.53597 0
M  V30 2685 H 262.653 -2.36003 -0.98673 0
M  V30 2686 H 262.297 -4.57334 -2.20925 0
M  V30 2687 H 262.227 -3.69141 -3.75556 0
M  V30 2688 H 264.718 -2.92171 -2.39676 0
M  V30 2689 H 265.031 -6.35184 -4.40183 0
M  V30 2690 H 263.376 -5.70842 -3.96439 0
M  V30 2691 H 266.567 -3.67194 -2.90321 0
M  V30 2692 H 266.74 -5.23597 -3.81772 0
M  V30 2693 N 260.146 1.09593 -1.13257 0
M  V30 2694 C 261.109 2.14359 -0.811358 0
M  V30 2695 C 262.109 1.59808 0.178377 0
M  V30 2696 O 263.299 1.74132 -0.0484911 0
M  V30 2697 C 260.431 3.40269 -0.207276 0
M  V30 2698 H 261.624 2.44284 -1.73969 0
M  V30 2699 H 259.177 1.25102 -0.936973 0
M  V30 2700 H 259.912 3.15969 0.73036 0
M  V30 2701 H 259.697 3.81154 -0.919992 0
M  V30 2702 H 261.187 4.176 0.000667944 0
M  V30 2703 N 261.624 0.925811 1.2754 0
M  V30 2704 C 262.556 0.380753 2.26015 0
M  V30 2705 C 263.569 -0.487485 1.5533 0
M  V30 2706 O 264.758 -0.300413 1.75954 0
M  V30 2707 C 261.858 -0.473259 3.35579 0
M  V30 2708 C 261.031 0.375249 4.35787 0
M  V30 2709 C 260.09 -0.415809 5.24555 0
M  V30 2710 O 259.116 0.175834 5.68928 0
M  V30 2711 N 260.318 -1.71607 5.54555 0
M  V30 2712 H 263.083 1.22725 2.73421 0
M  V30 2713 H 260.644 0.793037 1.41147 0
M  V30 2714 H 262.636 -1.00949 3.91907 0
M  V30 2715 H 261.206 -1.2205 2.87789 0
M  V30 2716 H 260.426 1.09279 3.7875 0
M  V30 2717 H 261.714 0.955399 4.99749 0
M  V30 2718 H 261.112 -2.2191 5.20358 0
M  V30 2719 H 259.669 -2.19887 6.1359 0
M  V30 2720 N 263.102 -1.41638 0.69111 0
M  V30 2721 C 264.348 -2.01598 0.220519 0
M  V30 2722 C 264.681 -1.54594 -1.17535 0
M  V30 2723 O 263.956 -0.755177 -1.79241 0
M  V30 2724 C 264.239 -3.59062 0.273243 0
M  V30 2725 C 264.092 -4.16203 1.70573 0
M  V30 2726 C 265.411 -4.38546 -0.369457 0
M  V30 2727 H 262.53 -0.732468 0.0816045 0
M  V30 2728 H 265.172 -1.68445 0.878986 0
M  V30 2729 H 263.322 -3.87435 -0.287411 0
M  V30 2730 H 264.994 -3.98722 2.31989 0
M  V30 2731 H 263.237 -3.71414 2.2413 0
M  V30 2732 H 263.908 -5.25358 1.69419 0
M  V30 2733 H 266.384 -4.1596 0.107977 0
M  V30 2734 H 265.26 -5.48069 -0.302002 0
M  V30 2735 H 265.521 -4.17662 -1.44951 0
M  V30 2736 N 264.58 -0.43555 -1.51462 0
M  V30 2737 C 265.527 0.376797 -2.27703 0
M  V30 2738 C 266.497 1.01838 -1.31219 0
M  V30 2739 O 267.682 1.03762 -1.60119 0
M  V30 2740 C 264.822 1.47301 -3.12084 0
M  V30 2741 C 263.935 0.849744 -4.2356 0
M  V30 2742 C 263.07 1.92086 -4.95254 0
M  V30 2743 C 262.109 1.27593 -5.98654 0
M  V30 2744 N 261.246 2.28833 -6.63762 0
M  V30 2745 H 266.086 -0.279734 -2.96684 0
M  V30 2746 H 263.623 -0.149795 -1.46335 0
M  V30 2747 H 265.581 2.11984 -3.59331 0
M  V30 2748 H 264.211 2.0992 -2.45221 0
M  V30 2749 H 263.263 0.0912529 -3.80291 0
M  V30 2750 H 264.575 0.338878 -4.97648 0
M  V30 2751 H 263.729 2.64435 -5.46039 0
M  V30 2752 H 262.468 2.46545 -4.20793 0
M  V30 2753 H 261.473 0.537893 -5.47162 0
M  V30 2754 H 262.698 0.738693 -6.7507 0
M  V30 2755 H 260.644 2.82375 -5.92115 0
M  V30 2756 H 260.561 1.82632 -7.33608 0
M  V30 2757 H 261.829 3.00671 -7.19178 0
M  V30 2758 N 266.058 1.56714 -0.166846 0
M  V30 2759 C 267.021 2.16539 0.751232 0
M  V30 2760 C 268.021 1.11228 1.16125 0
M  V30 2761 O 269.211 1.36765 1.07894 0
M  V30 2762 C 266.343 2.74462 2.02196 0
M  V30 2763 H 267.536 2.99013 0.230499 0
M  V30 2764 H 265.089 1.56081 0.0826982 0
M  V30 2765 H 265.824 1.95709 2.58589 0
M  V30 2766 H 265.609 3.51527 1.73698 0
M  V30 2767 H 267.099 3.20489 2.67725 0
M  V30 2768 N 267.536 -0.106894 1.57237 0
M  V30 2769 C 268.499 -1.11466 2.0027 0
M  V30 2770 C 269.499 -1.33623 0.894519 0
M  V30 2771 O 270.689 -1.29935 1.16028 0
M  V30 2772 C 267.821 -2.46646 2.35327 0
M  V30 2773 H 269.014 -0.744516 2.90512 0
M  V30 2774 H 266.567 -0.351576 1.52295 0
M  V30 2775 H 267.302 -2.88558 1.48003 0
M  V30 2776 H 267.087 -2.31915 3.16161 0
M  V30 2777 H 268.577 -3.19151 2.69318 0
M  V30 2778 N 269.014 -1.53014 -0.377408 0
M  V30 2779 C 270.262 -1.6829 -1.11906 0
M  V30 2780 C 270.583 -0.431206 -1.90173 0
M  V30 2781 O 269.853 0.554595 -1.87886 0
M  V30 2782 H 268.433 -0.620371 -0.416112 0
M  V30 2783 H 271.095 -1.90167 -0.426893 0
M  V30 2784 H 270.191 -2.53862 -1.8155 0
M  V30 2785 N 270.492 0.636531 -1.44174 0
M  V30 2786 C 271.74 1.39343 -1.46383 0
M  V30 2787 C 272.061 1.94766 -0.0955715 0
M  V30 2788 O 271.331 1.75452 0.871395 0
M  V30 2789 H 269.911 0.517199 -0.538994 0
M  V30 2790 H 272.573 0.74957 -1.7991 0
M  V30 2791 H 271.669 2.22746 -2.18611 0
M  V30 2792 N 271.97 1.30982 0.876444 0
M  V30 2793 C 273.219 1.19658 1.62373 0
M  V30 2794 C 273.532 -0.245636 1.94052 0
M  V30 2795 O 274.738 -0.48049 2.67214 0
M  V30 2796 C 273.194 2.09433 2.92687 0
M  V30 2797 C 272.802 3.58613 2.68516 0
M  V30 2798 C 274.546 2.06893 3.70669 0
M  V30 2799 C 272.453 4.40416 3.94699 0
M  V30 2800 H 271.383 0.444268 0.609214 0
M  V30 2801 H 274.034 1.55791 0.969605 0
M  V30 2802 H 272.416 1.66191 3.59439 0
M  V30 2803 H 273.59 4.10058 2.10212 0
M  V30 2804 H 271.905 3.63063 2.03898 0
M  V30 2805 H 274.502 2.65258 4.64265 0
M  V30 2806 H 274.845 1.05448 4.02724 0
M  V30 2807 H 275.378 2.48301 3.10792 0
M  V30 2808 H 272.117 5.42591 3.67798 0
M  V30 2809 H 271.637 3.93731 4.52477 0
M  V30 2810 H 273.316 4.52294 4.62644 0
M  V30 2811 N 273.449 -1.08991 1.13837 0
M  V30 2812 C 274.865 -1.33312 0.877506 0
M  V30 2813 C 275.065 -1.95587 -0.48456 0
M  V30 2814 O 274.121 -2.20509 -1.23013 0
M  V30 2815 C 275.434 -2.24045 2.0056 0
M  V30 2816 C 276.982 -2.37542 2.03821 0
M  V30 2817 C 277.457 -3.31614 3.15905 0
M  V30 2818 N 278.948 -3.39189 3.15445 0
M  V30 2819 C 279.683 -4.11992 3.98811 0
M  V30 2820 N 279.179 -4.87553 4.92203 0
M  V30 2821 N 280.972 -4.07762 3.86894 0
M  V30 2822 H 273.123 -0.669456 2.01574 0
M  V30 2823 H 275.386 -0.357482 0.878015 0
M  V30 2824 H 275.092 -1.85521 2.98789 0
M  V30 2825 H 274.966 -3.24466 1.92359 0
M  V30 2826 H 277.353 -2.75327 1.06202 0
M  V30 2827 H 277.434 -1.36884 2.16093 0
M  V30 2828 H 277.078 -2.94551 4.13766 0
M  V30 2829 H 277.008 -4.32186 3.0087 0
M  V30 2830 H 279.499 -2.85314 2.47799 0
M  V30 2831 H 279.812 -5.40549 5.52292 0
M  V30 2832 H 278.157 -4.86627 4.96205 0
M  V30 2833 H 281.348 -3.47833 3.13257 0
M  V30 2834 H 281.521 -4.64238 4.52092 0
M  V30 2835 N 274.927 -0.932562 -1.27047 0
M  V30 2836 C 276.204 -0.49377 -1.89265 0
M  V30 2837 C 276.584 1.02833 -1.8436 0
M  V30 2838 O 275.932 1.88461 -1.29209 0
M  V30 2839 C 276.142 -1.04536 -3.32976 0
M  V30 2840 C 277.49 -1.10879 -4.09867 0
M  V30 2841 O 278.514 -0.995327 -3.42011 0
M  V30 2842 O 277.373 -1.28417 -5.31198 0
M  V30 2843 H 274.467 -0.159596 -0.811454 0
M  V30 2844 H 277.013 -1.02457 -1.3528 0
M  V30 2845 H 275.785 -2.08913 -3.30864 0
M  V30 2846 H 275.408 -0.496494 -3.94488 0
M  V30 2847 N 276.405 1.4127 -0.698611 0
M  V30 2848 C 277.821 1.55241 -0.370462 0
M  V30 2849 C 278.021 1.67351 1.12231 0
M  V30 2850 O 277.077 1.65363 1.90818 0
M  V30 2851 C 278.39 2.78997 -1.12165 0
M  V30 2852 C 279.938 2.92797 -1.1063 0
M  V30 2853 C 280.413 4.19445 -1.8393 0
M  V30 2854 N 281.904 4.26409 -1.80914 0
M  V30 2855 C 282.639 5.23271 -2.34467 0
M  V30 2856 N 282.135 6.26145 -2.96504 0
M  V30 2857 N 283.928 5.15232 -2.24706 0
M  V30 2858 H 276.079 1.31654 -1.66676 0
M  V30 2859 H 278.342 0.635393 -0.703548 0
M  V30 2860 H 278.048 2.76268 -2.17644 0
M  V30 2861 H 277.922 3.70606 -0.702209 0
M  V30 2862 H 280.309 2.95039 -0.0597713 0
M  V30 2863 H 280.39 2.02353 -1.56483 0
M  V30 2864 H 280.034 4.17964 -2.88563 0
M  V30 2865 H 279.964 5.08866 -1.35509 0
M  V30 2866 H 282.455 3.527 -1.35687 0
M  V30 2867 H 282.768 6.96451 -3.34927 0
M  V30 2868 H 281.113 6.26638 -3.00583 0
M  V30 2869 H 284.304 4.33789 -1.7591 0
M  V30 2870 H 284.477 5.90552 -2.66745 0
M  V30 2871 N 277.883 0.443576 1.51229 0
M  V30 2872 C 278.793 -0.370721 2.31652 0
M  V30 2873 C 279.809 -1.02186 1.40833 0
M  V30 2874 O 280.985 -1.01586 1.73903 0
M  V30 2875 C 278.05 -1.45376 3.14749 0
M  V30 2876 C 277.111 -0.822099 4.21355 0
M  V30 2877 C 276.344 -1.85353 5.0048 0
M  V30 2878 O 276.567 -3.07656 4.80316 0
M  V30 2879 O 275.501 -1.4406 5.84406 0
M  V30 2880 H 279.327 0.286002 3.0235 0
M  V30 2881 H 276.912 0.20598 1.47973 0
M  V30 2882 H 278.794 -2.08173 3.66391 0
M  V30 2883 H 277.469 -2.09445 2.46809 0
M  V30 2884 H 276.376 -0.155909 3.73775 0
M  V30 2885 H 277.709 -0.224797 4.91686 0
M  V30 2886 N 279.361 -1.56624 0.175154 0
M  V30 2887 C 280.589 -2.01374 -0.474971 0
M  V30 2888 C 281.004 -1.05537 -1.56548 0
M  V30 2889 O 280.361 -0.0568668 -1.82411 0
M  V30 2890 C 280.412 -3.45923 -1.04975 0
M  V30 2891 O 280.133 -4.381 -0.00276605 0
M  V30 2892 C 281.634 -4.06093 -1.77773 0
M  V30 2893 H 278.854 -0.659962 -0.121206 0
M  V30 2894 H 281.398 -2.02601 0.27801 0
M  V30 2895 H 279.553 -3.45458 -1.75321 0
M  V30 2896 H 279.967 -5.22753 -0.427681 0
M  V30 2897 H 281.441 -5.09147 -2.13245 0
M  V30 2898 H 281.918 -3.48405 -2.67414 0
M  V30 2899 H 282.524 -4.10272 -1.12059 0
M  V30 2900 N 280.839 0.0985539 -1.57292 0
M  V30 2901 C 281.802 1.10402 -2.00858 0
M  V30 2902 C 282.802 1.33146 -0.901593 0
M  V30 2903 O 283.992 1.29318 -1.16716 0
M  V30 2904 C 281.124 2.45394 -2.36632 0
M  V30 2905 H 282.317 0.729099 -2.90902 0
M  V30 2906 H 279.87 0.343495 -1.52479 0
M  V30 2907 H 280.605 2.87769 -1.49531 0
M  V30 2908 H 280.39 2.30235 -3.17387 0
M  V30 2909 H 281.88 3.17718 -2.71007 0
M  V30 2910 N 282.317 1.53212 0.369288 0
M  V30 2911 C 283.247 1.82365 1.45826 0
M  V30 2912 C 284.228 0.676907 1.56051 0
M  V30 2913 O 285.413 0.926401 1.70679 0
M  V30 2914 C 282.543 2.01023 2.83208 0
M  V30 2915 C 281.497 3.1678 2.8781 0
M  V30 2916 C 280.823 3.20724 4.27832 0
M  V30 2917 C 282.123 4.55447 2.55667 0
M  V30 2918 H 283.817 2.73559 1.21678 0
M  V30 2919 H 281.363 1.3163 0.583911 0
M  V30 2920 H 283.316 2.20001 3.59413 0
M  V30 2921 H 282.04 1.06536 3.08736 0
M  V30 2922 H 280.699 2.97616 2.14056 0
M  V30 2923 H 280.347 2.23882 4.50429 0
M  V30 2924 H 280.047 3.98496 4.31827 0
M  V30 2925 H 281.571 3.41881 5.05915 0
M  V30 2926 H 282.985 4.74611 3.21586 0
M  V30 2927 H 281.382 5.35432 2.70984 0
M  V30 2928 H 282.452 4.60812 1.5093 0
M  V30 2929 N 283.795 -0.628877 1.44509 0
M  V30 2930 C 285.211 -0.947305 1.28446 0
M  V30 2931 C 285.411 -2.00275 0.221872 0
M  V30 2932 O 284.467 -2.49447 -0.391471 0
M  V30 2933 C 285.78 -1.40843 2.65676 0
M  V30 2934 C 287.328 -1.52379 2.73404 0
M  V30 2935 C 287.803 -2.01875 4.11109 0
M  V30 2936 N 289.294 -2.09142 4.13296 0
M  V30 2937 C 290.029 -2.48615 5.16699 0
M  V30 2938 N 289.525 -2.87209 6.30462 0
M  V30 2939 N 291.318 -2.48768 5.04054 0
M  V30 2940 H 283.469 0.0690977 2.12288 0
M  V30 2941 H 285.732 -0.0317164 0.947469 0
M  V30 2942 H 285.438 -0.707206 3.44516 0
M  V30 2943 H 285.312 -2.37902 2.92716 0
M  V30 2944 H 287.699 -2.21598 1.9488 0
M  V30 2945 H 287.78 -0.536898 2.50102 0
M  V30 2946 H 287.424 -1.3325 4.90109 0
M  V30 2947 H 287.354 -3.0144 4.31789 0
M  V30 2948 H 289.845 -1.81991 3.31191 0
M  V30 2949 H 290.158 -3.16149 7.05174 0
M  V30 2950 H 288.503 -2.84955 6.33897 0
M  V30 2951 H 291.694 -2.18009 4.14234 0
M  V30 2952 H 291.867 -2.79207 5.84763 0
M  V30 2953 N 285.273 -1.31445 -0.869486 0
M  V30 2954 C 286.206 -1.13465 -1.97992 0
M  V30 2955 C 287.184 -0.0380291 -1.62556 0
M  V30 2956 O 288.368 -0.194544 -1.87493 0
M  V30 2957 C 285.495 -0.733822 -3.30655 0
M  V30 2958 C 284.541 -1.83356 -3.85075 0
M  V30 2959 S 285.374 -3.43909 -4.10472 0
M  V30 2960 C 286.53 -3.05763 -5.46132 0
M  V30 2961 H 286.763 -2.07471 -2.1294 0
M  V30 2962 H 284.296 -1.15936 -1.01972 0
M  V30 2963 H 286.254 -0.509306 -4.07328 0
M  V30 2964 H 284.915 0.187123 -3.13542 0
M  V30 2965 H 284.108 -1.50574 -4.80982 0
M  V30 2966 H 283.71 -2.01315 -3.15195 0
M  V30 2967 H 286.002 -2.54686 -6.27807 0
M  V30 2968 H 286.945 -4.00635 -5.83864 0
M  V30 2969 H 287.353 -2.43192 -5.09429 0
M  V30 2970 N 286.751 1.08385 -1.14413 0
M  V30 2971 C 287.681 2.17321 -0.854044 0
M  V30 2972 C 288.662 1.69024 0.191049 0
M  V30 2973 O 289.847 1.94141 0.0476779 0
M  V30 2974 C 286.977 3.45719 -0.330983 0
M  V30 2975 C 285.931 4.07409 -1.31155 0
M  V30 2976 C 285.257 5.30762 -0.64778 0
M  V30 2977 C 286.557 4.48665 -2.67388 0
M  V30 2978 H 288.251 2.41845 -1.76498 0
M  V30 2979 H 285.797 1.16233 -0.850051 0
M  V30 2980 H 287.75 4.21241 -0.115645 0
M  V30 2981 H 286.474 3.2075 0.615381 0
M  V30 2982 H 285.133 3.33919 -1.51306 0
M  V30 2983 H 284.781 5.02078 0.304398 0
M  V30 2984 H 284.481 5.72992 -1.30207 0
M  V30 2985 H 286.005 6.08998 -0.441972 0
M  V30 2986 H 287.419 5.15364 -2.51143 0
M  V30 2987 H 285.816 5.01814 -3.29093 0
M  V30 2988 H 286.886 3.60543 -3.24248 0
M  V30 2989 N 288.23 0.939286 1.26551 0
M  V30 2990 C 289.177 0.446088 2.26448 0
M  V30 2991 C 290.147 -0.493234 1.58608 0
M  V30 2992 O 291.332 -0.409857 1.86346 0
M  V30 2993 C 288.472 -0.284375 3.43926 0
M  V30 2994 C 287.585 0.690399 4.26448 0
M  V30 2995 C 286.72 -0.0610712 5.31165 0
M  V30 2996 C 285.759 0.905649 6.05363 0
M  V30 2997 N 284.896 0.186055 7.01853 0
M  V30 2998 H 289.736 1.30291 2.68008 0
M  V30 2999 H 287.273 0.65371 1.31776 0
M  V30 3000 H 289.231 -0.724313 4.10864 0
M  V30 3001 H 287.861 -1.10535 3.03285 0
M  V30 3002 H 286.913 1.24885 3.59316 0
M  V30 3003 H 288.225 1.42873 4.779 0
M  V30 3004 H 287.379 -0.56038 6.04106 0
M  V30 3005 H 286.118 -0.832297 4.80546 0
M  V30 3006 H 285.123 1.4161 5.3125 0
M  V30 3007 H 286.348 1.67685 6.58072 0
M  V30 3008 H 284.294 -0.566714 6.53548 0
M  V30 3009 H 284.211 0.863752 7.51049 0
M  V30 3010 H 285.479 -0.292221 7.78952 0
M  V30 3011 N 289.708 -1.40897 0.706093 0
M  V30 3012 C 290.671 -2.29131 0.0562841 0
M  V30 3013 C 291.671 -1.44901 -0.697166 0
M  V30 3014 O 292.861 -1.65926 -0.530484 0
M  V30 3015 C 289.993 -3.27957 -0.93043 0
M  V30 3016 H 291.186 -2.88091 0.833284 0
M  V30 3017 H 288.739 -1.4906 0.470192 0
M  V30 3018 H 289.474 -2.73997 -1.73482 0
M  V30 3019 H 289.259 -3.90124 -0.393166 0
M  V30 3020 H 290.749 -3.94049 -1.38256 0
M  V30 3021 N 291.186 -0.45159 -1.50991 0
M  V30 3022 C 292.434 0.109857 -2.01801 0
M  V30 3023 C 292.755 1.41958 -1.3369 0
M  V30 3024 O 292.025 1.9003 -0.475951 0
M  V30 3025 H 290.605 0.0435884 -0.745727 0
M  V30 3026 H 293.267 -0.597557 -1.85514 0
M  V30 3027 H 292.363 0.275489 -3.10882 0
M  V30 3028 N 292.664 1.56529 -0.183458 0
M  V30 3029 C 293.627 2.17324 0.728223 0
M  V30 3030 C 294.627 1.12453 1.14939 0
M  V30 3031 O 295.817 1.37902 1.06437 0
M  V30 3032 C 292.949 2.76591 1.99274 0
M  V30 3033 H 294.142 2.99241 0.198772 0
M  V30 3034 H 291.695 1.5616 0.0661391 0
M  V30 3035 H 292.43 1.98441 2.56499 0
M  V30 3036 H 292.215 3.5335 1.69959 0
M  V30 3037 H 293.705 3.23311 2.6431 0
M  V30 3038 N 294.142 -0.090211 1.57342 0
M  V30 3039 C 295.367 -0.810082 1.90925 0
M  V30 3040 C 295.792 -1.71248 0.778187 0
M  V30 3041 O 295.15 -1.79278 -0.269991 0
M  V30 3042 C 295.198 -1.59529 3.23393 0
M  V30 3043 O 294.302 -2.70461 3.11327 0
M  V30 3044 H 293.643 -0.222231 0.625707 0
M  V30 3045 H 296.173 -0.0639716 2.045 0
M  V30 3046 H 296.183 -1.97847 3.5682 0
M  V30 3047 H 294.858 -0.933055 4.05299 0
M  V30 3048 H 293.435 -2.35135 2.89423 0
M  V30 3049 N 295.62 -1.53406 -0.361157 0
M  V30 3050 C 297.036 -1.43277 -0.703124 0
M  V30 3051 C 297.236 -0.575384 -1.9311 0
M  V30 3052 O 296.292 -0.0595362 -2.5243 0
M  V30 3053 C 297.605 -2.8653 -0.9122 0
M  V30 3054 C 299.153 -2.96191 -1.01193 0
M  V30 3055 C 299.628 -4.40514 -1.25345 0
M  V30 3056 N 301.119 -4.43962 -1.32105 0
M  V30 3057 C 301.854 -5.52746 -1.5251 0
M  V30 3058 N 301.35 -6.71567 -1.70203 0
M  V30 3059 N 303.143 -5.40331 -1.54916 0
M  V30 3060 H 295.294 -2.07654 0.446475 0
M  V30 3061 H 297.557 -0.937944 0.137715 0
M  V30 3062 H 297.263 -3.51605 -0.0816414 0
M  V30 3063 H 297.137 -3.30441 -1.81903 0
M  V30 3064 H 299.524 -2.31266 -1.83303 0
M  V30 3065 H 299.605 -2.55667 -0.0823929 0
M  V30 3066 H 299.249 -5.06014 -0.437346 0
M  V30 3067 H 299.179 -4.78614 -2.19627 0
M  V30 3068 H 301.67 -3.58332 -1.20028 0
M  V30 3069 H 301.983 -7.50241 -1.85359 0
M  V30 3070 H 300.328 -6.74545 -1.67373 0
M  V30 3071 H 303.519 -4.46465 -1.40663 0
M  V30 3072 H 303.692 -6.25173 -1.70477 0
M  V30 3073 N 297.098 0.621204 -1.44841 0
M  V30 3074 C 298.028 1.74366 -1.55303 0
M  V30 3075 C 299.009 1.65199 -0.405385 0
M  V30 3076 O 300.194 1.83807 -0.626787 0
M  V30 3077 C 297.324 3.12931 -1.50637 0
M  V30 3078 C 296.278 3.36896 -2.63979 0
M  V30 3079 C 295.604 4.75594 -2.44366 0
M  V30 3080 C 296.904 3.28483 -4.06074 0
M  V30 3081 H 298.598 1.65867 -2.49256 0
M  V30 3082 H 296.144 0.796558 -1.19962 0
M  V30 3083 H 298.097 3.9124 -1.56555 0
M  V30 3084 H 296.821 3.22237 -0.532057 0
M  V30 3085 H 295.48 2.60972 -2.57467 0
M  V30 3086 H 295.128 4.81616 -1.45105 0
M  V30 3087 H 294.828 4.92586 -3.20364 0
M  V30 3088 H 296.352 5.5612 -2.52117 0
M  V30 3089 H 297.766 3.96684 -4.13902 0
M  V30 3090 H 296.163 3.57008 -4.82354 0
M  V30 3091 H 297.233 2.26133 -4.28943 0
M  V30 3092 N 298.576 1.31904 0.862503 0
M  V30 3093 C 299.824 1.21776 1.61292 0
M  V30 3094 C 300.145 -0.222413 1.93727 0
M  V30 3095 O 299.415 -1.1451 1.58947 0
M  V30 3096 H 297.995 0.447717 0.597962 0
M  V30 3097 H 300.657 1.65326 1.03215 0
M  V30 3098 H 299.753 1.7948 2.5533 0
M  V30 3099 N 300.054 -1.07777 1.14986 0
M  V30 3100 C 301.282 -1.84018 0.945773 0
M  V30 3101 C 301.697 -1.81897 -0.505863 0
M  V30 3102 O 301.054 -1.22726 -1.35072 0
M  V30 3103 C 301.105 -3.31287 1.44677 0
M  V30 3104 O 300.826 -3.33449 2.84154 0
M  V30 3105 C 302.327 -4.24311 1.28355 0
M  V30 3106 H 299.547 -0.580716 0.336169 0
M  V30 3107 H 302.091 -1.36077 1.52654 0
M  V30 3108 H 300.246 -3.76594 0.908625 0
M  V30 3109 H 300.66 -4.25427 3.06777 0
M  V30 3110 H 302.134 -5.2573 1.68261 0
M  V30 3111 H 302.611 -4.38612 0.227184 0
M  V30 3112 H 303.217 -3.84836 1.81056 0
M  V30 3113 N 301.532 -0.945985 -1.26051 0
M  V30 3114 C 302.757 -0.612525 -1.98149 0
M  V30 3115 C 303.182 0.806623 -1.69927 0
M  V30 3116 O 302.54 1.54411 -0.950108 0
M  V30 3117 C 302.588 -0.866981 -3.50023 0
M  V30 3118 O 301.692 0.0585333 -4.12358 0
M  V30 3119 H 301.033 -0.23379 -0.621481 0
M  V30 3120 H 303.563 -1.27023 -1.60395 0
M  V30 3121 H 303.573 -0.789792 -4.00283 0
M  V30 3122 H 302.248 -1.90135 -3.69894 0
M  V30 3123 H 300.825 -0.0701241 -3.72834 0
M  V30 3124 N 303.011 1.40521 -0.713556 0
M  V30 3125 C 304.236 2.05759 -0.26035 0
M  V30 3126 C 304.661 1.53403 1.08854 0
M  V30 3127 O 304.019 0.668535 1.68524 0
M  V30 3128 C 304.067 3.59745 -0.248122 0
M  V30 3129 O 303.171 4.05123 0.77131 0
M  V30 3130 H 302.512 0.652564 -0.122703 0
M  V30 3131 H 305.042 1.79958 -0.973467 0
M  V30 3132 H 305.052 4.07911 -0.0851129 0
M  V30 3133 H 303.727 3.97218 -1.2325 0
M  V30 3134 H 302.304 3.68422 0.57619 0
M  V30 3135 N 304.489 0.459591 1.5075 0
M  V30 3136 C 305.737 -0.0991532 2.01857 0
M  V30 3137 C 306.058 -1.41247 1.34441 0
M  V30 3138 O 305.328 -1.89775 0.486022 0
M  V30 3139 H 303.908 -0.039633 0.745948 0
M  V30 3140 H 306.57 0.607387 1.85194 0
M  V30 3141 H 305.666 -0.258998 3.11023 0
M  V30 3142 N 305.967 -1.56429 0.191757 0
M  V30 3143 C 307.213 -1.97777 -0.448554 0
M  V30 3144 C 307.546 -1.07847 -1.61501 0
M  V30 3145 O 306.821 -0.129774 -1.94067 0
M  V30 3146 C 307.104 -3.48362 -0.911906 0
M  V30 3147 C 306.957 -4.4907 0.256136 0
M  V30 3148 C 308.276 -4.02561 -1.77857 0
M  V30 3149 H 305.395 -0.719071 -0.161572 0
M  V30 3150 H 308.037 -1.87896 0.282007 0
M  V30 3151 H 306.187 -3.56914 -1.53442 0
M  V30 3152 H 307.859 -4.5256 0.893733 0
M  V30 3153 H 306.102 -4.24181 0.908436 0
M  V30 3154 H 306.773 -5.51889 -0.11053 0
M  V30 3155 H 309.249 -3.96767 -1.25359 0
M  V30 3156 H 308.125 -5.08301 -2.07174 0
M  V30 3157 H 308.386 -3.47616 -2.73158 0
M  V30 3158 N 307.445 0.0818655 -1.57387 0
M  V30 3159 C 308.408 1.08265 -2.02018 0
M  V30 3160 C 309.408 1.32183 -0.915664 0
M  V30 3161 O 310.598 1.28073 -1.18081 0
M  V30 3162 C 307.73 2.42871 -2.39221 0
M  V30 3163 H 308.923 0.698204 -2.91659 0
M  V30 3164 H 306.476 0.327303 -1.52835 0
M  V30 3165 H 307.211 2.86167 -1.52575 0
M  V30 3166 H 306.996 2.26855 -3.19811 0
M  V30 3167 H 308.486 3.14826 -2.74362 0
M  V30 3168 N 308.923 1.53595 0.353017 0
M  V30 3169 C 309.853 1.83902 1.43883 0
M  V30 3170 C 310.834 0.693421 1.55324 0
M  V30 3171 O 312.019 0.944452 1.69687 0
M  V30 3172 C 309.149 2.04016 2.8106 0
M  V30 3173 C 308.103 3.19814 2.84434 0
M  V30 3174 C 307.429 3.25244 4.24406 0
M  V30 3175 C 308.729 4.58133 2.50822 0
M  V30 3176 H 310.423 2.74835 1.1877 0
M  V30 3177 H 307.969 1.32242 0.569917 0
M  V30 3178 H 309.922 2.238 3.57059 0
M  V30 3179 H 308.646 1.09804 3.07588 0
M  V30 3180 H 307.305 2.9987 2.10887 0
M  V30 3181 H 306.953 2.28646 4.48029 0
M  V30 3182 H 306.653 4.03054 4.27576 0
M  V30 3183 H 308.177 3.47228 5.0226 0
M  V30 3184 H 309.591 4.77995 3.16534 0
M  V30 3185 H 307.988 5.38276 2.6529 0
M  V30 3186 H 309.058 4.62387 1.46034 0
M  V30 3187 N 310.401 -0.613514 1.45168 0
M  V30 3188 C 311.647 -1.37471 1.49096 0
M  V30 3189 C 311.98 -1.93765 0.129901 0
M  V30 3190 O 311.255 -1.74707 -0.854858 0
M  V30 3191 C 311.538 -2.52701 2.56542 0
M  V30 3192 C 311.391 -2.01643 4.0207 0
M  V30 3193 C 312.71 -3.54849 2.60327 0
M  V30 3194 H 309.829 -0.498502 0.54283 0
M  V30 3195 H 312.471 -0.692125 1.76945 0
M  V30 3196 H 310.621 -3.10931 2.32926 0
M  V30 3197 H 312.293 -1.48108 4.36877 0
M  V30 3198 H 310.536 -1.32688 4.13009 0
M  V30 3199 H 311.207 -2.84681 4.72928 0
M  V30 3200 H 313.683 -3.0645 2.81474 0
M  V30 3201 H 312.559 -4.32973 3.37381 0
M  V30 3202 H 312.82 -4.10079 1.6519 0
M  V30 3203 N 311.879 -1.3236 -0.855495 0
M  V30 3204 C 312.842 -1.21164 -1.94556 0
M  V30 3205 C 313.842 -0.134908 -1.60233 0
M  V30 3206 O 315.032 -0.385249 -1.69887 0
M  V30 3207 C 312.164 -0.863192 -3.29791 0
M  V30 3208 H 313.357 -2.18038 -2.05911 0
M  V30 3209 H 310.91 -1.16179 -1.04557 0
M  V30 3210 H 311.645 0.103769 -3.24134 0
M  V30 3211 H 311.43 -1.64166 -3.56078 0
M  V30 3212 H 312.92 -0.809156 -4.09686 0
M  V30 3213 N 313.357 1.07166 -1.15556 0
M  V30 3214 C 314.605 1.79443 -0.929764 0
M  V30 3215 C 314.926 1.87246 0.544414 0
M  V30 3216 O 314.196 1.37473 1.39564 0
M  V30 3217 H 312.776 0.664625 -0.341003 0
M  V30 3218 H 315.438 1.29499 -1.45657 0
M  V30 3219 H 314.534 2.81832 -1.34079 0
M  V30 3220 N 314.835 0.952656 1.25548 0
M  V30 3221 C 315.745 0.47782 2.29682 0
M  V30 3222 C 316.761 -0.453859 1.67977 0
M  V30 3223 O 317.937 -0.330587 1.98668 0
M  V30 3224 C 315.002 -0.238655 3.45878 0
M  V30 3225 C 314.063 0.730994 4.23031 0
M  V30 3226 C 313.296 0.0486165 5.33678 0
M  V30 3227 O 313.519 -1.16612 5.58353 0
M  V30 3228 O 312.453 0.733152 5.97418 0
M  V30 3229 H 316.279 1.34312 2.72386 0
M  V30 3230 H 313.864 0.719026 1.30959 0
M  V30 3231 H 315.746 -0.641774 4.16484 0
M  V30 3232 H 314.421 -1.07916 3.05181 0
M  V30 3233 H 313.328 1.18428 3.5486 0
M  V30 3234 H 314.661 1.53946 4.67506 0
M  V30 3235 N 316.313 -1.40141 0.720998 0
M  V30 3236 C 317.561 -2.0039 0.262323 0
M  V30 3237 C 317.882 -1.57469 -1.15015 0
M  V30 3238 O 317.152 -0.816582 -1.78069 0
M  V30 3239 H 315.732 -0.741063 0.093996 0
M  V30 3240 H 318.394 -1.71398 0.927835 0
M  V30 3241 H 317.49 -3.10658 0.299671 0
M  V30 3242 N 317.792 -0.46758 -1.50504 0
M  V30 3243 C 319.04 0.0884469 -2.01906 0
M  V30 3244 C 319.361 1.40532 -1.35188 0
M  V30 3245 O 318.631 1.89515 -0.496079 0
M  V30 3246 H 317.211 0.0356765 -0.746148 0
M  V30 3247 H 319.873 -0.6172 -1.84869 0
M  V30 3248 H 318.969 0.2425 -3.11156 0
M  V30 3249 N 319.27 1.56325 -0.20005 0
M  V30 3250 C 320.498 2.02105 0.442874 0
M  V30 3251 C 320.913 1.08014 1.5485 0
M  V30 3252 O 320.27 0.0858797 1.82298 0
M  V30 3253 C 320.321 3.47549 0.994583 0
M  V30 3254 O 320.042 4.38049 -0.0669322 0
M  V30 3255 C 321.543 4.0887 1.7129 0
M  V30 3256 H 318.763 0.661807 0.110691 0
M  V30 3257 H 321.307 2.02134 -0.310207 0
M  V30 3258 H 319.462 3.48204 1.69803 0
M  V30 3259 H 319.876 5.23368 0.344462 0
M  V30 3260 H 321.35 5.12475 2.05118 0
M  V30 3261 H 321.827 3.52615 2.61838 0
M  V30 3262 H 322.433 4.12002 1.05518 0
M  V30 3263 N 320.748 -0.0735177 1.57428 0
M  V30 3264 C 321.678 -1.0879 2.06608 0
M  V30 3265 C 322.659 -1.40473 0.959237 0
M  V30 3266 O 323.844 -1.5013 1.23185 0
M  V30 3267 C 320.974 -2.40183 2.50857 0
M  V30 3268 C 319.928 -2.22858 3.65402 0
M  V30 3269 C 319.254 -3.59619 3.957 0
M  V30 3270 C 320.554 -1.65123 4.95511 0
M  V30 3271 H 322.248 -0.678673 2.91607 0
M  V30 3272 H 319.794 -0.325013 1.40284 0
M  V30 3273 H 321.747 -3.11437 2.83874 0
M  V30 3274 H 320.471 -2.83083 1.62885 0
M  V30 3275 H 319.13 -1.54045 3.32664 0
M  V30 3276 H 318.778 -4.00086 3.04861 0
M  V30 3277 H 318.478 -3.48866 4.72828 0
M  V30 3278 H 320.002 -4.32306 4.31212 0
M  V30 3279 H 321.416 -2.26241 5.26771 0
M  V30 3280 H 319.813 -1.65071 5.7695 0
M  V30 3281 H 320.883 -0.612559 4.81015 0
M  V30 3282 N 322.226 -1.5378 -0.344866 0
M  V30 3283 C 323.474 -1.70625 -1.08311 0
M  V30 3284 C 323.795 -0.471447 -1.89215 0
M  V30 3285 O 323.065 0.514616 -1.8902 0
M  V30 3286 H 321.645 -0.629058 -0.402859 0
M  V30 3287 H 324.307 -1.9103 -0.386459 0
M  V30 3288 H 323.403 -2.57656 -1.76124 0
M  V30 3289 N 323.704 0.605807 -1.45491 0
M  V30 3290 C 324.934 1.38934 -1.52908 0
M  V30 3291 C 325.342 1.88513 -0.161086 0
M  V30 3292 O 324.685 1.62962 0.847891 0
M  V30 3293 C 324.747 2.62737 -2.45376 0
M  V30 3294 C 324.411 2.34785 -3.92078 0
M  V30 3295 C 325.408 1.95038 -4.8193 0
M  V30 3296 C 323.093 2.47642 -4.37011 0
M  V30 3297 C 325.087 1.68511 -6.14722 0
M  V30 3298 C 322.774 2.20728 -5.69844 0
M  V30 3299 C 323.772 1.81225 -6.58519 0
M  V30 3300 O 323.46 1.54627 -7.88889 0
M  V30 3301 H 323.192 0.431629 -0.520262 0
M  V30 3302 H 325.746 0.74573 -1.91384 0
M  V30 3303 H 323.976 3.29824 -2.01874 0
M  V30 3304 H 325.665 3.24783 -2.43456 0
M  V30 3305 H 326.431 1.84639 -4.48479 0
M  V30 3306 H 322.31 2.77356 -3.68232 0
M  V30 3307 H 325.854 1.37602 -6.83894 0
M  V30 3308 H 321.751 2.30744 -6.02849 0
M  V30 3309 H 322.519 1.68665 -8.00933 0
M  V30 3310 O 325.221 1.43044 0.749719 0
M  V30 3311 H 325.912 1.3401 1.3986 0
M  V30 END ATOM
M  V30 BEGIN BOND
M  V30 END BOND
M  V30 END CTAB
M  END
$$$$
