drugbank_target|Q5SJ79 Cytochrome c oxidase subunit 1 (DB02451)
 OpenBabel12092120433D

  0  0  0     0  0            999 V3000
M  V30 BEGIN CTAB
M  V30 COUNTS 9003 9160 0 0 0
M  V30 BEGIN ATOM
M  V30 1 H -0.908 1.98254 -0.117106 0
M  V30 2 N 0 1.576 0 0
M  V30 3 C 0.933 2.03868 1.02534 0
M  V30 4 C 1.911 0.928543 1.3348 0
M  V30 5 O 3.095 1.19667 1.45644 0
M  V30 6 C 0.222 2.43627 2.35294 0
M  V30 7 C -0.732 3.65373 2.2001 0
M  V30 8 S 0.101 5.13292 1.52614 0
M  V30 9 C 1.257 5.56322 2.86805 0
M  V30 10 H 1.49 2.90518 0.631377 0
M  V30 11 H -0.977 1.52953 0.210867 0
M  V30 12 H 0.981 2.67203 3.11629 0
M  V30 13 H -0.358 1.57376 2.7183 0
M  V30 14 H -1.165 3.90944 3.18086 0
M  V30 15 H -1.563 3.418 1.51819 0
M  V30 16 H 0.729 5.58782 3.83104 0
M  V30 17 H 1.672 6.56266 2.65933 0
M  V30 18 H 2.08 4.83886 2.90714 0
M  V30 19 N 1.4781 -0.272755 1.55222 0
M  V30 20 C 2.4411 -1.32041 1.87344 0
M  V30 21 C 3.4411 -1.42342 0.74803 0
M  V30 22 O 4.6311 -1.41488 1.0162 0
M  V30 23 C 1.7631 -2.70173 2.07893 0
M  V30 24 H 2.9561 -1.04789 2.80997 0
M  V30 25 H 0.5091 -0.51083 1.47717 0
M  V30 26 H 1.2441 -3.02605 1.16622 0
M  V30 27 H 1.0291 -2.64082 2.89833 0
M  V30 28 H 2.5191 -3.45869 2.34017 0
M  V30 29 N 2.9562 -1.48159 -0.537278 0
M  V30 30 C 4.2022 -1.56035 -1.29541 0
M  V30 31 C 4.5352 -0.230377 -1.92829 0
M  V30 32 O 3.8102 0.762952 -1.78911 0
M  V30 33 C 4.0932 -2.69323 -2.39034 0
M  V30 34 C 3.9462 -4.12002 -1.80485 0
M  V30 35 C 5.2652 -2.78408 -3.40847 0
M  V30 36 H 2.3842 -0.567992 -0.469632 0
M  V30 37 H 5.0262 -1.80302 -0.599277 0
M  V30 38 H 3.1762 -2.48763 -2.98412 0
M  V30 39 H 4.8482 -4.43981 -1.25215 0
M  V30 40 H 3.0912 -4.19344 -1.11055 0
M  V30 41 H 3.7622 -4.87077 -2.59731 0
M  V30 42 H 6.2382 -2.97012 -2.91416 0
M  V30 43 H 5.1142 -3.59416 -4.14863 0
M  V30 44 H 5.3752 -1.86269 -4.00944 0
M  V30 45 N 4.4343 0.785586 -1.36625 0
M  V30 46 C 5.8503 1.08419 -1.17122 0
M  V30 47 C 6.0503 2.015 0.00208491 0
M  V30 48 O 5.1063 2.43551 0.666278 0
M  V30 49 C 6.4193 1.69498 -2.48377 0
M  V30 50 C 7.9673 1.81821 -2.54775 0
M  V30 51 C 8.4423 2.46315 -3.86126 0
M  V30 52 N 9.9333 2.53779 -3.87492 0
M  V30 53 C 10.6683 3.045 -4.85868 0
M  V30 54 N 10.1643 3.55499 -5.94637 0
M  V30 55 N 11.9573 3.03247 -4.73284 0
M  V30 56 H 4.1083 0.167264 -2.1174 0
M  V30 57 H 6.3713 0.13682 -0.938075 0
M  V30 58 H 6.0773 1.08571 -3.34522 0
M  V30 59 H 5.9513 2.6896 -2.64462 0
M  V30 60 H 8.3383 2.41884 -1.69045 0
M  V30 61 H 8.4193 0.811532 -2.42586 0
M  V30 62 H 8.0633 1.86895 -4.72263 0
M  V30 63 H 7.9933 3.47561 -3.95612 0
M  V30 64 H 10.4843 2.17672 -3.08913 0
M  V30 65 H 10.7973 3.92562 -6.65669 0
M  V30 66 H 9.1423 3.5364 -5.98301 0
M  V30 67 H 12.3333 2.62696 -3.87438 0
M  V30 68 H 12.5063 3.42467 -5.50109 0
M  V30 69 N 5.9124 1.20967 1.01018 0
M  V30 70 C 6.8754 0.965918 2.07853 0
M  V30 71 C 7.8754 -0.0610545 1.60684 0
M  V30 72 O 9.0654 0.175681 1.73312 0
M  V30 73 C 6.1974 0.455513 3.37843 0
M  V30 74 H 7.3904 1.91365 2.3091 0
M  V30 75 H 4.9434 1.02594 1.17916 0
M  V30 76 H 5.6784 -0.497381 3.20463 0
M  V30 77 H 5.4634 1.19622 3.73407 0
M  V30 78 H 6.9534 0.304667 4.16487 0
M  V30 79 N 7.3905 -1.2043 1.01659 0
M  V30 80 C 8.6155 -1.94318 0.724942 0
M  V30 81 C 9.0405 -1.74266 -0.708034 0
M  V30 82 O 8.3985 -1.03694 -1.48719 0
M  V30 83 C 8.4465 -3.44486 1.06591 0
M  V30 84 O 7.5505 -4.12017 0.177599 0
M  V30 85 H 6.8915 -0.60708 0.26898 0
M  V30 86 H 9.4215 -1.52861 1.35995 0
M  V30 87 H 9.4315 -3.95106 1.01762 0
M  V30 88 H 8.1065 -3.58404 2.10997 0
M  V30 89 H 6.6835 -3.71821 0.283421 0
M  V30 90 N 8.8686 -0.792821 -1.36206 0
M  V30 91 C 9.7786 -0.194808 -2.3379 0
M  V30 92 C 10.7946 0.654869 -1.61206 0
M  V30 93 O 11.9706 0.569856 -1.9317 0
M  V30 94 C 9.0356 0.657721 -3.40404 0
M  V30 95 C 8.0966 -0.210849 -4.28782 0
M  V30 96 C 7.3296 0.601086 -5.30304 0
M  V30 97 O 7.5526 1.83682 -5.40016 0
M  V30 98 O 6.4866 -0.000808277 -6.019 0
M  V30 99 H 10.3126 -1.00172 -2.86704 0
M  V30 100 H 7.8976 -0.554341 -1.38735 0
M  V30 101 H 9.7796 1.14375 -4.05581 0
M  V30 102 H 8.4546 1.44247 -2.89784 0
M  V30 103 H 7.3616 -0.743714 -3.66633 0
M  V30 104 H 8.6946 -0.959195 -4.82763 0
M  V30 105 N 10.3467 1.47872 -0.545128 0
M  V30 106 C 11.5957 2.01695 -0.0145033 0
M  V30 107 C 11.9087 1.42609 1.33873 0
M  V30 108 O 13.1147 1.88021 1.95858 0
M  V30 109 C 11.5707 3.59892 0.0245068 0
M  V30 110 C 11.1787 4.27966 -1.32475 0
M  V30 111 C 12.9227 4.21507 0.50316 0
M  V30 112 C 10.8297 5.78136 -1.2455 0
M  V30 113 H 9.7597 0.753998 -0.00165172 0
M  V30 114 H 12.4107 1.69985 -0.691175 0
M  V30 115 H 10.7927 3.88509 0.766575 0
M  V30 116 H 11.9667 4.11003 -2.08357 0
M  V30 117 H 10.2817 3.78286 -1.74036 0
M  V30 118 H 12.8787 5.31538 0.580656 0
M  V30 119 H 13.2217 3.87855 1.51243 0
M  V30 120 H 13.7547 3.97376 -0.183681 0
M  V30 121 H 10.4937 6.16388 -2.23039 0
M  V30 122 H 10.0137 5.97469 -0.528282 0
M  V30 123 H 11.6927 6.40099 -0.942488 0
M  V30 124 N 11.8248 0.280983 1.55075 0
M  V30 125 C 13.0498 -0.340154 2.04592 0
M  V30 126 C 13.4748 -1.48246 1.15779 0
M  V30 127 O 12.8328 -1.80614 0.15761 0
M  V30 128 C 12.8808 -0.793104 3.5177 0
M  V30 129 O 11.9848 -1.89981 3.66034 0
M  V30 130 H 11.3258 -0.0694289 0.66036 0
M  V30 131 H 13.8558 0.416993 2.00306 0
M  V30 132 H 13.8658 -1.08729 3.93245 0
M  V30 133 H 12.5408 0.0426163 4.15878 0
M  V30 134 H 11.1178 -1.60771 3.36463 0
M  V30 135 N 13.3029 -1.57598 0.00835791 0
M  V30 136 C 14.7189 -1.55764 -0.347822 0
M  V30 137 C 14.9189 -1.01186 -1.74252 0
M  V30 138 O 13.9749 -0.649371 -2.44007 0
M  V30 139 C 15.2879 -2.99927 -0.215407 0
M  V30 140 C 16.8359 -3.11656 -0.289725 0
M  V30 141 C 17.3109 -4.57621 -0.18634 0
M  V30 142 N 18.8019 -4.62557 -0.243978 0
M  V30 143 C 19.5369 -5.73094 -0.18745 0
M  V30 144 N 19.0329 -6.92753 -0.0810331 0
M  V30 145 N 20.8259 -5.61588 -0.239925 0
M  V30 146 H 12.9769 -1.91411 0.92062 0
M  V30 147 H 15.2399 -0.879562 0.353659 0
M  V30 148 H 14.9459 -3.43729 0.744512 0
M  V30 149 H 14.8199 -3.63865 -0.994097 0
M  V30 150 H 17.2069 -2.67779 -1.24009 0
M  V30 151 H 17.2879 -2.5048 0.51898 0
M  V30 152 H 16.9319 -5.02174 0.760519 0
M  V30 153 H 16.8619 -5.16752 -1.01364 0
M  V30 154 H 19.3529 -3.76481 -0.327217 0
M  V30 155 H 19.6659 -7.72787 -0.0440241 0
M  V30 156 H 18.0109 -6.94984 -0.0465419 0
M  V30 157 H 21.2019 -4.66996 -0.321317 0
M  V30 158 H 21.3749 -6.47714 -0.192407 0
M  V30 159 N 14.781 0.264519 -1.55364 0
M  V30 160 C 16.027 0.99646 -1.76631 0
M  V30 161 C 16.36 1.85632 -0.570478 0
M  V30 162 O 15.635 1.89647 0.43175 0
M  V30 163 C 15.918 1.87187 -3.07625 0
M  V30 164 C 15.771 1.04138 -4.37579 0
M  V30 165 C 17.09 2.85749 -3.34717 0
M  V30 166 H 14.209 0.360841 -0.642622 0
M  V30 167 H 16.851 0.268218 -1.88097 0
M  V30 168 H 15.001 2.49279 -2.9798 0
M  V30 169 H 16.673 0.440517 -4.59192 0
M  V30 170 H 14.916 0.345115 -4.32425 0
M  V30 171 H 15.587 1.68729 -5.2558 0
M  V30 172 H 18.063 2.33793 -3.4421 0
M  V30 173 H 16.939 3.44136 -4.27623 0
M  V30 174 H 17.2 3.61311 -2.54768 0
M  V30 175 N 16.2591 1.48442 0.529413 0
M  V30 176 C 17.4891 1.59919 1.30804 0
M  V30 177 C 17.8971 0.258792 1.87422 0
M  V30 178 O 17.2401 -0.762096 1.67146 0
M  V30 179 C 17.3021 2.58693 2.49636 0
M  V30 180 C 16.9661 4.03745 2.14101 0
M  V30 181 C 17.9631 4.9141 1.6974 0
M  V30 182 C 15.6481 4.49285 2.24607 0
M  V30 183 C 17.6421 6.22645 1.36351 0
M  V30 184 C 15.3291 5.8054 1.9083 0
M  V30 185 C 16.3271 6.67043 1.46773 0
M  V30 186 O 16.0151 7.95856 1.1344 0
M  V30 187 H 15.7471 0.541981 0.404021 0
M  V30 188 H 18.3011 1.95 0.645309 0
M  V30 189 H 16.5311 2.18734 3.18892 0
M  V30 190 H 18.2201 2.59999 3.11698 0
M  V30 191 H 18.9861 4.57465 1.61094 0
M  V30 192 H 14.8651 3.82142 2.57854 0
M  V30 193 H 18.4091 6.90119 1.01891 0
M  V30 194 H 14.3061 6.14022 1.99117 0
M  V30 195 H 15.0741 8.08613 1.26832 0
M  V30 196 N 17.7372 -0.778329 1.37039 0
M  V30 197 C 18.6472 -1.92253 1.34446 0
M  V30 198 C 19.6632 -1.72267 0.244991 0
M  V30 199 O 20.8392 -1.95615 0.479258 0
M  V30 200 C 17.9042 -3.27282 1.144 0
M  V30 201 C 16.9652 -3.59969 2.33925 0
M  V30 202 C 16.1982 -4.88555 2.14825 0
M  V30 203 O 16.4212 -5.59113 1.12912 0
M  V30 204 O 15.3552 -5.20153 3.02861 0
M  V30 205 H 19.1812 -1.97392 2.30803 0
M  V30 206 H 16.7662 -0.920154 1.17701 0
M  V30 207 H 18.6482 -4.08062 1.05182 0
M  V30 208 H 17.3232 -3.23011 0.211124 0
M  V30 209 H 16.2302 -2.7945 2.48714 0
M  V30 210 H 17.5632 -3.68976 3.25757 0
M  V30 211 N 19.2153 -1.21501 -1.00376 0
M  V30 212 C 20.1783 -0.976927 -2.07337 0
M  V30 213 C 21.1783 0.0525322 -1.60714 0
M  V30 214 O 22.3683 -0.184869 -1.73216 0
M  V30 215 C 19.5003 -0.473423 -3.37597 0
M  V30 216 H 20.6933 -1.92587 -2.29892 0
M  V30 217 H 18.2463 -1.03217 -1.17371 0
M  V30 218 H 18.9813 0.480379 -3.20722 0
M  V30 219 H 18.7663 -1.216 -3.72768 0
M  V30 220 H 20.2563 -0.32675 -4.1632 0
M  V30 221 N 20.6934 1.19889 -1.02296 0
M  V30 222 C 21.9234 1.93109 -0.734332 0
M  V30 223 C 22.3314 1.75377 0.709889 0
M  V30 224 O 21.6744 1.06912 1.49384 0
M  V30 225 C 21.7364 3.45362 -0.99827 0
M  V30 226 C 21.4004 3.8686 -2.43287 0
M  V30 227 C 22.3974 3.92102 -3.41397 0
M  V30 228 C 20.0824 4.18668 -2.77529 0
M  V30 229 C 22.0764 4.28573 -4.71809 0
M  V30 230 C 19.7634 4.54813 -4.08153 0
M  V30 231 C 20.7614 4.59739 -5.05103 0
M  V30 232 O 20.4494 4.95051 -6.33388 0
M  V30 233 H 20.1814 0.620409 -0.268456 0
M  V30 234 H 22.7354 1.53144 -1.3688 0
M  V30 235 H 20.9654 3.85482 -0.306645 0
M  V30 236 H 22.6544 3.99814 -0.700234 0
M  V30 237 H 23.4204 3.67685 -3.1628 0
M  V30 238 H 19.2994 4.14021 -2.0275 0
M  V30 239 H 22.8434 4.32333 -5.4748 0
M  V30 240 H 18.7404 4.78687 -4.33047 0
M  V30 241 H 19.5084 5.1302 -6.37772 0
M  V30 242 N 22.1715 0.800033 1.35784 0
M  V30 243 C 23.5825 0.439142 1.81462 0
M  V30 244 C 23.9335 -1.03813 1.66485 0
M  V30 245 O 23.0585 -1.80626 1.19177 0
M  V30 246 C 23.6535 0.790314 3.29453 0
M  V30 247 C 22.2125 0.482111 3.733 0
M  V30 248 C 21.3595 1.01938 2.57883 0
M  V30 249 H 24.3105 0.992254 1.23855 0
M  V30 250 H 24.3315 0.0853677 3.80404 0
M  V30 251 H 23.8435 1.86554 3.40322 0
M  V30 252 H 21.9445 -0.584652 3.67984 0
M  V30 253 H 22.0575 1.01015 4.6833 0
M  V30 254 H 20.4215 0.442043 2.50835 0
M  V30 255 H 21.2045 2.10059 2.71533 0
M  V30 256 N 23.6496 -1.47581 0.552962 0
M  V30 257 C 24.5596 -2.33743 -0.200353 0
M  V30 258 C 25.5756 -1.47928 -0.916151 0
M  V30 259 O 26.7516 -1.80865 -0.885993 0
M  V30 260 C 23.8166 -3.24536 -1.21973 0
M  V30 261 C 22.8776 -4.26238 -0.511819 0
M  V30 262 C 22.1106 -5.12693 -1.48263 0
M  V30 263 O 22.3336 -5.01525 -2.71714 0
M  V30 264 O 21.2676 -5.93375 -1.00945 0
M  V30 265 H 25.0936 -2.9945 0.506304 0
M  V30 266 H 22.6786 -1.46071 0.313622 0
M  V30 267 H 24.5606 -3.80631 -1.80827 0
M  V30 268 H 23.2356 -2.61462 -1.90839 0
M  V30 269 H 22.1426 -3.73914 0.117799 0
M  V30 270 H 23.4756 -4.92014 0.135308 0
M  V30 271 N 25.1277 -0.289203 -1.54924 0
M  V30 272 C 26.0747 0.592115 -2.23075 0
M  V30 273 C 27.0447 1.13881 -1.20915 0
M  V30 274 O 28.2297 1.18551 -1.495 0
M  V30 275 C 25.3697 1.76376 -2.96623 0
M  V30 276 C 24.4827 1.24959 -4.13533 0
M  V30 277 C 23.6177 2.38416 -4.74691 0
M  V30 278 C 22.6567 1.84072 -5.83767 0
M  V30 279 N 21.7937 2.91057 -6.38929 0
M  V30 280 H 26.6337 0.00432038 -2.98 0
M  V30 281 H 24.1707 -0.00963529 -1.47097 0
M  V30 282 H 26.1287 2.45268 -3.3749 0
M  V30 283 H 24.7587 2.32337 -2.24097 0
M  V30 284 H 23.8107 0.453307 -3.77689 0
M  V30 285 H 25.1227 0.811662 -4.92152 0
M  V30 286 H 24.2767 3.15276 -5.18349 0
M  V30 287 H 23.0157 2.8553 -3.95378 0
M  V30 288 H 22.0207 1.05697 -5.39545 0
M  V30 289 H 23.2457 1.37877 -6.64956 0
M  V30 290 H 21.1917 3.37526 -5.62505 0
M  V30 291 H 21.1087 2.51724 -7.12861 0
M  V30 292 H 22.3767 3.6785 -6.87246 0
M  V30 293 N 26.6058 1.57591 -0.0167156 0
M  V30 294 C 27.5528 2.09462 0.969251 0
M  V30 295 C 28.5228 0.99381 1.33089 0
M  V30 296 O 29.7078 1.26726 1.42636 0
M  V30 297 C 26.8478 2.61622 2.25051 0
M  V30 298 C 25.9608 3.85666 1.94642 0
M  V30 299 C 25.0958 4.26266 3.16972 0
M  V30 300 C 24.1348 5.43101 2.82326 0
M  V30 301 N 23.2718 5.78915 3.97243 0
M  V30 302 H 28.1118 2.93428 0.519997 0
M  V30 303 H 25.6488 1.45044 0.245087 0
M  V30 304 H 27.6068 2.89949 2.99976 0
M  V30 305 H 26.2368 1.80505 2.67615 0
M  V30 306 H 25.2888 3.64145 1.10013 0
M  V30 307 H 26.6008 4.70678 1.65117 0
M  V30 308 H 25.7548 4.55963 4.00228 0
M  V30 309 H 24.4938 3.39996 3.49648 0
M  V30 310 H 23.4988 5.1311 1.97479 0
M  V30 311 H 24.7238 6.3106 2.50879 0
M  V30 312 H 22.6698 4.95602 4.29785 0
M  V30 313 H 22.5868 6.58539 3.71299 0
M  V30 314 H 23.8548 6.13212 4.81239 0
M  V30 315 N 28.0839 -0.256276 1.55502 0
M  V30 316 C 29.0469 -1.30047 1.88734 0
M  V30 317 C 30.0469 -1.4154 0.763086 0
M  V30 318 O 31.2369 -1.40403 1.03115 0
M  V30 319 C 28.3689 -2.67953 2.10747 0
M  V30 320 H 29.5619 -1.01802 2.82093 0
M  V30 321 H 27.1149 -0.495134 1.4825 0
M  V30 322 H 27.8499 -3.01351 1.19825 0
M  V30 323 H 27.6349 -2.60993 2.92617 0
M  V30 324 H 29.1249 -3.43368 2.37673 0
M  V30 325 N 29.562 -1.4872 -0.521534 0
M  V30 326 C 30.79 -1.60843 -1.30142 0
M  V30 327 C 31.205 -0.271897 -1.86832 0
M  V30 328 O 30.562 0.739969 -1.66825 0
M  V30 329 C 30.613 -2.66155 -2.4463 0
M  V30 330 O 30.334 -3.94623 -1.90275 0
M  V30 331 C 31.835 -2.88795 -3.36322 0
M  V30 332 H 29.055 -0.542075 -0.395468 0
M  V30 333 H 31.599 -1.94609 -0.628285 0
M  V30 334 H 29.754 -2.35224 -3.07812 0
M  V30 335 H 30.168 -4.52468 -2.65279 0
M  V30 336 H 31.642 -3.66264 -4.12983 0
M  V30 337 H 32.119 -1.97934 -3.9207 0
M  V30 338 H 32.725 -3.21063 -2.78924 0
M  V30 339 N 31.0401 0.771051 -1.3745 0
M  V30 340 C 31.9701 1.89827 -1.3597 0
M  V30 341 C 32.9511 1.68562 -0.228216 0
M  V30 342 O 34.1361 1.8941 -0.428675 0
M  V30 343 C 31.2661 3.2712 -1.16662 0
M  V30 344 C 30.2201 3.6295 -2.2683 0
M  V30 345 C 29.5461 4.98791 -1.92644 0
M  V30 346 C 30.8461 3.69627 -3.69017 0
M  V30 347 H 32.5401 1.91323 -2.30295 0
M  V30 348 H 30.0861 0.919082 -1.10855 0
M  V30 349 H 32.0391 4.05615 -1.14256 0
M  V30 350 H 30.7631 3.26059 -0.187926 0
M  V30 351 H 29.4221 2.86763 -2.28392 0
M  V30 352 H 29.0701 4.94271 -0.933021 0
M  V30 353 H 28.7701 5.23733 -2.66416 0
M  V30 354 H 30.2941 5.79685 -1.91826 0
M  V30 355 H 31.7081 4.38273 -3.69581 0
M  V30 356 H 30.1051 4.06067 -4.41848 0
M  V30 357 H 31.1751 2.70273 -4.02592 0
M  V30 358 N 32.5182 1.22032 0.997298 0
M  V30 359 C 33.7482 1.06686 1.76923 0
M  V30 360 C 34.1562 -0.385838 1.85224 0
M  V30 361 O 33.4992 -1.27929 1.31833 0
M  V30 362 C 33.5612 1.59802 3.22031 0
M  V30 363 C 33.2252 3.08362 3.37286 0
M  V30 364 C 34.2222 4.05835 3.24952 0
M  V30 365 C 31.9072 3.47727 3.6248 0
M  V30 366 C 33.9012 5.4066 3.37588 0
M  V30 367 C 31.5882 4.82701 3.74757 0
M  V30 368 C 32.5862 5.78977 3.62319 0
M  V30 369 O 32.2742 7.11502 3.74193 0
M  V30 370 H 32.0062 0.374767 0.562606 0
M  V30 371 H 34.5602 1.61991 1.26286 0
M  V30 372 H 32.7902 0.989003 3.73839 0
M  V30 373 H 34.4792 1.40184 3.80924 0
M  V30 374 H 35.2452 3.76766 3.05405 0
M  V30 375 H 31.1242 2.73317 3.7124 0
M  V30 376 H 34.6682 6.15788 3.27796 0
M  V30 377 H 30.5652 5.11453 3.9381 0
M  V30 378 H 31.3332 7.19019 3.91093 0
M  V30 379 N 33.9963 -1.19345 1.0293 0
M  V30 380 C 35.2433 -1.89038 0.726008 0
M  V30 381 C 35.5713 -1.79649 -0.745427 0
M  V30 382 O 34.8263 -1.18354 -1.55855 0
M  V30 383 C 35.1253 -3.39292 1.12319 0
M  V30 384 C 34.7913 -3.68885 2.59297 0
M  V30 385 C 33.4533 -3.76671 2.99453 0
M  V30 386 C 35.8053 -3.82178 3.54386 0
M  V30 387 C 33.1333 -3.9522 4.33611 0
M  V30 388 C 35.4853 -4.0224 4.88248 0
M  V30 389 C 34.1493 -4.08259 5.28092 0
M  V30 390 H 33.4193 -0.691739 0.265665 0
M  V30 391 H 36.0663 -1.41328 1.29223 0
M  V30 392 H 34.3713 -3.88903 0.475584 0
M  V30 393 H 36.0683 -3.91536 0.866037 0
M  V30 394 H 32.6583 -3.63433 2.27189 0
M  V30 395 H 36.8423 -3.75505 3.24514 0
M  V30 396 H 32.0983 -3.98119 4.64016 0
M  V30 397 H 36.2723 -4.11468 5.61843 0
M  V30 398 H 33.8993 -4.22384 6.32057 0
M  V30 399 N 35.4744 -0.807222 -1.35358 0
M  V30 400 C 36.4044 -0.232509 -2.3234 0
M  V30 401 C 37.3854 0.642386 -1.57504 0
M  V30 402 O 38.5704 0.572526 -1.85569 0
M  V30 403 C 35.7004 0.619238 -3.41735 0
M  V30 404 C 34.6544 -0.157215 -4.27711 0
M  V30 405 C 33.9804 0.816273 -5.28433 0
M  V30 406 C 35.2804 -1.35656 -5.04376 0
M  V30 407 H 36.9744 -1.04276 -2.80654 0
M  V30 408 H 34.5204 -0.50288 -1.34934 0
M  V30 409 H 36.4734 1.03137 -4.08584 0
M  V30 410 H 35.1974 1.46239 -2.92031 0
M  V30 411 H 33.8564 -0.550525 -3.62443 0
M  V30 412 H 33.5044 1.65494 -4.74996 0
M  V30 413 H 33.2044 0.301067 -5.86828 0
M  V30 414 H 34.7284 1.22659 -5.98153 0
M  V30 415 H 36.1424 -1.01927 -5.64166 0
M  V30 416 H 34.5394 -1.8063 -5.7227 0
M  V30 417 H 35.6094 -2.14288 -4.34981 0
M  V30 418 N 36.9525 1.47285 -0.560781 0
M  V30 419 C 38.1985 2.02764 -0.0381184 0
M  V30 420 C 38.5315 1.43384 1.30976 0
M  V30 421 O 37.8065 0.590733 1.85312 0
M  V30 422 C 38.0895 3.60064 0.0511427 0
M  V30 423 C 37.9425 4.2987 -1.32408 0
M  V30 424 C 39.2615 4.33439 0.762795 0
M  V30 425 H 36.3805 0.736841 -0.0153264 0
M  V30 426 H 39.0225 1.75675 -0.723759 0
M  V30 427 H 37.1725 3.83274 0.635065 0
M  V30 428 H 38.8445 4.17989 -1.95148 0
M  V30 429 H 37.0875 3.90085 -1.8978 0
M  V30 430 H 37.7585 5.38478 -1.21431 0
M  V30 431 H 40.2345 4.15243 0.266965 0
M  V30 432 H 39.1105 5.43124 0.794221 0
M  V30 433 H 39.3715 4.02915 1.81966 0
M  V30 434 N 38.4306 0.297415 1.54768 0
M  V30 435 C 39.3606 -0.573494 2.26348 0
M  V30 436 C 40.3416 -1.14085 1.26169 0
M  V30 437 O 41.5266 -1.17086 1.54934 0
M  V30 438 C 38.6566 -1.74716 3.00153 0
M  V30 439 C 37.6106 -1.31032 4.07449 0
M  V30 440 C 36.9366 -2.56887 4.68949 0
M  V30 441 C 38.2366 -0.444183 5.20408 0
M  V30 442 H 39.9306 0.0235131 2.99391 0
M  V30 443 H 37.4766 0.0127488 1.43994 0
M  V30 444 H 39.4296 -2.3625 3.48947 0
M  V30 445 H 38.1536 -2.37035 2.24682 0
M  V30 446 H 36.8126 -0.718066 3.59499 0
M  V30 447 H 36.4606 -3.17512 3.90122 0
M  V30 448 H 36.1606 -2.2836 5.41411 0
M  V30 449 H 37.6846 -3.19229 5.20505 0
M  V30 450 H 39.0986 -0.9651 5.65118 0
M  V30 451 H 37.4956 -0.252846 5.99567 0
M  V30 452 H 38.5656 0.531609 4.81977 0
M  V30 453 N 39.9087 -1.5758 0.0250728 0
M  V30 454 C 41.1567 -1.91255 -0.653151 0
M  V30 455 C 41.4777 -0.901691 -1.729 0
M  V30 456 O 40.7477 0.0573785 -1.95816 0
M  V30 457 H 39.3277 -0.705942 -0.244243 0
M  V30 458 H 41.9897 -1.94767 0.0719209 0
M  V30 459 H 41.0857 -2.91752 -1.10847 0
M  V30 460 N 41.3868 0.248026 -1.55636 0
M  V30 461 C 42.6338 0.976224 -1.77415 0
M  V30 462 C 42.9618 1.85361 -0.589193 0
M  V30 463 O 42.2168 1.90973 0.427529 0
M  V30 464 C 42.5158 1.86819 -3.04686 0
M  V30 465 C 42.1818 1.14625 -4.36087 0
M  V30 466 C 40.8438 0.946723 -4.71795 0
M  V30 467 C 43.1958 0.634463 -5.17324 0
M  V30 468 C 40.5238 0.223091 -5.86276 0
M  V30 469 C 42.8758 -0.0756959 -6.32555 0
M  V30 470 C 41.5398 -0.286711 -6.66884 0
M  V30 471 H 40.8098 0.357226 -0.649208 0
M  V30 472 H 43.4568 0.246415 -1.89908 0
M  V30 473 H 41.7618 2.66502 -2.872 0
M  V30 474 H 43.4588 2.43329 -3.18735 0
M  V30 475 H 40.0488 1.3117 -4.08035 0
M  V30 476 H 44.2328 0.77616 -4.90193 0
M  V30 477 H 39.4888 0.0491185 -6.1138 0
M  V30 478 H 43.6628 -0.479899 -6.94745 0
M  V30 479 H 41.2898 -0.849389 -7.5544 0
M  V30 480 N 42.8649 1.48995 0.513639 0
M  V30 481 C 43.7949 1.67636 1.62544 0
M  V30 482 C 44.7759 0.525087 1.61793 0
M  V30 483 O 45.9609 0.759502 1.78732 0
M  V30 484 C 43.0909 1.73114 3.01079 0
M  V30 485 C 42.0449 2.87905 3.16693 0
M  V30 486 C 41.3709 2.78486 4.56453 0
M  V30 487 C 42.6709 4.29005 2.97913 0
M  V30 488 H 44.3649 2.60716 1.47198 0
M  V30 489 H 41.9109 1.25465 0.706714 0
M  V30 490 H 43.8639 1.84742 3.78746 0
M  V30 491 H 42.5879 0.766241 3.17484 0
M  V30 492 H 41.2469 2.75859 2.41448 0
M  V30 493 H 40.8949 1.7993 4.69717 0
M  V30 494 H 40.5949 3.55523 4.67843 0
M  V30 495 H 42.1189 2.92104 5.36197 0
M  V30 496 H 43.5329 4.41798 3.65359 0
M  V30 497 H 41.9299 5.07166 3.20785 0
M  V30 498 H 42.9999 4.44329 1.94165 0
M  V30 499 N 44.343 -0.763751 1.37857 0
M  V30 500 C 45.306 -1.85889 1.34081 0
M  V30 501 C 46.306 -1.58949 0.243277 0
M  V30 502 O 47.496 -1.66882 0.499589 0
M  V30 503 C 44.628 -3.23176 1.08489 0
M  V30 504 H 45.821 -1.90648 2.31502 0
M  V30 505 H 43.374 -0.964367 1.23003 0
M  V30 506 H 44.109 -3.24091 0.116318 0
M  V30 507 H 43.894 -3.44124 1.8794 0
M  V30 508 H 45.384 -4.03254 1.08517 0
M  V30 509 N 45.8211 -1.22559 -0.990812 0
M  V30 510 C 46.7511 -1.0218 -2.09956 0
M  V30 511 C 47.7321 0.0579394 -1.70001 0
M  V30 512 O 48.9171 -0.104684 -1.93918 0
M  V30 513 C 46.0471 -0.601023 -3.4206 0
M  V30 514 C 45.0011 -1.62694 -3.95872 0
M  V30 515 C 44.3271 -1.06193 -5.24049 0
M  V30 516 C 45.6271 -3.01743 -4.2632 0
M  V30 517 H 47.3211 -1.94916 -2.27262 0
M  V30 518 H 44.8671 -0.938566 -1.09211 0
M  V30 519 H 46.8201 -0.445561 -4.19038 0
M  V30 520 H 45.5441 0.362005 -3.24588 0
M  V30 521 H 44.2031 -1.77021 -3.21028 0
M  V30 522 H 43.8511 -0.0901903 -5.02919 0
M  V30 523 H 43.5511 -1.74732 -5.61019 0
M  V30 524 H 45.0751 -0.918092 -6.03658 0
M  V30 525 H 46.4891 -2.90777 -4.94087 0
M  V30 526 H 44.8861 -3.67425 -4.74467 0
M  V30 527 H 45.9561 -3.51518 -3.34011 0
M  V30 528 N 47.2992 1.18797 -1.03562 0
M  V30 529 C 48.5482 1.87978 -0.731235 0
M  V30 530 C 48.8612 1.80911 0.743671 0
M  V30 531 O 50.0672 2.45407 1.16137 0
M  V30 532 C 48.5232 3.3721 -1.25768 0
M  V30 533 C 48.1312 3.52818 -2.76085 0
M  V30 534 C 49.8752 4.11825 -1.0296 0
M  V30 535 C 47.7822 4.9598 -3.22114 0
M  V30 536 H 46.7122 0.704063 -0.269835 0
M  V30 537 H 49.3632 1.34266 -1.25079 0
M  V30 538 H 47.7452 3.90359 -0.666011 0
M  V30 539 H 48.9192 3.09965 -3.40966 0
M  V30 540 H 47.2342 2.91602 -2.97249 0
M  V30 541 H 49.8312 5.17411 -1.34869 0
M  V30 542 H 50.1742 4.16287 0.0333546 0
M  V30 543 H 50.7072 3.64833 -1.58562 0
M  V30 544 H 47.4462 4.96684 -4.27768 0
M  V30 545 H 46.9662 5.39569 -2.61965 0
M  V30 546 H 48.6452 5.6467 -3.15844 0
M  V30 547 N 48.7773 0.814389 1.34928 0
M  V30 548 C 50.0233 0.399013 1.98836 0
M  V30 549 C 50.3563 -1.03314 1.64438 0
M  V30 550 O 49.6313 -1.71811 0.911659 0
M  V30 551 C 49.9143 0.591629 3.55207 0
M  V30 552 C 49.7673 2.06928 3.99376 0
M  V30 553 C 51.0863 0.022199 4.40094 0
M  V30 554 H 48.2053 0.146451 0.722303 0
M  V30 555 H 50.8473 1.02537 1.59957 0
M  V30 556 H 48.9973 0.0584441 3.88456 0
M  V30 557 H 50.6693 2.66544 3.76499 0
M  V30 558 H 48.9123 2.56287 3.49999 0
M  V30 559 H 49.5833 2.1549 5.08201 0
M  V30 560 H 52.0593 0.477643 4.13349 0
M  V30 561 H 50.9353 0.186832 5.48582 0
M  V30 562 H 51.1963 -1.07215 4.28902 0
M  V30 563 N 50.2554 -1.46986 0.568584 0
M  V30 564 C 51.5034 -2.02041 0.0487022 0
M  V30 565 C 51.8244 -1.44408 -1.31039 0
M  V30 566 O 51.0944 -0.623477 -1.85714 0
M  V30 567 H 49.6744 -0.746849 0.015014 0
M  V30 568 H 52.3364 -1.80257 0.741168 0
M  V30 569 H 51.4324 -3.12085 -0.0308961 0
M  V30 570 N 51.7335 -0.305618 -1.54608 0
M  V30 571 C 52.9585 0.307562 -2.05107 0
M  V30 572 C 53.3835 1.46385 -1.18123 0
M  V30 573 O 52.7415 1.8034 -0.186324 0
M  V30 574 C 52.7895 0.73704 -3.52987 0
M  V30 575 O 51.8935 1.84134 -3.6901 0
M  V30 576 H 51.2345 0.0589143 -0.661381 0
M  V30 577 H 53.7645 -0.448807 -1.99617 0
M  V30 578 H 53.7745 1.02459 -3.94925 0
M  V30 579 H 52.4495 -0.108773 -4.15758 0
M  V30 580 H 51.0265 1.55398 -3.38978 0
M  V30 581 N 53.2116 1.57565 -0.0334293 0
M  V30 582 C 54.1416 2.13511 0.945265 0
M  V30 583 C 55.1226 1.05231 1.33643 0
M  V30 584 O 56.3076 1.33084 1.41429 0
M  V30 585 C 53.4376 2.6657 2.22616 0
M  V30 586 C 52.3916 3.79676 1.97561 0
M  V30 587 C 51.7176 4.1918 3.31952 0
M  V30 588 C 53.0176 5.0557 1.31135 0
M  V30 589 H 54.7116 2.95538 0.479325 0
M  V30 590 H 52.2576 1.42166 0.229115 0
M  V30 591 H 54.2106 3.04344 2.91466 0
M  V30 592 H 52.9346 1.8171 2.71384 0
M  V30 593 H 51.5936 3.42347 1.31127 0
M  V30 594 H 51.2416 3.31296 3.78487 0
M  V30 595 H 50.9416 4.95402 3.15992 0
M  V30 596 H 52.4656 4.59541 4.02063 0
M  V30 597 H 53.8796 5.40903 1.89992 0
M  V30 598 H 52.2766 5.86818 1.25559 0
M  V30 599 H 53.3466 4.84062 0.284894 0
M  V30 600 N 54.6897 -0.239769 1.55765 0
M  V30 601 C 55.9367 -0.966801 1.7793 0
M  V30 602 C 56.2647 -1.85046 0.599015 0
M  V30 603 O 55.5197 -1.91197 -0.417395 0
M  V30 604 C 55.8187 -1.852 3.05672 0
M  V30 605 C 55.4847 -1.1231 4.36689 0
M  V30 606 C 54.1467 -0.921689 4.72291 0
M  V30 607 C 56.4987 -0.607019 5.17653 0
M  V30 608 C 53.8267 -0.191996 5.86386 0
M  V30 609 C 56.1787 0.109241 6.32506 0
M  V30 610 C 54.8427 0.322073 6.66723 0
M  V30 611 H 54.1127 -0.353778 0.651093 0
M  V30 612 H 56.7597 -0.23634 1.90036 0
M  V30 613 H 55.0647 -2.64975 2.8861 0
M  V30 614 H 56.7617 -2.41635 3.20021 0
M  V30 615 H 53.3517 -1.29004 4.08725 0
M  V30 616 H 57.5357 -0.750153 4.90598 0
M  V30 617 H 52.7917 -0.0166949 6.11398 0
M  V30 618 H 56.9657 0.516737 6.9448 0
M  V30 619 H 54.5927 0.88944 7.54979 0
M  V30 620 N 56.1678 -1.49265 -0.50573 0
M  V30 621 C 57.4158 -1.582 -1.25766 0
M  V30 622 C 57.7368 -0.268482 -1.93143 0
M  V30 623 O 57.0068 0.711833 -1.8251 0
M  V30 624 H 55.5868 -0.582873 -0.467191 0
M  V30 625 H 58.2488 -1.85865 -0.586525 0
M  V30 626 H 57.3448 -2.37563 -2.02412 0
M  V30 627 N 57.6459 0.756429 -1.3826 0
M  V30 628 C 59.0569 1.33359 -1.30661 0
M  V30 629 C 59.4079 1.96161 0.0388875 0
M  V30 630 O 58.5329 1.94874 0.940918 0
M  V30 631 C 59.1279 2.42477 -2.36622 0
M  V30 632 C 57.6869 2.95922 -2.3261 0
M  V30 633 C 56.8339 1.69275 -2.19639 0
M  V30 634 H 59.7849 0.55552 -1.4866 0
M  V30 635 H 59.8059 3.22345 -2.02174 0
M  V30 636 H 59.3179 1.96739 -3.34538 0
M  V30 637 H 57.4189 3.45996 -1.38267 0
M  V30 638 H 57.5319 3.50494 -3.26636 0
M  V30 639 H 55.8959 1.92793 -1.66442 0
M  V30 640 H 56.6789 1.25619 -3.19491 0
M  V30 641 N 59.124 1.23083 0.984299 0
M  V30 642 C 60.371 1.06057 1.72505 0
M  V30 643 C 60.699 -0.403105 1.90277 0
M  V30 644 O 59.954 -1.3149 1.44944 0
M  V30 645 C 60.253 1.72673 3.1292 0
M  V30 646 C 59.919 3.22586 3.15038 0
M  V30 647 C 58.581 3.63489 3.15324 0
M  V30 648 C 60.933 4.185 3.10657 0
M  V30 649 C 58.261 4.98772 3.08939 0
M  V30 650 C 60.613 5.53769 3.05814 0
M  V30 651 C 59.277 5.94041 3.04419 0
M  V30 652 H 58.547 0.388091 0.631242 0
M  V30 653 H 61.194 1.52963 1.15215 0
M  V30 654 H 59.499 1.18116 3.73572 0
M  V30 655 H 61.196 1.56982 3.68996 0
M  V30 656 H 57.786 2.90022 3.15571 0
M  V30 657 H 61.97 3.87911 3.09579 0
M  V30 658 H 57.226 5.29193 3.0621 0
M  V30 659 H 61.4 6.27808 3.0138 0
M  V30 660 H 59.027 6.98833 2.99227 0
M  V30 661 N 60.6021 -1.18246 1.0419 0
M  V30 662 C 61.5341 -2.2142 0.592088 0
M  V30 663 C 62.5471 -1.59233 -0.338909 0
M  V30 664 O 63.7361 -1.78002 -0.133231 0
M  V30 665 C 60.8361 -3.38546 -0.154854 0
M  V30 666 C 60.0091 -4.3031 0.784328 0
M  V30 667 C 59.0681 -5.26138 0.0804583 0
M  V30 668 O 58.0941 -5.64738 0.711292 0
M  V30 669 N 59.2961 -5.68261 -1.18574 0
M  V30 670 H 62.0611 -2.60636 1.47949 0
M  V30 671 H 59.6221 -1.33044 0.922544 0
M  V30 672 H 61.6141 -3.99678 -0.635606 0
M  V30 673 H 60.1841 -2.98012 -0.943811 0
M  V30 674 H 59.4041 -3.66764 1.44491 0
M  V30 675 H 60.6921 -4.8852 1.42218 0
M  V30 676 H 60.0901 -5.38957 -1.71876 0
M  V30 677 H 58.6471 -6.31584 -1.61074 0
M  V30 678 N 62.0802 -0.821533 -1.34494 0
M  V30 679 C 63.0432 -0.247847 -2.27856 0
M  V30 680 C 64.0432 0.573453 -1.50227 0
M  V30 681 O 65.2332 0.389759 -1.69784 0
M  V30 682 C 62.3652 0.652698 -3.34593 0
M  V30 683 H 63.5582 -1.07146 -2.80107 0
M  V30 684 H 61.1112 -0.593291 -1.44602 0
M  V30 685 H 61.8462 1.49943 -2.87555 0
M  V30 686 H 61.6312 0.065292 -3.92046 0
M  V30 687 H 63.1212 1.04793 -4.04238 0
M  V30 688 N 63.5583 1.46682 -0.576371 0
M  V30 689 C 64.4883 2.33028 0.148397 0
M  V30 690 C 65.4693 1.44961 0.889956 0
M  V30 691 O 66.6543 1.73789 0.866662 0
M  V30 692 C 63.7843 3.27117 1.1667 0
M  V30 693 C 62.7383 4.24575 0.540386 0
M  V30 694 C 62.0643 5.08126 1.6647 0
M  V30 695 C 63.3643 5.19722 -0.518331 0
M  V30 696 H 65.0583 2.93875 -0.572509 0
M  V30 697 H 62.6043 1.41315 -0.276768 0
M  V30 698 H 64.5573 3.86374 1.68204 0
M  V30 699 H 63.2813 2.64364 1.9178 0
M  V30 700 H 61.9403 3.66571 0.0461769 0
M  V30 701 H 61.5883 4.41762 2.40531 0
M  V30 702 H 61.2883 5.74122 1.25131 0
M  V30 703 H 62.8123 5.70246 2.18293 0
M  V30 704 H 64.2263 5.73232 -0.0883058 0
M  V30 705 H 62.6233 5.94026 -0.851679 0
M  V30 706 H 63.6933 4.64037 -1.40703 0
M  V30 707 N 65.0364 0.313813 1.54444 0
M  V30 708 C 65.9844 -0.572171 2.25453 0
M  V30 709 C 66.9784 -1.12657 1.2651 0
M  V30 710 O 68.1844 -1.07573 1.44319 0
M  V30 711 H 64.5594 -0.203146 0.724041 0
M  V30 712 H 66.5304 0.0491145 2.9836 0
M  V30 713 C 65.2794 -1.72626 3.0182 0
M  V30 714 H 64.6024 -1.30891 3.77767 0
M  V30 715 H 66.0424 -2.32199 3.54767 0
M  V30 716 C 64.5014 -2.63806 2.09542 0
M  V30 717 O 65.0314 -3.65256 1.67185 0
M  V30 718 N 63.2374 -2.31824 1.75232 0
M  V30 719 H 62.7844 -1.49368 2.09873 0
M  V30 720 H 62.7424 -2.93095 1.13767 0
M  V30 721 N 66.5145 -1.57545 0.0417849 0
M  V30 722 C 67.7445 -1.96339 -0.642995 0
M  V30 723 C 68.1525 -0.917536 -1.65463 0
M  V30 724 O 67.4955 0.107747 -1.83384 0
M  V30 725 C 67.5575 -3.31333 -1.39494 0
M  V30 726 C 67.2215 -4.53796 -0.540204 0
M  V30 727 C 68.2185 -5.19553 0.189806 0
M  V30 728 C 65.9035 -5.0006 -0.473886 0
M  V30 729 C 67.8975 -6.29904 0.974674 0
M  V30 730 C 65.5845 -6.10289 0.314677 0
M  V30 731 C 66.5825 -6.75072 1.03765 0
M  V30 732 O 66.2705 -7.83183 1.81327 0
M  V30 733 H 66.0025 -0.651241 -0.181277 0
M  V30 734 H 68.5565 -2.05148 0.101665 0
M  V30 735 H 66.7865 -3.19052 -2.18502 0
M  V30 736 H 68.4755 -3.54942 -1.96904 0
M  V30 737 H 69.2415 -4.84774 0.147981 0
M  V30 738 H 65.1205 -4.49433 -1.0262 0
M  V30 739 H 68.6645 -6.80401 1.5395 0
M  V30 740 H 64.5615 -6.44506 0.358174 0
M  V30 741 H 65.3295 -7.99913 1.73438 0
M  V30 742 N 67.9926 0.231505 -1.5589 0
M  V30 743 C 69.2406 0.955461 -1.78088 0
M  V30 744 C 69.5616 1.85262 -0.608533 0
M  V30 745 O 68.8316 1.92277 0.375035 0
M  V30 746 H 67.4116 0.355787 -0.656829 0
M  V30 747 H 70.0736 0.245751 -1.93344 0
M  V30 748 H 69.1696 1.56814 -2.69844 0
M  V30 749 N 69.4707 1.49531 0.497807 0
M  V30 750 C 70.4187 1.66926 1.61983 0
M  V30 751 C 71.4127 0.535167 1.60724 0
M  V30 752 O 72.6187 0.714896 1.65195 0
M  V30 753 H 68.9937 0.526415 0.537021 0
M  V30 754 H 70.9647 2.61098 1.44465 0
M  V30 755 C 69.7137 1.75602 3.00099 0
M  V30 756 H 69.0367 2.62244 3.01775 0
M  V30 757 H 70.4767 1.91807 3.78135 0
M  V30 758 C 68.9357 0.501543 3.33146 0
M  V30 759 O 69.4657 -0.371342 3.9998 0
M  V30 760 N 67.6717 0.363531 2.88317 0
M  V30 761 H 67.2187 1.07485 2.34104 0
M  V30 762 H 67.1767 -0.474728 3.10795 0
M  V30 763 N 70.9488 -0.749086 1.3866 0
M  V30 764 C 72.1948 -1.51056 1.35314 0
M  V30 765 C 72.5278 -1.94121 -0.0553751 0
M  V30 766 O 71.8028 -1.65763 -1.01749 0
M  V30 767 C 72.0858 -2.76003 2.31288 0
M  V30 768 C 71.9388 -2.39047 3.8102 0
M  V30 769 C 73.2578 -3.78046 2.2532 0
M  V30 770 H 70.3768 -0.547972 0.492844 0
M  V30 771 H 73.0188 -0.857628 1.69543 0
M  V30 772 H 71.1688 -3.31716 2.02229 0
M  V30 773 H 72.8408 -1.89074 4.20771 0
M  V30 774 H 71.0838 -1.71449 3.98482 0
M  V30 775 H 71.7548 -3.28462 4.4364 0
M  V30 776 H 74.2308 -3.31884 2.50983 0
M  V30 777 H 73.1068 -4.63159 2.94576 0
M  V30 778 H 73.3678 -4.23957 1.25352 0
M  V30 779 N 72.4269 -1.23603 -0.977757 0
M  V30 780 C 73.7039 -0.977897 -1.69401 0
M  V30 781 C 74.0839 0.502738 -2.05026 0
M  V30 782 O 73.4319 1.47459 -1.74551 0
M  V30 783 C 73.6419 -1.89077 -2.93345 0
M  V30 784 C 74.9899 -2.15579 -3.65802 0
M  V30 785 O 76.0139 -1.86648 -3.03383 0
M  V30 786 O 74.8729 -2.64658 -4.78141 0
M  V30 787 H 71.9669 -0.369025 -0.740101 0
M  V30 788 H 74.5129 -1.34657 -1.03274 0
M  V30 789 H 73.2849 -2.89158 -2.63634 0
M  V30 790 H 72.9079 -1.52463 -3.67207 0
M  V30 791 N 73.905 1.17692 -1.04816 0
M  V30 792 C 74.868 2.19787 -0.650117 0
M  V30 793 C 75.868 1.58044 0.296427 0
M  V30 794 O 77.058 1.74012 0.0808097 0
M  V30 795 C 74.19 3.40869 0.0456987 0
M  V30 796 H 75.383 2.56516 -1.5537 0
M  V30 797 H 72.936 1.31708 -0.841594 0
M  V30 798 H 73.671 3.09681 0.962726 0
M  V30 799 H 73.456 3.86928 -0.634727 0
M  V30 800 H 74.946 4.16445 0.310432 0
M  V30 801 N 75.3831 0.828654 1.34056 0
M  V30 802 C 76.6131 0.431993 2.02033 0
M  V30 803 C 77.0211 -0.96844 1.62536 0
M  V30 804 O 76.3641 -1.6391 0.829408 0
M  V30 805 C 76.4261 0.461224 3.56529 0
M  V30 806 C 76.0901 1.81599 4.1937 0
M  V30 807 C 77.0871 2.7777 4.39477 0
M  V30 808 C 74.7721 2.10604 4.56017 0
M  V30 809 C 76.7661 4.01115 4.95364 0
M  V30 810 C 74.4531 3.34207 5.11614 0
M  V30 811 C 75.4511 4.2928 5.31232 0
M  V30 812 O 75.1391 5.50699 5.8565 0
M  V30 813 H 74.8711 0.170943 0.654029 0
M  V30 814 H 77.4251 1.11988 1.72185 0
M  V30 815 H 75.6551 -0.283388 3.8566 0
M  V30 816 H 77.3441 0.0838149 4.05813 0
M  V30 817 H 78.1101 2.56659 4.11523 0
M  V30 818 H 73.9891 1.37402 4.40047 0
M  V30 819 H 77.5331 4.75333 5.10592 0
M  V30 820 H 73.4301 3.55179 5.38997 0
M  V30 821 H 74.1981 5.52298 6.04077 0
M  V30 822 N 76.8612 -1.46375 0.584142 0
M  V30 823 C 78.2722 -1.86031 0.157959 0
M  V30 824 C 78.6232 -1.48753 -1.27933 0
M  V30 825 O 77.7482 -0.903098 -1.96655 0
M  V30 826 C 78.3432 -3.37642 0.279892 0
M  V30 827 C 76.9022 -3.76289 -0.09143 0
M  V30 828 C 76.0492 -2.7039 0.615178 0
M  V30 829 H 79.0002 -1.37509 0.792274 0
M  V30 830 H 79.0212 -3.77275 -0.494364 0
M  V30 831 H 78.5332 -3.64742 1.32607 0
M  V30 832 H 76.6342 -3.54806 -1.13769 0
M  V30 833 H 76.7472 -4.78246 0.285886 0
M  V30 834 H 75.1112 -2.5464 0.0552833 0
M  V30 835 H 75.8942 -3.0033 1.66303 0
M  V30 836 N 78.3393 -0.321999 -1.54275 0
M  V30 837 C 79.2693 0.537411 -2.27231 0
M  V30 838 C 80.2503 1.12064 -1.27968 0
M  V30 839 O 81.4353 1.14606 -1.56777 0
M  V30 840 C 78.5653 1.69919 -3.02894 0
M  V30 841 C 77.5193 1.24534 -4.09482 0
M  V30 842 C 76.8453 2.49394 -4.72977 0
M  V30 843 C 78.1453 0.361335 -5.21049 0
M  V30 844 H 79.8393 -0.0711406 -2.99315 0
M  V30 845 H 77.3853 -0.0356555 -1.43956 0
M  V30 846 H 79.3383 2.30668 -3.52662 0
M  V30 847 H 78.0623 2.33431 -2.28424 0
M  V30 848 H 76.7213 0.660782 -3.60596 0
M  V30 849 H 76.3693 3.11265 -3.95124 0
M  V30 850 H 76.0693 2.19718 -5.44975 0
M  V30 851 H 77.5933 3.10908 -5.25517 0
M  V30 852 H 79.0073 0.875072 -5.66582 0
M  V30 853 H 77.4043 0.157428 -5.99893 0
M  V30 854 H 78.4743 -0.60822 -4.8107 0
M  V30 855 N 79.8174 1.5752 -0.0501392 0
M  V30 856 C 80.7474 2.14502 0.922566 0
M  V30 857 C 81.7284 1.06642 1.3252 0
M  V30 858 O 82.9134 1.34577 1.4001 0
M  V30 859 C 80.0434 2.68916 2.19776 0
M  V30 860 C 78.9974 3.8175 1.93523 0
M  V30 861 C 78.3234 4.22677 3.27487 0
M  V30 862 C 79.6234 5.06932 1.25765 0
M  V30 863 H 81.3174 2.9603 0.447952 0
M  V30 864 H 78.8634 1.42401 0.214024 0
M  V30 865 H 80.8164 3.07419 2.88222 0
M  V30 866 H 79.5404 1.84578 2.69441 0
M  V30 867 H 78.1994 3.43718 1.27489 0
M  V30 868 H 77.8474 3.35291 3.74952 0
M  V30 869 H 77.5474 4.98725 3.1072 0
M  V30 870 H 79.0714 4.63779 3.97166 0
M  V30 871 H 80.4854 5.42888 1.84244 0
M  V30 872 H 78.8824 5.88116 1.19328 0
M  V30 873 H 79.9524 4.84337 0.233536 0
M  V30 874 N 81.2955 -0.223234 1.56011 0
M  V30 875 C 82.2425 -1.27664 1.92277 0
M  V30 876 C 83.2125 -1.46659 0.779763 0
M  V30 877 O 84.3975 -1.60256 1.03551 0
M  V30 878 C 81.5375 -2.62234 2.24338 0
M  V30 879 C 80.6505 -2.51051 3.51564 0
M  V30 880 C 79.7855 -3.78133 3.7308 0
M  V30 881 C 78.8245 -3.61665 4.93827 0
M  V30 882 N 77.9615 -4.80693 5.11741 0
M  V30 883 H 82.8015 -0.960358 2.82101 0
M  V30 884 H 80.3385 -0.462901 1.39627 0
M  V30 885 H 82.2965 -3.40596 2.40936 0
M  V30 886 H 80.9265 -2.91961 1.3769 0
M  V30 887 H 79.9785 -1.64132 3.43169 0
M  V30 888 H 81.2905 -2.34803 4.40079 0
M  V30 889 H 80.4445 -4.64938 3.89766 0
M  V30 890 H 79.1835 -3.97304 2.82844 0
M  V30 891 H 78.1885 -2.73244 4.77093 0
M  V30 892 H 79.4135 -3.43966 5.85546 0
M  V30 893 H 77.3595 -5.00181 4.24446 0
M  V30 894 H 77.2765 -4.67165 5.94384 0
M  V30 895 H 78.5445 -5.6893 5.3286 0
M  V30 896 N 82.7736 -1.49793 -0.48987 0
M  V30 897 C 84.1896 -1.36803 -0.822022 0
M  V30 898 C 84.3896 -0.409652 -1.97292 0
M  V30 899 O 83.4456 0.154614 -2.52026 0
M  V30 900 C 84.7586 -2.77768 -1.15175 0
M  V30 901 C 86.3066 -2.86549 -1.25931 0
M  V30 902 C 86.7816 -4.28306 -1.62228 0
M  V30 903 N 88.2726 -4.31169 -1.69256 0
M  V30 904 C 89.0076 -5.37832 -1.98807 0
M  V30 905 N 88.5036 -6.54726 -2.26507 0
M  V30 906 N 90.2966 -5.25258 -2.00152 0
M  V30 907 H 82.4476 -2.10691 0.268881 0
M  V30 908 H 84.7106 -0.946241 0.057728 0
M  V30 909 H 84.4166 -3.49648 -0.379335 0
M  V30 910 H 84.2906 -3.13836 -2.09253 0
M  V30 911 H 86.6776 -2.14899 -2.02243 0
M  V30 912 H 86.7586 -2.54049 -0.298776 0
M  V30 913 H 86.4026 -5.00486 -0.864622 0
M  V30 914 H 86.3326 -4.58279 -2.594 0
M  V30 915 H 88.8236 -3.4687 -1.49965 0
M  V30 916 H 89.1366 -7.31833 -2.48276 0
M  V30 917 H 87.4816 -6.57933 -2.23939 0
M  V30 918 H 90.6726 -4.32938 -1.77996 0
M  V30 919 H 90.8456 -6.08476 -2.22848 0
M  V30 920 N 84.2517 0.741722 -1.39055 0
M  V30 921 C 85.1817 1.869 -1.39966 0
M  V30 922 C 86.1627 1.6804 -0.26392 0
M  V30 923 O 87.3477 1.88458 -0.468755 0
M  V30 924 C 84.4777 3.24572 -1.23574 0
M  V30 925 C 83.4317 3.58056 -2.34477 0
M  V30 926 C 82.7577 4.94593 -2.0318 0
M  V30 927 C 84.0577 3.61716 -3.76774 0
M  V30 928 H 85.7517 1.86395 -2.34302 0
M  V30 929 H 83.2977 0.895361 -1.1278 0
M  V30 930 H 85.2507 4.031 -1.22834 0
M  V30 931 H 83.9747 3.25587 -0.257045 0
M  V30 932 H 82.6337 2.81854 -2.34423 0
M  V30 933 H 82.2817 4.92181 -1.03765 0
M  V30 934 H 81.9817 5.17964 -2.77465 0
M  V30 935 H 83.5057 5.75486 -2.04079 0
M  V30 936 H 84.9197 4.30335 -3.78794 0
M  V30 937 H 83.3167 3.96603 -4.50362 0
M  V30 938 H 84.3867 2.61672 -4.08235 0
M  V30 939 N 85.7298 1.2412 0.971189 0
M  V30 940 C 86.6598 1.05508 2.08304 0
M  V30 941 C 87.6408 -0.0308864 1.70072 0
M  V30 942 O 88.8258 0.135521 1.93727 0
M  V30 943 C 85.9558 0.655365 3.4106 0
M  V30 944 C 84.9098 1.68971 3.93234 0
M  V30 945 C 84.2358 1.14516 5.22293 0
M  V30 946 C 85.5358 3.08487 4.21465 0
M  V30 947 H 87.2298 1.98507 2.24132 0
M  V30 948 H 84.7758 0.955821 1.07704 0
M  V30 949 H 86.7288 0.51217 4.18276 0
M  V30 950 H 85.4528 -0.31032 3.25122 0
M  V30 951 H 84.1118 1.82106 3.18171 0
M  V30 952 H 83.7598 0.170189 5.02712 0
M  V30 953 H 83.4598 1.83635 5.58168 0
M  V30 954 H 84.9838 1.01401 6.02121 0
M  V30 955 H 86.3978 2.98601 4.89398 0
M  V30 956 H 84.7948 3.74926 4.68562 0
M  V30 957 H 85.8648 3.56787 3.28376 0
M  V30 958 N 87.2079 -1.17134 1.05439 0
M  V30 959 C 88.6189 -1.69084 0.791676 0
M  V30 960 C 88.9699 -1.83822 -0.685839 0
M  V30 961 O 88.0949 -1.52757 -1.53278 0
M  V30 962 C 88.6899 -3.07119 1.4305 0
M  V30 963 C 87.2489 -3.56225 1.21577 0
M  V30 964 C 86.3959 -2.32421 1.51247 0
M  V30 965 H 89.3469 -1.01617 1.219 0
M  V30 966 H 89.3679 -3.71087 0.84112 0
M  V30 967 H 88.8799 -2.9636 2.50584 0
M  V30 968 H 86.9809 -3.72257 0.159787 0
M  V30 969 H 87.0939 -4.38837 1.92246 0
M  V30 970 H 85.4579 -2.3701 0.932653 0
M  V30 971 H 86.2409 -2.24268 2.5992 0
M  V30 972 N 88.686 -0.835752 -1.33615 0
M  V30 973 C 89.933 -0.429959 -1.97883 0
M  V30 974 C 90.261 1.01006 -1.66217 0
M  V30 975 O 89.516 1.72047 -0.93265 0
M  V30 976 C 89.815 -0.593925 -3.52431 0
M  V30 977 C 89.481 -2.00158 -4.04039 0
M  V30 978 C 88.143 -2.38662 -4.17844 0
M  V30 979 C 90.495 -2.92117 -4.31644 0
M  V30 980 C 87.823 -3.68435 -4.56588 0
M  V30 981 C 90.175 -4.21368 -4.71838 0
M  V30 982 C 88.839 -4.59833 -4.83849 0
M  V30 983 H 88.109 -0.157333 -0.724104 0
M  V30 984 H 90.756 -1.06217 -1.59343 0
M  V30 985 H 89.061 0.121619 -3.91611 0
M  V30 986 H 90.758 -0.260282 -4.00154 0
M  V30 987 H 87.348 -1.69252 -3.93766 0
M  V30 988 H 91.532 -2.63608 -4.20505 0
M  V30 989 H 86.788 -3.98046 -4.64079 0
M  V30 990 H 90.962 -4.92703 -4.92155 0
M  V30 991 H 88.589 -5.60438 -5.13627 0
M  V30 992 N 90.1641 1.46063 -0.591896 0
M  V30 993 C 91.4101 2.02638 -0.0811191 0
M  V30 994 C 91.7431 1.4613 1.27905 0
M  V30 995 O 91.0181 0.629908 1.84017 0
M  V30 996 C 91.3011 3.60091 -0.0252436 0
M  V30 997 C 91.1541 4.26965 -1.41496 0
M  V30 998 C 92.4731 4.3496 0.670685 0
M  V30 999 H 89.5921 0.73635 -0.0309524 0
M  V30 1000 H 92.2341 1.741 -0.760859 0
M  V30 1001 H 90.3841 3.84535 0.553624 0
M  V30 1002 H 92.0561 4.13756 -2.0397 0
M  V30 1003 H 90.2991 3.85971 -1.98011 0
M  V30 1004 H 90.9701 5.35781 -1.32825 0
M  V30 1005 H 93.4461 4.15716 0.178825 0
M  V30 1006 H 92.3221 5.44686 0.678837 0
M  V30 1007 H 92.5831 4.06685 1.73379 0
M  V30 1008 N 91.6422 0.330177 1.54103 0
M  V30 1009 C 92.5742 -0.566902 2.22079 0
M  V30 1010 C 93.5872 -1.07462 1.22294 0
M  V30 1011 O 94.7762 -0.987065 1.48726 0
M  V30 1012 C 91.8762 -1.79138 2.87685 0
M  V30 1013 C 91.0492 -1.42123 4.13666 0
M  V30 1014 C 90.1082 -2.50394 4.62806 0
M  V30 1015 O 89.1342 -2.14261 5.27334 0
M  V30 1016 N 90.3362 -3.81433 4.37595 0
M  V30 1017 H 93.1012 0.0151844 2.99696 0
M  V30 1018 H 90.6622 0.153681 1.61169 0
M  V30 1019 H 92.6542 -2.50975 3.1748 0
M  V30 1020 H 91.2242 -2.28115 2.13734 0
M  V30 1021 H 90.4442 -0.534201 3.90564 0
M  V30 1022 H 91.7322 -1.14971 4.9564 0
M  V30 1023 H 91.1302 -4.13584 3.8596 0
M  V30 1024 H 89.6872 -4.4948 4.72029 0
M  V30 1025 N 93.1203 -1.57491 0.0584922 0
M  V30 1026 C 94.3453 -1.97711 -0.62652 0
M  V30 1027 C 94.7703 -0.936132 -1.63151 0
M  V30 1028 O 94.1283 0.099811 -1.81025 0
M  V30 1029 C 94.1763 -3.36989 -1.28338 0
M  V30 1030 O 93.2803 -3.35433 -2.39913 0
M  V30 1031 H 92.6213 -0.643868 -0.162266 0
M  V30 1032 H 95.1513 -2.04193 0.129064 0
M  V30 1033 H 95.1613 -3.73879 -1.63335 0
M  V30 1034 H 93.8363 -4.12289 -0.546889 0
M  V30 1035 H 92.4133 -3.10298 -2.06809 0
M  V30 1036 N 94.5984 0.214957 -1.56127 0
M  V30 1037 C 95.8284 0.953707 -1.8327 0
M  V30 1038 C 96.2364 1.78181 -0.636262 0
M  V30 1039 O 95.5794 1.79191 0.404516 0
M  V30 1040 C 95.6414 1.91516 -3.0424 0
M  V30 1041 C 95.3054 1.27094 -4.38972 0
M  V30 1042 C 96.3024 0.657575 -5.15725 0
M  V30 1043 C 93.9874 1.28073 -4.85698 0
M  V30 1044 C 95.9814 0.0625968 -6.37369 0
M  V30 1045 C 93.6684 0.681914 -6.07283 0
M  V30 1046 C 94.6664 0.0739046 -6.8296 0
M  V30 1047 O 94.3544 -0.515582 -8.02245 0
M  V30 1048 H 94.0864 0.284764 -0.613095 0
M  V30 1049 H 96.6404 0.233283 -2.04071 0
M  V30 1050 H 94.8704 2.67475 -2.79274 0
M  V30 1051 H 96.5594 2.52001 -3.18198 0
M  V30 1052 H 97.3254 0.642288 -4.80728 0
M  V30 1053 H 93.2044 1.74337 -4.26764 0
M  V30 1054 H 96.7484 -0.412593 -6.96379 0
M  V30 1055 H 92.6454 0.694636 -6.41752 0
M  V30 1056 H 93.4134 -0.410544 -8.1747 0
M  V30 1057 N 96.0765 1.50051 0.48192 0
M  V30 1058 C 97.3065 1.63999 1.2565 0
M  V30 1059 C 97.7145 0.318288 1.86504 0
M  V30 1060 O 97.0575 -0.708534 1.69486 0
M  V30 1061 C 97.1195 2.66504 2.4128 0
M  V30 1062 C 96.7835 4.10352 2.01148 0
M  V30 1063 C 97.7805 4.96562 1.54021 0
M  V30 1064 C 95.4655 4.56203 2.10199 0
M  V30 1065 C 97.4595 6.26668 1.16473 0
M  V30 1066 C 95.1465 5.86318 1.72264 0
M  V30 1067 C 96.1445 6.71375 1.25477 0
M  V30 1068 O 95.8325 7.99062 0.880626 0
M  V30 1069 H 95.5645 0.55456 0.386574 0
M  V30 1070 H 98.1185 1.96954 0.582944 0
M  V30 1071 H 96.3485 2.28769 3.11772 0
M  V30 1072 H 98.0375 2.69783 3.03268 0
M  V30 1073 H 98.8035 4.62358 1.46458 0
M  V30 1074 H 94.6825 3.90152 2.45566 0
M  V30 1075 H 98.2265 6.93011 0.798841 0
M  V30 1076 H 94.1235 6.20046 1.79482 0
M  V30 1077 H 94.8915 8.12239 1.01043 0
M  V30 1078 N 97.5546 -0.734337 1.39446 0
M  V30 1079 C 98.4866 -1.85861 1.34121 0
M  V30 1080 C 99.4996 -1.60871 0.249864 0
M  V30 1081 O 100.689 -1.71093 0.508865 0
M  V30 1082 C 97.7886 -3.21899 1.05991 0
M  V30 1083 C 96.9616 -3.74239 2.26415 0
M  V30 1084 C 96.0206 -4.88841 1.94733 0
M  V30 1085 O 95.0466 -5.02468 2.67422 0
M  V30 1086 N 96.2486 -5.73261 0.913884 0
M  V30 1087 H 99.0136 -1.90934 2.31007 0
M  V30 1088 H 96.5746 -0.915102 1.33557 0
M  V30 1089 H 98.5666 -3.96136 0.828147 0
M  V30 1090 H 97.1366 -3.12091 0.178361 0
M  V30 1091 H 96.3566 -2.91347 2.65539 0
M  V30 1092 H 97.6446 -4.05942 3.06738 0
M  V30 1093 H 97.0426 -5.64842 0.311476 0
M  V30 1094 H 95.5996 -6.47563 0.742015 0
M  V30 1095 N 99.0327 -1.24633 -0.964593 0
M  V30 1096 C 100.281 -1.08573 -1.70459 0
M  V30 1097 C 100.602 0.375655 -1.91347 0
M  V30 1098 O 99.8717 1.26779 -1.49345 0
M  V30 1099 H 98.4517 -0.398784 -0.631649 0
M  V30 1100 H 101.114 -1.56601 -1.16026 0
M  V30 1101 H 100.21 -1.58623 -2.68785 0
M  V30 1102 N 100.511 1.16574 -1.06058 0
M  V30 1103 C 101.441 2.23057 -0.690488 0
M  V30 1104 C 102.422 1.67141 0.315901 0
M  V30 1105 O 103.607 1.93253 0.191556 0
M  V30 1106 C 100.737 3.47222 -0.073625 0
M  V30 1107 C 99.6908 4.16016 -1.00573 0
M  V30 1108 C 99.0168 5.34104 -0.252289 0
M  V30 1109 C 100.317 4.67264 -2.33371 0
M  V30 1110 H 102.011 2.54271 -1.58072 0
M  V30 1111 H 99.5568 1.22218 -0.76149 0
M  V30 1112 H 101.51 4.20939 0.19714 0
M  V30 1113 H 100.234 3.15302 0.85161 0
M  V30 1114 H 98.8928 3.44223 -1.2612 0
M  V30 1115 H 98.5408 4.98437 0.675988 0
M  V30 1116 H 98.2408 5.81072 -0.873455 0
M  V30 1117 H 99.7648 6.10599 0.0109857 0
M  V30 1118 H 101.179 5.32573 -2.12223 0
M  V30 1119 H 99.5758 5.24843 -2.90963 0
M  V30 1120 H 100.646 3.83602 -2.96611 0
M  V30 1121 N 101.989 0.842826 1.3317 0
M  V30 1122 C 103.217 0.454055 2.01856 0
M  V30 1123 C 103.632 -0.94587 1.63397 0
M  V30 1124 O 102.989 -1.61534 0.849302 0
M  V30 1125 C 103.04 0.569715 3.56982 0
M  V30 1126 O 102.761 1.91448 3.94055 0
M  V30 1127 C 104.262 0.178412 4.42941 0
M  V30 1128 H 101.482 0.17979 0.646465 0
M  V30 1129 H 104.026 1.1365 1.70012 0
M  V30 1130 H 102.181 -0.0648587 3.87346 0
M  V30 1131 H 102.595 1.90282 4.88767 0
M  V30 1132 H 104.069 0.310376 5.51127 0
M  V30 1133 H 104.546 -0.880056 4.30293 0
M  V30 1134 H 105.152 0.787579 4.17944 0
M  V30 1135 N 103.467 -1.45747 0.599634 0
M  V30 1136 C 104.397 -2.33235 -0.111306 0
M  V30 1137 C 105.378 -1.46359 -0.866781 0
M  V30 1138 O 106.563 -1.75146 -0.838904 0
M  V30 1139 C 103.693 -3.28932 -1.11451 0
M  V30 1140 C 102.647 -4.25381 -0.472772 0
M  V30 1141 C 101.973 -5.1071 -1.58365 0
M  V30 1142 C 103.273 -5.18831 0.600948 0
M  V30 1143 H 104.967 -2.92927 0.61919 0
M  V30 1144 H 102.513 -1.40857 0.299215 0
M  V30 1145 H 104.466 -3.89002 -1.62036 0
M  V30 1146 H 103.19 -2.67381 -1.8755 0
M  V30 1147 H 101.849 -3.66598 0.0121472 0
M  V30 1148 H 101.497 -4.45533 -2.33473 0
M  V30 1149 H 101.197 -5.7604 -1.15982 0
M  V30 1150 H 102.721 -5.73647 -2.09194 0
M  V30 1151 H 104.135 -5.73019 0.179491 0
M  V30 1152 H 102.532 -5.92595 0.946076 0
M  V30 1153 H 103.602 -4.6174 1.48068 0
M  V30 1154 N 104.945 -0.338344 -1.53925 0
M  V30 1155 C 105.895 0.536712 -2.21593 0
M  V30 1156 C 106.879 1.07015 -1.20153 0
M  V30 1157 O 108.071 1.00471 -1.45721 0
M  V30 1158 C 105.2 1.68977 -2.98834 0
M  V30 1159 C 104.286 1.17052 -4.07627 0
M  V30 1160 N 104.677 0.372085 -5.0443 0
M  V30 1161 C 102.975 1.44789 -4.21844 0
M  V30 1162 C 103.676 0.0909171 -5.81629 0
M  V30 1163 N 102.652 0.681131 -5.39316 0
M  V30 1164 H 106.454 -0.0804298 -2.9379 0
M  V30 1165 H 103.968 -0.144943 -1.61752 0
M  V30 1166 H 105.965 2.32857 -3.45808 0
M  V30 1167 H 104.625 2.31024 -2.28162 0
M  V30 1168 H 105.636 0.0136217 -5.17898 0
M  V30 1169 H 102.313 2.07313 -3.62391 0
M  V30 1170 H 103.703 -0.552817 -6.69622 0
M  V30 1171 N 106.423 1.57458 -0.0668435 0
M  V30 1172 C 107.671 1.92919 0.602214 0
M  V30 1173 C 107.992 0.947215 1.70449 0
M  V30 1174 O 107.262 -0.00544117 1.95899 0
M  V30 1175 H 105.842 0.71217 0.22544 0
M  V30 1176 H 108.504 1.94508 -0.123535 0
M  V30 1177 H 107.6 2.94589 1.03073 0
M  V30 1178 N 107.901 -0.206675 1.56239 0
M  V30 1179 C 109.147 -0.930218 1.80208 0
M  V30 1180 C 109.48 -1.83387 0.638981 0
M  V30 1181 O 108.755 -1.91119 -0.361066 0
M  V30 1182 C 109.038 -1.75641 3.1436 0
M  V30 1183 C 108.891 -0.878257 4.41142 0
M  V30 1184 C 110.21 -2.73129 3.45092 0
M  V30 1185 H 107.329 -0.336742 0.655571 0
M  V30 1186 H 109.971 -0.198222 1.88963 0
M  V30 1187 H 108.121 -2.38048 3.07027 0
M  V30 1188 H 109.793 -0.269787 4.6051 0
M  V30 1189 H 108.036 -0.184385 4.33408 0
M  V30 1190 H 108.707 -1.49106 5.3148 0
M  V30 1191 H 111.183 -2.20856 3.52649 0
M  V30 1192 H 110.059 -3.28028 4.40101 0
M  V30 1193 H 110.32 -3.51606 2.68003 0
M  V30 1194 N 109.379 -1.50304 -0.473955 0
M  V30 1195 C 110.309 -1.71886 -1.58042 0
M  V30 1196 C 111.29 -0.567799 -1.60344 0
M  V30 1197 O 112.475 -0.806623 -1.76656 0
M  V30 1198 C 109.605 -1.81036 -2.96384 0
M  V30 1199 C 108.559 -2.962 -3.08949 0
M  V30 1200 C 107.885 -2.9049 -4.48909 0
M  V30 1201 C 109.185 -4.36752 -2.86434 0
M  V30 1202 H 110.879 -2.64527 -1.40234 0
M  V30 1203 H 108.425 -1.27295 -0.673201 0
M  V30 1204 H 110.378 -1.94719 -3.73714 0
M  V30 1205 H 109.102 -0.850147 -3.15341 0
M  V30 1206 H 107.761 -2.82164 -2.3405 0
M  V30 1207 H 107.409 -1.92321 -4.64781 0
M  V30 1208 H 107.109 -3.67802 -4.58253 0
M  V30 1209 H 108.633 -3.06218 -5.28264 0
M  V30 1210 H 110.047 -4.5133 -3.53517 0
M  V30 1211 H 108.444 -5.15493 -3.07225 0
M  V30 1212 H 109.514 -4.49321 -1.82316 0
M  V30 1213 N 110.857 0.726932 -1.39834 0
M  V30 1214 C 111.805 1.86235 -1.39353 0
M  V30 1215 C 112.799 1.67144 -0.275555 0
M  V30 1216 O 114.005 1.74387 -0.44601 0
M  V30 1217 H 110.38 0.613174 -0.43534 0
M  V30 1218 H 112.351 1.83756 -2.35109 0
M  V30 1219 C 111.1 3.23995 -1.26185 0
M  V30 1220 H 110.423 3.39285 -2.11484 0
M  V30 1221 H 111.863 4.03609 -1.29907 0
M  V30 1222 C 110.322 3.36888 0.0290018 0
M  V30 1223 O 110.852 3.89152 0.99619 0
M  V30 1224 N 109.058 2.90446 0.0947437 0
M  V30 1225 H 108.605 2.48102 -0.693035 0
M  V30 1226 H 108.563 2.99451 0.957932 0
M  V30 1227 N 112.336 1.25143 0.95797 0
M  V30 1228 C 113.299 1.05321 2.03569 0
M  V30 1229 C 114.299 0.007152 1.60798 0
M  V30 1230 O 115.489 0.24903 1.72411 0
M  V30 1231 C 112.621 0.598394 3.35607 0
M  V30 1232 H 113.814 2.00986 2.22586 0
M  V30 1233 H 111.367 1.07502 1.13459 0
M  V30 1234 H 112.102 -0.361014 3.22284 0
M  V30 1235 H 111.887 1.35351 3.67998 0
M  V30 1236 H 113.377 0.48104 4.1482 0
M  V30 1237 N 113.814 -1.1601 1.06675 0
M  V30 1238 C 115.063 -1.85973 0.780818 0
M  V30 1239 C 115.376 -1.82819 -0.695444 0
M  V30 1240 O 116.582 -2.484 -1.09589 0
M  V30 1241 C 115.038 -3.33757 1.34665 0
M  V30 1242 C 114.646 -3.45374 2.85343 0
M  V30 1243 C 116.39 -4.0895 1.13843 0
M  V30 1244 C 114.297 -4.87266 3.35151 0
M  V30 1245 H 113.227 -0.696661 0.288407 0
M  V30 1246 H 115.878 -1.30903 1.28595 0
M  V30 1247 H 114.26 -3.88456 0.769274 0
M  V30 1248 H 115.434 -3.00816 3.49065 0
M  V30 1249 H 113.749 -2.83619 3.04876 0
M  V30 1250 H 116.346 -5.13654 1.4854 0
M  V30 1251 H 116.689 -4.16229 0.0770282 0
M  V30 1252 H 117.222 -3.605 1.68179 0
M  V30 1253 H 113.961 -4.85168 4.40786 0
M  V30 1254 H 113.481 -5.32433 2.76179 0
M  V30 1255 H 115.16 -5.56097 3.30704 0
M  V30 1256 N 115.292 -0.849877 -1.32721 0
M  V30 1257 C 116.538 -0.451591 -1.97708 0
M  V30 1258 C 116.871 0.989175 -1.6712 0
M  V30 1259 O 116.146 1.69334 -0.956891 0
M  V30 1260 C 116.429 -0.685598 -3.53513 0
M  V30 1261 C 116.282 -2.17444 -3.93749 0
M  V30 1262 C 117.601 -0.138874 -4.39881 0
M  V30 1263 H 114.72 -0.16555 -0.718166 0
M  V30 1264 H 117.362 -1.06742 -1.57182 0
M  V30 1265 H 115.512 -0.161416 -3.88165 0
M  V30 1266 H 117.184 -2.76433 -3.693 0
M  V30 1267 H 115.427 -2.65476 -3.43081 0
M  V30 1268 H 116.098 -2.28888 -5.02309 0
M  V30 1269 H 118.574 -0.587068 -4.11938 0
M  V30 1270 H 117.45 -0.332213 -5.47894 0
M  V30 1271 H 117.711 0.95806 -4.31594 0
M  V30 1272 N 116.77 1.45427 -0.607355 0
M  V30 1273 C 118.017 2.02241 -0.102455 0
M  V30 1274 C 118.345 1.4758 1.26691 0
M  V30 1275 O 117.6 0.640468 1.84923 0
M  V30 1276 C 117.899 3.57398 -0.0129263 0
M  V30 1277 C 117.565 4.3121 -1.31792 0
M  V30 1278 C 116.227 4.51092 -1.67539 0
M  V30 1279 C 118.579 4.73401 -2.18039 0
M  V30 1280 C 115.907 5.10422 -2.89285 0
M  V30 1281 C 118.259 5.34078 -3.39034 0
M  V30 1282 C 116.923 5.52184 -3.75033 0
M  V30 1283 H 116.193 0.740051 -0.037491 0
M  V30 1284 H 118.84 1.74494 -0.788926 0
M  V30 1285 H 117.145 3.84421 0.756806 0
M  V30 1286 H 118.842 3.99061 0.393881 0
M  V30 1287 H 115.432 4.16047 -1.02968 0
M  V30 1288 H 119.616 4.57774 -1.91721 0
M  V30 1289 H 114.872 5.22629 -3.17283 0
M  V30 1290 H 119.046 5.65724 -4.06115 0
M  V30 1291 H 116.673 5.97925 -4.69457 0
M  V30 1292 N 118.248 0.346503 1.53744 0
M  V30 1293 C 119.476 -0.25041 2.05379 0
M  V30 1294 C 119.891 -1.43979 1.22129 0
M  V30 1295 O 119.248 -1.80677 0.257321 0
M  V30 1296 C 119.299 -0.662575 3.55376 0
M  V30 1297 O 119.02 0.479515 4.35468 0
M  V30 1298 C 120.521 -1.31989 4.23195 0
M  V30 1299 H 117.741 -0.0478198 0.669294 0
M  V30 1300 H 120.285 0.499346 1.9831 0
M  V30 1301 H 118.44 -1.36227 3.62658 0
M  V30 1302 H 118.854 0.15037 5.24284 0
M  V30 1303 H 120.328 -1.55902 5.29527 0
M  V30 1304 H 120.805 -2.27436 3.75725 0
M  V30 1305 H 121.411 -0.662154 4.20114 0
M  V30 1306 N 119.726 -1.57421 0.075193 0
M  V30 1307 C 120.658 -2.09904 -0.920483 0
M  V30 1308 C 121.671 -1.03191 -1.25918 0
M  V30 1309 O 122.86 -1.30695 -1.21577 0
M  V30 1310 C 119.96 -2.54726 -2.23534 0
M  V30 1311 C 119.133 -3.8505 -2.07498 0
M  V30 1312 C 118.192 -4.15929 -3.22319 0
M  V30 1313 O 117.218 -4.85474 -2.9716 0
M  V30 1314 N 118.42 -3.69745 -4.47514 0
M  V30 1315 H 121.185 -2.95954 -0.472359 0
M  V30 1316 H 118.746 -1.61523 -0.110444 0
M  V30 1317 H 120.738 -2.72443 -2.9926 0
M  V30 1318 H 119.308 -1.73795 -2.59835 0
M  V30 1319 H 118.528 -3.76679 -1.16219 0
M  V30 1320 H 119.816 -4.70348 -1.94038 0
M  V30 1321 H 119.214 -3.13569 -4.7084 0
M  V30 1322 H 117.771 -3.92655 -5.20255 0
M  V30 1323 N 121.204 0.198386 -1.56346 0
M  V30 1324 C 122.134 1.24865 -1.9731 0
M  V30 1325 C 123.115 1.47651 -0.844576 0
M  V30 1326 O 124.3 1.59444 -1.10866 0
M  V30 1327 C 121.43 2.59358 -2.30977 0
M  V30 1328 C 120.384 2.5119 -3.46537 0
M  V30 1329 C 119.71 3.89926 -3.65871 0
M  V30 1330 C 121.01 2.03977 -4.80823 0
M  V30 1331 H 122.704 0.908252 -2.85291 0
M  V30 1332 H 120.25 0.435462 -1.37258 0
M  V30 1333 H 122.203 3.33011 -2.58228 0
M  V30 1334 H 120.927 2.95132 -1.39874 0
M  V30 1335 H 119.586 1.79993 -3.19371 0
M  V30 1336 H 119.234 4.23046 -2.72105 0
M  V30 1337 H 118.934 3.85336 -4.4361 0
M  V30 1338 H 120.458 4.65205 -3.95495 0
M  V30 1339 H 121.872 2.67386 -5.07127 0
M  V30 1340 H 120.269 2.10397 -5.62008 0
M  V30 1341 H 121.339 0.992861 -4.74626 0
M  V30 1342 N 122.682 1.50554 0.465978 0
M  V30 1343 C 123.929 1.61798 1.21768 0
M  V30 1344 C 124.257 0.320696 1.91838 0
M  V30 1345 O 123.512 -0.693724 1.82992 0
M  V30 1346 C 123.811 2.75152 2.28093 0
M  V30 1347 C 123.477 4.15454 1.75239 0
M  V30 1348 C 122.139 4.53628 1.60546 0
M  V30 1349 C 124.491 5.03121 1.36083 0
M  V30 1350 C 121.819 5.77204 1.05128 0
M  V30 1351 C 124.171 6.27249 0.821056 0
M  V30 1352 C 122.835 6.64221 0.660795 0
M  V30 1353 H 122.105 0.592063 0.445582 0
M  V30 1354 H 124.752 1.84503 0.512927 0
M  V30 1355 H 123.057 2.46556 3.04496 0
M  V30 1356 H 124.754 2.81055 2.86023 0
M  V30 1357 H 121.344 3.85341 1.87644 0
M  V30 1358 H 125.528 4.74257 1.46267 0
M  V30 1359 H 120.784 6.0452 0.91462 0
M  V30 1360 H 124.958 6.94537 0.509018 0
M  V30 1361 H 122.585 7.59854 0.229226 0
M  V30 1362 N 124.16 -0.719506 1.40217 0
M  V30 1363 C 125.123 -1.8153 1.39927 0
M  V30 1364 C 126.123 -1.58095 0.293723 0
M  V30 1365 O 127.313 -1.65209 0.552429 0
M  V30 1366 C 124.445 -3.19561 1.18716 0
M  V30 1367 H 125.638 -1.83186 2.37451 0
M  V30 1368 H 123.191 -0.924746 1.26008 0
M  V30 1369 H 123.926 -3.23557 0.219366 0
M  V30 1370 H 123.711 -3.3797 1.98793 0
M  V30 1371 H 125.201 -3.99598 1.21291 0
M  V30 1372 N 125.638 -1.25649 -0.95132 0
M  V30 1373 C 126.57 -1.02112 -2.05197 0
M  V30 1374 C 127.583 0.0150571 -1.62793 0
M  V30 1375 O 128.772 -0.223874 -1.77091 0
M  V30 1376 C 125.872 -0.522361 -3.3485 0
M  V30 1377 C 125.045 -1.62546 -4.06076 0
M  V30 1378 C 124.104 -1.12649 -5.14001 0
M  V30 1379 O 123.13 -1.82156 -5.39266 0
M  V30 1380 N 124.332 0.03047 -5.80492 0
M  V30 1381 H 127.097 -1.96885 -2.25957 0
M  V30 1382 H 124.658 -1.16899 -1.1201 0
M  V30 1383 H 126.65 -0.172961 -4.0433 0
M  V30 1384 H 125.22 0.33151 -3.10837 0
M  V30 1385 H 124.44 -2.14628 -3.30649 0
M  V30 1386 H 125.728 -2.36644 -4.50419 0
M  V30 1387 H 125.126 0.611169 -5.62389 0
M  V30 1388 H 123.683 0.320875 -6.5101 0
M  V30 1389 N 127.117 1.15442 -1.07289 0
M  V30 1390 C 128.08 2.18358 -0.696591 0
M  V30 1391 C 129.08 1.58637 0.262837 0
M  V30 1392 O 130.27 1.74145 0.0438809 0
M  V30 1393 C 127.402 3.4089 -0.0266151 0
M  V30 1394 H 128.595 2.53162 -1.60776 0
M  V30 1395 H 126.148 1.29893 -0.869342 0
M  V30 1396 H 126.883 3.11653 0.896822 0
M  V30 1397 H 126.668 3.85495 -0.716657 0
M  V30 1398 H 128.158 4.17009 0.222028 0
M  V30 1399 N 128.595 0.856903 1.32268 0
M  V30 1400 C 129.844 0.457599 1.96441 0
M  V30 1401 C 130.157 -0.992426 1.68553 0
M  V30 1402 O 131.363 -1.49727 2.26482 0
M  V30 1403 C 129.819 0.767358 3.51624 0
M  V30 1404 C 129.427 2.23326 3.88367 0
M  V30 1405 C 131.171 0.435887 4.22256 0
M  V30 1406 C 129.078 2.48613 5.36606 0
M  V30 1407 H 128.008 0.167387 0.735185 0
M  V30 1408 H 130.659 1.048 1.5063 0
M  V30 1409 H 129.041 0.106367 3.95857 0
M  V30 1410 H 130.215 2.93623 3.55137 0
M  V30 1411 H 128.53 2.52948 3.30766 0
M  V30 1412 H 131.127 0.602202 5.31298 0
M  V30 1413 H 131.47 -0.622672 4.11617 0
M  V30 1414 H 132.003 1.05286 3.83614 0
M  V30 1415 H 128.742 3.53101 5.52268 0
M  V30 1416 H 128.262 1.82896 5.71235 0
M  V30 1417 H 129.941 2.32676 6.03714 0
M  V30 1418 N 130.073 -1.45103 0.615059 0
M  V30 1419 C 131.006 -2.27717 -0.148408 0
M  V30 1420 C 131.984 -1.37584 -0.866572 0
M  V30 1421 O 133.168 -1.67017 -0.87393 0
M  V30 1422 C 130.295 -3.16136 -1.21557 0
M  V30 1423 C 129.341 -4.22263 -0.599712 0
M  V30 1424 S 130.174 -5.3215 0.598081 0
M  V30 1425 C 131.33 -6.24137 -0.469484 0
M  V30 1426 H 131.563 -2.92121 0.552483 0
M  V30 1427 H 129.096 -1.49054 0.402778 0
M  V30 1428 H 131.054 -3.67633 -1.82638 0
M  V30 1429 H 129.715 -2.50982 -1.88857 0
M  V30 1430 H 128.908 -4.84081 -1.4029 0
M  V30 1431 H 128.51 -3.73945 -0.063876 0
M  V30 1432 H 130.802 -6.63984 -1.34652 0
M  V30 1433 H 131.745 -7.0801 0.112725 0
M  V30 1434 H 132.153 -5.58971 -0.788168 0
M  V30 1435 N 131.551 -0.354651 -1.53558 0
M  V30 1436 C 132.797 0.238797 -2.01389 0
M  V30 1437 C 133.13 1.49309 -1.2418 0
M  V30 1438 O 132.405 1.91638 -0.332457 0
M  V30 1439 C 132.688 0.541771 -3.56001 0
M  V30 1440 C 132.541 -0.725388 -4.43912 0
M  V30 1441 C 133.86 1.34685 -4.18984 0
M  V30 1442 H 130.979 0.0853177 -0.732045 0
M  V30 1443 H 133.621 -0.477384 -1.83905 0
M  V30 1444 H 131.771 1.15189 -3.71031 0
M  V30 1445 H 133.443 -1.36313 -4.407 0
M  V30 1446 H 131.686 -1.34801 -4.12324 0
M  V30 1447 H 132.357 -0.468505 -5.50008 0
M  V30 1448 H 134.833 0.830837 -4.07721 0
M  V30 1449 H 133.709 1.52759 -5.27215 0
M  V30 1450 H 133.97 2.35221 -3.74331 0
M  V30 1451 N 133.029 1.57378 -0.0835403 0
M  V30 1452 C 134.259 1.97975 0.590713 0
M  V30 1453 C 134.667 0.961083 1.62972 0
M  V30 1454 O 134.01 -0.0590879 1.83605 0
M  V30 1455 C 134.072 3.34915 1.3066 0
M  V30 1456 C 133.736 4.55069 0.419698 0
M  V30 1457 C 134.733 5.18868 -0.32749 0
M  V30 1458 C 132.418 5.0114 0.341137 0
M  V30 1459 C 134.412 6.27098 -1.14134 0
M  V30 1460 C 132.099 6.0924 -0.476374 0
M  V30 1461 C 133.097 6.72083 -1.21627 0
M  V30 1462 O 132.785 7.781 -2.02028 0
M  V30 1463 H 132.517 0.655818 0.163947 0
M  V30 1464 H 135.071 2.04807 -0.156021 0
M  V30 1465 H 133.301 3.24733 2.09966 0
M  V30 1466 H 134.99 3.60037 1.87424 0
M  V30 1467 H 135.756 4.84211 -0.276459 0
M  V30 1468 H 131.635 4.51996 0.90668 0
M  V30 1469 H 135.179 6.7608 -1.71935 0
M  V30 1470 H 131.076 6.43329 -0.528927 0
M  V30 1471 H 131.844 7.95034 -1.94586 0
M  V30 1472 N 134.507 -0.190092 1.56449 0
M  V30 1473 C 135.437 -1.23816 1.97969 0
M  V30 1474 C 136.418 -1.47201 0.852395 0
M  V30 1475 O 137.603 -1.58854 1.1171 0
M  V30 1476 C 134.733 -2.5813 2.3235 0
M  V30 1477 C 133.687 -2.49348 3.47864 0
M  V30 1478 C 133.013 -3.8798 3.67934 0
M  V30 1479 C 134.313 -2.01424 4.81898 0
M  V30 1480 H 136.007 -0.89311 2.85769 0
M  V30 1481 H 133.553 -0.428177 1.37487 0
M  V30 1482 H 135.506 -3.31637 2.59991 0
M  V30 1483 H 134.23 -2.94386 1.41438 0
M  V30 1484 H 132.889 -1.78297 3.20321 0
M  V30 1485 H 132.537 -4.21597 2.74344 0
M  V30 1486 H 132.237 -3.82978 4.45648 0
M  V30 1487 H 133.761 -4.63101 3.97957 0
M  V30 1488 H 135.175 -2.64693 5.08538 0
M  V30 1489 H 133.572 -2.07413 5.63116 0
M  V30 1490 H 134.642 -0.967677 4.75146 0
M  V30 1491 N 135.985 -1.50799 -0.457987 0
M  V30 1492 C 137.396 -1.55152 -1.0385 0
M  V30 1493 C 137.747 -0.362719 -1.92818 0
M  V30 1494 O 136.872 0.522915 -2.09987 0
M  V30 1495 C 137.467 -2.81173 -1.89017 0
M  V30 1496 C 136.026 -2.88164 -2.42154 0
M  V30 1497 C 135.173 -2.49591 -1.20829 0
M  V30 1498 H 138.124 -1.56874 -0.240068 0
M  V30 1499 H 138.145 -2.63769 -2.74238 0
M  V30 1500 H 137.657 -3.67677 -1.24238 0
M  V30 1501 H 135.758 -2.06042 -3.10447 0
M  V30 1502 H 135.871 -3.91356 -2.76364 0
M  V30 1503 H 134.235 -2.02322 -1.54719 0
M  V30 1504 H 135.018 -3.38418 -0.576927 0
M  V30 1505 N 137.463 0.71206 -1.40597 0
M  V30 1506 C 138.426 1.80785 -1.40888 0
M  V30 1507 C 139.426 1.57937 -0.302103 0
M  V30 1508 O 140.616 1.64913 -0.561182 0
M  V30 1509 C 137.748 3.18927 -1.20409 0
M  V30 1510 H 138.941 1.81924 -2.38419 0
M  V30 1511 H 136.494 0.91805 -1.26497 0
M  V30 1512 H 137.229 3.23436 -0.236522 0
M  V30 1513 H 137.014 3.36911 -2.00582 0
M  V30 1514 H 138.504 3.98949 -1.23408 0
M  V30 1515 N 138.941 1.26152 0.944643 0
M  V30 1516 C 140.357 1.03189 1.21754 0
M  V30 1517 C 140.557 -0.245112 2.00004 0
M  V30 1518 O 139.613 -0.955176 2.33736 0
M  V30 1519 C 140.926 2.26119 1.98219 0
M  V30 1520 C 142.474 2.30984 2.11224 0
M  V30 1521 C 142.949 3.53597 2.91089 0
M  V30 1522 N 144.44 3.54053 2.98664 0
M  V30 1523 C 145.175 4.45593 3.60881 0
M  V30 1524 N 144.671 5.47416 4.24626 0
M  V30 1525 N 146.464 4.33252 3.58119 0
M  V30 1526 H 138.615 2.08177 0.421437 0
M  V30 1527 H 140.878 0.914723 0.248969 0
M  V30 1528 H 140.584 3.18984 1.48128 0
M  V30 1529 H 140.458 2.3009 2.98895 0
M  V30 1530 H 142.845 1.38635 2.60508 0
M  V30 1531 H 142.926 2.31026 1.09821 0
M  V30 1532 H 142.57 4.46273 2.42493 0
M  V30 1533 H 142.5 3.50802 3.92741 0
M  V30 1534 H 144.991 2.80403 2.53343 0
M  V30 1535 H 145.304 6.13459 4.69987 0
M  V30 1536 H 143.649 5.51278 4.23223 0
M  V30 1537 H 146.84 3.52924 3.0751 0
M  V30 1538 H 147.013 5.04786 4.06319 0
M  V30 1539 N 140.419 -1.14872 1.07899 0
M  V30 1540 C 141.329 -2.2341 0.715915 0
M  V30 1541 C 142.345 -1.71808 -0.275306 0
M  V30 1542 O 143.521 -2.01039 -0.120545 0
M  V30 1543 C 140.586 -3.46474 0.125168 0
M  V30 1544 C 139.647 -4.13039 1.17034 0
M  V30 1545 C 138.88 -5.30229 0.607688 0
M  V30 1546 O 139.103 -5.675 -0.574497 0
M  V30 1547 O 138.037 -5.86444 1.35526 0
M  V30 1548 H 141.863 -2.56808 1.62121 0
M  V30 1549 H 139.448 -1.22702 0.852322 0
M  V30 1550 H 141.33 -4.20917 -0.201729 0
M  V30 1551 H 140.005 -3.14811 -0.753364 0
M  V30 1552 H 138.912 -3.40493 1.54968 0
M  V30 1553 H 140.245 -4.48796 2.02097 0
M  V30 1554 N 141.898 -0.863906 -1.31812 0
M  V30 1555 C 142.828 -0.330843 -2.31144 0
M  V30 1556 C 143.809 0.575005 -1.60087 0
M  V30 1557 O 144.994 0.493304 -1.8783 0
M  V30 1558 C 142.124 0.47374 -3.44054 0
M  V30 1559 C 141.078 -0.338481 -4.26659 0
M  V30 1560 C 140.404 0.591412 -5.31419 0
M  V30 1561 C 141.704 -1.56926 -4.98168 0
M  V30 1562 H 143.398 -1.16086 -2.75979 0
M  V30 1563 H 140.944 -0.559657 -1.32679 0
M  V30 1564 H 142.897 0.857143 -4.12591 0
M  V30 1565 H 141.621 1.33721 -2.9797 0
M  V30 1566 H 140.28 -0.703754 -3.59782 0
M  V30 1567 H 139.928 1.45199 -4.81587 0
M  V30 1568 H 139.628 0.0519022 -5.87577 0
M  V30 1569 H 141.152 0.97179 -6.02817 0
M  V30 1570 H 142.566 -1.25764 -5.59336 0
M  V30 1571 H 140.963 -2.04739 -5.64094 0
M  V30 1572 H 142.033 -2.32544 -4.25501 0
M  V30 1573 N 143.376 1.44774 -0.622745 0
M  V30 1574 C 144.324 2.32387 0.0994683 0
M  V30 1575 C 145.318 1.46859 0.844326 0
M  V30 1576 O 146.524 1.63254 0.758174 0
M  V30 1577 H 142.899 0.750273 0.0509291 0
M  V30 1578 H 144.87 2.91062 -0.65767 0
M  V30 1579 C 143.619 3.30723 1.07319 0
M  V30 1580 H 142.942 3.96541 0.509462 0
M  V30 1581 H 144.382 3.94725 1.54817 0
M  V30 1582 C 142.841 2.59021 2.15429 0
M  V30 1583 O 143.371 2.38286 3.23393 0
M  V30 1584 N 141.577 2.189 1.91131 0
M  V30 1585 H 141.124 2.35964 1.03337 0
M  V30 1586 H 141.082 1.71251 2.63668 0
M  V30 1587 N 144.854 0.36279 1.53368 0
M  V30 1588 C 145.787 -0.528507 2.21996 0
M  V30 1589 C 146.765 -1.0852 1.21087 0
M  V30 1590 O 147.949 -1.14186 1.4998 0
M  V30 1591 C 145.076 -1.72893 2.91249 0
M  V30 1592 C 144.122 -1.29994 4.06207 0
M  V30 1593 S 144.955 -0.303575 5.34639 0
M  V30 1594 C 146.111 -1.51039 6.07403 0
M  V30 1595 H 146.344 0.0543423 2.9725 0
M  V30 1596 H 143.877 0.146889 1.537 0
M  V30 1597 H 145.835 -2.41751 3.31763 0
M  V30 1598 H 144.496 -2.28303 2.15724 0
M  V30 1599 H 143.689 -2.19549 4.53667 0
M  V30 1600 H 143.291 -0.690608 3.67569 0
M  V30 1601 H 145.583 -2.44186 6.31965 0
M  V30 1602 H 146.526 -1.07721 6.99858 0
M  V30 1603 H 146.934 -1.71518 5.37812 0
M  V30 1604 N 146.332 -1.57332 0.0918853 0
M  V30 1605 C 147.748 -1.57389 -0.264766 0
M  V30 1606 C 147.948 -1.10281 -1.68643 0
M  V30 1607 O 147.004 -0.777801 -2.40222 0
M  V30 1608 C 148.317 -3.00648 -0.0561195 0
M  V30 1609 C 149.865 -3.12754 -0.124116 0
M  V30 1610 C 150.34 -4.57965 0.0564972 0
M  V30 1611 N 151.831 -4.632 0.00155611 0
M  V30 1612 C 152.566 -5.73281 0.116598 0
M  V30 1613 N 152.062 -6.92208 0.286294 0
M  V30 1614 N 153.855 -5.6207 0.0580973 0
M  V30 1615 H 146.006 -1.86262 1.02079 0
M  V30 1616 H 148.269 -0.859579 0.399786 0
M  V30 1617 H 147.975 -3.393 0.925669 0
M  V30 1618 H 147.849 -3.68623 -0.799823 0
M  V30 1619 H 150.236 -2.73976 -1.09641 0
M  V30 1620 H 150.317 -2.47377 0.651024 0
M  V30 1621 H 149.961 -4.97436 1.02564 0
M  V30 1622 H 149.891 -5.21399 -0.738297 0
M  V30 1623 H 152.382 -3.77686 -0.127192 0
M  V30 1624 H 152.695 -7.71934 0.365676 0
M  V30 1625 H 151.04 -6.94254 0.32192 0
M  V30 1626 H 154.231 -4.68043 -0.0733204 0
M  V30 1627 H 154.404 -6.47824 0.151203 0
M  V30 1628 N 147.81 0.181792 -1.56548 0
M  V30 1629 C 149.221 0.745244 -1.71181 0
M  V30 1630 C 149.572 1.83262 -0.70068 0
M  V30 1631 O 148.697 2.15946 0.140154 0
M  V30 1632 C 149.292 1.35859 -3.10367 0
M  V30 1633 C 147.851 1.86898 -3.2672 0
M  V30 1634 C 146.998 0.743942 -2.67134 0
M  V30 1635 H 149.949 -0.0434661 -1.5864 0
M  V30 1636 H 149.97 2.22817 -3.08436 0
M  V30 1637 H 149.482 0.566948 -3.83937 0
M  V30 1638 H 147.583 2.68738 -2.5809 0
M  V30 1639 H 147.696 2.02162 -4.34359 0
M  V30 1640 H 146.06 1.16169 -2.26665 0
M  V30 1641 H 146.843 -0.035676 -3.43281 0
M  V30 1642 N 149.288 1.51039 0.449983 0
M  V30 1643 C 150.236 1.71995 1.5659 0
M  V30 1644 C 151.23 0.586029 1.5894 0
M  V30 1645 O 152.436 0.76709 1.62837 0
M  V30 1646 H 148.811 0.543233 0.520001 0
M  V30 1647 H 150.782 2.65562 1.36085 0
M  V30 1648 C 149.531 1.8506 2.9436 0
M  V30 1649 H 148.854 2.71712 2.93279 0
M  V30 1650 H 150.294 2.0374 3.71842 0
M  V30 1651 C 148.753 0.607277 3.31382 0
M  V30 1652 O 149.283 -0.243903 4.00959 0
M  V30 1653 N 147.489 0.455073 2.87015 0
M  V30 1654 H 147.036 1.14879 2.30566 0
M  V30 1655 H 146.994 -0.375611 3.12148 0
M  V30 1656 N 150.766 -0.704594 1.40972 0
M  V30 1657 C 151.699 -1.82861 1.36518 0
M  V30 1658 C 152.677 -1.6091 0.23382 0
M  V30 1659 O 153.861 -1.83778 0.419271 0
M  V30 1660 C 150.988 -3.1939 1.12729 0
M  V30 1661 C 150.034 -3.60148 2.28463 0
M  V30 1662 S 150.867 -3.65994 3.90907 0
M  V30 1663 C 152.023 -5.05264 3.69403 0
M  V30 1664 H 152.256 -1.86361 2.3164 0
M  V30 1665 H 149.789 -0.872439 1.27389 0
M  V30 1666 H 151.747 -3.98211 0.996893 0
M  V30 1667 H 150.408 -3.1351 0.192427 0
M  V30 1668 H 149.601 -4.59309 2.07489 0
M  V30 1669 H 149.203 -2.88612 2.37863 0
M  V30 1670 H 151.495 -5.92504 3.28551 0
M  V30 1671 H 152.438 -5.31278 4.68134 0
M  V30 1672 H 152.846 -4.76377 3.02862 0
M  V30 1673 N 152.244 -1.26651 -0.937939 0
M  V30 1674 C 153.492 -1.12165 -1.68118 0
M  V30 1675 C 153.813 0.334983 -1.92101 0
M  V30 1676 O 153.083 1.23583 -1.52 0
M  V30 1677 H 151.663 -0.412093 -0.623048 0
M  V30 1678 H 154.325 -1.59027 -1.12678 0
M  V30 1679 H 153.421 -1.64289 -2.6536 0
M  V30 1680 N 153.722 1.14298 -1.08507 0
M  V30 1681 C 154.652 2.21542 -0.737646 0
M  V30 1682 C 155.633 1.67773 0.280377 0
M  V30 1683 O 156.818 1.93616 0.150521 0
M  V30 1684 C 153.948 3.46988 -0.147259 0
M  V30 1685 C 152.902 4.13789 -1.09374 0
M  V30 1686 C 152.228 5.33449 -0.365524 0
M  V30 1687 C 153.528 4.62208 -2.4323 0
M  V30 1688 H 155.222 2.5086 -1.6343 0
M  V30 1689 H 152.768 1.20576 -0.787243 0
M  V30 1690 H 154.721 4.21262 0.107808 0
M  V30 1691 H 153.445 3.17037 0.784538 0
M  V30 1692 H 152.104 3.4147 -1.33393 0
M  V30 1693 H 151.752 4.99759 0.57011 0
M  V30 1694 H 151.452 5.79088 -0.996512 0
M  V30 1695 H 152.976 6.10485 -0.118534 0
M  V30 1696 H 154.39 5.27952 -2.23472 0
M  V30 1697 H 152.787 5.18553 -3.02031 0
M  V30 1698 H 153.857 3.77224 -3.04681 0
M  V30 1699 N 155.201 0.870884 1.31352 0
M  V30 1700 C 156.134 0.271983 2.26573 0
M  V30 1701 C 157.112 -0.599385 1.51149 0
M  V30 1702 O 158.296 -0.552605 1.80218 0
M  V30 1703 C 155.423 -0.614801 3.33073 0
M  V30 1704 C 154.469 0.185342 4.26097 0
M  V30 1705 S 155.302 1.56444 5.12138 0
M  V30 1706 C 156.458 0.683807 6.22153 0
M  V30 1707 H 156.691 1.07916 2.77023 0
M  V30 1708 H 154.224 0.669459 1.39132 0
M  V30 1709 H 156.182 -1.12074 3.94905 0
M  V30 1710 H 154.843 -1.39593 2.81376 0
M  V30 1711 H 154.036 -0.490771 5.01605 0
M  V30 1712 H 153.638 0.623415 3.68768 0
M  V30 1713 H 155.93 -0.10521 6.77418 0
M  V30 1714 H 156.873 1.41004 6.93919 0
M  V30 1715 H 157.281 0.250952 5.63942 0
M  V30 1716 N 156.679 -1.44442 0.630414 0
M  V30 1717 C 157.925 -2.02894 0.143332 0
M  V30 1718 C 158.28 -1.48697 -1.22094 0
M  V30 1719 O 157.573 -0.661171 -1.79831 0
M  V30 1720 C 157.767 -3.57332 0.0697835 0
M  V30 1721 C 157.596 -4.26512 1.42539 0
M  V30 1722 C 156.366 -4.63516 2.01198 0
M  V30 1723 C 158.564 -4.57004 2.35907 0
M  V30 1724 N 156.546 -5.17661 3.30001 0
M  V30 1725 C 157.917 -5.12223 3.49324 0
M  V30 1726 C 159.972 -4.38955 2.34995 0
M  V30 1727 C 158.675 -5.51295 4.62024 0
M  V30 1728 C 160.701 -4.79075 3.46758 0
M  V30 1729 C 160.063 -5.34407 4.58899 0
M  V30 1730 H 156.162 -0.776041 0.0963523 0
M  V30 1731 H 158.746 -1.75945 0.833752 0
M  V30 1732 H 156.917 -3.83894 -0.589915 0
M  V30 1733 H 158.649 -4.02451 -0.42606 0
M  V30 1734 H 155.404 -4.47811 1.54151 0
M  V30 1735 H 155.828 -5.4921 3.95851 0
M  V30 1736 H 160.47 -3.95469 1.49545 0
M  V30 1737 H 158.188 -5.93736 5.48182 0
M  V30 1738 H 161.774 -4.66824 3.47227 0
M  V30 1739 H 160.654 -5.64878 5.4395 0
M  V30 1740 N 158.157 -0.370918 -1.53173 0
M  V30 1741 C 159.087 0.464847 -2.28826 0
M  V30 1742 C 160.068 1.07936 -1.31468 0
M  V30 1743 O 161.253 1.0956 -1.60344 0
M  V30 1744 C 158.383 1.60196 -3.08147 0
M  V30 1745 C 157.337 1.11443 -4.13237 0
M  V30 1746 C 156.663 2.3422 -4.80672 0
M  V30 1747 C 157.963 0.195384 -5.21934 0
M  V30 1748 H 159.657 -0.166329 -2.98938 0
M  V30 1749 H 157.203 -0.0814359 -1.4377 0
M  V30 1750 H 159.156 2.19332 -3.59822 0
M  V30 1751 H 157.88 2.26045 -2.35735 0
M  V30 1752 H 156.539 0.545727 -3.62515 0
M  V30 1753 H 156.187 2.98537 -4.04827 0
M  V30 1754 H 155.887 2.02269 -5.51689 0
M  V30 1755 H 157.411 2.94032 -5.35143 0
M  V30 1756 H 158.825 0.694375 -5.69079 0
M  V30 1757 H 157.222 -0.0335027 -6.00091 0
M  V30 1758 H 158.292 -0.760961 -4.78892 0
M  V30 1759 N 159.635 1.57281 -0.100228 0
M  V30 1760 C 160.86 1.99302 0.573881 0
M  V30 1761 C 161.285 0.979059 1.60611 0
M  V30 1762 O 160.643 -0.0517803 1.81226 0
M  V30 1763 C 160.691 3.40274 1.19358 0
M  V30 1764 O 159.795 3.41676 2.30935 0
M  V30 1765 H 159.136 0.647944 0.145138 0
M  V30 1766 H 161.666 2.03779 -0.183156 0
M  V30 1767 H 161.676 3.78078 1.53365 0
M  V30 1768 H 160.351 4.13594 0.437385 0
M  V30 1769 H 158.928 3.15672 1.98509 0
M  V30 1770 N 161.113 -0.173488 1.56642 0
M  V30 1771 C 162.359 -0.887108 1.83035 0
M  V30 1772 C 162.714 -1.79965 0.680461 0
M  V30 1773 O 162.007 -1.88854 -0.323225 0
M  V30 1774 C 162.201 -1.72069 3.13252 0
M  V30 1775 C 162.03 -0.89035 4.40798 0
M  V30 1776 C 160.8 -0.566282 5.02117 0
M  V30 1777 C 162.998 -0.232921 5.13772 0
M  V30 1778 N 160.98 0.280427 6.13259 0
M  V30 1779 C 162.351 0.475046 6.18177 0
M  V30 1780 C 164.406 -0.150863 4.97671 0
M  V30 1781 C 163.109 1.25729 7.08227 0
M  V30 1782 C 165.135 0.618039 5.88162 0
M  V30 1783 C 164.497 1.31438 6.92029 0
M  V30 1784 H 160.596 -0.303303 0.720785 0
M  V30 1785 H 163.18 -0.154244 1.94088 0
M  V30 1786 H 161.351 -2.42499 3.03395 0
M  V30 1787 H 163.083 -2.37545 3.2765 0
M  V30 1788 H 159.838 -0.895852 4.6505 0
M  V30 1789 H 160.262 0.694027 6.73433 0
M  V30 1790 H 164.904 -0.674868 4.17379 0
M  V30 1791 H 162.622 1.79265 7.87966 0
M  V30 1792 H 166.208 0.683173 5.77775 0
M  V30 1793 H 165.088 1.89981 7.6084 0
M  V30 1794 N 162.591 -1.51276 -0.441967 0
M  V30 1795 C 163.837 -1.6492 -1.1905 0
M  V30 1796 C 164.192 -0.358731 -1.89026 0
M  V30 1797 O 163.485 0.645193 -1.8041 0
M  V30 1798 C 163.679 -2.78746 -2.23686 0
M  V30 1799 C 163.508 -4.18737 -1.63979 0
M  V30 1800 C 162.278 -4.84739 -1.42674 0
M  V30 1801 C 164.476 -5.01988 -1.11858 0
M  V30 1802 N 162.458 -6.08858 -0.785159 0
M  V30 1803 C 163.829 -6.17071 -0.601989 0
M  V30 1804 C 165.884 -4.87551 -1.0099 0
M  V30 1805 C 164.587 -7.19299 0.0126012 0
M  V30 1806 C 166.613 -5.89983 -0.409206 0
M  V30 1807 C 165.975 -7.04333 0.0968651 0
M  V30 1808 H 162.074 -0.657416 -0.423471 0
M  V30 1809 H 164.658 -1.8849 -0.48782 0
M  V30 1810 H 162.829 -2.56848 -2.91348 0
M  V30 1811 H 164.561 -2.81595 -2.90666 0
M  V30 1812 H 161.316 -4.42528 -1.68719 0
M  V30 1813 H 161.74 -6.75282 -0.481942 0
M  V30 1814 H 166.382 -3.99401 -1.38703 0
M  V30 1815 H 164.1 -8.071 0.401879 0
M  V30 1816 H 167.686 -5.8088 -0.327079 0
M  V30 1817 H 166.566 -7.82238 0.554373 0
M  V30 1818 N 164.069 0.697108 -1.41344 0
M  V30 1819 C 165.002 1.82134 -1.37486 0
M  V30 1820 C 165.98 1.60784 -0.242351 0
M  V30 1821 O 167.164 1.83553 -0.429012 0
M  V30 1822 C 164.291 3.18788 -1.14421 0
M  V30 1823 C 163.337 3.58932 -2.3037 0
M  V30 1824 S 164.17 3.63916 -3.92843 0
M  V30 1825 C 165.326 5.03298 -3.72078 0
M  V30 1826 H 165.559 1.85129 -2.32625 0
M  V30 1827 H 163.092 0.865671 -1.2785 0
M  V30 1828 H 165.05 3.97677 -1.018 0
M  V30 1829 H 163.711 3.13404 -0.20905 0
M  V30 1830 H 162.904 4.58202 -2.09922 0
M  V30 1831 H 162.506 2.87347 -2.39391 0
M  V30 1832 H 164.798 5.90753 -3.31688 0
M  V30 1833 H 165.741 5.28788 -4.70945 0
M  V30 1834 H 166.149 4.74764 -3.05384 0
M  V30 1835 N 165.547 1.27147 0.931209 0
M  V30 1836 C 166.51 1.09615 2.01289 0
M  V30 1837 C 167.51 0.0412581 1.60747 0
M  V30 1838 O 168.7 0.285545 1.71844 0
M  V30 1839 C 165.832 0.669447 3.34262 0
M  V30 1840 H 167.025 2.05662 2.18273 0
M  V30 1841 H 164.578 1.09885 1.11153 0
M  V30 1842 H 165.313 -0.292572 3.22978 0
M  V30 1843 H 165.098 1.43127 3.65044 0
M  V30 1844 H 166.588 0.568921 4.13706 0
M  V30 1845 N 167.025 -1.13721 1.09112 0
M  V30 1846 C 168.272 -1.84924 0.825192 0
M  V30 1847 C 168.6 -1.83347 -0.649151 0
M  V30 1848 O 167.855 -1.26449 -1.49362 0
M  V30 1849 C 168.154 -3.32861 1.30146 0
M  V30 1850 C 167.82 -3.54621 2.78486 0
M  V30 1851 C 166.482 -3.60268 3.18999 0
M  V30 1852 C 168.834 -3.62855 3.74146 0
M  V30 1853 C 166.162 -3.71679 4.53951 0
M  V30 1854 C 168.514 -3.75793 5.08883 0
M  V30 1855 C 167.178 -3.79692 5.4899 0
M  V30 1856 H 166.448 -0.676684 0.301959 0
M  V30 1857 H 169.095 -1.3428 1.36533 0
M  V30 1858 H 167.4 -3.85835 0.681064 0
M  V30 1859 H 169.097 -3.86395 1.07236 0
M  V30 1860 H 165.687 -3.50879 2.46134 0
M  V30 1861 H 169.871 -3.57775 3.43963 0
M  V30 1862 H 165.127 -3.72963 4.84467 0
M  V30 1863 H 169.301 -3.81107 5.82864 0
M  V30 1864 H 166.928 -3.88287 6.53558 0
M  V30 1865 N 168.503 -0.877838 -1.30888 0
M  V30 1866 C 169.752 -0.488793 -1.95688 0
M  V30 1867 C 170.065 0.965485 -1.70111 0
M  V30 1868 O 171.271 1.46104 -2.28836 0
M  V30 1869 C 169.727 -0.823201 -3.50359 0
M  V30 1870 C 169.335 -2.29477 -3.84765 0
M  V30 1871 C 171.079 -0.503009 -4.21509 0
M  V30 1872 C 168.986 -2.57118 -5.32583 0
M  V30 1873 H 167.916 -0.179062 -0.732429 0
M  V30 1874 H 170.567 -1.07183 -1.48943 0
M  V30 1875 H 168.949 -0.169331 -3.95638 0
M  V30 1876 H 170.123 -2.99236 -3.5042 0
M  V30 1877 H 168.438 -2.58178 -3.267 0
M  V30 1878 H 171.035 -0.68665 -5.30273 0
M  V30 1879 H 171.378 0.557109 -4.12555 0
M  V30 1880 H 171.911 -1.11376 -3.8189 0
M  V30 1881 H 168.65 -3.61843 -5.4658 0
M  V30 1882 H 168.17 -1.91961 -5.68253 0
M  V30 1883 H 169.849 -2.42251 -5.99936 0
M  V30 1884 N 169.982 1.44106 -0.638065 0
M  V30 1885 C 171.23 2.01579 -0.145043 0
M  V30 1886 C 171.551 1.50496 1.24 0
M  V30 1887 O 170.821 0.711374 1.82527 0
M  V30 1888 H 169.401 0.745282 -0.05063 0
M  V30 1889 H 172.063 1.76516 -0.826327 0
M  V30 1890 H 171.159 3.11877 -0.118039 0
M  V30 1891 N 171.46 0.379036 1.52974 0
M  V30 1892 C 172.39 -0.452706 2.29069 0
M  V30 1893 C 173.371 -1.07237 1.32039 0
M  V30 1894 O 174.556 -1.08708 1.60923 0
M  V30 1895 C 171.686 -1.5856 3.08992 0
M  V30 1896 C 170.64 -1.0925 4.13822 0
M  V30 1897 C 169.966 -2.31668 4.81907 0
M  V30 1898 C 171.266 -0.167702 5.22031 0
M  V30 1899 H 172.96 0.182181 2.98845 0
M  V30 1900 H 170.506 0.0890592 1.43724 0
M  V30 1901 H 172.459 -2.1742 3.6098 0
M  V30 1902 H 171.183 -2.24792 2.36931 0
M  V30 1903 H 169.842 -0.526494 3.628 0
M  V30 1904 H 169.49 -2.96386 4.06404 0
M  V30 1905 H 169.19 -1.9934 5.52754 0
M  V30 1906 H 170.714 -2.91189 5.36695 0
M  V30 1907 H 172.128 -0.664186 5.6944 0
M  V30 1908 H 170.525 0.0653265 6.00064 0
M  V30 1909 H 171.595 0.786347 4.78482 0
M  V30 1910 N 172.938 -1.57226 0.108567 0
M  V30 1911 C 174.184 -1.95121 -0.552761 0
M  V30 1912 C 174.517 -0.991345 -1.66991 0
M  V30 1913 O 173.792 -0.0267211 -1.94482 0
M  V30 1914 C 174.075 -3.43039 -1.09528 0
M  V30 1915 C 173.928 -4.49797 0.0177332 0
M  V30 1916 C 175.247 -3.92567 -1.98945 0
M  V30 1917 H 172.366 -0.709496 -0.199461 0
M  V30 1918 H 175.008 -1.89126 0.182011 0
M  V30 1919 H 173.158 -3.48279 -1.72146 0
M  V30 1920 H 174.83 -4.56661 0.652584 0
M  V30 1921 H 173.073 -4.284 0.682309 0
M  V30 1922 H 173.744 -5.50528 -0.402919 0
M  V30 1923 H 176.22 -3.89565 -1.46214 0
M  V30 1924 H 175.096 -4.96605 -2.33827 0
M  V30 1925 H 175.357 -3.32648 -2.91201 0
M  V30 1926 N 174.416 0.165178 -1.56732 0
M  V30 1927 C 175.662 0.882112 -1.82611 0
M  V30 1928 C 175.995 1.81628 -0.687378 0
M  V30 1929 O 175.27 1.92009 0.310267 0
M  V30 1930 C 175.553 1.67245 -3.18906 0
M  V30 1931 C 175.406 0.760987 -4.43316 0
M  V30 1932 C 176.725 2.63884 -3.52212 0
M  V30 1933 H 173.844 0.319242 -0.664269 0
M  V30 1934 H 176.486 0.148052 -1.89422 0
M  V30 1935 H 174.636 2.29824 -3.1323 0
M  V30 1936 H 176.308 0.147596 -4.61064 0
M  V30 1937 H 174.551 0.0694102 -4.33744 0
M  V30 1938 H 175.222 1.34962 -5.35247 0
M  V30 1939 H 177.698 2.11429 -3.58381 0
M  V30 1940 H 176.574 3.16245 -4.48643 0
M  V30 1941 H 176.835 3.44377 -2.77231 0
M  V30 1942 N 175.894 1.51508 0.433938 0
M  V30 1943 C 176.857 1.72473 1.50949 0
M  V30 1944 C 177.857 0.594725 1.49398 0
M  V30 1945 O 179.047 0.862315 1.5136 0
M  V30 1946 C 176.179 1.78431 2.90474 0
M  V30 1947 H 177.372 2.68467 1.33662 0
M  V30 1948 H 174.925 1.41549 0.662836 0
M  V30 1949 H 175.66 0.842645 3.13161 0
M  V30 1950 H 175.445 2.60558 2.93005 0
M  V30 1951 H 176.935 1.96479 3.68491 0
M  V30 1952 N 177.372 -0.689602 1.41712 0
M  V30 1953 C 178.335 -1.78521 1.43746 0
M  V30 1954 C 179.335 -1.57436 0.327191 0
M  V30 1955 O 180.525 -1.64 0.587348 0
M  V30 1956 C 177.657 -3.16971 1.25467 0
M  V30 1957 H 178.85 -1.78108 2.41283 0
M  V30 1958 H 176.403 -0.89781 1.27942 0
M  V30 1959 H 177.138 -3.23019 0.287948 0
M  V30 1960 H 176.923 -3.33678 2.05917 0
M  V30 1961 H 178.413 -3.96935 1.2974 0
M  V30 1962 N 178.85 -1.27639 -0.924453 0
M  V30 1963 C 179.78 -1.13166 -2.04244 0
M  V30 1964 C 180.761 -0.032256 -1.70069 0
M  V30 1965 O 181.946 -0.207328 -1.9309 0
M  V30 1966 C 179.076 -0.781496 -3.38393 0
M  V30 1967 C 178.03 -1.83449 -3.86692 0
M  V30 1968 C 177.356 -1.33822 -5.17683 0
M  V30 1969 C 178.656 -3.23917 -4.09726 0
M  V30 1970 H 180.35 -2.06689 -2.1661 0
M  V30 1971 H 177.896 -0.995136 -1.04082 0
M  V30 1972 H 179.849 -0.667057 -4.16087 0
M  V30 1973 H 178.573 0.189439 -3.2605 0
M  V30 1974 H 177.232 -1.93789 -3.11193 0
M  V30 1975 H 176.88 -0.35665 -5.01734 0
M  V30 1976 H 176.58 -2.04224 -5.50968 0
M  V30 1977 H 178.104 -1.23679 -5.97943 0
M  V30 1978 H 179.518 -3.16559 -4.77978 0
M  V30 1979 H 177.915 -3.92059 -4.54324 0
M  V30 1980 H 178.985 -3.68729 -3.14908 0
M  V30 1981 N 180.328 1.1314 -1.09713 0
M  V30 1982 C 181.739 1.66029 -0.853885 0
M  V30 1983 C 182.09 1.86241 0.617142 0
M  V30 1984 O 181.215 1.5834 1.47503 0
M  V30 1985 C 181.81 3.01599 -1.5435 0
M  V30 1986 C 180.369 3.51467 -1.34714 0
M  V30 1987 C 179.516 2.26648 -1.59769 0
M  V30 1988 H 182.467 0.970226 -1.25588 0
M  V30 1989 H 182.488 3.67709 -0.978267 0
M  V30 1990 H 182 2.86856 -2.6141 0
M  V30 1991 H 180.101 3.71408 -0.297838 0
M  V30 1992 H 180.214 4.314 -2.08401 0
M  V30 1993 H 178.578 2.33385 -1.01998 0
M  V30 1994 H 179.361 2.14467 -2.68065 0
M  V30 1995 N 181.806 0.884767 1.30421 0
M  V30 1996 C 182.736 0.367574 2.30589 0
M  V30 1997 C 183.717 -0.549464 1.60981 0
M  V30 1998 O 184.902 -0.46336 1.88591 0
M  V30 1999 C 182.032 -0.418944 3.44764 0
M  V30 2000 C 180.986 0.406316 4.26067 0
M  V30 2001 C 180.312 -0.506793 5.32293 0
M  V30 2002 C 181.612 1.64832 4.95608 0
M  V30 2003 H 183.306 1.20462 2.74097 0
M  V30 2004 H 180.852 0.580695 1.31772 0
M  V30 2005 H 182.805 -0.791395 4.13902 0
M  V30 2006 H 181.529 -1.28964 3.0006 0
M  V30 2007 H 180.188 0.760903 3.58617 0
M  V30 2008 H 179.836 -1.37519 4.83836 0
M  V30 2009 H 179.536 0.0415828 5.87585 0
M  V30 2010 H 181.06 -0.875764 6.04287 0
M  V30 2011 H 182.474 1.34646 5.57264 0
M  V30 2012 H 180.871 2.13688 5.60765 0
M  V30 2013 H 181.941 2.39284 4.21748 0
M  V30 2014 N 183.284 -1.43765 0.645699 0
M  V30 2015 C 184.214 -2.33471 -0.0370477 0
M  V30 2016 C 185.195 -1.49042 -0.819779 0
M  V30 2017 O 186.38 -1.77726 -0.782758 0
M  V30 2018 C 183.51 -3.32311 -1.0093 0
M  V30 2019 C 182.464 -4.2667 -0.337201 0
M  V30 2020 C 181.79 -5.1549 -1.42037 0
M  V30 2021 C 183.09 -5.16657 0.765706 0
M  V30 2022 H 184.784 -2.90809 0.712069 0
M  V30 2023 H 182.33 -1.39834 0.343876 0
M  V30 2024 H 184.283 -3.9396 -1.49578 0
M  V30 2025 H 183.007 -2.73213 -1.78948 0
M  V30 2026 H 181.666 -3.66374 0.128771 0
M  V30 2027 H 181.314 -4.52735 -2.1918 0
M  V30 2028 H 181.014 -5.79438 -0.975966 0
M  V30 2029 H 182.538 -5.80012 -1.90838 0
M  V30 2030 H 183.952 -5.72158 0.361702 0
M  V30 2031 H 182.349 -5.89286 1.13413 0
M  V30 2032 H 183.419 -4.56796 1.62683 0
M  V30 2033 N 184.763 -0.387143 -1.52771 0
M  V30 2034 C 185.726 0.436939 -2.24997 0
M  V30 2035 C 186.726 0.991991 -1.26555 0
M  V30 2036 O 187.916 0.874335 -1.50669 0
M  V30 2037 C 185.048 1.61281 -3.00335 0
M  V30 2038 H 186.241 -0.195365 -2.99263 0
M  V30 2039 H 183.794 -0.139218 -1.55679 0
M  V30 2040 H 184.529 2.2826 -2.30364 0
M  V30 2041 H 184.314 1.22154 -3.72587 0
M  V30 2042 H 185.804 2.19629 -3.5518 0
M  V30 2043 N 186.241 1.57166 -0.116904 0
M  V30 2044 C 187.189 2.16457 0.851418 0
M  V30 2045 C 188.183 1.11323 1.27686 0
M  V30 2046 O 189.389 1.2963 1.24884 0
M  V30 2047 H 185.764 0.69271 0.292672 0
M  V30 2048 H 187.735 2.96605 0.32685 0
M  V30 2049 C 186.484 2.77689 2.09246 0
M  V30 2050 H 185.807 3.58285 1.77402 0
M  V30 2051 H 187.247 3.22716 2.7501 0
M  V30 2052 C 185.706 1.74667 2.88085 0
M  V30 2053 O 186.236 1.19877 3.83396 0
M  V30 2054 N 184.442 1.44656 2.52038 0
M  V30 2055 H 183.989 1.89402 1.74599 0
M  V30 2056 H 183.947 0.759675 3.05084 0
M  V30 2057 N 187.719 -0.156864 1.56817 0
M  V30 2058 C 188.629 -1.2136 2.00771 0
M  V30 2059 C 189.645 -1.47598 0.921459 0
M  V30 2060 O 190.821 -1.59462 1.2302 0
M  V30 2061 C 187.886 -2.52943 2.37109 0
M  V30 2062 C 186.947 -2.34439 3.59634 0
M  V30 2063 C 186.18 -3.59748 3.94229 0
M  V30 2064 O 186.403 -4.65526 3.29609 0
M  V30 2065 O 185.337 -3.52998 4.8752 0
M  V30 2066 H 189.163 -0.870468 2.90958 0
M  V30 2067 H 186.748 -0.36484 1.44877 0
M  V30 2068 H 188.63 -3.30538 2.61386 0
M  V30 2069 H 187.305 -2.86806 1.5008 0
M  V30 2070 H 186.212 -1.54828 3.40557 0
M  V30 2071 H 187.545 -2.05496 4.4725 0
M  V30 2072 N 189.197 -1.51736 -0.425897 0
M  V30 2073 C 190.16 -1.73271 -1.50032 0
M  V30 2074 C 191.16 -0.602639 -1.4908 0
M  V30 2075 O 192.35 -0.87033 -1.509 0
M  V30 2076 C 189.482 -1.79969 -2.89523 0
M  V30 2077 H 190.675 -2.69172 -1.32237 0
M  V30 2078 H 188.228 -1.41899 -0.65532 0
M  V30 2079 H 188.963 -0.859241 -3.1271 0
M  V30 2080 H 188.748 -2.62109 -2.91619 0
M  V30 2081 H 190.238 -1.9843 -3.67444 0
M  V30 2082 N 190.675 0.682077 -1.42076 0
M  V30 2083 C 191.903 1.47057 -1.4554 0
M  V30 2084 C 192.318 1.8869 -0.0645779 0
M  V30 2085 O 191.675 1.57666 0.919115 0
M  V30 2086 C 191.726 2.72442 -2.37609 0
M  V30 2087 O 191.447 2.32559 -3.71279 0
M  V30 2088 C 192.948 3.66069 -2.50017 0
M  V30 2089 H 190.168 0.452737 -0.495248 0
M  V30 2090 H 192.712 0.838695 -1.8651 0
M  V30 2091 H 190.867 3.31835 -1.9991 0
M  V30 2092 H 191.281 3.13475 -4.20516 0
M  V30 2093 H 192.755 4.50792 -3.18576 0
M  V30 2094 H 193.232 4.11476 -1.53572 0
M  V30 2095 H 193.838 3.12572 -2.88407 0
M  V30 2096 N 192.153 1.28127 0.917671 0
M  V30 2097 C 193.399 1.15223 1.66888 0
M  V30 2098 C 193.732 -0.299293 1.9188 0
M  V30 2099 O 193.007 -1.21805 1.51637 0
M  V30 2100 C 193.29 1.94706 3.02922 0
M  V30 2101 C 193.143 3.47898 2.85109 0
M  V30 2102 C 194.462 1.75939 4.03402 0
M  V30 2103 H 191.581 0.419946 0.605652 0
M  V30 2104 H 194.223 1.57398 1.06423 0
M  V30 2105 H 192.373 1.58864 3.54534 0
M  V30 2106 H 194.045 3.93624 2.40537 0
M  V30 2107 H 192.288 3.7373 2.20246 0
M  V30 2108 H 192.959 3.98765 3.81694 0
M  V30 2109 H 195.435 2.07209 3.60837 0
M  V30 2110 H 194.311 2.33931 4.96556 0
M  V30 2111 H 194.572 0.709877 4.36364 0
M  V30 2112 N 193.631 -1.12557 1.10312 0
M  V30 2113 C 194.561 -2.20341 0.772798 0
M  V30 2114 C 195.542 -1.68198 -0.25365 0
M  V30 2115 O 196.727 -1.93831 -0.119699 0
M  V30 2116 C 193.857 -3.46709 0.202443 0
M  V30 2117 C 192.811 -4.11996 1.15943 0
M  V30 2118 C 192.137 -5.328 0.450345 0
M  V30 2119 C 193.437 -4.5828 2.50552 0
M  V30 2120 H 195.131 -2.48229 1.674 0
M  V30 2121 H 192.677 -1.19308 0.806326 0
M  V30 2122 H 194.63 -4.2138 -0.0407752 0
M  V30 2123 H 193.354 -3.18245 -0.734001 0
M  V30 2124 H 192.013 -3.39305 1.38808 0
M  V30 2125 H 191.661 -5.00602 -0.490531 0
M  V30 2126 H 191.361 -5.7743 1.08851 0
M  V30 2127 H 192.885 -6.10219 0.215642 0
M  V30 2128 H 194.299 -5.2433 2.31843 0
M  V30 2129 H 192.696 -5.13683 3.10242 0
M  V30 2130 H 193.766 -3.72329 3.10643 0
M  V30 2131 N 195.109 -0.891671 -1.2995 0
M  V30 2132 C 196.339 -0.527893 -1.99742 0
M  V30 2133 C 196.747 0.88979 -1.66971 0
M  V30 2134 O 196.09 1.59766 -0.906667 0
M  V30 2135 C 196.152 -0.630804 -3.53922 0
M  V30 2136 C 195.816 -2.01401 -4.10228 0
M  V30 2137 C 196.813 -2.98422 -4.25724 0
M  V30 2138 C 194.498 -2.32121 -4.45449 0
M  V30 2139 C 196.492 -4.24293 -4.75662 0
M  V30 2140 C 194.179 -3.58237 -4.95086 0
M  V30 2141 C 195.177 -4.54137 -5.10146 0
M  V30 2142 O 194.865 -5.78014 -5.58708 0
M  V30 2143 H 194.597 -0.201953 -0.645129 0
M  V30 2144 H 197.151 -1.20076 -1.66646 0
M  V30 2145 H 195.381 0.0990616 -3.86573 0
M  V30 2146 H 197.07 -0.277338 -4.04951 0
M  V30 2147 H 197.836 -2.76001 -3.98809 0
M  V30 2148 H 193.715 -1.5824 -4.32991 0
M  V30 2149 H 197.259 -4.99153 -4.87332 0
M  V30 2150 H 193.156 -3.80491 -5.21437 0
M  V30 2151 H 193.924 -5.8049 -5.77039 0
M  V30 2152 N 196.587 1.43421 -0.653314 0
M  V30 2153 C 197.815 2.06163 -0.174491 0
M  V30 2154 C 198.23 1.48969 1.1599 0
M  V30 2155 O 197.587 0.621042 1.71608 0
M  V30 2156 C 197.638 3.61417 -0.0774865 0
M  V30 2157 O 197.359 4.16485 -1.35912 0
M  V30 2158 C 198.86 4.41235 0.427402 0
M  V30 2159 H 196.08 0.664946 -0.0899353 0
M  V30 2160 H 198.624 1.83924 -0.893988 0
M  V30 2161 H 196.779 3.82841 0.59257 0
M  V30 2162 H 197.193 5.10153 -1.21839 0
M  V30 2163 H 198.667 5.5021 0.44423 0
M  V30 2164 H 199.144 4.14268 1.45873 0
M  V30 2165 H 199.75 4.2478 -0.210167 0
M  V30 2166 N 198.065 0.39524 1.52563 0
M  V30 2167 C 199.312 -0.185044 2.01653 0
M  V30 2168 C 199.64 -1.46317 1.28146 0
M  V30 2169 O 198.895 -1.9213 0.372074 0
M  V30 2170 C 199.194 -0.493444 3.53977 0
M  V30 2171 C 198.86 0.69384 4.4553 0
M  V30 2172 C 197.522 1.01954 4.70275 0
M  V30 2173 C 199.874 1.48785 4.99512 0
M  V30 2174 C 197.202 2.14069 5.46252 0
M  V30 2175 C 199.554 2.59965 5.76716 0
M  V30 2176 C 198.218 2.93037 5.99738 0
M  V30 2177 H 197.488 -0.0677123 0.7379 0
M  V30 2178 H 200.135 0.533807 1.8391 0
M  V30 2179 H 198.44 -1.29369 3.69825 0
M  V30 2180 H 200.137 -0.955163 3.89458 0
M  V30 2181 H 196.727 0.429987 4.26438 0
M  V30 2182 H 200.911 1.24946 4.80315 0
M  V30 2183 H 196.167 2.40056 5.62302 0
M  V30 2184 H 200.341 3.21887 6.17545 0
M  V30 2185 H 197.968 3.8003 6.58393 0
M  V30 2186 N 199.544 -1.57102 0.125237 0
M  V30 2187 C 200.774 -1.99472 -0.538015 0
M  V30 2188 C 201.182 -1.00395 -1.60366 0
M  V30 2189 O 200.525 0.0103875 -1.83697 0
M  V30 2190 C 200.587 -3.38262 -1.21734 0
M  V30 2191 C 200.251 -4.56021 -0.298897 0
M  V30 2192 C 201.248 -5.17817 0.464943 0
M  V30 2193 C 198.933 -5.01869 -0.208149 0
M  V30 2194 C 200.927 -6.23852 1.3072 0
M  V30 2195 C 198.614 -6.07763 0.637736 0
M  V30 2196 C 199.612 -6.68622 1.39403 0
M  V30 2197 O 199.3 -7.7247 2.22586 0
M  V30 2198 H 199.032 -0.659934 -0.146501 0
M  V30 2199 H 201.586 -2.04321 0.210267 0
M  V30 2200 H 199.816 -3.30185 -2.01282 0
M  V30 2201 H 201.505 -3.6488 -1.77813 0
M  V30 2202 H 202.271 -4.83308 0.404741 0
M  V30 2203 H 198.15 -4.54241 -0.786522 0
M  V30 2204 H 201.694 -6.71284 1.898 0
M  V30 2205 H 197.591 -6.41701 0.699309 0
M  V30 2206 H 198.359 -7.89595 2.15596 0
M  V30 2207 N 201.022 0.148545 -1.56898 0
M  V30 2208 C 202.433 0.708766 -1.72723 0
M  V30 2209 C 202.784 1.81734 -0.739395 0
M  V30 2210 O 201.909 2.16194 0.0943169 0
M  V30 2211 C 202.504 1.29245 -3.13179 0
M  V30 2212 C 201.063 1.79925 -3.30611 0
M  V30 2213 C 200.21 0.687111 -2.68652 0
M  V30 2214 H 203.161 -0.0771063 -1.58513 0
M  V30 2215 H 203.182 2.16224 -3.13093 0
M  V30 2216 H 202.694 0.485382 -3.85053 0
M  V30 2217 H 200.795 2.63203 -2.63732 0
M  V30 2218 H 200.908 1.92903 -4.38549 0
M  V30 2219 H 199.272 1.11335 -2.29078 0
M  V30 2220 H 200.055 -0.108483 -3.43129 0
M  V30 2221 N 202.5 1.5196 0.417844 0
M  V30 2222 C 203.911 1.57851 0.997 0
M  V30 2223 C 204.262 0.413714 1.91789 0
M  V30 2224 O 203.387 -0.467057 2.113 0
M  V30 2225 C 203.982 2.86085 1.81496 0
M  V30 2226 C 202.541 2.94483 2.34428 0
M  V30 2227 C 201.688 2.52707 1.14169 0
M  V30 2228 H 204.639 1.57455 0.198392 0
M  V30 2229 H 204.66 2.70947 2.67148 0
M  V30 2230 H 204.172 3.70842 1.14446 0
M  V30 2231 H 202.273 2.142 3.04875 0
M  V30 2232 H 202.386 3.98546 2.65891 0
M  V30 2233 H 200.75 2.06353 1.49301 0
M  V30 2234 H 201.533 3.39828 0.486999 0
M  V30 2235 N 203.978 -0.674533 1.42435 0
M  V30 2236 C 204.908 -1.80009 1.48724 0
M  V30 2237 C 205.889 -1.6659 0.343793 0
M  V30 2238 O 207.074 -1.86007 0.558137 0
M  V30 2239 C 204.204 -3.18306 1.38919 0
M  V30 2240 C 203.158 -3.46461 2.51294 0
M  V30 2241 C 202.484 -4.84335 2.26547 0
M  V30 2242 C 203.784 -3.43328 3.93603 0
M  V30 2243 H 205.478 -1.75004 2.42928 0
M  V30 2244 H 203.024 -0.840533 1.16923 0
M  V30 2245 H 204.977 -3.9678 1.41927 0
M  V30 2246 H 203.701 -3.2399 0.412094 0
M  V30 2247 H 202.36 -2.70348 2.47604 0
M  V30 2248 H 202.008 -4.86669 1.2713 0
M  V30 2249 H 201.708 -5.04136 3.01861 0
M  V30 2250 H 203.232 -5.65094 2.31304 0
M  V30 2251 H 204.646 -4.11772 3.98894 0
M  V30 2252 H 203.043 -3.74664 4.68771 0
M  V30 2253 H 204.113 -2.41897 4.20255 0
M  V30 2254 N 205.456 -1.28612 -0.910864 0
M  V30 2255 C 206.403 -1.12786 -2.01365 0
M  V30 2256 C 207.373 -0.024201 -1.66082 0
M  V30 2257 O 208.558 -0.189667 -1.89855 0
M  V30 2258 C 205.698 -0.798743 -3.35729 0
M  V30 2259 C 204.811 -1.98173 -3.83864 0
M  V30 2260 C 203.946 -1.59298 -5.06752 0
M  V30 2261 C 202.985 -2.74245 -5.47226 0
M  V30 2262 N 202.122 -2.35842 -6.61304 0
M  V30 2263 H 206.962 -2.07142 -2.14234 0
M  V30 2264 H 204.499 -1.03093 -1.0493 0
M  V30 2265 H 206.457 -0.588662 -4.13026 0
M  V30 2266 H 205.087 0.10789 -3.2262 0
M  V30 2267 H 204.139 -2.30386 -3.02699 0
M  V30 2268 H 205.451 -2.84343 -4.09818 0
M  V30 2269 H 204.605 -1.34513 -5.916 0
M  V30 2270 H 203.344 -0.702618 -4.82612 0
M  V30 2271 H 202.349 -2.99725 -4.60918 0
M  V30 2272 H 203.574 -3.63928 -5.73353 0
M  V30 2273 H 201.52 -1.49279 -6.38789 0
M  V30 2274 H 201.437 -3.15546 -6.86998 0
M  V30 2275 H 202.705 -2.14348 -7.4945 0
M  V30 2276 N 206.934 1.1197 -1.10907 0
M  V30 2277 C 208.182 1.83225 -0.852819 0
M  V30 2278 C 208.503 1.84769 0.623341 0
M  V30 2279 O 207.773 1.3143 1.45269 0
M  V30 2280 H 206.353 0.67849 -0.312507 0
M  V30 2281 H 209.015 1.3556 -1.40033 0
M  V30 2282 H 208.111 2.87265 -1.22005 0
M  V30 2283 N 208.412 0.89855 1.29475 0
M  V30 2284 C 209.362 0.346767 2.25348 0
M  V30 2285 C 210.346 -0.532509 1.51833 0
M  V30 2286 O 211.538 -0.374714 1.72988 0
M  V30 2287 C 208.667 -0.425681 3.40651 0
M  V30 2288 C 207.753 0.46845 4.21505 0
M  V30 2289 N 208.144 1.57514 4.80648 0
M  V30 2290 C 206.442 0.26603 4.45206 0
M  V30 2291 C 207.143 2.12889 5.41344 0
M  V30 2292 N 206.119 1.42208 5.24669 0
M  V30 2293 H 209.921 1.19219 2.68634 0
M  V30 2294 H 207.435 0.749473 1.44072 0
M  V30 2295 H 209.432 -0.837716 4.08397 0
M  V30 2296 H 208.092 -1.26838 2.98902 0
M  V30 2297 H 209.103 1.95789 4.79465 0
M  V30 2298 H 205.78 -0.538394 4.14014 0
M  V30 2299 H 207.17 3.05901 5.98226 0
M  V30 2300 N 209.89 -1.43072 0.660911 0
M  V30 2301 C 211.136 -2.02545 0.186337 0
M  V30 2302 C 211.491 -1.51253 -1.18913 0
M  V30 2303 O 210.784 -0.699167 -1.78388 0
M  V30 2304 C 210.978 -3.57103 0.145563 0
M  V30 2305 C 210.807 -4.23393 1.51554 0
M  V30 2306 C 209.577 -4.59144 2.10984 0
M  V30 2307 C 211.775 -4.51897 2.45548 0
M  V30 2308 N 209.757 -5.10545 3.40907 0
M  V30 2309 C 211.128 -5.04698 3.6011 0
M  V30 2310 C 213.183 -4.33872 2.44253 0
M  V30 2311 C 211.886 -5.41371 4.73613 0
M  V30 2312 C 213.912 -4.71612 3.56842 0
M  V30 2313 C 213.274 -5.24553 4.70131 0
M  V30 2314 H 209.373 -0.773823 0.112792 0
M  V30 2315 H 211.957 -1.74137 0.870885 0
M  V30 2316 H 210.128 -3.85059 -0.508353 0
M  V30 2317 H 211.86 -4.03264 -0.340598 0
M  V30 2318 H 208.615 -4.4444 1.63615 0
M  V30 2319 H 209.039 -5.40689 4.07411 0
M  V30 2320 H 213.681 -3.92208 1.579 0
M  V30 2321 H 211.399 -5.81975 5.60652 0
M  V30 2322 H 214.985 -4.59354 3.57051 0
M  V30 2323 H 213.865 -5.53213 5.5581 0
M  V30 2324 N 211.368 -0.403325 -1.52352 0
M  V30 2325 C 212.331 0.413051 -2.25447 0
M  V30 2326 C 213.331 0.978513 -1.276 0
M  V30 2327 O 214.521 0.858305 -1.51587 0
M  V30 2328 C 211.653 1.58087 -3.02029 0
M  V30 2329 H 212.846 -0.227094 -2.99039 0
M  V30 2330 H 210.399 -0.155722 -1.55522 0
M  V30 2331 H 211.134 2.25804 -2.32772 0
M  V30 2332 H 210.919 1.18195 -3.73861 0
M  V30 2333 H 212.409 2.1585 -3.57489 0
M  V30 2334 N 212.846 1.57033 -0.133567 0
M  V30 2335 C 214.093 1.95686 0.520877 0
M  V30 2336 C 214.421 1.0177 1.6575 0
M  V30 2337 O 213.676 0.0443195 1.9565 0
M  V30 2338 C 213.975 3.40674 1.08057 0
M  V30 2339 C 213.641 4.50855 0.0637899 0
M  V30 2340 C 212.303 4.80716 -0.215757 0
M  V30 2341 C 214.655 5.17398 -0.62835 0
M  V30 2342 C 211.983 5.74433 -1.19348 0
M  V30 2343 C 214.335 6.12167 -1.5948 0
M  V30 2344 C 212.999 6.40414 -1.88218 0
M  V30 2345 H 212.269 0.716067 0.190602 0
M  V30 2346 H 214.916 1.9026 -0.217556 0
M  V30 2347 H 213.221 3.42865 1.89606 0
M  V30 2348 H 214.918 3.67902 1.59529 0
M  V30 2349 H 211.508 4.27605 0.291855 0
M  V30 2350 H 215.692 4.94472 -0.425562 0
M  V30 2351 H 210.948 5.94616 -1.42272 0
M  V30 2352 H 215.122 6.6281 -2.13671 0
M  V30 2353 H 212.749 7.12838 -2.64133 0
M  V30 2354 N 214.325 -0.140222 1.56975 0
M  V30 2355 C 215.555 -0.865181 1.87612 0
M  V30 2356 C 215.963 -1.74942 0.72055 0
M  V30 2357 O 215.306 -1.80917 -0.318561 0
M  V30 2358 C 215.368 -1.76782 3.13031 0
M  V30 2359 C 215.032 -1.06005 4.44536 0
M  V30 2360 C 216.029 -0.410768 5.18275 0
M  V30 2361 C 213.714 -1.04754 4.91255 0
M  V30 2362 C 215.708 0.241572 6.36942 0
M  V30 2363 C 213.395 -0.391394 6.09845 0
M  V30 2364 C 214.393 0.252029 6.82535 0
M  V30 2365 O 214.081 0.897757 7.98871 0
M  V30 2366 H 213.813 -0.255188 0.625983 0
M  V30 2367 H 216.367 -0.135653 2.04952 0
M  V30 2368 H 214.597 -2.53846 2.91718 0
M  V30 2369 H 216.286 -2.36533 3.29859 0
M  V30 2370 H 217.052 -0.412195 4.83245 0
M  V30 2371 H 212.931 -1.53777 4.34596 0
M  V30 2372 H 216.475 0.744375 6.93617 0
M  V30 2373 H 212.372 -0.387656 6.44335 0
M  V30 2374 H 213.14 0.800102 8.1458 0
M  V30 2375 N 215.803 -1.52179 -0.40978 0
M  V30 2376 C 216.733 -1.78435 -1.5061 0
M  V30 2377 C 217.714 -0.635295 -1.57791 0
M  V30 2378 O 218.899 -0.880823 -1.73076 0
M  V30 2379 C 216.029 -1.93444 -2.88439 0
M  V30 2380 C 214.983 -3.09038 -2.96108 0
M  V30 2381 C 214.309 -3.09268 -4.36185 0
M  V30 2382 C 215.609 -4.48508 -2.67652 0
M  V30 2383 H 217.303 -2.70237 -1.28889 0
M  V30 2384 H 214.849 -1.30036 -0.618605 0
M  V30 2385 H 216.802 -2.10394 -3.65119 0
M  V30 2386 H 215.526 -0.983129 -3.11452 0
M  V30 2387 H 214.185 -2.91837 -2.21872 0
M  V30 2388 H 213.833 -2.11861 -4.56206 0
M  V30 2389 H 213.533 -3.86907 -4.42241 0
M  V30 2390 H 215.057 -3.28348 -5.14801 0
M  V30 2391 H 216.471 -4.65918 -3.34056 0
M  V30 2392 H 214.868 -5.28059 -2.85085 0
M  V30 2393 H 215.938 -4.56649 -1.63095 0
M  V30 2394 N 217.281 0.66697 -1.42791 0
M  V30 2395 C 218.529 1.42417 -1.43394 0
M  V30 2396 C 218.85 1.94925 -0.0542373 0
M  V30 2397 O 218.12 1.73564 0.908415 0
M  V30 2398 H 216.7 0.528515 -0.527902 0
M  V30 2399 H 219.362 0.787562 -1.78279 0
M  V30 2400 H 218.458 2.27333 -2.13837 0
M  V30 2401 N 218.759 1.29093 0.90403 0
M  V30 2402 C 219.722 1.1386 1.98919 0
M  V30 2403 C 220.722 0.0753457 1.60623 0
M  V30 2404 O 221.912 0.321931 1.71199 0
M  V30 2405 C 219.044 0.740198 3.32767 0
M  V30 2406 H 220.237 2.10246 2.13861 0
M  V30 2407 H 217.79 1.12218 1.08797 0
M  V30 2408 H 218.525 -0.223997 3.23525 0
M  V30 2409 H 218.31 1.50838 3.61926 0
M  V30 2410 H 219.8 0.656546 4.12407 0
M  V30 2411 N 220.237 -1.11381 1.11499 0
M  V30 2412 C 221.462 -1.87475 0.887019 0
M  V30 2413 C 221.887 -1.79639 -0.557796 0
M  V30 2414 O 221.245 -1.15924 -1.39396 0
M  V30 2415 C 221.293 -3.34213 1.35403 0
M  V30 2416 O 220.397 -4.0903 0.526146 0
M  V30 2417 H 219.738 -0.582099 0.319463 0
M  V30 2418 H 222.268 -1.40785 1.48461 0
M  V30 2419 H 222.278 -3.8506 1.34881 0
M  V30 2420 H 220.953 -3.39232 2.40612 0
M  V30 2421 H 219.53 -3.68082 0.597522 0
M  V30 2422 N 221.715 -0.905404 -1.28997 0
M  V30 2423 C 222.961 -0.535039 -1.95615 0
M  V30 2424 C 223.294 0.917404 -1.71165 0
M  V30 2425 O 222.569 1.65123 -1.02785 0
M  V30 2426 C 222.852 -0.834918 -3.50287 0
M  V30 2427 C 222.705 -2.33948 -3.84172 0
M  V30 2428 C 224.024 -0.325318 -4.38896 0
M  V30 2429 H 221.143 -0.195861 -0.710498 0
M  V30 2430 H 223.785 -1.13313 -1.52513 0
M  V30 2431 H 221.935 -0.325904 -3.87131 0
M  V30 2432 H 223.607 -2.91847 -3.57243 0
M  V30 2433 H 221.85 -2.79789 -3.31513 0
M  V30 2434 H 222.521 -2.49987 -4.92149 0
M  V30 2435 H 224.997 -0.761256 -4.09077 0
M  V30 2436 H 223.873 -0.564295 -5.45992 0
M  V30 2437 H 224.134 0.774144 -4.35269 0
M  V30 2438 N 223.193 1.4272 -0.668489 0
M  V30 2439 C 224.44 2.01624 -0.18814 0
M  V30 2440 C 224.768 1.5282 1.20317 0
M  V30 2441 O 224.023 0.718323 1.8204 0
M  V30 2442 C 224.322 3.57021 -0.164499 0
M  V30 2443 C 223.988 4.25232 -1.49962 0
M  V30 2444 C 222.65 4.4358 -1.8652 0
M  V30 2445 C 225.002 4.63727 -2.37921 0
M  V30 2446 C 222.33 4.97694 -3.10674 0
M  V30 2447 C 224.682 5.19218 -3.6138 0
M  V30 2448 C 223.346 5.3578 -3.98115 0
M  V30 2449 H 222.616 0.737795 -0.0688454 0
M  V30 2450 H 225.263 1.70991 -0.862225 0
M  V30 2451 H 223.568 3.87285 0.593079 0
M  V30 2452 H 225.265 4.00372 0.224271 0
M  V30 2453 H 221.855 4.11306 -1.20522 0
M  V30 2454 H 226.039 4.4923 -2.10964 0
M  V30 2455 H 221.295 5.08702 -3.39164 0
M  V30 2456 H 225.469 5.4799 -4.29743 0
M  V30 2457 H 223.096 5.77475 -4.94395 0
M  V30 2458 N 224.671 0.411399 1.52136 0
M  V30 2459 C 225.917 -0.163888 2.02137 0
M  V30 2460 C 226.25 -1.44597 1.29636 0
M  V30 2461 O 225.525 -1.90272 0.403353 0
M  V30 2462 C 225.808 -0.40927 3.57767 0
M  V30 2463 C 225.661 0.889643 4.40914 0
M  V30 2464 C 226.98 -1.19042 4.23694 0
M  V30 2465 H 224.099 -0.0580896 0.734707 0
M  V30 2466 H 226.741 0.54531 1.82007 0
M  V30 2467 H 224.891 -1.0134 3.7505 0
M  V30 2468 H 226.563 1.52575 4.35337 0
M  V30 2469 H 224.806 1.50011 4.07037 0
M  V30 2470 H 225.477 0.672314 5.4789 0
M  V30 2471 H 227.953 -0.678942 4.10524 0
M  V30 2472 H 226.829 -1.33086 5.32522 0
M  V30 2473 H 227.09 -2.21166 3.82803 0
M  V30 2474 N 226.149 -1.5696 0.141893 0
M  V30 2475 C 227.079 -2.19516 -0.795936 0
M  V30 2476 C 228.06 -1.14187 -1.26077 0
M  V30 2477 O 229.245 -1.42511 -1.31925 0
M  V30 2478 C 226.375 -2.81272 -2.03723 0
M  V30 2479 C 225.329 -3.92384 -1.70936 0
M  V30 2480 C 224.655 -4.41052 -3.02287 0
M  V30 2481 C 225.955 -5.13403 -0.959954 0
M  V30 2482 H 227.649 -2.98138 -0.274596 0
M  V30 2483 H 225.195 -1.43406 -0.130636 0
M  V30 2484 H 227.148 -3.237 -2.69808 0
M  V30 2485 H 225.872 -1.99973 -2.58221 0
M  V30 2486 H 224.531 -3.50566 -1.07232 0
M  V30 2487 H 224.179 -3.56582 -3.54765 0
M  V30 2488 H 223.879 -5.15993 -2.81114 0
M  V30 2489 H 225.403 -4.86146 -3.69451 0
M  V30 2490 H 226.817 -5.52706 -1.52279 0
M  V30 2491 H 225.214 -5.94073 -0.848357 0
M  V30 2492 H 226.284 -4.84875 0.0492434 0
M  V30 2493 N 227.627 0.131896 -1.57047 0
M  V30 2494 C 228.852 0.860418 -1.8871 0
M  V30 2495 C 229.277 1.73251 -0.73251 0
M  V30 2496 O 228.635 1.785 0.317429 0
M  V30 2497 C 228.683 1.68047 -3.19049 0
M  V30 2498 O 227.787 2.7862 -3.04047 0
M  V30 2499 H 227.128 0.238743 -0.619595 0
M  V30 2500 H 229.658 0.118169 -2.04258 0
M  V30 2501 H 229.668 2.07238 -3.51449 0
M  V30 2502 H 228.343 1.04018 -4.02682 0
M  V30 2503 H 226.92 2.42726 -2.83088 0
M  V30 2504 N 229.106 1.52395 0.401703 0
M  V30 2505 C 230.334 1.70676 1.16949 0
M  V30 2506 C 230.749 0.419503 1.8408 0
M  V30 2507 O 230.106 -0.605061 1.72178 0
M  V30 2508 C 230.157 2.84753 2.22706 0
M  V30 2509 O 229.878 4.08495 1.58314 0
M  V30 2510 C 231.379 3.14608 3.12309 0
M  V30 2511 H 228.599 0.571787 0.351142 0
M  V30 2512 H 231.143 1.98987 0.471652 0
M  V30 2513 H 229.298 2.58941 2.88147 0
M  V30 2514 H 229.712 4.72117 2.28485 0
M  V30 2515 H 231.186 3.97923 3.82572 0
M  V30 2516 H 231.663 2.28464 3.75101 0
M  V30 2517 H 232.269 3.42212 2.52529 0
M  V30 2518 N 230.584 -0.659388 1.43143 0
M  V30 2519 C 231.83 -1.41984 1.45644 0
M  V30 2520 C 232.185 -1.92245 0.0771718 0
M  V30 2521 O 231.478 -1.68976 -0.903205 0
M  V30 2522 C 231.672 -2.62206 2.42864 0
M  V30 2523 C 231.501 -2.23711 3.90107 0
M  V30 2524 C 230.271 -2.12332 4.58523 0
M  V30 2525 C 232.469 -1.84384 4.80112 0
M  V30 2526 N 230.451 -1.67102 5.9072 0
M  V30 2527 C 231.822 -1.5019 6.01534 0
M  V30 2528 C 233.877 -1.71512 4.67427 0
M  V30 2529 C 232.58 -1.04414 7.11681 0
M  V30 2530 C 234.606 -1.27142 5.77572 0
M  V30 2531 C 233.968 -0.938808 6.98116 0
M  V30 2532 H 230.067 -0.515448 0.588079 0
M  V30 2533 H 232.651 -0.759409 1.79279 0
M  V30 2534 H 230.822 -3.25917 2.11265 0
M  V30 2535 H 232.554 -3.28877 2.35843 0
M  V30 2536 H 229.309 -2.31893 4.12944 0
M  V30 2537 H 229.733 -1.46866 6.60878 0
M  V30 2538 H 234.375 -1.95868 3.74694 0
M  V30 2539 H 232.093 -0.788061 8.04248 0
M  V30 2540 H 235.679 -1.17681 5.69774 0
M  V30 2541 H 234.559 -0.6007 7.81896 0
M  V30 2542 N 232.062 -1.29571 -0.897171 0
M  V30 2543 C 233.308 -1.17863 -1.65034 0
M  V30 2544 C 233.641 0.268729 -1.92332 0
M  V30 2545 O 232.916 1.19378 -1.53555 0
M  V30 2546 C 233.199 -1.995 -2.99786 0
M  V30 2547 C 233.052 -3.5239 -2.79538 0
M  V30 2548 C 234.371 -1.82335 -4.00552 0
M  V30 2549 H 231.49 -0.429528 -0.598895 0
M  V30 2550 H 234.132 -1.59072 -1.03905 0
M  V30 2551 H 232.282 -1.64485 -3.51962 0
M  V30 2552 H 233.954 -3.97401 -2.34244 0
M  V30 2553 H 232.197 -3.77187 -2.14273 0
M  V30 2554 H 232.868 -4.04787 -3.75302 0
M  V30 2555 H 235.344 -2.12924 -3.57495 0
M  V30 2556 H 234.22 -2.41801 -4.92771 0
M  V30 2557 H 234.481 -0.779209 -4.35179 0
M  V30 2558 N 233.54 1.10788 -1.12088 0
M  V30 2559 C 234.765 1.87002 -0.896949 0
M  V30 2560 C 235.19 1.79933 0.548261 0
M  V30 2561 O 234.548 1.16662 1.38779 0
M  V30 2562 C 234.596 3.3349 -1.37174 0
M  V30 2563 O 233.7 4.08745 -0.547831 0
M  V30 2564 H 233.041 0.580397 -0.322545 0
M  V30 2565 H 235.571 1.39996 -1.49206 0
M  V30 2566 H 235.581 3.84339 -1.36922 0
M  V30 2567 H 234.256 3.37951 -2.42408 0
M  V30 2568 H 232.833 3.6776 -0.617034 0
M  V30 2569 N 235.018 0.912232 1.28515 0
M  V30 2570 C 236.267 0.540504 1.94323 0
M  V30 2571 C 236.58 -0.920044 1.72611 0
M  V30 2572 O 237.786 -1.39986 2.32629 0
M  V30 2573 C 236.242 0.915803 3.48053 0
M  V30 2574 C 235.85 2.39598 3.78546 0
M  V30 2575 C 237.594 0.614588 4.20027 0
M  V30 2576 C 235.501 2.71148 5.25578 0
M  V30 2577 H 234.431 0.198418 0.727424 0
M  V30 2578 H 237.082 1.11094 1.46049 0
M  V30 2579 H 235.464 0.274168 3.9505 0
M  V30 2580 H 236.638 3.08422 3.42364 0
M  V30 2581 H 234.953 2.66749 3.1974 0
M  V30 2582 H 237.55 0.827002 5.28266 0
M  V30 2583 H 237.893 -0.447531 4.13887 0
M  V30 2584 H 238.426 1.21462 3.78803 0
M  V30 2585 H 235.165 3.76207 5.36794 0
M  V30 2586 H 234.685 2.0696 5.62963 0
M  V30 2587 H 236.364 2.58072 5.93302 0
M  V30 2588 N 236.496 -1.42363 0.676048 0
M  V30 2589 C 237.726 -2.05561 0.206967 0
M  V30 2590 C 238.134 -1.50887 -1.14148 0
M  V30 2591 O 237.477 -0.643933 -1.72044 0
M  V30 2592 C 237.539 -3.5944 0.0659508 0
M  V30 2593 C 237.203 -4.36812 1.34331 0
M  V30 2594 C 238.2 -4.67383 2.27704 0
M  V30 2595 C 235.885 -4.76429 1.59125 0
M  V30 2596 C 237.879 -5.36509 3.44147 0
M  V30 2597 C 235.566 -5.45294 2.75857 0
M  V30 2598 C 236.564 -5.75259 3.68193 0
M  V30 2599 O 236.252 -6.42712 4.82883 0
M  V30 2600 H 235.984 -0.668872 0.0979084 0
M  V30 2601 H 238.538 -1.83467 0.923531 0
M  V30 2602 H 236.768 -3.80197 -0.706204 0
M  V30 2603 H 238.457 -4.0427 -0.363418 0
M  V30 2604 H 239.223 -4.37275 2.09799 0
M  V30 2605 H 235.102 -4.52498 0.881258 0
M  V30 2606 H 238.646 -5.59814 4.16238 0
M  V30 2607 H 234.543 -5.7482 2.93688 0
M  V30 2608 H 235.311 -6.61204 4.82444 0
M  V30 2609 N 237.974 -0.419461 -1.51915 0
M  V30 2610 C 239.223 0.154346 -2.01109 0
M  V30 2611 C 239.536 1.45338 -1.30905 0
M  V30 2612 O 240.742 2.10906 -1.7097 0
M  V30 2613 C 239.198 0.325615 -3.58424 0
M  V30 2614 C 238.806 -0.961934 -4.37551 0
M  V30 2615 C 240.55 0.854155 -4.15818 0
M  V30 2616 C 238.457 -0.757287 -5.86531 0
M  V30 2617 H 237.387 0.0614563 -0.751491 0
M  V30 2618 H 240.038 -0.54649 -1.75173 0
M  V30 2619 H 238.42 1.08903 -3.80731 0
M  V30 2620 H 239.594 -1.7323 -4.26999 0
M  V30 2621 H 237.909 -1.41766 -3.91524 0
M  V30 2622 H 240.506 1.02346 -5.24814 0
M  V30 2623 H 240.849 1.83172 -3.73837 0
M  V30 2624 H 241.382 0.149528 -3.97519 0
M  V30 2625 H 238.121 -1.70671 -6.32892 0
M  V30 2626 H 237.641 -0.0264061 -5.99794 0
M  V30 2627 H 239.32 -0.403482 -6.45741 0
M  V30 2628 N 239.452 1.56882 -0.150215 0
M  V30 2629 C 240.698 1.96518 0.500834 0
M  V30 2630 C 241.031 1.03527 1.64304 0
M  V30 2631 O 240.306 0.0782751 1.94342 0
M  V30 2632 C 240.589 3.45822 1.00395 0
M  V30 2633 C 240.442 4.49591 -0.136983 0
M  V30 2634 C 241.761 3.97704 1.88467 0
M  V30 2635 H 238.88 0.714535 0.18058 0
M  V30 2636 H 241.522 1.88577 -0.232091 0
M  V30 2637 H 239.672 3.5272 1.62851 0
M  V30 2638 H 241.344 4.5477 -0.77343 0
M  V30 2639 H 239.587 4.26441 -0.795652 0
M  V30 2640 H 240.258 5.51402 0.256815 0
M  V30 2641 H 242.734 3.93304 1.35834 0
M  V30 2642 H 241.61 5.0263 2.20578 0
M  V30 2643 H 241.871 3.40252 2.82279 0
M  V30 2644 N 240.93 -0.123565 1.57115 0
M  V30 2645 C 241.86 -1.15309 2.03042 0
M  V30 2646 C 242.841 -1.43454 0.914061 0
M  V30 2647 O 244.026 -1.53973 1.18347 0
M  V30 2648 C 241.156 -2.48043 2.43089 0
M  V30 2649 C 240.11 -2.3437 3.58127 0
M  V30 2650 C 239.436 -3.72026 3.84059 0
M  V30 2651 C 240.736 -1.80804 4.90007 0
M  V30 2652 H 242.43 -0.771102 2.893 0
M  V30 2653 H 239.976 -0.369479 1.39179 0
M  V30 2654 H 241.929 -3.20311 2.73823 0
M  V30 2655 H 240.653 -2.88122 1.53796 0
M  V30 2656 H 239.312 -1.64551 3.27595 0
M  V30 2657 H 238.96 -4.09582 2.91979 0
M  V30 2658 H 238.66 -3.63732 4.6149 0
M  V30 2659 H 240.184 -4.45806 4.1724 0
M  V30 2660 H 241.598 -2.42886 5.19307 0
M  V30 2661 H 239.995 -1.83343 5.71407 0
M  V30 2662 H 241.065 -0.76528 4.78823 0
M  V30 2663 N 242.408 -1.52605 -0.393616 0
M  V30 2664 C 243.685 -1.58001 -1.15304 0
M  V30 2665 C 244.065 -0.370385 -2.07825 0
M  V30 2666 O 243.413 0.641638 -2.19306 0
M  V30 2667 C 243.623 -2.91652 -1.91677 0
M  V30 2668 C 244.971 -3.4522 -2.47201 0
M  V30 2669 O 245.995 -2.93495 -2.01839 0
M  V30 2670 O 244.854 -4.35579 -3.3005 0
M  V30 2671 H 241.948 -0.637068 -0.527327 0
M  V30 2672 H 244.494 -1.64939 -0.399141 0
M  V30 2673 H 243.266 -3.71136 -1.23992 0
M  V30 2674 H 242.889 -2.88077 -2.74039 0
M  V30 2675 N 243.887 0.651787 -1.4349 0
M  V30 2676 C 244.817 1.77621 -1.51569 0
M  V30 2677 C 245.798 1.66022 -0.370253 0
M  V30 2678 O 246.983 1.85095 -0.587658 0
M  V30 2679 C 244.113 3.16056 -1.43966 0
M  V30 2680 C 243.067 3.4242 -2.56774 0
M  V30 2681 C 242.393 4.8067 -2.34223 0
M  V30 2682 C 243.693 3.37023 -3.99015 0
M  V30 2683 H 245.387 1.71117 -2.45681 0
M  V30 2684 H 242.933 0.821825 -1.18246 0
M  V30 2685 H 244.886 3.94472 -1.48221 0
M  V30 2686 H 243.61 3.23293 -0.463586 0
M  V30 2687 H 242.269 2.66375 -2.51873 0
M  V30 2688 H 241.917 4.84585 -1.34856 0
M  V30 2689 H 241.617 4.9927 -3.09844 0
M  V30 2690 H 243.141 5.61342 -2.40265 0
M  V30 2691 H 244.555 4.05374 -4.05395 0
M  V30 2692 H 242.952 3.67159 -4.74673 0
M  V30 2693 H 244.022 2.3518 -4.2405 0
M  V30 2694 N 245.365 1.30045 0.890287 0
M  V30 2695 C 246.611 1.19747 1.64415 0
M  V30 2696 C 246.966 -0.246591 1.90813 0
M  V30 2697 O 246.259 -1.174 1.51419 0
M  V30 2698 C 246.453 1.95409 2.99249 0
M  V30 2699 C 246.282 3.47025 2.86013 0
M  V30 2700 C 245.052 4.1638 2.86279 0
M  V30 2701 C 247.25 4.42353 2.62351 0
M  V30 2702 N 245.232 5.54293 2.63879 0
M  V30 2703 C 246.603 5.67792 2.49022 0
M  V30 2704 C 248.658 4.32009 2.47533 0
M  V30 2705 C 247.361 6.8406 2.22383 0
M  V30 2706 C 249.387 5.48038 2.22279 0
M  V30 2707 C 248.749 6.72455 2.09722 0
M  V30 2708 H 244.848 0.493223 0.60684 0
M  V30 2709 H 247.432 1.6399 1.04954 0
M  V30 2710 H 245.603 1.53565 3.56752 0
M  V30 2711 H 247.335 1.77298 3.63796 0
M  V30 2712 H 244.09 3.68164 2.97913 0
M  V30 2713 H 244.514 6.26852 2.55706 0
M  V30 2714 H 249.156 3.36503 2.55979 0
M  V30 2715 H 246.874 7.79612 2.12675 0
M  V30 2716 H 250.46 5.41939 2.11643 0
M  V30 2717 H 249.34 7.60722 1.90453 0
M  V30 2718 N 246.843 -1.10192 1.12674 0
M  V30 2719 C 248.259 -1.34235 0.863317 0
M  V30 2720 C 248.459 -1.95062 -0.505277 0
M  V30 2721 O 247.515 -2.19192 -1.25345 0
M  V30 2722 C 248.828 -2.2616 1.98172 0
M  V30 2723 C 250.376 -2.3969 2.0129 0
M  V30 2724 C 250.851 -3.34946 3.1237 0
M  V30 2725 N 252.342 -3.42515 3.11829 0
M  V30 2726 C 253.077 -4.16199 3.94419 0
M  V30 2727 N 252.573 -4.92747 4.87004 0
M  V30 2728 N 254.366 -4.11843 3.82547 0
M  V30 2729 H 246.517 -0.690798 2.00853 0
M  V30 2730 H 248.78 -0.366774 0.874174 0
M  V30 2731 H 248.486 -1.8868 2.96804 0
M  V30 2732 H 248.36 -3.26488 1.88906 0
M  V30 2733 H 250.747 -2.76438 1.03276 0
M  V30 2734 H 250.828 -1.39169 2.14629 0
M  V30 2735 H 250.472 -2.98923 4.10619 0
M  V30 2736 H 250.402 -4.35353 2.96269 0
M  V30 2737 H 252.893 -2.87926 2.44759 0
M  V30 2738 H 253.206 -5.46376 5.46528 0
M  V30 2739 H 251.551 -4.91862 4.91016 0
M  V30 2740 H 254.742 -3.51136 3.0955 0
M  V30 2741 H 254.915 -4.69007 4.47142 0
M  V30 2742 N 248.321 -0.919034 -1.28029 0
M  V30 2743 C 249.737 -0.617972 -1.4715 0
M  V30 2744 C 249.937 0.835242 -1.83374 0
M  V30 2745 O 248.993 1.61388 -1.94191 0
M  V30 2746 C 250.306 -1.56041 -2.57044 0
M  V30 2747 C 251.854 -1.56769 -2.7091 0
M  V30 2748 C 252.329 -2.49688 -3.83953 0
M  V30 2749 N 253.82 -2.47845 -3.91314 0
M  V30 2750 C 254.555 -3.16437 -4.78179 0
M  V30 2751 N 254.051 -3.94376 -5.69596 0
M  V30 2752 N 255.844 -3.05498 -4.71834 0
M  V30 2753 H 247.995 -1.85866 -1.02798 0
M  V30 2754 H 250.258 -0.797506 -0.512531 0
M  V30 2755 H 249.964 -2.59671 -2.372 0
M  V30 2756 H 249.838 -1.29551 -3.54255 0
M  V30 2757 H 252.225 -0.538745 -2.90141 0
M  V30 2758 H 252.306 -1.87305 -1.74214 0
M  V30 2759 H 251.95 -3.52688 -3.65477 0
M  V30 2760 H 251.88 -2.16453 -4.80058 0
M  V30 2761 H 254.371 -1.91234 -3.25941 0
M  V30 2762 H 254.684 -4.43721 -6.32718 0
M  V30 2763 H 253.029 -3.98481 -5.69419 0
M  V30 2764 H 256.22 -2.44108 -3.99411 0
M  V30 2765 H 256.393 -3.59225 -5.39316 0
M  V30 2766 N 249.799 1.42003 -0.683588 0
M  V30 2767 C 251.045 2.02223 -0.218536 0
M  V30 2768 C 251.4 1.53126 1.16492 0
M  V30 2769 O 250.693 0.727459 1.77253 0
M  V30 2770 C 250.887 3.56827 -0.202357 0
M  V30 2771 C 250.716 4.20928 -1.5827 0
M  V30 2772 C 249.486 4.5573 -2.18262 0
M  V30 2773 C 251.684 4.47933 -2.52706 0
M  V30 2774 N 249.666 5.05056 -3.48986 0
M  V30 2775 C 251.037 4.98906 -3.68094 0
M  V30 2776 C 253.092 4.29931 -2.51125 0
M  V30 2777 C 251.795 5.33768 -4.82166 0
M  V30 2778 C 253.821 4.65875 -3.643 0
M  V30 2779 C 253.183 5.17008 -4.78417 0
M  V30 2780 H 249.282 0.771931 -0.125088 0
M  V30 2781 H 251.866 1.72729 -0.898479 0
M  V30 2782 H 250.037 3.85819 0.447029 0
M  V30 2783 H 251.769 4.03755 0.276399 0
M  V30 2784 H 248.524 4.41781 -1.70665 0
M  V30 2785 H 248.948 5.34139 -4.15962 0
M  V30 2786 H 253.59 3.89647 -1.6412 0
M  V30 2787 H 251.308 5.72981 -5.6984 0
M  V30 2788 H 254.894 4.53615 -3.64314 0
M  V30 2789 H 253.774 5.44301 -5.64541 0
M  V30 2790 N 251.277 0.427512 1.51691 0
M  V30 2791 C 252.224 -0.388867 2.275 0
M  V30 2792 C 253.194 -1.02532 1.30677 0
M  V30 2793 O 254.379 -1.0461 1.59566 0
M  V30 2794 C 251.519 -1.48954 3.11298 0
M  V30 2795 C 250.632 -0.872194 4.23104 0
M  V30 2796 C 249.767 -1.94709 4.94228 0
M  V30 2797 C 248.806 -1.30766 5.97969 0
M  V30 2798 N 247.943 -2.32349 6.62539 0
M  V30 2799 H 252.783 0.263997 2.96828 0
M  V30 2800 H 250.32 0.142033 1.46413 0
M  V30 2801 H 252.278 -2.13887 3.58201 0
M  V30 2802 H 250.908 -2.11217 2.44105 0
M  V30 2803 H 249.96 -0.111419 3.80237 0
M  V30 2804 H 251.272 -0.365264 4.97461 0
M  V30 2805 H 250.426 -2.67327 5.44629 0
M  V30 2806 H 249.165 -2.48773 4.1948 0
M  V30 2807 H 248.17 -0.566902 5.4687 0
M  V30 2808 H 249.395 -0.774483 6.74669 0
M  V30 2809 H 247.341 -2.85511 5.90609 0
M  V30 2810 H 247.258 -1.8652 7.3263 0
M  V30 2811 H 248.526 -3.04481 7.17574 0
M  V30 2812 N 252.755 -1.56801 0.158532 0
M  V30 2813 C 253.718 -2.16138 -0.762705 0
M  V30 2814 C 254.718 -1.1061 -1.16713 0
M  V30 2815 O 255.908 -1.36191 -1.08617 0
M  V30 2816 C 253.04 -2.73386 -2.03649 0
M  V30 2817 H 254.233 -2.98886 -0.246354 0
M  V30 2818 H 251.786 -1.56035 -0.0909744 0
M  V30 2819 H 252.521 -1.94335 -2.59623 0
M  V30 2820 H 252.306 -3.50601 -1.75559 0
M  V30 2821 H 253.796 -3.19065 -2.6942 0
M  V30 2822 N 254.233 0.115231 -1.57178 0
M  V30 2823 C 255.196 1.12526 -1.99676 0
M  V30 2824 C 256.196 1.34095 -0.88742 0
M  V30 2825 O 257.386 1.30548 -1.15337 0
M  V30 2826 C 254.518 2.4789 -2.34015 0
M  V30 2827 H 255.711 0.759912 -2.90113 0
M  V30 2828 H 253.264 0.359648 -1.52106 0
M  V30 2829 H 253.999 2.89339 -1.4647 0
M  V30 2830 H 253.784 2.33588 -3.14927 0
M  V30 2831 H 255.274 3.20575 -2.67622 0
M  V30 2832 N 255.711 1.52812 0.385517 0
M  V30 2833 C 256.659 1.78482 1.49155 0
M  V30 2834 C 257.653 0.652914 1.56312 0
M  V30 2835 O 258.859 0.835464 1.59436 0
M  V30 2836 H 255.234 0.5648 0.496493 0
M  V30 2837 H 257.205 2.71095 1.24699 0
M  V30 2838 C 255.954 1.97378 2.86247 0
M  V30 2839 H 255.277 2.83907 2.81491 0
M  V30 2840 H 256.717 2.19327 3.62866 0
M  V30 2841 C 255.176 0.74728 3.28508 0
M  V30 2842 O 255.706 -0.0736232 4.01633 0
M  V30 2843 N 253.912 0.576396 2.84826 0
M  V30 2844 H 253.459 1.24555 2.25486 0
M  V30 2845 H 253.417 -0.24288 3.1346 0
M  V30 2846 N 257.189 -0.644168 1.43834 0
M  V30 2847 C 258.6 -1.22554 1.40845 0
M  V30 2848 C 258.951 -1.9585 0.117115 0
M  V30 2849 O 258.076 -2.01734 -0.783086 0
M  V30 2850 C 258.671 -2.22907 2.55143 0
M  V30 2851 C 257.23 -2.76501 2.5539 0
M  V30 2852 C 256.377 -1.51287 2.32396 0
M  V30 2853 H 259.328 -0.43563 1.52604 0
M  V30 2854 H 259.349 -3.05259 2.2715 0
M  V30 2855 H 258.861 -1.69533 3.49114 0
M  V30 2856 H 256.962 -3.33914 1.65324 0
M  V30 2857 H 257.075 -3.23429 3.53455 0
M  V30 2858 H 255.439 -1.78957 1.81236 0
M  V30 2859 H 256.222 -0.998336 3.28463 0
M  V30 2860 N 258.668 -1.30515 -0.883378 0
M  V30 2861 C 259.916 -1.19194 -1.63209 0
M  V30 2862 C 260.237 0.253205 -1.93349 0
M  V30 2863 O 259.507 1.17025 -1.57105 0
M  V30 2864 H 258.087 -0.438148 -0.605009 0
M  V30 2865 H 260.749 -1.63663 -1.05832 0
M  V30 2866 H 259.845 -1.75396 -2.58153 0
M  V30 2867 N 260.146 1.09593 -1.13257 0
M  V30 2868 C 261.093 2.1618 -0.808381 0
M  V30 2869 C 262.063 1.64517 0.228754 0
M  V30 2870 O 263.248 1.9053 0.101381 0
M  V30 2871 C 260.388 3.43973 -0.278675 0
M  V30 2872 C 259.501 4.09545 -1.37466 0
M  V30 2873 C 258.636 5.25088 -0.803479 0
M  V30 2874 C 257.675 5.82579 -1.87799 0
M  V30 2875 N 256.812 6.89486 -1.32488 0
M  V30 2876 H 261.652 2.43254 -1.72138 0
M  V30 2877 H 259.189 1.19392 -0.859294 0
M  V30 2878 H 261.147 4.17174 0.0465583 0
M  V30 2879 H 259.777 3.17223 0.597459 0
M  V30 2880 H 258.829 3.34226 -1.81652 0
M  V30 2881 H 260.141 4.48307 -2.18684 0
M  V30 2882 H 259.295 6.05178 -0.429427 0
M  V30 2883 H 258.034 4.87684 0.0397956 0
M  V30 2884 H 257.039 5.01152 -2.26113 0
M  V30 2885 H 258.264 6.22045 -2.72463 0
M  V30 2886 H 256.21 6.54064 -0.503575 0
M  V30 2887 H 256.127 7.27007 -2.07355 0
M  V30 2888 H 257.395 7.73336 -0.978336 0
M  V30 2889 N 261.624 0.925811 1.2754 0
M  V30 2890 C 262.87 0.566092 1.94739 0
M  V30 2891 C 263.203 -0.890057 1.72603 0
M  V30 2892 O 262.478 -1.63467 1.05399 0
M  V30 2893 C 262.761 0.89054 3.48915 0
M  V30 2894 C 262.614 2.4003 3.80402 0
M  V30 2895 C 263.933 0.395101 4.38323 0
M  V30 2896 H 261.052 0.20714 0.707292 0
M  V30 2897 H 263.694 1.15725 1.50691 0
M  V30 2898 H 261.844 0.387452 3.86563 0
M  V30 2899 H 263.516 2.97494 3.52555 0
M  V30 2900 H 261.759 2.85028 3.2702 0
M  V30 2901 H 262.43 2.57785 4.8811 0
M  V30 2902 H 264.906 0.826241 4.07814 0
M  V30 2903 H 263.782 0.651086 5.45025 0
M  V30 2904 H 264.043 -0.704798 4.36446 0
M  V30 2905 N 263.102 -1.41638 0.69111 0
M  V30 2906 C 264.33 -2.05628 0.22909 0
M  V30 2907 C 264.745 -1.51992 -1.11999 0
M  V30 2908 O 264.102 -0.666322 -1.69901 0
M  V30 2909 C 264.153 -3.61084 0.173283 0
M  V30 2910 O 263.874 -4.12735 1.46907 0
M  V30 2911 C 265.375 -4.42213 -0.310266 0
M  V30 2912 H 262.595 -0.662327 0.107534 0
M  V30 2913 H 265.139 -1.81489 0.942438 0
M  V30 2914 H 263.294 -3.84278 -0.490858 0
M  V30 2915 H 263.708 -5.06743 1.35322 0
M  V30 2916 H 265.182 -5.51194 -0.298196 0
M  V30 2917 H 265.659 -4.1799 -1.34838 0
M  V30 2918 H 266.265 -4.24074 0.322716 0
M  V30 2919 N 264.58 -0.43555 -1.51462 0
M  V30 2920 C 265.991 0.0279871 -1.86679 0
M  V30 2921 C 266.342 1.42104 -1.35281 0
M  V30 2922 O 265.467 2.04667 -0.702878 0
M  V30 2923 C 266.062 0.0575626 -3.38751 0
M  V30 2924 C 264.621 0.465507 -3.7351 0
M  V30 2925 C 263.768 -0.342996 -2.75171 0
M  V30 2926 H 266.719 -0.651473 -1.44712 0
M  V30 2927 H 266.74 0.867421 -3.70481 0
M  V30 2928 H 266.252 -0.956448 -3.7613 0
M  V30 2929 H 264.353 1.48519 -3.41721 0
M  V30 2930 H 264.466 0.191546 -4.78717 0
M  V30 2931 H 262.83 0.198442 -2.53926 0
M  V30 2932 H 263.613 -1.35585 -3.15391 0
M  V30 2933 N 266.058 1.56714 -0.166846 0
M  V30 2934 C 266.988 2.20754 0.760913 0
M  V30 2935 C 267.969 1.16178 1.24244 0
M  V30 2936 O 269.154 1.44592 1.29641 0
M  V30 2937 C 266.284 2.84478 1.99223 0
M  V30 2938 C 265.238 3.95053 1.64672 0
M  V30 2939 C 264.564 4.45805 2.95232 0
M  V30 2940 C 265.864 5.14865 0.878155 0
M  V30 2941 H 267.558 2.98537 0.22713 0
M  V30 2942 H 265.104 1.43596 0.107805 0
M  V30 2943 H 267.057 3.27951 2.64624 0
M  V30 2944 H 265.781 2.04056 2.55007 0
M  V30 2945 H 264.44 3.52228 1.01641 0
M  V30 2946 H 264.088 3.62181 3.49047 0
M  V30 2947 H 263.788 5.204 2.7287 0
M  V30 2948 H 265.312 4.91962 3.6167 0
M  V30 2949 H 266.726 5.55059 1.43466 0
M  V30 2950 H 265.123 5.95348 0.753738 0
M  V30 2951 H 266.193 4.84735 -0.126377 0
M  V30 2952 N 267.536 -0.106894 1.57237 0
M  V30 2953 C 268.782 -0.81373 1.85759 0
M  V30 2954 C 269.115 -1.78952 0.754315 0
M  V30 2955 O 268.39 -1.93029 -0.23879 0
M  V30 2956 C 268.673 -1.55293 3.24894 0
M  V30 2957 C 268.526 -0.595929 4.45835 0
M  V30 2958 C 269.845 -2.5063 3.61763 0
M  V30 2959 H 266.964 -0.294369 0.67566 0
M  V30 2960 H 269.606 -0.0776472 1.89841 0
M  V30 2961 H 267.756 -2.1804 3.21544 0
M  V30 2962 H 269.428 0.0236262 4.61294 0
M  V30 2963 H 267.671 0.0916191 4.33703 0
M  V30 2964 H 268.342 -1.15004 5.39887 0
M  V30 2965 H 270.818 -1.97982 3.65981 0
M  V30 2966 H 269.694 -2.99376 4.60071 0
M  V30 2967 H 269.955 -3.3385 2.89821 0
M  V30 2968 N 269.014 -1.53014 -0.377408 0
M  V30 2969 C 270.242 -1.72515 -1.14219 0
M  V30 2970 C 270.657 -0.448735 -1.8339 0
M  V30 2971 O 270.014 0.577592 -1.73119 0
M  V30 2972 C 270.065 -2.8826 -2.18148 0
M  V30 2973 O 269.786 -4.10962 -1.51795 0
M  V30 2974 C 271.287 -3.19536 -3.07264 0
M  V30 2975 H 268.507 -0.577301 -0.342001 0
M  V30 2976 H 271.051 -1.99712 -0.439935 0
M  V30 2977 H 269.206 -2.63492 -2.83991 0
M  V30 2978 H 269.62 -4.75693 -2.20945 0
M  V30 2979 H 271.094 -4.03959 -3.76193 0
M  V30 2980 H 271.571 -2.34403 -3.71419 0
M  V30 2981 H 272.177 -3.46186 -2.47053 0
M  V30 2982 N 270.492 0.636531 -1.44174 0
M  V30 2983 C 271.722 1.42146 -1.49927 0
M  V30 2984 C 272.13 1.88812 -0.121063 0
M  V30 2985 O 271.473 1.61126 0.882267 0
M  V30 2986 C 271.535 2.67883 -2.39748 0
M  V30 2987 C 271.199 2.43048 -3.8701 0
M  V30 2988 C 272.196 2.05216 -4.77684 0
M  V30 2989 C 269.881 2.56856 -4.3166 0
M  V30 2990 C 271.875 1.81512 -6.11009 0
M  V30 2991 C 269.562 2.32766 -5.65034 0
M  V30 2992 C 270.56 1.95152 -6.54526 0
M  V30 2993 O 270.248 1.71326 -7.85431 0
M  V30 2994 H 269.98 0.442567 -0.51099 0
M  V30 2995 H 272.534 0.786158 -1.8976 0
M  V30 2996 H 270.764 3.34032 -1.94832 0
M  V30 2997 H 272.453 3.29874 -2.36513 0
M  V30 2998 H 273.219 1.94111 -4.44462 0
M  V30 2999 H 269.098 2.85104 -3.62266 0
M  V30 3000 H 272.642 1.52077 -6.80822 0
M  V30 3001 H 268.539 2.43479 -5.97819 0
M  V30 3002 H 269.307 1.85616 -7.97176 0
M  V30 3003 N 271.97 1.30982 0.876444 0
M  V30 3004 C 272.903 1.12414 1.98591 0
M  V30 3005 C 273.881 0.0294078 1.62573 0
M  V30 3006 O 275.065 0.184598 1.87594 0
M  V30 3007 C 272.192 0.716276 3.3104 0
M  V30 3008 C 271.238 1.81311 3.86042 0
M  V30 3009 S 272.071 3.41727 4.1229 0
M  V30 3010 C 273.227 3.02863 5.47745 0
M  V30 3011 H 273.46 2.06338 2.14037 0
M  V30 3012 H 270.993 1.15393 1.02586 0
M  V30 3013 H 272.951 0.487697 4.07593 0
M  V30 3014 H 271.612 -0.203749 3.13438 0
M  V30 3015 H 270.805 1.48021 4.81774 0
M  V30 3016 H 270.407 1.99641 3.16259 0
M  V30 3017 H 272.699 2.51353 6.29148 0
M  V30 3018 H 273.642 3.97533 5.8598 0
M  V30 3019 H 274.05 2.40487 5.10711 0
M  V30 3020 N 273.449 -1.08991 1.13837 0
M  V30 3021 C 274.412 -2.13925 0.822715 0
M  V30 3022 C 275.412 -1.599 -0.1699 0
M  V30 3023 O 276.602 -1.74104 0.0577251 0
M  V30 3024 C 273.734 -3.40155 0.225318 0
M  V30 3025 H 274.927 -2.43358 1.75262 0
M  V30 3026 H 272.48 -1.24603 0.943594 0
M  V30 3027 H 273.215 -3.16352 -0.713594 0
M  V30 3028 H 273 -3.80661 0.940193 0
M  V30 3029 H 274.49 -4.17594 0.0214784 0
M  V30 3030 N 274.927 -0.932562 -1.27047 0
M  V30 3031 C 276.173 -0.576412 -1.94436 0
M  V30 3032 C 276.506 0.880891 -1.73072 0
M  V30 3033 O 275.781 1.62905 -1.06264 0
M  V30 3034 C 276.064 -0.909031 -3.48437 0
M  V30 3035 C 275.917 -2.42044 -3.79123 0
M  V30 3036 C 277.236 -0.418341 -4.38107 0
M  V30 3037 H 274.355 -0.210888 -0.706184 0
M  V30 3038 H 276.997 -1.16522 -1.50075 0
M  V30 3039 H 275.147 -0.407947 -3.86352 0
M  V30 3040 H 276.819 -2.99359 -3.50973 0
M  V30 3041 H 275.062 -2.86758 -3.25503 0
M  V30 3042 H 275.733 -2.6037 -4.86736 0
M  V30 3043 H 278.209 -0.847856 -4.0737 0
M  V30 3044 H 277.085 -0.679981 -5.44672 0
M  V30 3045 H 277.346 0.681642 -4.36814 0
M  V30 3046 N 276.405 1.4127 -0.698611 0
M  V30 3047 C 277.651 2.01478 -0.231207 0
M  V30 3048 C 277.984 1.55215 1.16713 0
M  V30 3049 O 277.259 0.764672 1.78838 0
M  V30 3050 C 277.542 3.58912 -0.292281 0
M  V30 3051 C 277.395 4.15293 -1.72778 0
M  V30 3052 C 278.714 4.38736 0.346194 0
M  V30 3053 H 275.833 0.732025 -0.0854878 0
M  V30 3054 H 278.475 1.67977 -0.887906 0
M  V30 3055 H 276.625 3.87582 0.26686 0
M  V30 3056 H 278.297 3.97486 -2.341 0
M  V30 3057 H 276.54 3.7022 -2.26096 0
M  V30 3058 H 277.211 5.24452 -1.72202 0
M  V30 3059 H 279.687 4.15897 -0.130035 0
M  V30 3060 H 278.563 5.48221 0.272932 0
M  V30 3061 H 278.824 4.18425 1.42734 0
M  V30 3062 N 277.883 0.443576 1.51229 0
M  V30 3063 C 279.13 -0.120796 2.02139 0
M  V30 3064 C 279.458 -1.42166 1.32736 0
M  V30 3065 O 278.713 -1.90849 0.43301 0
M  V30 3066 C 279.012 -0.380579 3.55368 0
M  V30 3067 C 278.678 0.83523 4.43097 0
M  V30 3068 C 277.34 1.16864 4.66794 0
M  V30 3069 C 279.692 1.64601 4.94526 0
M  V30 3070 C 277.02 2.31339 5.39165 0
M  V30 3071 C 279.372 2.78181 5.68153 0
M  V30 3072 C 278.036 3.11969 5.90112 0
M  V30 3073 H 277.306 -0.0442023 0.73968 0
M  V30 3074 H 279.953 0.592046 1.82118 0
M  V30 3075 H 278.258 -1.17538 3.73754 0
M  V30 3076 H 279.955 -0.830777 3.923 0
M  V30 3077 H 276.545 0.565437 4.24854 0
M  V30 3078 H 280.729 1.40163 4.76097 0
M  V30 3079 H 275.985 2.57823 5.5438 0
M  V30 3080 H 280.159 3.41371 6.06992 0
M  V30 3081 H 277.786 4.00784 6.45969 0
M  V30 3082 N 279.361 -1.56624 0.175154 0
M  V30 3083 C 280.607 -1.98061 -0.462976 0
M  V30 3084 C 280.962 -1.05949 -1.60601 0
M  V30 3085 O 280.255 -0.0999027 -1.91339 0
M  V30 3086 C 280.449 -3.43419 -0.989864 0
M  V30 3087 C 280.278 -4.49587 0.100583 0
M  V30 3088 C 279.048 -5.02281 0.551539 0
M  V30 3089 C 281.246 -5.06322 0.902369 0
M  V30 3090 N 279.228 -5.92088 1.62189 0
M  V30 3091 C 280.599 -5.92607 1.82256 0
M  V30 3092 C 282.654 -4.88811 0.947019 0
M  V30 3093 C 281.357 -6.63254 2.78364 0
M  V30 3094 C 283.383 -5.60182 1.89606 0
M  V30 3095 C 282.745 -6.46197 2.80372 0
M  V30 3096 H 278.844 -0.769833 -0.137409 0
M  V30 3097 H 281.428 -1.9273 0.276256 0
M  V30 3098 H 279.599 -3.49288 -1.6986 0
M  V30 3099 H 281.331 -3.7186 -1.59694 0
M  V30 3100 H 278.086 -4.73367 0.148537 0
M  V30 3101 H 278.51 -6.41696 2.15767 0
M  V30 3102 H 283.152 -4.22004 0.259304 0
M  V30 3103 H 280.87 -7.29271 3.48122 0
M  V30 3104 H 284.456 -5.48617 1.93676 0
M  V30 3105 H 283.336 -7.00453 3.52612 0
M  V30 3106 N 280.839 0.0985539 -1.57292 0
M  V30 3107 C 281.769 1.12064 -2.04851 0
M  V30 3108 C 282.75 1.41981 -0.936767 0
M  V30 3109 O 283.935 1.52071 -1.20781 0
M  V30 3110 C 281.065 2.44144 -2.47004 0
M  V30 3111 C 280.019 2.28643 -3.6181 0
M  V30 3112 C 279.345 3.65869 -3.89929 0
M  V30 3113 C 280.645 1.72986 -4.92822 0
M  V30 3114 H 282.339 0.724979 -2.9049 0
M  V30 3115 H 279.885 0.34729 -1.39749 0
M  V30 3116 H 281.838 3.15914 -2.78884 0
M  V30 3117 H 280.562 2.85639 -1.5836 0
M  V30 3118 H 279.221 1.59318 -3.30172 0
M  V30 3119 H 278.869 4.04885 -2.98458 0
M  V30 3120 H 278.569 3.56344 -4.67218 0
M  V30 3121 H 280.093 4.39112 -4.2428 0
M  V30 3122 H 281.507 2.34593 -5.23105 0
M  V30 3123 H 279.904 1.74229 -5.74251 0
M  V30 3124 H 280.974 0.689007 -4.7998 0
M  V30 3125 N 282.317 1.53212 0.369288 0
M  V30 3126 C 283.25 1.74166 1.4745 0
M  V30 3127 C 284.228 0.589923 1.51521 0
M  V30 3128 O 285.412 0.822078 1.69629 0
M  V30 3129 C 282.539 1.81711 2.8583 0
M  V30 3130 C 281.585 3.03649 2.99499 0
M  V30 3131 S 282.418 4.63242 2.6864 0
M  V30 3132 C 283.574 4.7363 4.09177 0
M  V30 3133 H 283.807 2.67636 1.29454 0
M  V30 3134 H 281.34 1.43754 0.563396 0
M  V30 3135 H 283.298 1.86743 3.65564 0
M  V30 3136 H 281.959 0.89299 3.01139 0
M  V30 3137 H 281.152 3.05526 4.00836 0
M  V30 3138 H 280.754 2.9671 2.27683 0
M  V30 3139 H 283.046 4.53456 5.03372 0
M  V30 3140 H 283.989 5.75682 4.12306 0
M  V30 3141 H 284.397 4.02295 3.96004 0
M  V30 3142 N 283.795 -0.628877 1.44509 0
M  V30 3143 C 285.041 -1.38863 1.48623 0
M  V30 3144 C 285.396 -1.92038 0.117933 0
M  V30 3145 O 284.689 -1.70853 -0.86716 0
M  V30 3146 C 284.883 -2.56995 2.48371 0
M  V30 3147 C 284.712 -2.15385 3.94765 0
M  V30 3148 C 283.482 -2.02558 4.62924 0
M  V30 3149 C 285.68 -1.74158 4.83915 0
M  V30 3150 N 283.662 -1.54534 5.94132 0
M  V30 3151 C 285.033 -1.37396 6.04584 0
M  V30 3152 C 287.088 -1.61559 4.7096 0
M  V30 3153 C 285.791 -0.892948 7.13736 0
M  V30 3154 C 287.817 -1.14862 5.80139 0
M  V30 3155 C 287.179 -0.790516 6.9995 0
M  V30 3156 H 283.278 -0.502858 0.59888 0
M  V30 3157 H 285.862 -0.72121 1.8085 0
M  V30 3158 H 284.033 -3.21362 2.1813 0
M  V30 3159 H 285.765 -3.23801 2.42766 0
M  V30 3160 H 282.52 -2.23082 4.1777 0
M  V30 3161 H 282.944 -1.32815 6.63844 0
M  V30 3162 H 287.586 -1.87876 3.78764 0
M  V30 3163 H 285.304 -0.617291 8.05739 0
M  V30 3164 H 288.89 -1.05569 5.72142 0
M  V30 3165 H 287.77 -0.434713 7.82994 0
M  V30 3166 N 285.273 -1.31445 -0.869486 0
M  V30 3167 C 286.52 -1.21158 -1.62256 0
M  V30 3168 C 286.848 0.230155 -1.93133 0
M  V30 3169 O 286.103 1.17906 -1.56194 0
M  V30 3170 C 286.402 -2.00145 -2.96102 0
M  V30 3171 C 286.068 -3.4964 -2.84715 0
M  V30 3172 C 284.73 -3.90403 -2.81317 0
M  V30 3173 C 287.082 -4.44769 -2.71716 0
M  V30 3174 C 284.41 -5.24561 -2.62778 0
M  V30 3175 C 286.762 -5.79054 -2.54714 0
M  V30 3176 C 285.426 -6.19037 -2.49699 0
M  V30 3177 H 284.696 -0.443348 -0.593737 0
M  V30 3178 H 287.343 -1.62715 -1.00976 0
M  V30 3179 H 285.648 -1.5127 -3.6142 0
M  V30 3180 H 287.345 -1.89566 -3.53363 0
M  V30 3181 H 283.935 -3.17256 -2.88178 0
M  V30 3182 H 288.119 -4.14208 -2.73397 0
M  V30 3183 H 283.375 -5.54613 -2.57321 0
M  V30 3184 H 287.549 -6.52393 -2.43632 0
M  V30 3185 H 285.176 -7.22935 -2.35093 0
M  V30 3186 N 286.751 1.08385 -1.14413 0
M  V30 3187 C 287.681 2.17321 -0.854044 0
M  V30 3188 C 288.662 1.69024 0.191049 0
M  V30 3189 O 289.847 1.94141 0.0476779 0
M  V30 3190 C 286.977 3.45719 -0.330983 0
M  V30 3191 C 285.931 4.07409 -1.31155 0
M  V30 3192 C 285.257 5.30762 -0.64778 0
M  V30 3193 C 286.557 4.48665 -2.67388 0
M  V30 3194 H 288.251 2.41845 -1.76498 0
M  V30 3195 H 285.797 1.16233 -0.850051 0
M  V30 3196 H 287.75 4.21241 -0.115645 0
M  V30 3197 H 286.474 3.2075 0.615381 0
M  V30 3198 H 285.133 3.33919 -1.51306 0
M  V30 3199 H 284.781 5.02078 0.304398 0
M  V30 3200 H 284.481 5.72992 -1.30207 0
M  V30 3201 H 286.005 6.08998 -0.441972 0
M  V30 3202 H 287.419 5.15364 -2.51143 0
M  V30 3203 H 285.816 5.01814 -3.29093 0
M  V30 3204 H 286.886 3.60543 -3.24248 0
M  V30 3205 N 288.23 0.939286 1.26551 0
M  V30 3206 C 289.193 0.451987 2.24699 0
M  V30 3207 C 290.193 -0.435869 1.5478 0
M  V30 3208 O 291.383 -0.235314 1.72603 0
M  V30 3209 C 288.515 -0.348801 3.39111 0
M  V30 3210 H 289.708 1.3193 2.69322 0
M  V30 3211 H 287.261 0.721072 1.38673 0
M  V30 3212 H 287.996 -1.23444 2.99887 0
M  V30 3213 H 287.781 0.287945 3.91041 0
M  V30 3214 H 289.271 -0.679726 4.12031 0
M  V30 3215 N 289.708 -1.40897 0.706093 0
M  V30 3216 C 290.933 -2.05895 0.249435 0
M  V30 3217 C 291.358 -1.52823 -1.09666 0
M  V30 3218 O 290.716 -0.659589 -1.68876 0
M  V30 3219 C 290.764 -3.59872 0.22904 0
M  V30 3220 O 289.868 -4.04708 -0.792784 0
M  V30 3221 H 289.209 -0.653206 0.119241 0
M  V30 3222 H 291.739 -1.80471 0.96391 0
M  V30 3223 H 291.749 -4.07951 0.0634791 0
M  V30 3224 H 290.424 -3.97866 1.21141 0
M  V30 3225 H 289.001 -3.68111 -0.59572 0
M  V30 3226 N 291.186 -0.45159 -1.50991 0
M  V30 3227 C 292.116 0.342898 -2.30969 0
M  V30 3228 C 293.097 1.00815 -1.37005 0
M  V30 3229 O 294.282 1.00907 -1.65926 0
M  V30 3230 C 291.412 1.43637 -3.16205 0
M  V30 3231 C 290.366 0.893818 -4.18563 0
M  V30 3232 C 289.692 2.08411 -4.92411 0
M  V30 3233 C 290.992 -0.0815568 -5.22236 0
M  V30 3234 H 292.686 -0.324556 -2.97636 0
M  V30 3235 H 290.232 -0.157531 -1.43136 0
M  V30 3236 H 292.185 1.9995 -3.70942 0
M  V30 3237 H 290.909 2.13232 -2.47386 0
M  V30 3238 H 289.568 0.352798 -3.64898 0
M  V30 3239 H 289.216 2.76658 -4.20082 0
M  V30 3240 H 288.916 1.72741 -5.61636 0
M  V30 3241 H 290.44 2.65251 -5.49976 0
M  V30 3242 H 291.854 0.391742 -5.7196 0
M  V30 3243 H 290.251 -0.351551 -5.99069 0
M  V30 3244 H 291.321 -1.01374 -4.74185 0
M  V30 3245 N 292.664 1.56529 -0.183458 0
M  V30 3246 C 293.912 1.96855 0.457452 0
M  V30 3247 C 294.233 1.07104 1.62953 0
M  V30 3248 O 293.503 0.139887 1.954 0
M  V30 3249 H 292.083 0.72693 0.171992 0
M  V30 3250 H 294.745 1.93056 -0.267476 0
M  V30 3251 H 293.841 3.01423 0.809368 0
M  V30 3252 N 294.142 -0.090211 1.57342 0
M  V30 3253 C 295.072 -1.10976 2.05443 0
M  V30 3254 C 296.053 -1.41482 0.944284 0
M  V30 3255 O 297.238 -1.51428 1.21586 0
M  V30 3256 C 294.368 -2.42831 2.48295 0
M  V30 3257 C 293.322 -2.26721 3.63018 0
M  V30 3258 C 292.648 -3.63796 3.91863 0
M  V30 3259 C 293.948 -1.7037 4.93732 0
M  V30 3260 H 295.642 -0.709564 2.9087 0
M  V30 3261 H 293.188 -0.339874 1.39932 0
M  V30 3262 H 295.141 -3.14431 2.80555 0
M  V30 3263 H 293.865 -2.84795 1.59873 0
M  V30 3264 H 292.524 -1.57565 3.31012 0
M  V30 3265 H 292.172 -4.03297 3.00601 0
M  V30 3266 H 291.872 -3.53861 4.69101 0
M  V30 3267 H 293.396 -4.36855 4.26603 0
M  V30 3268 H 294.81 -2.31816 5.24342 0
M  V30 3269 H 293.207 -1.71181 5.75167 0
M  V30 3270 H 294.277 -0.663542 4.80339 0
M  V30 3271 N 295.62 -1.53406 -0.361157 0
M  V30 3272 C 296.866 -1.70054 -1.10496 0
M  V30 3273 C 297.199 -0.453278 -1.88836 0
M  V30 3274 O 296.474 0.5495 -1.86576 0
M  V30 3275 C 296.757 -2.95317 -2.06058 0
M  V30 3276 C 296.61 -4.3021 -1.31298 0
M  V30 3277 C 297.929 -3.16193 -3.06121 0
M  V30 3278 H 295.048 -0.618799 -0.400321 0
M  V30 3279 H 297.69 -1.86052 -0.385318 0
M  V30 3280 H 295.84 -2.81809 -2.67425 0
M  V30 3281 H 297.512 -4.55538 -0.726807 0
M  V30 3282 H 295.755 -4.29421 -0.614853 0
M  V30 3283 H 296.426 -5.14 -2.01265 0
M  V30 3284 H 298.902 -3.28916 -2.5486 0
M  V30 3285 H 297.778 -4.05266 -3.70204 0
M  V30 3286 H 298.039 -2.31676 -3.76535 0
M  V30 3287 N 297.098 0.621204 -1.44841 0
M  V30 3288 C 298.028 1.74366 -1.55303 0
M  V30 3289 C 299.009 1.65199 -0.405385 0
M  V30 3290 O 300.194 1.83807 -0.626787 0
M  V30 3291 C 297.324 3.12931 -1.50637 0
M  V30 3292 C 296.278 3.36896 -2.63979 0
M  V30 3293 C 295.604 4.75594 -2.44366 0
M  V30 3294 C 296.904 3.28483 -4.06074 0
M  V30 3295 H 298.598 1.65867 -2.49256 0
M  V30 3296 H 296.144 0.796558 -1.19962 0
M  V30 3297 H 298.097 3.9124 -1.56555 0
M  V30 3298 H 296.821 3.22237 -0.532057 0
M  V30 3299 H 295.48 2.60972 -2.57467 0
M  V30 3300 H 295.128 4.81616 -1.45105 0
M  V30 3301 H 294.828 4.92586 -3.20364 0
M  V30 3302 H 296.352 5.5612 -2.52117 0
M  V30 3303 H 297.766 3.96684 -4.13902 0
M  V30 3304 H 296.163 3.57008 -4.82354 0
M  V30 3305 H 297.233 2.26133 -4.28943 0
M  V30 3306 N 298.576 1.31904 0.862503 0
M  V30 3307 C 299.486 1.22161 2.00285 0
M  V30 3308 C 300.502 0.136785 1.73462 0
M  V30 3309 O 301.678 0.355994 1.98229 0
M  V30 3310 C 298.743 0.937093 3.33796 0
M  V30 3311 C 297.804 2.10957 3.73893 0
M  V30 3312 C 297.037 1.83853 5.01033 0
M  V30 3313 O 297.26 0.777274 5.65079 0
M  V30 3314 O 296.194 2.69741 5.38074 0
M  V30 3315 H 300.02 2.18008 2.11439 0
M  V30 3316 H 297.605 1.11716 0.991957 0
M  V30 3317 H 299.487 0.794583 4.13841 0
M  V30 3318 H 298.162 0.00871894 3.23699 0
M  V30 3319 H 297.069 2.30752 2.94456 0
M  V30 3320 H 298.402 3.02046 3.88625 0
M  V30 3321 N 300.054 -1.07777 1.14986 0
M  V30 3322 C 301.017 -2.13041 0.845358 0
M  V30 3323 C 302.017 -1.60071 -0.152931 0
M  V30 3324 O 303.207 -1.74033 0.0761879 0
M  V30 3325 C 300.339 -3.39896 0.261383 0
M  V30 3326 H 301.532 -2.41485 1.77834 0
M  V30 3327 H 299.085 -1.23595 0.956757 0
M  V30 3328 H 299.82 -3.17091 -0.68 0
M  V30 3329 H 299.605 -3.79642 0.980514 0
M  V30 3330 H 301.095 -4.17548 0.0657687 0
M  V30 3331 N 301.532 -0.945985 -1.26051 0
M  V30 3332 C 302.778 -0.597002 -1.93814 0
M  V30 3333 C 303.111 0.862484 -1.73997 0
M  V30 3334 O 302.386 1.61769 -1.07986 0
M  V30 3335 C 302.669 -0.945937 -3.47454 0
M  V30 3336 C 302.522 -2.46052 -3.76535 0
M  V30 3337 C 303.841 -0.464785 -4.37639 0
M  V30 3338 H 300.96 -0.218366 -0.703907 0
M  V30 3339 H 303.602 -1.18107 -1.48831 0
M  V30 3340 H 301.752 -0.448902 -3.85898 0
M  V30 3341 H 303.424 -3.03065 -3.47778 0
M  V30 3342 H 301.667 -2.90194 -3.22444 0
M  V30 3343 H 302.338 -2.65517 -4.83947 0
M  V30 3344 H 304.814 -0.891016 -4.06448 0
M  V30 3345 H 303.69 -0.737712 -5.4392 0
M  V30 3346 H 303.951 0.635274 -4.37512 0
M  V30 3347 N 303.011 1.40521 -0.713556 0
M  V30 3348 C 303.941 2.33381 -0.0743864 0
M  V30 3349 C 304.922 1.52784 0.747735 0
M  V30 3350 O 306.107 1.81258 0.697071 0
M  V30 3351 C 303.237 3.36748 0.849598 0
M  V30 3352 C 302.191 4.27793 0.133247 0
M  V30 3353 C 301.517 5.21679 1.17281 0
M  V30 3354 C 302.817 5.12415 -1.01134 0
M  V30 3355 H 304.511 2.87081 -0.850007 0
M  V30 3356 H 302.057 1.38034 -0.410201 0
M  V30 3357 H 304.01 4.00648 1.30612 0
M  V30 3358 H 302.734 2.81439 1.65709 0
M  V30 3359 H 301.393 3.65342 -0.303426 0
M  V30 3360 H 301.041 4.62677 1.9733 0
M  V30 3361 H 300.741 5.83435 0.698397 0
M  V30 3362 H 302.265 5.88456 1.62947 0
M  V30 3363 H 303.679 5.69781 -0.634274 0
M  V30 3364 H 302.076 5.83203 -1.41399 0
M  V30 3365 H 303.146 4.48514 -1.84292 0
M  V30 3366 N 304.489 0.459591 1.5075 0
M  V30 3367 C 305.736 -0.0993495 2.02256 0
M  V30 3368 C 306.064 -1.40751 1.34237 0
M  V30 3369 O 305.319 -1.90379 0.453228 0
M  V30 3370 C 305.618 -0.342866 3.55752 0
M  V30 3371 C 305.284 0.88218 4.42186 0
M  V30 3372 C 303.946 1.21808 4.65528 0
M  V30 3373 C 306.298 1.69837 4.92752 0
M  V30 3374 C 303.626 2.37045 5.36681 0
M  V30 3375 C 305.978 2.84192 5.65171 0
M  V30 3376 C 304.642 3.1821 5.8677 0
M  V30 3377 H 303.912 -0.0363545 0.740108 0
M  V30 3378 H 306.559 0.611329 1.8148 0
M  V30 3379 H 304.864 -1.13567 3.7498 0
M  V30 3380 H 306.561 -0.789121 3.93159 0
M  V30 3381 H 303.151 0.610467 4.2423 0
M  V30 3382 H 307.335 1.45205 4.74583 0
M  V30 3383 H 302.591 2.63689 5.51614 0
M  V30 3384 H 306.765 3.4779 6.03337 0
M  V30 3385 H 304.392 4.07613 6.41682 0
M  V30 3386 N 305.967 -1.56429 0.191757 0
M  V30 3387 C 306.897 -2.21937 -0.725696 0
M  V30 3388 C 307.878 -1.1814 -1.2238 0
M  V30 3389 O 309.063 -1.46636 -1.27325 0
M  V30 3390 C 306.193 -2.87611 -1.94672 0
M  V30 3391 C 305.147 -3.97623 -1.58366 0
M  V30 3392 C 304.473 -4.50446 -2.88102 0
M  V30 3393 C 305.773 -5.16197 -0.796133 0
M  V30 3394 H 307.467 -2.98861 -0.179606 0
M  V30 3395 H 305.013 -1.43749 -0.0849464 0
M  V30 3396 H 306.966 -3.3212 -2.59373 0
M  V30 3397 H 305.69 -2.08087 -2.51728 0
M  V30 3398 H 304.349 -3.53801 -0.960247 0
M  V30 3399 H 303.997 -3.67688 -3.43241 0
M  V30 3400 H 303.697 -5.24675 -2.64556 0
M  V30 3401 H 305.221 -4.97654 -3.53798 0
M  V30 3402 H 306.635 -5.57271 -1.34618 0
M  V30 3403 H 305.032 -5.96471 -0.658928 0
M  V30 3404 H 306.102 -4.84473 0.203478 0
M  V30 3405 N 307.445 0.0818655 -1.57387 0
M  V30 3406 C 308.375 1.09885 -2.06028 0
M  V30 3407 C 309.356 1.4098 -0.951774 0
M  V30 3408 O 310.541 1.50781 -1.22387 0
M  V30 3409 C 307.671 2.4151 -2.4958 0
M  V30 3410 C 306.625 2.24792 -3.64215 0
M  V30 3411 C 305.951 3.61712 -3.93787 0
M  V30 3412 C 307.251 1.67749 -4.94629 0
M  V30 3413 H 308.945 0.694128 -2.91243 0
M  V30 3414 H 306.491 0.332448 -1.4011 0
M  V30 3415 H 308.444 3.12939 -2.82219 0
M  V30 3416 H 307.168 2.83943 -1.61381 0
M  V30 3417 H 305.827 1.55807 -3.31843 0
M  V30 3418 H 305.475 4.01697 -3.02735 0
M  V30 3419 H 305.175 3.51368 -4.70971 0
M  V30 3420 H 306.699 4.34587 -4.28913 0
M  V30 3421 H 308.113 2.29032 -5.25564 0
M  V30 3422 H 306.51 1.68128 -5.76067 0
M  V30 3423 H 307.58 0.638059 -4.80684 0
M  V30 3424 N 308.923 1.53595 0.353017 0
M  V30 3425 C 310.334 1.61937 0.929153 0
M  V30 3426 C 310.685 0.494686 1.89861 0
M  V30 3427 O 309.81 -0.377017 2.1309 0
M  V30 3428 C 310.405 2.93526 1.69199 0
M  V30 3429 C 308.964 3.04161 2.21727 0
M  V30 3430 C 308.111 2.57322 1.03348 0
M  V30 3431 H 311.062 1.58155 0.131431 0
M  V30 3432 H 311.083 2.82034 2.55416 0
M  V30 3433 H 310.595 3.75362 0.986144 0
M  V30 3434 H 308.696 2.26938 2.95516 0
M  V30 3435 H 308.809 4.09465 2.48748 0
M  V30 3436 H 307.173 2.12499 1.40414 0
M  V30 3437 H 307.956 3.41588 0.342428 0
M  V30 3438 N 310.401 -0.613514 1.45168 0
M  V30 3439 C 311.647 -1.37279 1.50087 0
M  V30 3440 C 312.002 -1.91902 0.138294 0
M  V30 3441 O 311.295 -1.71764 -0.84899 0
M  V30 3442 C 311.489 -2.54347 2.51083 0
M  V30 3443 C 311.318 -2.11186 3.97027 0
M  V30 3444 C 310.088 -1.97636 4.65046 0
M  V30 3445 C 312.286 -1.69016 4.85735 0
M  V30 3446 N 310.268 -1.48224 5.95737 0
M  V30 3447 C 311.639 -1.30976 6.06008 0
M  V30 3448 C 313.694 -1.56555 4.72647 0
M  V30 3449 C 312.397 -0.817197 7.14643 0
M  V30 3450 C 314.423 -1.08702 5.81324 0
M  V30 3451 C 313.785 -0.716233 7.00749 0
M  V30 3452 H 309.884 -0.496478 0.60418 0
M  V30 3453 H 312.468 -0.701988 1.81605 0
M  V30 3454 H 310.639 -3.19031 2.21527 0
M  V30 3455 H 312.371 -3.21208 2.46187 0
M  V30 3456 H 309.126 -2.18638 4.20112 0
M  V30 3457 H 309.55 -1.25767 6.65216 0
M  V30 3458 H 314.192 -1.83849 3.80736 0
M  V30 3459 H 311.91 -0.531797 8.06348 0
M  V30 3460 H 315.496 -0.994943 5.7323 0
M  V30 3461 H 314.376 -0.351642 7.83411 0
M  V30 3462 N 311.879 -1.3236 -0.855495 0
M  V30 3463 C 313.104 -1.2601 -1.64731 0
M  V30 3464 C 313.529 0.169068 -1.87339 0
M  V30 3465 O 312.887 1.12016 -1.42556 0
M  V30 3466 C 312.935 -2.02417 -2.98429 0
M  V30 3467 O 312.039 -1.3714 -3.8893 0
M  V30 3468 H 311.38 -0.434325 -0.502253 0
M  V30 3469 H 313.91 -1.74661 -1.06558 0
M  V30 3470 H 313.92 -2.12559 -3.48257 0
M  V30 3471 H 312.595 -3.06343 -2.81295 0
M  V30 3472 H 311.172 -1.3554 -3.47395 0
M  V30 3473 N 313.357 1.07166 -1.15556 0
M  V30 3474 C 314.604 1.79798 -0.931604 0
M  V30 3475 C 314.932 1.8682 0.54115 0
M  V30 3476 O 314.187 1.34942 1.41736 0
M  V30 3477 C 314.486 3.24707 -1.49332 0
M  V30 3478 C 314.152 3.37781 -2.98688 0
M  V30 3479 C 312.814 3.41057 -3.39461 0
M  V30 3480 C 315.166 3.40424 -3.94665 0
M  V30 3481 C 312.494 3.4458 -4.74849 0
M  V30 3482 C 314.846 3.45485 -5.29927 0
M  V30 3483 C 313.51 3.47039 -5.70193 0
M  V30 3484 H 312.78 0.657928 -0.340898 0
M  V30 3485 H 315.427 1.26091 -1.44129 0
M  V30 3486 H 313.732 3.81208 -0.904859 0
M  V30 3487 H 315.429 3.79486 -1.29582 0
M  V30 3488 H 312.019 3.35932 -2.66172 0
M  V30 3489 H 316.203 3.37113 -3.64237 0
M  V30 3490 H 311.459 3.44083 -5.05388 0
M  V30 3491 H 315.633 3.46476 -6.04092 0
M  V30 3492 H 313.26 3.49522 -6.75084 0
M  V30 3493 N 314.835 0.952656 1.25548 0
M  V30 3494 C 316.083 0.605176 1.92826 0
M  V30 3495 C 316.404 -0.860261 1.74999 0
M  V30 3496 O 315.674 -1.6125 1.11244 0
M  V30 3497 H 314.254 0.220832 0.713612 0
M  V30 3498 H 316.916 1.21047 1.52754 0
M  V30 3499 H 316.012 0.832798 3.00784 0
M  V30 3500 N 316.313 -1.40141 0.720998 0
M  V30 3501 C 317.243 -2.33339 0.0867621 0
M  V30 3502 C 318.224 -1.53178 -0.739622 0
M  V30 3503 O 319.409 -1.81625 -0.687449 0
M  V30 3504 C 316.539 -3.37194 -0.831728 0
M  V30 3505 C 315.493 -4.27857 -0.110558 0
M  V30 3506 C 314.819 -5.22294 -1.14513 0
M  V30 3507 C 316.119 -5.11872 1.0385 0
M  V30 3508 H 317.813 -2.86626 0.865219 0
M  V30 3509 H 315.359 -1.37814 0.417516 0
M  V30 3510 H 317.312 -4.01335 -1.28485 0
M  V30 3511 H 316.036 -2.82314 -1.64214 0
M  V30 3512 H 314.695 -3.65176 0.322797 0
M  V30 3513 H 314.343 -4.63717 -1.94874 0
M  V30 3514 H 314.043 -5.83797 -0.667446 0
M  V30 3515 H 315.567 -5.89312 -1.59824 0
M  V30 3516 H 316.981 -5.69436 0.664482 0
M  V30 3517 H 315.378 -5.82445 1.4449 0
M  V30 3518 H 316.448 -4.4753 1.86668 0
M  V30 3519 N 317.792 -0.46758 -1.50504 0
M  V30 3520 C 319.038 0.0887532 -2.02606 0
M  V30 3521 C 319.371 1.39686 -1.34913 0
M  V30 3522 O 318.646 1.88644 -0.473694 0
M  V30 3523 C 318.929 0.276206 -3.59039 0
M  V30 3524 C 318.782 -1.05267 -4.37309 0
M  V30 3525 C 320.101 1.03235 -4.27821 0
M  V30 3526 H 317.22 0.0307814 -0.736357 0
M  V30 3527 H 319.862 -0.612485 -1.79857 0
M  V30 3528 H 318.012 0.8735 -3.78553 0
M  V30 3529 H 319.684 -1.68628 -4.29374 0
M  V30 3530 H 317.927 -1.65015 -4.01189 0
M  V30 3531 H 318.598 -0.875197 -5.45018 0
M  V30 3532 H 321.074 0.526111 -4.12761 0
M  V30 3533 H 319.95 1.1323 -5.37094 0
M  V30 3534 H 320.211 2.06806 -3.90748 0
M  V30 3535 N 319.27 1.56325 -0.20005 0
M  V30 3536 C 320.18 2.22931 0.730668 0
M  V30 3537 C 321.196 1.22997 1.23076 0
M  V30 3538 O 322.372 1.55748 1.27689 0
M  V30 3539 C 319.437 2.87948 1.93098 0
M  V30 3540 C 318.498 4.03166 1.47497 0
M  V30 3541 C 317.731 4.65073 2.61807 0
M  V30 3542 O 317.954 4.25913 3.79413 0
M  V30 3543 O 316.888 5.54452 2.34237 0
M  V30 3544 H 320.714 3.03084 0.193391 0
M  V30 3545 H 318.299 1.49371 0.0294621 0
M  V30 3546 H 320.181 3.29063 2.6324 0
M  V30 3547 H 318.856 2.10771 2.45677 0
M  V30 3548 H 317.763 3.66664 0.742201 0
M  V30 3549 H 319.096 4.82022 0.995796 0
M  V30 3550 N 320.748 -0.0735177 1.57428 0
M  V30 3551 C 321.996 -0.771472 1.86796 0
M  V30 3552 C 322.317 -1.78201 0.791804 0
M  V30 3553 O 321.587 -1.95074 -0.179718 0
M  V30 3554 H 320.167 -0.28791 0.689287 0
M  V30 3555 H 322.829 -0.0500161 1.94836 0
M  V30 3556 H 321.925 -1.28874 2.8425 0
M  V30 3557 N 322.226 -1.5378 -0.344866 0
M  V30 3558 C 323.472 -1.71216 -1.08687 0
M  V30 3559 C 323.805 -0.473281 -1.88345 0
M  V30 3560 O 323.08 0.52968 -1.87149 0
M  V30 3561 C 323.363 -2.97486 -2.02914 0
M  V30 3562 C 323.216 -4.31579 -1.26727 0
M  V30 3563 C 324.535 -3.19422 -3.0275 0
M  V30 3564 H 321.654 -0.62301 -0.393735 0
M  V30 3565 H 324.296 -1.8645 -0.365563 0
M  V30 3566 H 322.446 -2.84629 -2.64421 0
M  V30 3567 H 324.118 -4.56284 -0.67845 0
M  V30 3568 H 322.361 -4.30049 -0.569273 0
M  V30 3569 H 323.032 -5.16106 -1.95803 0
M  V30 3570 H 325.508 -3.316 -2.51357 0
M  V30 3571 H 324.384 -4.09169 -3.65885 0
M  V30 3572 H 324.645 -2.35656 -3.74057 0
M  V30 3573 N 323.704 0.605807 -1.45491 0
M  V30 3574 C 324.981 1.36522 -1.40075 0
M  V30 3575 C 325.361 2.10976 -0.0722744 0
M  V30 3576 O 324.709 2.08007 0.945808 0
M  V30 3577 C 324.919 2.31056 -2.61561 0
M  V30 3578 C 326.267 2.93608 -3.06724 0
M  V30 3579 O 327.291 2.41376 -2.61946 0
M  V30 3580 O 326.15 3.88421 -3.84437 0
M  V30 3581 H 323.244 0.612248 -0.555951 0
M  V30 3582 H 325.79 0.628747 -1.57623 0
M  V30 3583 H 324.562 1.75311 -3.49831 0
M  V30 3584 H 324.185 3.12081 -2.46356 0
M  V30 3585 N 325.182 1.32811 0.848464 0
M  V30 3586 C 326.593 1.21315 1.41914 0
M  V30 3587 C 326.944 -0.171847 1.95446 0
M  V30 3588 O 326.069 -1.07093 1.88043 0
M  V30 3589 C 326.664 2.19631 2.57968 0
M  V30 3590 C 325.223 2.12003 3.11017 0
M  V30 3591 C 324.37 2.07651 1.83783 0
M  V30 3592 H 327.321 1.44549 0.655071 0
M  V30 3593 H 327.342 1.79845 3.35315 0
M  V30 3594 H 326.854 3.20423 2.18976 0
M  V30 3595 H 324.955 1.14481 3.54577 0
M  V30 3596 H 325.068 3.02111 3.71841 0
M  V30 3597 H 323.432 1.52983 2.03638 0
M  V30 3598 H 324.215 3.10235 1.47 0
M  V30 3599 N 326.66 -1.06551 1.16123 0
M  V30 3600 C 327.59 -2.15935 0.88851 0
M  V30 3601 C 328.571 -1.69306 -0.164135 0
M  V30 3602 O 329.756 -1.94193 -0.0167857 0
M  V30 3603 C 326.886 -3.45149 0.385942 0
M  V30 3604 C 325.84 -4.05271 1.3762 0
M  V30 3605 C 325.166 -5.29664 0.732137 0
M  V30 3606 C 326.466 -4.44355 2.74493 0
M  V30 3607 H 328.16 -2.39006 1.80323 0
M  V30 3608 H 325.706 -1.14866 0.868435 0
M  V30 3609 H 327.659 -4.21004 0.182647 0
M  V30 3610 H 326.383 -3.21689 -0.564274 0
M  V30 3611 H 325.042 -3.3147 1.56599 0
M  V30 3612 H 324.69 -5.02499 -0.224483 0
M  V30 3613 H 324.39 -5.70848 1.39307 0
M  V30 3614 H 325.914 -6.08218 0.538802 0
M  V30 3615 H 327.328 -5.11303 2.59311 0
M  V30 3616 H 325.725 -4.96515 3.37035 0
M  V30 3617 H 326.795 -3.55339 3.29943 0
M  V30 3618 N 328.138 -0.959301 -1.25041 0
M  V30 3619 C 329.384 -0.617525 -1.9317 0
M  V30 3620 C 329.717 0.843981 -1.74902 0
M  V30 3621 O 328.992 1.60615 -1.09696 0
M  V30 3622 C 329.275 -0.982736 -3.46431 0
M  V30 3623 C 329.128 -2.50032 -3.73904 0
M  V30 3624 C 330.447 -0.511176 -4.37121 0
M  V30 3625 H 327.566 -0.22582 -0.701552 0
M  V30 3626 H 330.208 -1.19679 -1.4757 0
M  V30 3627 H 328.358 -0.489806 -3.854 0
M  V30 3628 H 330.03 -3.06737 -3.44544 0
M  V30 3629 H 328.273 -2.93598 -3.19348 0
M  V30 3630 H 328.944 -2.70635 -4.81103 0
M  V30 3631 H 331.42 -0.934075 -4.0548 0
M  V30 3632 H 330.296 -0.795361 -5.43107 0
M  V30 3633 H 330.557 0.588834 -4.38161 0
M  V30 3634 N 329.616 1.39756 -0.72842 0
M  V30 3635 C 330.579 2.29012 -0.0927297 0
M  V30 3636 C 331.579 1.45992 0.674025 0
M  V30 3637 O 332.769 1.66749 0.50402 0
M  V30 3638 C 329.901 3.29396 0.878137 0
M  V30 3639 H 331.094 2.86729 -0.879011 0
M  V30 3640 H 328.647 1.48293 -0.493847 0
M  V30 3641 H 329.382 2.76722 1.69101 0
M  V30 3642 H 329.167 3.907 0.331051 0
M  V30 3643 H 330.657 3.96199 1.3197 0
M  V30 3644 N 331.094 0.475555 1.50254 0
M  V30 3645 C 332.51 0.12997 1.5907 0
M  V30 3646 C 332.71 -1.36385 1.48328 0
M  V30 3647 O 331.766 -2.13754 1.34407 0
M  V30 3648 C 333.079 0.684139 2.92814 0
M  V30 3649 C 334.627 0.647965 3.0622 0
M  V30 3650 C 335.102 1.17975 4.42545 0
M  V30 3651 N 336.593 1.13936 4.48969 0
M  V30 3652 C 337.328 1.52129 5.52851 0
M  V30 3653 N 336.824 1.97793 6.63965 0
M  V30 3654 N 338.617 1.43704 5.4342 0
M  V30 3655 H 330.768 1.44706 1.55479 0
M  V30 3656 H 333.031 0.598691 0.735033 0
M  V30 3657 H 332.737 1.73079 3.06164 0
M  V30 3658 H 332.611 0.130204 3.76975 0
M  V30 3659 H 334.998 -0.38979 2.92514 0
M  V30 3660 H 335.079 1.23876 2.23805 0
M  V30 3661 H 334.723 2.21616 4.57 0
M  V30 3662 H 334.653 0.565138 5.23559 0
M  V30 3663 H 337.144 0.804488 3.69238 0
M  V30 3664 H 337.457 2.25072 7.39299 0
M  V30 3665 H 335.802 2.01749 6.65073 0
M  V30 3666 H 338.993 1.07867 4.55502 0
M  V30 3667 H 339.166 1.73794 6.24259 0
M  V30 3668 N 332.573 -1.56217 0.208337 0
M  V30 3669 C 333.801 -2.02337 -0.43215 0
M  V30 3670 C 334.216 -1.08834 -1.54275 0
M  V30 3671 O 333.573 -0.0955462 -1.8225 0
M  V30 3672 C 333.624 -3.48072 -0.976138 0
M  V30 3673 O 333.345 -4.38007 0.0901621 0
M  V30 3674 C 334.846 -4.09773 -1.69119 0
M  V30 3675 H 332.066 -0.662385 -0.10718 0
M  V30 3676 H 334.61 -2.01966 0.320923 0
M  V30 3677 H 332.765 -3.49099 -1.67954 0
M  V30 3678 H 333.179 -5.23543 -0.316701 0
M  V30 3679 H 334.653 -5.13556 -2.02397 0
M  V30 3680 H 335.13 -3.53999 -2.59964 0
M  V30 3681 H 335.736 -4.12556 -1.03332 0
M  V30 3682 N 334.051 0.0651679 -1.57465 0
M  V30 3683 C 334.981 1.07693 -2.07182 0
M  V30 3684 C 335.962 1.39962 -0.966673 0
M  V30 3685 O 337.147 1.49475 -1.2398 0
M  V30 3686 C 334.277 2.3885 -2.52127 0
M  V30 3687 C 333.231 2.20917 -3.66579 0
M  V30 3688 C 332.557 3.57515 -3.97601 0
M  V30 3689 C 333.857 1.62493 -4.9638 0
M  V30 3690 H 335.551 0.663199 -2.91962 0
M  V30 3691 H 333.097 0.317569 -1.40455 0
M  V30 3692 H 335.05 3.09928 -2.85522 0
M  V30 3693 H 333.774 2.82215 -1.64384 0
M  V30 3694 H 332.433 1.52279 -3.33477 0
M  V30 3695 H 332.081 3.98463 -3.06979 0
M  V30 3696 H 331.781 3.46353 -4.74672 0
M  V30 3697 H 333.305 4.30013 -4.33499 0
M  V30 3698 H 334.719 2.23445 -5.27963 0
M  V30 3699 H 333.116 1.62009 -5.77818 0
M  V30 3700 H 334.186 0.587041 -4.81333 0
M  V30 3701 N 335.529 1.53961 0.336706 0
M  V30 3702 C 336.776 1.71536 1.07618 0
M  V30 3703 C 337.104 0.482125 1.8843 0
M  V30 3704 O 336.359 -0.536142 1.88213 0
M  V30 3705 C 336.658 2.93493 2.03953 0
M  V30 3706 C 336.324 4.28811 1.39399 0
M  V30 3707 C 334.986 4.65602 1.21523 0
M  V30 3708 C 337.338 5.12844 0.929541 0
M  V30 3709 C 334.666 5.84037 0.558312 0
M  V30 3710 C 337.018 6.31951 0.286505 0
M  V30 3711 C 335.682 6.67432 0.0954869 0
M  V30 3712 H 334.952 0.627696 0.393801 0
M  V30 3713 H 337.599 1.88186 0.354715 0
M  V30 3714 H 335.904 2.71475 2.82504 0
M  V30 3715 H 337.601 3.04285 2.61174 0
M  V30 3716 H 334.191 3.99858 1.54311 0
M  V30 3717 H 338.375 4.84947 1.05548 0
M  V30 3718 H 333.631 6.10097 0.398995 0
M  V30 3719 H 337.805 6.96352 -0.0814376 0
M  V30 3720 H 335.432 7.59063 -0.415579 0
M  V30 3721 N 337.007 -0.598083 1.45811 0
M  V30 3722 C 338.253 -1.35679 1.51535 0
M  V30 3723 C 338.608 -1.91745 0.15864 0
M  V30 3724 O 337.901 -1.72654 -0.830724 0
M  V30 3725 C 338.095 -2.51669 2.53766 0
M  V30 3726 C 337.924 -2.06963 3.99245 0
M  V30 3727 C 336.694 -1.92693 4.67116 0
M  V30 3728 C 338.892 -1.63855 4.875 0
M  V30 3729 N 336.874 -1.41897 5.97276 0
M  V30 3730 C 338.245 -1.24541 6.07363 0
M  V30 3731 C 340.3 -1.51533 4.74281 0
M  V30 3732 C 339.003 -0.741354 7.15469 0
M  V30 3733 C 341.029 -1.0253 5.82444 0
M  V30 3734 C 340.391 -0.641869 7.01469 0
M  V30 3735 H 336.49 -0.490042 0.609412 0
M  V30 3736 H 339.074 -0.682687 1.82339 0
M  V30 3737 H 337.245 -3.16663 2.24898 0
M  V30 3738 H 338.977 -3.18578 2.4958 0
M  V30 3739 H 335.732 -2.1417 4.22408 0
M  V30 3740 H 336.156 -1.18704 6.66512 0
M  V30 3741 H 340.798 -1.798 3.82664 0
M  V30 3742 H 338.516 -0.446243 8.06867 0
M  V30 3743 H 342.102 -0.934088 5.74253 0
M  V30 3744 H 340.982 -0.268531 7.8374 0
M  V30 3745 N 338.485 -1.33259 -0.841409 0
M  V30 3746 C 339.731 -1.25766 -1.59857 0
M  V30 3747 C 340.086 0.175602 -1.91597 0
M  V30 3748 O 339.379 1.117 -1.55672 0
M  V30 3749 C 339.573 -2.06381 -2.9179 0
M  V30 3750 C 339.402 -3.57401 -2.72937 0
M  V30 3751 C 338.172 -4.26718 -2.70628 0
M  V30 3752 C 340.37 -4.51786 -2.45753 0
M  V30 3753 N 338.352 -5.63705 -2.43125 0
M  V30 3754 C 339.723 -5.76643 -2.27777 0
M  V30 3755 C 341.778 -4.40898 -2.31329 0
M  V30 3756 C 340.481 -6.91842 -1.96841 0
M  V30 3757 C 342.507 -5.55911 -2.01786 0
M  V30 3758 C 341.869 -6.79776 -1.8462 0
M  V30 3759 H 337.968 -0.515406 -0.588117 0
M  V30 3760 H 340.552 -1.67772 -0.987955 0
M  V30 3761 H 338.723 -1.667 -3.50807 0
M  V30 3762 H 340.455 -1.90678 -3.56965 0
M  V30 3763 H 337.21 -3.78968 -2.84043 0
M  V30 3764 H 337.634 -6.35911 -2.32265 0
M  V30 3765 H 342.276 -3.45772 -2.43314 0
M  V30 3766 H 339.994 -7.86968 -1.83594 0
M  V30 3767 H 343.58 -5.49421 -1.91384 0
M  V30 3768 H 342.46 -7.67266 -1.62088 0
M  V30 3769 N 339.963 1.05934 -1.16686 0
M  V30 3770 C 341.191 1.8249 -0.974929 0
M  V30 3771 C 341.606 1.82679 0.476861 0
M  V30 3772 O 340.963 1.2486 1.33103 0
M  V30 3773 C 341.014 3.28943 -1.49929 0
M  V30 3774 O 340.735 3.28886 -2.89423 0
M  V30 3775 C 342.236 4.22215 -1.35089 0
M  V30 3776 H 339.456 0.575295 -0.345365 0
M  V30 3777 H 342 1.33631 -1.548 0
M  V30 3778 H 340.155 3.751 -0.968423 0
M  V30 3779 H 340.569 4.20493 -3.13506 0
M  V30 3780 H 342.043 5.22987 -1.76603 0
M  V30 3781 H 342.52 4.38195 -0.296935 0
M  V30 3782 H 343.126 3.81907 -1.87155 0
M  V30 3783 N 341.441 0.965919 1.2453 0
M  V30 3784 C 342.689 0.625593 1.92174 0
M  V30 3785 C 343.01 -0.841652 1.75901 0
M  V30 3786 O 342.28 -1.60061 1.12948 0
M  V30 3787 H 340.86 0.228388 0.71123 0
M  V30 3788 H 343.522 1.2266 1.51461 0
M  V30 3789 H 342.618 0.864653 2.99884 0
M  V30 3790 N 342.919 -1.39368 0.735821 0
M  V30 3791 C 343.869 -2.27885 0.0724287 0
M  V30 3792 C 344.853 -1.44301 -0.711756 0
M  V30 3793 O 346.045 -1.67206 -0.58063 0
M  V30 3794 C 343.174 -3.33029 -0.833454 0
M  V30 3795 C 342.26 -4.24078 -0.0433749 0
M  V30 3796 N 342.651 -4.96138 0.983903 0
M  V30 3797 C 340.949 -4.45164 -0.272905 0
M  V30 3798 C 341.65 -5.63069 1.4604 0
M  V30 3799 N 340.626 -5.37991 0.778857 0
M  V30 3800 H 344.428 -2.81052 0.859467 0
M  V30 3801 H 341.942 -1.5206 0.570227 0
M  V30 3802 H 343.939 -3.95311 -1.32419 0
M  V30 3803 H 342.599 -2.81421 -1.61964 0
M  V30 3804 H 343.61 -4.9958 1.36528 0
M  V30 3805 H 340.287 -4.04497 -1.03383 0
M  V30 3806 H 341.677 -6.30755 2.31511 0
M  V30 3807 N 344.397 -0.483516 -1.5 0
M  V30 3808 C 345.808 -0.0314176 -1.86674 0
M  V30 3809 C 346.159 1.37728 -1.39733 0
M  V30 3810 O 345.284 2.02327 -0.767635 0
M  V30 3811 C 345.879 -0.0502376 -3.38763 0
M  V30 3812 C 344.438 0.346442 -3.74802 0
M  V30 3813 C 343.585 -0.430366 -2.7394 0
M  V30 3814 H 346.536 -0.697182 -1.42566 0
M  V30 3815 H 346.557 0.749116 -3.73053 0
M  V30 3816 H 346.069 -1.07563 -3.72897 0
M  V30 3817 H 344.17 1.37572 -3.46273 0
M  V30 3818 H 344.283 0.0391486 -4.79084 0
M  V30 3819 H 342.647 0.117557 -2.54429 0
M  V30 3820 H 343.43 -1.4555 -3.10918 0
M  V30 3821 N 345.875 1.56104 -0.216619 0
M  V30 3822 C 347.124 1.97348 0.416744 0
M  V30 3823 C 347.437 1.10715 1.6125 0
M  V30 3824 O 348.643 1.41836 2.31506 0
M  V30 3825 C 347.099 3.51059 0.792835 0
M  V30 3826 C 346.707 4.46387 -0.379828 0
M  V30 3827 C 348.451 4.01026 1.39208 0
M  V30 3828 C 346.358 5.91397 0.0184223 0
M  V30 3829 H 345.288 0.736942 0.159475 0
M  V30 3830 H 347.939 1.80827 -0.31205 0
M  V30 3831 H 346.321 3.63162 1.57891 0
M  V30 3832 H 347.495 4.46029 -1.15737 0
M  V30 3833 H 345.81 4.06734 -0.891979 0
M  V30 3834 H 348.407 5.0686 1.70286 0
M  V30 3835 H 348.75 3.46587 2.30614 0
M  V30 3836 H 349.283 3.92125 0.669537 0
M  V30 3837 H 346.022 6.49807 -0.862002 0
M  V30 3838 H 345.542 5.94961 0.760384 0
M  V30 3839 H 347.221 6.45455 0.446818 0
M  V30 3840 N 347.353 -0.0568162 1.57498 0
M  V30 3841 C 348.599 -0.75422 1.88253 0
M  V30 3842 C 348.932 -1.76461 0.810865 0
M  V30 3843 O 348.207 -1.93691 -0.177259 0
M  V30 3844 C 348.49 -1.44878 3.2967 0
M  V30 3845 C 348.343 -0.453789 4.47505 0
M  V30 3846 C 349.662 -2.38994 3.69554 0
M  V30 3847 H 346.781 -0.272724 0.684683 0
M  V30 3848 H 349.423 -0.0172113 1.89992 0
M  V30 3849 H 347.573 -2.077 3.28318 0
M  V30 3850 H 349.245 0.170371 4.60985 0
M  V30 3851 H 347.488 0.229552 4.33192 0
M  V30 3852 H 348.159 -0.977699 5.43273 0
M  V30 3853 H 350.635 -1.86239 3.72095 0
M  V30 3854 H 349.511 -2.84587 4.69363 0
M  V30 3855 H 349.772 -3.24461 3.00296 0
M  V30 3856 N 348.832 -1.54138 -0.328536 0
M  V30 3857 C 350.062 -1.75807 -1.08516 0
M  V30 3858 C 350.47 -0.50428 -1.82356 0
M  V30 3859 O 349.813 0.534451 -1.75754 0
M  V30 3860 C 349.875 -2.89423 -2.13248 0
M  V30 3861 C 349.539 -4.28504 -1.5885 0
M  V30 3862 C 350.536 -5.09536 -1.03289 0
M  V30 3863 C 348.221 -4.75034 -1.63243 0
M  V30 3864 C 350.215 -6.35206 -0.52845 0
M  V30 3865 C 347.902 -6.00672 -1.12411 0
M  V30 3866 C 348.9 -6.80592 -0.573062 0
M  V30 3867 O 348.588 -8.03867 -0.0723692 0
M  V30 3868 H 348.32 -0.590633 -0.328829 0
M  V30 3869 H 350.874 -2.01819 -0.381868 0
M  V30 3870 H 349.104 -2.5897 -2.87178 0
M  V30 3871 H 350.793 -2.98921 -2.74592 0
M  V30 3872 H 351.559 -4.74745 -0.99206 0
M  V30 3873 H 347.438 -4.12875 -2.05074 0
M  V30 3874 H 350.982 -6.97532 -0.0976774 0
M  V30 3875 H 346.879 -6.34955 -1.162 0
M  V30 3876 H 347.647 -8.18283 -0.188258 0
M  V30 3877 N 350.31 0.590341 -1.46126 0
M  V30 3878 C 351.557 1.34882 -1.5104 0
M  V30 3879 C 351.885 1.93849 -0.159021 0
M  V30 3880 O 351.14 1.76544 0.844436 0
M  V30 3881 C 351.439 2.5032 -2.55097 0
M  V30 3882 C 351.105 2.09394 -3.99331 0
M  V30 3883 C 349.767 1.97947 -4.38601 0
M  V30 3884 C 352.119 1.77712 -4.89967 0
M  V30 3885 C 349.447 1.53065 -5.66381 0
M  V30 3886 C 351.799 1.34312 -6.18177 0
M  V30 3887 C 350.463 1.21436 -6.56361 0
M  V30 3888 H 349.733 0.493568 -0.552695 0
M  V30 3889 H 352.38 0.665539 -1.79563 0
M  V30 3890 H 350.685 3.24062 -2.20207 0
M  V30 3891 H 352.382 3.08541 -2.56132 0
M  V30 3892 H 348.972 2.19235 -3.68285 0
M  V30 3893 H 353.156 1.85445 -4.60352 0
M  V30 3894 H 348.412 1.41733 -5.94745 0
M  V30 3895 H 352.586 1.08849 -6.87841 0
M  V30 3896 H 350.213 0.864345 -7.5527 0
M  V30 3897 N 351.788 1.33704 0.83433 0
M  V30 3898 C 353.034 1.26612 1.59188 0
M  V30 3899 C 353.389 -0.165439 1.91687 0
M  V30 3900 O 352.682 -1.10873 1.56262 0
M  V30 3901 C 352.876 2.07926 2.90692 0
M  V30 3902 C 352.705 3.58844 2.71038 0
M  V30 3903 C 351.475 4.28148 2.68361 0
M  V30 3904 C 353.673 4.53082 2.43353 0
M  V30 3905 N 351.655 5.64987 2.40132 0
M  V30 3906 C 353.026 5.77843 2.24716 0
M  V30 3907 C 355.081 4.42119 2.28987 0
M  V30 3908 C 353.784 6.92877 1.9317 0
M  V30 3909 C 355.81 5.56973 1.98835 0
M  V30 3910 C 355.172 6.80745 1.81012 0
M  V30 3911 H 351.271 0.518517 0.585375 0
M  V30 3912 H 353.855 1.68294 0.979044 0
M  V30 3913 H 352.026 1.68558 3.49918 0
M  V30 3914 H 353.758 1.92568 3.55949 0
M  V30 3915 H 350.513 3.80469 2.82029 0
M  V30 3916 H 350.937 6.37133 2.28889 0
M  V30 3917 H 355.579 3.47058 2.41477 0
M  V30 3918 H 353.297 7.87931 1.79418 0
M  V30 3919 H 356.883 5.50428 1.88468 0
M  V30 3920 H 355.763 7.68115 1.58017 0
M  V30 3921 N 353.266 -1.05314 1.17247 0
M  V30 3922 C 354.196 -2.1498 0.911362 0
M  V30 3923 C 355.177 -1.69471 -0.146169 0
M  V30 3924 O 356.362 -1.942 0.003812 0
M  V30 3925 C 353.492 -3.4472 0.422528 0
M  V30 3926 C 352.446 -4.03789 1.4191 0
M  V30 3927 C 351.772 -5.28858 0.788274 0
M  V30 3928 C 353.072 -4.41418 2.7919 0
M  V30 3929 H 354.766 -2.3708 1.82848 0
M  V30 3930 H 352.312 -1.13938 0.880569 0
M  V30 3931 H 354.265 -4.20787 0.227289 0
M  V30 3932 H 352.989 -3.22269 -0.530123 0
M  V30 3933 H 351.648 -3.2979 1.60106 0
M  V30 3934 H 351.296 -5.02709 -0.171173 0
M  V30 3935 H 350.996 -5.69338 1.45353 0
M  V30 3936 H 352.52 -6.07612 0.603282 0
M  V30 3937 H 353.934 -5.08524 2.64719 0
M  V30 3938 H 352.331 -4.92913 3.42282 0
M  V30 3939 H 353.401 -3.51819 3.33693 0
M  V30 3940 N 354.744 -0.972509 -1.24016 0
M  V30 3941 C 355.674 -0.525548 -2.27509 0
M  V30 3942 C 356.655 0.437262 -1.64384 0
M  V30 3943 O 357.84 0.332343 -1.91335 0
M  V30 3944 C 354.97 0.180448 -3.46831 0
M  V30 3945 C 353.924 -0.698859 -4.22256 0
M  V30 3946 C 353.25 0.138903 -5.3452 0
M  V30 3947 C 354.55 -1.98582 -4.83076 0
M  V30 3948 H 356.244 -1.39058 -2.65148 0
M  V30 3949 H 353.79 -0.67009 -1.27459 0
M  V30 3950 H 355.743 0.504387 -4.18371 0
M  V30 3951 H 354.467 1.07987 -3.08231 0
M  V30 3952 H 353.126 -1.00614 -3.52523 0
M  V30 3953 H 352.774 1.03862 -4.9216 0
M  V30 3954 H 352.474 -0.446259 -5.85903 0
M  V30 3955 H 353.998 0.457404 -6.08884 0
M  V30 3956 H 355.412 -1.72715 -5.46665 0
M  V30 3957 H 353.809 -2.5181 -5.44713 0
M  V30 3958 H 354.879 -2.67769 -4.04262 0
M  V30 3959 N 356.222 1.38976 -0.743202 0
M  V30 3960 C 357.633 1.83123 -0.363732 0
M  V30 3961 C 357.984 1.6205 1.10609 0
M  V30 3962 O 357.109 1.11606 1.854 0
M  V30 3963 C 357.704 3.32439 -0.653408 0
M  V30 3964 C 356.263 3.74974 -0.327338 0
M  V30 3965 C 355.41 2.61878 -0.911875 0
M  V30 3966 H 358.361 1.27852 -0.940191 0
M  V30 3967 H 358.382 3.80432 0.0720031 0
M  V30 3968 H 357.894 3.47745 -1.72323 0
M  V30 3969 H 355.995 3.65252 0.736314 0
M  V30 3970 H 356.108 4.72106 -0.815631 0
M  V30 3971 H 354.472 2.52448 -0.337944 0
M  V30 3972 H 355.255 2.79987 -1.98651 0
M  V30 3973 N 357.7 0.491464 1.49741 0
M  V30 3974 C 358.663 -0.280906 2.27472 0
M  V30 3975 C 359.663 -0.902454 1.33088 0
M  V30 3976 O 360.853 -0.768465 1.56334 0
M  V30 3977 C 357.985 -1.40209 3.10732 0
M  V30 3978 H 359.178 0.401056 2.97206 0
M  V30 3979 H 356.731 0.246131 1.5435 0
M  V30 3980 H 357.466 -2.11849 2.45541 0
M  V30 3981 H 357.251 -0.961969 3.80117 0
M  V30 3982 H 358.741 -1.9464 3.69466 0
M  V30 3983 N 359.178 -1.55987 0.224894 0
M  V30 3984 C 360.408 -2.02489 -0.41007 0
M  V30 3985 C 360.816 -1.10391 -1.53657 0
M  V30 3986 O 360.159 -0.106458 -1.83391 0
M  V30 3987 C 360.221 -3.45319 -0.999757 0
M  V30 3988 C 359.885 -4.56999 -0.00827976 0
M  V30 3989 C 360.882 -5.13812 0.793314 0
M  V30 3990 C 358.567 -5.02176 0.111442 0
M  V30 3991 C 360.561 -6.14276 1.7013 0
M  V30 3992 C 358.248 -6.02477 1.02296 0
M  V30 3993 C 359.246 -6.58403 1.81643 0
M  V30 3994 O 358.934 -7.56751 2.71262 0
M  V30 3995 H 358.666 -0.667915 -0.104235 0
M  V30 3996 H 361.22 -2.0257 0.339782 0
M  V30 3997 H 359.45 -3.42318 -1.79876 0
M  V30 3998 H 361.139 -3.7545 -1.54248 0
M  V30 3999 H 361.905 -4.79756 0.711288 0
M  V30 4000 H 357.784 -4.58323 -0.49605 0
M  V30 4001 H 361.328 -6.57854 2.32107 0
M  V30 4002 H 357.225 -6.35954 1.10599 0
M  V30 4003 H 357.993 -7.74286 2.65375 0
M  V30 4004 N 360.656 0.0484629 -1.57525 0
M  V30 4005 C 361.619 1.03956 -2.04269 0
M  V30 4006 C 362.619 1.30211 -0.943496 0
M  V30 4007 O 363.809 1.25539 -1.20771 0
M  V30 4008 C 360.941 2.37742 -2.44319 0
M  V30 4009 H 362.134 0.636182 -2.93075 0
M  V30 4010 H 359.687 0.294811 -1.53494 0
M  V30 4011 H 360.422 2.82866 -1.5861 0
M  V30 4012 H 360.207 2.20021 -3.24551 0
M  V30 4013 H 361.697 3.08936 -2.80978 0
M  V30 4014 N 362.134 1.5431 0.320358 0
M  V30 4015 C 363.383 1.7188 1.05546 0
M  V30 4016 C 363.696 0.501143 1.89071 0
M  V30 4017 O 364.902 0.558258 2.65699 0
M  V30 4018 C 363.358 3.04025 1.92605 0
M  V30 4019 C 362.966 4.33207 1.14176 0
M  V30 4020 C 364.71 3.30959 2.65832 0
M  V30 4021 C 362.617 5.56412 2.00399 0
M  V30 4022 H 361.547 0.640547 0.397763 0
M  V30 4023 H 364.198 1.80802 0.313522 0
M  V30 4024 H 362.58 2.89019 2.7071 0
M  V30 4025 H 363.754 4.58989 0.40819 0
M  V30 4026 H 362.069 4.13062 0.526165 0
M  V30 4027 H 364.666 4.20203 3.30656 0
M  V30 4028 H 365.009 2.48979 3.33639 0
M  V30 4029 H 365.542 3.46847 1.94787 0
M  V30 4030 H 362.281 6.41004 1.37094 0
M  V30 4031 H 361.801 5.34844 2.7148 0
M  V30 4032 H 363.48 5.92938 2.58908 0
M  V30 4033 N 363.613 -0.582584 1.46437 0
M  V30 4034 C 364.862 -1.337 1.5102 0
M  V30 4035 C 365.175 -1.94891 0.166359 0
M  V30 4036 O 366.381 -2.71351 0.0899954 0
M  V30 4037 C 364.837 -2.42315 2.66104 0
M  V30 4038 C 364.445 -1.87427 4.06909 0
M  V30 4039 C 366.189 -3.19099 2.79958 0
M  V30 4040 C 364.096 -2.93672 5.13333 0
M  V30 4041 H 363.026 -0.502619 0.562041 0
M  V30 4042 H 365.677 -0.621701 1.72647 0
M  V30 4043 H 364.059 -3.16645 2.37807 0
M  V30 4044 H 365.233 -1.19639 4.44998 0
M  V30 4045 H 363.548 -1.2331 3.97723 0
M  V30 4046 H 366.145 -3.9839 3.56636 0
M  V30 4047 H 366.488 -3.71695 1.87479 0
M  V30 4048 H 367.021 -2.51875 3.07902 0
M  V30 4049 H 363.76 -2.45962 6.07604 0
M  V30 4050 H 363.28 -3.59948 4.79789 0
M  V30 4051 H 364.959 -3.5762 5.39182 0
M  V30 4052 N 365.091 -1.34144 -0.827227 0
M  V30 4053 C 366.321 -1.29138 -1.61267 0
M  V30 4054 C 366.729 0.137597 -1.88699 0
M  V30 4055 O 366.072 1.09379 -1.47587 0
M  V30 4056 C 366.134 -2.0097 -2.9808 0
M  V30 4057 C 365.798 -3.50242 -2.93563 0
M  V30 4058 C 366.795 -4.4523 -2.68452 0
M  V30 4059 C 364.48 -3.92592 -3.13331 0
M  V30 4060 C 366.474 -5.80542 -2.63154 0
M  V30 4061 C 364.161 -5.28005 -3.07658 0
M  V30 4062 C 365.159 -6.21792 -2.82602 0
M  V30 4063 O 364.847 -7.54723 -2.76853 0
M  V30 4064 H 364.579 -0.445851 -0.508127 0
M  V30 4065 H 367.133 -1.77263 -1.03763 0
M  V30 4066 H 365.363 -1.47451 -3.57484 0
M  V30 4067 H 367.052 -1.89309 -3.5905 0
M  V30 4068 H 367.818 -4.13832 -2.52919 0
M  V30 4069 H 363.697 -3.19994 -3.31851 0
M  V30 4070 H 367.241 -6.53717 -2.43516 0
M  V30 4071 H 363.138 -5.59023 -3.22743 0
M  V30 4072 H 363.906 -7.64409 -2.92611 0
M  V30 4073 N 366.569 1.04691 -1.17803 0
M  V30 4074 C 367.797 1.81446 -0.99423 0
M  V30 4075 C 368.212 1.83174 0.457459 0
M  V30 4076 O 367.569 1.26265 1.31771 0
M  V30 4077 C 367.62 3.27334 -1.5341 0
M  V30 4078 O 367.341 3.25798 -2.92895 0
M  V30 4079 C 368.842 4.20759 -1.39559 0
M  V30 4080 H 366.062 0.571599 -0.351447 0
M  V30 4081 H 368.606 1.31982 -1.56208 0
M  V30 4082 H 366.761 3.74052 -1.00815 0
M  V30 4083 H 367.175 4.17144 -3.17949 0
M  V30 4084 H 368.649 5.21084 -1.82141 0
M  V30 4085 H 369.126 4.37856 -0.343394 0
M  V30 4086 H 369.732 3.79901 -1.91195 0
M  V30 4087 N 368.047 0.979072 1.23499 0
M  V30 4088 C 369.296 0.642751 1.91185 0
M  V30 4089 C 369.609 -0.827253 1.77245 0
M  V30 4090 O 370.815 -1.27458 2.39722 0
M  V30 4091 C 369.271 1.09901 3.42709 0
M  V30 4092 C 368.879 2.59327 3.65313 0
M  V30 4093 C 370.623 0.836371 4.16179 0
M  V30 4094 C 368.53 2.98627 5.10467 0
M  V30 4095 H 367.46 0.236698 0.715884 0
M  V30 4096 H 370.111 1.1868 1.39955 0
M  V30 4097 H 368.493 0.48319 3.93041 0
M  V30 4098 H 369.667 3.26136 3.25533 0
M  V30 4099 H 367.982 2.83323 3.05151 0
M  V30 4100 H 370.579 1.10586 5.23139 0
M  V30 4101 H 370.922 -0.227509 4.15678 0
M  V30 4102 H 371.455 1.41371 3.71832 0
M  V30 4103 H 368.194 4.04133 5.16098 0
M  V30 4104 H 367.714 2.3651 5.51201 0
M  V30 4105 H 369.393 2.89159 5.78788 0
M  V30 4106 N 369.525 -1.3858 0.750561 0
M  V30 4107 C 370.455 -2.33102 0.136237 0
M  V30 4108 C 371.436 -1.54713 -0.706965 0
M  V30 4109 O 372.621 -1.83043 -0.648769 0
M  V30 4110 C 369.751 -3.38882 -0.760017 0
M  V30 4111 C 368.705 -4.27995 -0.0197785 0
M  V30 4112 C 368.031 -5.24605 -1.03408 0
M  V30 4113 C 369.331 -5.09554 1.14684 0
M  V30 4114 H 371.025 -2.84726 0.925822 0
M  V30 4115 H 368.571 -1.36898 0.446654 0
M  V30 4116 H 370.524 -4.0397 -1.19943 0
M  V30 4117 H 369.248 -2.85734 -1.58189 0
M  V30 4118 H 367.907 -3.64409 0.400184 0
M  V30 4119 H 367.555 -4.67746 -1.84994 0
M  V30 4120 H 367.255 -5.85081 -0.543464 0
M  V30 4121 H 368.779 -5.9257 -1.47288 0
M  V30 4122 H 370.193 -5.67899 0.785118 0
M  V30 4123 H 368.59 -5.7925 1.56812 0
M  V30 4124 H 369.66 -4.4347 1.96118 0
M  V30 4125 N 371.003 -0.499398 -1.49478 0
M  V30 4126 C 372.414 -0.051215 -1.8663 0
M  V30 4127 C 372.765 1.36238 -1.41186 0
M  V30 4128 O 371.89 2.01502 -0.789051 0
M  V30 4129 C 372.485 -0.0861651 -3.3869 0
M  V30 4130 C 371.044 0.30667 -3.75149 0
M  V30 4131 C 370.191 -0.459397 -2.73468 0
M  V30 4132 H 373.142 -0.712264 -1.41818 0
M  V30 4133 H 373.163 0.709507 -3.73826 0
M  V30 4134 H 372.675 -1.11512 -3.71735 0
M  V30 4135 H 370.776 1.33892 -3.47712 0
M  V30 4136 H 370.889 -0.0116669 -4.79099 0
M  V30 4137 H 369.253 0.0905645 -2.54539 0
M  V30 4138 H 370.036 -1.4884 -3.09357 0
M  V30 4139 N 372.481 1.55866 -0.233164 0
M  V30 4140 C 373.428 2.20796 0.67215 0
M  V30 4141 C 374.398 1.16731 1.18166 0
M  V30 4142 O 375.583 1.45129 1.23864 0
M  V30 4143 C 372.723 2.90072 1.86955 0
M  V30 4144 C 371.836 4.08759 1.39786 0
M  V30 4145 C 370.971 4.65787 2.55374 0
M  V30 4146 C 370.01 5.76752 2.04998 0
M  V30 4147 N 369.147 6.28021 3.13901 0
M  V30 4148 H 373.987 2.9779 0.111749 0
M  V30 4149 H 371.524 1.47036 0.0434007 0
M  V30 4150 H 373.482 3.28428 2.57276 0
M  V30 4151 H 372.112 2.15575 2.40265 0
M  V30 4152 H 371.164 3.7581 0.589173 0
M  V30 4153 H 372.476 4.88906 0.98856 0
M  V30 4154 H 371.63 5.06646 3.33758 0
M  V30 4155 H 370.369 3.84828 2.99598 0
M  V30 4156 H 369.374 5.35383 1.25079 0
M  V30 4157 H 370.599 6.59553 1.61759 0
M  V30 4158 H 368.545 5.49971 3.57586 0
M  V30 4159 H 368.462 7.03323 2.7726 0
M  V30 4160 H 369.73 6.73538 3.92386 0
M  V30 4161 N 373.959 -0.0401083 1.57549 0
M  V30 4162 C 374.891 -1.07149 2.02612 0
M  V30 4163 C 375.904 -1.33126 0.937085 0
M  V30 4164 O 377.093 -1.30808 1.21456 0
M  V30 4165 C 374.193 -2.41561 2.37701 0
M  V30 4166 C 373.366 -2.35096 3.68848 0
M  V30 4167 C 372.425 -3.51867 3.91249 0
M  V30 4168 O 371.451 -3.3186 4.62447 0
M  V30 4169 N 372.653 -4.73351 3.36035 0
M  V30 4170 H 375.418 -0.687485 2.91708 0
M  V30 4171 H 372.979 -0.228248 1.60283 0
M  V30 4172 H 374.971 -3.18379 2.49833 0
M  V30 4173 H 373.541 -2.71846 1.54332 0
M  V30 4174 H 372.761 -1.4345 3.67173 0
M  V30 4175 H 374.049 -2.27908 4.54901 0
M  V30 4176 H 373.447 -4.92507 2.78304 0
M  V30 4177 H 372.004 -5.47572 3.53565 0
M  V30 4178 N 375.437 -1.54477 -0.31217 0
M  V30 4179 C 376.4 -1.83923 -1.36766 0
M  V30 4180 C 377.4 -0.711563 -1.44199 0
M  V30 4181 O 378.59 -0.979866 -1.44029 0
M  V30 4182 C 375.722 -2.0095 -2.75376 0
M  V30 4183 H 376.915 -2.78239 -1.11906 0
M  V30 4184 H 374.468 -1.46369 -0.548257 0
M  V30 4185 H 375.203 -1.08883 -3.05475 0
M  V30 4186 H 374.988 -2.83018 -2.71373 0
M  V30 4187 H 376.478 -2.2514 -3.51713 0
M  V30 4188 N 376.915 0.57481 -1.46744 0
M  V30 4189 C 378.163 1.33009 -1.52161 0
M  V30 4190 C 378.484 1.94185 -0.178092 0
M  V30 4191 O 377.754 1.7899 0.796196 0
M  V30 4192 H 376.334 0.493873 -0.560445 0
M  V30 4193 H 378.996 0.672589 -1.82927 0
M  V30 4194 H 378.092 2.13273 -2.27862 0
M  V30 4195 N 378.394 1.34581 0.820102 0
M  V30 4196 C 379.642 1.26845 1.57336 0
M  V30 4197 C 379.963 -0.160667 1.94337 0
M  V30 4198 O 379.233 -1.09396 1.6251 0
M  V30 4199 H 377.813 0.466514 0.583415 0
M  V30 4200 H 380.475 1.68526 0.979027 0
M  V30 4201 H 379.571 1.87513 2.4949 0
M  V30 4202 N 379.872 -1.04064 1.18357 0
M  V30 4203 C 380.819 -2.12077 0.910603 0
M  V30 4204 C 381.789 -1.65421 -0.15 0
M  V30 4205 O 382.974 -1.90797 -0.0103614 0
M  V30 4206 C 380.114 -3.42252 0.442472 0
M  V30 4207 C 379.227 -4.0252 1.5685 0
M  V30 4208 C 378.362 -5.20657 1.05309 0
M  V30 4209 C 377.401 -5.72955 2.1538 0
M  V30 4210 N 376.538 -6.8238 1.65233 0
M  V30 4211 H 381.378 -2.34764 1.83548 0
M  V30 4212 H 378.915 -1.15157 0.915279 0
M  V30 4213 H 380.873 -4.16921 0.152534 0
M  V30 4214 H 379.503 -3.19712 -0.445428 0
M  V30 4215 H 378.555 -3.25178 1.97391 0
M  V30 4216 H 379.867 -4.37362 2.39824 0
M  V30 4217 H 379.021 -6.0244 0.717677 0
M  V30 4218 H 377.76 -4.87318 0.19293 0
M  V30 4219 H 376.765 -4.89793 2.49766 0
M  V30 4220 H 377.99 -6.08337 3.01832 0
M  V30 4221 H 375.936 -6.50917 0.815064 0
M  V30 4222 H 375.853 -7.16286 2.41805 0
M  V30 4223 H 377.121 -7.67788 1.34619 0
M  V30 4224 N 381.35 -0.985608 -1.22978 0
M  V30 4225 C 382.28 -0.549649 -2.26939 0
M  V30 4226 C 383.261 0.419803 -1.64838 0
M  V30 4227 O 384.446 0.31203 -1.91677 0
M  V30 4228 C 381.576 0.143652 -3.47003 0
M  V30 4229 C 380.53 -0.743606 -4.21491 0
M  V30 4230 C 379.856 0.0822027 -5.34637 0
M  V30 4231 C 381.156 -2.03694 -4.80943 0
M  V30 4232 H 382.85 -1.41862 -2.63658 0
M  V30 4233 H 380.396 -0.683571 -1.26741 0
M  V30 4234 H 382.349 0.459985 -4.18882 0
M  V30 4235 H 381.073 1.04711 -3.09359 0
M  V30 4236 H 379.732 -1.04347 -3.51436 0
M  V30 4237 H 379.38 0.986359 -4.93234 0
M  V30 4238 H 379.08 -0.508377 -5.85397 0
M  V30 4239 H 380.604 0.392797 -6.09335 0
M  V30 4240 H 382.018 -1.78504 -5.44802 0
M  V30 4241 H 380.415 -2.57573 -5.42011 0
M  V30 4242 H 381.485 -2.72042 -4.01399 0
M  V30 4243 N 382.828 1.3818 -0.7579 0
M  V30 4244 C 384.074 2.00316 -0.316453 0
M  V30 4245 C 384.407 1.60026 1.10025 0
M  V30 4246 O 383.682 0.839835 1.75434 0
M  V30 4247 C 383.965 3.57349 -0.444245 0
M  V30 4248 C 383.818 4.07591 -1.90236 0
M  V30 4249 C 385.137 4.3981 0.1598 0
M  V30 4250 H 382.256 0.727741 -0.116459 0
M  V30 4251 H 384.898 1.6406 -0.958352 0
M  V30 4252 H 383.048 3.88365 0.102233 0
M  V30 4253 H 384.72 3.87199 -2.50748 0
M  V30 4254 H 382.963 3.60297 -2.41595 0
M  V30 4255 H 383.634 5.16677 -1.94291 0
M  V30 4256 H 386.11 4.14971 -0.306314 0
M  V30 4257 H 384.986 5.48885 0.0401675 0
M  V30 4258 H 385.247 4.24102 1.24859 0
M  V30 4259 N 384.306 0.507319 1.49211 0
M  V30 4260 C 385.531 -0.033725 2.07373 0
M  V30 4261 C 385.956 -1.29485 1.36437 0
M  V30 4262 O 385.314 -1.76294 0.423087 0
M  V30 4263 C 385.362 -0.263945 3.59633 0
M  V30 4264 O 384.466 -1.33737 3.90113 0
M  V30 4265 H 383.807 0.0290331 0.663365 0
M  V30 4266 H 386.337 0.708749 1.91932 0
M  V30 4267 H 386.347 -0.493536 4.05004 0
M  V30 4268 H 385.022 0.657424 4.10671 0
M  V30 4269 H 383.599 -1.09224 3.56545 0
M  V30 4270 N 385.784 -1.5574 0.241426 0
M  V30 4271 C 387.061 -1.90704 -0.434881 0
M  V30 4272 C 387.441 -1.16145 -1.76277 0
M  V30 4273 O 386.789 -0.277152 -2.26813 0
M  V30 4274 C 386.999 -3.43657 -0.608343 0
M  V30 4275 C 388.347 -4.14806 -0.906725 0
M  V30 4276 O 389.371 -3.49366 -0.694408 0
M  V30 4277 O 388.23 -5.30548 -1.31075 0
M  V30 4278 H 385.324 -0.793592 -0.23268 0
M  V30 4279 H 387.87 -1.67288 0.285086 0
M  V30 4280 H 386.642 -3.89927 0.327505 0
M  V30 4281 H 386.265 -3.72918 -1.37906 0
M  V30 4282 N 387.262 0.0317525 -1.57568 0
M  V30 4283 C 388.673 0.578692 -1.77505 0
M  V30 4284 C 389.024 1.75749 -0.872164 0
M  V30 4285 O 388.149 2.16298 -0.0663106 0
M  V30 4286 C 388.744 1.05658 -3.21904 0
M  V30 4287 C 387.303 1.54906 -3.43047 0
M  V30 4288 C 386.45 0.485939 -2.73009 0
M  V30 4289 H 389.401 -0.194475 -1.57504 0
M  V30 4290 H 389.422 1.92404 -3.28269 0
M  V30 4291 H 388.934 0.198422 -3.87592 0
M  V30 4292 H 387.035 2.42915 -2.82529 0
M  V30 4293 H 387.148 1.59841 -4.5165 0
M  V30 4294 H 385.512 0.940354 -2.36705 0
M  V30 4295 H 386.295 -0.362709 -3.41379 0
M  V30 4296 N 388.74 1.54641 0.303973 0
M  V30 4297 C 389.673 1.80263 1.3993 0
M  V30 4298 C 390.651 0.653657 1.48883 0
M  V30 4299 O 391.835 0.893284 1.6599 0
M  V30 4300 C 388.962 1.9367 2.77866 0
M  V30 4301 C 388.008 3.16078 2.86351 0
M  V30 4302 S 388.841 4.74219 2.4875 0
M  V30 4303 C 389.997 4.90558 3.88721 0
M  V30 4304 H 390.23 2.72886 1.17986 0
M  V30 4305 H 387.763 1.46014 0.501918 0
M  V30 4306 H 389.721 2.0208 3.57315 0
M  V30 4307 H 388.382 1.01991 2.9708 0
M  V30 4308 H 387.575 3.22252 3.87517 0
M  V30 4309 H 387.177 3.06099 2.14893 0
M  V30 4310 H 389.469 4.74398 4.83687 0
M  V30 4311 H 390.412 5.92651 3.87518 0
M  V30 4312 H 390.82 4.18728 3.78585 0
M  V30 4313 N 390.218 -0.567019 1.47046 0
M  V30 4314 C 391.181 -1.65696 1.58359 0
M  V30 4315 C 392.181 -1.54097 0.459441 0
M  V30 4316 O 393.371 -1.58432 0.724225 0
M  V30 4317 C 390.503 -3.05197 1.51879 0
M  V30 4318 H 391.696 -1.57019 2.5551 0
M  V30 4319 H 389.249 -0.786148 1.3509 0
M  V30 4320 H 389.984 -3.19417 0.560673 0
M  V30 4321 H 389.769 -3.15025 2.33455 0
M  V30 4322 H 391.259 -3.84511 1.62913 0
M  V30 4323 N 391.696 -1.35014 -0.812953 0
M  V30 4324 C 393.112 -1.14914 -1.10757 0
M  V30 4325 C 393.312 0.0426818 -2.01455 0
M  V30 4326 O 392.368 0.715212 -2.42159 0
M  V30 4327 C 393.681 -2.44911 -1.74468 0
M  V30 4328 C 395.229 -2.5106 -1.86917 0
M  V30 4329 C 395.704 -3.81085 -2.54044 0
M  V30 4330 N 397.195 -3.82301 -2.61535 0
M  V30 4331 C 397.93 -4.79634 -3.14227 0
M  V30 4332 N 397.426 -5.87353 -3.67407 0
M  V30 4333 N 399.219 -4.67078 -3.12721 0
M  V30 4334 H 391.37 -2.1136 -0.20989 0
M  V30 4335 H 393.633 -0.935128 -0.155692 0
M  V30 4336 H 393.339 -3.32267 -1.15289 0
M  V30 4337 H 393.213 -2.58989 -2.74234 0
M  V30 4338 H 395.6 -1.64137 -2.45241 0
M  V30 4339 H 395.681 -2.40901 -0.860242 0
M  V30 4340 H 395.325 -4.68402 -1.96372 0
M  V30 4341 H 395.255 -3.88529 -3.55461 0
M  V30 4342 H 397.746 -3.04465 -2.23851 0
M  V30 4343 H 398.059 -6.57624 -4.05894 0
M  V30 4344 H 396.404 -5.91054 -3.65623 0
M  V30 4345 H 399.595 -3.82067 -2.70449 0
M  V30 4346 H 399.768 -5.43098 -3.53481 0
M  V30 4347 N 393.175 1.03435 -1.18907 0
M  V30 4348 C 394.105 2.13503 -0.945448 0
M  V30 4349 C 395.086 1.69682 0.119189 0
M  V30 4350 O 396.271 1.94169 -0.034707 0
M  V30 4351 C 393.401 3.44004 -0.477316 0
M  V30 4352 C 392.355 4.0148 -1.48316 0
M  V30 4353 C 391.681 5.27537 -0.872311 0
M  V30 4354 C 392.981 4.36921 -2.86177 0
M  V30 4355 H 394.675 2.34141 -1.86597 0
M  V30 4356 H 392.221 1.12523 -0.898584 0
M  V30 4357 H 394.174 4.20372 -0.294204 0
M  V30 4358 H 392.898 3.23072 0.478786 0
M  V30 4359 H 391.557 3.27201 -1.65332 0
M  V30 4360 H 391.205 5.02917 0.0911752 0
M  V30 4361 H 390.905 5.66954 -1.54393 0
M  V30 4362 H 392.429 6.06576 -0.699871 0
M  V30 4363 H 393.843 5.04248 -2.72776 0
M  V30 4364 H 392.24 4.87405 -3.50081 0
M  V30 4365 H 393.31 3.46466 -3.39248 0
M  V30 4366 N 394.653 0.992116 1.22453 0
M  V30 4367 C 395.616 0.546883 2.2258 0
M  V30 4368 C 396.616 -0.369829 1.56489 0
M  V30 4369 O 397.806 -0.161896 1.73446 0
M  V30 4370 C 394.938 -0.204659 3.40285 0
M  V30 4371 H 396.131 1.43234 2.63484 0
M  V30 4372 H 393.684 0.779239 1.3549 0
M  V30 4373 H 394.419 -1.10614 3.04853 0
M  V30 4374 H 394.204 0.45354 3.89468 0
M  V30 4375 H 395.694 -0.504358 4.14543 0
M  V30 4376 N 396.131 -1.37776 0.765217 0
M  V30 4377 C 397.378 -1.99849 0.326588 0
M  V30 4378 C 397.706 -1.60746 -1.09504 0
M  V30 4379 O 396.961 -0.84202 -1.76659 0
M  V30 4380 C 397.26 -3.5504 0.410053 0
M  V30 4381 C 396.926 -4.13891 1.78899 0
M  V30 4382 C 395.588 -4.29678 2.16635 0
M  V30 4383 C 397.94 -4.46236 2.69301 0
M  V30 4384 C 395.268 -4.7511 3.44221 0
M  V30 4385 C 397.62 -4.93089 3.9629 0
M  V30 4386 C 396.284 -5.07082 4.34078 0
M  V30 4387 H 395.554 -0.7313 0.119507 0
M  V30 4388 H 398.201 -1.64645 0.977968 0
M  V30 4389 H 396.506 -3.90451 -0.324878 0
M  V30 4390 H 398.203 -4.00966 0.0520699 0
M  V30 4391 H 394.793 -4.02026 1.48569 0
M  V30 4392 H 398.977 -4.3363 2.41409 0
M  V30 4393 H 394.233 -4.84129 3.73402 0
M  V30 4394 H 398.407 -5.17084 4.66472 0
M  V30 4395 H 396.034 -5.42046 5.33001 0
M  V30 4396 N 397.609 -0.515225 -1.4894 0
M  V30 4397 C 398.539 0.244628 -2.32215 0
M  V30 4398 C 399.52 0.949136 -1.41157 0
M  V30 4399 O 400.705 0.937783 -1.70057 0
M  V30 4400 C 397.835 1.30096 -3.22013 0
M  V30 4401 C 396.789 0.715486 -4.21977 0
M  V30 4402 C 396.115 1.87339 -5.00808 0
M  V30 4403 C 397.415 -0.302982 -5.2142 0
M  V30 4404 H 399.109 -0.450501 -2.95991 0
M  V30 4405 H 396.655 -0.218098 -1.42339 0
M  V30 4406 H 398.608 1.84037 -3.79089 0
M  V30 4407 H 397.332 2.02547 -2.56207 0
M  V30 4408 H 395.991 0.197715 -3.66066 0
M  V30 4409 H 395.639 2.58592 -4.31438 0
M  V30 4410 H 395.339 1.48764 -5.68457 0
M  V30 4411 H 396.863 2.41686 -5.60732 0
M  V30 4412 H 398.277 0.148802 -5.73107 0
M  V30 4413 H 396.674 -0.60532 -5.97039 0
M  V30 4414 H 397.744 -1.21395 -4.69459 0
M  V30 4415 N 399.087 1.5561 -0.249682 0
M  V30 4416 C 400.017 2.24477 0.642826 0
M  V30 4417 C 400.998 1.22601 1.17911 0
M  V30 4418 O 402.183 1.5126 1.21795 0
M  V30 4419 C 399.313 2.94638 1.83863 0
M  V30 4420 C 398.267 4.03227 1.435 0
M  V30 4421 C 397.593 4.60828 2.71186 0
M  V30 4422 C 398.893 5.18796 0.604002 0
M  V30 4423 H 400.587 2.99321 0.0685625 0
M  V30 4424 H 398.133 1.43965 0.0315363 0
M  V30 4425 H 400.086 3.41517 2.46868 0
M  V30 4426 H 398.81 2.17287 2.43832 0
M  V30 4427 H 397.469 3.57121 0.828275 0
M  V30 4428 H 397.117 3.80174 3.29358 0
M  V30 4429 H 396.817 5.34132 2.44901 0
M  V30 4430 H 398.341 5.10442 3.35084 0
M  V30 4431 H 399.755 5.61883 1.13842 0
M  V30 4432 H 398.152 5.98506 0.437097 0
M  V30 4433 H 399.222 4.83384 -0.383147 0
M  V30 4434 N 400.565 -0.0233959 1.57583 0
M  V30 4435 C 401.812 -0.713063 1.8953 0
M  V30 4436 C 402.14 -1.75056 0.847673 0
M  V30 4437 O 401.395 -1.95119 -0.150636 0
M  V30 4438 C 401.694 -1.41428 3.28227 0
M  V30 4439 C 401.36 -0.512222 4.47981 0
M  V30 4440 C 400.022 -0.263785 4.80476 0
M  V30 4441 C 402.374 0.110248 5.21083 0
M  V30 4442 C 399.702 0.615804 5.83459 0
M  V30 4443 C 402.054 0.977573 6.25001 0
M  V30 4444 C 400.718 1.23542 6.55968 0
M  V30 4445 H 399.988 -0.260928 0.69354 0
M  V30 4446 H 402.635 0.0271047 1.91481 0
M  V30 4447 H 400.94 -2.22791 3.22291 0
M  V30 4448 H 402.637 -1.95355 3.50196 0
M  V30 4449 H 399.227 -0.716013 4.22577 0
M  V30 4450 H 403.411 -0.0687137 4.96252 0
M  V30 4451 H 398.667 0.82382 6.05824 0
M  V30 4452 H 402.841 1.46638 6.80786 0
M  V30 4453 H 400.468 1.91871 7.35588 0
M  V30 4454 N 402.043 -1.548 -0.295768 0
M  V30 4455 C 402.973 -1.89115 -1.36959 0
M  V30 4456 C 403.954 -0.75059 -1.52644 0
M  V30 4457 O 405.139 -1.00678 -1.66065 0
M  V30 4458 C 402.269 -2.14307 -2.73295 0
M  V30 4459 C 401.223 -3.30151 -2.72368 0
M  V30 4460 C 400.549 -3.40772 -4.12042 0
M  V30 4461 C 401.849 -4.67126 -2.33646 0
M  V30 4462 H 403.543 -2.79053 -1.08488 0
M  V30 4463 H 401.089 -1.34266 -0.520443 0
M  V30 4464 H 403.042 -2.36898 -3.48507 0
M  V30 4465 H 401.766 -1.21145 -3.03301 0
M  V30 4466 H 400.425 -3.0749 -1.99613 0
M  V30 4467 H 400.073 -2.45117 -4.39234 0
M  V30 4468 H 399.773 -4.18645 -4.12322 0
M  V30 4469 H 401.297 -3.6563 -4.89027 0
M  V30 4470 H 402.711 -4.89414 -2.98575 0
M  V30 4471 H 401.108 -5.47751 -2.45129 0
M  V30 4472 H 402.178 -4.67489 -1.28772 0
M  V30 4473 N 403.521 0.559213 -1.47345 0
M  V30 4474 C 404.451 1.67622 -1.62558 0
M  V30 4475 C 405.432 1.63331 -0.475087 0
M  V30 4476 O 406.617 1.80983 -0.704182 0
M  V30 4477 C 403.747 3.0626 -1.63774 0
M  V30 4478 C 402.701 3.25397 -2.7803 0
M  V30 4479 C 402.027 4.64801 -2.64318 0
M  V30 4480 C 403.327 3.10965 -4.19641 0
M  V30 4481 H 405.021 1.55146 -2.56067 0
M  V30 4482 H 402.567 0.744961 -1.23233 0
M  V30 4483 H 404.52 3.84247 -1.73008 0
M  V30 4484 H 403.244 3.1969 -0.66825 0
M  V30 4485 H 401.903 2.49817 -2.68304 0
M  V30 4486 H 401.551 4.75028 -1.65401 0
M  V30 4487 H 401.251 4.78555 -3.40968 0
M  V30 4488 H 402.775 5.44926 -2.75478 0
M  V30 4489 H 404.189 3.78772 -4.30354 0
M  V30 4490 H 402.586 3.36229 -4.97062 0
M  V30 4491 H 403.656 2.07736 -4.38148 0
M  V30 4492 N 404.999 1.35443 0.805782 0
M  V30 4493 C 405.929 1.31095 1.93226 0
M  V30 4494 C 406.91 0.185244 1.69088 0
M  V30 4495 O 408.095 0.380332 1.90439 0
M  V30 4496 C 405.225 1.08299 3.29983 0
M  V30 4497 C 404.179 2.17519 3.68605 0
M  V30 4498 C 403.505 1.79887 5.03532 0
M  V30 4499 C 404.805 3.5949 3.78898 0
M  V30 4500 H 406.499 2.25352 1.97122 0
M  V30 4501 H 404.045 1.0848 0.946996 0
M  V30 4502 H 405.998 1.03897 4.08391 0
M  V30 4503 H 404.722 0.104885 3.26432 0
M  V30 4504 H 403.381 2.2102 2.92482 0
M  V30 4505 H 403.029 0.80693 4.96485 0
M  V30 4506 H 402.729 2.53001 5.30344 0
M  V30 4507 H 404.253 1.77011 5.84379 0
M  V30 4508 H 405.667 3.58307 4.47536 0
M  V30 4509 H 404.064 4.31371 4.1718 0
M  V30 4510 H 405.134 3.95584 2.80431 0
M  V30 4511 N 406.477 -1.02803 1.19454 0
M  V30 4512 C 407.702 -1.80378 1.02364 0
M  V30 4513 C 408.127 -1.83282 -0.423007 0
M  V30 4514 O 407.485 -1.25945 -1.30413 0
M  V30 4515 C 407.533 -3.23248 1.59821 0
M  V30 4516 O 406.637 -4.04 0.828105 0
M  V30 4517 H 405.978 -0.556799 0.361761 0
M  V30 4518 H 408.508 -1.29385 1.58495 0
M  V30 4519 H 408.518 -3.73994 1.63073 0
M  V30 4520 H 407.193 -3.2045 2.65113 0
M  V30 4521 H 405.77 -3.62635 0.86891 0
M  V30 4522 N 407.956 -0.998596 -1.21925 0
M  V30 4523 C 409.184 -0.696286 -1.94832 0
M  V30 4524 C 409.599 0.740032 -1.73692 0
M  V30 4525 O 408.956 1.5 -1.03953 0
M  V30 4526 C 409.007 -0.999833 -3.47398 0
M  V30 4527 O 408.728 -2.37972 -3.67833 0
M  V30 4528 C 410.229 -0.716025 -4.37479 0
M  V30 4529 H 407.449 -0.257111 -0.619786 0
M  V30 4530 H 409.993 -1.33491 -1.54921 0
M  V30 4531 H 408.148 -0.406918 -3.85257 0
M  V30 4532 H 408.562 -2.48338 -4.61983 0
M  V30 4533 H 410.036 -0.978642 -5.43256 0
M  V30 4534 H 410.513 0.349968 -4.37803 0
M  V30 4535 H 411.119 -1.29025 -4.05256 0
M  V30 4536 N 409.434 1.37368 -0.772513 0
M  V30 4537 C 410.845 1.8231 -0.402493 0
M  V30 4538 C 411.196 1.6436 1.07146 0
M  V30 4539 O 410.321 1.15514 1.82991 0
M  V30 4540 C 410.916 3.30979 -0.723776 0
M  V30 4541 C 409.475 3.74195 -0.406802 0
M  V30 4542 C 408.622 2.59885 -0.967218 0
M  V30 4543 H 411.573 1.25829 -0.967099 0
M  V30 4544 H 411.594 3.80499 -0.00870832 0
M  V30 4545 H 411.106 3.44011 -1.7966 0
M  V30 4546 H 409.207 3.66732 0.658673 0
M  V30 4547 H 409.32 4.7027 -0.915588 0
M  V30 4548 H 407.684 2.51674 -0.391416 0
M  V30 4549 H 408.467 2.7571 -2.04546 0
M  V30 4550 N 410.912 0.523116 1.48665 0
M  V30 4551 C 412.158 -0.0134963 2.02796 0
M  V30 4552 C 412.491 -1.34582 1.40004 0
M  V30 4553 O 411.766 -1.86756 0.543381 0
M  V30 4554 C 412.049 -0.14276 3.59817 0
M  V30 4555 C 411.902 1.21425 4.331 0
M  V30 4556 C 413.221 -0.872856 4.31357 0
M  V30 4557 H 410.34 -0.00343074 0.736992 0
M  V30 4558 H 412.982 0.678816 1.7746 0
M  V30 4559 H 411.132 -0.732401 3.81534 0
M  V30 4560 H 412.804 1.84447 4.2282 0
M  V30 4561 H 411.047 1.79791 3.94788 0
M  V30 4562 H 411.718 1.07687 5.41394 0
M  V30 4563 H 414.194 -0.372555 4.14429 0
M  V30 4564 H 413.07 -0.932185 5.40927 0
M  V30 4565 H 413.331 -1.92161 3.98154 0
M  V30 4566 N 412.39 -1.55475 0.257931 0
M  V30 4567 C 413.638 -1.98813 -0.363009 0
M  V30 4568 C 413.959 -1.14757 -1.57657 0
M  V30 4569 O 413.229 -0.232956 -1.9451 0
M  V30 4570 H 411.809 -0.734308 -0.137113 0
M  V30 4571 H 414.471 -1.9156 0.359281 0
M  V30 4572 H 413.567 -3.04941 -0.664634 0
M  V30 4573 N 413.868 0.0150385 -1.57593 0
M  V30 4574 C 415.115 0.703001 -1.89906 0
M  V30 4575 C 415.443 1.74604 -0.856944 0
M  V30 4576 O 414.698 1.95197 0.140287 0
M  V30 4577 C 414.997 1.39686 -3.28972 0
M  V30 4578 C 414.663 0.488457 -4.48246 0
M  V30 4579 C 413.325 0.2383 -4.8061 0
M  V30 4580 C 415.677 -0.137881 -5.21018 0
M  V30 4581 C 413.005 -0.646738 -5.83125 0
M  V30 4582 C 415.357 -1.0107 -6.24474 0
M  V30 4583 C 414.021 -1.27019 -6.55303 0
M  V30 4584 H 413.291 0.257246 -0.694914 0
M  V30 4585 H 415.938 -0.037259 -1.91464 0
M  V30 4586 H 414.243 2.21079 -3.23468 0
M  V30 4587 H 415.94 1.93495 -3.51227 0
M  V30 4588 H 412.53 0.693593 -4.22951 0
M  V30 4589 H 416.714 0.0423953 -4.96282 0
M  V30 4590 H 411.97 -0.855937 -6.05379 0
M  V30 4591 H 416.144 -1.50247 -6.79999 0
M  V30 4592 H 413.771 -1.95769 -7.3456 0
M  V30 4593 N 415.346 1.54954 0.287554 0
M  V30 4594 C 416.296 1.8322 1.357 0
M  V30 4595 C 417.28 0.690152 1.45347 0
M  V30 4596 O 418.472 0.951137 1.49273 0
M  V30 4597 C 415.601 2.09481 2.71979 0
M  V30 4598 C 414.687 3.29906 2.66502 0
M  V30 4599 N 415.078 4.50154 2.30641 0
M  V30 4600 C 413.376 3.32203 2.97585 0
M  V30 4601 C 414.077 5.32209 2.34794 0
M  V30 4602 N 413.053 4.70258 2.72688 0
M  V30 4603 H 416.855 2.73746 1.0696 0
M  V30 4604 H 414.369 1.54635 0.496167 0
M  V30 4605 H 416.366 2.27882 3.49107 0
M  V30 4606 H 415.026 1.2023 3.0162 0
M  V30 4607 H 416.037 4.76515 2.02865 0
M  V30 4608 H 412.714 2.53101 3.32034 0
M  V30 4609 H 414.104 6.38321 2.09753 0
M  V30 4610 N 416.824 -0.551391 1.4764 0
M  V30 4611 C 417.774 -1.65362 1.56969 0
M  V30 4612 C 418.758 -1.55098 0.428189 0
M  V30 4613 O 419.95 -1.63481 0.678441 0
M  V30 4614 C 417.079 -3.04129 1.59249 0
M  V30 4615 C 416.165 -3.19576 2.78804 0
M  V30 4616 N 416.556 -3.05067 4.03445 0
M  V30 4617 C 414.854 -3.50588 2.75688 0
M  V30 4618 C 415.555 -3.2336 4.83543 0
M  V30 4619 N 414.531 -3.4996 4.15968 0
M  V30 4620 H 418.333 -1.52722 2.51104 0
M  V30 4621 H 415.847 -0.756303 1.43714 0
M  V30 4622 H 417.844 -3.83278 1.64024 0
M  V30 4623 H 416.504 -3.17877 0.662148 0
M  V30 4624 H 417.515 -2.82273 4.34215 0
M  V30 4625 H 414.192 -3.70827 1.91817 0
M  V30 4626 H 415.582 -3.17061 5.92387 0
M  V30 4627 N 418.302 -1.35869 -0.798587 0
M  V30 4628 C 419.234 -1.25305 -1.91915 0
M  V30 4629 C 420.247 -0.174548 -1.61862 0
M  V30 4630 O 421.436 -0.428499 -1.73281 0
M  V30 4631 C 418.536 -0.9086 -3.26493 0
M  V30 4632 C 417.709 -2.08711 -3.84394 0
M  V30 4633 C 416.768 -1.71717 -4.97393 0
M  V30 4634 O 415.794 -2.43692 -5.14396 0
M  V30 4635 N 416.996 -0.645473 -5.769 0
M  V30 4636 H 419.761 -2.21849 -2.01502 0
M  V30 4637 H 417.322 -1.29143 -0.976408 0
M  V30 4638 H 419.314 -0.642455 -3.99568 0
M  V30 4639 H 417.884 -0.0325815 -3.12583 0
M  V30 4640 H 417.104 -2.51659 -3.03416 0
M  V30 4641 H 418.392 -2.87468 -4.19809 0
M  V30 4642 H 417.79 -0.047648 -5.6568 0
M  V30 4643 H 416.347 -0.43913 -6.50319 0
M  V30 4644 N 419.78 1.02168 -1.19998 0
M  V30 4645 C 421.027 1.75685 -1.00702 0
M  V30 4646 C 421.355 1.88947 0.461426 0
M  V30 4647 O 420.61 1.40832 1.35885 0
M  V30 4648 C 420.909 3.18081 -1.62969 0
M  V30 4649 C 420.575 3.24809 -3.12746 0
M  V30 4650 C 419.237 3.26352 -3.53621 0
M  V30 4651 C 421.589 3.23379 -4.08749 0
M  V30 4652 C 418.917 3.2413 -4.89036 0
M  V30 4653 C 421.269 3.22698 -5.44104 0
M  V30 4654 C 419.933 3.22542 -5.84399 0
M  V30 4655 H 419.203 0.642877 -0.368496 0
M  V30 4656 H 421.85 1.19865 -1.49348 0
M  V30 4657 H 420.155 3.77027 -1.06573 0
M  V30 4658 H 421.852 3.73648 -1.45561 0
M  V30 4659 H 418.442 3.2434 -2.80181 0
M  V30 4660 H 422.626 3.21361 -3.78207 0
M  V30 4661 H 417.882 3.22338 -5.19527 0
M  V30 4662 H 422.056 3.20543 -6.18244 0
M  V30 4663 H 419.683 3.20575 -6.89301 0
M  V30 4664 N 421.258 1.00505 1.21394 0
M  V30 4665 C 422.221 0.570459 2.21987 0
M  V30 4666 C 423.221 -0.353211 1.56873 0
M  V30 4667 O 424.411 -0.14349 1.73608 0
M  V30 4668 C 421.543 -0.168555 3.40483 0
M  V30 4669 H 422.736 1.46021 2.6195 0
M  V30 4670 H 420.289 0.793565 1.34656 0
M  V30 4671 H 421.024 -1.07374 3.06009 0
M  V30 4672 H 420.809 0.494823 3.88965 0
M  V30 4673 H 422.299 -0.460362 4.15055 0
M  V30 4674 N 422.737 -1.36956 0.779787 0
M  V30 4675 C 424.014 -1.93697 0.272156 0
M  V30 4676 C 424.394 -1.71267 -1.23413 0
M  V30 4677 O 423.742 -1.06607 -2.02107 0
M  V30 4678 C 423.952 -3.42812 0.654291 0
M  V30 4679 C 425.3 -4.19921 0.628602 0
M  V30 4680 O 426.324 -3.51209 0.594172 0
M  V30 4681 O 425.183 -5.42465 0.662864 0
M  V30 4682 H 422.277 -0.824447 0.0649286 0
M  V30 4683 H 424.823 -1.46196 0.861682 0
M  V30 4684 H 423.595 -3.52754 1.69353 0
M  V30 4685 H 423.218 -3.97582 0.0381369 0
M  V30 4686 N 424.215 -0.530993 -1.48385 0
M  V30 4687 C 425.626 -0.0907905 -1.86479 0
M  V30 4688 C 425.977 1.33213 -1.44044 0
M  V30 4689 O 425.102 1.99783 -0.831615 0
M  V30 4690 C 425.697 -0.157987 -3.38431 0
M  V30 4691 C 424.256 0.227026 -3.75715 0
M  V30 4692 C 423.403 -0.5173 -2.72432 0
M  V30 4693 H 426.354 -0.742186 -1.40276 0
M  V30 4694 H 426.375 0.630053 -3.75247 0
M  V30 4695 H 425.887 -1.19372 -3.69286 0
M  V30 4696 H 423.988 1.26486 -3.50474 0
M  V30 4697 H 424.101 -0.113288 -4.78966 0
M  V30 4698 H 422.465 0.0365527 -2.54674 0
M  V30 4699 H 423.248 -1.55368 -3.0613 0
M  V30 4700 N 425.693 1.55336 -0.266172 0
M  V30 4701 C 426.941 1.99003 0.35246 0
M  V30 4702 C 427.262 1.15591 1.57047 0
M  V30 4703 O 426.532 0.243268 1.94384 0
M  V30 4704 H 425.112 0.735025 0.133217 0
M  V30 4705 H 427.774 1.91367 -0.369434 0
M  V30 4706 H 426.87 3.05289 0.648453 0
M  V30 4707 N 427.171 -0.0066808 1.57599 0
M  V30 4708 C 428.42 -0.692078 1.89455 0
M  V30 4709 C 428.733 -1.75306 0.867586 0
M  V30 4710 O 429.939 -2.49262 1.07614 0
M  V30 4711 C 428.395 -1.2821 3.36289 0
M  V30 4712 C 428.003 -0.256291 4.47266 0
M  V30 4713 C 429.747 -1.94608 3.77264 0
M  V30 4714 C 427.654 -0.855927 5.85173 0
M  V30 4715 H 426.584 -0.262252 0.706923 0
M  V30 4716 H 429.235 0.052769 1.83424 0
M  V30 4717 H 427.617 -2.0774 3.37135 0
M  V30 4718 H 428.791 0.513923 4.57925 0
M  V30 4719 H 427.106 0.306862 4.15268 0
M  V30 4720 H 429.703 -2.40364 4.77629 0
M  V30 4721 H 430.046 -2.77382 3.10427 0
M  V30 4722 H 430.579 -1.21822 3.78688 0
M  V30 4723 H 427.318 -0.0671161 6.55466 0
M  V30 4724 H 426.838 -1.59546 5.78191 0
M  V30 4725 H 428.517 -1.35658 6.32618 0
M  V30 4726 N 428.649 -1.55105 -0.279332 0
M  V30 4727 C 429.926 -1.66119 -1.03267 0
M  V30 4728 C 430.306 -0.523525 -2.04505 0
M  V30 4729 O 429.654 0.477194 -2.23462 0
M  V30 4730 C 429.864 -3.05067 -1.69515 0
M  V30 4731 C 431.212 -3.62606 -2.20912 0
M  V30 4732 O 432.236 -3.07659 -1.79512 0
M  V30 4733 O 431.095 -4.58861 -2.96831 0
M  V30 4734 H 428.189 -0.674429 -0.478618 0
M  V30 4735 H 430.735 -1.67446 -0.275694 0
M  V30 4736 H 429.507 -3.79311 -0.9612 0
M  V30 4737 H 429.13 -3.07611 -2.51915 0
M  V30 4738 N 430.127 0.543554 -1.4793 0
M  V30 4739 C 431.538 1.12561 -1.48953 0
M  V30 4740 C 431.889 1.94578 -0.251754 0
M  V30 4741 O 431.014 2.0665 0.642255 0
M  V30 4742 C 431.609 2.04801 -2.69892 0
M  V30 4743 C 430.168 2.58251 -2.73831 0
M  V30 4744 C 429.315 1.34918 -2.42265 0
M  V30 4745 H 432.266 0.32947 -1.55242 0
M  V30 4746 H 432.287 2.88886 -2.47639 0
M  V30 4747 H 431.799 1.4508 -3.59963 0
M  V30 4748 H 429.9 3.21732 -1.87934 0
M  V30 4749 H 430.013 2.98312 -3.74895 0
M  V30 4750 H 428.377 1.66046 -1.93134 0
M  V30 4751 H 429.16 0.769693 -3.3456 0
M  V30 4752 N 431.605 1.3629 0.791371 0
M  V30 4753 C 432.833 1.33562 1.58016 0
M  V30 4754 C 433.248 -0.0835616 1.88615 0
M  V30 4755 O 432.605 -1.0399 1.49974 0
M  V30 4756 C 432.656 2.15517 2.90232 0
M  V30 4757 O 432.377 3.51902 2.60953 0
M  V30 4758 C 433.878 2.20546 3.84544 0
M  V30 4759 H 431.098 0.458226 0.490173 0
M  V30 4760 H 433.642 1.79361 0.982345 0
M  V30 4761 H 431.797 1.73278 3.46487 0
M  V30 4762 H 432.211 3.94644 3.4548 0
M  V30 4763 H 433.685 2.82252 4.74382 0
M  V30 4764 H 434.162 1.20838 4.2225 0
M  V30 4765 H 434.768 2.63013 3.34222 0
M  V30 4766 N 433.083 -1.0153 1.20538 0
M  V30 4767 C 434.329 -1.75517 1.02787 0
M  V30 4768 C 434.684 -1.87411 -0.435289 0
M  V30 4769 O 433.977 -1.38982 -1.31889 0
M  V30 4770 C 434.171 -3.17213 1.64654 0
M  V30 4771 C 434 -3.19134 3.16834 0
M  V30 4772 C 432.77 -3.26301 3.85818 0
M  V30 4773 C 434.968 -3.05077 4.14044 0
M  V30 4774 N 432.95 -3.17739 5.25276 0
M  V30 4775 C 434.321 -3.04299 5.40187 0
M  V30 4776 C 436.376 -2.89303 4.05226 0
M  V30 4777 C 435.079 -2.89365 6.58529 0
M  V30 4778 C 437.105 -2.75723 5.23193 0
M  V30 4779 C 436.467 -2.75612 6.48242 0
M  V30 4780 H 432.566 -0.652919 0.430373 0
M  V30 4781 H 435.15 -1.20755 1.52729 0
M  V30 4782 H 433.321 -3.70266 1.17294 0
M  V30 4783 H 435.053 -3.79637 1.40208 0
M  V30 4784 H 431.808 -3.33078 3.36684 0
M  V30 4785 H 432.232 -3.16829 5.98288 0
M  V30 4786 H 436.874 -2.88201 3.09354 0
M  V30 4787 H 434.592 -2.89216 7.54573 0
M  V30 4788 H 438.178 -2.64533 5.18183 0
M  V30 4789 H 437.058 -2.65224 7.37988 0
M  V30 4790 N 434.561 -1.01147 -1.20859 0
M  V30 4791 C 435.508 -0.577354 -2.23462 0
M  V30 4792 C 436.478 0.399922 -1.61214 0
M  V30 4793 O 437.663 0.300515 -1.88419 0
M  V30 4794 C 434.803 0.083372 -3.44999 0
M  V30 4795 C 433.916 -0.937856 -4.21697 0
M  V30 4796 C 433.051 -0.248717 -5.30617 0
M  V30 4797 C 432.09 -1.25705 -5.99053 0
M  V30 4798 N 431.227 -0.594939 -6.99575 0
M  V30 4799 H 436.067 -1.45695 -2.59956 0
M  V30 4800 H 433.604 -0.729428 -1.27741 0
M  V30 4801 H 435.562 0.483535 -4.14388 0
M  V30 4802 H 434.192 0.926645 -3.09214 0
M  V30 4803 H 433.244 -1.45622 -3.51423 0
M  V30 4804 H 434.556 -1.70493 -4.68757 0
M  V30 4805 H 433.71 0.207215 -6.06346 0
M  V30 4806 H 432.449 0.55071 -4.84581 0
M  V30 4807 H 431.454 -1.72343 -5.2209 0
M  V30 4808 H 432.679 -2.05767 -6.47176 0
M  V30 4809 H 430.625 0.184713 -6.5574 0
M  V30 4810 H 430.542 -1.30017 -7.44736 0
M  V30 4811 H 431.81 -0.162427 -7.79331 0
M  V30 4812 N 436.039 1.36541 -0.78704 0
M  V30 4813 C 436.972 2.27831 -0.129765 0
M  V30 4814 C 437.95 1.47105 0.692732 0
M  V30 4815 O 439.134 1.7641 0.664222 0
M  V30 4816 C 436.261 3.28577 0.821883 0
M  V30 4817 C 435.307 4.26422 0.0814771 0
M  V30 4818 S 436.14 5.20919 -1.24112 0
M  V30 4819 C 437.296 6.25212 -0.293409 0
M  V30 4820 H 437.529 2.83229 -0.903811 0
M  V30 4821 H 435.062 1.43046 -0.581144 0
M  V30 4822 H 437.02 3.87123 1.3655 0
M  V30 4823 H 435.681 2.72096 1.56916 0
M  V30 4824 H 434.874 4.97554 0.803485 0
M  V30 4825 H 434.476 3.71944 -0.391589 0
M  V30 4826 H 436.768 6.75435 0.528622 0
M  V30 4827 H 437.711 7.01378 -0.973344 0
M  V30 4828 H 438.119 5.64407 0.102196 0
M  V30 4829 N 437.518 0.538854 1.48102 0
M  V30 4830 C 438.767 0.0059532 2.01699 0
M  V30 4831 C 439.08 -1.34476 1.42041 0
M  V30 4832 O 440.286 -1.96653 1.87189 0
M  V30 4833 C 438.742 -0.0397627 3.59878 0
M  V30 4834 C 438.35 1.30659 4.28523 0
M  V30 4835 C 440.094 -0.521024 4.2129 0
M  V30 4836 C 438.001 1.22098 5.78659 0
M  V30 4837 H 436.931 -0.00154456 0.753998 0
M  V30 4838 H 439.582 0.683963 1.70277 0
M  V30 4839 H 437.964 -0.783037 3.88181 0
M  V30 4840 H 439.138 2.06613 4.11883 0
M  V30 4841 H 437.453 1.7243 3.79021 0
M  V30 4842 H 440.05 -0.603184 5.31287 0
M  V30 4843 H 440.393 -1.52885 3.8721 0
M  V30 4844 H 440.926 0.166834 3.9745 0
M  V30 4845 H 437.665 2.20424 6.17328 0
M  V30 4846 H 437.185 0.50295 5.97688 0
M  V30 4847 H 438.864 0.915345 6.40492 0
M  V30 4848 N 438.996 -1.55193 0.274407 0
M  V30 4849 C 439.946 -2.19184 -0.627882 0
M  V30 4850 C 440.93 -1.15625 -1.11892 0
M  V30 4851 O 442.122 -1.41441 -1.06411 0
M  V30 4852 C 439.251 -2.91591 -1.81189 0
M  V30 4853 C 438.337 -4.02438 -1.33807 0
M  V30 4854 N 438.728 -5.0246 -0.580349 0
M  V30 4855 C 437.026 -4.15496 -1.62109 0
M  V30 4856 C 437.727 -5.80756 -0.331344 0
M  V30 4857 N 436.703 -5.36038 -0.903556 0
M  V30 4858 H 440.505 -2.93871 -0.0411216 0
M  V30 4859 H 438.019 -1.62213 0.0779348 0
M  V30 4860 H 440.016 -3.35883 -2.46957 0
M  V30 4861 H 438.676 -2.18414 -2.40261 0
M  V30 4862 H 439.687 -5.17399 -0.227762 0
M  V30 4863 H 436.364 -3.53509 -2.22121 0
M  V30 4864 H 437.754 -6.71335 0.275454 0
M  V30 4865 N 440.474 -0.00167713 -1.576 0
M  V30 4866 C 441.699 0.69739 -1.95323 0
M  V30 4867 C 442.124 1.6642 -0.876706 0
M  V30 4868 O 441.482 1.80548 0.165007 0
M  V30 4869 C 441.53 1.40403 -3.32144 0
M  V30 4870 O 440.634 2.5185 -3.26566 0
M  V30 4871 H 439.975 0.185373 -0.637599 0
M  V30 4872 H 442.505 -0.0553665 -2.04525 0
M  V30 4873 H 442.515 1.76707 -3.67748 0
M  V30 4874 H 441.19 0.695167 -4.10049 0
M  V30 4875 H 439.767 2.17861 -3.0264 0
M  V30 4876 N 441.952 1.55251 0.271103 0
M  V30 4877 C 443.198 1.76207 1.00394 0
M  V30 4878 C 443.531 0.562604 1.85872 0
M  V30 4879 O 442.806 -0.439785 1.89463 0
M  V30 4880 C 443.089 3.06828 1.8849 0
M  V30 4881 C 442.942 4.37134 1.05992 0
M  V30 4882 C 444.261 3.33503 2.87165 0
M  V30 4883 H 441.38 0.641086 0.363562 0
M  V30 4884 H 444.022 1.87982 0.276189 0
M  V30 4885 H 442.172 2.96921 2.5054 0
M  V30 4886 H 443.844 4.59001 0.459978 0
M  V30 4887 H 442.087 4.32275 0.363443 0
M  V30 4888 H 442.758 5.2486 1.70955 0
M  V30 4889 H 445.234 3.43215 2.3525 0
M  V30 4890 H 444.11 4.2616 3.45946 0
M  V30 4891 H 444.371 2.53235 3.62387 0
M  V30 4892 N 443.43 -0.535701 1.48216 0
M  V30 4893 C 444.36 -1.65014 1.65204 0
M  V30 4894 C 445.341 -1.62554 0.501011 0
M  V30 4895 O 446.526 -1.7984 0.732886 0
M  V30 4896 C 443.656 -3.03616 1.68626 0
M  V30 4897 C 442.61 -3.20932 2.83172 0
M  V30 4898 C 441.936 -4.60537 2.71679 0
M  V30 4899 C 443.236 -3.04249 4.24535 0
M  V30 4900 H 444.93 -1.51053 2.58502 0
M  V30 4901 H 442.476 -0.725262 1.24402 0
M  V30 4902 H 444.429 -3.81446 1.79099 0
M  V30 4903 H 443.153 -3.18587 0.719026 0
M  V30 4904 H 441.812 -2.45517 2.72244 0
M  V30 4905 H 441.46 -4.72336 1.72937 0
M  V30 4906 H 441.16 -4.73069 3.48538 0
M  V30 4907 H 442.684 -5.40475 2.84112 0
M  V30 4908 H 444.098 -3.71877 4.36326 0
M  V30 4909 H 442.495 -3.28278 5.02348 0
M  V30 4910 H 443.565 -2.00739 4.41397 0
M  V30 4911 N 444.908 -1.36708 -0.784132 0
M  V30 4912 C 446.136 -1.34398 -1.57305 0
M  V30 4913 C 446.551 0.0735577 -1.88657 0
M  V30 4914 O 445.908 1.03193 -1.50524 0
M  V30 4915 C 445.959 -2.17053 -2.89085 0
M  V30 4916 O 445.68 -3.53281 -2.59083 0
M  V30 4917 C 447.181 -2.22583 -3.83369 0
M  V30 4918 H 444.401 -0.460819 -0.487736 0
M  V30 4919 H 446.945 -1.79879 -0.972819 0
M  V30 4920 H 445.1 -1.75113 -3.45564 0
M  V30 4921 H 445.514 -3.9647 -3.43383 0
M  V30 4922 H 446.988 -2.84763 -4.72878 0
M  V30 4923 H 447.465 -1.23075 -4.21603 0
M  V30 4924 H 448.071 -2.64781 -3.32823 0
M  V30 4925 N 446.386 1.0089 -1.21074 0
M  V30 4926 C 447.316 2.1145 -0.990523 0
M  V30 4927 C 448.297 1.69897 0.0831699 0
M  V30 4928 O 449.482 1.94052 -0.0758853 0
M  V30 4929 C 446.612 3.42914 -0.550177 0
M  V30 4930 C 445.566 3.98244 -1.56799 0
M  V30 4931 C 444.892 5.25568 -0.984013 0
M  V30 4932 C 446.192 4.30752 -2.95381 0
M  V30 4933 H 447.886 2.3013 -1.91521 0
M  V30 4934 H 445.432 1.10592 -0.92225 0
M  V30 4935 H 447.385 4.19653 -0.383305 0
M  V30 4936 H 446.109 3.24014 0.41015 0
M  V30 4937 H 444.768 3.23621 -1.72236 0
M  V30 4938 H 444.416 5.02998 -0.0155216 0
M  V30 4939 H 444.116 5.63551 -1.66384 0
M  V30 4940 H 445.64 6.04955 -0.828378 0
M  V30 4941 H 447.054 4.98349 -2.8341 0
M  V30 4942 H 445.451 4.79869 -3.60341 0
M  V30 4943 H 446.521 3.39192 -3.46521 0
M  V30 4944 N 447.864 1.01787 1.20321 0
M  V30 4945 C 449.111 0.707936 1.89722 0
M  V30 4946 C 449.439 -0.762535 1.78929 0
M  V30 4947 O 448.694 -1.56977 1.16861 0
M  V30 4948 C 448.993 1.09076 3.40349 0
M  V30 4949 C 448.659 2.55765 3.71342 0
M  V30 4950 C 447.321 2.95845 3.79511 0
M  V30 4951 C 449.673 3.50723 3.85542 0
M  V30 4952 C 447.001 4.2982 3.99339 0
M  V30 4953 C 449.353 4.84387 4.06881 0
M  V30 4954 C 448.017 5.24172 4.1328 0
M  V30 4955 H 447.287 0.259052 0.694243 0
M  V30 4956 H 449.934 1.27868 1.42555 0
M  V30 4957 H 448.239 0.438453 3.89339 0
M  V30 4958 H 449.936 0.828636 3.92345 0
M  V30 4959 H 446.526 2.2371 3.65584 0
M  V30 4960 H 450.71 3.20916 3.78585 0
M  V30 4961 H 445.966 4.60196 4.02529 0
M  V30 4962 H 450.14 5.57891 4.1681 0
M  V30 4963 H 447.767 6.27997 4.28396 0
M  V30 4964 N 449.342 -1.36122 0.79427 0
M  V30 4965 C 450.588 -1.99406 0.369452 0
M  V30 4966 C 450.921 -1.62886 -1.05743 0
M  V30 4967 O 450.196 -0.886053 -1.73145 0
M  V30 4968 C 450.479 -3.56046 0.538833 0
M  V30 4969 C 450.332 -4.02404 2.00976 0
M  V30 4970 C 451.651 -4.40079 -0.0431359 0
M  V30 4971 H 448.77 -0.724397 0.135712 0
M  V30 4972 H 451.412 -1.61461 1.00151 0
M  V30 4973 H 449.562 -3.885 0.000771004 0
M  V30 4974 H 451.234 -3.80415 2.60926 0
M  V30 4975 H 449.477 -3.53765 2.51063 0
M  V30 4976 H 450.148 -5.11344 2.07922 0
M  V30 4977 H 452.624 -4.14013 0.416228 0
M  V30 4978 H 451.5 -5.48799 0.105374 0
M  V30 4979 H 451.761 -4.27264 -1.13571 0
M  V30 4980 N 450.82 -0.546701 -1.47814 0
M  V30 4981 C 451.783 0.196287 -2.28358 0
M  V30 4982 C 452.783 0.852437 -1.36346 0
M  V30 4983 O 453.973 0.709913 -1.59078 0
M  V30 4984 C 451.105 1.28579 -3.15722 0
M  V30 4985 H 452.298 -0.511086 -2.95513 0
M  V30 4986 H 449.851 -0.303248 -1.5333 0
M  V30 4987 H 450.586 2.0259 -2.53235 0
M  V30 4988 H 450.371 0.820229 -3.83425 0
M  V30 4989 H 451.861 1.80793 -3.76435 0
M  V30 4990 N 452.299 1.55045 -0.282633 0
M  V30 4991 C 453.545 2.00056 0.332481 0
M  V30 4992 C 453.878 1.1708 1.54939 0
M  V30 4993 O 453.153 0.2427 1.9298 0
M  V30 4994 C 453.436 3.53086 0.70725 0
M  V30 4995 C 453.289 4.46813 -0.517521 0
M  V30 4996 C 454.608 4.12245 1.54084 0
M  V30 4997 H 451.727 0.727268 0.119373 0
M  V30 4998 H 454.369 1.85932 -0.391076 0
M  V30 4999 H 452.519 3.65253 1.32372 0
M  V30 5000 H 454.191 4.46579 -1.15607 0
M  V30 5001 H 452.434 4.18163 -1.1542 0
M  V30 5002 H 453.105 5.51595 -0.211426 0
M  V30 5003 H 455.581 4.03401 1.02013 0
M  V30 5004 H 454.457 5.19515 1.77186 0
M  V30 5005 H 454.718 3.62951 2.52427 0
M  V30 5006 N 453.777 0.010035 1.57597 0
M  V30 5007 C 455.188 -0.531426 1.78977 0
M  V30 5008 C 455.539 -1.73375 0.918454 0
M  V30 5009 O 454.664 -2.16047 0.123635 0
M  V30 5010 C 455.259 -0.97086 3.24592 0
M  V30 5011 C 453.818 -1.45756 3.47033 0
M  V30 5012 C 452.965 -0.413384 2.74201 0
M  V30 5013 H 455.916 0.236166 1.56933 0
M  V30 5014 H 455.937 -1.83633 3.33255 0
M  V30 5015 H 455.449 -0.0955893 3.87982 0
M  V30 5016 H 453.55 -2.35339 2.88871 0
M  V30 5017 H 453.663 -1.4781 4.55729 0
M  V30 5018 H 452.027 -0.877266 2.39115 0
M  V30 5019 H 452.81 0.453092 3.40297 0
M  V30 5020 N 455.255 -1.55392 -0.262866 0
M  V30 5021 C 456.48 -1.80847 -1.01533 0
M  V30 5022 C 456.905 -0.584946 -1.78774 0
M  V30 5023 O 456.263 0.465701 -1.75217 0
M  V30 5024 C 456.311 -3.03866 -1.94159 0
M  V30 5025 O 455.415 -2.79662 -3.03089 0
M  V30 5026 H 454.756 -0.597441 -0.289759 0
M  V30 5027 H 457.286 -2.02553 -0.288698 0
M  V30 5028 H 457.296 -3.32872 -2.35924 0
M  V30 5029 H 455.971 -3.92564 -1.37354 0
M  V30 5030 H 454.548 -2.61781 -2.65566 0
M  V30 5031 N 456.733 0.527833 -1.48498 0
M  V30 5032 C 457.663 1.64136 -1.66077 0
M  V30 5033 C 458.644 1.62286 -0.509625 0
M  V30 5034 O 459.829 1.79449 -0.742413 0
M  V30 5035 C 456.959 3.02717 -1.70234 0
M  V30 5036 C 455.913 3.19426 -2.8487 0
M  V30 5037 C 455.239 4.5909 -2.74118 0
M  V30 5038 C 456.539 3.01993 -4.26142 0
M  V30 5039 H 458.233 1.4968 -2.593 0
M  V30 5040 H 455.779 0.718654 -1.24785 0
M  V30 5041 H 457.732 3.80491 -1.8112 0
M  V30 5042 H 456.456 3.18201 -0.735911 0
M  V30 5043 H 455.115 2.4407 -2.73542 0
M  V30 5044 H 454.763 4.71413 -1.7544 0
M  V30 5045 H 454.463 4.71214 -3.51042 0
M  V30 5046 H 455.987 5.3896 -2.86974 0
M  V30 5047 H 457.401 3.69558 -4.38292 0
M  V30 5048 H 455.798 3.2561 -5.04082 0
M  V30 5049 H 456.868 1.98396 -4.42456 0
M  V30 5050 N 458.211 1.37122 0.776871 0
M  V30 5051 C 459.144 1.26835 1.89705 0
M  V30 5052 C 460.122 0.14992 1.61907 0
M  V30 5053 O 461.306 0.323242 1.85708 0
M  V30 5054 C 458.433 0.95986 3.24814 0
M  V30 5055 C 457.479 2.09447 3.7153 0
M  V30 5056 S 458.312 3.71368 3.85806 0
M  V30 5057 C 459.468 3.42659 5.23771 0
M  V30 5058 H 459.701 2.21647 1.98141 0
M  V30 5059 H 457.234 1.22685 0.937433 0
M  V30 5060 H 459.192 0.788696 4.02852 0
M  V30 5061 H 457.853 0.0293137 3.14086 0
M  V30 5062 H 457.046 1.8335 4.69467 0
M  V30 5063 H 456.648 2.2255 3.00578 0
M  V30 5064 H 458.94 2.9733 6.0877 0
M  V30 5065 H 459.883 4.39905 5.54878 0
M  V30 5066 H 460.291 2.77708 4.91466 0
M  V30 5067 N 459.689 -1.00246 1.21608 0
M  V30 5068 C 460.917 -1.77631 1.06089 0
M  V30 5069 C 461.332 -1.84746 -0.38916 0
M  V30 5070 O 460.689 -1.31068 -1.26994 0
M  V30 5071 C 460.74 -3.21415 1.65453 0
M  V30 5072 O 460.461 -3.14703 3.04785 0
M  V30 5073 C 461.962 -4.15289 1.55079 0
M  V30 5074 H 459.182 -0.558162 0.37242 0
M  V30 5075 H 461.726 -1.26093 1.60999 0
M  V30 5076 H 459.881 -3.70053 1.14629 0
M  V30 5077 H 460.295 -4.05056 3.33212 0
M  V30 5078 H 461.769 -5.13965 2.01355 0
M  V30 5079 H 462.246 -4.36279 0.505665 0
M  V30 5080 H 462.852 -3.72543 2.05163 0
M  V30 5081 N 461.167 -1.02423 -1.1978 0
M  V30 5082 C 462.13 -0.605703 -2.21052 0
M  V30 5083 C 463.13 0.328209 -1.57415 0
M  V30 5084 O 464.32 0.115853 -1.73814 0
M  V30 5085 C 461.452 0.114366 -3.40708 0
M  V30 5086 H 462.645 -1.5017 -2.59594 0
M  V30 5087 H 460.198 -0.814888 -1.33376 0
M  V30 5088 H 460.933 1.02492 -3.07678 0
M  V30 5089 H 460.718 -0.556641 -3.88129 0
M  V30 5090 H 462.208 0.394272 -4.15735 0
M  V30 5091 N 462.645 1.35699 -0.801477 0
M  V30 5092 C 463.892 1.98913 -0.379459 0
M  V30 5093 C 464.22 1.63592 1.05204 0
M  V30 5094 O 463.475 0.888563 1.74365 0
M  V30 5095 C 463.774 3.53828 -0.504041 0
M  V30 5096 C 463.44 4.09002 -1.8981 0
M  V30 5097 C 462.102 4.23783 -2.27951 0
M  V30 5098 C 464.454 4.38939 -2.81038 0
M  V30 5099 C 461.782 4.65816 -3.56696 0
M  V30 5100 C 464.134 4.82409 -4.09224 0
M  V30 5101 C 462.798 4.95395 -4.4737 0
M  V30 5102 H 462.068 0.727874 -0.138854 0
M  V30 5103 H 464.715 1.61994 -1.02128 0
M  V30 5104 H 463.02 3.91175 0.221242 0
M  V30 5105 H 464.717 4.00687 -0.158361 0
M  V30 5106 H 461.307 3.97946 -1.59176 0
M  V30 5107 H 465.491 4.27077 -2.52821 0
M  V30 5108 H 460.747 4.74059 -3.86106 0
M  V30 5109 H 464.921 5.04535 -4.80018 0
M  V30 5110 H 462.548 5.27724 -5.47185 0
M  V30 5111 N 464.123 0.554532 1.47522 0
M  V30 5112 C 465.351 0.034257 2.06872 0
M  V30 5113 C 465.766 -1.25826 1.40759 0
M  V30 5114 O 465.123 -1.75425 0.503217 0
M  V30 5115 C 465.174 -0.167827 3.6111 0
M  V30 5116 O 464.895 1.07351 4.24744 0
M  V30 5117 C 466.396 -0.72569 4.3732 0
M  V30 5118 H 463.616 0.0446275 0.669514 0
M  V30 5119 H 466.16 0.767181 1.89564 0
M  V30 5120 H 464.315 -0.850872 3.7794 0
M  V30 5121 H 464.729 0.869563 5.17242 0
M  V30 5122 H 466.203 -0.816394 5.45929 0
M  V30 5123 H 466.68 -1.73635 4.0342 0
M  V30 5124 H 467.286 -0.0784292 4.25228 0
M  V30 5125 N 465.601 -1.54893 0.290851 0
M  V30 5126 C 466.847 -2.0023 -0.321867 0
M  V30 5127 C 467.18 -1.179 -1.54316 0
M  V30 5128 O 466.455 -0.25293 -1.92848 0
M  V30 5129 C 466.738 -3.53456 -0.688515 0
M  V30 5130 C 466.591 -4.46532 0.541209 0
M  V30 5131 C 467.91 -4.13057 -1.51895 0
M  V30 5132 H 465.029 -0.727891 -0.115515 0
M  V30 5133 H 467.671 -1.85722 0.400931 0
M  V30 5134 H 465.821 -3.6595 -1.30433 0
M  V30 5135 H 467.493 -4.4596 1.17973 0
M  V30 5136 H 465.736 -4.17545 1.17636 0
M  V30 5137 H 466.407 -5.51475 0.240675 0
M  V30 5138 H 468.883 -4.03937 -0.99872 0
M  V30 5139 H 467.759 -5.20448 -1.74429 0
M  V30 5140 H 468.02 -3.64284 -2.50498 0
M  V30 5141 N 467.08 -0.0183926 -1.57589 0
M  V30 5142 C 468.043 0.951986 -2.08494 0
M  V30 5143 C 469.043 1.26092 -0.997874 0
M  V30 5144 O 470.233 1.20304 -1.25987 0
M  V30 5145 C 467.365 2.27165 -2.54182 0
M  V30 5146 H 468.558 0.511307 -2.95509 0
M  V30 5147 H 466.111 0.229444 -1.54607 0
M  V30 5148 H 466.846 2.75884 -1.70465 0
M  V30 5149 H 466.631 2.06057 -3.33591 0
M  V30 5150 H 468.121 2.9674 -2.93828 0
M  V30 5151 N 468.558 1.5553 0.254621 0
M  V30 5152 C 469.521 1.88872 1.29846 0
M  V30 5153 C 470.521 0.764591 1.41459 0
M  V30 5154 O 471.711 1.03265 1.40293 0
M  V30 5155 C 468.843 2.11032 2.67728 0
M  V30 5156 H 470.036 2.82201 1.01502 0
M  V30 5157 H 467.589 1.48303 0.493556 0
M  V30 5158 H 468.324 1.20146 3.01223 0
M  V30 5159 H 468.109 2.92895 2.60682 0
M  V30 5160 H 469.599 2.38038 3.43115 0
M  V30 5161 N 470.036 -0.519951 1.48776 0
M  V30 5162 C 471.261 -1.30447 1.6124 0
M  V30 5163 C 471.686 -1.86055 0.276591 0
M  V30 5164 O 471.044 -1.64915 -0.753183 0
M  V30 5165 C 471.092 -2.42406 2.66967 0
M  V30 5166 O 470.196 -3.45728 2.24824 0
M  V30 5167 H 469.537 -0.385924 0.540332 0
M  V30 5168 H 472.067 -0.624572 1.94834 0
M  V30 5169 H 472.077 -2.88447 2.88552 0
M  V30 5170 H 470.752 -2.01294 3.63941 0
M  V30 5171 H 469.329 -3.05737 2.13494 0
M  V30 5172 N 471.514 -1.37532 -0.769588 0
M  V30 5173 C 472.444 -1.36172 -1.89682 0
M  V30 5174 C 473.425 -0.23001 -1.68538 0
M  V30 5175 O 474.61 -0.43069 -1.89364 0
M  V30 5176 C 471.74 -1.1701 -3.26995 0
M  V30 5177 C 470.694 -2.27216 -3.62708 0
M  V30 5178 C 470.02 -1.93174 -4.98586 0
M  V30 5179 C 471.32 -3.6941 -3.69234 0
M  V30 5180 H 473.014 -2.30499 -1.91078 0
M  V30 5181 H 470.56 -1.10953 -0.917902 0
M  V30 5182 H 472.513 -1.14688 -4.05493 0
M  V30 5183 H 471.237 -0.191395 -3.26039 0
M  V30 5184 H 469.896 -2.28697 -2.86519 0
M  V30 5185 H 469.544 -0.938281 -4.94171 0
M  V30 5186 H 469.244 -2.66973 -5.23449 0
M  V30 5187 H 470.768 -1.92443 -5.79481 0
M  V30 5188 H 472.182 -3.70047 -4.37879 0
M  V30 5189 H 470.579 -4.4228 -4.05597 0
M  V30 5190 H 471.649 -4.0288 -2.69844 0
M  V30 5191 N 472.992 0.995999 -1.22138 0
M  V30 5192 C 473.902 2.11985 -1.00496 0
M  V30 5193 C 474.918 1.7394 0.0457701 0
M  V30 5194 O 476.094 2.00868 -0.146273 0
M  V30 5195 C 473.159 3.41779 -0.582086 0
M  V30 5196 C 472.22 3.93943 -1.70608 0
M  V30 5197 C 471.453 5.17542 -1.30328 0
M  V30 5198 O 471.676 5.70114 -0.180743 0
M  V30 5199 O 470.61 5.63382 -2.11861 0
M  V30 5200 H 474.436 2.33123 -1.94647 0
M  V30 5201 H 472.021 1.10358 -1.00705 0
M  V30 5202 H 473.903 4.1989 -0.356467 0
M  V30 5203 H 472.578 3.22007 0.330592 0
M  V30 5204 H 471.485 3.17019 -1.98619 0
M  V30 5205 H 472.818 4.18141 -2.59651 0
M  V30 5206 N 474.47 1.03057 1.19235 0
M  V30 5207 C 475.717 0.728019 1.88961 0
M  V30 5208 C 476.045 -0.743515 1.79728 0
M  V30 5209 O 475.3 -1.55729 1.1852 0
M  V30 5210 C 475.599 1.1268 3.39172 0
M  V30 5211 C 475.265 2.5969 3.68608 0
M  V30 5212 C 473.927 2.99854 3.76352 0
M  V30 5213 C 476.279 3.54793 3.81801 0
M  V30 5214 C 473.607 4.34031 3.94758 0
M  V30 5215 C 475.959 4.88675 4.0172 0
M  V30 5216 C 474.623 5.28526 4.07697 0
M  V30 5217 H 473.893 0.266401 0.691456 0
M  V30 5218 H 476.54 1.29373 1.41191 0
M  V30 5219 H 474.845 0.479722 3.88852 0
M  V30 5220 H 476.542 0.870203 3.91444 0
M  V30 5221 H 473.132 2.27575 3.63191 0
M  V30 5222 H 477.316 3.24914 3.7516 0
M  V30 5223 H 472.572 4.6444 3.97625 0
M  V30 5224 H 476.746 5.6228 4.1087 0
M  V30 5225 H 474.373 6.32506 4.21712 0
M  V30 5226 N 475.948 -1.35272 0.808662 0
M  V30 5227 C 476.911 -2.28082 0.226093 0
M  V30 5228 C 477.911 -1.49673 -0.587762 0
M  V30 5229 O 479.101 -1.69404 -0.405943 0
M  V30 5230 C 476.233 -3.33955 -0.684596 0
M  V30 5231 H 477.426 -2.81116 1.04469 0
M  V30 5232 H 474.979 -1.45162 0.579466 0
M  V30 5233 H 475.714 -2.86111 -1.5268 0
M  V30 5234 H 475.499 -3.91965 -0.102699 0
M  V30 5235 H 476.989 -4.03219 -1.08646 0
M  V30 5236 N 477.426 -0.562348 -1.47226 0
M  V30 5237 C 478.674 -0.0401371 -2.0206 0
M  V30 5238 C 478.995 1.3165 -1.43852 0
M  V30 5239 O 478.265 1.85976 -0.615599 0
M  V30 5240 H 476.845 -0.0118479 -0.746906 0
M  V30 5241 H 479.507 -0.73352 -1.8057 0
M  V30 5242 H 478.603 0.0441254 -3.12069 0
M  V30 5243 N 478.904 1.54736 -0.299062 0
M  V30 5244 C 480.32 1.59507 0.0543849 0
M  V30 5245 C 480.52 1.31606 1.52585 0
M  V30 5246 O 479.576 1.08853 2.27832 0
M  V30 5247 C 480.889 2.98751 -0.34181 0
M  V30 5248 C 482.437 3.1165 -0.290414 0
M  V30 5249 C 482.912 4.53199 -0.661402 0
M  V30 5250 N 484.403 4.59114 -0.613863 0
M  V30 5251 C 485.138 5.66709 -0.873417 0
M  V30 5252 N 484.634 6.82349 -1.19884 0
M  V30 5253 N 486.427 5.56369 -0.800608 0
M  V30 5254 H 478.578 1.71133 -1.25806 0
M  V30 5255 H 480.841 0.799186 -0.509908 0
M  V30 5256 H 480.547 3.24085 -1.36608 0
M  V30 5257 H 480.421 3.75961 0.305508 0
M  V30 5258 H 482.808 2.86066 0.724605 0
M  V30 5259 H 482.889 2.366 -0.972327 0
M  V30 5260 H 482.533 4.79513 -1.67422 0
M  V30 5261 H 482.463 5.26583 0.0425612 0
M  V30 5262 H 484.954 3.76053 -0.3732 0
M  V30 5263 H 485.267 7.60326 -1.38291 0
M  V30 5264 H 483.612 6.83906 -1.23685 0
M  V30 5265 H 486.803 4.64904 -0.546045 0
M  V30 5266 H 486.976 6.40139 -1.00626 0
M  V30 5267 N 480.382 0.0267497 1.57577 0
M  V30 5268 C 481.312 -0.954308 2.13108 0
M  V30 5269 C 482.293 -1.34088 1.04663 0
M  V30 5270 O 483.478 -1.41992 1.32484 0
M  V30 5271 C 480.608 -2.23744 2.65624 0
M  V30 5272 C 479.562 -1.99168 3.78835 0
M  V30 5273 C 478.888 -3.33726 4.17769 0
M  V30 5274 C 480.188 -1.33277 5.0501 0
M  V30 5275 H 481.882 -0.491848 2.95332 0
M  V30 5276 H 479.428 -0.23514 1.42067 0
M  V30 5277 H 481.381 -2.92754 3.03106 0
M  V30 5278 H 480.105 -2.72151 1.80558 0
M  V30 5279 H 478.764 -1.32577 3.41788 0
M  V30 5280 H 478.412 -3.79888 3.29688 0
M  V30 5281 H 478.112 -3.18089 4.94058 0
M  V30 5282 H 479.636 -4.04008 4.57832 0
M  V30 5283 H 481.05 -1.92283 5.40093 0
M  V30 5284 H 479.447 -1.28045 5.8628 0
M  V30 5285 H 480.517 -0.305411 4.83937 0
M  V30 5286 N 481.861 -1.55662 -0.24637 0
M  V30 5287 C 483.277 -1.48098 -0.594907 0
M  V30 5288 C 483.477 -0.717044 -1.8831 0
M  V30 5289 O 482.533 -0.246618 -2.51293 0
M  V30 5290 C 483.846 -2.92507 -0.697146 0
M  V30 5291 C 485.394 -3.02881 -0.789436 0
M  V30 5292 C 485.869 -4.48598 -0.923232 0
M  V30 5293 N 487.36 -4.52538 -0.988088 0
M  V30 5294 C 488.095 -5.62536 -1.11089 0
M  V30 5295 N 487.591 -6.82342 -1.19919 0
M  V30 5296 N 489.384 -5.50334 -1.14408 0
M  V30 5297 H 481.535 -2.0377 0.599278 0
M  V30 5298 H 483.798 -0.925145 0.20691 0
M  V30 5299 H 483.504 -3.51242 0.179396 0
M  V30 5300 H 483.378 -3.43024 -1.5689 0
M  V30 5301 H 485.765 -2.44226 -1.65643 0
M  V30 5302 H 485.846 -2.55574 0.107482 0
M  V30 5303 H 485.49 -5.07864 -0.0607927 0
M  V30 5304 H 485.42 -4.93587 -1.8352 0
M  V30 5305 H 487.911 -3.66248 -0.931167 0
M  V30 5306 H 488.224 -7.61924 -1.29197 0
M  V30 5307 H 486.569 -6.85102 -1.16876 0
M  V30 5308 H 489.76 -4.5567 -1.07158 0
M  V30 5309 H 489.933 -6.36096 -1.23634 0
M  V30 5310 N 483.339 0.512053 -1.4905 0
M  V30 5311 C 484.587 1.26436 -1.57665 0
M  V30 5312 C 484.908 1.93255 -0.260293 0
M  V30 5313 O 484.178 1.82206 0.719564 0
M  V30 5314 H 482.758 0.469658 -0.580888 0
M  V30 5315 H 485.42 0.594398 -1.85615 0
M  V30 5316 H 484.516 2.03417 -2.36702 0
M  V30 5317 N 484.817 1.37938 0.762283 0
M  V30 5318 C 486.065 1.33404 1.51815 0
M  V30 5319 C 486.386 -0.0780975 1.94844 0
M  V30 5320 O 485.656 -1.02405 1.67003 0
M  V30 5321 H 484.236 0.490839 0.563104 0
M  V30 5322 H 486.898 1.72527 0.906669 0
M  V30 5323 H 485.994 1.97926 2.41313 0
M  V30 5324 N 486.295 -0.989507 1.22664 0
M  V30 5325 C 487.711 -1.25395 0.987331 0
M  V30 5326 C 487.911 -1.9899 -0.317056 0
M  V30 5327 O 486.967 -2.30141 -1.03882 0
M  V30 5328 C 488.28 -2.06242 2.18826 0
M  V30 5329 C 489.828 -2.19413 2.23219 0
M  V30 5330 C 490.303 -3.03648 3.42873 0
M  V30 5331 N 491.794 -3.11234 3.43056 0
M  V30 5332 C 492.529 -3.7671 4.32293 0
M  V30 5333 N 492.025 -4.44085 5.31752 0
M  V30 5334 N 493.818 -3.73505 4.2006 0
M  V30 5335 H 485.969 -0.496212 2.06522 0
M  V30 5336 H 488.232 -0.281784 0.905153 0
M  V30 5337 H 487.938 -1.59531 3.13437 0
M  V30 5338 H 487.812 -3.06996 2.19165 0
M  V30 5339 H 490.199 -2.65336 1.29154 0
M  V30 5340 H 490.28 -1.18078 2.26917 0
M  V30 5341 H 489.924 -2.58424 4.37241 0
M  V30 5342 H 489.854 -4.05132 3.36416 0
M  V30 5343 H 492.345 -2.63287 2.71088 0
M  V30 5344 H 492.658 -4.91797 5.96117 0
M  V30 5345 H 491.003 -4.42822 5.35662 0
M  V30 5346 H 494.194 -3.20033 3.41609 0
M  V30 5347 H 494.367 -4.24253 4.8981 0
M  V30 5348 N 487.773 -1.03688 -1.18687 0
M  V30 5349 C 489.021 -0.736572 -1.88199 0
M  V30 5350 C 489.342 0.737665 -1.80509 0
M  V30 5351 O 488.612 1.53204 -1.22088 0
M  V30 5352 H 487.192 -0.269466 -0.696704 0
M  V30 5353 H 489.854 -1.31282 -1.44052 0
M  V30 5354 H 488.95 -1.03802 -2.94332 0
M  V30 5355 N 489.251 1.34841 -0.815825 0
M  V30 5356 C 490.181 2.32187 -0.247298 0
M  V30 5357 C 491.162 1.5791 0.632344 0
M  V30 5358 O 492.347 1.8593 0.560698 0
M  V30 5359 C 489.477 3.42122 0.597466 0
M  V30 5360 C 488.431 4.27602 -0.184446 0
M  V30 5361 C 487.757 5.28942 0.782609 0
M  V30 5362 C 489.057 5.03502 -1.38865 0
M  V30 5363 H 490.751 2.79985 -1.06061 0
M  V30 5364 H 488.297 1.34611 -0.511461 0
M  V30 5365 H 490.25 4.09232 1.00533 0
M  V30 5366 H 488.974 2.92956 1.44376 0
M  V30 5367 H 487.633 3.62085 -0.573592 0
M  V30 5368 H 487.281 4.7604 1.62466 0
M  V30 5369 H 486.981 5.87008 0.263695 0
M  V30 5370 H 488.505 5.98922 1.18848 0
M  V30 5371 H 489.919 5.63506 -1.05518 0
M  V30 5372 H 488.316 5.71108 -1.8427 0
M  V30 5373 H 489.386 4.33608 -2.17054 0
M  V30 5374 N 490.729 0.570148 1.46925 0
M  V30 5375 C 491.976 0.0509529 2.02436 0
M  V30 5376 C 492.304 -1.30405 1.44308 0
M  V30 5377 O 491.559 -1.86493 0.593198 0
M  V30 5378 C 491.858 -0.0780336 3.57315 0
M  V30 5379 C 491.524 1.20775 4.34424 0
M  V30 5380 C 490.186 1.56004 4.5521 0
M  V30 5381 C 492.538 2.0592 4.78797 0
M  V30 5382 C 489.866 2.76201 5.17619 0
M  V30 5383 C 492.218 3.25332 5.42533 0
M  V30 5384 C 490.882 3.60859 5.61549 0
M  V30 5385 H 490.152 0.018645 0.740765 0
M  V30 5386 H 492.799 0.744262 1.76445 0
M  V30 5387 H 491.104 -0.854394 3.82371 0
M  V30 5388 H 492.801 -0.495312 3.97929 0
M  V30 5389 H 489.391 0.923469 4.18533 0
M  V30 5390 H 493.575 1.80008 4.62505 0
M  V30 5391 H 488.831 3.0388 5.30535 0
M  V30 5392 H 493.005 3.91586 5.75876 0
M  V30 5393 H 490.632 4.54088 6.09678 0
M  V30 5394 N 492.207 -1.54576 0.307264 0
M  V30 5395 C 493.455 -1.99867 -0.299574 0
M  V30 5396 C 493.776 -1.19714 -1.53927 0
M  V30 5397 O 493.046 -0.29472 -1.9367 0
M  V30 5398 H 491.626 -0.738299 -0.113683 0
M  V30 5399 H 494.288 -1.9032 0.420042 0
M  V30 5400 H 493.384 -3.06901 -0.567283 0
M  V30 5401 N 493.685 -0.035106 -1.57561 0
M  V30 5402 C 494.931 0.637362 -1.93156 0
M  V30 5403 C 495.286 1.69391 -0.912392 0
M  V30 5404 O 494.579 1.91469 0.070735 0
M  V30 5405 C 494.773 1.29149 -3.3325 0
M  V30 5406 C 494.602 0.29983 -4.48699 0
M  V30 5407 C 493.372 -0.102454 -5.05196 0
M  V30 5408 C 495.57 -0.448297 -5.12342 0
M  V30 5409 N 493.552 -1.08866 -6.0417 0
M  V30 5410 C 494.923 -1.28807 -6.06472 0
M  V30 5411 C 496.978 -0.508351 -4.95298 0
M  V30 5412 C 495.681 -2.18248 -6.85391 0
M  V30 5413 C 497.707 -1.39013 -5.7483 0
M  V30 5414 C 497.069 -2.21766 -6.6858 0
M  V30 5415 H 493.168 0.205358 -0.754554 0
M  V30 5416 H 495.752 -0.103682 -1.94424 0
M  V30 5417 H 493.923 2.00264 -3.3279 0
M  V30 5418 H 495.655 1.92147 -3.56177 0
M  V30 5419 H 492.41 0.273223 -4.72811 0
M  V30 5420 H 492.834 -1.57817 -6.58348 0
M  V30 5421 H 497.476 0.117197 -4.22638 0
M  V30 5422 H 495.194 -2.81855 -7.57353 0
M  V30 5423 H 498.78 -1.44096 -5.63673 0
M  V30 5424 H 497.66 -2.88892 -7.29048 0
M  V30 5425 N 495.163 1.55791 0.238111 0
M  V30 5426 C 496.412 1.77234 0.962868 0
M  V30 5427 C 496.725 0.600661 1.86149 0
M  V30 5428 O 497.931 0.698315 2.62366 0
M  V30 5429 C 496.387 3.13808 1.76218 0
M  V30 5430 C 495.995 4.3865 0.910518 0
M  V30 5431 C 497.739 3.44585 2.47914 0
M  V30 5432 C 495.646 5.66252 1.70623 0
M  V30 5433 H 494.576 0.660731 0.36325 0
M  V30 5434 H 497.227 1.8221 0.217242 0
M  V30 5435 H 495.609 3.02963 2.55009 0
M  V30 5436 H 496.783 4.60507 0.164316 0
M  V30 5437 H 495.098 4.15271 0.30647 0
M  V30 5438 H 497.695 4.3714 3.07917 0
M  V30 5439 H 498.038 2.66314 3.19973 0
M  V30 5440 H 498.571 3.56685 1.76127 0
M  V30 5441 H 495.31 6.47369 1.02923 0
M  V30 5442 H 494.83 5.48483 2.42748 0
M  V30 5443 H 496.509 6.05829 2.27114 0
M  V30 5444 N 496.642 -0.504142 1.49319 0
M  V30 5445 C 498.058 -0.835039 1.36012 0
M  V30 5446 C 498.258 -1.97674 0.390808 0
M  V30 5447 O 497.314 -2.51867 -0.178655 0
M  V30 5448 C 498.627 -1.17821 2.76656 0
M  V30 5449 C 500.175 -1.2866 2.85334 0
M  V30 5450 C 500.65 -1.66307 4.26739 0
M  V30 5451 N 502.141 -1.73362 4.29534 0
M  V30 5452 C 502.876 -2.0393 5.35911 0
M  V30 5453 N 502.372 -2.32744 6.52535 0
M  V30 5454 N 504.165 -2.05155 5.23324 0
M  V30 5455 H 496.316 0.248764 2.10938 0
M  V30 5456 H 498.579 0.0486962 0.946748 0
M  V30 5457 H 498.285 -0.412682 3.4927 0
M  V30 5458 H 498.159 -2.12239 3.11825 0
M  V30 5459 H 500.546 -2.04285 2.1296 0
M  V30 5460 H 500.627 -0.323004 2.53752 0
M  V30 5461 H 500.271 -0.91234 4.99639 0
M  V30 5462 H 500.201 -2.63761 4.55782 0
M  V30 5463 H 502.692 -1.53268 3.45424 0
M  V30 5464 H 503.005 -2.55248 7.2943 0
M  V30 5465 H 501.35 -2.30207 6.55767 0
M  V30 5466 H 504.541 -1.82119 4.3122 0
M  V30 5467 H 504.714 -2.28644 6.06322 0
M  V30 5468 N 498.12 -1.38341 -0.754957 0
M  V30 5469 C 499.083 -1.35262 -1.85032 0
M  V30 5470 C 500.083 -0.253393 -1.58791 0
M  V30 5471 O 501.273 -0.510205 -1.66561 0
M  V30 5472 C 498.405 -1.10544 -3.22479 0
M  V30 5473 H 499.598 -2.32712 -1.8917 0
M  V30 5474 H 497.151 -1.23614 -0.956515 0
M  V30 5475 H 497.886 -0.136952 -3.24011 0
M  V30 5476 H 497.671 -1.90127 -3.4292 0
M  V30 5477 H 499.161 -1.11082 -4.02555 0
M  V30 5478 N 499.598 0.982988 -1.23187 0
M  V30 5479 C 500.528 2.09301 -1.03515 0
M  V30 5480 C 501.509 1.70035 0.0471136 0
M  V30 5481 O 502.694 1.93847 -0.117029 0
M  V30 5482 C 499.824 3.4167 -0.622791 0
M  V30 5483 C 498.778 3.94828 -1.65211 0
M  V30 5484 C 498.104 5.23362 -1.09527 0
M  V30 5485 C 499.404 4.2439 -3.04451 0
M  V30 5486 H 501.098 2.26016 -1.96359 0
M  V30 5487 H 498.644 1.08611 -0.945501 0
M  V30 5488 H 500.597 4.18746 -0.472233 0
M  V30 5489 H 499.321 3.24811 0.341329 0
M  V30 5490 H 497.98 3.19895 -1.79061 0
M  V30 5491 H 497.628 5.02852 -0.122211 0
M  V30 5492 H 497.328 5.59895 -1.783 0
M  V30 5493 H 498.852 6.03062 -0.956511 0
M  V30 5494 H 500.266 4.92225 -2.93917 0
M  V30 5495 H 498.663 4.72118 -3.70438 0
M  V30 5496 H 499.733 3.31765 -3.53638 0
M  V30 5497 N 501.076 1.04316 1.18135 0
M  V30 5498 C 502.487 0.775505 1.69832 0
M  V30 5499 C 502.838 -0.703348 1.8316 0
M  V30 5500 O 501.963 -1.54729 1.51287 0
M  V30 5501 C 502.558 1.40112 3.0847 0
M  V30 5502 C 501.117 1.18172 3.57368 0
M  V30 5503 C 500.264 1.49022 2.33854 0
M  V30 5504 H 503.215 1.20925 1.02775 0
M  V30 5505 H 503.236 0.805672 3.71873 0
M  V30 5506 H 502.748 2.47744 2.98738 0
M  V30 5507 H 500.849 0.124258 3.72393 0
M  V30 5508 H 500.962 1.8805 4.40652 0
M  V30 5509 H 499.326 0.909995 2.37889 0
M  V30 5510 H 500.109 2.57768 2.26738 0
M  V30 5511 N 502.554 -1.34406 0.822964 0
M  V30 5512 C 503.8 -1.98999 0.420847 0
M  V30 5513 C 504.155 -1.64067 -1.00498 0
M  V30 5514 O 503.448 -0.902071 -1.69036 0
M  V30 5515 C 503.642 -3.52981 0.560268 0
M  V30 5516 C 503.471 -4.02873 1.99809 0
M  V30 5517 C 502.241 -4.31463 2.62998 0
M  V30 5518 C 504.439 -4.20241 2.96483 0
M  V30 5519 N 502.421 -4.6739 3.9802 0
M  V30 5520 C 503.792 -4.59348 4.16413 0
M  V30 5521 C 505.847 -4.02489 2.93098 0
M  V30 5522 C 504.55 -4.82559 5.33413 0
M  V30 5523 C 506.576 -4.26866 4.09315 0
M  V30 5524 C 505.938 -4.6626 5.27997 0
M  V30 5525 H 502.037 -0.755432 0.202104 0
M  V30 5526 H 504.621 -1.62815 1.06767 0
M  V30 5527 H 502.792 -3.88359 -0.0566596 0
M  V30 5528 H 504.524 -4.04487 0.131146 0
M  V30 5529 H 501.279 -4.22373 2.14238 0
M  V30 5530 H 501.703 -4.89588 4.67582 0
M  V30 5531 H 506.345 -3.71161 2.02483 0
M  V30 5532 H 504.063 -5.12754 6.24587 0
M  V30 5533 H 507.649 -4.14667 4.08096 0
M  V30 5534 H 506.529 -4.84752 6.16429 0
M  V30 5535 N 504.032 -0.577932 -1.46621 0
M  V30 5536 C 505.309 0.00495287 -1.95599 0
M  V30 5537 C 505.689 1.46428 -1.5206 0
M  V30 5538 O 505.037 2.1517 -0.769046 0
M  V30 5539 C 505.247 -0.162114 -3.48623 0
M  V30 5540 C 506.595 -0.0274623 -4.24591 0
M  V30 5541 O 507.619 -0.0907067 -3.56084 0
M  V30 5542 O 506.478 0.1122 -5.46385 0
M  V30 5543 H 503.572 0.0525057 -0.825332 0
M  V30 5544 H 506.118 -0.645914 -1.56927 0
M  V30 5545 H 504.89 -1.17679 -3.73185 0
M  V30 5546 H 504.513 0.525407 -3.94113 0
M  V30 5547 N 505.51 1.54411 -0.315457 0
M  V30 5548 C 506.458 2.25514 0.569771 0
M  V30 5549 C 507.452 1.2663 1.12522 0
M  V30 5550 O 508.658 1.44434 1.07419 0
M  V30 5551 H 505.033 0.724257 0.202376 0
M  V30 5552 H 507.004 2.98354 -0.0522895 0
M  V30 5553 C 505.753 3.02004 1.72305 0
M  V30 5554 H 505.076 3.77906 1.30488 0
M  V30 5555 H 506.516 3.55014 2.31821 0
M  V30 5556 C 504.975 2.09822 2.63583 0
M  V30 5557 O 505.505 1.67574 3.65078 0
M  V30 5558 N 503.711 1.75478 2.31637 0
M  V30 5559 H 503.258 2.10032 1.49145 0
M  V30 5560 H 503.216 1.14079 2.92973 0
M  V30 5561 N 506.988 0.0434614 1.5754 0
M  V30 5562 C 508.399 -0.493343 1.80064 0
M  V30 5563 C 508.75 -1.71388 0.955023 0
M  V30 5564 O 507.875 -2.15736 0.169434 0
M  V30 5565 C 508.47 -0.90179 3.26578 0
M  V30 5566 C 507.029 -1.38362 3.50047 0
M  V30 5567 C 506.176 -0.355129 2.75017 0
M  V30 5568 H 509.127 0.2694 1.56397 0
M  V30 5569 H 509.148 -1.76523 3.37075 0
M  V30 5570 H 508.66 -0.013271 3.88098 0
M  V30 5571 H 506.761 -2.29159 2.93798 0
M  V30 5572 H 506.874 -1.3811 4.58762 0
M  V30 5573 H 505.238 -0.826348 2.40922 0
M  V30 5574 H 506.021 0.525172 3.39259 0
M  V30 5575 N 508.466 -1.55915 -0.229846 0
M  V30 5576 C 509.429 -1.90914 -1.26824 0
M  V30 5577 C 510.429 -0.786999 -1.40225 0
M  V30 5578 O 511.619 -1.05484 -1.38632 0
M  V30 5579 C 508.751 -2.15264 -2.64337 0
M  V30 5580 H 509.944 -2.8378 -0.969998 0
M  V30 5581 H 507.497 -1.49069 -0.4699 0
M  V30 5582 H 508.232 -1.24923 -2.99274 0
M  V30 5583 H 508.017 -2.97005 -2.55989 0
M  V30 5584 H 509.507 -2.43467 -3.39284 0
M  V30 5585 N 509.944 0.496216 -1.49584 0
M  V30 5586 C 511.191 1.25003 -1.59312 0
M  V30 5587 C 511.519 1.92445 -0.28198 0
M  V30 5588 O 510.774 1.81557 0.730452 0
M  V30 5589 C 511.073 2.3359 -2.705 0
M  V30 5590 C 510.739 1.83574 -4.11839 0
M  V30 5591 C 509.401 1.69653 -4.50302 0
M  V30 5592 C 511.753 1.46193 -5.00277 0
M  V30 5593 C 509.081 1.16736 -5.74969 0
M  V30 5594 C 511.433 0.947265 -6.25468 0
M  V30 5595 C 510.097 0.794485 -6.62755 0
M  V30 5596 H 509.367 0.45742 -0.582965 0
M  V30 5597 H 512.014 0.549996 -1.83432 0
M  V30 5598 H 510.319 3.09401 -2.40371 0
M  V30 5599 H 512.016 2.91627 -2.75235 0
M  V30 5600 H 508.606 1.9537 -3.81482 0
M  V30 5601 H 512.79 1.55793 -4.71214 0
M  V30 5602 H 508.046 1.03623 -6.02555 0
M  V30 5603 H 512.22 0.648846 -6.93371 0
M  V30 5604 H 509.847 0.382271 -7.59238 0
M  V30 5605 N 511.423 1.38739 0.74761 0
M  V30 5606 C 512.669 1.35475 1.50912 0
M  V30 5607 C 513.002 -0.0533093 1.94127 0
M  V30 5608 O 512.277 -1.01572 1.65871 0
M  V30 5609 C 512.56 2.31582 2.75757 0
M  V30 5610 C 512.413 3.81274 2.38642 0
M  V30 5611 C 513.732 2.25722 3.77806 0
M  V30 5612 H 510.851 0.493427 0.547447 0
M  V30 5613 H 513.493 1.69634 0.855823 0
M  V30 5614 H 511.643 2.02582 3.31501 0
M  V30 5615 H 513.315 4.20972 1.88626 0
M  V30 5616 H 511.558 3.98664 1.71025 0
M  V30 5617 H 512.229 4.4399 3.27989 0
M  V30 5618 H 514.705 2.51336 3.31616 0
M  V30 5619 H 513.581 2.95069 4.62845 0
M  V30 5620 H 513.842 1.25803 4.23823 0
M  V30 5621 N 512.901 -0.976442 1.23707 0
M  V30 5622 C 513.864 -2.0511 1.02287 0
M  V30 5623 C 514.864 -1.60791 -0.0167195 0
M  V30 5624 O 516.054 -1.72761 0.223408 0
M  V30 5625 C 513.186 -3.36458 0.548507 0
M  V30 5626 H 514.379 -2.25545 1.9766 0
M  V30 5627 H 511.932 -1.15042 1.05806 0
M  V30 5628 H 512.667 -3.21713 -0.408818 0
M  V30 5629 H 512.452 -3.69967 1.29874 0
M  V30 5630 H 513.942 -4.15489 0.419406 0
M  V30 5631 N 514.379 -1.04941 -1.1758 0
M  V30 5632 C 515.79 -0.784501 -1.69418 0
M  V30 5633 C 516.141 0.693625 -1.8353 0
M  V30 5634 O 515.266 1.53925 -1.52106 0
M  V30 5635 C 515.861 -1.41746 -3.07723 0
M  V30 5636 C 514.42 -1.20066 -3.56737 0
M  V30 5637 C 513.567 -1.5026 -2.33061 0
M  V30 5638 H 516.518 -1.21469 -1.02133 0
M  V30 5639 H 516.539 -0.825381 -3.7144 0
M  V30 5640 H 516.051 -2.49325 -2.9742 0
M  V30 5641 H 514.152 -0.144006 -3.72322 0
M  V30 5642 H 514.265 -1.90384 -4.39648 0
M  V30 5643 H 512.629 -0.922598 -2.37403 0
M  V30 5644 H 513.412 -2.58967 -2.25368 0
M  V30 5645 N 515.857 1.33968 -0.830081 0
M  V30 5646 C 517.103 1.98357 -0.422191 0
M  V30 5647 C 517.436 1.65633 1.01387 0
M  V30 5648 O 516.711 0.931648 1.70735 0
M  V30 5649 C 516.994 3.54492 -0.633043 0
M  V30 5650 C 516.847 3.96934 -2.11574 0
M  V30 5651 C 518.166 4.40039 -0.0735584 0
M  V30 5652 H 515.285 0.720544 -0.154871 0
M  V30 5653 H 517.927 1.58749 -1.04397 0
M  V30 5654 H 516.077 3.88361 -0.103775 0
M  V30 5655 H 517.749 3.73363 -2.7092 0
M  V30 5656 H 515.992 3.46984 -2.60354 0
M  V30 5657 H 516.663 5.05651 -2.21406 0
M  V30 5658 H 519.139 4.12764 -0.52585 0
M  V30 5659 H 518.015 5.48327 -0.250841 0
M  V30 5660 H 518.276 4.30124 1.02202 0
M  V30 5661 N 517.335 0.585699 1.46312 0
M  V30 5662 C 518.265 -0.133556 2.33118 0
M  V30 5663 C 519.246 -0.880707 1.45525 0
M  V30 5664 O 520.431 -0.855579 1.74337 0
M  V30 5665 C 517.561 -1.14585 3.27853 0
M  V30 5666 C 516.515 -0.513341 4.2491 0
M  V30 5667 C 515.841 -1.63231 5.09175 0
M  V30 5668 C 517.141 0.551413 5.19381 0
M  V30 5669 H 518.835 0.59121 2.93505 0
M  V30 5670 H 516.381 0.285761 1.41136 0
M  V30 5671 H 518.334 -1.65741 3.87438 0
M  V30 5672 H 517.058 -1.90093 2.65579 0
M  V30 5673 H 515.717 -0.0228349 3.66593 0
M  V30 5674 H 515.365 -2.37713 4.43285 0
M  V30 5675 H 515.065 -1.21473 5.74907 0
M  V30 5676 H 516.589 -2.14658 5.71624 0
M  V30 5677 H 518.003 0.124804 5.73164 0
M  V30 5678 H 516.4 0.889486 5.93471 0
M  V30 5679 H 517.47 1.43655 4.63132 0
M  V30 5680 N 518.813 -1.54241 0.323641 0
M  V30 5681 C 520.061 -2.00174 -0.278359 0
M  V30 5682 C 520.382 -1.2134 -1.52648 0
M  V30 5683 O 519.652 -0.315244 -1.93347 0
M  V30 5684 H 518.232 -0.739463 -0.105845 0
M  V30 5685 H 520.894 -1.89864 0.440204 0
M  V30 5686 H 519.99 -3.07486 -0.5347 0
M  V30 5687 N 520.291 -0.0518155 -1.57515 0
M  V30 5688 C 521.221 0.920283 -2.146 0
M  V30 5689 C 522.202 1.32406 -1.06783 0
M  V30 5690 O 523.387 1.39866 -1.34726 0
M  V30 5691 C 520.517 2.1949 -2.6915 0
M  V30 5692 C 519.471 1.93116 -3.81956 0
M  V30 5693 C 518.797 3.27037 -4.23026 0
M  V30 5694 C 520.097 1.25225 -5.07066 0
M  V30 5695 H 521.791 0.444801 -2.96077 0
M  V30 5696 H 519.337 0.212508 -1.42423 0
M  V30 5697 H 521.29 2.87894 -3.07725 0
M  V30 5698 H 520.014 2.69244 -1.84865 0
M  V30 5699 H 518.673 1.27123 -3.43854 0
M  V30 5700 H 518.321 3.74595 -3.3569 0
M  V30 5701 H 518.021 3.10189 -4.99056 0
M  V30 5702 H 519.545 3.96673 -4.64202 0
M  V30 5703 H 520.959 1.83666 -5.43083 0
M  V30 5704 H 519.356 1.18702 -5.88243 0
M  V30 5705 H 520.426 0.228382 -4.84362 0
M  V30 5706 N 521.769 1.56035 0.221574 0
M  V30 5707 C 522.699 1.95434 1.2778 0
M  V30 5708 C 523.68 0.822564 1.48889 0
M  V30 5709 O 524.865 1.08486 1.61072 0
M  V30 5710 C 521.995 2.27102 2.62759 0
M  V30 5711 C 520.949 3.4277 2.56306 0
M  V30 5712 C 520.275 3.60043 3.95314 0
M  V30 5713 C 521.575 4.77742 2.11093 0
M  V30 5714 H 523.269 2.83912 0.950504 0
M  V30 5715 H 520.815 1.36596 0.455791 0
M  V30 5716 H 522.768 2.53256 3.36807 0
M  V30 5717 H 521.492 1.35478 2.97176 0
M  V30 5718 H 520.151 3.16664 1.84715 0
M  V30 5719 H 519.799 2.65794 4.27039 0
M  V30 5720 H 519.499 4.37841 3.91879 0
M  V30 5721 H 521.023 3.88545 4.71025 0
M  V30 5722 H 522.437 5.03102 2.74885 0
M  V30 5723 H 520.834 5.58823 2.18716 0
M  V30 5724 H 521.904 4.731 1.06321 0
M  V30 5725 N 523.247 -0.488276 1.49845 0
M  V30 5726 C 524.495 -1.23911 1.59657 0
M  V30 5727 C 524.816 -1.92816 0.291005 0
M  V30 5728 O 524.086 -1.83328 -0.690485 0
M  V30 5729 H 522.666 -0.460357 0.588286 0
M  V30 5730 H 525.328 -0.564794 1.86537 0
M  V30 5731 H 524.424 -1.99625 2.39909 0
M  V30 5732 N 524.725 -1.39134 -0.740242 0
M  V30 5733 C 525.972 -1.36071 -1.49969 0
M  V30 5734 C 526.3 0.0450245 -1.94448 0
M  V30 5735 O 525.555 1.02482 -1.66721 0
M  V30 5736 C 525.854 -2.27457 -2.75678 0
M  V30 5737 C 525.52 -3.75185 -2.50094 0
M  V30 5738 C 524.182 -4.15439 -2.42825 0
M  V30 5739 C 526.534 -4.68643 -2.28086 0
M  V30 5740 C 523.862 -5.4722 -2.11584 0
M  V30 5741 C 526.214 -6.00695 -1.98363 0
M  V30 5742 C 524.878 -6.40018 -1.8956 0
M  V30 5743 H 524.148 -0.497921 -0.548777 0
M  V30 5744 H 526.795 -1.71599 -0.85007 0
M  V30 5745 H 525.1 -1.8503 -3.45356 0
M  V30 5746 H 526.797 -2.22384 -3.33686 0
M  V30 5747 H 523.387 -3.43279 -2.56627 0
M  V30 5748 H 527.571 -4.3838 -2.32672 0
M  V30 5749 H 522.827 -5.76615 -2.03287 0
M  V30 5750 H 527.001 -6.72644 -1.80341 0
M  V30 5751 H 524.628 -7.42051 -1.65117 0
M  V30 5752 N 526.204 0.969867 -1.24223 0
M  V30 5753 C 527.453 1.70687 -1.07466 0
M  V30 5754 C 527.766 1.91736 0.386861 0
M  V30 5755 O 528.972 2.62986 0.674581 0
M  V30 5756 C 527.428 3.07217 -1.87472 0
M  V30 5757 C 527.036 2.94018 -3.3802 0
M  V30 5758 C 528.78 3.84804 -1.79237 0
M  V30 5759 C 526.687 4.25844 -4.10379 0
M  V30 5760 H 525.617 0.640067 -0.398536 0
M  V30 5761 H 528.268 1.08092 -1.48285 0
M  V30 5762 H 526.65 3.70628 -1.39466 0
M  V30 5763 H 527.824 2.39632 -3.9359 0
M  V30 5764 H 526.139 2.29898 -3.47183 0
M  V30 5765 H 528.736 4.82417 -2.30603 0
M  V30 5766 H 529.079 4.09356 -0.757197 0
M  V30 5767 H 529.612 3.28115 -2.24912 0
M  V30 5768 H 526.351 4.06486 -5.14246 0
M  V30 5769 H 525.871 4.80054 -3.59594 0
M  V30 5770 H 527.55 4.94475 -4.17257 0
M  V30 5771 N 527.682 1.05563 1.17022 0
M  V30 5772 C 529.093 0.793475 1.69 0
M  V30 5773 C 529.444 -0.683882 1.83895 0
M  V30 5774 O 528.569 -1.53116 1.5292 0
M  V30 5775 C 529.164 1.43376 3.06967 0
M  V30 5776 C 527.723 1.21956 3.56095 0
M  V30 5777 C 526.87 1.51494 2.3226 0
M  V30 5778 H 529.821 1.22008 1.01487 0
M  V30 5779 H 529.842 0.845068 3.70997 0
M  V30 5780 H 529.354 2.50899 2.96093 0
M  V30 5781 H 527.455 0.163749 3.7224 0
M  V30 5782 H 527.568 1.92713 4.38633 0
M  V30 5783 H 525.932 0.935175 2.3691 0
M  V30 5784 H 526.715 2.60159 2.23992 0
M  V30 5785 N 529.16 -1.33526 0.837174 0
M  V30 5786 C 530.408 -1.97446 0.431211 0
M  V30 5787 C 530.729 -1.6665 -1.01255 0
M  V30 5788 O 529.999 -0.964559 -1.70508 0
M  V30 5789 H 528.579 -0.73043 0.156463 0
M  V30 5790 H 531.241 -1.62918 1.06976 0
M  V30 5791 H 530.337 -3.07001 0.561877 0
M  V30 5792 N 530.638 -0.59345 -1.46 0
M  V30 5793 C 531.886 -0.082988 -2.0193 0
M  V30 5794 C 532.207 1.28569 -1.46612 0
M  V30 5795 O 531.477 1.84629 -0.654909 0
M  V30 5796 H 530.057 -0.0276882 -0.746487 0
M  V30 5797 H 532.719 -0.771657 -1.78973 0
M  V30 5798 H 531.815 -0.022079 -3.12092 0
M  V30 5799 N 532.116 1.54067 -0.331816 0
M  V30 5800 C 533.079 2.23275 0.517768 0
M  V30 5801 C 534.079 1.22897 1.03697 0
M  V30 5802 O 535.269 1.47419 0.928084 0
M  V30 5803 C 532.401 2.94326 1.72004 0
M  V30 5804 H 533.594 2.99773 -0.0873507 0
M  V30 5805 H 531.147 1.56079 -0.0830042 0
M  V30 5806 H 531.882 2.21986 2.36417 0
M  V30 5807 H 531.667 3.67941 1.35507 0
M  V30 5808 H 533.157 3.47031 2.32291 0
M  V30 5809 N 533.594 0.0601682 1.57485 0
M  V30 5810 C 534.842 -0.610386 1.92662 0
M  V30 5811 C 535.163 -1.70849 0.939981 0
M  V30 5812 O 534.433 -1.95895 -0.0137455 0
M  V30 5813 H 533.013 -0.228457 0.711208 0
M  V30 5814 H 535.675 0.115288 1.94559 0
M  V30 5815 H 534.771 -1.0432 2.94149 0
M  V30 5816 N 535.072 -1.5615 -0.213296 0
M  V30 5817 C 536.32 -1.79191 -0.934612 0
M  V30 5818 C 536.641 -0.630112 -1.84539 0
M  V30 5819 O 535.911 0.35257 -1.92701 0
M  V30 5820 H 534.491 -0.660937 -0.348097 0
M  V30 5821 H 537.153 -1.93618 -0.22317 0
M  V30 5822 H 536.249 -2.71656 -1.53654 0
M  V30 5823 N 536.55 0.480323 -1.50102 0
M  V30 5824 C 537.799 1.22979 -1.59872 0
M  V30 5825 C 538.112 1.93282 -0.30022 0
M  V30 5826 O 539.318 2.70086 -0.276709 0
M  V30 5827 C 537.774 2.23408 -2.82164 0
M  V30 5828 C 537.382 1.5895 -4.18854 0
M  V30 5829 C 539.126 2.99055 -3.01275 0
M  V30 5830 C 537.033 2.57611 -5.32344 0
M  V30 5831 H 535.963 0.462707 -0.59533 0
M  V30 5832 H 538.614 0.501291 -1.7652 0
M  V30 5833 H 536.996 2.99511 -2.59055 0
M  V30 5834 H 538.17 0.887 -4.52182 0
M  V30 5835 H 536.485 0.956191 -4.05273 0
M  V30 5836 H 539.082 3.72876 -3.83233 0
M  V30 5837 H 539.425 3.57897 -2.12639 0
M  V30 5838 H 539.958 2.30066 -3.24522 0
M  V30 5839 H 536.697 2.03521 -6.23105 0
M  V30 5840 H 536.217 3.26041 -5.03445 0
M  V30 5841 H 537.896 3.19627 -5.62537 0
M  V30 5842 N 538.028 1.39524 0.732853 0
M  V30 5843 C 539.274 1.37068 1.49467 0
M  V30 5844 C 539.607 -0.0327166 1.94172 0
M  V30 5845 O 538.882 -0.998071 1.66939 0
M  V30 5846 C 539.165 2.34494 2.73285 0
M  V30 5847 C 539.018 3.83784 2.34585 0
M  V30 5848 C 540.337 2.29717 3.75391 0
M  V30 5849 H 537.456 0.499206 0.542183 0
M  V30 5850 H 540.098 1.70532 0.837783 0
M  V30 5851 H 538.248 2.06087 3.29333 0
M  V30 5852 H 539.92 4.22949 1.84151 0
M  V30 5853 H 538.163 4.00455 1.66787 0
M  V30 5854 H 538.834 4.47444 3.23262 0
M  V30 5855 H 541.31 2.54839 3.28932 0
M  V30 5856 H 540.186 2.99962 4.59689 0
M  V30 5857 H 540.447 1.30291 4.22465 0
M  V30 5858 N 539.506 -0.963266 1.24736 0
M  V30 5859 C 540.454 -2.07985 1.04139 0
M  V30 5860 C 541.448 -1.69381 -0.0250556 0
M  V30 5861 O 542.654 -1.79531 0.129863 0
M  V30 5862 H 539.029 -0.680627 0.319768 0
M  V30 5863 H 541 -2.22517 1.98818 0
M  V30 5864 C 539.749 -3.4123 0.667615 0
M  V30 5865 H 539.072 -3.71397 1.48 0
M  V30 5866 H 540.512 -4.20244 0.563136 0
M  V30 5867 C 538.971 -3.3104 -0.625647 0
M  V30 5868 O 539.501 -3.65334 -1.67016 0
M  V30 5869 N 537.707 -2.84168 -0.608033 0
M  V30 5870 H 537.254 -2.56458 0.242323 0
M  V30 5871 H 537.212 -2.77732 -1.47352 0
M  V30 5872 N 540.985 -1.06182 -1.16461 0
M  V30 5873 C 541.948 -0.675723 -2.19013 0
M  V30 5874 C 542.948 0.277963 -1.58379 0
M  V30 5875 O 544.138 0.0604962 -1.74095 0
M  V30 5876 C 541.27 0.00591459 -3.40899 0
M  V30 5877 H 542.463 -1.58353 -2.54685 0
M  V30 5878 H 540.016 -0.856908 -1.30716 0
M  V30 5879 H 540.751 0.92652 -3.10783 0
M  V30 5880 H 540.536 -0.67984 -3.86161 0
M  V30 5881 H 542.026 0.26181 -4.16778 0
M  V30 5882 N 542.463 1.3308 -0.844243 0
M  V30 5883 C 543.688 2.02341 -0.455282 0
M  V30 5884 C 544.113 1.6308 0.93737 0
M  V30 5885 O 543.471 0.826118 1.61385 0
M  V30 5886 C 543.519 3.55743 -0.58988 0
M  V30 5887 O 542.623 4.1063 0.38166 0
M  V30 5888 H 541.964 0.637898 -0.184343 0
M  V30 5889 H 544.494 1.6986 -1.14056 0
M  V30 5890 H 544.504 4.05243 -0.473522 0
M  V30 5891 H 543.179 3.83662 -1.60549 0
M  V30 5892 H 541.756 3.72236 0.22241 0
M  V30 5893 N 543.941 0.601185 1.45683 0
M  V30 5894 C 545.188 0.0938811 2.02282 0
M  V30 5895 C 545.516 -1.27315 1.47041 0
M  V30 5896 O 544.771 -1.85193 0.632623 0
M  V30 5897 C 545.07 -0.00222425 3.574 0
M  V30 5898 C 544.736 1.29963 4.31764 0
M  V30 5899 C 543.398 1.65625 4.51798 0
M  V30 5900 C 545.75 2.1603 4.74321 0
M  V30 5901 C 543.078 2.87119 5.11644 0
M  V30 5902 C 545.43 3.36766 5.3551 0
M  V30 5903 C 544.094 3.72689 5.53768 0
M  V30 5904 H 543.364 0.0343535 0.740203 0
M  V30 5905 H 546.011 0.781522 1.74827 0
M  V30 5906 H 544.316 -0.773096 3.84097 0
M  V30 5907 H 546.013 -0.410794 3.9889 0
M  V30 5908 H 542.603 1.01204 4.1648 0
M  V30 5909 H 546.787 1.89778 4.58582 0
M  V30 5910 H 542.043 3.15065 5.2397 0
M  V30 5911 H 546.217 4.03713 5.67441 0
M  V30 5912 H 543.844 4.66918 5.99909 0
M  V30 5913 N 545.419 -1.53889 0.339982 0
M  V30 5914 C 546.647 -2.05271 -0.259114 0
M  V30 5915 C 547.062 -1.21517 -1.44496 0
M  V30 5916 O 546.419 -0.24966 -1.80784 0
M  V30 5917 C 546.47 -3.55092 -0.677634 0
M  V30 5918 O 546.191 -4.35667 0.461051 0
M  V30 5919 C 547.692 -4.22631 -1.33782 0
M  V30 5920 H 544.912 -0.669085 -0.0506566 0
M  V30 5921 H 547.456 -1.9852 0.490935 0
M  V30 5922 H 545.611 -3.62077 -1.37763 0
M  V30 5923 H 546.025 -5.24343 0.128144 0
M  V30 5924 H 547.499 -5.28861 -1.58145 0
M  V30 5925 H 547.976 -3.74758 -2.29027 0
M  V30 5926 H 548.582 -4.19829 -0.679957 0
M  V30 5927 N 546.897 -0.0685191 -1.57451 0
M  V30 5928 C 547.827 0.89747 -2.15564 0
M  V30 5929 C 548.808 1.31266 -1.08181 0
M  V30 5930 O 549.993 1.38429 -1.36202 0
M  V30 5931 C 547.123 2.16623 -2.71463 0
M  V30 5932 C 546.077 1.89054 -3.83982 0
M  V30 5933 C 545.403 3.22532 -4.26471 0
M  V30 5934 C 546.703 1.1984 -5.08366 0
M  V30 5935 H 548.397 0.413373 -2.96533 0
M  V30 5936 H 545.943 0.197391 -1.42641 0
M  V30 5937 H 547.896 2.84614 -3.10761 0
M  V30 5938 H 546.62 2.67269 -1.8771 0
M  V30 5939 H 545.279 1.23469 -3.45183 0
M  V30 5940 H 544.927 3.71013 -3.39644 0
M  V30 5941 H 544.627 3.04879 -5.02317 0
M  V30 5942 H 546.151 3.91727 -4.68383 0
M  V30 5943 H 547.565 1.77896 -5.45001 0
M  V30 5944 H 545.962 1.12456 -5.89469 0
M  V30 5945 H 547.032 0.176996 -4.84577 0
M  V30 5946 N 548.375 1.56261 0.205012 0
M  V30 5947 C 549.652 1.70856 0.952233 0
M  V30 5948 C 550.032 0.620501 2.01775 0
M  V30 5949 O 549.38 -0.370035 2.25484 0
M  V30 5950 C 549.59 3.12807 1.54767 0
M  V30 5951 C 550.938 3.72733 2.0336 0
M  V30 5952 O 551.962 3.15873 1.64629 0
M  V30 5953 O 550.821 4.72501 2.746 0
M  V30 5954 H 547.915 0.696496 0.445895 0
M  V30 5955 H 550.461 1.6857 0.195489 0
M  V30 5956 H 549.233 3.83465 0.779132 0
M  V30 5957 H 548.856 3.1928 2.36951 0
M  V30 5958 N 549.853 -0.472356 1.50355 0
M  V30 5959 C 551.083 -1.24603 1.64796 0
M  V30 5960 C 551.491 -1.86297 0.330156 0
M  V30 5961 O 550.834 -1.69934 -0.697728 0
M  V30 5962 C 550.896 -2.39578 2.68035 0
M  V30 5963 C 550.56 -1.98531 4.11624 0
M  V30 5964 C 551.557 -1.50856 4.97532 0
M  V30 5965 C 549.242 -2.0729 4.57532 0
M  V30 5966 C 551.236 -1.12481 6.27397 0
M  V30 5967 C 548.923 -1.68527 5.87403 0
M  V30 5968 C 549.921 -1.212 6.7216 0
M  V30 5969 O 549.609 -0.829728 7.99607 0
M  V30 5970 H 549.341 -0.383035 0.55701 0
M  V30 5971 H 551.895 -0.570392 1.97321 0
M  V30 5972 H 550.125 -3.10309 2.30749 0
M  V30 5973 H 551.814 -3.01544 2.71709 0
M  V30 5974 H 552.58 -1.43511 4.63281 0
M  V30 5975 H 548.459 -2.43076 3.91708 0
M  V30 5976 H 552.003 -0.754698 6.93506 0
M  V30 5977 H 547.9 -1.7553 6.21176 0
M  V30 5978 H 548.668 -0.958689 8.12866 0
M  V30 5979 N 551.331 -1.39911 -0.725443 0
M  V30 5980 C 552.577 -1.37858 -1.48738 0
M  V30 5981 C 552.91 0.0224187 -1.94187 0
M  V30 5982 O 552.185 0.989204 -1.67466 0
M  V30 5983 C 552.468 -2.3594 -2.72038 0
M  V30 5984 C 552.321 -3.85023 -2.32546 0
M  V30 5985 C 553.64 -2.31704 -3.74167 0
M  V30 5986 H 550.759 -0.502074 -0.539528 0
M  V30 5987 H 553.401 -1.70974 -0.828728 0
M  V30 5988 H 551.551 -2.0783 -3.28236 0
M  V30 5989 H 553.223 -4.2392 -1.81905 0
M  V30 5990 H 551.466 -4.01334 -1.64661 0
M  V30 5991 H 552.137 -4.49152 -3.20884 0
M  V30 5992 H 554.613 -2.5658 -3.27576 0
M  V30 5993 H 553.489 -3.02395 -4.58092 0
M  V30 5994 H 553.75 -1.3253 -4.21768 0
M  V30 5995 N 552.809 0.956637 -1.25245 0
M  V30 5996 C 554.055 1.70352 -1.10036 0
M  V30 5997 C 554.388 1.90869 0.358156 0
M  V30 5998 O 553.663 1.47819 1.26411 0
M  V30 5999 C 553.946 3.08766 -1.85298 0
M  V30 6000 C 553.799 2.95672 -3.38966 0
M  V30 6001 C 555.118 4.08622 -1.63451 0
M  V30 6002 H 552.237 0.618279 -0.401123 0
M  V30 6003 H 554.879 1.11212 -1.54051 0
M  V30 6004 H 553.029 3.59252 -1.47887 0
M  V30 6005 H 554.701 2.52527 -3.86041 0
M  V30 6006 H 552.944 2.31634 -3.6678 0
M  V30 6007 H 553.615 3.93776 -3.86839 0
M  V30 6008 H 556.091 3.67038 -1.96015 0
M  V30 6009 H 554.967 5.03514 -2.18551 0
M  V30 6010 H 555.228 4.3834 -0.575357 0
M  V30 6011 N 554.287 1.06798 1.15896 0
M  V30 6012 C 555.237 0.653213 2.18443 0
M  V30 6013 C 556.221 -0.318763 1.57711 0
M  V30 6014 O 557.413 -0.133388 1.76497 0
M  V30 6015 C 554.542 0.0465785 3.43268 0
M  V30 6016 C 553.628 1.04336 4.11066 0
M  V30 6017 N 554.019 2.22084 4.54436 0
M  V30 6018 C 552.317 0.875433 4.37324 0
M  V30 6019 C 553.018 2.85276 5.06944 0
M  V30 6020 N 551.994 2.12973 5.00143 0
M  V30 6021 H 555.796 1.55011 2.49698 0
M  V30 6022 H 553.31 0.940384 1.32403 0
M  V30 6023 H 555.307 -0.26843 4.16035 0
M  V30 6024 H 553.967 -0.845504 3.13499 0
M  V30 6025 H 554.978 2.59833 4.48004 0
M  V30 6026 H 551.655 0.0357721 4.17485 0
M  V30 6027 H 553.045 3.85223 5.50503 0
M  V30 6028 N 555.766 -1.3263 0.851289 0
M  V30 6029 C 556.714 -2.30882 0.282202 0
M  V30 6030 C 557.708 -1.58697 -0.592589 0
M  V30 6031 O 558.914 -1.73461 -0.480768 0
M  V30 6032 H 555.289 -0.748492 0.0725487 0
M  V30 6033 H 557.26 -2.76374 1.12516 0
M  V30 6034 C 556.009 -3.43828 -0.517449 0
M  V30 6035 H 555.332 -3.99532 0.146392 0
M  V30 6036 H 556.772 -4.1474 -0.88128 0
M  V30 6037 C 555.231 -2.90786 -1.70133 0
M  V30 6038 O 555.761 -2.88 -2.80034 0
M  V30 6039 N 553.967 -2.4723 -1.52728 0
M  V30 6040 H 553.514 -2.49695 -0.633257 0
M  V30 6041 H 553.472 -2.12094 -2.32085 0
M  V30 6042 N 557.244 -0.608902 -1.45362 0
M  V30 6043 C 558.472 -0.111013 -2.06602 0
M  V30 6044 C 558.887 1.20516 -1.45332 0
M  V30 6045 O 558.244 1.73437 -0.567978 0
M  V30 6046 C 558.295 0.033688 -3.61484 0
M  V30 6047 O 558.016 -1.23041 -4.20467 0
M  V30 6048 C 559.517 0.562882 -4.39712 0
M  V30 6049 H 556.737 -0.0694453 -0.667397 0
M  V30 6050 H 559.281 -0.837008 -1.86586 0
M  V30 6051 H 557.436 0.710016 -3.80838 0
M  V30 6052 H 557.85 -1.06094 -5.13658 0
M  V30 6053 H 559.324 0.613213 -5.48583 0
M  V30 6054 H 559.801 1.58543 -4.09586 0
M  V30 6055 H 560.407 -0.0794454 -4.25226 0
M  V30 6056 N 558.722 1.53707 -0.348139 0
M  V30 6057 C 559.685 2.23812 0.494058 0
M  V30 6058 C 560.685 1.23989 1.02388 0
M  V30 6059 O 561.875 1.48395 0.912396 0
M  V30 6060 C 559.007 2.96133 1.68872 0
M  V30 6061 H 560.2 2.99663 -0.119141 0
M  V30 6062 H 557.753 1.55983 -0.0995539 0
M  V30 6063 H 558.488 2.24481 2.34049 0
M  V30 6064 H 558.273 3.69357 1.31596 0
M  V30 6065 H 559.763 3.49475 2.28597 0
M  V30 6066 N 560.2 0.0768682 1.57412 0
M  V30 6067 C 561.446 -0.585926 1.94778 0
M  V30 6068 C 561.801 -1.66912 0.956982 0
M  V30 6069 O 561.094 -1.9159 -0.0199454 0
M  V30 6070 C 561.288 -1.20268 3.36557 0
M  V30 6071 C 561.117 -0.18076 4.49337 0
M  V30 6072 C 559.887 0.236362 5.04747 0
M  V30 6073 C 562.085 0.583978 5.10974 0
M  V30 6074 N 560.067 1.24846 6.01071 0
M  V30 6075 C 561.438 1.44841 6.02844 0
M  V30 6076 C 563.493 0.639492 4.93776 0
M  V30 6077 C 562.196 2.36343 6.79363 0
M  V30 6078 C 564.222 1.54204 5.70942 0
M  V30 6079 C 563.584 2.39414 6.62465 0
M  V30 6080 H 559.683 -0.185281 0.759734 0
M  V30 6081 H 562.267 0.155193 1.9408 0
M  V30 6082 H 560.438 -1.9137 3.37982 0
M  V30 6083 H 562.17 -1.82636 3.61146 0
M  V30 6084 H 558.925 -0.14777 4.73369 0
M  V30 6085 H 559.349 1.75217 6.53933 0
M  V30 6086 H 563.991 -0.00510074 4.228 0
M  V30 6087 H 561.709 3.01836 7.49614 0
M  V30 6088 H 565.295 1.5899 5.59655 0
M  V30 6089 H 564.175 3.0812 7.21132 0
M  V30 6090 N 561.678 -1.56367 -0.196722 0
M  V30 6091 C 562.924 -1.80796 -0.918725 0
M  V30 6092 C 563.257 -0.650645 -1.82976 0
M  V30 6093 O 562.532 0.348889 -1.91345 0
M  V30 6094 C 562.815 -3.15472 -1.73636 0
M  V30 6095 C 562.668 -4.41693 -0.85015 0
M  V30 6096 C 563.987 -3.46824 -2.70927 0
M  V30 6097 H 561.106 -0.657702 -0.332561 0
M  V30 6098 H 563.748 -1.89086 -0.186186 0
M  V30 6099 H 561.898 -3.08536 -2.36088 0
M  V30 6100 H 563.57 -4.60673 -0.240459 0
M  V30 6101 H 561.813 -4.33517 -0.156785 0
M  V30 6102 H 562.484 -5.32419 -1.45719 0
M  V30 6103 H 564.96 -3.54049 -2.18607 0
M  V30 6104 H 563.836 -4.4218 -3.25219 0
M  V30 6105 H 564.097 -2.70236 -3.49893 0
M  V30 6106 N 563.156 0.464375 -1.50603 0
M  V30 6107 C 564.567 1.04507 -1.5471 0
M  V30 6108 C 564.918 1.9297 -0.354542 0
M  V30 6109 O 564.043 2.09763 0.531812 0
M  V30 6110 C 564.638 1.90207 -2.80369 0
M  V30 6111 C 563.197 2.43373 -2.87135 0
M  V30 6112 C 562.344 1.21886 -2.49076 0
M  V30 6113 H 565.295 0.246716 -1.56771 0
M  V30 6114 H 565.316 2.75353 -2.62604 0
M  V30 6115 H 564.828 1.25796 -3.67147 0
M  V30 6116 H 562.929 3.11318 -2.04724 0
M  V30 6117 H 563.042 2.7802 -3.90181 0
M  V30 6118 H 561.406 1.55575 -2.01664 0
M  V30 6119 H 562.189 0.591268 -3.3817 0
M  V30 6120 N 564.634 1.40294 0.718013 0
M  V30 6121 C 565.882 1.38167 1.47494 0
M  V30 6122 C 566.203 -0.01607 1.94993 0
M  V30 6123 O 565.473 -0.970396 1.70177 0
M  V30 6124 H 564.053 0.508505 0.547203 0
M  V30 6125 H 566.715 1.75324 0.851322 0
M  V30 6126 H 565.811 2.05503 2.34894 0
M  V30 6127 N 566.112 -0.949982 1.2575 0
M  V30 6128 C 567.062 -2.03297 1.03221 0
M  V30 6129 C 568.046 -1.60867 -0.0324751 0
M  V30 6130 O 569.238 -1.76047 0.183423 0
M  V30 6131 C 566.367 -3.36938 0.657841 0
M  V30 6132 C 565.453 -3.85878 1.75952 0
M  V30 6133 N 565.844 -4.0756 2.99547 0
M  V30 6134 C 564.142 -4.14709 1.64111 0
M  V30 6135 C 564.843 -4.47961 3.71087 0
M  V30 6136 N 563.819 -4.5416 2.98731 0
M  V30 6137 H 567.621 -2.1806 1.97045 0
M  V30 6138 H 565.135 -1.13516 1.16138 0
M  V30 6139 H 567.132 -4.14155 0.477614 0
M  V30 6140 H 565.792 -3.2355 -0.273025 0
M  V30 6141 H 566.803 -3.94501 3.35544 0
M  V30 6142 H 563.48 -4.10158 0.779527 0
M  V30 6143 H 564.87 -4.73002 4.77199 0
M  V30 6144 N 567.59 -1.07411 -1.15328 0
M  V30 6145 C 568.837 -0.797649 -1.86128 0
M  V30 6146 C 569.165 0.676298 -1.82364 0
M  V30 6147 O 568.42 1.51223 -1.24218 0
M  V30 6148 C 568.719 -1.25191 -3.34757 0
M  V30 6149 C 568.385 -2.73191 -3.58716 0
M  V30 6150 C 567.047 -3.13616 -3.64964 0
M  V30 6151 C 569.399 -3.68718 -3.6837 0
M  V30 6152 C 566.727 -4.48383 -3.78377 0
M  V30 6153 C 569.079 -5.03248 -3.83306 0
M  V30 6154 C 567.743 -5.43293 -3.878 0
M  V30 6155 H 567.013 -0.29188 -0.681092 0
M  V30 6156 H 569.66 -1.34524 -1.36292 0
M  V30 6157 H 567.965 -0.623712 -3.86804 0
M  V30 6158 H 569.662 -1.01489 -3.87945 0
M  V30 6159 H 566.252 -2.40898 -3.54494 0
M  V30 6160 H 570.436 -3.38614 -3.62842 0
M  V30 6161 H 565.692 -4.78877 -3.80114 0
M  V30 6162 H 569.866 -5.77142 -3.89718 0
M  V30 6163 H 567.493 -6.47721 -3.97946 0
M  V30 6164 N 569.068 1.32177 -0.85831 0
M  V30 6165 C 570.018 2.26307 -0.277307 0
M  V30 6166 C 571.002 1.50123 0.578946 0
M  V30 6167 O 572.194 1.71754 0.427731 0
M  V30 6168 C 569.323 3.39181 0.530232 0
M  V30 6169 C 568.409 4.22746 -0.338613 0
M  V30 6170 N 568.8 4.85265 -1.4266 0
M  V30 6171 C 567.098 4.45813 -0.129 0
M  V30 6172 C 567.799 5.47634 -1.96142 0
M  V30 6173 N 566.775 5.28794 -1.26007 0
M  V30 6174 H 570.577 2.72173 -1.10902 0
M  V30 6175 H 568.091 1.46308 -0.704816 0
M  V30 6176 H 570.088 4.05628 0.962904 0
M  V30 6177 H 568.748 2.9486 1.35969 0
M  V30 6178 H 569.759 4.85259 -1.80953 0
M  V30 6179 H 566.436 4.12163 0.665451 0
M  V30 6180 H 567.826 6.0735 -2.8736 0
M  V30 6181 N 570.547 0.616602 1.45037 0
M  V30 6182 C 571.477 -0.0840787 2.33349 0
M  V30 6183 C 572.458 -0.849641 1.4736 0
M  V30 6184 O 573.643 -0.818407 1.76113 0
M  V30 6185 C 570.773 -1.07604 3.3021 0
M  V30 6186 C 569.727 -0.423096 4.25904 0
M  V30 6187 C 569.053 -1.52394 5.12523 0
M  V30 6188 C 570.353 0.661457 5.18095 0
M  V30 6189 H 572.047 0.653333 2.92185 0
M  V30 6190 H 569.593 0.315634 1.40498 0
M  V30 6191 H 571.546 -1.57485 3.90866 0
M  V30 6192 H 570.27 -1.84416 2.69552 0
M  V30 6193 H 568.929 0.05493 3.66559 0
M  V30 6194 H 568.577 -2.28257 4.48227 0
M  V30 6195 H 568.277 -1.09251 5.77354 0
M  V30 6196 H 569.801 -2.02485 5.76049 0
M  V30 6197 H 571.215 0.246353 5.7277 0
M  V30 6198 H 569.612 1.01517 5.91451 0
M  V30 6199 H 570.682 1.53446 4.59981 0
M  V30 6200 N 572.025 -1.5352 0.356285 0
M  V30 6201 C 572.957 -2.23009 -0.529127 0
M  V30 6202 C 573.97 -1.241 -1.05371 0
M  V30 6203 O 575.159 -1.50379 -0.961679 0
M  V30 6204 C 572.259 -2.90685 -1.74229 0
M  V30 6205 C 571.432 -4.16019 -1.35081 0
M  V30 6206 C 570.491 -4.66989 -2.42502 0
M  V30 6207 O 569.517 -5.30895 -2.05279 0
M  V30 6208 N 570.719 -4.44006 -3.7395 0
M  V30 6209 H 573.484 -2.99627 0.0660501 0
M  V30 6210 H 571.045 -1.60885 0.181014 0
M  V30 6211 H 573.037 -3.21695 -2.4555 0
M  V30 6212 H 571.607 -2.17575 -2.24454 0
M  V30 6213 H 570.827 -3.91414 -0.467833 0
M  V30 6214 H 572.115 -4.9752 -1.06542 0
M  V30 6215 H 571.513 -3.92924 -4.06973 0
M  V30 6216 H 570.07 -4.7959 -4.41403 0
M  V30 6217 N 573.503 -0.0852151 -1.57369 0
M  V30 6218 C 574.749 0.581666 -1.94279 0
M  V30 6219 C 575.082 1.68444 -0.966446 0
M  V30 6220 O 574.357 1.945 0.00215277 0
M  V30 6221 C 574.64 1.14609 -3.41375 0
M  V30 6222 C 574.493 0.0490414 -4.49773 0
M  V30 6223 C 575.812 2.04751 -3.8957 0
M  V30 6224 H 572.931 0.209972 -0.706456 0
M  V30 6225 H 575.573 -0.153915 -1.89376 0
M  V30 6226 H 573.723 1.77297 -3.45685 0
M  V30 6227 H 575.395 -0.584721 -4.57579 0
M  V30 6228 H 573.638 -0.618638 -4.29366 0
M  V30 6229 H 574.309 0.484601 -5.49869 0
M  V30 6230 H 576.785 1.51981 -3.87351 0
M  V30 6231 H 575.661 2.41173 -4.93079 0
M  V30 6232 H 575.922 2.96107 -3.28288 0
M  V30 6233 N 574.981 1.5647 0.188427 0
M  V30 6234 C 575.944 1.9421 1.21718 0
M  V30 6235 C 576.944 0.823901 1.38089 0
M  V30 6236 O 578.134 1.09122 1.35787 0
M  V30 6237 C 575.266 2.22197 2.58537 0
M  V30 6238 H 576.459 2.86252 0.894418 0
M  V30 6239 H 574.012 1.50263 0.430211 0
M  V30 6240 H 574.747 1.32814 2.95856 0
M  V30 6241 H 574.532 3.03688 2.48025 0
M  V30 6242 H 576.022 2.52376 3.3271 0
M  V30 6243 N 576.459 -0.456382 1.50847 0
M  V30 6244 C 577.684 -1.2349 1.66628 0
M  V30 6245 C 578.109 -1.84715 0.355254 0
M  V30 6246 O 577.467 -1.67961 -0.682559 0
M  V30 6247 C 577.515 -2.30865 2.77009 0
M  V30 6248 O 576.619 -3.35882 2.39285 0
M  V30 6249 H 575.96 -0.36266 0.556214 0
M  V30 6250 H 578.49 -0.541374 1.97308 0
M  V30 6251 H 578.5 -2.75949 3.00526 0
M  V30 6252 H 577.175 -1.85677 3.72152 0
M  V30 6253 H 575.752 -2.96406 2.26269 0
M  V30 6254 N 577.937 -1.40673 -0.710563 0
M  V30 6255 C 578.867 -1.44095 -1.83736 0
M  V30 6256 C 579.848 -0.301286 -1.67411 0
M  V30 6257 O 581.033 -0.510618 -1.87367 0
M  V30 6258 C 578.163 -1.30773 -3.21738 0
M  V30 6259 C 577.117 -2.42395 -3.52745 0
M  V30 6260 C 576.443 -2.14147 -4.89944 0
M  V30 6261 C 577.743 -3.84738 -3.53234 0
M  V30 6262 H 579.437 -2.38396 -1.81129 0
M  V30 6263 H 576.983 -1.14746 -0.870017 0
M  V30 6264 H 578.936 -1.31783 -4.00264 0
M  V30 6265 H 577.66 -0.329507 -3.24934 0
M  V30 6266 H 576.319 -2.40643 -2.76562 0
M  V30 6267 H 575.967 -1.14703 -4.89747 0
M  V30 6268 H 575.667 -2.88934 -5.11655 0
M  V30 6269 H 577.191 -2.16848 -5.70797 0
M  V30 6270 H 578.605 -3.88286 -4.2179 0
M  V30 6271 H 577.002 -4.59085 -3.86473 0
M  V30 6272 H 578.072 -4.13962 -2.52514 0
M  V30 6273 N 579.415 0.9433 -1.26252 0
M  V30 6274 C 580.661 1.69175 -1.11837 0
M  V30 6275 C 580.994 1.91238 0.337891 0
M  V30 6276 O 580.269 1.49152 1.24836 0
M  V30 6277 C 580.552 3.06783 -1.88563 0
M  V30 6278 C 580.405 2.9206 -3.42083 0
M  V30 6279 C 581.724 4.06865 -1.67776 0
M  V30 6280 H 578.843 0.61399 -0.407658 0
M  V30 6281 H 581.485 1.09572 -1.55222 0
M  V30 6282 H 579.635 3.57663 -1.51689 0
M  V30 6283 H 581.307 2.48419 -3.88698 0
M  V30 6284 H 579.55 2.27731 -3.69217 0
M  V30 6285 H 580.221 3.89651 -3.90994 0
M  V30 6286 H 582.697 3.64939 -1.99897 0
M  V30 6287 H 581.573 5.01168 -2.23879 0
M  V30 6288 H 581.834 4.37705 -0.621816 0
M  V30 6289 N 580.893 1.08022 1.14757 0
M  V30 6290 C 582.121 0.828847 1.89572 0
M  V30 6291 C 582.536 -0.618621 1.78377 0
M  V30 6292 O 581.893 -1.42482 1.1404 0
M  V30 6293 C 581.944 1.23677 3.39685 0
M  V30 6294 O 581.665 2.62746 3.50566 0
M  V30 6295 C 583.166 1.01569 4.31507 0
M  V30 6296 H 580.386 0.299196 0.600602 0
M  V30 6297 H 582.93 1.43846 1.45357 0
M  V30 6298 H 581.085 0.671347 3.81539 0
M  V30 6299 H 581.499 2.79573 4.43778 0
M  V30 6300 H 582.973 1.35055 5.35223 0
M  V30 6301 H 583.45 -0.0475433 4.39174 0
M  V30 6302 H 584.056 1.56636 3.95405 0
M  V30 6303 N 582.371 -1.3172 0.865308 0
M  V30 6304 C 583.301 -2.31109 0.333302 0
M  V30 6305 C 584.282 -1.60148 -0.573301 0
M  V30 6306 O 585.467 -1.87882 -0.491305 0
M  V30 6307 C 582.597 -3.44104 -0.470078 0
M  V30 6308 C 581.551 -4.26623 0.343021 0
M  V30 6309 C 580.877 -5.31482 -0.585756 0
M  V30 6310 C 582.177 -4.98001 1.57456 0
M  V30 6311 H 583.871 -2.75855 1.1638 0
M  V30 6312 H 581.417 -1.3262 0.561069 0
M  V30 6313 H 583.37 -4.12682 -0.852752 0
M  V30 6314 H 582.094 -2.98112 -1.33404 0
M  V30 6315 H 580.753 -3.59707 0.707583 0
M  V30 6316 H 580.401 -4.81741 -1.44686 0
M  V30 6317 H 580.101 -5.87582 -0.0456494 0
M  V30 6318 H 581.625 -6.0292 -0.965375 0
M  V30 6319 H 583.039 -5.59201 1.26359 0
M  V30 6320 H 581.436 -5.63876 2.05339 0
M  V30 6321 H 582.506 -4.25253 2.32997 0
M  V30 6322 N 583.85 -0.624285 -1.44708 0
M  V30 6323 C 585.077 -0.132919 -2.06473 0
M  V30 6324 C 585.493 1.18967 -1.46602 0
M  V30 6325 O 584.85 1.72824 -0.586341 0
M  V30 6326 C 584.901 -0.00465418 -3.615 0
M  V30 6327 O 584.622 -1.27494 -4.19138 0
M  V30 6328 C 586.123 0.516213 -4.40284 0
M  V30 6329 H 583.343 -0.0765201 -0.666623 0
M  V30 6330 H 585.887 -0.856751 -1.85688 0
M  V30 6331 H 584.042 0.669583 -3.8157 0
M  V30 6332 H 584.456 -1.11536 -5.12504 0
M  V30 6333 H 585.93 0.554994 -5.49203 0
M  V30 6334 H 586.407 1.5419 -4.11245 0
M  V30 6335 H 587.013 -0.124542 -4.25118 0
M  V30 6336 N 585.328 1.53329 -0.364422 0
M  V30 6337 C 586.291 2.24323 0.470292 0
M  V30 6338 C 587.291 1.25068 1.01067 0
M  V30 6339 O 588.481 1.49354 0.896605 0
M  V30 6340 C 585.613 2.97908 1.65722 0
M  V30 6341 H 586.806 2.9952 -0.150917 0
M  V30 6342 H 584.359 1.55868 -0.116092 0
M  V30 6343 H 585.094 2.2695 2.31655 0
M  V30 6344 H 584.879 3.70732 1.27671 0
M  V30 6345 H 586.369 3.5188 2.24878 0
M  V30 6346 N 586.806 0.0935595 1.57322 0
M  V30 6347 C 587.739 -0.902505 2.09595 0
M  V30 6348 C 588.717 -1.27732 1.00615 0
M  V30 6349 O 589.901 -1.38283 1.28102 0
M  V30 6350 C 587.028 -2.20416 2.57166 0
M  V30 6351 C 586.074 -1.97932 3.7779 0
M  V30 6352 S 586.907 -1.21873 5.21447 0
M  V30 6353 C 588.063 -2.53273 5.72367 0
M  V30 6354 H 588.296 -0.457797 2.93754 0
M  V30 6355 H 585.829 -0.119694 1.53935 0
M  V30 6356 H 587.787 -2.95217 2.85232 0
M  V30 6357 H 586.448 -2.62008 1.73235 0
M  V30 6358 H 585.641 -2.94316 4.09138 0
M  V30 6359 H 585.243 -1.3126 3.5021 0
M  V30 6360 H 587.535 -3.49256 5.8054 0
M  V30 6361 H 588.478 -2.26505 6.70896 0
M  V30 6362 H 588.886 -2.61475 5.00291 0
M  V30 6363 N 588.284 -1.56567 -0.180126 0
M  V30 6364 C 589.532 -1.81133 -0.896392 0
M  V30 6365 C 589.853 -0.669114 -1.83161 0
M  V30 6366 O 589.123 0.311616 -1.93406 0
M  V30 6367 H 587.703 -0.668172 -0.333999 0
M  V30 6368 H 590.365 -1.94048 -0.182051 0
M  V30 6369 H 589.461 -2.74854 -1.47857 0
M  V30 6370 N 589.762 0.448376 -1.51087 0
M  V30 6371 C 590.987 1.22605 -1.6728 0
M  V30 6372 C 591.412 1.84524 -0.365045 0
M  V30 6373 O 590.77 1.6832 0.673642 0
M  V30 6374 C 590.818 2.29393 -2.78229 0
M  V30 6375 O 589.922 3.34608 -2.41063 0
M  V30 6376 H 589.263 0.359705 -0.558129 0
M  V30 6377 H 591.793 0.530903 -1.97592 0
M  V30 6378 H 591.803 2.74352 -3.01986 0
M  V30 6379 H 590.478 1.83701 -3.73131 0
M  V30 6380 H 589.055 2.95202 -2.27838 0
M  V30 6381 N 591.24 1.41047 0.703093 0
M  V30 6382 C 592.17 1.45067 1.82969 0
M  V30 6383 C 593.151 0.31016 1.67248 0
M  V30 6384 O 594.336 0.520548 1.87093 0
M  V30 6385 C 591.466 1.32478 3.2104 0
M  V30 6386 C 590.42 2.44262 3.51454 0
M  V30 6387 C 589.746 2.16742 4.88801 0
M  V30 6388 C 591.046 3.86606 3.51189 0
M  V30 6389 H 592.74 2.39353 1.79863 0
M  V30 6390 H 590.286 1.15206 0.863919 0
M  V30 6391 H 592.239 1.33904 3.99559 0
M  V30 6392 H 590.963 0.346735 3.24754 0
M  V30 6393 H 589.622 2.42107 2.75282 0
M  V30 6394 H 589.27 1.17299 4.89132 0
M  V30 6395 H 588.97 2.91643 5.10116 0
M  V30 6396 H 590.494 2.19872 5.69639 0
M  V30 6397 H 591.908 3.90517 4.19725 0
M  V30 6398 H 590.305 4.61128 3.84033 0
M  V30 6399 H 591.375 4.15296 2.50315 0
M  V30 6400 N 592.718 -0.936591 1.26751 0
M  V30 6401 C 593.948 -1.71509 1.15188 0
M  V30 6402 C 594.356 -1.86885 -0.295037 0
M  V30 6403 O 593.699 -1.37915 -1.21347 0
M  V30 6404 C 593.761 -3.13853 1.75318 0
M  V30 6405 C 593.425 -3.21845 3.24445 0
M  V30 6406 C 594.422 -3.04771 4.21201 0
M  V30 6407 C 592.107 -3.45088 3.64992 0
M  V30 6408 C 594.101 -3.10816 5.56482 0
M  V30 6409 C 591.788 -3.50767 5.00405 0
M  V30 6410 C 592.786 -3.33648 5.9596 0
M  V30 6411 O 592.474 -3.39045 7.28906 0
M  V30 6412 H 592.206 -0.543658 0.401761 0
M  V30 6413 H 594.76 -1.18234 1.67958 0
M  V30 6414 H 592.99 -3.6857 1.17016 0
M  V30 6415 H 594.679 -3.73634 1.58596 0
M  V30 6416 H 595.445 -2.86665 3.91214 0
M  V30 6417 H 591.324 -3.57467 2.91098 0
M  V30 6418 H 594.868 -2.97372 6.31043 0
M  V30 6419 H 590.765 -3.68396 5.30052 0
M  V30 6420 H 591.533 -3.55558 7.37238 0
M  V30 6421 N 594.196 -1.08629 -1.14182 0
M  V30 6422 C 595.442 -0.828415 -1.85766 0
M  V30 6423 C 595.797 0.638947 -1.81481 0
M  V30 6424 O 595.09 1.46386 -1.23619 0
M  V30 6425 C 595.284 -1.28734 -3.3341 0
M  V30 6426 C 595.113 -2.79778 -3.52071 0
M  V30 6427 C 593.883 -3.47554 -3.66789 0
M  V30 6428 C 596.081 -3.77945 -3.48801 0
M  V30 6429 N 594.063 -4.87107 -3.73631 0
M  V30 6430 C 595.434 -5.03406 -3.61914 0
M  V30 6431 C 597.489 -3.70917 -3.32152 0
M  V30 6432 C 596.192 -6.22673 -3.60098 0
M  V30 6433 C 598.218 -4.89662 -3.31641 0
M  V30 6434 C 597.58 -6.13962 -3.45296 0
M  V30 6435 H 593.679 -0.355884 -0.696327 0
M  V30 6436 H 596.263 -1.38508 -1.36834 0
M  V30 6437 H 594.434 -0.75822 -3.80927 0
M  V30 6438 H 596.166 -0.975649 -3.92764 0
M  V30 6439 H 592.921 -2.97972 -3.68116 0
M  V30 6440 H 593.345 -5.59775 -3.80763 0
M  V30 6441 H 597.987 -2.75749 -3.20504 0
M  V30 6442 H 595.705 -7.1815 -3.70522 0
M  V30 6443 H 599.291 -4.85914 -3.19968 0
M  V30 6444 H 598.171 -7.04307 -3.44851 0
M  V30 6445 N 595.674 1.31259 -0.872281 0
M  V30 6446 C 596.604 2.30929 -0.345554 0
M  V30 6447 C 597.585 1.60449 0.5648 0
M  V30 6448 O 598.77 1.8814 0.481335 0
M  V30 6449 C 595.9 3.44348 0.451823 0
M  V30 6450 C 594.854 4.26435 -0.365641 0
M  V30 6451 C 594.18 5.31785 0.557562 0
M  V30 6452 C 595.48 4.97159 -1.60095 0
M  V30 6453 H 597.174 2.75234 -1.17841 0
M  V30 6454 H 594.72 1.3232 -0.568094 0
M  V30 6455 H 596.673 4.13128 0.830854 0
M  V30 6456 H 595.397 2.98816 1.31821 0
M  V30 6457 H 594.056 3.59326 -0.726649 0
M  V30 6458 H 593.704 4.82502 1.4213 0
M  V30 6459 H 593.404 5.87598 0.0144878 0
M  V30 6460 H 594.928 6.03424 0.933387 0
M  V30 6461 H 596.342 5.58523 -1.29323 0
M  V30 6462 H 594.739 5.62779 -2.08327 0
M  V30 6463 H 595.809 4.24012 -2.35249 0
M  V30 6464 N 597.152 0.631951 1.44375 0
M  V30 6465 C 598.082 -0.0593243 2.33425 0
M  V30 6466 C 599.063 -0.833964 1.48253 0
M  V30 6467 O 600.248 -0.799682 1.76971 0
M  V30 6468 C 597.378 -1.04096 3.31333 0
M  V30 6469 C 596.332 -0.377899 4.26328 0
M  V30 6470 C 595.658 -1.4695 5.14111 0
M  V30 6471 C 596.958 0.716371 5.17364 0
M  V30 6472 H 598.652 0.684287 2.91475 0
M  V30 6473 H 596.198 0.330518 1.40156 0
M  V30 6474 H 598.151 -1.53331 3.92514 0
M  V30 6475 H 596.875 -1.81547 2.71493 0
M  V30 6476 H 595.534 0.0938054 3.6648 0
M  V30 6477 H 595.182 -2.2349 4.50623 0
M  V30 6478 H 594.882 -1.03121 5.78481 0
M  V30 6479 H 596.406 -1.96363 5.78164 0
M  V30 6480 H 597.82 0.307089 5.72477 0
M  V30 6481 H 596.217 1.07784 5.90341 0
M  V30 6482 H 597.287 1.58316 4.58327 0
M  V30 6483 N 598.631 -1.53133 0.372548 0
M  V30 6484 C 600.042 -1.86404 -0.105155 0
M  V30 6485 C 600.393 -1.29289 -1.47576 0
M  V30 6486 O 599.518 -0.617646 -2.07398 0
M  V30 6487 C 600.113 -3.38223 -0.197588 0
M  V30 6488 C 598.672 -3.71266 -0.619556 0
M  V30 6489 C 597.819 -2.76353 0.228919 0
M  V30 6490 H 600.77 -1.47282 0.591077 0
M  V30 6491 H 600.791 -3.66577 -1.01987 0
M  V30 6492 H 600.303 -3.79763 0.800099 0
M  V30 6493 H 598.404 -3.35287 -1.62522 0
M  V30 6494 H 598.517 -4.77515 -0.389332 0
M  V30 6495 H 596.881 -2.52888 -0.303271 0
M  V30 6496 H 597.664 -3.20728 1.22428 0
M  V30 6497 N 600.109 -0.101901 -1.5727 0
M  V30 6498 C 601.057 0.872034 -2.15635 0
M  V30 6499 C 602.051 1.28742 -1.10099 0
M  V30 6500 O 603.257 1.26116 -1.28432 0
M  V30 6501 H 599.632 0.299269 -0.689886 0
M  V30 6502 H 601.603 0.355137 -2.96279 0
M  V30 6503 C 600.352 2.11886 -2.7568 0
M  V30 6504 H 599.675 1.80813 -3.56576 0
M  V30 6505 H 601.115 2.78077 -3.20077 0
M  V30 6506 C 599.574 2.89739 -1.7191 0
M  V30 6507 O 600.104 3.84522 -1.16213 0
M  V30 6508 N 598.31 2.53407 -1.42245 0
M  V30 6509 H 597.857 1.76398 -1.87727 0
M  V30 6510 H 597.815 3.05795 -0.730529 0
M  V30 6511 N 601.587 1.56661 0.17182 0
M  V30 6512 C 602.517 1.99401 1.21498 0
M  V30 6513 C 603.498 0.869516 1.46197 0
M  V30 6514 O 604.683 1.13556 1.57539 0
M  V30 6515 C 601.813 2.35346 2.55401 0
M  V30 6516 C 600.767 3.5075 2.45272 0
M  V30 6517 C 600.093 3.72437 3.8366 0
M  V30 6518 C 601.393 4.84216 1.95787 0
M  V30 6519 H 603.087 2.86792 0.859699 0
M  V30 6520 H 600.633 1.37977 0.412103 0
M  V30 6521 H 602.586 2.63843 3.2858 0
M  V30 6522 H 601.31 1.44864 2.92715 0
M  V30 6523 H 599.969 3.2238 1.74547 0
M  V30 6524 H 599.617 2.79246 4.18367 0
M  V30 6525 H 599.317 4.50087 3.77751 0
M  V30 6526 H 600.841 4.03334 4.58426 0
M  V30 6527 H 602.255 5.11592 2.5874 0
M  V30 6528 H 600.652 5.65498 2.00827 0
M  V30 6529 H 601.722 4.76243 0.912159 0
M  V30 6530 N 603.065 -0.440357 1.51323 0
M  V30 6531 C 604.293 -1.21255 1.67645 0
M  V30 6532 C 604.708 -1.85088 0.37252 0
M  V30 6533 O 604.065 -1.70582 -0.648683 0
M  V30 6534 C 604.116 -2.29881 2.78993 0
M  V30 6535 O 603.837 -1.68659 4.04334 0
M  V30 6536 C 605.338 -3.20214 3.06558 0
M  V30 6537 H 602.558 -0.36558 0.562666 0
M  V30 6538 H 605.102 -0.52214 1.97722 0
M  V30 6539 H 603.257 -2.94643 2.51524 0
M  V30 6540 H 603.671 -2.40426 4.6615 0
M  V30 6541 H 605.145 -3.92575 3.88058 0
M  V30 6542 H 605.622 -3.80794 2.18844 0
M  V30 6543 H 606.228 -2.61156 3.35675 0
M  V30 6544 N 604.543 -1.41418 -0.695603 0
M  V30 6545 C 605.791 -1.40496 -1.45277 0
M  V30 6546 C 606.112 -0.0149538 -1.94994 0
M  V30 6547 O 605.382 0.9432 -1.71699 0
M  V30 6548 H 603.962 -0.517147 -0.539044 0
M  V30 6549 H 606.624 -1.76656 -0.823321 0
M  V30 6550 H 605.72 -2.09214 -2.31595 0
M  V30 6551 N 606.021 0.929856 -1.27246 0
M  V30 6552 C 606.968 2.03017 -1.09785 0
M  V30 6553 C 607.938 1.661 0.000456744 0
M  V30 6554 O 609.123 1.90116 -0.161462 0
M  V30 6555 C 606.263 3.36878 -0.748816 0
M  V30 6556 C 605.376 3.86763 -1.92453 0
M  V30 6557 C 604.511 5.09061 -1.51758 0
M  V30 6558 C 603.55 5.51237 -2.66091 0
M  V30 6559 N 602.687 6.64732 -2.25999 0
M  V30 6560 H 607.527 2.17285 -2.03939 0
M  V30 6561 H 605.064 1.06448 -1.01524 0
M  V30 6562 H 607.022 4.13855 -0.527283 0
M  V30 6563 H 605.652 3.22424 0.155771 0
M  V30 6564 H 604.704 3.06086 -2.25867 0
M  V30 6565 H 606.016 4.13994 -2.78227 0
M  V30 6566 H 605.17 5.93532 -1.25716 0
M  V30 6567 H 603.909 4.83602 -0.630896 0
M  V30 6568 H 602.914 4.65316 -2.92849 0
M  V30 6569 H 604.139 5.78692 -3.55377 0
M  V30 6570 H 602.085 6.40935 -1.3978 0
M  V30 6571 H 602.002 6.91607 -3.05313 0
M  V30 6572 H 603.27 7.52549 -2.03199 0
M  V30 6573 N 607.499 1.09233 1.13605 0
M  V30 6574 C 608.91 0.846839 1.6639 0
M  V30 6575 C 609.261 -0.625031 1.85978 0
M  V30 6576 O 608.386 -1.48173 1.57714 0
M  V30 6577 C 608.981 1.5307 3.0225 0
M  V30 6578 C 607.54 1.33223 3.52035 0
M  V30 6579 C 606.687 1.58806 2.27323 0
M  V30 6580 H 609.638 1.25175 0.975541 0
M  V30 6581 H 609.659 0.96267 3.68121 0
M  V30 6582 H 609.171 2.60192 2.87961 0
M  V30 6583 H 607.272 0.282091 3.71531 0
M  V30 6584 H 607.385 2.0657 4.32279 0
M  V30 6585 H 605.749 1.01007 2.33815 0
M  V30 6586 H 606.532 2.67153 2.15602 0
M  V30 6587 N 608.977 -1.30795 0.87923 0
M  V30 6588 C 610.226 -1.95636 0.490875 0
M  V30 6589 C 610.539 -1.70214 -0.963674 0
M  V30 6590 O 611.745 -2.28991 -1.45861 0
M  V30 6591 C 610.201 -3.50271 0.826929 0
M  V30 6592 C 609.809 -3.84521 2.29886 0
M  V30 6593 C 611.553 -4.21456 0.507494 0
M  V30 6594 C 609.46 -5.32309 2.57685 0
M  V30 6595 H 608.39 -0.732238 0.179841 0
M  V30 6596 H 611.041 -1.48829 1.07341 0
M  V30 6597 H 609.423 -3.9562 0.173542 0
M  V30 6598 H 610.597 -3.50102 2.99609 0
M  V30 6599 H 608.912 -3.26425 2.58526 0
M  V30 6600 H 611.509 -5.30199 0.692293 0
M  V30 6601 H 611.852 -4.12614 -0.552718 0
M  V30 6602 H 612.385 -3.81772 1.11782 0
M  V30 6603 H 609.124 -5.46195 3.62424 0
M  V30 6604 H 608.644 -5.68048 1.92566 0
M  V30 6605 H 610.323 -5.99678 2.42889 0
M  V30 6606 N 610.455 -0.639598 -1.44038 0
M  V30 6607 C 611.68 -0.153117 -2.06834 0
M  V30 6608 C 612.105 1.16676 -1.47541 0
M  V30 6609 O 611.463 1.71769 -0.580093 0
M  V30 6610 C 611.511 -0.0609169 -3.60549 0
M  V30 6611 O 610.615 0.98071 -4.00569 0
M  V30 6612 H 609.956 -0.0886402 -0.658057 0
M  V30 6613 H 612.486 -0.878674 -1.84771 0
M  V30 6614 H 612.496 0.126892 -4.07803 0
M  V30 6615 H 611.171 -1.0245 -4.03084 0
M  V30 6616 H 609.748 0.766789 -3.64931 0
M  V30 6617 N 611.933 1.52934 -0.380664 0
M  V30 6618 C 613.21 1.93845 0.261417 0
M  V30 6619 C 613.59 1.31544 1.65104 0
M  V30 6620 O 612.938 0.480234 2.23397 0
M  V30 6621 C 613.148 3.47739 0.296466 0
M  V30 6622 C 614.496 4.21284 0.529578 0
M  V30 6623 O 615.52 3.54199 0.377041 0
M  V30 6624 O 614.379 5.40195 0.827753 0
M  V30 6625 H 611.473 0.811318 0.160285 0
M  V30 6626 H 614.019 1.64042 -0.434544 0
M  V30 6627 H 612.791 3.85395 -0.67724 0
M  V30 6628 H 612.414 3.8382 1.0377 0
M  V30 6629 N 613.412 0.11024 1.57214 0
M  V30 6630 C 614.375 -0.828808 2.1369 0
M  V30 6631 C 615.375 -1.20059 1.06969 0
M  V30 6632 O 616.565 -1.12754 1.32786 0
M  V30 6633 C 613.697 -2.11959 2.66994 0
M  V30 6634 H 614.89 -0.338146 2.97988 0
M  V30 6635 H 612.443 -0.138913 1.55681 0
M  V30 6636 H 613.178 -2.65476 1.8626 0
M  V30 6637 H 612.963 -1.86258 3.45037 0
M  V30 6638 H 614.453 -2.79105 3.10629 0
M  V30 6639 N 614.89 -1.56749 -0.16351 0
M  V30 6640 C 615.822 -1.93587 -1.22705 0
M  V30 6641 C 616.835 -0.829824 -1.40063 0
M  V30 6642 O 618.024 -1.10826 -1.39928 0
M  V30 6643 C 615.124 -2.1803 -2.59454 0
M  V30 6644 C 614.297 -3.4928 -2.63292 0
M  V30 6645 C 613.356 -3.62457 -3.8146 0
M  V30 6646 O 612.382 -4.35004 -3.67096 0
M  V30 6647 N 613.584 -2.97888 -4.9824 0
M  V30 6648 H 616.349 -2.8542 -0.914081 0
M  V30 6649 H 613.91 -1.58 -0.353214 0
M  V30 6650 H 615.902 -2.24102 -3.36987 0
M  V30 6651 H 614.472 -1.32543 -2.8311 0
M  V30 6652 H 613.692 -3.54795 -1.71796 0
M  V30 6653 H 614.98 -4.35632 -2.62873 0
M  V30 6654 H 614.378 -2.38833 -5.12811 0
M  V30 6655 H 612.935 -3.09545 -5.73607 0
M  V30 6656 N 616.368 0.432326 -1.51554 0
M  V30 6657 C 617.784 0.769195 -1.39841 0
M  V30 6658 C 617.984 1.95584 -0.484675 0
M  V30 6659 O 617.04 2.52433 0.0582829 0
M  V30 6660 C 618.353 1.04487 -2.81963 0
M  V30 6661 C 619.901 1.149 -2.91148 0
M  V30 6662 C 620.376 1.45758 -4.34187 0
M  V30 6663 N 621.867 1.52671 -4.37317 0
M  V30 6664 C 622.602 1.78129 -5.4503 0
M  V30 6665 N 622.098 2.01345 -6.62897 0
M  V30 6666 N 623.891 1.79953 -5.32516 0
M  V30 6667 H 616.042 -0.349122 -2.09511 0
M  V30 6668 H 618.305 -0.0938113 -0.943347 0
M  V30 6669 H 618.011 0.24557 -3.50842 0
M  V30 6670 H 617.885 1.97119 -3.21596 0
M  V30 6671 H 620.272 1.93891 -2.22464 0
M  V30 6672 H 620.353 0.201568 -2.55005 0
M  V30 6673 H 619.997 0.672917 -5.03423 0
M  V30 6674 H 619.927 2.41715 -4.67848 0
M  V30 6675 H 622.418 1.36612 -3.52343 0
M  V30 6676 H 622.731 2.20155 -7.40778 0
M  V30 6677 H 621.076 1.98657 -6.66003 0
M  V30 6678 H 624.267 1.61337 -4.39418 0
M  V30 6679 H 624.44 1.99455 -6.1654 0
M  V30 6680 N 617.846 1.41785 0.688094 0
M  V30 6681 C 619.262 1.24419 0.999608 0
M  V30 6682 C 619.462 0.138868 2.01021 0
M  V30 6683 O 618.518 -0.494283 2.47615 0
M  V30 6684 C 619.831 2.59625 1.51709 0
M  V30 6685 C 621.379 2.66869 1.63554 0
M  V30 6686 C 621.854 4.0241 2.18702 0
M  V30 6687 N 623.345 4.04295 2.26053 0
M  V30 6688 C 624.08 5.05977 2.69768 0
M  V30 6689 N 623.576 6.18047 3.13033 0
M  V30 6690 N 625.369 4.93336 2.69398 0
M  V30 6691 H 617.52 2.12392 0.0187427 0
M  V30 6692 H 619.783 0.945347 0.0708673 0
M  V30 6693 H 619.489 3.41297 0.849059 0
M  V30 6694 H 619.363 2.82628 2.49803 0
M  V30 6695 H 621.75 1.8555 2.29467 0
M  V30 6696 H 621.831 2.47668 0.639857 0
M  V30 6697 H 621.475 4.8418 1.53402 0
M  V30 6698 H 621.405 4.18955 3.19037 0
M  V30 6699 H 623.896 3.23383 1.9553 0
M  V30 6700 H 624.209 6.91498 3.45038 0
M  V30 6701 H 622.554 6.21572 3.10923 0
M  V30 6702 H 625.745 4.04865 2.34952 0
M  V30 6703 H 625.918 5.72717 3.03148 0
M  V30 6704 N 619.324 -0.923095 1.27737 0
M  V30 6705 C 620.254 -2.04124 1.13383 0
M  V30 6706 C 621.235 -1.70066 0.0340658 0
M  V30 6707 O 622.42 -1.93068 0.209383 0
M  V30 6708 C 619.55 -3.3831 0.785097 0
M  V30 6709 C 618.504 -3.86496 1.8386 0
M  V30 6710 C 617.83 -5.1754 1.34373 0
M  V30 6711 C 619.13 -4.09381 3.24353 0
M  V30 6712 H 620.824 -2.1639 2.06919 0
M  V30 6713 H 618.37 -1.03976 0.996243 0
M  V30 6714 H 620.323 -4.16016 0.671485 0
M  V30 6715 H 619.047 -3.2607 -0.185969 0
M  V30 6716 H 617.706 -3.10987 1.9412 0
M  V30 6717 H 617.354 -5.01696 0.361989 0
M  V30 6718 H 617.054 -5.50751 2.04811 0
M  V30 6719 H 618.578 -5.97811 1.24315 0
M  V30 6720 H 619.992 -4.77641 3.17067 0
M  V30 6721 H 618.389 -4.53906 3.92542 0
M  V30 6722 H 619.459 -3.14515 3.69064 0
M  V30 6723 N 620.802 -1.09834 -1.13024 0
M  V30 6724 C 622.05 -0.835297 -1.8403 0
M  V30 6725 C 622.371 0.640944 -1.84165 0
M  V30 6726 O 621.641 1.46517 -1.30037 0
M  V30 6727 H 620.221 -0.306018 -0.681441 0
M  V30 6728 H 622.883 -1.38734 -1.36891 0
M  V30 6729 H 621.979 -1.19258 -2.88416 0
M  V30 6730 N 622.28 1.30327 -0.886154 0
M  V30 6731 C 623.21 2.30549 -0.370028 0
M  V30 6732 C 624.191 1.61039 0.547751 0
M  V30 6733 O 625.376 1.8864 0.461353 0
M  V30 6734 C 622.506 3.44808 0.415275 0
M  V30 6735 C 621.46 4.26024 -0.41085 0
M  V30 6736 C 620.786 5.32347 0.501128 0
M  V30 6737 C 622.086 4.95433 -1.65359 0
M  V30 6738 H 623.78 2.73969 -1.20754 0
M  V30 6739 H 621.326 1.3171 -0.582097 0
M  V30 6740 H 623.279 4.13986 0.78699 0
M  V30 6741 H 622.003 3.00197 1.28644 0
M  V30 6742 H 620.662 3.58535 -0.764719 0
M  V30 6743 H 620.31 4.83982 1.37004 0
M  V30 6744 H 620.01 5.87581 -0.0478356 0
M  V30 6745 H 621.534 6.0438 0.869333 0
M  V30 6746 H 622.948 5.5712 -1.35239 0
M  V30 6747 H 621.345 5.60537 -2.14284 0
M  V30 6748 H 622.415 4.21493 -2.39733 0
M  V30 6749 N 623.758 0.647228 1.43697 0
M  V30 6750 C 624.721 -0.0385101 2.29168 0
M  V30 6751 C 625.721 -0.756487 1.41894 0
M  V30 6752 O 626.911 -0.598641 1.63591 0
M  V30 6753 C 624.043 -1.06524 3.23829 0
M  V30 6754 H 625.236 0.713445 2.9129 0
M  V30 6755 H 622.789 0.408153 1.50877 0
M  V30 6756 H 623.524 -1.84664 2.66589 0
M  V30 6757 H 623.309 -0.554147 3.88164 0
M  V30 6758 H 624.799 -1.54432 3.87996 0
M  V30 6759 N 625.236 -1.5273 0.388769 0
M  V30 6760 C 626.482 -2.01871 -0.193877 0
M  V30 6761 C 626.815 -1.27475 -1.46505 0
M  V30 6762 O 626.09 -0.375063 -1.90849 0
M  V30 6763 C 626.373 -3.5712 -0.462336 0
M  V30 6764 C 626.226 -4.42186 0.824091 0
M  V30 6765 C 627.545 -4.21881 -1.25319 0
M  V30 6766 H 624.664 -0.733764 -0.0689899 0
M  V30 6767 H 627.306 -1.82796 0.518231 0
M  V30 6768 H 625.456 -3.73504 -1.06896 0
M  V30 6769 H 627.128 -4.37554 1.46096 0
M  V30 6770 H 625.371 -4.09219 1.43952 0
M  V30 6771 H 626.042 -5.48828 0.590905 0
M  V30 6772 H 628.518 -4.0947 -0.73981 0
M  V30 6773 H 627.394 -5.30487 -1.40977 0
M  V30 6774 H 627.655 -3.79478 -2.26824 0
M  V30 6775 N 626.714 -0.118576 -1.57153 0
M  V30 6776 C 627.96 0.540326 -1.95469 0
M  V30 6777 C 628.293 1.66356 -1.00196 0
M  V30 6778 O 627.568 1.94461 -0.039104 0
M  V30 6779 C 627.851 1.07342 -3.43729 0
M  V30 6780 C 627.704 -0.0463732 -4.49776 0
M  V30 6781 C 629.023 1.96442 -3.93826 0
M  V30 6782 H 626.142 0.19494 -0.710751 0
M  V30 6783 H 628.784 -0.19405 -1.89006 0
M  V30 6784 H 626.934 1.69925 -3.49368 0
M  V30 6785 H 628.606 -0.681648 -4.56236 0
M  V30 6786 H 626.849 -0.709574 -4.27957 0
M  V30 6787 H 627.52 0.367856 -5.50773 0
M  V30 6788 H 629.996 1.43731 -3.90488 0
M  V30 6789 H 628.872 2.3066 -4.98084 0
M  V30 6790 H 629.133 2.89077 -3.34495 0
M  V30 6791 N 628.193 1.56834 0.155195 0
M  V30 6792 C 629.439 1.84058 0.865687 0
M  V30 6793 C 629.794 0.701418 1.79159 0
M  V30 6794 O 629.087 -0.301162 1.89218 0
M  V30 6795 C 629.281 3.15239 1.68402 0
M  V30 6796 C 629.11 4.41807 0.838847 0
M  V30 6797 C 627.88 5.02744 0.507645 0
M  V30 6798 C 630.078 5.14009 0.172946 0
M  V30 6799 N 628.06 6.1289 -0.351978 0
M  V30 6800 C 629.431 6.17581 -0.547158 0
M  V30 6801 C 631.486 4.97814 0.0927721 0
M  V30 6802 C 630.189 7.06711 -1.33985 0
M  V30 6803 C 632.215 5.874 -0.686638 0
M  V30 6804 C 631.577 6.90447 -1.39505 0
M  V30 6805 H 627.676 0.724276 0.294871 0
M  V30 6806 H 630.26 1.94255 0.131583 0
M  V30 6807 H 628.431 3.06205 2.38942 0
M  V30 6808 H 630.163 3.304 2.33705 0
M  V30 6809 H 626.918 4.66064 0.841517 0
M  V30 6810 H 627.342 6.72577 -0.772573 0
M  V30 6811 H 631.984 4.18138 0.626112 0
M  V30 6812 H 629.702 7.8582 -1.88448 0
M  V30 6813 H 633.288 5.76938 -0.750555 0
M  V30 6814 H 632.168 7.58571 -1.98847 0
M  V30 6815 N 629.671 -0.424282 1.51781 0
M  V30 6816 C 630.601 -1.52305 1.7699 0
M  V30 6817 C 631.582 -1.5839 0.620209 0
M  V30 6818 O 632.767 -1.73908 0.864268 0
M  V30 6819 C 629.897 -2.90271 1.90683 0
M  V30 6820 C 628.851 -2.99043 3.06198 0
M  V30 6821 C 628.177 -4.39116 3.05092 0
M  V30 6822 C 629.477 -2.7192 4.45934 0
M  V30 6823 H 631.171 -1.31461 2.68995 0
M  V30 6824 H 628.717 -0.630985 1.29439 0
M  V30 6825 H 630.67 -3.6711 2.06901 0
M  V30 6826 H 629.394 -3.12376 0.953365 0
M  V30 6827 H 628.053 -2.24646 2.89706 0
M  V30 6828 H 627.701 -4.58207 2.07498 0
M  V30 6829 H 627.401 -4.45912 3.82669 0
M  V30 6830 H 628.925 -5.17911 3.2342 0
M  V30 6831 H 630.339 -3.38487 4.62709 0
M  V30 6832 H 628.736 -2.90111 5.25315 0
M  V30 6833 H 629.806 -1.67445 4.55072 0
M  V30 6834 N 631.149 -1.42148 -0.680565 0
M  V30 6835 C 632.395 -1.4352 -1.44131 0
M  V30 6836 C 632.75 -0.0486244 -1.92339 0
M  V30 6837 O 632.043 0.92819 -1.67616 0
M  V30 6838 C 632.237 -2.38945 -2.65782 0
M  V30 6839 C 632.066 -3.86743 -2.29477 0
M  V30 6840 C 630.836 -4.5532 -2.19115 0
M  V30 6841 C 633.034 -4.77321 -1.91491 0
M  V30 6842 N 631.016 -5.88174 -1.75853 0
M  V30 6843 C 632.387 -5.99238 -1.59103 0
M  V30 6844 C 634.442 -4.64829 -1.78432 0
M  V30 6845 C 633.145 -7.10053 -1.14968 0
M  V30 6846 C 635.171 -5.75621 -1.35702 0
M  V30 6847 C 634.533 -6.96645 -1.04234 0
M  V30 6848 H 630.632 -0.580363 -0.524121 0
M  V30 6849 H 633.216 -1.78132 -0.785939 0
M  V30 6850 H 631.387 -2.06403 -3.29017 0
M  V30 6851 H 633.119 -2.30935 -3.32342 0
M  V30 6852 H 629.874 -4.09456 -2.37998 0
M  V30 6853 H 630.298 -6.58625 -1.56661 0
M  V30 6854 H 634.94 -3.71745 -2.01409 0
M  V30 6855 H 632.658 -8.0299 -0.907365 0
M  V30 6856 H 636.244 -5.67964 -1.26126 0
M  V30 6857 H 635.124 -7.80918 -0.716707 0
M  V30 6858 N 632.627 0.916307 -1.28225 0
M  V30 6859 C 633.874 1.66518 -1.1523 0
M  V30 6860 C 634.202 1.92178 0.299632 0
M  V30 6861 O 633.457 1.51842 1.2346 0
M  V30 6862 C 633.756 3.03125 -1.8934 0
M  V30 6863 C 633.422 2.97135 -3.39148 0
M  V30 6864 C 632.084 2.95208 -3.80007 0
M  V30 6865 C 634.436 2.87574 -4.34685 0
M  V30 6866 C 631.764 2.81518 -5.14747 0
M  V30 6867 C 634.116 2.75424 -5.69495 0
M  V30 6868 C 632.78 2.71854 -6.09632 0
M  V30 6869 H 632.05 0.609334 -0.421655 0
M  V30 6870 H 634.697 1.06776 -1.58969 0
M  V30 6871 H 633.002 3.66639 -1.38143 0
M  V30 6872 H 634.699 3.59968 -1.76704 0
M  V30 6873 H 631.289 2.99428 -3.06661 0
M  V30 6874 H 635.473 2.88152 -4.04082 0
M  V30 6875 H 630.729 2.77148 -5.44976 0
M  V30 6876 H 634.903 2.66993 -6.43185 0
M  V30 6877 H 632.53 2.61003 -7.1399 0
M  V30 6878 N 634.105 1.10431 1.1244 0
M  V30 6879 C 635.035 0.775143 2.20258 0
M  V30 6880 C 636.016 -0.25186 1.68225 0
M  V30 6881 O 637.201 -0.117637 1.93843 0
M  V30 6882 C 634.331 0.206133 3.46688 0
M  V30 6883 C 633.285 1.16382 4.11873 0
M  V30 6884 C 632.611 0.456014 5.32752 0
M  V30 6885 C 633.911 2.5104 4.58013 0
M  V30 6886 H 635.605 1.67665 2.4805 0
M  V30 6887 H 633.151 0.807595 1.19222 0
M  V30 6888 H 635.104 -0.036291 4.21384 0
M  V30 6889 H 633.828 -0.730614 3.18323 0
M  V30 6890 H 632.487 1.39169 3.39157 0
M  V30 6891 H 632.135 -0.485203 5.00654 0
M  V30 6892 H 631.835 1.09466 5.77314 0
M  V30 6893 H 633.359 0.222135 6.10196 0
M  V30 6894 H 634.773 2.32401 5.24083 0
M  V30 6895 H 633.17 3.10789 5.13352 0
M  V30 6896 H 634.24 3.11039 3.71998 0
M  V30 6897 N 635.583 -1.29855 0.893053 0
M  V30 6898 C 636.831 -1.9544 0.514566 0
M  V30 6899 C 637.152 -1.70795 -0.940959 0
M  V30 6900 O 636.422 -1.03601 -1.66264 0
M  V30 6901 H 635.002 -0.723137 0.187302 0
M  V30 6902 H 637.664 -1.58234 1.13789 0
M  V30 6903 H 636.76 -3.04341 0.691581 0
M  V30 6904 N 637.061 -0.65484 -1.43351 0
M  V30 6905 C 637.994 0.0855537 -2.2804 0
M  V30 6906 C 638.972 0.828301 -1.39921 0
M  V30 6907 O 640.156 0.827539 -1.69364 0
M  V30 6908 C 637.283 1.12792 -3.19368 0
M  V30 6909 C 636.329 0.483037 -4.23756 0
M  V30 6910 S 637.162 -0.744605 -5.30298 0
M  V30 6911 C 638.318 0.297187 -6.25194 0
M  V30 6912 H 638.551 -0.632831 -2.90487 0
M  V30 6913 H 636.084 -0.44373 -1.47886 0
M  V30 6914 H 638.042 1.7243 -3.72529 0
M  V30 6915 H 636.703 1.81863 -2.56095 0
M  V30 6916 H 635.896 1.26888 -4.87766 0
M  V30 6917 H 635.498 -0.0392713 -3.73979 0
M  V30 6918 H 637.79 1.1629 -6.67445 0
M  V30 6919 H 638.733 -0.30793 -7.0743 0
M  V30 6920 H 639.141 0.633721 -5.60932 0
M  V30 6921 N 638.539 1.52521 -0.396863 0
M  V30 6922 C 639.472 2.23118 0.478926 0
M  V30 6923 C 640.45 1.23475 1.05796 0
M  V30 6924 O 641.634 1.52486 1.10817 0
M  V30 6925 C 638.761 2.95028 1.66362 0
M  V30 6926 C 637.807 4.09002 1.20913 0
M  V30 6927 S 638.64 5.35182 0.184407 0
M  V30 6928 C 639.796 6.10616 1.37471 0
M  V30 6929 H 640.029 2.97056 -0.120542 0
M  V30 6930 H 637.562 1.53334 -0.18109 0
M  V30 6931 H 639.52 3.37066 2.34301 0
M  V30 6932 H 638.181 2.20756 2.23441 0
M  V30 6933 H 637.374 4.58445 2.09389 0
M  V30 6934 H 636.976 3.69016 0.608559 0
M  V30 6935 H 639.268 6.37247 2.30048 0
M  V30 6936 H 640.211 7.02084 0.921051 0
M  V30 6937 H 640.619 5.41499 1.59495 0
M  V30 6938 N 640.017 0.126909 1.57088 0
M  V30 6939 C 641.266 -0.529024 1.94639 0
M  V30 6940 C 641.579 -1.67323 1.01304 0
M  V30 6941 O 642.785 -2.39245 1.28352 0
M  V30 6942 C 641.241 -0.992483 3.45945 0
M  V30 6943 C 640.849 0.123691 4.47829 0
M  V30 6944 C 642.593 -1.61934 3.924 0
M  V30 6945 C 640.5 -0.356911 5.90322 0
M  V30 6946 H 639.43 -0.201397 0.726605 0
M  V30 6947 H 642.081 0.208032 1.82317 0
M  V30 6948 H 640.463 -1.7842 3.53528 0
M  V30 6949 H 641.637 0.900168 4.51922 0
M  V30 6950 H 639.952 0.657699 4.11173 0
M  V30 6951 H 642.549 -1.9902 4.96281 0
M  V30 6952 H 642.892 -2.50075 3.32819 0
M  V30 6953 H 643.425 -0.892894 3.8765 0
M  V30 6954 H 640.164 0.488636 6.53676 0
M  V30 6955 H 639.684 -1.0997 5.89633 0
M  V30 6956 H 641.363 -0.815547 6.41839 0
M  V30 6957 N 641.495 -1.56914 -0.146875 0
M  V30 6958 C 642.428 -1.93425 -1.21087 0
M  V30 6959 C 643.406 -0.800106 -1.41552 0
M  V30 6960 O 644.59 -1.05572 -1.56162 0
M  V30 6961 C 641.717 -2.20639 -2.56975 0
M  V30 6962 C 640.763 -3.43279 -2.53104 0
M  V30 6963 S 641.596 -4.96836 -1.99786 0
M  V30 6964 C 642.752 -5.27172 -3.37403 0
M  V30 6965 H 642.985 -2.8337 -0.899378 0
M  V30 6966 H 640.518 -1.50322 -0.352494 0
M  V30 6967 H 642.476 -2.36998 -3.35175 0
M  V30 6968 H 641.137 -1.31357 -2.85314 0
M  V30 6969 H 640.33 -3.59599 -3.53136 0
M  V30 6970 H 639.932 -3.26163 -1.83012 0
M  V30 6971 H 642.224 -5.20647 -4.33513 0
M  V30 6972 H 643.167 -6.28626 -3.25937 0
M  V30 6973 H 643.575 -4.54687 -3.34544 0
M  V30 6974 N 642.974 0.416227 -1.52004 0
M  V30 6975 C 643.937 1.48926 -1.74223 0
M  V30 6976 C 644.937 1.48693 -0.612119 0
M  V30 6977 O 646.127 1.50343 -0.879921 0
M  V30 6978 C 643.259 2.88372 -1.81809 0
M  V30 6979 H 644.452 1.3052 -2.70008 0
M  V30 6980 H 642.005 0.646271 -1.42313 0
M  V30 6981 H 642.74 3.12157 -0.879135 0
M  V30 6982 H 642.525 2.89944 -2.6396 0
M  V30 6983 H 644.015 3.66173 -2.00766 0
M  V30 6984 N 644.452 1.42507 0.673017 0
M  V30 6985 C 645.698 1.43284 1.43519 0
M  V30 6986 C 646.031 0.049668 1.94136 0
M  V30 6987 O 645.306 -0.926369 1.71022 0
M  V30 6988 C 645.589 2.45874 2.63093 0
M  V30 6989 C 645.442 3.93388 2.18096 0
M  V30 6990 C 646.761 2.45431 3.6531 0
M  V30 6991 H 643.88 0.521752 0.520522 0
M  V30 6992 H 646.522 1.73932 0.764701 0
M  V30 6993 H 644.672 2.19869 3.20296 0
M  V30 6994 H 646.344 4.30379 1.66046 0
M  V30 6995 H 644.587 4.07169 1.49652 0
M  V30 6996 H 645.258 4.60752 3.03993 0
M  V30 6997 H 647.734 2.68561 3.17827 0
M  V30 6998 H 646.61 3.19189 4.46553 0
M  V30 6999 H 646.871 1.48092 4.16559 0
M  V30 7000 N 645.93 -0.909495 1.28709 0
M  V30 7001 C 647.178 -1.65577 1.15882 0
M  V30 7002 C 647.499 -1.928 -0.292108 0
M  V30 7003 O 646.769 -1.54716 -1.20166 0
M  V30 7004 H 645.349 -0.613714 0.425869 0
M  V30 7005 H 648.011 -1.09108 1.61498 0
M  V30 7006 H 647.107 -2.61634 1.70159 0
M  V30 7007 N 647.408 -1.11026 -1.11852 0
M  V30 7008 C 648.338 -0.786812 -2.19844 0
M  V30 7009 C 649.319 0.242935 -1.68356 0
M  V30 7010 O 650.504 0.107355 -1.93903 0
M  V30 7011 C 647.634 -0.224516 -3.46574 0
M  V30 7012 C 646.588 -1.18564 -4.1125 0
M  V30 7013 C 645.914 -0.484261 -5.32503 0
M  V30 7014 C 647.214 -2.53465 -4.56676 0
M  V30 7015 H 648.908 -1.68978 -2.47158 0
M  V30 7016 H 646.454 -0.813906 -1.18792 0
M  V30 7017 H 648.407 0.0139435 -4.21398 0
M  V30 7018 H 647.131 0.713722 -3.18706 0
M  V30 7019 H 645.79 -1.40966 -3.38414 0
M  V30 7020 H 645.438 0.458646 -5.00905 0
M  V30 7021 H 645.138 -1.12526 -5.76725 0
M  V30 7022 H 646.662 -0.254492 -6.10069 0
M  V30 7023 H 648.076 -2.35177 -5.22843 0
M  V30 7024 H 646.473 -3.13507 -5.11697 0
M  V30 7025 H 647.543 -3.13008 -3.70343 0
M  V30 7026 N 648.886 1.2938 -0.899927 0
M  V30 7027 C 649.836 2.25311 -0.349165 0
M  V30 7028 C 650.82 1.51889 0.530892 0
M  V30 7029 O 652.012 1.73028 0.372872 0
M  V30 7030 C 649.141 3.40696 0.422055 0
M  V30 7031 C 648.227 4.21455 -0.472935 0
M  V30 7032 N 648.618 4.8048 -1.58026 0
M  V30 7033 C 646.916 4.45177 -0.270767 0
M  V30 7034 C 647.617 5.41117 -2.13465 0
M  V30 7035 N 646.593 5.24518 -1.42766 0
M  V30 7036 H 650.395 2.68507 -1.19505 0
M  V30 7037 H 647.909 1.43992 -0.751006 0
M  V30 7038 H 649.906 4.08486 0.833369 0
M  V30 7039 H 648.566 2.99037 1.2652 0
M  V30 7040 H 649.577 4.79257 -1.96299 0
M  V30 7041 H 646.254 4.14071 0.533988 0
M  V30 7042 H 647.644 5.979 -3.06537 0
M  V30 7043 N 650.364 0.662433 1.43002 0
M  V30 7044 C 651.61 0.188492 2.02525 0
M  V30 7045 C 651.965 -1.18752 1.51379 0
M  V30 7046 O 651.258 -1.78313 0.701065 0
M  V30 7047 C 651.452 0.149363 3.57088 0
M  V30 7048 C 651.281 1.52004 4.23231 0
M  V30 7049 C 650.051 2.11473 4.5892 0
M  V30 7050 C 652.249 2.46028 4.51635 0
M  V30 7051 N 650.231 3.4145 5.10181 0
M  V30 7052 C 651.602 3.60647 5.04315 0
M  V30 7053 C 653.657 2.44715 4.33612 0
M  V30 7054 C 652.36 4.74189 5.40867 0
M  V30 7055 C 654.386 3.57344 4.71232 0
M  V30 7056 C 653.748 4.70689 5.24053 0
M  V30 7057 H 649.847 0.113615 0.773703 0
M  V30 7058 H 652.431 0.872738 1.74044 0
M  V30 7059 H 650.602 -0.504255 3.85113 0
M  V30 7060 H 652.334 -0.336307 4.033 0
M  V30 7061 H 649.089 1.64087 4.44266 0
M  V30 7062 H 649.513 4.07987 5.40255 0
M  V30 7063 H 654.155 1.58318 3.9204 0
M  V30 7064 H 651.873 5.61271 5.81378 0
M  V30 7065 H 655.459 3.5754 4.58973 0
M  V30 7066 H 654.339 5.56398 5.52621 0
M  V30 7067 N 651.842 -1.52309 0.404946 0
M  V30 7068 C 652.805 -2.25491 -0.410651 0
M  V30 7069 C 653.805 -1.27704 -0.977154 0
M  V30 7070 O 654.995 -1.51679 -0.856691 0
M  V30 7071 C 652.127 -3.02197 -1.57765 0
M  V30 7072 H 653.32 -2.99015 0.230277 0
M  V30 7073 H 650.873 -1.55506 0.157377 0
M  V30 7074 H 651.608 -2.33013 -2.25556 0
M  V30 7075 H 651.393 -3.73987 -1.17797 0
M  V30 7076 H 652.883 -3.57719 -2.15469 0
M  V30 7077 N 653.32 -0.135238 -1.57019 0
M  V30 7078 C 654.568 0.51777 -1.95355 0
M  V30 7079 C 654.889 1.6617 -1.02042 0
M  V30 7080 O 654.159 1.95738 -0.0797343 0
M  V30 7081 H 652.739 0.194264 -0.721298 0
M  V30 7082 H 655.401 -0.207983 -1.93787 0
M  V30 7083 H 654.497 0.901675 -2.98791 0
M  V30 7084 N 654.798 1.5699 0.138552 0
M  V30 7085 C 655.728 2.01933 1.17241 0
M  V30 7086 C 656.709 0.90033 1.44319 0
M  V30 7087 O 657.894 1.16872 1.55095 0
M  V30 7088 C 655.024 2.40711 2.50351 0
M  V30 7089 C 653.978 3.55874 2.37776 0
M  V30 7090 C 653.304 3.80491 3.75674 0
M  V30 7091 C 654.604 4.8826 1.85472 0
M  V30 7092 H 656.298 2.88551 0.798672 0
M  V30 7093 H 653.844 1.3882 0.382743 0
M  V30 7094 H 655.797 2.70754 3.22909 0
M  V30 7095 H 654.521 1.5104 2.89576 0
M  V30 7096 H 653.18 3.2601 1.67669 0
M  V30 7097 H 652.828 2.88057 4.12349 0
M  V30 7098 H 652.528 4.57998 3.68119 0
M  V30 7099 H 654.052 4.12967 4.49767 0
M  V30 7100 H 655.466 5.16965 2.4783 0
M  V30 7101 H 653.863 5.69631 1.88787 0
M  V30 7102 H 654.933 4.78071 0.810935 0
M  V30 7103 N 656.276 -0.40816 1.52223 0
M  V30 7104 C 657.206 -1.5042 1.78595 0
M  V30 7105 C 658.187 -1.57723 0.636974 0
M  V30 7106 O 659.372 -1.72982 0.882664 0
M  V30 7107 C 656.502 -2.88232 1.93751 0
M  V30 7108 C 655.456 -2.95779 3.09352 0
M  V30 7109 C 654.782 -4.35855 3.09732 0
M  V30 7110 C 656.082 -2.67175 4.48793 0
M  V30 7111 H 657.776 -1.28601 2.70374 0
M  V30 7112 H 655.322 -0.617221 1.30101 0
M  V30 7113 H 657.275 -3.64895 2.10783 0
M  V30 7114 H 655.999 -3.11347 0.986443 0
M  V30 7115 H 654.658 -2.21561 2.92072 0
M  V30 7116 H 654.306 -4.55981 2.12346 0
M  V30 7117 H 654.006 -4.41829 3.87377 0
M  V30 7118 H 655.53 -5.14451 3.28895 0
M  V30 7119 H 656.944 -3.3356 4.66273 0
M  V30 7120 H 655.341 -2.84523 5.28362 0
M  V30 7121 H 656.411 -1.62609 4.56822 0
M  V30 7122 N 657.755 -1.42862 -0.66545 0
M  V30 7123 C 658.703 -1.47319 -1.8 0
M  V30 7124 C 659.697 -0.347963 -1.65788 0
M  V30 7125 O 660.903 -0.521406 -1.72283 0
M  V30 7126 H 657.278 -0.461588 -0.593667 0
M  V30 7127 H 659.249 -2.42876 -1.7336 0
M  V30 7128 C 657.998 -1.40152 -3.18203 0
M  V30 7129 H 657.321 -2.26035 -3.2977 0
M  V30 7130 H 658.761 -1.47331 -3.9758 0
M  V30 7131 C 657.22 -0.117493 -3.36695 0
M  V30 7132 O 657.75 0.826058 -3.93115 0
M  V30 7133 N 655.956 -0.0316218 -2.90583 0
M  V30 7134 H 655.503 -0.800247 -2.44855 0
M  V30 7135 H 655.461 0.826835 -3.03333 0
M  V30 7136 N 659.233 0.902656 -1.29189 0
M  V30 7137 C 660.479 1.65532 -1.17163 0
M  V30 7138 C 660.812 1.92216 0.276879 0
M  V30 7139 O 660.087 1.53048 1.20027 0
M  V30 7140 C 660.37 3.00629 -1.98228 0
M  V30 7141 C 660.223 2.81029 -3.51202 0
M  V30 7142 C 661.542 4.01321 -1.80635 0
M  V30 7143 H 658.661 0.60071 -0.426985 0
M  V30 7144 H 661.303 1.04578 -1.5863 0
M  V30 7145 H 659.453 3.52656 -1.62991 0
M  V30 7146 H 661.125 2.35927 -3.96404 0
M  V30 7147 H 659.368 2.1587 -3.76275 0
M  V30 7148 H 660.039 3.77014 -4.03192 0
M  V30 7149 H 662.515 3.58394 -2.11406 0
M  V30 7150 H 661.391 4.93792 -2.3971 0
M  V30 7151 H 661.652 4.35505 -0.760754 0
M  V30 7152 N 660.711 1.11618 1.11262 0
M  V30 7153 C 662.122 0.881942 1.64556 0
M  V30 7154 C 662.473 -0.585442 1.87262 0
M  V30 7155 O 661.598 -1.44795 1.60821 0
M  V30 7156 C 662.193 1.59446 2.98935 0
M  V30 7157 C 660.752 1.40661 3.4913 0
M  V30 7158 C 659.899 1.63593 2.23903 0
M  V30 7159 H 662.85 1.27217 0.94877 0
M  V30 7160 H 662.871 1.04054 3.65996 0
M  V30 7161 H 662.383 2.66241 2.82378 0
M  V30 7162 H 660.484 0.360835 3.70849 0
M  V30 7163 H 660.597 2.15693 4.27801 0
M  V30 7164 H 658.961 1.05944 2.3162 0
M  V30 7165 H 659.744 2.71666 2.09886 0
M  V30 7166 N 662.189 -1.289 0.906776 0
M  V30 7167 C 663.605 -1.47733 0.603902 0
M  V30 7168 C 663.805 -1.82568 -0.852702 0
M  V30 7169 O 662.861 -1.92642 -1.63234 0
M  V30 7170 C 664.174 -2.58522 1.53581 0
M  V30 7171 C 665.722 -2.72394 1.54177 0
M  V30 7172 C 666.197 -3.86318 2.46013 0
M  V30 7173 N 667.688 -3.93661 2.441 0
M  V30 7174 C 668.423 -4.81177 3.11859 0
M  V30 7175 N 667.919 -5.73333 3.88923 0
M  V30 7176 N 669.712 -4.74728 3.00981 0
M  V30 7177 H 661.863 -1.04567 1.84877 0
M  V30 7178 H 664.126 -0.520118 0.792579 0
M  V30 7179 H 663.832 -2.39667 2.57396 0
M  V30 7180 H 663.706 -3.55475 1.26165 0
M  V30 7181 H 666.093 -2.90641 0.511034 0
M  V30 7182 H 666.174 -1.75993 1.85634 0
M  V30 7183 H 665.818 -3.68826 3.49185 0
M  V30 7184 H 665.748 -4.82102 2.11862 0
M  V30 7185 H 668.239 -3.27751 1.88115 0
M  V30 7186 H 668.552 -6.36923 4.37663 0
M  V30 7187 H 666.897 -5.73196 3.93029 0
M  V30 7188 H 670.088 -4.01722 2.40286 0
M  V30 7189 H 670.261 -5.42719 3.54062 0
M  V30 7190 N 663.667 -0.670007 -1.42649 0
M  V30 7191 C 665.083 -0.33911 -1.55956 0
M  V30 7192 C 665.283 1.1558 -1.65056 0
M  V30 7193 O 664.339 1.94111 -1.61485 0
M  V30 7194 C 665.652 -1.06522 -2.812 0
M  V30 7195 C 667.2 -1.04708 -2.94966 0
M  V30 7196 C 667.675 -1.75442 -4.23065 0
M  V30 7197 N 669.166 -1.72286 -4.29967 0
M  V30 7198 C 669.901 -2.23877 -5.27889 0
M  V30 7199 N 669.397 -2.83829 -6.31991 0
M  V30 7200 N 671.19 -2.14279 -5.19654 0
M  V30 7201 H 663.341 -1.6399 -1.34986 0
M  V30 7202 H 665.604 -0.690603 -0.649439 0
M  V30 7203 H 665.31 -2.12033 -2.80597 0
M  V30 7204 H 665.184 -0.627398 -3.71946 0
M  V30 7205 H 667.571 -0.000315966 -2.951 0
M  V30 7206 H 667.652 -1.52374 -2.05465 0
M  V30 7207 H 667.296 -2.80084 -4.23693 0
M  V30 7208 H 667.226 -1.25229 -5.11493 0
M  V30 7209 H 669.717 -1.28554 -3.55362 0
M  V30 7210 H 670.03 -3.20827 -7.03057 0
M  V30 7211 H 668.375 -2.87896 -6.32567 0
M  V30 7212 H 671.566 -1.67135 -4.37245 0
M  V30 7213 H 671.739 -2.54792 -5.95806 0
M  V30 7214 N 665.145 1.52092 -0.413018 0
M  V30 7215 C 666.108 2.25706 0.398687 0
M  V30 7216 C 667.108 1.28221 0.970368 0
M  V30 7217 O 668.298 1.52131 0.848635 0
M  V30 7218 C 665.43 3.03029 1.5616 0
M  V30 7219 H 666.623 2.98888 -0.246131 0
M  V30 7220 H 664.176 1.5542 -0.165622 0
M  V30 7221 H 664.911 2.34205 2.24317 0
M  V30 7222 H 664.696 3.74606 1.15812 0
M  V30 7223 H 666.186 3.58857 2.13569 0
M  V30 7224 N 666.623 0.143563 1.56945 0
M  V30 7225 C 667.853 -0.514699 2.00086 0
M  V30 7226 C 668.261 -1.59184 1.0226 0
M  V30 7227 O 667.604 -1.83697 0.0110514 0
M  V30 7228 C 667.666 -1.17778 3.39659 0
M  V30 7229 C 667.33 -0.245657 4.56339 0
M  V30 7230 C 668.327 0.525343 5.17239 0
M  V30 7231 C 666.012 -0.149564 5.02077 0
M  V30 7232 C 668.006 1.37992 6.22284 0
M  V30 7233 C 665.693 0.708621 6.06978 0
M  V30 7234 C 666.691 1.47197 6.6695 0
M  V30 7235 O 666.379 2.31586 7.6982 0
M  V30 7236 H 666.111 -0.138789 0.661599 0
M  V30 7237 H 668.665 0.234098 2.04062 0
M  V30 7238 H 666.895 -1.97415 3.32512 0
M  V30 7239 H 668.584 -1.73542 3.6693 0
M  V30 7240 H 669.35 0.461118 4.82803 0
M  V30 7241 H 665.229 -0.733457 4.55128 0
M  V30 7242 H 668.773 1.97621 6.69023 0
M  V30 7243 H 664.67 0.77415 6.40841 0
M  V30 7244 H 665.438 2.24796 7.87025 0
M  V30 7245 N 668.101 -1.57061 -0.130224 0
M  V30 7246 C 669.35 -1.83446 -0.838488 0
M  V30 7247 C 669.663 -0.727468 -1.81569 0
M  V30 7248 O 670.869 -0.877394 -2.56932 0
M  V30 7249 C 669.325 -3.25201 -1.54182 0
M  V30 7250 C 668.933 -4.4388 -0.606178 0
M  V30 7251 C 670.677 -3.60844 -2.23588 0
M  V30 7252 C 668.584 -5.76661 -1.31209 0
M  V30 7253 H 667.514 -0.684185 -0.316871 0
M  V30 7254 H 670.165 -1.83273 -0.0912059 0
M  V30 7255 H 668.547 -3.1981 -2.33533 0
M  V30 7256 H 669.721 -4.60545 0.153308 0
M  V30 7257 H 668.036 -4.16395 -0.0196705 0
M  V30 7258 H 670.633 -4.57313 -2.77072 0
M  V30 7259 H 670.976 -2.87724 -3.00867 0
M  V30 7260 H 671.509 -3.67971 -1.51137 0
M  V30 7261 H 668.248 -6.52922 -0.580823 0
M  V30 7262 H 667.768 -5.63902 -2.04387 0
M  V30 7263 H 669.447 -6.20035 -1.8484 0
M  V30 7264 N 669.579 0.400081 -1.52437 0
M  V30 7265 C 670.542 1.4707 -1.75793 0
M  V30 7266 C 671.542 1.48036 -0.627856 0
M  V30 7267 O 672.732 1.49401 -0.895817 0
M  V30 7268 C 669.864 2.86427 -1.84858 0
M  V30 7269 H 671.057 1.27649 -2.71377 0
M  V30 7270 H 668.61 0.631141 -1.42991 0
M  V30 7271 H 669.345 3.11207 -0.912194 0
M  V30 7272 H 669.13 2.87128 -2.6702 0
M  V30 7273 H 670.62 3.64023 -2.04638 0
M  V30 7274 N 671.057 1.43213 0.657864 0
M  V30 7275 C 671.989 1.43974 1.78337 0
M  V30 7276 C 673.002 0.336482 1.59285 0
M  V30 7277 O 674.191 0.600631 1.68091 0
M  V30 7278 C 671.291 1.23242 3.15697 0
M  V30 7279 C 670.464 2.46319 3.61449 0
M  V30 7280 C 669.523 2.2088 4.77597 0
M  V30 7281 O 668.549 2.942 4.87273 0
M  V30 7282 N 669.751 1.22251 5.67481 0
M  V30 7283 H 672.516 2.40993 1.78164 0
M  V30 7284 H 670.077 1.3831 0.841549 0
M  V30 7285 H 672.069 1.04113 3.91079 0
M  V30 7286 H 670.639 0.346849 3.1067 0
M  V30 7287 H 669.859 2.80904 2.76563 0
M  V30 7288 H 671.147 3.28239 3.88763 0
M  V30 7289 H 670.545 0.616433 5.62331 0
M  V30 7290 H 669.102 1.09107 6.42603 0
M  V30 7291 N 672.536 -0.895792 1.29666 0
M  V30 7292 C 673.782 -1.64908 1.18039 0
M  V30 7293 C 674.115 -1.9236 -0.266682 0
M  V30 7294 O 673.39 -1.53682 -1.19214 0
M  V30 7295 C 673.673 -2.99574 1.99819 0
M  V30 7296 C 673.526 -2.79163 3.52687 0
M  V30 7297 C 674.845 -4.00358 1.82761 0
M  V30 7298 H 671.964 -0.598437 0.430165 0
M  V30 7299 H 674.606 -1.03736 1.59182 0
M  V30 7300 H 672.756 -3.51786 1.64859 0
M  V30 7301 H 674.428 -2.33821 3.9765 0
M  V30 7302 H 672.671 -2.13871 3.77414 0
M  V30 7303 H 673.342 -3.74871 4.05186 0
M  V30 7304 H 675.818 -3.57268 2.13304 0
M  V30 7305 H 674.694 -4.92514 2.42325 0
M  V30 7306 H 674.955 -4.35096 0.783839 0
M  V30 7307 N 674.014 -1.12206 -1.10668 0
M  V30 7308 C 675.425 -0.890657 -1.64086 0
M  V30 7309 C 675.776 0.575502 -1.8757 0
M  V30 7310 O 674.901 1.4394 -1.61587 0
M  V30 7311 C 675.496 -1.61029 -2.98085 0
M  V30 7312 C 674.055 -1.4251 -3.48379 0
M  V30 7313 C 673.202 -1.64778 -2.23033 0
M  V30 7314 H 676.153 -1.27718 -0.94201 0
M  V30 7315 H 676.174 -1.05993 -3.65439 0
M  V30 7316 H 675.686 -2.67735 -2.80962 0
M  V30 7317 H 673.787 -0.380497 -3.70652 0
M  V30 7318 H 673.9 -2.17959 -4.26651 0
M  V30 7319 H 672.264 -1.07171 -2.31055 0
M  V30 7320 H 673.047 -2.72776 -2.08443 0
M  V30 7321 N 675.492 1.28418 -0.913599 0
M  V30 7322 C 676.769 1.89977 -0.465619 0
M  V30 7323 C 677.149 1.82813 1.05559 0
M  V30 7324 O 676.497 1.26397 1.90358 0
M  V30 7325 C 676.707 3.34492 -0.995813 0
M  V30 7326 C 678.055 4.11468 -1.04782 0
M  V30 7327 O 679.079 3.43451 -0.944445 0
M  V30 7328 O 677.938 5.33046 -1.20518 0
M  V30 7329 H 675.032 0.813734 -0.147532 0
M  V30 7330 H 677.578 1.36786 -1.00437 0
M  V30 7331 H 676.35 3.33929 -2.03978 0
M  V30 7332 H 675.973 3.95181 -0.437878 0
M  V30 7333 N 676.97 0.677563 1.42291 0
M  V30 7334 C 677.933 0.0101085 2.29198 0
M  V30 7335 C 678.933 -0.726219 1.43467 0
M  V30 7336 O 680.123 -0.563807 1.64824 0
M  V30 7337 C 677.255 -0.996316 3.26016 0
M  V30 7338 H 678.448 0.775071 2.89711 0
M  V30 7339 H 676.001 0.440065 1.49977 0
M  V30 7340 H 676.736 -1.78967 2.70446 0
M  V30 7341 H 676.521 -0.471687 3.89253 0
M  V30 7342 H 678.011 -1.46167 3.91184 0
M  V30 7343 N 678.448 -1.51871 0.421078 0
M  V30 7344 C 679.678 -2.06057 -0.149723 0
M  V30 7345 C 680.086 -1.29002 -1.38402 0
M  V30 7346 O 679.429 -0.338385 -1.80556 0
M  V30 7347 C 679.491 -3.55216 -0.553339 0
M  V30 7348 C 679.155 -4.53408 0.571879 0
M  V30 7349 C 680.152 -4.99586 1.4391 0
M  V30 7350 C 677.837 -4.967 0.747979 0
M  V30 7351 C 679.831 -5.87711 2.46727 0
M  V30 7352 C 677.518 -5.84619 1.77944 0
M  V30 7353 C 678.516 -6.30021 2.63748 0
M  V30 7354 O 678.204 -7.16197 3.65126 0
M  V30 7355 H 677.936 -0.675744 -0.0186102 0
M  V30 7356 H 680.49 -1.96618 0.594166 0
M  V30 7357 H 678.72 -3.62381 -1.34969 0
M  V30 7358 H 680.409 -3.91992 -1.05342 0
M  V30 7359 H 681.175 -4.66846 1.31451 0
M  V30 7360 H 677.054 -4.60913 0.0897357 0
M  V30 7361 H 680.598 -6.2307 3.13734 0
M  V30 7362 H 676.495 -6.16771 1.90429 0
M  V30 7363 H 677.263 -7.34337 3.61512 0
M  V30 7364 N 679.926 -0.151884 -1.56866 0
M  V30 7365 C 681.337 0.368128 -1.83035 0
M  V30 7366 C 681.688 1.64402 -1.07082 0
M  V30 7367 O 680.813 2.14056 -0.317647 0
M  V30 7368 C 681.408 0.674676 -3.32014 0
M  V30 7369 C 679.967 1.13919 -3.58747 0
M  V30 7370 C 679.114 0.164833 -2.7681 0
M  V30 7371 H 682.065 -0.376499 -1.54169 0
M  V30 7372 H 682.086 1.52883 -3.48435 0
M  V30 7373 H 681.598 -0.254113 -3.87267 0
M  V30 7374 H 679.699 2.08375 -3.08886 0
M  V30 7375 H 679.812 1.06179 -4.67186 0
M  V30 7376 H 678.176 0.658419 -2.46043 0
M  V30 7377 H 678.959 -0.757633 -3.34836 0
M  V30 7378 N 681.404 1.57128 0.121893 0
M  V30 7379 C 682.354 1.96556 1.15541 0
M  V30 7380 C 683.338 0.840147 1.37224 0
M  V30 7381 O 684.53 1.10382 1.38365 0
M  V30 7382 C 681.659 2.37097 2.48274 0
M  V30 7383 C 680.745 3.56265 2.30078 0
M  V30 7384 N 681.136 4.72041 1.81688 0
M  V30 7385 C 679.434 3.61841 2.60744 0
M  V30 7386 C 680.135 5.54075 1.77132 0
M  V30 7387 N 679.111 4.96483 2.21371 0
M  V30 7388 H 682.913 2.83531 0.77378 0
M  V30 7389 H 680.427 1.59019 0.329672 0
M  V30 7390 H 682.424 2.6356 3.2302 0
M  V30 7391 H 681.084 1.51486 2.87197 0
M  V30 7392 H 682.095 4.95313 1.51278 0
M  V30 7393 H 678.772 2.8683 3.03373 0
M  V30 7394 H 680.162 6.56939 1.40998 0
M  V30 7395 N 682.882 -0.391992 1.52647 0
M  V30 7396 C 683.845 -1.46135 1.7657 0
M  V30 7397 C 684.845 -1.47701 0.635698 0
M  V30 7398 O 686.035 -1.48924 0.903728 0
M  V30 7399 C 683.167 -2.85443 1.86374 0
M  V30 7400 H 684.36 -1.26208 2.72051 0
M  V30 7401 H 681.913 -0.623549 1.43323 0
M  V30 7402 H 682.648 -3.10718 0.928685 0
M  V30 7403 H 682.433 -2.85708 2.68539 0
M  V30 7404 H 683.923 -3.62933 2.06566 0
M  V30 7405 N 684.36 -1.4356 -0.65026 0
M  V30 7406 C 685.323 -1.48615 -1.74489 0
M  V30 7407 C 686.323 -0.370483 -1.56474 0
M  V30 7408 O 687.513 -0.632351 -1.62317 0
M  V30 7409 C 684.645 -1.34161 -3.13391 0
M  V30 7410 H 685.838 -2.46103 -1.71387 0
M  V30 7411 H 683.391 -1.30369 -0.862186 0
M  V30 7412 H 684.126 -0.376918 -3.22102 0
M  V30 7413 H 683.911 -2.1504 -3.27872 0
M  V30 7414 H 685.401 -1.40637 -3.93206 0
M  V30 7415 N 685.838 0.888903 -1.30139 0
M  V30 7416 C 687.084 1.6428 -1.18912 0
M  V30 7417 C 687.417 1.92499 0.256477 0
M  V30 7418 O 686.692 1.54312 1.18397 0
M  V30 7419 C 686.975 2.9851 -2.01405 0
M  V30 7420 C 686.828 2.77288 -3.54163 0
M  V30 7421 C 688.147 3.99383 -1.84882 0
M  V30 7422 H 685.266 0.596148 -0.433333 0
M  V30 7423 H 687.908 1.0289 -1.5973 0
M  V30 7424 H 686.058 3.50907 -1.66722 0
M  V30 7425 H 687.73 2.31709 -3.98884 0
M  V30 7426 H 685.973 2.11867 -3.78543 0
M  V30 7427 H 686.644 3.72717 -4.07168 0
M  V30 7428 H 689.12 3.56132 -2.15196 0
M  V30 7429 H 687.996 4.91222 -2.44934 0
M  V30 7430 H 688.257 4.34674 -0.806902 0
M  V30 7431 N 687.317 1.12792 1.10072 0
M  V30 7432 C 688.728 0.899346 1.63611 0
M  V30 7433 C 689.079 -0.565547 1.87872 0
M  V30 7434 O 688.204 -1.43081 1.62348 0
M  V30 7435 C 688.799 1.62608 2.97227 0
M  V30 7436 C 687.358 1.44356 3.47618 0
M  V30 7437 C 686.505 1.65958 2.22156 0
M  V30 7438 H 689.456 1.28216 0.935223 0
M  V30 7439 H 689.477 1.0793 3.64872 0
M  V30 7440 H 688.989 2.69221 2.79538 0
M  V30 7441 H 687.09 0.400148 3.70445 0
M  V30 7442 H 687.203 2.20218 4.25489 0
M  V30 7443 H 685.567 1.08395 2.30484 0
M  V30 7444 H 686.35 2.73877 2.06993 0
M  V30 7445 N 688.795 -1.27931 0.920396 0
M  V30 7446 C 689.728 -2.2537 0.358285 0
M  V30 7447 C 690.706 -1.53328 -0.541242 0
M  V30 7448 O 691.89 -1.82196 -0.483399 0
M  V30 7449 C 689.017 -3.35178 -0.487193 0
M  V30 7450 C 688.063 -4.25079 0.347881 0
M  V30 7451 S 688.896 -5.05792 1.75883 0
M  V30 7452 C 690.052 -6.19089 0.920832 0
M  V30 7453 H 690.285 -2.72701 1.18413 0
M  V30 7454 H 687.818 -1.36474 0.722088 0
M  V30 7455 H 689.776 -3.98895 -0.96916 0
M  V30 7456 H 688.437 -2.865 -1.28749 0
M  V30 7457 H 687.63 -5.03113 -0.298912 0
M  V30 7458 H 687.232 -3.66119 0.763748 0
M  V30 7459 H 689.524 -6.77326 0.15349 0
M  V30 7460 H 690.467 -6.8803 1.67394 0
M  V30 7461 H 690.875 -5.62573 0.466069 0
M  V30 7462 N 690.273 -0.685099 -1.4193 0
M  V30 7463 C 691.519 -0.211971 -2.01689 0
M  V30 7464 C 691.852 1.18189 -1.54094 0
M  V30 7465 O 691.127 1.79559 -0.747572 0
M  V30 7466 C 691.41 -0.258019 -3.59174 0
M  V30 7467 C 691.263 -1.68807 -4.16922 0
M  V30 7468 C 692.582 0.388044 -4.38386 0
M  V30 7469 H 689.701 -0.0784987 -0.732808 0
M  V30 7470 H 692.343 -0.871837 -1.68816 0
M  V30 7471 H 690.493 0.303832 -3.8731 0
M  V30 7472 H 692.165 -2.30296 -3.99702 0
M  V30 7473 H 690.408 -2.22553 -3.72361 0
M  V30 7474 H 691.079 -1.6719 -5.26072 0
M  V30 7475 H 693.555 -0.0903432 -4.16002 0
M  V30 7476 H 692.431 0.325232 -5.47936 0
M  V30 7477 H 692.692 1.4672 -4.17044 0
M  V30 7478 N 691.751 1.51645 -0.429126 0
M  V30 7479 C 692.998 2.02015 0.140079 0
M  V30 7480 C 693.326 1.31374 1.43427 0
M  V30 7481 O 692.581 0.414779 1.91254 0
M  V30 7482 C 692.88 3.54989 0.414472 0
M  V30 7483 C 692.546 4.43874 -0.792911 0
M  V30 7484 C 691.208 4.67887 -1.12404 0
M  V30 7485 C 693.56 4.96074 -1.59875 0
M  V30 7486 C 690.888 5.41348 -2.26184 0
M  V30 7487 C 693.24 5.70782 -2.72747 0
M  V30 7488 C 691.904 5.93062 -3.06324 0
M  V30 7489 H 691.174 0.739225 0.0512585 0
M  V30 7490 H 693.821 1.82675 -0.574641 0
M  V30 7491 H 692.126 3.72615 1.21099 0
M  V30 7492 H 693.823 3.91489 0.868173 0
M  V30 7493 H 690.413 4.25374 -0.524871 0
M  V30 7494 H 694.597 4.77412 -1.35614 0
M  V30 7495 H 689.853 5.56815 -2.52522 0
M  V30 7496 H 694.027 6.10221 -3.35564 0
M  V30 7497 H 691.654 6.49764 -3.94602 0
M  V30 7498 N 693.229 0.160201 1.56784 0
M  V30 7499 C 694.177 -0.791402 2.18723 0
M  V30 7500 C 695.171 -1.24567 1.14801 0
M  V30 7501 O 696.377 -1.21262 1.33025 0
M  V30 7502 H 692.752 -0.273458 0.700517 0
M  V30 7503 H 694.723 -0.244931 2.97393 0
M  V30 7504 C 693.472 -2.01509 2.83354 0
M  V30 7505 H 692.795 -1.67454 3.63041 0
M  V30 7506 H 694.235 -2.66006 3.30177 0
M  V30 7507 C 692.694 -2.83159 1.82545 0
M  V30 7508 O 693.224 -3.79944 1.30405 0
M  V30 7509 N 691.43 -2.47953 1.51552 0
M  V30 7510 H 690.977 -1.69309 1.94144 0
M  V30 7511 H 690.935 -3.02873 0.843519 0
M  V30 7512 N 694.707 -1.5719 -0.113559 0
M  V30 7513 C 695.953 -1.85412 -0.821597 0
M  V30 7514 C 696.286 -0.746722 -1.7927 0
M  V30 7515 O 695.561 0.246971 -1.92926 0
M  V30 7516 C 695.844 -3.24233 -1.56669 0
M  V30 7517 C 695.697 -4.45578 -0.614823 0
M  V30 7518 C 697.016 -3.60697 -2.52161 0
M  V30 7519 H 694.135 -0.674406 -0.29723 0
M  V30 7520 H 696.777 -1.89807 -0.085694 0
M  V30 7521 H 694.927 -3.20617 -2.19401 0
M  V30 7522 H 696.599 -4.613 0.00407137 0
M  V30 7523 H 694.842 -4.33738 0.0732332 0
M  V30 7524 H 695.513 -5.39395 -1.17292 0
M  V30 7525 H 697.989 -3.65139 -1.99532 0
M  V30 7526 H 696.865 -4.58798 -3.01323 0
M  V30 7527 H 697.126 -2.88403 -3.35076 0
M  V30 7528 N 696.185 0.383891 -1.52853 0
M  V30 7529 C 697.115 1.47559 -1.80965 0
M  V30 7530 C 698.096 1.5669 -0.661986 0
M  V30 7531 O 699.281 1.71556 -0.910072 0
M  V30 7532 C 696.411 2.85114 -1.98312 0
M  V30 7533 C 695.365 2.9082 -3.14019 0
M  V30 7534 C 694.691 4.30873 -3.16627 0
M  V30 7535 C 695.991 2.60001 -4.52986 0
M  V30 7536 H 697.685 1.24283 -2.72386 0
M  V30 7537 H 695.231 0.596445 -1.31067 0
M  V30 7538 H 697.184 3.61496 -2.16561 0
M  V30 7539 H 695.908 3.09738 -1.03585 0
M  V30 7540 H 694.567 2.16886 -2.9556 0
M  V30 7541 H 694.215 4.52545 -2.19573 0
M  V30 7542 H 693.915 4.3561 -3.94357 0
M  V30 7543 H 695.439 5.09154 -3.37038 0
M  V30 7544 H 696.853 3.261 -4.71521 0
M  V30 7545 H 695.25 2.76081 -5.32822 0
M  V30 7546 H 696.32 1.5532 -4.59351 0
M  V30 7547 N 697.663 1.43903 0.642637 0
M  V30 7548 C 698.626 1.49538 1.73698 0
M  V30 7549 C 699.626 0.378776 1.56275 0
M  V30 7550 O 700.816 0.64095 1.6198 0
M  V30 7551 C 697.948 1.35821 3.12675 0
M  V30 7552 H 699.141 2.47008 1.70079 0
M  V30 7553 H 696.694 1.30824 0.85526 0
M  V30 7554 H 697.429 0.393994 3.21898 0
M  V30 7555 H 697.214 2.16776 3.26727 0
M  V30 7556 H 698.704 1.4272 3.92455 0
M  V30 7557 N 699.141 -0.881989 1.30609 0
M  V30 7558 C 700.389 -1.63082 1.19368 0
M  V30 7559 C 700.71 -1.93376 -0.251147 0
M  V30 7560 O 699.98 -1.5723 -1.16857 0
M  V30 7561 H 698.56 -0.604542 0.438791 0
M  V30 7562 H 701.222 -1.05658 1.63776 0
M  V30 7563 H 700.318 -2.57966 1.7567 0
M  V30 7564 N 700.619 -1.13374 -1.09472 0
M  V30 7565 C 701.868 -0.889844 -1.8101 0
M  V30 7566 C 702.181 0.585686 -1.86625 0
M  V30 7567 O 703.387 0.946497 -2.54467 0
M  V30 7568 C 701.843 -1.54241 -3.25174 0
M  V30 7569 C 701.451 -3.05343 -3.27826 0
M  V30 7570 C 703.195 -1.37919 -4.0147 0
M  V30 7571 C 701.102 -3.63486 -4.6651 0
M  V30 7572 H 700.032 -0.329256 -0.678311 0
M  V30 7573 H 702.683 -1.36139 -1.23038 0
M  V30 7574 H 701.065 -0.998525 -3.83204 0
M  V30 7575 H 702.239 -3.66307 -2.79563 0
M  V30 7576 H 700.554 -3.21175 -2.65019 0
M  V30 7577 H 703.151 -1.78771 -5.03929 0
M  V30 7578 H 703.494 -0.323987 -4.15037 0
M  V30 7579 H 704.027 -1.89284 -3.49881 0
M  V30 7580 H 700.766 -4.68811 -4.58145 0
M  V30 7581 H 700.286 -3.073 -5.15099 0
M  V30 7582 H 701.965 -3.63134 -5.35484 0
M  V30 7583 N 702.098 1.27442 -0.927168 0
M  V30 7584 C 703.344 1.94679 -0.568164 0
M  V30 7585 C 703.677 1.72697 0.888219 0
M  V30 7586 O 702.952 1.05573 1.63354 0
M  V30 7587 C 703.235 3.4882 -0.894253 0
M  V30 7588 C 703.088 3.80146 -2.40435 0
M  V30 7589 C 704.407 4.38281 -0.399766 0
M  V30 7590 H 701.526 0.707071 -0.207892 0
M  V30 7591 H 704.168 1.50568 -1.15885 0
M  V30 7592 H 702.318 3.86522 -0.391566 0
M  V30 7593 H 703.99 3.52238 -2.97869 0
M  V30 7594 H 702.233 3.26716 -2.85375 0
M  V30 7595 H 702.904 4.87835 -2.58304 0
M  V30 7596 H 705.38 4.07726 -0.83058 0
M  V30 7597 H 704.256 5.44955 -0.656885 0
M  V30 7598 H 704.517 4.36521 0.700153 0
M  V30 7599 N 703.576 0.692616 1.41565 0
M  V30 7600 C 704.506 0.0397325 2.33466 0
M  V30 7601 C 705.487 -0.770334 1.51657 0
M  V30 7602 O 706.672 -0.723903 1.80203 0
M  V30 7603 C 703.802 -0.899495 3.3545 0
M  V30 7604 C 702.756 -0.196738 4.27548 0
M  V30 7605 C 702.082 -1.25012 5.19881 0
M  V30 7606 C 703.382 0.935158 5.1386 0
M  V30 7607 H 705.076 0.807296 2.88311 0
M  V30 7608 H 702.622 0.389665 1.38628 0
M  V30 7609 H 704.575 -1.36545 3.98665 0
M  V30 7610 H 703.299 -1.69869 2.78948 0
M  V30 7611 H 701.958 0.249158 3.65752 0
M  V30 7612 H 701.606 -2.04177 4.59696 0
M  V30 7613 H 701.306 -0.784931 5.82334 0
M  V30 7614 H 702.83 -1.71665 5.85972 0
M  V30 7615 H 704.244 0.549619 5.70659 0
M  V30 7616 H 702.641 1.32726 5.85238 0
M  V30 7617 H 703.711 1.77613 4.512 0
M  V30 7618 N 705.054 -1.51416 0.437162 0
M  V30 7619 C 705.984 -2.30631 -0.364922 0
M  V30 7620 C 706.965 -1.36037 -1.02118 0
M  V30 7621 O 708.15 -1.64956 -1.02485 0
M  V30 7622 C 705.28 -3.1482 -1.46648 0
M  V30 7623 C 704.234 -4.17691 -0.933717 0
M  V30 7624 C 703.56 -4.904 -2.13101 0
M  V30 7625 C 704.86 -5.2229 0.0317201 0
M  V30 7626 H 706.554 -2.97932 0.29614 0
M  V30 7627 H 704.1 -1.4328 0.143865 0
M  V30 7628 H 706.053 -3.69017 -2.03481 0
M  V30 7629 H 704.777 -2.4534 -2.15583 0
M  V30 7630 H 703.436 -3.64545 -0.387602 0
M  V30 7631 H 703.084 -4.17423 -2.80654 0
M  V30 7632 H 702.784 -5.59962 -1.78092 0
M  V30 7633 H 704.308 -5.4742 -2.70487 0
M  V30 7634 H 705.722 -5.7156 -0.446302 0
M  V30 7635 H 704.119 -5.99378 0.29437 0
M  V30 7636 H 705.189 -4.75131 0.968447 0
M  V30 7637 N 706.532 -0.168513 -1.56696 0
M  V30 7638 C 707.778 0.477865 -1.9709 0
M  V30 7639 C 708.111 1.63084 -1.05438 0
M  V30 7640 O 707.386 1.94238 -0.10095 0
M  V30 7641 C 707.669 0.963521 -3.4697 0
M  V30 7642 C 707.522 -0.189443 -4.49401 0
M  V30 7643 C 708.841 1.83813 -3.99876 0
M  V30 7644 H 705.96 0.172229 -0.716593 0
M  V30 7645 H 708.602 -0.254083 -1.88293 0
M  V30 7646 H 706.752 1.58724 -3.54597 0
M  V30 7647 H 708.424 -0.826451 -4.53836 0
M  V30 7648 H 706.667 -0.845366 -4.25483 0
M  V30 7649 H 707.338 0.192446 -5.51664 0
M  V30 7650 H 709.814 1.31235 -3.94863 0
M  V30 7651 H 708.69 2.14697 -5.0517 0
M  V30 7652 H 708.951 2.78289 -3.43523 0
M  V30 7653 N 708.01 1.57248 0.105221 0
M  V30 7654 C 708.973 2.00388 1.11252 0
M  V30 7655 C 709.973 0.89594 1.33527 0
M  V30 7656 O 711.163 1.16166 1.29811 0
M  V30 7657 C 708.295 2.35589 2.46395 0
M  V30 7658 H 709.488 2.90591 0.741424 0
M  V30 7659 H 707.041 1.52332 0.349956 0
M  V30 7660 H 707.776 1.4831 2.884 0
M  V30 7661 H 707.561 3.16408 2.31578 0
M  V30 7662 H 709.051 2.69658 3.18864 0
M  V30 7663 N 709.488 -0.375779 1.53054 0
M  V30 7664 C 710.418 -1.46598 1.81745 0
M  V30 7665 C 711.399 -1.56337 0.670286 0
M  V30 7666 O 712.584 -1.71071 0.919158 0
M  V30 7667 C 709.714 -2.84058 1.99821 0
M  V30 7668 C 708.668 -2.8915 3.15557 0
M  V30 7669 C 707.994 -4.29187 3.18908 0
M  V30 7670 C 709.294 -2.57595 4.54359 0
M  V30 7671 H 710.988 -1.22837 2.73041 0
M  V30 7672 H 708.534 -0.589485 1.31381 0
M  V30 7673 H 710.487 -3.60342 2.18475 0
M  V30 7674 H 709.211 -3.09184 1.05226 0
M  V30 7675 H 707.87 -2.15316 2.96706 0
M  V30 7676 H 707.518 -4.51374 2.2197 0
M  V30 7677 H 707.218 -4.33512 3.96662 0
M  V30 7678 H 708.742 -5.07359 3.39734 0
M  V30 7679 H 710.156 -3.23595 4.73243 0
M  V30 7680 H 708.553 -2.73252 5.34279 0
M  V30 7681 H 709.623 -1.52882 4.60169 0
M  V30 7682 N 710.966 -1.44241 -0.634997 0
M  V30 7683 C 711.896 -1.53632 -1.7584 0
M  V30 7684 C 712.877 -0.389603 -1.65578 0
M  V30 7685 O 714.062 -0.609219 -1.84397 0
M  V30 7686 C 711.192 -1.47644 -3.14354 0
M  V30 7687 C 710.146 -2.60752 -3.394 0
M  V30 7688 C 709.472 -2.39817 -4.77904 0
M  V30 7689 C 710.772 -4.02921 -3.32343 0
M  V30 7690 H 712.466 -2.47662 -1.68238 0
M  V30 7691 H 710.012 -1.19197 -0.807969 0
M  V30 7692 H 711.965 -1.52815 -3.92716 0
M  V30 7693 H 710.689 -0.501284 -3.2273 0
M  V30 7694 H 709.348 -2.54965 -2.63417 0
M  V30 7695 H 708.996 -1.40502 -4.82978 0
M  V30 7696 H 708.696 -3.15649 -4.9562 0
M  V30 7697 H 710.22 -2.46799 -5.585 0
M  V30 7698 H 711.634 -4.10098 -4.00615 0
M  V30 7699 H 710.031 -4.78925 -3.61595 0
M  V30 7700 H 711.101 -4.26766 -2.30215 0
M  V30 7701 N 712.444 0.87505 -1.31075 0
M  V30 7702 C 713.374 1.99775 -1.20881 0
M  V30 7703 C 714.355 1.69822 -0.0971612 0
M  V30 7704 O 715.54 1.92158 -0.280895 0
M  V30 7705 C 712.67 3.35163 -0.910118 0
M  V30 7706 C 711.624 3.79406 -1.98078 0
M  V30 7707 C 710.95 5.12197 -1.53488 0
M  V30 7708 C 712.25 3.97061 -3.39323 0
M  V30 7709 H 713.944 2.08562 -2.14808 0
M  V30 7710 H 711.49 1.00207 -1.03415 0
M  V30 7711 H 713.443 4.13237 -0.825423 0
M  V30 7712 H 712.167 3.26536 0.064822 0
M  V30 7713 H 710.826 3.03568 -2.05528 0
M  V30 7714 H 710.474 5.00007 -0.547941 0
M  V30 7715 H 710.174 5.4277 -2.2511 0
M  V30 7716 H 711.698 5.92785 -1.46417 0
M  V30 7717 H 713.112 4.65545 -3.34576 0
M  V30 7718 H 711.509 4.39025 -4.09118 0
M  V30 7719 H 712.579 3.00601 -3.80483 0
M  V30 7720 N 713.922 1.13953 1.08869 0
M  V30 7721 C 715.169 0.90481 1.81161 0
M  V30 7722 C 715.497 -0.568824 1.85996 0
M  V30 7723 O 714.752 -1.43723 1.32823 0
M  V30 7724 C 715.051 1.44495 3.26888 0
M  V30 7725 C 714.717 2.93641 3.42178 0
M  V30 7726 C 713.379 3.34361 3.46059 0
M  V30 7727 C 715.731 3.89568 3.46246 0
M  V30 7728 C 713.059 4.69681 3.51592 0
M  V30 7729 C 715.411 5.2474 3.53314 0
M  V30 7730 C 714.075 5.64979 3.55465 0
M  V30 7731 H 713.345 0.331094 0.662916 0
M  V30 7732 H 715.992 1.42242 1.28217 0
M  V30 7733 H 714.297 0.848169 3.82509 0
M  V30 7734 H 715.994 1.23934 3.81368 0
M  V30 7735 H 712.584 2.61156 3.39846 0
M  V30 7736 H 716.768 3.59192 3.42483 0
M  V30 7737 H 712.024 5.00224 3.51547 0
M  V30 7738 H 716.198 5.98882 3.55406 0
M  V30 7739 H 713.825 6.69821 3.59505 0
M  V30 7740 N 715.4 -1.26948 0.933913 0
M  V30 7741 C 716.649 -1.93378 0.573409 0
M  V30 7742 C 716.962 -1.74148 -0.890614 0
M  V30 7743 O 718.168 -2.34971 -1.36017 0
M  V30 7744 C 716.624 -3.46449 0.974747 0
M  V30 7745 C 716.232 -3.74425 2.45988 0
M  V30 7746 C 717.976 -4.18924 0.685791 0
M  V30 7747 C 715.883 -5.209 2.8003 0
M  V30 7748 H 714.813 -0.723952 0.210736 0
M  V30 7749 H 717.464 -1.44143 1.13557 0
M  V30 7750 H 715.846 -3.94528 0.341181 0
M  V30 7751 H 717.02 -3.37079 3.14188 0
M  V30 7752 H 715.335 -3.15167 2.72138 0
M  V30 7753 H 717.932 -5.26786 0.916546 0
M  V30 7754 H 718.275 -4.14587 -0.377217 0
M  V30 7755 H 718.808 -3.76687 1.27874 0
M  V30 7756 H 715.547 -5.30332 3.85264 0
M  V30 7757 H 715.067 -5.59369 2.16485 0
M  V30 7758 H 716.746 -5.88837 2.68105 0
M  V30 7759 N 716.879 -0.700114 -1.41195 0
M  V30 7760 C 718.109 -0.241828 -2.0518 0
M  V30 7761 C 718.517 1.1157 -1.52803 0
M  V30 7762 O 717.86 1.70926 -0.673042 0
M  V30 7763 C 717.922 -0.12695 -3.59276 0
M  V30 7764 C 717.586 -1.41725 -4.34469 0
M  V30 7765 C 718.583 -2.35604 -4.63451 0
M  V30 7766 C 716.268 -1.67189 -4.73659 0
M  V30 7767 C 718.262 -3.53204 -5.3059 0
M  V30 7768 C 715.949 -2.85073 -5.40534 0
M  V30 7769 C 716.947 -3.77904 -5.68927 0
M  V30 7770 O 716.635 -4.93723 -6.34424 0
M  V30 7771 H 716.367 -0.109247 -0.667114 0
M  V30 7772 H 718.921 -0.954538 -1.81873 0
M  V30 7773 H 717.151 0.641571 -3.81341 0
M  V30 7774 H 718.84 0.294748 -4.04828 0
M  V30 7775 H 719.606 -2.1719 -4.33651 0
M  V30 7776 H 715.485 -0.957935 -4.50937 0
M  V30 7777 H 719.029 -4.25679 -5.52669 0
M  V30 7778 H 714.926 -3.03402 -5.69752 0
M  V30 7779 H 715.694 -4.93597 -6.5292 0
M  V30 7780 N 718.357 1.51182 -0.445186 0
M  V30 7781 C 719.605 2.01753 0.11841 0
M  V30 7782 C 719.926 1.33087 1.42523 0
M  V30 7783 O 719.196 0.467891 1.9023 0
M  V30 7784 H 717.776 0.745536 0.0467492 0
M  V30 7785 H 720.438 1.85765 -0.589688 0
M  V30 7786 H 719.534 3.10762 0.288665 0
M  V30 7787 N 719.835 0.176821 1.56605 0
M  V30 7788 C 720.765 -0.746841 2.21234 0
M  V30 7789 C 721.746 -1.23502 1.16967 0
M  V30 7790 O 722.931 -1.28718 1.45414 0
M  V30 7791 C 720.061 -1.97407 2.8574 0
M  V30 7792 C 719.015 -1.62153 3.96094 0
M  V30 7793 C 718.341 -2.92387 4.47676 0
M  V30 7794 C 719.641 -0.845353 5.15413 0
M  V30 7795 H 721.335 -0.208116 2.98676 0
M  V30 7796 H 718.881 -0.0986594 1.43662 0
M  V30 7797 H 720.834 -2.62531 3.2963 0
M  V30 7798 H 719.558 -2.53703 2.05676 0
M  V30 7799 H 718.217 -0.993964 3.52868 0
M  V30 7800 H 717.865 -3.46734 3.64396 0
M  V30 7801 H 717.565 -2.69551 5.22127 0
M  V30 7802 H 719.089 -3.5853 4.94255 0
M  V30 7803 H 720.503 -1.39929 5.55961 0
M  V30 7804 H 718.9 -0.715814 5.95815 0
M  V30 7805 H 719.97 0.157239 4.84645 0
M  V30 7806 N 721.313 -1.57302 -0.09688 0
M  V30 7807 C 722.56 -1.85997 -0.800699 0
M  V30 7808 C 722.888 -0.765089 -1.7882 0
M  V30 7809 O 722.143 0.241492 -1.94204 0
M  V30 7810 C 722.442 -3.21272 -1.56586 0
M  V30 7811 C 722.108 -4.45104 -0.72064 0
M  V30 7812 C 720.77 -4.78723 -0.487632 0
M  V30 7813 C 723.122 -5.2103 -0.132948 0
M  V30 7814 C 720.45 -5.85697 0.34296 0
M  V30 7815 C 722.802 -6.28881 0.684957 0
M  V30 7816 C 721.466 -6.61017 0.928073 0
M  V30 7817 H 720.736 -0.680613 -0.292997 0
M  V30 7818 H 723.383 -1.91399 -0.0622474 0
M  V30 7819 H 721.688 -3.11547 -2.37583 0
M  V30 7820 H 723.385 -3.40702 -2.11478 0
M  V30 7821 H 719.975 -4.18777 -0.912359 0
M  V30 7822 H 724.159 -4.95392 -0.300132 0
M  V30 7823 H 719.415 -6.09008 0.540317 0
M  V30 7824 H 723.589 -6.86886 1.14721 0
M  V30 7825 H 721.216 -7.43738 1.57348 0
M  V30 7826 N 722.791 0.367657 -1.53252 0
M  V30 7827 C 724.016 1.13566 -1.73544 0
M  V30 7828 C 724.441 1.82329 -0.462344 0
M  V30 7829 O 723.799 1.71655 0.583472 0
M  V30 7830 C 723.847 2.14322 -2.89997 0
M  V30 7831 O 722.951 3.21359 -2.58461 0
M  V30 7832 H 722.292 0.329614 -0.576412 0
M  V30 7833 H 724.822 0.425417 -2.00128 0
M  V30 7834 H 724.832 2.57958 -3.16104 0
M  V30 7835 H 723.507 1.63664 -3.82344 0
M  V30 7836 H 722.084 2.8271 -2.43165 0
M  V30 7837 N 724.269 1.44576 0.627338 0
M  V30 7838 C 725.515 1.47777 1.38888 0
M  V30 7839 C 725.848 0.111406 1.9388 0
M  V30 7840 O 725.123 -0.87149 1.73883 0
M  V30 7841 C 725.406 2.54119 2.55138 0
M  V30 7842 C 725.259 4.00128 2.0547 0
M  V30 7843 C 726.578 2.56929 3.57317 0
M  V30 7844 H 723.697 0.538048 0.50366 0
M  V30 7845 H 726.339 1.76277 0.708978 0
M  V30 7846 H 724.489 2.29948 3.13139 0
M  V30 7847 H 726.161 4.35444 1.5227 0
M  V30 7848 H 724.404 4.11724 1.36623 0
M  V30 7849 H 725.075 4.7019 2.89181 0
M  V30 7850 H 727.551 2.78536 3.09122 0
M  V30 7851 H 726.427 3.33234 4.36173 0
M  V30 7852 H 726.688 1.6127 4.11636 0
M  V30 7853 N 725.747 -0.868086 1.31537 0
M  V30 7854 C 726.677 -1.99131 1.21939 0
M  V30 7855 C 727.658 -1.69768 0.106166 0
M  V30 7856 O 728.843 -1.92006 0.291081 0
M  V30 7857 C 725.973 -3.34676 0.927879 0
M  V30 7858 C 724.927 -3.7835 2.00088 0
M  V30 7859 C 724.253 -5.11375 1.56203 0
M  V30 7860 C 725.553 -3.95256 3.41424 0
M  V30 7861 H 727.247 -2.07419 2.15911 0
M  V30 7862 H 724.793 -0.996569 1.03945 0
M  V30 7863 H 726.746 -4.12793 0.847327 0
M  V30 7864 H 725.47 -3.26565 -0.0475042 0
M  V30 7865 H 724.129 -3.02474 2.07135 0
M  V30 7866 H 723.777 -4.99709 0.57445 0
M  V30 7867 H 723.477 -5.41568 2.27985 0
M  V30 7868 H 725.001 -5.92001 1.49558 0
M  V30 7869 H 726.415 -4.63764 3.3704 0
M  V30 7870 H 724.812 -4.36849 4.1144 0
M  V30 7871 H 725.882 -2.98579 3.82072 0
M  V30 7872 N 727.225 -1.14528 -1.08264 0
M  V30 7873 C 728.155 -0.856356 -2.1723 0
M  V30 7874 C 729.136 0.189251 -1.69044 0
M  V30 7875 O 730.321 0.0456119 -1.94146 0
M  V30 7876 C 727.451 -0.334662 -3.45684 0
M  V30 7877 C 726.405 -1.31588 -4.0727 0
M  V30 7878 C 725.731 -0.653428 -5.30692 0
M  V30 7879 C 727.031 -2.67866 -4.48381 0
M  V30 7880 H 728.725 -1.76755 -2.41657 0
M  V30 7881 H 726.271 -0.851287 -1.16143 0
M  V30 7882 H 728.224 -0.120128 -4.21229 0
M  V30 7883 H 726.948 0.611967 -3.20815 0
M  V30 7884 H 725.607 -1.51661 -3.33758 0
M  V30 7885 H 725.255 0.299054 -5.0211 0
M  V30 7886 H 724.955 -1.30817 -5.72853 0
M  V30 7887 H 726.479 -0.448453 -6.08951 0
M  V30 7888 H 727.893 -2.51692 -5.15096 0
M  V30 7889 H 726.29 -3.29627 -5.01464 0
M  V30 7890 H 727.36 -3.24632 -3.60198 0
M  V30 7891 N 728.703 1.26451 -0.940633 0
M  V30 7892 C 729.928 1.98407 -0.60412 0
M  V30 7893 C 730.353 1.69584 0.81382 0
M  V30 7894 O 729.711 0.943553 1.54812 0
M  V30 7895 C 729.759 3.50387 -0.852136 0
M  V30 7896 O 728.863 4.1233 0.076013 0
M  V30 7897 H 728.204 0.622466 -0.231153 0
M  V30 7898 H 730.734 1.60932 -1.26342 0
M  V30 7899 H 730.744 4.00614 -0.772816 0
M  V30 7900 H 729.419 3.70696 -1.88566 0
M  V30 7901 H 727.996 3.7286 -0.0543187 0
M  V30 7902 N 730.181 0.707592 1.40822 0
M  V30 7903 C 731.597 0.38034 1.55002 0
M  V30 7904 C 731.797 -1.11163 1.68062 0
M  V30 7905 O 730.853 -1.89761 1.66574 0
M  V30 7906 C 732.166 1.1394 2.78277 0
M  V30 7907 C 733.714 1.12492 2.92087 0
M  V30 7908 C 734.189 1.86597 4.18265 0
M  V30 7909 N 735.68 1.83626 4.25248 0
M  V30 7910 C 736.415 2.37794 5.21768 0
M  V30 7911 N 735.911 3.00485 6.24244 0
M  V30 7912 N 737.704 2.27982 5.13791 0
M  V30 7913 H 729.855 1.67511 1.3059 0
M  V30 7914 H 732.118 0.707579 0.630901 0
M  V30 7915 H 731.824 2.19398 2.74877 0
M  V30 7916 H 731.698 0.725793 3.70151 0
M  V30 7917 H 734.085 0.0785564 2.94995 0
M  V30 7918 H 734.166 1.57768 2.01353 0
M  V30 7919 H 733.81 2.91219 4.16118 0
M  V30 7920 H 733.74 1.38746 5.07993 0
M  V30 7921 H 736.231 1.3793 3.51829 0
M  V30 7922 H 736.544 3.39355 6.94304 0
M  V30 7923 H 734.889 3.04567 6.24711 0
M  V30 7924 H 738.08 1.78669 4.3266 0
M  V30 7925 H 738.253 2.70499 5.88841 0
M  V30 7926 N 731.66 -1.50943 0.453197 0
M  V30 7927 C 732.57 -2.31884 -0.355963 0
M  V30 7928 C 733.586 -1.41481 -1.01287 0
M  V30 7929 O 734.762 -1.74546 -1.00477 0
M  V30 7930 C 731.827 -3.15668 -1.43369 0
M  V30 7931 C 730.888 -4.2187 -0.795253 0
M  V30 7932 C 730.121 -5.0165 -1.82162 0
M  V30 7933 O 730.344 -4.82266 -3.04592 0
M  V30 7934 O 729.278 -5.85311 -1.40336 0
M  V30 7935 H 733.104 -3.02162 0.305248 0
M  V30 7936 H 730.689 -1.47839 0.215398 0
M  V30 7937 H 732.571 -3.67709 -2.05836 0
M  V30 7938 H 731.246 -2.48137 -2.07869 0
M  V30 7939 H 730.153 -3.73867 -0.132106 0
M  V30 7940 H 731.486 -4.9182 -0.193484 0
M  V30 7941 N 733.138 -0.185124 -1.56509 0
M  V30 7942 C 734.554 0.170865 -1.58683 0
M  V30 7943 C 734.754 1.61799 -1.20098 0
M  V30 7944 O 733.81 2.35181 -0.919038 0
M  V30 7945 C 735.123 -0.122459 -3.00451 0
M  V30 7946 C 736.671 -0.0617699 -3.12939 0
M  V30 7947 C 737.146 -0.328269 -4.56822 0
M  V30 7948 N 738.637 -0.276533 -4.62374 0
M  V30 7949 C 739.372 -0.456722 -5.71578 0
M  V30 7950 N 738.868 -0.69672 -6.89288 0
M  V30 7951 N 740.661 -0.391669 -5.60734 0
M  V30 7952 H 732.812 -1.12956 -1.79874 0
M  V30 7953 H 735.075 -0.45011 -0.834329 0
M  V30 7954 H 734.781 -1.12546 -3.33206 0
M  V30 7955 H 734.655 0.579578 -3.72721 0
M  V30 7956 H 737.042 0.931826 -2.80002 0
M  V30 7957 H 737.123 -0.796732 -2.43076 0
M  V30 7958 H 736.767 -1.31914 -4.9047 0
M  V30 7959 H 736.697 0.427465 -5.24862 0
M  V30 7960 H 739.188 -0.0972458 -3.77775 0
M  V30 7961 H 739.501 -0.823291 -7.68402 0
M  V30 7962 H 737.846 -0.733497 -6.91119 0
M  V30 7963 H 741.037 -0.204663 -4.67652 0
M  V30 7964 H 741.21 -0.535518 -6.45783 0
M  V30 7965 N 734.616 1.57351 0.0885366 0
M  V30 7966 C 735.563 2.02523 1.10693 0
M  V30 7967 C 736.533 0.902736 1.39427 0
M  V30 7968 O 737.718 1.16921 1.50779 0
M  V30 7969 C 734.858 2.46013 2.42016 0
M  V30 7970 C 733.971 3.7181 2.19957 0
M  V30 7971 C 733.106 4.04152 3.44724 0
M  V30 7972 C 732.145 5.2304 3.17956 0
M  V30 7973 N 731.282 5.51102 4.35007 0
M  V30 7974 H 736.122 2.89302 0.714742 0
M  V30 7975 H 733.659 1.43084 0.341378 0
M  V30 7976 H 735.617 2.69274 3.18665 0
M  V30 7977 H 734.247 1.62235 2.79069 0
M  V30 7978 H 733.299 3.55987 1.34079 0
M  V30 7979 H 734.611 4.58604 1.96173 0
M  V30 7980 H 733.765 4.28225 4.29777 0
M  V30 7981 H 732.504 3.15893 3.71568 0
M  V30 7982 H 731.509 4.98781 2.31296 0
M  V30 7983 H 732.734 6.12902 2.92451 0
M  V30 7984 H 730.68 4.65802 4.61914 0
M  V30 7985 H 730.597 6.3228 4.14437 0
M  V30 7986 H 731.865 5.79714 5.21106 0
M  V30 7987 N 736.094 -0.359525 1.53444 0
M  V30 7988 C 737.505 -0.936009 1.61542 0
M  V30 7989 C 737.856 -1.90069 0.486633 0
M  V30 7990 O 736.981 -2.12929 -0.386047 0
M  V30 7991 C 737.576 -1.70441 2.92806 0
M  V30 7992 C 736.135 -2.23015 3.03218 0
M  V30 7993 C 735.282 -1.04438 2.56881 0
M  V30 7994 H 738.233 -0.138134 1.58098 0
M  V30 7995 H 738.254 -2.56609 2.80948 0
M  V30 7996 H 737.766 -1.00205 3.74941 0
M  V30 7997 H 735.867 -2.96475 2.25684 0
M  V30 7998 H 735.98 -2.50481 4.08407 0
M  V30 7999 H 734.344 -1.41314 2.11902 0
M  V30 8000 H 735.127 -0.356905 3.4144 0
M  V30 8001 N 737.572 -1.44907 -0.619662 0
M  V30 8002 C 738.482 -1.55168 -1.75955 0
M  V30 8003 C 739.498 -0.43672 -1.6843 0
M  V30 8004 O 740.674 -0.695704 -1.89002 0
M  V30 8005 C 737.739 -1.50397 -3.12381 0
M  V30 8006 C 736.8 -2.72835 -3.31451 0
M  V30 8007 C 736.033 -2.68283 -4.61368 0
M  V30 8008 O 736.256 -1.74929 -5.42914 0
M  V30 8009 O 735.19 -3.59308 -4.82889 0
M  V30 8010 H 739.016 -2.51493 -1.7025 0
M  V30 8011 H 736.601 -1.27282 -0.782289 0
M  V30 8012 H 738.483 -1.50301 -3.93685 0
M  V30 8013 H 737.158 -0.572197 -3.18603 0
M  V30 8014 H 736.065 -2.78496 -2.49781 0
M  V30 8015 H 737.398 -3.65098 -3.30098 0
M  V30 8016 N 739.05 0.861098 -1.31996 0
M  V30 8017 C 739.98 1.98482 -1.22993 0
M  V30 8018 C 740.961 1.6971 -0.115168 0
M  V30 8019 O 742.146 1.91849 -0.30126 0
M  V30 8020 C 739.276 3.34179 -0.945615 0
M  V30 8021 C 738.23 3.77284 -2.02091 0
M  V30 8022 C 737.556 5.1054 -1.58912 0
M  V30 8023 C 738.856 3.93439 -3.43515 0
M  V30 8024 H 740.55 2.06271 -2.17008 0
M  V30 8025 H 738.096 0.991043 -1.04472 0
M  V30 8026 H 740.049 4.12338 -0.869206 0
M  V30 8027 H 738.773 3.26586 0.0301849 0
M  V30 8028 H 737.432 3.01371 -2.08737 0
M  V30 8029 H 737.08 4.99397 -0.600942 0
M  V30 8030 H 736.78 5.40352 -2.30854 0
M  V30 8031 H 738.304 5.91199 -1.52696 0
M  V30 8032 H 739.718 4.6197 -3.39495 0
M  V30 8033 H 738.115 4.34661 -4.13751 0
M  V30 8034 H 739.185 2.96548 -3.8365 0
M  V30 8035 N 740.528 1.15101 1.07655 0
M  V30 8036 C 741.491 0.847625 2.12951 0
M  V30 8037 C 742.491 -0.151227 1.60087 0
M  V30 8038 O 743.681 0.0780399 1.74025 0
M  V30 8039 C 740.813 0.265 3.39868 0
M  V30 8040 H 742.006 1.7809 2.41296 0
M  V30 8041 H 739.559 0.958072 1.23494 0
M  V30 8042 H 740.294 -0.676625 3.17163 0
M  V30 8043 H 740.079 0.984554 3.79538 0
M  V30 8044 H 741.569 0.0702121 4.17541 0
M  V30 8045 N 742.006 -1.2595 0.947325 0
M  V30 8046 C 742.916 -2.29883 0.468079 0
M  V30 8047 C 743.932 -1.67783 -0.460975 0
M  V30 8048 O 745.108 -1.98526 -0.339006 0
M  V30 8049 C 742.173 -3.45773 -0.253315 0
M  V30 8050 C 741.234 -4.23337 0.713054 0
M  V30 8051 C 740.467 -5.33694 0.025993 0
M  V30 8052 O 740.69 -5.57853 -1.18978 0
M  V30 8053 O 739.624 -5.97724 0.70782 0
M  V30 8054 H 743.45 -2.72952 1.33156 0
M  V30 8055 H 741.035 -1.31263 0.713468 0
M  V30 8056 H 742.917 -4.16209 -0.659423 0
M  V30 8057 H 741.592 -3.04721 -1.09209 0
M  V30 8058 H 740.499 -3.55359 1.16923 0
M  V30 8059 H 741.832 -4.68154 1.51963 0
M  V30 8060 N 743.484 -0.715051 -1.40445 0
M  V30 8061 C 744.447 -0.0708726 -2.2909 0
M  V30 8062 C 745.447 0.687926 -1.45342 0
M  V30 8063 O 746.637 0.519908 -1.66261 0
M  V30 8064 C 743.769 0.909528 -3.28543 0
M  V30 8065 H 744.962 -0.851611 -2.87555 0
M  V30 8066 H 742.515 -0.479674 -1.48758 0
M  V30 8067 H 743.25 1.71734 -2.75096 0
M  V30 8068 H 743.035 0.368318 -3.90366 0
M  V30 8069 H 744.525 1.35744 -3.94922 0
M  V30 8070 N 744.962 1.50701 -0.461195 0
M  V30 8071 C 746.373 1.867 -0.00370227 0
M  V30 8072 C 746.724 1.37673 1.39787 0
M  V30 8073 O 745.849 0.737515 2.03445 0
M  V30 8074 C 746.444 3.388 5.75786e-05 0
M  V30 8075 C 745.003 3.74247 0.402044 0
M  V30 8076 C 744.15 2.74549 -0.389652 0
M  V30 8077 H 747.101 1.43585 -0.675942 0
M  V30 8078 H 747.122 3.719 0.804414 0
M  V30 8079 H 746.634 3.74452 -1.02015 0
M  V30 8080 H 744.735 3.44192 1.42697 0
M  V30 8081 H 744.848 4.78973 0.110265 0
M  V30 8082 H 743.212 2.54226 0.155314 0
M  V30 8083 H 743.995 3.13044 -1.40919 0
M  V30 8084 N 746.441 0.193421 1.56409 0
M  V30 8085 C 747.371 -0.723334 2.22014 0
M  V30 8086 C 748.352 -1.22254 1.1827 0
M  V30 8087 O 749.537 -1.27168 1.46771 0
M  V30 8088 C 746.667 -1.94366 2.87818 0
M  V30 8089 C 745.621 -1.57943 3.97791 0
M  V30 8090 C 744.947 -2.87623 4.50752 0
M  V30 8091 C 746.247 -0.790639 5.16281 0
M  V30 8092 H 747.941 -0.176426 2.9888 0
M  V30 8093 H 745.487 -0.0834166 1.43758 0
M  V30 8094 H 747.44 -2.5902 3.32396 0
M  V30 8095 H 746.164 -2.51507 2.08355 0
M  V30 8096 H 744.823 -0.956482 3.53903 0
M  V30 8097 H 744.471 -3.4285 3.68053 0
M  V30 8098 H 744.171 -2.63998 5.24956 0
M  V30 8099 H 745.695 -3.53268 4.9803 0
M  V30 8100 H 747.109 -1.34024 5.57414 0
M  V30 8101 H 745.506 -0.65258 5.96541 0
M  V30 8102 H 746.576 0.208633 4.84451 0
M  V30 8103 N 747.919 -1.57396 -0.0801906 0
M  V30 8104 C 749.33 -1.75642 -0.633002 0
M  V30 8105 C 749.681 -0.817708 -1.78348 0
M  V30 8106 O 748.806 0.000233743 -2.164 0
M  V30 8107 C 749.401 -3.18502 -1.15507 0
M  V30 8108 C 747.96 -3.38121 -1.65381 0
M  V30 8109 C 747.107 -2.71386 -0.569661 0
M  V30 8110 H 750.058 -1.58027 0.145949 0
M  V30 8111 H 750.079 -3.22198 -2.02408 0
M  V30 8112 H 749.591 -3.86799 -0.317515 0
M  V30 8113 H 747.692 -2.74926 -2.51488 0
M  V30 8114 H 747.805 -4.46521 -1.73654 0
M  V30 8115 H 746.169 -2.33702 -1.0127 0
M  V30 8116 H 746.952 -3.42332 0.257561 0
M  V30 8117 N 749.397 0.351382 -1.53633 0
M  V30 8118 C 750.644 1.0925 -1.70502 0
M  V30 8119 C 750.972 1.88881 -0.464123 0
M  V30 8120 O 750.227 1.87693 0.554077 0
M  V30 8121 C 750.526 2.06744 -2.91533 0
M  V30 8122 C 750.192 1.43484 -4.27461 0
M  V30 8123 C 748.854 1.2596 -4.64422 0
M  V30 8124 C 751.206 0.978436 -5.11934 0
M  V30 8125 C 748.534 0.614017 -5.83478 0
M  V30 8126 C 750.886 0.346795 -6.31649 0
M  V30 8127 C 749.55 0.15917 -6.6731 0
M  V30 8128 H 748.82 0.399773 -0.623909 0
M  V30 8129 H 751.467 0.372656 -1.87839 0
M  V30 8130 H 749.772 2.85082 -2.68767 0
M  V30 8131 H 751.469 2.64066 -3.01778 0
M  V30 8132 H 748.059 1.5812 -3.98367 0
M  V30 8133 H 752.243 1.1017 -4.83918 0
M  V30 8134 H 747.499 0.457194 -6.09688 0
M  V30 8135 H 751.673 -0.0149864 -6.96398 0
M  V30 8136 H 749.3 -0.343129 -7.59425 0
M  V30 8137 N 750.875 1.45233 0.611969 0
M  V30 8138 C 751.838 1.53189 1.70487 0
M  V30 8139 C 752.838 0.411839 1.55437 0
M  V30 8140 O 754.028 0.675164 1.60584 0
M  V30 8141 C 751.16 1.42422 3.09723 0
M  V30 8142 H 752.353 2.5056 1.64802 0
M  V30 8143 H 749.906 1.32609 0.827318 0
M  V30 8144 H 750.641 0.462185 3.2099 0
M  V30 8145 H 750.426 2.23658 3.22055 0
M  V30 8146 H 751.916 1.51012 3.89339 0
M  V30 8147 N 752.353 -0.854086 1.3245 0
M  V30 8148 C 753.263 -1.99503 1.23434 0
M  V30 8149 C 754.279 -1.73371 0.147828 0
M  V30 8150 O 755.455 -1.97998 0.368609 0
M  V30 8151 C 752.52 -3.33192 0.958328 0
M  V30 8152 C 751.581 -3.72542 2.13333 0
M  V30 8153 C 750.814 -4.99852 1.8704 0
M  V30 8154 O 751.037 -5.64573 0.813239 0
M  V30 8155 O 749.971 -5.36345 2.73161 0
M  V30 8156 H 753.797 -2.10046 2.1935 0
M  V30 8157 H 751.382 -0.984823 1.12346 0
M  V30 8158 H 753.264 -4.13327 0.820918 0
M  V30 8159 H 751.939 -3.23687 0.0293299 0
M  V30 8160 H 750.846 -2.92981 2.32622 0
M  V30 8161 H 752.179 -3.86694 3.04514 0
M  V30 8162 N 753.831 -1.1567 -1.07043 0
M  V30 8163 C 755.077 -0.9349 -1.79965 0
M  V30 8164 C 755.41 0.536464 -1.86643 0
M  V30 8165 O 754.685 1.39781 -1.35247 0
M  V30 8166 C 754.968 -1.55371 -3.24857 0
M  V30 8167 C 754.821 -3.09589 -3.26305 0
M  V30 8168 C 756.14 -1.24209 -4.22209 0
M  V30 8169 H 753.259 -0.341061 -0.653335 0
M  V30 8170 H 755.901 -1.42883 -1.25237 0
M  V30 8171 H 754.051 -1.13368 -3.71591 0
M  V30 8172 H 755.723 -3.60521 -2.87789 0
M  V30 8173 H 753.966 -3.43315 -2.65174 0
M  V30 8174 H 754.637 -3.48002 -4.28484 0
M  V30 8175 H 757.113 -1.60548 -3.8388 0
M  V30 8176 H 755.989 -1.70119 -5.21872 0
M  V30 8177 H 756.25 -0.15964 -4.41812 0
M  V30 8178 N 755.309 1.25446 -0.953992 0
M  V30 8179 C 756.558 1.92441 -0.604101 0
M  V30 8180 C 756.871 1.75543 0.862796 0
M  V30 8181 O 758.077 2.37106 1.32262 0
M  V30 8182 C 756.533 3.44854 -1.02974 0
M  V30 8183 C 756.141 3.70464 -2.51914 0
M  V30 8184 C 757.885 4.1778 -0.752352 0
M  V30 8185 C 755.792 5.1638 -2.88281 0
M  V30 8186 H 754.722 0.720508 -0.222227 0
M  V30 8187 H 757.373 1.42318 -1.15836 0
M  V30 8188 H 755.755 3.93935 -0.403904 0
M  V30 8189 H 756.929 3.32038 -3.19511 0
M  V30 8190 H 755.244 3.10797 -2.77117 0
M  V30 8191 H 757.841 5.25261 -1.00024 0
M  V30 8192 H 758.184 4.15135 0.311212 0
M  V30 8193 H 758.717 3.74605 -1.33851 0
M  V30 8194 H 755.456 5.24135 -3.93653 0
M  V30 8195 H 754.976 5.55855 -2.25357 0
M  V30 8196 H 756.655 5.84497 -2.77439 0
M  V30 8197 N 756.787 0.722489 1.40064 0
M  V30 8198 C 758.012 0.273446 2.05589 0
M  V30 8199 C 758.437 -1.07875 1.54093 0
M  V30 8200 O 757.795 -1.68095 0.679252 0
M  V30 8201 C 757.843 0.271023 3.5958 0
M  V30 8202 O 756.947 -0.745499 4.05606 0
M  V30 8203 H 756.288 0.126856 0.65177 0
M  V30 8204 H 758.818 0.984906 1.79334 0
M  V30 8205 H 758.828 0.111084 4.07849 0
M  V30 8206 H 757.503 1.25776 3.96425 0
M  V30 8207 H 756.08 -0.552719 3.68781 0
M  V30 8208 N 758.265 -1.50454 0.469181 0
M  V30 8209 C 759.513 -2.01916 -0.0862982 0
M  V30 8210 C 759.834 -1.35337 -1.40388 0
M  V30 8211 O 759.104 -0.498096 -1.89462 0
M  V30 8212 H 757.684 -0.746185 -0.0348825 0
M  V30 8213 H 760.346 -1.84804 0.619167 0
M  V30 8214 H 759.442 -3.11182 -0.239189 0
M  V30 8215 N 759.743 -0.201713 -1.56304 0
M  V30 8216 C 761.154 0.309711 -1.84113 0
M  V30 8217 C 761.505 1.60912 -1.12258 0
M  V30 8218 O 760.63 2.12937 -0.385587 0
M  V30 8219 C 761.225 0.568706 -3.33993 0
M  V30 8220 C 759.784 1.02448 -3.6219 0
M  V30 8221 C 758.931 0.0766842 -2.77194 0
M  V30 8222 H 761.882 -0.425356 -1.52893 0
M  V30 8223 H 761.903 1.41721 -3.53122 0
M  V30 8224 H 761.415 -0.37719 -3.86263 0
M  V30 8225 H 759.516 1.98443 -3.15359 0
M  V30 8226 H 759.629 0.912619 -4.70328 0
M  V30 8227 H 757.993 0.579809 -2.48013 0
M  V30 8228 H 758.776 -0.863774 -3.32256 0
M  V30 8229 N 761.222 1.57436 0.0718424 0
M  V30 8230 C 762.132 2.07039 1.10326 0
M  V30 8231 C 763.148 0.999918 1.424 0
M  V30 8232 O 764.324 1.31462 1.52577 0
M  V30 8233 C 761.389 2.50439 2.39752 0
M  V30 8234 C 760.45 3.71784 2.14651 0
M  V30 8235 C 759.683 4.13104 3.37906 0
M  V30 8236 O 759.906 3.54298 4.47023 0
M  V30 8237 O 758.84 5.05894 3.26121 0
M  V30 8238 H 762.666 2.95239 0.711872 0
M  V30 8239 H 760.251 1.46638 0.28597 0
M  V30 8240 H 762.133 2.78876 3.15921 0
M  V30 8241 H 760.808 1.65368 2.78271 0
M  V30 8242 H 759.715 3.48431 1.36187 0
M  V30 8243 H 761.048 4.57707 1.81012 0
M  V30 8244 N 762.7 -0.34323 1.53817 0
M  V30 8245 C 763.977 -1.10047 1.61706 0
M  V30 8246 C 764.357 -2.06495 0.438514 0
M  V30 8247 O 763.705 -2.21297 -0.569188 0
M  V30 8248 C 763.915 -1.81985 2.97796 0
M  V30 8249 C 765.263 -2.35717 3.53161 0
M  V30 8250 O 766.287 -1.9208 2.99973 0
M  V30 8251 O 765.146 -3.15551 4.46195 0
M  V30 8252 H 762.24 -0.506096 0.654061 0
M  V30 8253 H 764.786 -0.344697 1.66162 0
M  V30 8254 H 763.558 -1.11722 3.75012 0
M  V30 8255 H 763.181 -2.64419 2.96931 0
M  V30 8256 N 764.178 -1.45556 -0.604258 0
M  V30 8257 C 765.594 -1.30035 -0.925368 0
M  V30 8258 C 765.794 -0.255833 -1.99869 0
M  V30 8259 O 764.85 0.349076 -2.50075 0
M  V30 8260 C 766.163 -2.68028 -1.36314 0
M  V30 8261 C 767.711 -2.75951 -1.47717 0
M  V30 8262 C 768.186 -4.14476 -1.94868 0
M  V30 8263 N 769.677 -4.16787 -2.02097 0
M  V30 8264 C 770.412 -5.20845 -2.39809 0
M  V30 8265 N 769.908 -6.35246 -2.76467 0
M  V30 8266 N 771.701 -5.08204 -2.40177 0
M  V30 8267 H 763.852 -2.1214 0.10512 0
M  V30 8268 H 766.115 -0.947871 -0.0156303 0
M  V30 8269 H 765.821 -3.45667 -0.648628 0
M  V30 8270 H 765.695 -2.96711 -2.329 0
M  V30 8271 H 768.082 -1.98613 -2.18258 0
M  V30 8272 H 768.163 -2.50977 -0.494371 0
M  V30 8273 H 767.807 -4.923 -1.24912 0
M  V30 8274 H 767.737 -4.36843 -2.94068 0
M  V30 8275 H 770.228 -3.34233 -1.76343 0
M  V30 8276 H 770.541 -7.10438 -3.04134 0
M  V30 8277 H 768.886 -6.38642 -2.74155 0
M  V30 8278 H 772.077 -4.17874 -2.10947 0
M  V30 8279 H 772.25 -5.89417 -2.69242 0
M  V30 8280 N 765.656 0.84705 -1.32902 0
M  V30 8281 C 767.072 1.13645 -1.12058 0
M  V30 8282 C 767.272 2.01281 0.093937 0
M  V30 8283 O 766.328 2.4026 0.776608 0
M  V30 8284 C 767.641 1.80644 -2.40392 0
M  V30 8285 C 769.189 1.93246 -2.46221 0
M  V30 8286 C 769.664 2.6366 -3.74496 0
M  V30 8287 N 771.155 2.71179 -3.75521 0
M  V30 8288 C 771.89 3.26332 -4.71482 0
M  V30 8289 N 771.386 3.82236 -5.77813 0
M  V30 8290 N 773.179 3.24507 -4.58968 0
M  V30 8291 H 765.33 0.263612 -2.10758 0
M  V30 8292 H 767.593 0.17944 -0.930863 0
M  V30 8293 H 767.299 1.23708 -3.29225 0
M  V30 8294 H 767.173 2.80736 -2.51926 0
M  V30 8295 H 769.56 2.49338 -1.57843 0
M  V30 8296 H 769.641 0.921272 -2.38634 0
M  V30 8297 H 769.285 2.08229 -4.63253 0
M  V30 8298 H 769.215 3.65234 -3.79357 0
M  V30 8299 H 771.706 2.31527 -2.9867 0
M  V30 8300 H 772.019 4.22499 -6.47082 0
M  V30 8301 H 770.364 3.80546 -5.81558 0
M  V30 8302 H 773.555 2.80085 -3.7506 0
M  V30 8303 H 773.728 3.67188 -5.33926 0
M  V30 8304 N 767.134 1.16236 1.06428 0
M  V30 8305 C 768.064 0.890807 2.1584 0
M  V30 8306 C 769.045 -0.162333 1.69324 0
M  V30 8307 O 770.23 -0.0147191 1.94194 0
M  V30 8308 C 767.36 0.389615 3.45108 0
M  V30 8309 C 766.314 1.38051 4.05125 0
M  V30 8310 C 765.64 0.737773 5.29586 0
M  V30 8311 C 766.94 2.74965 4.44062 0
M  V30 8312 H 768.634 1.80577 2.38814 0
M  V30 8313 H 766.18 0.869657 1.14774 0
M  V30 8314 H 768.133 0.187127 4.20984 0
M  V30 8315 H 766.857 -0.560851 3.21748 0
M  V30 8316 H 765.516 1.56952 3.31303 0
M  V30 8317 H 765.164 -0.219135 5.02522 0
M  V30 8318 H 764.864 1.39914 5.70699 0
M  V30 8319 H 766.388 0.545275 6.0816 0
M  V30 8320 H 767.802 2.59855 5.11027 0
M  V30 8321 H 766.199 3.37563 4.96156 0
M  V30 8322 H 767.269 3.30321 3.54987 0
M  V30 8323 N 768.612 -1.24939 0.960631 0
M  V30 8324 C 769.858 -1.93104 0.61958 0
M  V30 8325 C 770.191 -1.74991 -0.84212 0
M  V30 8326 O 769.466 -1.09867 -1.60498 0
M  V30 8327 C 769.749 -3.46326 0.986422 0
M  V30 8328 C 769.602 -3.73638 2.50429 0
M  V30 8329 C 770.921 -4.37067 0.515827 0
M  V30 8330 H 768.04 -0.701311 0.226566 0
M  V30 8331 H 770.682 -1.47442 1.19836 0
M  V30 8332 H 768.832 -3.85348 0.493907 0
M  V30 8333 H 770.504 -3.44217 3.07103 0
M  V30 8334 H 768.747 -3.19035 2.93937 0
M  V30 8335 H 769.418 -4.80815 2.71147 0
M  V30 8336 H 771.894 -4.05381 0.938389 0
M  V30 8337 H 770.77 -5.43022 0.80114 0
M  V30 8338 H 771.031 -4.38224 -0.584171 0
M  V30 8339 N 770.09 -0.729906 -1.39679 0
M  V30 8340 C 771.02 -0.101618 -2.33279 0
M  V30 8341 C 772.001 0.729854 -1.53646 0
M  V30 8342 O 773.186 0.67587 -1.82059 0
M  V30 8343 C 770.316 0.81024 -3.37716 0
M  V30 8344 C 769.27 0.0833126 -4.27919 0
M  V30 8345 C 768.596 1.11185 -5.23012 0
M  V30 8346 C 769.896 -1.07107 -5.112 0
M  V30 8347 H 771.59 -0.883452 -2.86069 0
M  V30 8348 H 769.136 -0.426283 -1.37546 0
M  V30 8349 H 771.089 1.25927 -4.02145 0
M  V30 8350 H 769.813 1.62413 -2.83354 0
M  V30 8351 H 768.472 -0.346043 -3.64963 0
M  V30 8352 H 768.12 1.91917 -4.64948 0
M  V30 8353 H 767.82 0.63026 -5.8421 0
M  V30 8354 H 769.344 1.56068 -5.90318 0
M  V30 8355 H 770.758 -0.700726 -5.69002 0
M  V30 8356 H 769.155 -1.48196 -5.81514 0
M  V30 8357 H 770.225 -1.89513 -4.46332 0
M  V30 8358 N 771.568 1.50203 -0.477153 0
M  V30 8359 C 772.531 2.27194 0.302599 0
M  V30 8360 C 773.531 1.32221 0.915112 0
M  V30 8361 O 774.721 1.55593 0.783348 0
M  V30 8362 C 771.853 3.0938 1.43167 0
M  V30 8363 H 773.046 2.97575 -0.372678 0
M  V30 8364 H 770.599 1.54578 -0.231392 0
M  V30 8365 H 771.334 2.43509 2.14182 0
M  V30 8366 H 771.119 3.79181 0.998197 0
M  V30 8367 H 772.609 3.67592 1.98157 0
M  V30 8368 N 773.046 0.209999 1.56195 0
M  V30 8369 C 773.979 -0.744546 2.15712 0
M  V30 8370 C 774.957 -1.19917 1.09812 0
M  V30 8371 O 776.141 -1.284 1.38006 0
M  V30 8372 C 773.268 -2.00733 2.72807 0
M  V30 8373 C 772.314 -1.69363 3.91431 0
M  V30 8374 S 773.147 -0.828579 5.29051 0
M  V30 8375 C 774.303 -2.10118 5.89577 0
M  V30 8376 H 774.536 -0.238636 2.96341 0
M  V30 8377 H 772.069 -0.00517877 1.54399 0
M  V30 8378 H 774.027 -2.73246 3.06344 0
M  V30 8379 H 772.688 -2.48436 1.92193 0
M  V30 8380 H 771.881 -2.63157 4.29842 0
M  V30 8381 H 771.483 -1.04921 3.58981 0
M  V30 8382 H 773.775 -3.05231 6.04847 0
M  V30 8383 H 774.718 -1.76116 6.85849 0
M  V30 8384 H 775.126 -2.23644 5.18308 0
M  V30 8385 N 774.524 -1.57472 -0.0634922 0
M  V30 8386 C 775.801 -1.78736 -0.794538 0
M  V30 8387 C 776.181 -0.799645 -1.95369 0
M  V30 8388 O 775.529 0.165521 -2.279 0
M  V30 8389 C 775.739 -3.25471 -1.25975 0
M  V30 8390 C 777.087 -3.89528 -1.68976 0
M  V30 8391 O 778.111 -3.29412 -1.35521 0
M  V30 8392 O 776.97 -4.95305 -2.30944 0
M  V30 8393 H 774.064 -0.733813 -0.381376 0
M  V30 8394 H 776.61 -1.69646 -0.0429258 0
M  V30 8395 H 775.382 -3.88922 -0.430721 0
M  V30 8396 H 775.005 -3.39317 -2.07243 0
M  V30 8397 N 776.003 0.335068 -1.53997 0
M  V30 8398 C 777.419 0.678704 -1.4445 0
M  V30 8399 C 777.619 1.92106 -0.608078 0
M  V30 8400 O 776.675 2.52292 -0.102373 0
M  V30 8401 C 777.988 0.863435 -2.88037 0
M  V30 8402 C 779.536 0.961513 -2.97866 0
M  V30 8403 C 780.011 1.1785 -4.42578 0
M  V30 8404 N 781.502 1.2455 -4.46141 0
M  V30 8405 C 782.237 1.43106 -5.55255 0
M  V30 8406 N 781.733 1.5878 -6.74359 0
M  V30 8407 N 783.526 1.45722 -5.42883 0
M  V30 8408 H 775.677 -0.481656 -2.06867 0
M  V30 8409 H 777.94 -0.153615 -0.935471 0
M  V30 8410 H 777.646 0.0219511 -3.51693 0
M  V30 8411 H 777.52 1.76268 -3.33481 0
M  V30 8412 H 779.907 1.79351 -2.34344 0
M  V30 8413 H 779.988 0.0389862 -2.5577 0
M  V30 8414 H 779.632 0.351397 -5.06683 0
M  V30 8415 H 779.562 2.11472 -4.82273 0
M  V30 8416 H 782.053 1.13928 -3.60318 0
M  V30 8417 H 782.366 1.72599 -7.53279 0
M  V30 8418 H 780.711 1.559 -6.77289 0
M  V30 8419 H 783.902 1.33065 -4.48789 0
M  V30 8420 H 784.075 1.59841 -6.27977 0
M  V30 8421 N 777.481 1.45874 0.596531 0
M  V30 8422 C 778.73 1.49737 1.35135 0
M  V30 8423 C 779.043 0.147755 1.95041 0
M  V30 8424 O 780.249 0.0640984 2.71424 0
M  V30 8425 C 778.705 2.6378 2.44843 0
M  V30 8426 C 778.313 4.05102 1.91301 0
M  V30 8427 C 780.057 2.769 3.21755 0
M  V30 8428 C 777.964 5.10508 2.98557 0
M  V30 8429 H 776.894 0.557219 0.507959 0
M  V30 8430 H 779.545 1.72046 0.638147 0
M  V30 8431 H 777.927 2.34774 3.189 0
M  V30 8432 H 779.101 4.43836 1.2388 0
M  V30 8433 H 777.416 3.96528 1.271 0
M  V30 8434 H 780.013 3.52819 4.01775 0
M  V30 8435 H 780.356 1.83924 3.73467 0
M  V30 8436 H 780.889 3.05485 2.54802 0
M  V30 8437 H 777.628 6.0523 2.51749 0
M  V30 8438 H 777.148 4.76332 3.6451 0
M  V30 8439 H 778.827 5.35745 3.62748 0
M  V30 8440 N 778.959 -0.83999 1.33349 0
M  V30 8441 C 780.207 -1.59202 1.24496 0
M  V30 8442 C 780.528 -1.94077 -0.189499 0
M  V30 8443 O 779.798 -1.60868 -1.11796 0
M  V30 8444 H 778.378 -0.590276 0.457802 0
M  V30 8445 H 781.04 -1.00394 1.67054 0
M  V30 8446 H 780.136 -2.52247 1.83788 0
M  V30 8447 N 780.437 -1.16799 -1.0581 0
M  V30 8448 C 781.684 -0.952524 -1.78699 0
M  V30 8449 C 782.012 0.51931 -1.87439 0
M  V30 8450 O 781.267 1.40151 -1.36587 0
M  V30 8451 C 781.566 -1.53111 -3.22942 0
M  V30 8452 C 781.232 -3.0261 -3.34273 0
M  V30 8453 C 779.894 -3.43418 -3.37072 0
M  V30 8454 C 782.246 -3.98611 -3.35795 0
M  V30 8455 C 779.574 -4.78838 -3.39015 0
M  V30 8456 C 781.926 -5.33923 -3.39277 0
M  V30 8457 C 780.59 -5.74205 -3.40361 0
M  V30 8458 H 779.86 -0.348553 -0.653905 0
M  V30 8459 H 782.507 -1.45591 -1.244 0
M  V30 8460 H 780.812 -0.949286 -3.80126 0
M  V30 8461 H 782.509 -1.34002 -3.77948 0
M  V30 8462 H 779.099 -2.70075 -3.32803 0
M  V30 8463 H 783.283 -3.68146 -3.32839 0
M  V30 8464 H 778.539 -5.09369 -3.38161 0
M  V30 8465 H 782.713 -6.08094 -3.39403 0
M  V30 8466 H 780.34 -6.79117 -3.4162 0
M  V30 8467 N 781.915 1.24427 -0.967243 0
M  V30 8468 C 783.161 1.93089 -0.639404 0
M  V30 8469 C 783.516 1.7422 0.816407 0
M  V30 8470 O 782.809 1.08435 1.57964 0
M  V30 8471 C 783.003 3.44568 -0.949096 0
M  V30 8472 C 782.832 3.7817 -2.43346 0
M  V30 8473 C 781.602 3.99561 -3.09321 0
M  V30 8474 C 783.8 3.84687 -3.41351 0
M  V30 8475 N 781.782 4.20259 -4.475 0
M  V30 8476 C 783.153 4.10223 -4.64884 0
M  V30 8477 C 785.208 3.67421 -3.36015 0
M  V30 8478 C 783.911 4.20286 -5.8374 0
M  V30 8479 C 785.937 3.78731 -4.54221 0
M  V30 8480 C 785.299 4.04691 -5.76545 0
M  V30 8481 H 781.398 0.728291 -0.284809 0
M  V30 8482 H 783.982 1.49941 -1.24201 0
M  V30 8483 H 782.153 3.86582 -0.375308 0
M  V30 8484 H 783.885 4.00524 -0.579876 0
M  V30 8485 H 780.64 3.95946 -2.59853 0
M  V30 8486 H 781.064 4.34588 -5.19097 0
M  V30 8487 H 785.706 3.46358 -2.42479 0
M  V30 8488 H 783.424 4.40162 -6.77704 0
M  V30 8489 H 787.01 3.66743 -4.51653 0
M  V30 8490 H 785.89 4.1324 -6.66485 0
M  V30 8491 N 783.393 0.737304 1.3929 0
M  V30 8492 C 784.64 0.286257 2.00467 0
M  V30 8493 C 784.968 -1.1272 1.58507 0
M  V30 8494 O 784.223 -1.7832 0.806257 0
M  V30 8495 C 784.522 0.338438 3.55794 0
M  V30 8496 C 784.188 1.70524 4.17411 0
M  V30 8497 C 782.85 2.07934 4.33955 0
M  V30 8498 C 785.202 2.60256 4.51571 0
M  V30 8499 C 782.53 3.34578 4.81948 0
M  V30 8500 C 784.882 3.86275 5.00974 0
M  V30 8501 C 783.546 4.23774 5.15725 0
M  V30 8502 H 782.816 0.104749 0.733559 0
M  V30 8503 H 785.463 0.944598 1.66582 0
M  V30 8504 H 783.768 -0.403478 3.89717 0
M  V30 8505 H 785.465 -0.0287255 4.0099 0
M  V30 8506 H 782.055 1.40439 4.04938 0
M  V30 8507 H 786.239 2.32624 4.38406 0
M  V30 8508 H 781.495 3.63572 4.91554 0
M  V30 8509 H 785.669 4.5596 5.26378 0
M  V30 8510 H 783.296 5.21972 5.52674 0
M  V30 8511 N 784.871 -1.49948 0.485112 0
M  V30 8512 C 785.834 -2.27351 -0.290546 0
M  V30 8513 C 786.834 -1.32704 -0.908087 0
M  V30 8514 O 788.024 -1.56007 -0.775085 0
M  V30 8515 C 785.156 -3.10135 -1.41524 0
M  V30 8516 H 786.349 -2.97374 0.388454 0
M  V30 8517 H 783.902 -1.54453 0.239586 0
M  V30 8518 H 784.637 -2.44641 -2.12888 0
M  V30 8519 H 784.422 -3.79705 -0.978074 0
M  V30 8520 H 785.912 -3.68638 -1.96204 0
M  V30 8521 N 786.349 -0.21828 -1.56081 0
M  V30 8522 C 787.595 0.414921 -1.9851 0
M  V30 8523 C 787.928 1.59648 -1.10573 0
M  V30 8524 O 787.203 1.93818 -0.162695 0
M  V30 8525 C 787.486 0.852647 -3.4986 0
M  V30 8526 C 787.339 -0.33232 -4.48571 0
M  V30 8527 C 788.658 1.70998 -4.05521 0
M  V30 8528 H 785.777 0.149344 -0.72171 0
M  V30 8529 H 788.419 -0.313858 -1.8739 0
M  V30 8530 H 786.569 1.47362 -3.59467 0
M  V30 8531 H 788.241 -0.970418 -4.50977 0
M  V30 8532 H 786.484 -0.980302 -4.22578 0
M  V30 8533 H 787.155 0.0168407 -5.51997 0
M  V30 8534 H 789.631 1.18606 -3.98838 0
M  V30 8535 H 788.507 1.98517 -5.11744 0
M  V30 8536 H 788.768 2.67219 -3.52202 0
M  V30 8537 N 787.827 1.57504 0.0551401 0
M  V30 8538 C 788.79 2.03826 1.04821 0
M  V30 8539 C 789.79 0.937968 1.30609 0
M  V30 8540 O 790.98 1.20237 1.2605 0
M  V30 8541 C 788.112 2.43309 2.38775 0
M  V30 8542 H 789.305 2.92802 0.6486 0
M  V30 8543 H 786.858 1.53368 0.301315 0
M  V30 8544 H 787.593 1.5741 2.83536 0
M  V30 8545 H 787.378 3.23615 2.21395 0
M  V30 8546 H 788.868 2.79666 3.10124 0
M  V30 8547 N 789.305 -0.326896 1.54172 0
M  V30 8548 C 790.268 -1.38515 1.8261 0
M  V30 8549 C 791.268 -1.44872 0.697771 0
M  V30 8550 O 792.458 -1.44957 0.966078 0
M  V30 8551 C 789.59 -2.77281 1.98313 0
M  V30 8552 H 790.783 -1.14556 2.77159 0
M  V30 8553 H 788.336 -0.562199 1.45839 0
M  V30 8554 H 789.071 -3.065 1.05964 0
M  V30 8555 H 788.856 -2.74061 2.80416 0
M  V30 8556 H 790.346 -3.53845 2.21773 0
M  V30 8557 N 790.784 -1.46188 -0.588786 0
M  V30 8558 C 792.033 -1.50452 -1.34339 0
M  V30 8559 C 792.346 -0.158096 -1.9496 0
M  V30 8560 O 793.552 -0.0784918 -2.71387 0
M  V30 8561 C 792.008 -2.65074 -2.43441 0
M  V30 8562 C 791.616 -4.06111 -1.8915 0
M  V30 8563 C 793.36 -2.78603 -3.20282 0
M  V30 8564 C 791.267 -5.12084 -2.95845 0
M  V30 8565 H 790.197 -0.559905 -0.504997 0
M  V30 8566 H 792.848 -1.72382 -0.629014 0
M  V30 8567 H 791.23 -2.36462 -3.1765 0
M  V30 8568 H 792.404 -4.44487 -1.21524 0
M  V30 8569 H 790.719 -3.97197 -1.24995 0
M  V30 8570 H 793.316 -3.54944 -3.99898 0
M  V30 8571 H 793.659 -1.85902 -3.72486 0
M  V30 8572 H 794.192 -3.06832 -2.53178 0
M  V30 8573 H 790.931 -6.06556 -2.48535 0
M  V30 8574 H 790.451 -4.78259 -3.61979 0
M  V30 8575 H 792.13 -5.37661 -3.59902 0
M  V30 8576 N 792.262 0.832906 -1.33792 0
M  V30 8577 C 793.192 1.95828 -1.27176 0
M  V30 8578 C 794.173 1.69427 -0.15114 0
M  V30 8579 O 795.358 1.91167 -0.341886 0
M  V30 8580 C 792.488 3.32098 -1.01629 0
M  V30 8581 C 791.442 3.72912 -2.10049 0
M  V30 8582 C 790.768 5.07054 -1.69706 0
M  V30 8583 C 792.068 3.86064 -3.51783 0
M  V30 8584 H 793.762 2.01622 -2.21334 0
M  V30 8585 H 791.308 0.96866 -1.0655 0
M  V30 8586 H 793.261 4.10402 -0.956474 0
M  V30 8587 H 791.985 3.26577 -0.0390956 0
M  V30 8588 H 790.644 2.96876 -2.15082 0
M  V30 8589 H 790.292 4.9801 -0.706737 0
M  V30 8590 H 789.992 5.35333 -2.42264 0
M  V30 8591 H 791.516 5.87827 -1.65202 0
M  V30 8592 H 792.93 4.54665 -3.49218 0
M  V30 8593 H 791.327 4.25787 -4.22878 0
M  V30 8594 H 792.397 2.88344 -3.89854 0
M  V30 8595 N 793.74 1.17359 1.05189 0
M  V30 8596 C 794.986 0.963413 1.78455 0
M  V30 8597 C 795.319 -0.506703 1.87473 0
M  V30 8598 O 794.594 -1.37611 1.37453 0
M  V30 8599 C 794.877 1.60519 3.22344 0
M  V30 8600 C 794.73 3.14741 3.21338 0
M  V30 8601 C 796.049 1.3091 4.20179 0
M  V30 8602 H 793.168 0.351412 0.647826 0
M  V30 8603 H 795.81 1.44858 1.22948 0
M  V30 8604 H 793.96 1.19265 3.69741 0
M  V30 8605 H 795.632 3.65053 2.82017 0
M  V30 8606 H 793.875 3.4749 2.59679 0
M  V30 8607 H 794.546 3.54775 4.22894 0
M  V30 8608 H 797.022 1.66635 3.81277 0
M  V30 8609 H 795.898 1.784 5.191 0
M  V30 8610 H 796.159 0.229908 4.41502 0
M  V30 8611 N 795.218 -1.23913 0.973828 0
M  V30 8612 C 796.464 -1.92436 0.640026 0
M  V30 8613 C 796.797 -1.75875 -0.823512 0
M  V30 8614 O 796.072 -1.11563 -1.59323 0
M  V30 8615 C 796.355 -3.4526 1.0231 0
M  V30 8616 C 796.208 -3.70961 2.54378 0
M  V30 8617 C 797.527 -4.36495 0.562155 0
M  V30 8618 H 794.646 -0.698868 0.233992 0
M  V30 8619 H 797.288 -1.46163 1.21393 0
M  V30 8620 H 795.438 -3.84802 0.534751 0
M  V30 8621 H 797.11 -3.40941 3.10737 0
M  V30 8622 H 795.353 -3.15899 2.97305 0
M  V30 8623 H 796.024 -4.77912 2.76232 0
M  V30 8624 H 798.5 -4.04363 0.981333 0
M  V30 8625 H 797.376 -5.42142 0.858689 0
M  V30 8626 H 797.637 -4.38818 -0.537659 0
M  V30 8627 N 796.696 -0.74468 -1.38897 0
M  V30 8628 C 797.626 -0.126355 -2.33158 0
M  V30 8629 C 798.607 0.713517 -1.54412 0
M  V30 8630 O 799.792 0.656523 -1.82766 0
M  V30 8631 C 796.922 0.774375 -3.38557 0
M  V30 8632 C 795.876 0.0379214 -4.27983 0
M  V30 8633 C 795.202 1.05631 -5.24162 0
M  V30 8634 C 796.502 -1.12523 -5.10035 0
M  V30 8635 H 798.196 -0.913744 -2.85116 0
M  V30 8636 H 795.742 -0.440847 -1.37086 0
M  V30 8637 H 797.695 1.21655 -4.03458 0
M  V30 8638 H 796.419 1.59399 -2.85061 0
M  V30 8639 H 795.078 -0.384733 -3.64576 0
M  V30 8640 H 794.726 1.86975 -4.66958 0
M  V30 8641 H 794.426 0.568261 -5.84846 0
M  V30 8642 H 795.95 1.49799 -5.9194 0
M  V30 8643 H 797.364 -0.761037 -5.68226 0
M  V30 8644 H 795.761 -1.54355 -5.79909 0
M  V30 8645 H 796.831 -1.94237 -4.44297 0
M  V30 8646 N 798.174 1.49689 -0.493057 0
M  V30 8647 C 799.137 2.27502 0.278485 0
M  V30 8648 C 800.137 1.33184 0.901037 0
M  V30 8649 O 801.327 1.56415 0.766801 0
M  V30 8650 C 798.459 3.10881 1.39878 0
M  V30 8651 H 799.652 2.97163 -0.404219 0
M  V30 8652 H 797.205 1.54324 -0.247774 0
M  V30 8653 H 797.94 2.45767 2.11587 0
M  V30 8654 H 797.725 3.80219 0.957924 0
M  V30 8655 H 799.215 3.69673 1.94247 0
M  V30 8656 N 799.652 0.226554 1.55963 0
M  V30 8657 C 800.882 -0.407915 2.02533 0
M  V30 8658 C 801.29 -1.53539 1.10554 0
M  V30 8659 O 800.633 -1.8338 0.108409 0
M  V30 8660 C 800.695 -0.996081 3.45425 0
M  V30 8661 C 800.359 -0.00341651 4.57 0
M  V30 8662 C 801.356 0.798782 5.13727 0
M  V30 8663 C 799.041 0.116786 5.02164 0
M  V30 8664 C 801.035 1.70784 6.14094 0
M  V30 8665 C 798.722 1.02937 6.02368 0
M  V30 8666 C 799.72 1.82344 6.5821 0
M  V30 8667 O 799.408 2.72067 7.56462 0
M  V30 8668 H 799.14 -0.103524 0.668026 0
M  V30 8669 H 801.694 0.341937 2.02534 0
M  V30 8670 H 799.924 -1.79512 3.42509 0
M  V30 8671 H 801.613 -1.53848 3.75614 0
M  V30 8672 H 802.379 0.716393 4.7968 0
M  V30 8673 H 798.258 -0.491172 4.58376 0
M  V30 8674 H 801.802 2.32807 6.57607 0
M  V30 8675 H 797.699 1.11276 6.35836 0
M  V30 8676 H 798.467 2.66199 7.74003 0
M  V30 8677 N 801.13 -1.57531 -0.0467866 0
M  V30 8678 C 802.378 -1.88078 -0.739656 0
M  V30 8679 C 802.699 -0.821936 -1.76831 0
M  V30 8680 O 801.969 0.146582 -1.95351 0
M  V30 8681 H 800.549 -0.694075 -0.276169 0
M  V30 8682 H 803.211 -1.94893 -0.0169391 0
M  V30 8683 H 802.307 -2.86396 -1.24031 0
M  V30 8684 N 802.608 0.318715 -1.54344 0
M  V30 8685 C 804.019 0.89285 -1.63967 0
M  V30 8686 C 804.37 1.88712 -0.536855 0
M  V30 8687 O 803.495 2.13877 0.329457 0
M  V30 8688 C 804.09 1.62618 -2.97222 0
M  V30 8689 C 802.649 2.14897 -3.09025 0
M  V30 8690 C 801.796 0.975909 -2.5956 0
M  V30 8691 H 804.747 0.0961687 -1.58408 0
M  V30 8692 H 804.768 2.4907 -2.87653 0
M  V30 8693 H 804.28 0.902286 -3.77466 0
M  V30 8694 H 802.381 2.90387 -2.33465 0
M  V30 8695 H 802.494 2.39565 -4.14904 0
M  V30 8696 H 800.858 1.35646 -2.15574 0
M  V30 8697 H 801.641 0.266253 -3.42266 0
M  V30 8698 N 804.086 1.46499 0.581025 0
M  V30 8699 C 805.314 1.5547 1.36517 0
M  V30 8700 C 805.729 0.196407 1.87776 0
M  V30 8701 O 805.086 -0.806577 1.63709 0
M  V30 8702 C 805.137 2.56084 2.55154 0
M  V30 8703 O 804.858 3.86637 2.06018 0
M  V30 8704 C 806.359 2.75011 3.47683 0
M  V30 8705 H 803.579 0.525703 0.416986 0
M  V30 8706 H 806.123 1.9192 0.706177 0
M  V30 8707 H 804.278 2.22633 3.17039 0
M  V30 8708 H 804.692 4.41413 2.83292 0
M  V30 8709 H 806.166 3.49329 4.27403 0
M  V30 8710 H 806.643 1.81978 3.99726 0
M  V30 8711 H 807.249 3.09565 2.91632 0
M  V30 8712 N 805.565 -0.825799 1.34232 0
M  V30 8713 C 806.495 -1.95151 1.28212 0
M  V30 8714 C 807.476 -1.69345 0.160123 0
M  V30 8715 O 808.661 -1.90983 0.352019 0
M  V30 8716 C 805.791 -3.31554 1.03388 0
M  V30 8717 C 804.745 -3.71793 2.12023 0
M  V30 8718 C 804.071 -5.06147 1.72392 0
M  V30 8719 C 805.371 -3.84193 3.53826 0
M  V30 8720 H 807.065 -2.00445 2.22401 0
M  V30 8721 H 804.611 -0.962996 1.07063 0
M  V30 8722 H 806.564 -4.09889 0.978225 0
M  V30 8723 H 805.288 -3.26551 0.0564142 0
M  V30 8724 H 803.947 -2.95731 2.16654 0
M  V30 8725 H 803.595 -4.97628 0.733137 0
M  V30 8726 H 803.295 -5.34041 2.451 0
M  V30 8727 H 804.819 -5.86943 1.68317 0
M  V30 8728 H 806.233 -4.52806 3.51624 0
M  V30 8729 H 804.63 -4.23538 4.2513 0
M  V30 8730 H 805.7 -2.86272 3.91377 0
M  V30 8731 N 807.043 -1.17915 -1.04565 0
M  V30 8732 C 808.289 -0.972863 -1.77942 0
M  V30 8733 C 808.622 0.496753 -1.87739 0
M  V30 8734 O 807.897 1.3688 -1.38181 0
M  V30 8735 C 808.18 -1.62227 -3.21488 0
M  V30 8736 C 808.033 -3.16441 -3.19664 0
M  V30 8737 C 809.352 -1.33137 -4.19479 0
M  V30 8738 H 806.471 -0.354843 -0.645953 0
M  V30 8739 H 809.113 -1.45508 -1.22178 0
M  V30 8740 H 807.263 -1.21224 -3.69103 0
M  V30 8741 H 808.935 -3.66544 -2.80077 0
M  V30 8742 H 807.178 -3.48863 -2.57832 0
M  V30 8743 H 807.849 -3.57012 -4.21006 0
M  V30 8744 H 810.325 -1.68654 -3.80388 0
M  V30 8745 H 809.201 -1.81151 -5.18146 0
M  V30 8746 H 809.462 -0.253319 -4.41374 0
M  V30 8747 N 808.521 1.23394 -0.980386 0
M  V30 8748 C 809.453 2.24146 -0.478657 0
M  V30 8749 C 810.466 1.57303 0.419492 0
M  V30 8750 O 811.655 1.77094 0.223631 0
M  V30 8751 C 808.755 3.3732 0.326913 0
M  V30 8752 C 807.928 4.33744 -0.56436 0
M  V30 8753 C 806.987 5.25866 0.187358 0
M  V30 8754 O 806.013 5.67626 -0.423019 0
M  V30 8755 N 807.215 5.61492 1.47335 0
M  V30 8756 H 809.98 2.67826 -1.34496 0
M  V30 8757 H 807.541 1.37566 -0.853653 0
M  V30 8758 H 809.533 3.95926 0.838148 0
M  V30 8759 H 808.103 2.92823 1.09422 0
M  V30 8760 H 807.323 3.73641 -1.25642 0
M  V30 8761 H 808.611 4.95123 -1.17177 0
M  V30 8762 H 808.009 5.29514 1.99077 0
M  V30 8763 H 806.566 6.2257 1.93002 0
M  V30 8764 N 809.999 0.752036 1.385 0
M  V30 8765 C 810.929 0.138718 2.33088 0
M  V30 8766 C 811.91 -0.705318 1.54788 0
M  V30 8767 O 813.095 -0.646821 1.83112 0
M  V30 8768 C 810.225 -0.75641 3.38963 0
M  V30 8769 C 809.179 -0.0152239 4.27997 0
M  V30 8770 C 808.505 -1.0285 5.24715 0
M  V30 8771 C 809.805 1.15226 5.09431 0
M  V30 8772 H 811.499 0.928852 2.84627 0
M  V30 8773 H 809.045 0.448111 1.3685 0
M  V30 8774 H 810.998 -1.19513 4.04097 0
M  V30 8775 H 809.722 -1.57885 2.85902 0
M  V30 8776 H 808.381 0.404061 3.64366 0
M  V30 8777 H 808.029 -1.84496 4.67943 0
M  V30 8778 H 807.729 -0.537238 5.85139 0
M  V30 8779 H 809.253 -1.46657 5.92726 0
M  V30 8780 H 810.667 0.791161 5.67815 0
M  V30 8781 H 809.064 1.57428 5.79082 0
M  V30 8782 H 810.134 1.9659 4.43261 0
M  V30 8783 N 811.477 -1.49425 0.500989 0
M  V30 8784 C 812.724 -2.02453 -0.0435355 0
M  V30 8785 C 813.052 -1.38067 -1.36995 0
M  V30 8786 O 812.307 -0.505557 -1.89057 0
M  V30 8787 C 812.606 -3.56562 -0.24463 0
M  V30 8788 C 812.272 -4.39585 1.00379 0
M  V30 8789 C 810.934 -4.61992 1.346 0
M  V30 8790 C 813.286 -4.87881 1.83361 0
M  V30 8791 C 810.614 -5.2994 2.51755 0
M  V30 8792 C 812.966 -5.57119 2.99669 0
M  V30 8793 C 811.63 -5.77771 3.3427 0
M  V30 8794 H 810.9 -0.740829 -0.0159308 0
M  V30 8795 H 813.547 -1.79725 0.661143 0
M  V30 8796 H 811.852 -3.77969 -1.03183 0
M  V30 8797 H 813.549 -3.95185 -0.6804 0
M  V30 8798 H 810.139 -4.22385 0.727225 0
M  V30 8799 H 814.323 -4.70398 1.58237 0
M  V30 8800 H 809.579 -5.44133 2.788 0
M  V30 8801 H 813.753 -5.93516 3.64296 0
M  V30 8802 H 811.38 -6.30197 4.25154 0
M  V30 8803 N 812.955 -0.234822 -1.55841 0
M  V30 8804 C 814.203 0.392483 -1.98252 0
M  V30 8805 C 814.524 1.59344 -1.12404 0
M  V30 8806 O 813.794 1.94834 -0.204055 0
M  V30 8807 H 812.374 0.147999 -0.732192 0
M  V30 8808 H 815.036 -0.330804 -1.92072 0
M  V30 8809 H 814.132 0.709829 -3.03921 0
M  V30 8810 N 814.433 1.57553 0.0384317 0
M  V30 8811 C 815.383 2.02404 1.0496 0
M  V30 8812 C 816.367 0.911705 1.32577 0
M  V30 8813 O 817.559 1.17561 1.32319 0
M  V30 8814 C 814.688 2.49924 2.35357 0
M  V30 8815 C 813.774 3.6796 2.1087 0
M  V30 8816 N 814.165 4.81009 1.56411 0
M  V30 8817 C 812.463 3.75153 2.41197 0
M  V30 8818 C 813.164 5.62686 1.47512 0
M  V30 8819 N 812.14 5.0752 1.94742 0
M  V30 8820 H 815.942 2.87234 0.622399 0
M  V30 8821 H 813.456 1.60543 0.244916 0
M  V30 8822 H 815.453 2.80312 3.08595 0
M  V30 8823 H 814.113 1.66496 2.78763 0
M  V30 8824 H 815.124 5.02636 1.2481 0
M  V30 8825 H 811.801 3.02507 2.87742 0
M  V30 8826 H 813.191 6.6349 1.05976 0
M  V30 8827 N 815.911 -0.310526 1.54511 0
M  V30 8828 C 816.841 -1.38757 1.878 0
M  V30 8829 C 817.822 -1.53353 0.735991 0
M  V30 8830 O 819.007 -1.67018 0.990887 0
M  V30 8831 C 816.137 -2.75327 2.11689 0
M  V30 8832 C 815.091 -2.75506 3.27537 0
M  V30 8833 C 814.417 -4.15275 3.36824 0
M  V30 8834 C 815.717 -2.38093 4.64875 0
M  V30 8835 H 817.411 -1.11146 2.78005 0
M  V30 8836 H 814.957 -0.533232 1.33763 0
M  V30 8837 H 816.91 -3.50752 2.33562 0
M  V30 8838 H 815.634 -3.04443 1.18245 0
M  V30 8839 H 814.293 -2.02538 3.05572 0
M  V30 8840 H 813.941 -4.41553 2.40915 0
M  V30 8841 H 813.641 -4.16299 4.14692 0
M  V30 8842 H 815.165 -4.92493 3.60947 0
M  V30 8843 H 816.579 -3.03232 4.86542 0
M  V30 8844 H 814.976 -2.50345 5.45387 0
M  V30 8845 H 816.046 -1.33227 4.66239 0
M  V30 8846 N 817.389 -1.46805 -0.573248 0
M  V30 8847 C 818.337 -1.58468 -1.70267 0
M  V30 8848 C 819.331 -0.452694 -1.63239 0
M  V30 8849 O 820.537 -0.629915 -1.68618 0
M  V30 8850 H 816.912 -0.498408 -0.56311 0
M  V30 8851 H 818.883 -2.5341 -1.57563 0
M  V30 8852 C 817.632 -1.60104 -3.08645 0
M  V30 8853 H 816.955 -2.4655 -3.14727 0
M  V30 8854 H 818.395 -1.72318 -3.87405 0
M  V30 8855 C 816.854 -0.33138 -3.35266 0
M  V30 8856 O 817.384 0.57438 -3.97572 0
M  V30 8857 N 815.59 -0.216358 -2.89793 0
M  V30 8858 H 815.137 -0.954345 -2.3927 0
M  V30 8859 H 815.095 0.632253 -3.07977 0
M  V30 8860 N 818.867 0.818669 -1.34668 0
M  V30 8861 C 820.278 1.39177 -1.24446 0
M  V30 8862 C 820.629 1.9578 0.128268 0
M  V30 8863 O 819.754 1.90382 1.02877 0
M  V30 8864 C 820.349 2.53012 -2.25323 0
M  V30 8865 C 818.908 3.06218 -2.18878 0
M  V30 8866 C 818.055 1.79112 -2.11694 0
M  V30 8867 H 821.006 0.622709 -1.45973 0
M  V30 8868 H 821.027 3.31226 -1.8727 0
M  V30 8869 H 820.539 2.11784 -3.25221 0
M  V30 8870 H 818.64 3.51939 -1.22351 0
M  V30 8871 H 818.753 3.65019 -3.10319 0
M  V30 8872 H 817.117 2.0018 -1.57481 0
M  V30 8873 H 817.9 1.40053 -3.13433 0
M  V30 8874 N 820.346 1.18468 1.03938 0
M  V30 8875 C 821.592 0.982286 1.77423 0
M  V30 8876 C 821.925 -0.48679 1.88 0
M  V30 8877 O 821.2 -1.36146 1.38905 0
M  V30 8878 C 821.483 1.63929 3.20623 0
M  V30 8879 C 821.336 3.18132 3.17982 0
M  V30 8880 C 822.655 1.3536 4.18767 0
M  V30 8881 H 819.774 0.358264 0.644062 0
M  V30 8882 H 822.416 1.46154 1.21405 0
M  V30 8883 H 820.566 1.2318 3.68455 0
M  V30 8884 H 822.238 3.68024 2.78129 0
M  V30 8885 H 820.481 3.50225 2.55978 0
M  V30 8886 H 821.152 3.5924 4.19107 0
M  V30 8887 H 823.628 1.70669 3.79488 0
M  V30 8888 H 822.504 1.83896 5.17178 0
M  V30 8889 H 822.765 0.276722 4.41233 0
M  V30 8890 N 821.824 -1.22873 0.986916 0
M  V30 8891 C 823.235 -1.73264 0.695438 0
M  V30 8892 C 823.586 -1.79679 -0.788023 0
M  V30 8893 O 822.711 -1.43905 -1.61618 0
M  V30 8894 C 823.306 -3.14671 1.2557 0
M  V30 8895 C 821.865 -3.62492 1.01373 0
M  V30 8896 C 821.012 -2.40551 1.37951 0
M  V30 8897 H 823.963 -1.08304 1.15999 0
M  V30 8898 H 823.984 -3.75226 0.631322 0
M  V30 8899 H 823.496 -3.0997 2.33539 0
M  V30 8900 H 821.597 -3.72567 -0.0495917 0
M  V30 8901 H 821.71 -4.48944 1.67289 0
M  V30 8902 H 820.074 -2.41875 0.798033 0
M  V30 8903 H 820.857 -2.38516 2.46911 0
M  V30 8904 N 823.302 -0.75937 -1.38099 0
M  V30 8905 C 824.55 -0.317485 -1.99591 0
M  V30 8906 C 824.871 1.10628 -1.60581 0
M  V30 8907 O 824.141 1.7575 -0.865378 0
M  V30 8908 H 822.721 -0.114397 -0.738189 0
M  V30 8909 H 825.383 -0.974749 -1.68774 0
M  V30 8910 H 824.479 -0.385227 -3.09713 0
M  V30 8911 N 824.78 1.49157 -0.508906 0
M  V30 8912 C 826.026 2.03385 0.0248089 0
M  V30 8913 C 826.381 1.381 1.33964 0
M  V30 8914 O 825.674 0.510317 1.84679 0
M  V30 8915 C 825.868 3.56687 0.225717 0
M  V30 8916 C 825.697 4.36832 -1.06809 0
M  V30 8917 C 824.467 4.78556 -1.6221 0
M  V30 8918 C 826.665 4.74934 -1.97338 0
M  V30 8919 N 824.647 5.43158 -2.86098 0
M  V30 8920 C 826.018 5.39336 -3.05805 0
M  V30 8921 C 828.073 4.56872 -1.97921 0
M  V30 8922 C 826.776 5.87587 -4.1489 0
M  V30 8923 C 828.802 5.06089 -3.05987 0
M  V30 8924 C 828.164 5.70499 -4.13172 0
M  V30 8925 H 824.263 0.781349 -0.0318988 0
M  V30 8926 H 826.847 1.82233 -0.685518 0
M  V30 8927 H 825.018 3.77707 0.905108 0
M  V30 8928 H 826.75 3.97554 0.757147 0
M  V30 8929 H 823.505 4.59017 -1.16621 0
M  V30 8930 H 823.929 5.8004 -3.49116 0
M  V30 8931 H 828.571 4.06474 -1.16357 0
M  V30 8932 H 826.289 6.37002 -4.97247 0
M  V30 8933 H 829.875 4.93919 -3.07466 0
M  V30 8934 H 828.755 6.07893 -4.95415 0
M  V30 8935 N 826.258 0.243083 1.55714 0
M  V30 8936 C 827.674 -0.111853 1.59208 0
M  V30 8937 C 827.874 -1.5723 1.2602 0
M  V30 8938 O 826.93 -2.31608 1.00569 0
M  V30 8939 C 828.243 0.233885 2.99789 0
M  V30 8940 C 829.791 0.177873 3.12494 0
M  V30 8941 C 830.266 0.49759 4.55289 0
M  V30 8942 N 831.757 0.447949 4.61029 0
M  V30 8943 C 832.492 0.668545 5.69489 0
M  V30 8944 N 831.988 0.952064 6.86227 0
M  V30 8945 N 833.781 0.599512 5.58894 0
M  V30 8946 H 825.932 1.19554 1.75558 0
M  V30 8947 H 828.195 0.480765 0.817049 0
M  V30 8948 H 827.901 1.24835 3.28799 0
M  V30 8949 H 827.775 -0.440846 3.74615 0
M  V30 8950 H 830.162 -0.827263 2.83267 0
M  V30 8951 H 830.243 0.886399 2.39951 0
M  V30 8952 H 829.887 1.50026 4.85237 0
M  V30 8953 H 829.817 -0.232371 5.26087 0
M  V30 8954 H 832.308 0.237388 3.77154 0
M  V30 8955 H 832.621 1.10791 7.64817 0
M  V30 8956 H 830.966 0.989496 6.8792 0
M  V30 8957 H 834.157 0.378088 4.66571 0
M  V30 8958 H 834.33 0.774828 6.43351 0
M  V30 8959 N 827.736 -1.57571 -0.0300757 0
M  V30 8960 C 828.666 -2.0953 -1.03051 0
M  V30 8961 C 829.647 -0.99761 -1.37774 0
M  V30 8962 O 830.832 -1.27279 -1.46676 0
M  V30 8963 C 827.962 -2.57385 -2.33174 0
M  V30 8964 C 826.916 -3.71409 -2.12696 0
M  V30 8965 C 826.242 -4.05467 -3.4857 0
M  V30 8966 C 827.542 -4.99877 -1.51396 0
M  V30 8967 H 829.236 -2.93367 -0.597999 0
M  V30 8968 H 826.782 -1.41127 -0.286203 0
M  V30 8969 H 828.735 -2.92355 -3.03491 0
M  V30 8970 H 827.459 -1.70629 -2.78484 0
M  V30 8971 H 826.118 -3.36786 -1.44813 0
M  V30 8972 H 825.766 -3.15779 -3.91526 0
M  V30 8973 H 825.466 -4.82269 -3.35694 0
M  V30 8974 H 826.99 -4.4297 -4.2025 0
M  V30 8975 H 828.404 -5.3281 -2.11629 0
M  V30 8976 H 826.801 -5.81283 -1.49098 0
M  V30 8977 H 827.871 -4.82522 -0.479676 0
M  V30 8978 N 829.214 0.302327 -1.54673 0
M  V30 8979 C 830.46 1.03532 -1.75079 0
M  V30 8980 C 830.815 1.84972 -0.52943 0
M  V30 8981 O 830.108 1.85537 0.478169 0
M  V30 8982 C 830.302 1.97365 -2.97963 0
M  V30 8983 C 830.131 1.25154 -4.31934 0
M  V30 8984 C 828.901 0.979243 -4.95721 0
M  V30 8985 C 831.099 0.656653 -5.10091 0
M  V30 8986 N 829.081 0.227265 -6.13479 0
M  V30 8987 C 830.452 0.0373759 -6.19989 0
M  V30 8988 C 832.507 0.561571 -4.94723 0
M  V30 8989 C 831.21 -0.667782 -7.16194 0
M  V30 8990 C 833.236 -0.12993 -5.91257 0
M  V30 8991 C 832.598 -0.738063 -7.00523 0
M  V30 8992 H 828.697 0.361824 -0.693258 0
M  V30 8993 H 831.281 0.314091 -1.9215 0
M  V30 8994 H 829.452 2.66739 -2.8232 0
M  V30 8995 H 831.184 2.63806 -3.06902 0
M  V30 8996 H 827.939 1.27706 -4.56057 0
M  V30 8997 H 828.363 -0.135199 -6.76865 0
M  V30 8998 H 833.005 1.01744 -4.10375 0
M  V30 8999 H 830.723 -1.13542 -8.00084 0
M  V30 9000 H 834.309 -0.203423 -5.81444 0
M  V30 9001 H 833.189 -1.26463 -7.73936 0
M  V30 9002 O 830.731 1.55155 0.448226 0
M  V30 9003 H 831.422 1.59293 1.10206 0
M  V30 END ATOM
M  V30 BEGIN BOND
M  V30 END BOND
M  V30 END CTAB
M  END
$$$$
