drugbank_target|Q5SJ80 Cytochrome c oxidase subunit 2 (DB02451)
 OpenBabel12092120433D

  0  0  0     0  0            999 V3000
M  V30 BEGIN CTAB
M  V30 COUNTS 2616 2653 0 0 0
M  V30 BEGIN ATOM
M  V30 1 H -0.908 1.98254 -0.117106 0
M  V30 2 N 0 1.576 0 0
M  V30 3 C 0.933 2.03868 1.02534 0
M  V30 4 C 1.911 0.928543 1.3348 0
M  V30 5 O 3.095 1.19667 1.45644 0
M  V30 6 C 0.222 2.43627 2.35294 0
M  V30 7 C -0.732 3.65373 2.2001 0
M  V30 8 S 0.101 5.13292 1.52614 0
M  V30 9 C 1.257 5.56322 2.86805 0
M  V30 10 H 1.49 2.90518 0.631377 0
M  V30 11 H -0.977 1.52953 0.210867 0
M  V30 12 H 0.981 2.67203 3.11629 0
M  V30 13 H -0.358 1.57376 2.7183 0
M  V30 14 H -1.165 3.90944 3.18086 0
M  V30 15 H -1.563 3.418 1.51819 0
M  V30 16 H 0.729 5.58782 3.83104 0
M  V30 17 H 1.672 6.56266 2.65933 0
M  V30 18 H 2.08 4.83886 2.90714 0
M  V30 19 N 1.4781 -0.272755 1.55222 0
M  V30 20 C 2.7241 -1.00581 1.761 0
M  V30 21 C 3.0571 -1.85932 0.560625 0
M  V30 22 O 2.3321 -1.89416 -0.441801 0
M  V30 23 C 2.6151 -1.88816 3.06628 0
M  V30 24 C 2.4681 -1.06457 4.37021 0
M  V30 25 C 3.7871 -2.8752 3.33197 0
M  V30 26 H 0.9061 -0.364244 0.640699 0
M  V30 27 H 3.5481 -0.278189 1.87952 0
M  V30 28 H 1.6981 -2.50856 2.96654 0
M  V30 29 H 3.3701 -0.464863 4.58952 0
M  V30 30 H 1.6131 -0.368043 4.32236 0
M  V30 31 H 2.2841 -1.71514 5.24678 0
M  V30 32 H 4.7601 -2.35615 3.42965 0
M  V30 33 H 3.6361 -3.46399 4.25792 0
M  V30 34 H 3.8971 -3.62657 2.52849 0
M  V30 35 N 2.9562 -1.48159 -0.537278 0
M  V30 36 C 4.2332 -1.46291 -1.29839 0
M  V30 37 C 4.6132 -0.170613 -2.10409 0
M  V30 38 O 3.9612 0.847746 -2.12192 0
M  V30 39 C 4.1712 -2.72055 -2.18603 0
M  V30 40 C 5.5192 -3.20087 -2.7898 0
M  V30 41 O 6.5432 -2.72921 -2.28894 0
M  V30 42 O 5.4022 -4.02138 -3.70064 0
M  V30 43 H 2.4962 -0.583906 -0.585647 0
M  V30 44 H 5.0422 -1.60384 -0.554534 0
M  V30 45 H 3.8142 -3.57628 -1.58801 0
M  V30 46 H 3.4372 -2.60646 -3.00249 0
M  V30 47 N 4.4343 0.785586 -1.36625 0
M  V30 48 C 5.3443 1.92964 -1.33425 0
M  V30 49 C 6.3603 1.72394 -0.235851 0
M  V30 50 O 7.5363 1.95866 -0.468878 0
M  V30 51 C 4.6013 3.27884 -1.12662 0
M  V30 52 C 3.6623 3.61204 -2.32013 0
M  V30 53 C 2.8953 4.89687 -2.12231 0
M  V30 54 O 3.1183 5.59704 -1.09945 0
M  V30 55 O 2.0523 5.21752 -3.00098 0
M  V30 56 H 5.8783 1.98613 -2.29753 0
M  V30 57 H 3.4633 0.926384 -1.17211 0
M  V30 58 H 5.3453 4.08614 -1.03016 0
M  V30 59 H 4.0203 3.23118 -0.193991 0
M  V30 60 H 2.9273 2.80765 -2.47228 0
M  V30 61 H 4.2603 3.70698 -3.23796 0
M  V30 62 N 5.9124 1.20967 1.01018 0
M  V30 63 C 6.8624 0.93182 2.08089 0
M  V30 64 C 7.8464 -0.110898 1.60517 0
M  V30 65 O 9.0384 0.0973392 1.76732 0
M  V30 66 C 6.1674 0.492719 3.39746 0
M  V30 67 C 5.2534 1.56922 3.94 0
M  V30 68 N 5.6444 2.79312 4.21686 0
M  V30 69 C 3.9424 1.43688 4.2222 0
M  V30 70 C 4.6434 3.48797 4.65527 0
M  V30 71 N 3.6194 2.76224 4.68189 0
M  V30 72 H 7.4214 1.86175 2.27412 0
M  V30 73 H 4.9354 1.10463 1.19045 0
M  V30 74 H 6.9324 0.275044 4.15992 0
M  V30 75 H 5.5924 -0.430509 3.21833 0
M  V30 76 H 6.6034 3.15903 4.10397 0
M  V30 77 H 3.2804 0.578548 4.13472 0
M  V30 78 H 4.6704 4.53561 4.95714 0
M  V30 79 N 7.3905 -1.2043 1.01659 0
M  V30 80 C 8.3375 -2.23215 0.586822 0
M  V30 81 C 9.3075 -1.61382 -0.393085 0
M  V30 82 O 10.4925 -1.88544 -0.292525 0
M  V30 83 C 7.6325 -3.45032 -0.0687464 0
M  V30 84 C 6.7455 -4.21296 0.955724 0
M  V30 85 C 5.8805 -5.30507 0.271208 0
M  V30 86 C 4.9195 -5.98515 1.28244 0
M  V30 87 N 4.0565 -6.99316 0.62459 0
M  V30 88 H 8.8965 -2.59336 1.46796 0
M  V30 89 H 6.4335 -1.27431 0.734836 0
M  V30 90 H 8.3915 -4.1459 -0.465965 0
M  V30 91 H 7.0215 -3.09604 -0.913529 0
M  V30 92 H 6.0735 -3.50803 1.4711 0
M  V30 93 H 7.3855 -4.6803 1.72479 0
M  V30 94 H 6.5395 -6.06428 -0.18151 0
M  V30 95 H 5.2785 -4.8481 -0.530163 0
M  V30 96 H 4.2835 -5.21355 1.74554 0
M  V30 97 H 5.5085 -6.46298 2.08509 0
M  V30 98 H 3.4545 -6.55812 -0.156914 0
M  V30 99 H 3.3715 -7.44178 1.33172 0
M  V30 100 H 4.6395 -7.79255 0.195462 0
M  V30 101 N 8.8686 -0.792821 -1.36206 0
M  V30 102 C 9.8316 -0.199459 -2.2833 0
M  V30 103 C 10.8316 0.605189 -1.48977 0
M  V30 104 O 12.0216 0.425685 -1.68919 0
M  V30 105 C 9.1536 0.723523 -3.33134 0
M  V30 106 H 10.3466 -1.01181 -2.82316 0
M  V30 107 H 7.8996 -0.562485 -1.45828 0
M  V30 108 H 8.6346 1.56008 -2.84309 0
M  V30 109 H 8.4196 0.148436 -3.91819 0
M  V30 110 H 9.9096 1.13344 -4.01924 0
M  V30 111 N 10.3467 1.47872 -0.545128 0
M  V30 112 C 11.2967 2.26842 0.229456 0
M  V30 113 C 12.2807 1.33626 0.896267 0
M  V30 114 O 13.4727 1.58063 0.79657 0
M  V30 115 C 10.6017 3.19089 1.26638 0
M  V30 116 C 9.6877 4.19783 0.603598 0
M  V30 117 N 10.0787 5.0479 -0.319405 0
M  V30 118 C 8.3767 4.3765 0.858989 0
M  V30 119 C 9.0777 5.77433 -0.703241 0
M  V30 120 N 8.0537 5.43566 -0.0608309 0
M  V30 121 H 11.8557 2.89947 -0.480391 0
M  V30 122 H 9.3697 1.58263 -0.364209 0
M  V30 123 H 11.3667 3.74337 1.83515 0
M  V30 124 H 10.0267 2.5754 1.97745 0
M  V30 125 H 11.0377 5.13244 -0.692889 0
M  V30 126 H 7.7147 3.87281 1.55948 0
M  V30 127 H 9.1047 6.55824 -1.46098 0
M  V30 128 N 11.8248 0.280983 1.55075 0
M  V30 129 C 12.7718 -0.603937 2.22758 0
M  V30 130 C 13.7418 -1.1452 1.20309 0
M  V30 131 O 14.9268 -1.19343 1.48869 0
M  V30 132 C 12.0668 -1.77947 2.95684 0
M  V30 133 C 11.1798 -1.2715 4.12864 0
M  V30 134 C 10.3148 -2.4093 4.7342 0
M  V30 135 C 9.3538 -1.87165 5.82783 0
M  V30 136 N 8.4908 -2.94441 6.37377 0
M  V30 137 H 13.3308 -0.020124 2.97993 0
M  V30 138 H 10.8678 0.00183425 1.471 0
M  V30 139 H 12.8258 -2.47055 3.36184 0
M  V30 140 H 11.4558 -2.33522 2.22861 0
M  V30 141 H 10.5078 -0.473331 3.77444 0
M  V30 142 H 11.8198 -0.837751 4.91715 0
M  V30 143 H 10.9738 -3.18021 5.1667 0
M  V30 144 H 9.7128 -2.87623 3.93859 0
M  V30 145 H 8.7178 -1.08556 5.38976 0
M  V30 146 H 9.9428 -1.41401 6.64216 0
M  V30 147 H 7.8888 -3.40505 5.60707 0
M  V30 148 H 7.8058 -2.55501 7.11516 0
M  V30 149 H 9.0738 -3.71489 6.85285 0
M  V30 150 N 13.3029 -1.57598 0.00835791 0
M  V30 151 C 14.2659 -2.07884 -0.965242 0
M  V30 152 C 15.2659 -0.989825 -1.26725 0
M  V30 153 O 16.4559 -1.25218 -1.21104 0
M  V30 154 C 13.5879 -2.52731 -2.28779 0
M  V30 155 H 14.7809 -2.95178 -0.530112 0
M  V30 156 H 12.3339 -1.54458 -0.239283 0
M  V30 157 H 13.0689 -1.68705 -2.76964 0
M  V30 158 H 12.8539 -3.32272 -2.08177 0
M  V30 159 H 14.3439 -2.91933 -2.98605 0
M  V30 160 N 14.781 0.264519 -1.55364 0
M  V30 161 C 16.03 0.992812 -1.75574 0
M  V30 162 C 16.343 1.87142 -0.568979 0
M  V30 163 O 17.549 2.63513 -0.653682 0
M  V30 164 C 16.005 1.81519 -3.10771 0
M  V30 165 C 15.613 0.984839 -4.37041 0
M  V30 166 C 17.357 2.53727 -3.40327 0
M  V30 167 C 15.264 1.80209 -5.63275 0
M  V30 168 H 14.194 0.374412 -0.65447 0
M  V30 169 H 16.845 0.248138 -1.81815 0
M  V30 170 H 15.227 2.60115 -2.98591 0
M  V30 171 H 16.401 0.242455 -4.60162 0
M  V30 172 H 14.716 0.37691 -4.14691 0
M  V30 173 H 17.313 3.15292 -4.3185 0
M  V30 174 H 17.656 3.24447 -2.60845 0
M  V30 175 H 18.189 1.82156 -3.53644 0
M  V30 176 H 14.928 1.13896 -6.45529 0
M  V30 177 H 14.448 2.52022 -5.44284 0
M  V30 178 H 16.127 2.37364 -6.01887 0
M  V30 179 N 16.2591 1.48442 0.529413 0
M  V30 180 C 17.1891 1.65902 1.64313 0
M  V30 181 C 18.1701 0.507897 1.6234 0
M  V30 182 O 19.3551 0.740503 1.79528 0
M  V30 183 C 16.4851 1.69911 3.02898 0
M  V30 184 C 15.4391 2.8453 3.19729 0
M  V30 185 C 14.7651 2.73629 4.59381 0
M  V30 186 C 16.0651 4.25821 3.02447 0
M  V30 187 H 17.7591 2.5914 1.49955 0
M  V30 188 H 15.3051 1.24709 0.719982 0
M  V30 189 H 17.2581 1.80715 3.80684 0
M  V30 190 H 15.9821 0.732524 3.18279 0
M  V30 191 H 14.6411 2.73283 2.44361 0
M  V30 192 H 14.2891 1.74938 4.71599 0
M  V30 193 H 13.9891 3.50541 4.71588 0
M  V30 194 H 15.5131 2.86401 5.39265 0
M  V30 195 H 16.9271 4.37898 3.70024 0
M  V30 196 H 15.3241 5.03735 3.26146 0
M  V30 197 H 16.3941 4.42244 1.98867 0
M  V30 198 N 17.7372 -0.778329 1.37039 0
M  V30 199 C 18.7002 -1.87301 1.32102 0
M  V30 200 C 19.7002 -1.59198 0.226405 0
M  V30 201 O 20.8902 -1.67403 0.481861 0
M  V30 202 C 18.0222 -3.24309 1.05055 0
M  V30 203 H 19.2152 -1.93093 2.29467 0
M  V30 204 H 16.7682 -0.977358 1.21973 0
M  V30 205 H 17.5032 -3.24196 0.0819373 0
M  V30 206 H 17.2882 -3.46098 1.84279 0
M  V30 207 H 18.7782 -4.04382 1.04234 0
M  V30 208 N 19.2153 -1.21501 -1.00376 0
M  V30 209 C 20.4453 -1.05746 -1.77486 0
M  V30 210 C 20.8533 0.395655 -1.85017 0
M  V30 211 O 20.1963 1.28626 -1.31152 0
M  V30 212 C 20.2583 -1.58092 -3.22873 0
M  V30 213 C 19.9223 -3.06568 -3.38917 0
M  V30 214 C 20.9193 -4.04106 -3.271 0
M  V30 215 C 18.6043 -3.45799 -3.64319 0
M  V30 216 C 20.5983 -5.38862 -3.40451 0
M  V30 217 C 18.2853 -4.80707 -3.77311 0
M  V30 218 C 19.2833 -5.77047 -3.65384 0
M  V30 219 O 18.9713 -7.09507 -3.77961 0
M  V30 220 H 18.7033 -0.371778 -0.564586 0
M  V30 221 H 21.2573 -1.61319 -1.27143 0
M  V30 222 H 19.4873 -0.969163 -3.74358 0
M  V30 223 H 21.1763 -1.38162 -3.81662 0
M  V30 224 H 21.9423 -3.75141 -3.07399 0
M  V30 225 H 17.8213 -2.71344 -3.72684 0
M  V30 226 H 21.3653 -6.14041 -3.31058 0
M  V30 227 H 17.2623 -5.09357 -3.96517 0
M  V30 228 H 18.0303 -7.16935 -3.94901 0
M  V30 229 N 20.6934 1.19889 -1.02296 0
M  V30 230 C 21.6034 2.26571 -0.608508 0
M  V30 231 C 22.6194 1.70299 0.356964 0
M  V30 232 O 23.7954 2.00235 0.216326 0
M  V30 233 C 20.8604 3.46677 0.0402814 0
M  V30 234 C 19.9214 4.18153 -0.97194 0
M  V30 235 C 19.1544 5.32525 -0.354016 0
M  V30 236 O 19.3774 5.64112 0.844604 0
M  V30 237 O 18.3114 5.92242 -1.07391 0
M  V30 238 H 22.1374 2.64251 -1.49684 0
M  V30 239 H 19.7224 1.26629 -0.792809 0
M  V30 240 H 21.6044 4.19475 0.402324 0
M  V30 241 H 20.2794 3.10858 0.902707 0
M  V30 242 H 19.1864 3.47499 -1.38546 0
M  V30 243 H 20.5194 4.57927 -1.80454 0
M  V30 244 N 22.1715 0.800033 1.35784 0
M  V30 245 C 23.1185 0.203848 2.29898 0
M  V30 246 C 24.0885 -0.658375 1.52495 0
M  V30 247 O 25.2735 -0.604832 1.8096 0
M  V30 248 C 22.4135 -0.64688 3.38983 0
M  V30 249 C 21.5265 0.235054 4.3136 0
M  V30 250 C 20.6615 -0.623054 5.27533 0
M  V30 251 C 19.7005 0.259682 6.11549 0
M  V30 252 N 18.8375 -0.558019 6.99879 0
M  V30 253 H 23.6775 1.01186 2.80295 0
M  V30 254 H 21.2145 0.51053 1.37957 0
M  V30 255 H 23.1725 -1.15521 4.00887 0
M  V30 256 H 21.8025 -1.42021 2.89879 0
M  V30 257 H 20.8545 0.861438 3.70518 0
M  V30 258 H 22.1665 0.914768 4.9034 0
M  V30 259 H 21.3205 -1.19678 5.94779 0
M  V30 260 H 20.0595 -1.33636 4.69034 0
M  V30 261 H 19.0645 0.845726 5.43256 0
M  V30 262 H 20.2895 0.970748 6.72126 0
M  V30 263 H 18.2355 -1.25542 6.43875 0
M  V30 264 H 18.1525 0.0637872 7.55973 0
M  V30 265 H 19.4205 -1.11523 7.71481 0
M  V30 266 N 23.6496 -1.47581 0.552962 0
M  V30 267 C 24.8976 -2.02082 0.0272703 0
M  V30 268 C 25.2186 -1.4301 -1.32563 0
M  V30 269 O 24.4886 -0.603745 -1.86365 0
M  V30 270 H 23.0686 -0.746966 0.00709182 0
M  V30 271 H 25.7306 -1.81033 0.722008 0
M  V30 272 H 24.8266 -3.12034 -0.0639951 0
M  V30 273 N 25.1277 -0.289203 -1.54924 0
M  V30 274 C 26.3737 0.316922 -2.00916 0
M  V30 275 C 26.7287 1.52424 -1.17408 0
M  V30 276 O 26.0217 1.90097 -0.239536 0
M  V30 277 C 26.2157 0.736119 -3.49737 0
M  V30 278 C 26.0447 -0.429036 -4.47649 0
M  V30 279 C 24.8147 -0.917311 -4.96904 0
M  V30 280 C 27.0127 -1.27016 -4.98369 0
M  V30 281 N 24.9947 -2.05046 -5.78644 0
M  V30 282 C 26.3657 -2.25097 -5.77695 0
M  V30 283 C 28.4207 -1.30188 -4.80578 0
M  V30 284 C 27.1237 -3.26114 -6.41126 0
M  V30 285 C 29.1497 -2.30057 -5.44819 0
M  V30 286 C 28.5117 -3.2687 -6.23968 0
M  V30 287 H 24.6107 0.0807535 -0.777819 0
M  V30 288 H 27.1947 -0.416434 -1.90194 0
M  V30 289 H 25.3657 1.43867 -3.60773 0
M  V30 290 H 27.0977 1.32078 -3.82541 0
M  V30 291 H 23.8527 -0.494248 -4.71014 0
M  V30 292 H 24.2767 -2.62108 -6.24202 0
M  V30 293 H 28.9187 -0.567163 -4.18979 0
M  V30 294 H 26.6367 -4.00512 -7.01866 0
M  V30 295 H 30.2227 -2.33271 -5.32988 0
M  V30 296 H 29.1027 -4.02883 -6.72796 0
M  V30 297 N 26.6058 1.57591 -0.0167156 0
M  V30 298 C 27.5358 2.12496 0.967858 0
M  V30 299 C 28.5168 1.03807 1.34752 0
M  V30 300 O 29.7018 1.31577 1.42833 0
M  V30 301 C 26.8318 2.64194 2.25431 0
M  V30 302 C 25.7858 3.77559 2.01576 0
M  V30 303 C 25.1118 4.15636 3.36379 0
M  V30 304 C 26.4118 5.04151 1.36489 0
M  V30 305 H 28.1058 2.95013 0.510643 0
M  V30 306 H 25.6518 1.41915 0.244181 0
M  V30 307 H 27.6048 3.01236 2.94678 0
M  V30 308 H 26.3288 1.78821 2.73296 0
M  V30 309 H 24.9878 3.40937 1.34751 0
M  V30 310 H 24.6358 3.27263 3.81979 0
M  V30 311 H 24.3358 4.92022 3.21229 0
M  V30 312 H 25.8598 4.5525 4.06915 0
M  V30 313 H 27.2738 5.38857 1.95718 0
M  V30 314 H 25.6708 5.85453 1.31776 0
M  V30 315 H 26.7408 4.83733 0.336219 0
M  V30 316 N 28.0839 -0.256276 1.55502 0
M  V30 317 C 29.0469 -1.30047 1.88734 0
M  V30 318 C 30.0469 -1.4154 0.763086 0
M  V30 319 O 31.2369 -1.40403 1.03115 0
M  V30 320 C 28.3689 -2.67953 2.10747 0
M  V30 321 H 29.5619 -1.01802 2.82093 0
M  V30 322 H 27.1149 -0.495134 1.4825 0
M  V30 323 H 27.8499 -3.01351 1.19825 0
M  V30 324 H 27.6349 -2.60993 2.92617 0
M  V30 325 H 29.1249 -3.43368 2.37673 0
M  V30 326 N 29.562 -1.4872 -0.521534 0
M  V30 327 C 30.809 -1.57168 -1.27689 0
M  V30 328 C 31.137 -0.249275 -1.92896 0
M  V30 329 O 30.392 0.761162 -1.80291 0
M  V30 330 C 30.691 -2.66497 -2.38148 0
M  V30 331 C 30.357 -4.08664 -1.90538 0
M  V30 332 C 29.019 -4.47357 -1.77271 0
M  V30 333 C 31.371 -4.97724 -1.54663 0
M  V30 334 C 28.699 -5.72905 -1.26478 0
M  V30 335 C 31.051 -6.2377 -1.05329 0
M  V30 336 C 29.715 -6.61311 -0.906861 0
M  V30 337 H 28.985 -0.575117 -0.467249 0
M  V30 338 H 31.632 -1.82472 -0.581051 0
M  V30 339 H 29.937 -2.35085 -3.13437 0
M  V30 340 H 31.634 -2.70246 -2.96257 0
M  V30 341 H 28.224 -3.78111 -2.01816 0
M  V30 342 H 32.408 -4.68501 -1.63768 0
M  V30 343 H 27.664 -6.00709 -1.13835 0
M  V30 344 H 31.838 -6.9217 -0.76644 0
M  V30 345 H 29.465 -7.5848 -0.511083 0
M  V30 346 N 31.0401 0.771051 -1.3745 0
M  V30 347 C 32.2651 1.56529 -1.36065 0
M  V30 348 C 32.6901 1.88029 0.0515859 0
M  V30 349 O 32.0481 1.49282 1.02882 0
M  V30 350 C 32.0961 2.85187 -2.20683 0
M  V30 351 O 31.2001 3.79593 -1.61193 0
M  V30 352 H 30.5411 0.47411 -0.464883 0
M  V30 353 H 33.0711 0.954269 -1.80983 0
M  V30 354 H 33.0811 3.34283 -2.33921 0
M  V30 355 H 31.7561 2.61588 -3.23334 0
M  V30 356 H 30.3331 3.38239 -1.56999 0
M  V30 357 N 32.5182 1.22032 0.997298 0
M  V30 358 C 33.4482 1.01065 2.10495 0
M  V30 359 C 34.4292 -0.0669542 1.69968 0
M  V30 360 O 35.6142 0.0943987 1.9397 0
M  V30 361 C 32.7442 0.582874 3.42374 0
M  V30 362 C 31.6982 1.60592 3.96729 0
M  V30 363 C 31.0242 1.03412 5.24605 0
M  V30 364 C 32.3242 2.99478 4.27914 0
M  V30 365 H 34.0182 1.93708 2.28292 0
M  V30 366 H 31.5642 0.932761 1.09707 0
M  V30 367 H 33.5172 0.423332 4.19268 0
M  V30 368 H 32.2412 -0.379213 3.24391 0
M  V30 369 H 30.9002 1.75316 3.21963 0
M  V30 370 H 30.5482 0.063518 5.0296 0
M  V30 371 H 30.2482 1.71754 5.61938 0
M  V30 372 H 31.7722 0.886066 6.04137 0
M  V30 373 H 33.1862 2.88153 4.95622 0
M  V30 374 H 31.5832 3.64903 4.76409 0
M  V30 375 H 32.6532 3.49742 3.3587 0
M  V30 376 N 33.9963 -1.19345 1.0293 0
M  V30 377 C 34.9593 -2.20793 0.615069 0
M  V30 378 C 35.9593 -1.57553 -0.321533 0
M  V30 379 O 37.1493 -1.73862 -0.108483 0
M  V30 380 C 34.2813 -3.40754 -0.0999222 0
M  V30 381 H 35.4743 -2.58955 1.51269 0
M  V30 382 H 33.0273 -1.3303 0.820534 0
M  V30 383 H 33.7623 -3.0811 -1.01187 0
M  V30 384 H 33.5473 -3.87889 0.57309 0
M  V30 385 H 35.0373 -4.15898 -0.376645 0
M  V30 386 N 35.4744 -0.807222 -1.35358 0
M  V30 387 C 36.4074 -0.163572 -2.27613 0
M  V30 388 C 37.3854 0.670817 -1.48118 0
M  V30 389 O 38.5694 0.63796 -1.77376 0
M  V30 390 C 35.6964 0.773015 -3.29761 0
M  V30 391 C 34.7424 0.0181653 -4.26496 0
M  V30 392 S 35.5754 -1.31831 -5.19019 0
M  V30 393 C 36.7314 -0.38619 -6.24707 0
M  V30 394 H 36.9644 -0.945757 -2.81856 0
M  V30 395 H 34.4974 -0.602315 -1.42167 0
M  V30 396 H 36.4554 1.30788 -3.89108 0
M  V30 397 H 35.1164 1.52859 -2.74396 0
M  V30 398 H 34.3094 0.729534 -4.98692 0
M  V30 399 H 33.9114 -0.446761 -3.71322 0
M  V30 400 H 36.2034 0.428295 -6.76145 0
M  V30 401 H 37.1464 -1.07736 -6.99856 0
M  V30 402 H 37.5544 0.018398 -5.64497 0
M  V30 403 N 36.9525 1.47285 -0.560781 0
M  V30 404 C 37.8825 2.32857 0.173105 0
M  V30 405 C 38.8635 1.44009 0.905281 0
M  V30 406 O 40.0485 1.7286 0.885046 0
M  V30 407 C 37.1785 3.25861 1.20133 0
M  V30 408 C 36.1325 4.23978 0.585388 0
M  V30 409 C 35.4585 5.06332 1.7185 0
M  V30 410 C 36.7585 5.20242 -0.463178 0
M  V30 411 H 38.4525 2.94466 -0.541307 0
M  V30 412 H 35.9985 1.41601 -0.261764 0
M  V30 413 H 37.9515 3.84569 1.72293 0
M  V30 414 H 36.6755 2.62315 1.94573 0
M  V30 415 H 35.3345 3.66501 0.085054 0
M  V30 416 H 34.9825 4.39186 2.45203 0
M  V30 417 H 34.6825 5.72762 1.31213 0
M  V30 418 H 36.2065 5.67899 2.24329 0
M  V30 419 H 37.6205 5.73293 -0.027502 0
M  V30 420 H 36.0175 5.94896 -0.788627 0
M  V30 421 H 37.0875 4.65504 -1.35773 0
M  V30 422 N 38.4306 0.297415 1.54768 0
M  V30 423 C 39.6776 -0.312913 2.00068 0
M  V30 424 C 40.0056 -1.54171 1.18582 0
M  V30 425 O 39.2606 -1.94108 0.249133 0
M  V30 426 C 39.5596 -0.717561 3.50123 0
M  V30 427 C 39.2256 0.409095 4.4904 0
M  V30 428 C 37.8876 0.718399 4.75807 0
M  V30 429 C 40.2396 1.16717 5.07963 0
M  V30 430 C 37.5676 1.78896 5.5876 0
M  V30 431 C 39.9196 2.22762 5.92081 0
M  V30 432 C 38.5836 2.54303 6.1716 0
M  V30 433 H 37.8536 -0.114503 0.7321 0
M  V30 434 H 40.5006 0.415767 1.86932 0
M  V30 435 H 38.8056 -1.52627 3.60849 0
M  V30 436 H 40.5026 -1.20091 3.82595 0
M  V30 437 H 37.0926 0.157918 4.28309 0
M  V30 438 H 41.2766 0.941466 4.87289 0
M  V30 439 H 36.5326 2.0381 5.7643 0
M  V30 440 H 40.7066 2.81962 6.36765 0
M  V30 441 H 38.3336 3.3739 6.81229 0
M  V30 442 N 39.9087 -1.5758 0.0250728 0
M  V30 443 C 41.1547 -1.91917 -0.655413 0
M  V30 444 C 41.4877 -0.901433 -1.72011 0
M  V30 445 O 40.7627 0.0764069 -1.9435 0
M  V30 446 C 41.0457 -3.36751 -1.27558 0
M  V30 447 C 40.8987 -4.49258 -0.220719 0
M  V30 448 C 42.2177 -3.81469 -2.19475 0
M  V30 449 H 39.3367 -0.697925 -0.23679 0
M  V30 450 H 41.9787 -1.89825 0.0815036 0
M  V30 451 H 40.1287 -3.38664 -1.90365 0
M  V30 452 H 41.8007 -4.59478 0.409601 0
M  V30 453 H 40.0437 -4.31415 0.454264 0
M  V30 454 H 40.7147 -5.47618 -0.694175 0
M  V30 455 H 43.1907 -3.81266 -1.66659 0
M  V30 456 H 42.0667 -4.83512 -2.59822 0
M  V30 457 H 42.3277 -3.16744 -3.08424 0
M  V30 458 N 41.3868 0.248026 -1.55636 0
M  V30 459 C 42.6338 0.976224 -1.77415 0
M  V30 460 C 42.9618 1.85361 -0.589193 0
M  V30 461 O 42.2168 1.90973 0.427529 0
M  V30 462 C 42.5158 1.86819 -3.04686 0
M  V30 463 C 42.1818 1.14625 -4.36087 0
M  V30 464 C 40.8438 0.946723 -4.71795 0
M  V30 465 C 43.1958 0.634463 -5.17324 0
M  V30 466 C 40.5238 0.223091 -5.86276 0
M  V30 467 C 42.8758 -0.0756959 -6.32555 0
M  V30 468 C 41.5398 -0.286711 -6.66884 0
M  V30 469 H 40.8098 0.357226 -0.649208 0
M  V30 470 H 43.4568 0.246415 -1.89908 0
M  V30 471 H 41.7618 2.66502 -2.872 0
M  V30 472 H 43.4588 2.43329 -3.18735 0
M  V30 473 H 40.0488 1.3117 -4.08035 0
M  V30 474 H 44.2328 0.77616 -4.90193 0
M  V30 475 H 39.4888 0.0491185 -6.1138 0
M  V30 476 H 43.6628 -0.479899 -6.94745 0
M  V30 477 H 41.2898 -0.849389 -7.5544 0
M  V30 478 N 42.8649 1.48995 0.513639 0
M  V30 479 C 44.1139 1.57093 1.2651 0
M  V30 480 C 44.4269 0.257091 1.93903 0
M  V30 481 O 45.6329 0.216478 2.70636 0
M  V30 482 C 44.0889 2.77118 2.29638 0
M  V30 483 C 43.6969 4.15209 1.68241 0
M  V30 484 C 45.4409 2.94538 3.05692 0
M  V30 485 C 43.3479 5.26474 2.69406 0
M  V30 486 H 42.2779 0.584876 0.475854 0
M  V30 487 H 44.9289 1.7536 0.540487 0
M  V30 488 H 43.3109 2.52319 3.05207 0
M  V30 489 H 44.4849 4.50094 0.987505 0
M  V30 490 H 42.7999 4.03042 1.04623 0
M  V30 491 H 45.3969 3.74832 3.8132 0
M  V30 492 H 45.7399 2.04614 3.62545 0
M  V30 493 H 46.2729 3.19316 2.37238 0
M  V30 494 H 43.0119 6.18417 2.17351 0
M  V30 495 H 42.5319 4.96058 3.37175 0
M  V30 496 H 44.2109 5.55277 3.32078 0
M  V30 497 N 44.343 -0.763751 1.37857 0
M  V30 498 C 45.306 -1.85889 1.34081 0
M  V30 499 C 46.306 -1.58949 0.243277 0
M  V30 500 O 47.496 -1.66882 0.499589 0
M  V30 501 C 44.628 -3.23176 1.08489 0
M  V30 502 H 45.821 -1.90648 2.31502 0
M  V30 503 H 43.374 -0.964367 1.23003 0
M  V30 504 H 44.109 -3.24091 0.116318 0
M  V30 505 H 43.894 -3.44124 1.8794 0
M  V30 506 H 45.384 -4.03254 1.08517 0
M  V30 507 N 45.8211 -1.22559 -0.990812 0
M  V30 508 C 46.7511 -1.0218 -2.09956 0
M  V30 509 C 47.7321 0.0579394 -1.70001 0
M  V30 510 O 48.9171 -0.104684 -1.93918 0
M  V30 511 C 46.0471 -0.601023 -3.4206 0
M  V30 512 C 45.0011 -1.62694 -3.95872 0
M  V30 513 C 44.3271 -1.06193 -5.24049 0
M  V30 514 C 45.6271 -3.01743 -4.2632 0
M  V30 515 H 47.3211 -1.94916 -2.27262 0
M  V30 516 H 44.8671 -0.938566 -1.09211 0
M  V30 517 H 46.8201 -0.445561 -4.19038 0
M  V30 518 H 45.5441 0.362005 -3.24588 0
M  V30 519 H 44.2031 -1.77021 -3.21028 0
M  V30 520 H 43.8511 -0.0901903 -5.02919 0
M  V30 521 H 43.5511 -1.74732 -5.61019 0
M  V30 522 H 45.0751 -0.918092 -6.03658 0
M  V30 523 H 46.4891 -2.90777 -4.94087 0
M  V30 524 H 44.8861 -3.67425 -4.74467 0
M  V30 525 H 45.9561 -3.51518 -3.34011 0
M  V30 526 N 47.2992 1.18797 -1.03562 0
M  V30 527 C 48.5482 1.87978 -0.731235 0
M  V30 528 C 48.8612 1.80911 0.743671 0
M  V30 529 O 50.0672 2.45407 1.16137 0
M  V30 530 C 48.5232 3.3721 -1.25768 0
M  V30 531 C 48.1312 3.52818 -2.76085 0
M  V30 532 C 49.8752 4.11825 -1.0296 0
M  V30 533 C 47.7822 4.9598 -3.22114 0
M  V30 534 H 46.7122 0.704063 -0.269835 0
M  V30 535 H 49.3632 1.34266 -1.25079 0
M  V30 536 H 47.7452 3.90359 -0.666011 0
M  V30 537 H 48.9192 3.09965 -3.40966 0
M  V30 538 H 47.2342 2.91602 -2.97249 0
M  V30 539 H 49.8312 5.17411 -1.34869 0
M  V30 540 H 50.1742 4.16287 0.0333546 0
M  V30 541 H 50.7072 3.64833 -1.58562 0
M  V30 542 H 47.4462 4.96684 -4.27768 0
M  V30 543 H 46.9662 5.39569 -2.61965 0
M  V30 544 H 48.6452 5.6467 -3.15844 0
M  V30 545 N 48.7773 0.814389 1.34928 0
M  V30 546 C 49.7403 0.235759 2.27984 0
M  V30 547 C 50.7403 -0.581412 1.49921 0
M  V30 548 O 51.9303 -0.398758 1.69575 0
M  V30 549 C 49.0623 -0.670433 3.34242 0
M  V30 550 H 50.2553 1.05659 2.80671 0
M  V30 551 H 47.8083 0.585614 1.44915 0
M  V30 552 H 48.5433 -1.51466 2.86755 0
M  V30 553 H 48.3283 -0.0860822 3.92005 0
M  V30 554 H 49.8183 -1.06935 4.03676 0
M  V30 555 N 50.2554 -1.46986 0.568584 0
M  V30 556 C 51.4854 -2.0653 0.0539173 0
M  V30 557 C 51.8934 -1.42004 -1.25026 0
M  V30 558 O 51.2364 -0.514541 -1.76347 0
M  V30 559 C 51.2984 -3.58938 -0.200854 0
M  V30 560 C 50.9624 -4.45572 1.01559 0
M  V30 561 C 51.9594 -4.82986 1.92407 0
M  V30 562 C 49.6444 -4.8692 1.23346 0
M  V30 563 C 51.6384 -5.60559 3.03402 0
M  V30 564 C 49.3254 -5.64255 2.34649 0
M  V30 565 C 50.3234 -6.00986 3.24507 0
M  V30 566 O 50.0114 -6.76761 4.33878 0
M  V30 567 H 49.7434 -0.674292 0.0480234 0
M  V30 568 H 52.2974 -1.89812 0.784896 0
M  V30 569 H 50.5274 -3.73911 -0.986279 0
M  V30 570 H 52.2164 -4.0046 -0.662294 0
M  V30 571 H 52.9824 -4.51633 1.76785 0
M  V30 572 H 48.8614 -4.57789 0.543178 0
M  V30 573 H 52.4054 -5.89147 3.73565 0
M  V30 574 H 48.3024 -5.95021 2.5024 0
M  V30 575 H 49.0704 -6.95168 4.32068 0
M  V30 576 N 51.7335 -0.305618 -1.54608 0
M  V30 577 C 52.9615 0.304775 -2.04643 0
M  V30 578 C 53.3765 1.47167 -1.18268 0
M  V30 579 O 52.7335 1.81296 -0.209328 0
M  V30 580 C 52.7845 0.756564 -3.53495 0
M  V30 581 O 52.5055 -0.36389 -4.36586 0
M  V30 582 C 54.0065 1.43163 -4.19546 0
M  V30 583 H 51.2265 0.0655481 -0.667791 0
M  V30 584 H 53.7705 -0.446592 -1.99564 0
M  V30 585 H 51.9255 1.45794 -3.58919 0
M  V30 586 H 52.3395 -0.0113121 -5.24499 0
M  V30 587 H 53.8135 1.69886 -5.25207 0
M  V30 588 H 54.2905 2.37318 -3.69563 0
M  V30 589 H 54.8965 0.773307 -4.18211 0
M  V30 590 N 53.2116 1.57565 -0.0334293 0
M  V30 591 C 54.1416 2.13511 0.945265 0
M  V30 592 C 55.1226 1.05231 1.33643 0
M  V30 593 O 56.3076 1.33084 1.41429 0
M  V30 594 C 53.4376 2.6657 2.22616 0
M  V30 595 C 52.3916 3.79676 1.97561 0
M  V30 596 C 51.7176 4.1918 3.31952 0
M  V30 597 C 53.0176 5.0557 1.31135 0
M  V30 598 H 54.7116 2.95538 0.479325 0
M  V30 599 H 52.2576 1.42166 0.229115 0
M  V30 600 H 54.2106 3.04344 2.91466 0
M  V30 601 H 52.9346 1.8171 2.71384 0
M  V30 602 H 51.5936 3.42347 1.31127 0
M  V30 603 H 51.2416 3.31296 3.78487 0
M  V30 604 H 50.9416 4.95402 3.15992 0
M  V30 605 H 52.4656 4.59541 4.02063 0
M  V30 606 H 53.8796 5.40903 1.89992 0
M  V30 607 H 52.2766 5.86818 1.25559 0
M  V30 608 H 53.3466 4.84062 0.284894 0
M  V30 609 N 54.6897 -0.239769 1.55765 0
M  V30 610 C 55.6527 -1.28038 1.90103 0
M  V30 611 C 56.6527 -1.40723 0.778055 0
M  V30 612 O 57.8427 -1.39301 1.04599 0
M  V30 613 C 54.9747 -2.65702 2.13577 0
M  V30 614 H 56.1677 -0.988048 2.83157 0
M  V30 615 H 53.7207 -0.479382 1.48767 0
M  V30 616 H 54.4557 -3.00063 1.23015 0
M  V30 617 H 54.2407 -2.57875 2.95369 0
M  V30 618 H 55.7307 -3.40828 2.41301 0
M  V30 619 N 56.1678 -1.49265 -0.50573 0
M  V30 620 C 57.3958 -1.62215 -1.28429 0
M  V30 621 C 57.8108 -0.291697 -1.86533 0
M  V30 622 O 57.1678 0.722233 -1.67601 0
M  V30 623 C 57.2188 -2.68735 -2.41793 0
M  V30 624 O 56.9398 -3.96619 -1.86078 0
M  V30 625 C 58.4408 -2.92346 -3.3324 0
M  V30 626 H 55.6608 -0.546239 -0.389697 0
M  V30 627 H 58.2048 -1.95265 -0.607609 0
M  V30 628 H 56.3598 -2.38476 -3.053 0
M  V30 629 H 56.7738 -4.55256 -2.60465 0
M  V30 630 H 58.2478 -3.70623 -4.09075 0
M  V30 631 H 58.7248 -2.02081 -3.89948 0
M  V30 632 H 59.3308 -3.24003 -2.75503 0
M  V30 633 N 57.6459 0.756429 -1.3826 0
M  V30 634 C 58.5959 1.86069 -1.31766 0
M  V30 635 C 59.5799 1.59621 -0.202483 0
M  V30 636 O 60.7719 1.7149 -0.438211 0
M  V30 637 C 57.9009 3.23742 -1.1422 0
M  V30 638 C 56.9869 3.56091 -2.30348 0
M  V30 639 N 57.3779 3.59517 -3.55783 0
M  V30 640 C 55.6759 3.86341 -2.22838 0
M  V30 641 C 56.3769 3.89052 -4.32451 0
M  V30 642 N 55.3529 4.05736 -3.61772 0
M  V30 643 H 59.1549 1.86992 -2.26741 0
M  V30 644 H 56.6689 0.953643 -1.31451 0
M  V30 645 H 58.6659 4.02761 -1.07652 0
M  V30 646 H 57.3259 3.24073 -0.201763 0
M  V30 647 H 58.3369 3.41347 -3.89491 0
M  V30 648 H 55.0139 3.94404 -1.36937 0
M  V30 649 H 56.4039 3.98349 -5.4108 0
M  V30 650 N 59.124 1.23083 0.984299 0
M  V30 651 C 60.352 1.08714 1.76037 0
M  V30 652 C 60.767 -0.361691 1.85303 0
M  V30 653 O 60.124 -1.25034 1.32939 0
M  V30 654 C 60.175 1.70206 3.18923 0
M  V30 655 O 59.896 3.09423 3.10144 0
M  V30 656 C 61.397 1.61227 4.12941 0
M  V30 657 H 58.617 0.380664 0.552572 0
M  V30 658 H 61.161 1.62853 1.23689 0
M  V30 659 H 59.316 1.20109 3.6831 0
M  V30 660 H 59.73 3.39188 4.00065 0
M  V30 661 H 61.204 2.08962 5.10919 0
M  V30 662 H 61.681 0.570375 4.35481 0
M  V30 663 H 62.287 2.10671 3.69456 0
M  V30 664 N 60.6021 -1.18246 1.0419 0
M  V30 665 C 61.5651 -2.20128 0.638452 0
M  V30 666 C 62.5651 -1.57885 -0.304805 0
M  V30 667 O 63.7551 -1.73967 -0.0900369 0
M  V30 668 C 60.8871 -3.4084 -0.0637751 0
M  V30 669 H 62.0801 -2.57336 1.54007 0
M  V30 670 H 59.6331 -1.32152 0.834598 0
M  V30 671 H 60.3681 -3.09166 -0.979136 0
M  V30 672 H 60.1531 -3.8726 0.614198 0
M  V30 673 H 61.6431 -4.16274 -0.332512 0
M  V30 674 N 62.0802 -0.821533 -1.34494 0
M  V30 675 C 63.3282 -0.408139 -1.97936 0
M  V30 676 C 63.6492 1.03193 -1.65457 0
M  V30 677 O 62.9192 1.71622 -0.944595 0
M  V30 678 H 61.4992 -0.147928 -0.732206 0
M  V30 679 H 64.1612 -1.05067 -1.64155 0
M  V30 680 H 63.2572 -0.52601 -3.07635 0
M  V30 681 N 63.5583 1.46682 -0.576371 0
M  V30 682 C 64.8043 2.02712 -0.0596221 0
M  V30 683 C 65.1373 1.44765 1.29448 0
M  V30 684 O 64.4123 0.610355 1.84675 0
M  V30 685 C 64.6953 3.60098 0.0129503 0
M  V30 686 C 64.5483 4.28441 -1.3696 0
M  V30 687 C 65.8673 4.34224 0.71678 0
M  V30 688 H 62.9863 0.736637 -0.0231407 0
M  V30 689 H 65.6283 1.74898 -0.742351 0
M  V30 690 H 63.7783 3.83926 0.594378 0
M  V30 691 H 65.4503 4.15896 -1.9957 0
M  V30 692 H 63.6933 3.8805 -1.93907 0
M  V30 693 H 64.3643 5.3716 -1.27135 0
M  V30 694 H 66.8403 4.15503 0.222908 0
M  V30 695 H 65.7163 5.43936 0.73657 0
M  V30 696 H 65.9773 4.04823 1.77682 0
M  V30 697 N 65.0364 0.313813 1.54444 0
M  V30 698 C 66.2854 -0.292519 1.99568 0
M  V30 699 C 66.5984 -1.54011 1.20582 0
M  V30 700 O 67.8044 -2.22183 1.56035 0
M  V30 701 C 66.2604 -0.571752 3.55329 0
M  V30 702 C 65.8684 0.658229 4.43138 0
M  V30 703 C 67.6124 -1.13857 4.08946 0
M  V30 704 C 65.5194 0.351439 5.90355 0
M  V30 705 H 64.4494 -0.113079 0.745472 0
M  V30 706 H 67.1004 0.424518 1.78522 0
M  V30 707 H 65.4824 -1.34872 3.72325 0
M  V30 708 H 66.6564 1.43403 4.37918 0
M  V30 709 H 64.9714 1.14458 4.0036 0
M  V30 710 H 67.5684 -1.38257 5.16516 0
M  V30 711 H 67.9114 -2.08489 3.6033 0
M  V30 712 H 68.4444 -0.423015 3.95544 0
M  V30 713 H 65.1834 1.26667 6.43145 0
M  V30 714 H 64.7034 -0.386842 5.98551 0
M  V30 715 H 66.3824 -0.0423134 6.46986 0
M  V30 716 N 66.5145 -1.57545 0.0417849 0
M  V30 717 C 67.9255 -1.80011 -0.495259 0
M  V30 718 C 68.2765 -0.953199 -1.71489 0
M  V30 719 O 67.4015 -0.167138 -2.15754 0
M  V30 720 C 67.9965 -3.26482 -0.905265 0
M  V30 721 C 66.5555 -3.499 -1.38734 0
M  V30 722 C 65.7025 -2.74979 -0.358056 0
M  V30 723 H 68.6535 -1.56425 0.267736 0
M  V30 724 H 68.6745 -3.36887 -1.76882 0
M  V30 725 H 68.1865 -3.88096 -0.017401 0
M  V30 726 H 66.2875 -2.93553 -2.29471 0
M  V30 727 H 66.4005 -4.58615 -1.38598 0
M  V30 728 H 64.7645 -2.40834 -0.828912 0
M  V30 729 H 65.5475 -3.39315 0.521561 0
M  V30 730 N 67.9926 0.231505 -1.5589 0
M  V30 731 C 68.9556 1.27028 -1.90779 0
M  V30 732 C 69.9556 1.40308 -0.785507 0
M  V30 733 O 71.1456 1.38744 -1.05336 0
M  V30 734 C 68.2776 2.64566 -2.14983 0
M  V30 735 H 69.4706 0.973017 -2.83677 0
M  V30 736 H 67.0236 0.471486 -1.49019 0
M  V30 737 H 67.7586 2.99406 -1.24604 0
M  V30 738 H 67.5436 2.56305 -2.96732 0
M  V30 739 H 69.0336 3.39543 -2.43105 0
M  V30 740 N 69.4707 1.49531 0.497807 0
M  V30 741 C 70.7187 1.58865 1.24926 0
M  V30 742 C 71.0397 0.278721 1.92998 0
M  V30 743 O 70.3097 -0.702144 1.82885 0
M  V30 744 H 68.8897 0.585343 0.464094 0
M  V30 745 H 71.5517 1.86174 0.57666 0
M  V30 746 H 70.6477 2.38633 2.01149 0
M  V30 747 N 70.9488 -0.749086 1.3866 0
M  V30 748 C 71.8958 -1.86291 1.36251 0
M  V30 749 C 72.8658 -1.64578 0.224347 0
M  V30 750 O 74.0508 -1.86181 0.417279 0
M  V30 751 C 71.1908 -3.23644 1.19786 0
M  V30 752 C 70.3038 -3.57158 2.43027 0
M  V30 753 C 69.4388 -4.83838 2.19258 0
M  V30 754 C 68.4778 -5.10152 3.38247 0
M  V30 755 N 67.6148 -6.28029 3.13884 0
M  V30 756 H 72.4548 -1.87685 2.3147 0
M  V30 757 H 69.9918 -0.917287 1.14997 0
M  V30 758 H 71.9498 -4.0291 1.08254 0
M  V30 759 H 70.5798 -3.21566 0.282031 0
M  V30 760 H 69.6318 -2.72701 2.65214 0
M  V30 761 H 70.9438 -3.7253 3.31697 0
M  V30 762 H 70.0978 -5.71057 2.04888 0
M  V30 763 H 68.8368 -4.70614 1.2796 0
M  V30 764 H 67.8418 -4.21401 3.53131 0
M  V30 765 H 69.0668 -5.25271 4.30427 0
M  V30 766 H 67.0128 -6.1612 2.25238 0
M  V30 767 H 66.9298 -6.43922 3.96106 0
M  V30 768 H 68.1978 -7.18124 3.03179 0
M  V30 769 N 72.4269 -1.23603 -0.977757 0
M  V30 770 C 73.3569 -1.04401 -2.0886 0
M  V30 771 C 74.3379 0.0399052 -1.70053 0
M  V30 772 O 75.5229 -0.125246 -1.93796 0
M  V30 773 C 72.6529 -0.637269 -3.41403 0
M  V30 774 C 71.6069 -1.66883 -3.94124 0
M  V30 775 C 70.9329 -1.11745 -5.22893 0
M  V30 776 C 72.2329 -3.06247 -4.23096 0
M  V30 777 H 73.9269 -1.97316 -2.25182 0
M  V30 778 H 71.4729 -0.950096 -1.08209 0
M  V30 779 H 73.4259 -0.48998 -4.18542 0
M  V30 780 H 72.1499 0.327557 -3.24953 0
M  V30 781 H 70.8089 -1.80416 -3.19133 0
M  V30 782 H 70.4569 -0.143527 -5.02795 0
M  V30 783 H 70.1569 -1.80672 -5.59134 0
M  V30 784 H 71.6809 -0.982067 -6.02651 0
M  V30 785 H 73.0949 -2.96001 -4.90975 0
M  V30 786 H 71.4919 -3.72436 -4.70544 0
M  V30 787 H 72.5619 -3.55041 -3.30263 0
M  V30 788 N 73.905 1.17692 -1.04816 0
M  V30 789 C 74.815 2.25229 -0.65643 0
M  V30 790 C 75.831 1.71018 0.320761 0
M  V30 791 O 77.007 2.00649 0.173805 0
M  V30 792 C 74.072 3.46684 -0.0332629 0
M  V30 793 C 73.133 4.15997 -1.06042 0
M  V30 794 C 72.366 5.31654 -0.466893 0
M  V30 795 O 72.589 5.65777 0.724758 0
M  V30 796 O 71.523 5.89831 -1.1993 0
M  V30 797 H 75.349 2.61016 -1.55255 0
M  V30 798 H 72.934 1.24919 -0.81949 0
M  V30 799 H 74.816 4.20234 0.313256 0
M  V30 800 H 73.491 3.12703 0.836566 0
M  V30 801 H 72.398 3.44482 -1.45886 0
M  V30 802 H 73.731 4.53996 -1.90127 0
M  V30 803 N 75.3831 0.828654 1.34056 0
M  V30 804 C 76.7991 0.515135 1.51058 0
M  V30 805 C 76.9991 -0.959581 1.77184 0
M  V30 806 O 76.0551 -1.74382 1.82612 0
M  V30 807 C 77.3681 1.37963 2.67183 0
M  V30 808 C 78.9161 1.37735 2.81066 0
M  V30 809 C 79.3911 2.22645 4.00241 0
M  V30 810 N 80.8821 2.203 4.07458 0
M  V30 811 C 81.6171 2.82744 4.98842 0
M  V30 812 N 81.1131 3.54201 5.9541 0
M  V30 813 N 82.9061 2.72268 4.91759 0
M  V30 814 H 75.0571 1.78343 1.15358 0
M  V30 815 H 77.3201 0.760304 0.566252 0
M  V30 816 H 77.0261 2.42714 2.54525 0
M  V30 817 H 76.9001 1.0484 3.62338 0
M  V30 818 H 79.2871 0.337593 2.93163 0
M  V30 819 H 79.3681 1.74859 1.86703 0
M  V30 820 H 79.0121 3.26674 3.88905 0
M  V30 821 H 78.9421 1.82869 4.93829 0
M  V30 822 H 81.4331 1.68327 3.38341 0
M  V30 823 H 81.7461 3.9908 6.61782 0
M  V30 824 H 80.0911 3.58308 5.95517 0
M  V30 825 H 83.2821 2.16014 4.15278 0
M  V30 826 H 83.4551 3.21219 5.62781 0
M  V30 827 N 76.8612 -1.46375 0.584142 0
M  V30 828 C 78.1072 -2.02678 0.0703716 0
M  V30 829 C 78.4402 -1.4545 -1.28678 0
M  V30 830 O 77.7152 -0.62014 -1.84349 0
M  V30 831 C 77.9982 -3.60099 0.00614674 0
M  V30 832 C 77.8512 -4.27709 1.3923 0
M  V30 833 C 79.1702 -4.34598 -0.693742 0
M  V30 834 H 76.2892 -0.736504 0.027047 0
M  V30 835 H 78.9312 -1.74501 0.751615 0
M  V30 836 H 77.0812 -3.84236 -0.574009 0
M  V30 837 H 78.7532 -4.14832 2.01773 0
M  V30 838 H 76.9962 -3.87016 1.95962 0
M  V30 839 H 77.6672 -5.36478 1.29982 0
M  V30 840 H 80.1432 -4.15615 -0.200869 0
M  V30 841 H 79.0192 -5.44318 -0.707714 0
M  V30 842 H 79.2802 -4.05759 -1.75533 0
M  V30 843 N 78.3393 -0.321999 -1.54275 0
M  V30 844 C 79.6163 0.335232 -1.92706 0
M  V30 845 C 79.9963 1.70006 -1.25145 0
M  V30 846 O 79.3443 2.25067 -0.394596 0
M  V30 847 C 79.5543 0.429008 -3.46353 0
M  V30 848 C 80.9023 0.690029 -4.18956 0
M  V30 849 O 81.9263 0.511992 -3.52501 0
M  V30 850 O 80.7853 1.03338 -5.36641 0
M  V30 851 H 77.8793 0.191143 -0.804608 0
M  V30 852 H 80.4253 -0.3716 -1.65581 0
M  V30 853 H 79.1973 -0.529611 -3.87699 0
M  V30 854 H 78.8203 1.18348 -3.79578 0
M  V30 855 N 79.8174 1.5752 -0.0501392 0
M  V30 856 C 81.2284 1.80271 0.485705 0
M  V30 857 C 81.5794 0.96228 1.70981 0
M  V30 858 O 80.7044 0.178578 2.15662 0
M  V30 859 C 81.2994 3.26957 0.887938 0
M  V30 860 C 79.8584 3.5063 1.36877 0
M  V30 861 C 79.0054 2.75165 0.343468 0
M  V30 862 H 81.9564 1.56281 -0.276028 0
M  V30 863 H 81.9774 3.37821 1.75093 0
M  V30 864 H 81.4894 3.881 -0.0031809 0
M  V30 865 H 79.5904 2.94766 2.27911 0
M  V30 866 H 79.7034 4.59343 1.36164 0
M  V30 867 H 78.0674 2.4127 0.816128 0
M  V30 868 H 78.8504 3.39034 -0.539548 0
M  V30 869 N 81.2955 -0.223234 1.56011 0
M  V30 870 C 82.5235 -0.964812 1.83027 0
M  V30 871 C 82.9385 -1.78013 0.62904 0
M  V30 872 O 82.2955 -1.78008 -0.402414 0
M  V30 873 C 82.3465 -1.88373 3.08542 0
M  V30 874 O 82.0675 -1.10137 4.2403 0
M  V30 875 C 83.5685 -2.73934 3.48533 0
M  V30 876 H 80.7885 -0.282842 0.608475 0
M  V30 877 H 83.3325 -0.238971 2.03099 0
M  V30 878 H 81.4875 -2.56354 2.9045 0
M  V30 879 H 81.9015 -1.72501 4.95322 0
M  V30 880 H 83.3755 -3.34117 4.39397 0
M  V30 881 H 83.8525 -3.46244 2.70207 0
M  V30 882 H 84.4585 -2.11369 3.69057 0
M  V30 883 N 82.7736 -1.49793 -0.48987 0
M  V30 884 C 84.0016 -1.63568 -1.26701 0
M  V30 885 C 84.4166 -0.311465 -1.86213 0
M  V30 886 O 83.7736 0.704416 -1.68357 0
M  V30 887 C 83.8246 -2.71284 -2.38929 0
M  V30 888 O 83.5456 -3.9857 -1.81861 0
M  V30 889 C 85.0466 -2.95864 -3.3012 0
M  V30 890 H 82.2666 -0.550342 -0.383881 0
M  V30 891 H 84.8106 -1.95898 -0.586864 0
M  V30 892 H 82.9656 -2.417 -3.02753 0
M  V30 893 H 83.3796 -4.57993 -2.55622 0
M  V30 894 H 84.8536 -3.74941 -4.05121 0
M  V30 895 H 85.3306 -2.06206 -3.87783 0
M  V30 896 H 85.9366 -3.26907 -2.72051 0
M  V30 897 N 84.2517 0.741722 -1.39055 0
M  V30 898 C 85.4977 1.50336 -1.36113 0
M  V30 899 C 85.8307 1.94148 0.0450796 0
M  V30 900 O 85.1057 1.66301 1.00868 0
M  V30 901 C 85.3887 2.74773 -2.32749 0
M  V30 902 C 85.2417 2.37023 -3.82283 0
M  V30 903 C 86.5607 3.76846 -2.27322 0
M  V30 904 H 83.6797 0.545351 -0.495743 0
M  V30 905 H 86.3217 0.848624 -1.69995 0
M  V30 906 H 84.4717 3.30639 -2.03986 0
M  V30 907 H 86.1437 1.8684 -4.21768 0
M  V30 908 H 84.3867 1.69334 -3.99385 0
M  V30 909 H 85.0577 3.26104 -4.45376 0
M  V30 910 H 87.5337 3.30548 -2.5274 0
M  V30 911 H 86.4097 4.6159 -2.97028 0
M  V30 912 H 86.6707 4.23286 -1.27599 0
M  V30 913 N 85.7298 1.2412 0.971189 0
M  V30 914 C 87.1458 1.00584 1.23916 0
M  V30 915 C 87.3458 -0.287481 1.99439 0
M  V30 916 O 86.4018 -1.00454 2.31658 0
M  V30 917 C 87.7148 2.21864 2.0297 0
M  V30 918 C 89.2628 2.26452 2.16076 0
M  V30 919 C 89.7378 3.47343 2.98524 0
M  V30 920 N 91.2288 3.47639 3.06107 0
M  V30 921 C 91.9638 4.37837 3.70251 0
M  V30 922 N 91.4598 5.38286 4.36142 0
M  V30 923 N 93.2528 4.25558 3.67228 0
M  V30 924 H 85.4038 2.07236 0.465499 0
M  V30 925 H 87.6668 0.909236 0.268315 0
M  V30 926 H 87.3728 3.15771 1.54861 0
M  V30 927 H 87.2468 2.23698 3.03709 0
M  V30 928 H 89.6338 1.33078 2.6339 0
M  V30 929 H 89.7148 2.28645 1.14696 0
M  V30 930 H 89.3588 4.41029 2.51905 0
M  V30 931 H 89.2888 3.42393 4.00093 0
M  V30 932 H 91.7798 2.74966 2.59233 0
M  V30 933 H 92.0928 6.03352 4.82894 0
M  V30 934 H 90.4378 5.42176 4.34822 0
M  V30 935 H 93.6288 3.46322 3.14927 0
M  V30 936 H 93.8018 4.96054 4.16935 0
M  V30 937 N 87.2079 -1.17134 1.05439 0
M  V30 938 C 88.1399 -2.2078 0.615539 0
M  V30 939 C 89.1529 -1.59584 -0.322001 0
M  V30 940 O 90.3419 -1.78133 -0.114344 0
M  V30 941 C 87.4419 -3.38691 -0.118938 0
M  V30 942 C 86.6149 -4.29454 0.829924 0
M  V30 943 C 85.6739 -5.26024 0.136258 0
M  V30 944 O 84.6999 -5.63952 0.77115 0
M  V30 945 N 85.9019 -5.69487 -1.1254 0
M  V30 946 H 88.6669 -2.59052 1.50705 0
M  V30 947 H 86.2279 -1.32058 0.936603 0
M  V30 948 H 88.2199 -4.00329 -0.593179 0
M  V30 949 H 86.7899 -2.98996 -0.91215 0
M  V30 950 H 86.0099 -3.65211 1.48373 0
M  V30 951 H 87.2979 -4.86984 1.47392 0
M  V30 952 H 86.6959 -5.4075 -1.6615 0
M  V30 953 H 85.2529 -6.33257 -1.54366 0
M  V30 954 N 88.686 -0.835752 -1.33615 0
M  V30 955 C 89.596 -0.269088 -2.33052 0
M  V30 956 C 90.612 0.603251 -1.63208 0
M  V30 957 O 91.788 0.508112 -1.94885 0
M  V30 958 C 88.853 0.549091 -3.42324 0
M  V30 959 C 87.914 -0.347156 -4.27894 0
M  V30 960 C 87.147 0.43207 -5.31948 0
M  V30 961 O 87.37 1.66409 -5.45586 0
M  V30 962 O 86.304 -0.192298 -6.01593 0
M  V30 963 H 90.13 -1.09243 -2.83372 0
M  V30 964 H 87.715 -0.598198 -1.36901 0
M  V30 965 H 89.597 1.01414 -4.09015 0
M  V30 966 H 88.272 1.34955 -2.94226 0
M  V30 967 H 87.179 -0.859979 -3.64081 0
M  V30 968 H 88.512 -1.1123 -4.79467 0
M  V30 969 N 90.1641 1.46063 -0.591896 0
M  V30 970 C 91.4121 2.01938 -0.0808391 0
M  V30 971 C 91.7331 1.46475 1.28725 0
M  V30 972 O 91.0031 0.652944 1.84698 0
M  V30 973 H 89.5831 0.746516 -0.0268938 0
M  V30 974 H 92.2451 1.79055 -0.769752 0
M  V30 975 H 91.3411 3.12094 -0.0187578 0
M  V30 976 N 91.6422 0.330177 1.54103 0
M  V30 977 C 93.0532 -0.15652 1.86043 0
M  V30 978 C 93.4042 -1.51086 1.2517 0
M  V30 979 O 92.5292 -2.09023 0.560217 0
M  V30 980 C 93.1242 -0.290784 3.3755 0
M  V30 981 C 91.6832 -0.721705 3.69416 0
M  V30 982 C 90.8302 0.152622 2.7688 0
M  V30 983 H 93.7812 0.550237 1.48856 0
M  V30 984 H 93.8022 -1.12058 3.63625 0
M  V30 985 H 93.3142 0.695068 3.81825 0
M  V30 986 H 91.4152 -1.71706 3.30678 0
M  V30 987 H 91.5282 -0.520869 4.7626 0
M  V30 988 H 89.8922 -0.372894 2.51956 0
M  V30 989 H 90.6752 1.13536 3.23982 0
M  V30 990 N 93.1203 -1.57491 0.0584922 0
M  V30 991 C 94.3663 -1.94081 -0.608617 0
M  V30 992 C 94.7213 -0.937438 -1.68017 0
M  V30 993 O 94.0143 0.0423034 -1.91553 0
M  V30 994 C 94.2083 -3.3513 -1.24188 0
M  V30 995 C 94.0373 -4.49095 -0.233187 0
M  V30 996 C 92.8073 -5.04988 0.177439 0
M  V30 997 C 95.0053 -5.1162 0.524306 0
M  V30 998 N 92.9873 -6.02487 1.17823 0
M  V30 999 C 94.3583 -6.04493 1.37796 0
M  V30 1000 C 96.4133 -4.94489 0.581822 0
M  V30 1001 C 95.1163 -6.82075 2.28399 0
M  V30 1002 C 97.1423 -5.72703 1.47531 0
M  V30 1003 C 96.5043 -6.65214 2.31667 0
M  V30 1004 H 92.6033 -0.75752 -0.194134 0
M  V30 1005 H 95.1873 -1.94248 0.132533 0
M  V30 1006 H 93.3583 -3.35726 -1.95302 0
M  V30 1007 H 95.0903 -3.5899 -1.86838 0
M  V30 1008 H 91.8453 -4.73165 -0.203004 0
M  V30 1009 H 92.2693 -6.55933 1.67573 0
M  V30 1010 H 96.9113 -4.22765 -0.054443 0
M  V30 1011 H 94.6293 -7.53085 2.93067 0
M  V30 1012 H 98.2153 -5.61472 1.52448 0
M  V30 1013 H 97.0953 -7.24679 2.99683 0
M  V30 1014 N 94.5984 0.214957 -1.56127 0
M  V30 1015 C 95.5614 1.24997 -1.92116 0
M  V30 1016 C 96.5614 1.39467 -0.800344 0
M  V30 1017 O 97.7514 1.37619 -1.06802 0
M  V30 1018 C 94.8834 2.62271 -2.17777 0
M  V30 1019 H 96.0764 0.942875 -2.84693 0
M  V30 1020 H 93.6294 0.455654 -1.49511 0
M  V30 1021 H 94.3644 2.98068 -1.27773 0
M  V30 1022 H 94.1494 2.53143 -2.99434 0
M  V30 1023 H 95.6394 3.36946 -2.46693 0
M  V30 1024 N 96.0765 1.50051 0.48192 0
M  V30 1025 C 97.3535 1.51009 1.2432 0
M  V30 1026 C 97.7335 0.248587 2.09631 0
M  V30 1027 O 97.0815 -0.768409 2.15192 0
M  V30 1028 C 97.2915 2.79981 2.08355 0
M  V30 1029 C 98.6395 3.3022 2.66908 0
M  V30 1030 O 99.6635 2.81228 2.18607 0
M  V30 1031 O 98.5225 4.15595 3.54884 0
M  V30 1032 H 95.6165 0.605239 0.563573 0
M  V30 1033 H 98.1625 1.62332 0.494627 0
M  V30 1034 H 96.9345 3.63275 1.45419 0
M  V30 1035 H 96.5575 2.7161 2.90368 0
M  V30 1036 N 97.5546 -0.734337 1.39446 0
M  V30 1037 C 98.9656 -1.31264 1.32766 0
M  V30 1038 C 99.3166 -1.96198 -0.00767497 0
M  V30 1039 O 98.4416 -1.96346 -0.909796 0
M  V30 1040 C 99.0366 -2.38682 2.4045 0
M  V30 1041 C 97.5956 -2.92184 2.37288 0
M  V30 1042 C 96.7426 -1.6576 2.22304 0
M  V30 1043 H 99.6936 -0.531799 1.49525 0
M  V30 1044 H 99.7146 -3.19087 2.07276 0
M  V30 1045 H 99.2266 -1.91392 3.37625 0
M  V30 1046 H 97.3276 -3.43752 1.43754 0
M  V30 1047 H 97.4406 -3.45253 3.3217 0
M  V30 1048 H 95.8046 -1.9012 1.69489 0
M  V30 1049 H 96.5876 -1.20521 3.21449 0
M  V30 1050 N 99.0327 -1.24633 -0.964593 0
M  V30 1051 C 99.9957 -1.0424 -2.04124 0
M  V30 1052 C 100.996 0.00137563 -1.608 0
M  V30 1053 O 102.186 -0.239883 -1.7254 0
M  V30 1054 C 99.3177 -0.580588 -3.3592 0
M  V30 1055 H 100.511 -1.99803 -2.23649 0
M  V30 1056 H 98.0637 -1.06899 -1.14027 0
M  V30 1057 H 98.7987 0.3781 -3.22088 0
M  V30 1058 H 98.5837 -1.33398 -3.6871 0
M  V30 1059 H 100.074 -0.459034 -4.15069 0
M  V30 1060 N 100.511 1.16574 -1.06058 0
M  V30 1061 C 101.443 2.2045 -0.627239 0
M  V30 1062 C 102.456 1.59752 0.313534 0
M  V30 1063 O 103.645 1.78192 0.104896 0
M  V30 1064 C 100.745 3.3875 0.100974 0
M  V30 1065 C 99.9178 4.29008 -0.852687 0
M  V30 1066 C 98.9768 5.25944 -0.164152 0
M  V30 1067 O 98.0028 5.63535 -0.801047 0
M  V30 1068 N 99.2048 5.70075 1.09518 0
M  V30 1069 H 101.97 2.58249 -1.52077 0
M  V30 1070 H 99.5308 1.3156 -0.943594 0
M  V30 1071 H 101.523 4.00638 0.57194 0
M  V30 1072 H 100.093 2.99476 0.89628 0
M  V30 1073 H 99.3128 3.64419 -1.50308 0
M  V30 1074 H 100.601 4.86195 -1.49972 0
M  V30 1075 H 99.9988 5.41624 1.6328 0
M  V30 1076 H 98.5558 6.34067 1.51006 0
M  V30 1077 N 101.989 0.842826 1.3317 0
M  V30 1078 C 102.952 0.284065 2.27433 0
M  V30 1079 C 103.952 -0.54948 1.5112 0
M  V30 1080 O 105.142 -0.362699 1.70382 0
M  V30 1081 C 102.274 -0.599384 3.35589 0
M  V30 1082 H 103.467 1.11589 2.78366 0
M  V30 1083 H 101.02 0.616221 1.4364 0
M  V30 1084 H 101.755 -1.45349 2.89904 0
M  V30 1085 H 101.54 -0.00291266 3.921 0
M  V30 1086 H 103.03 -0.983488 4.05854 0
M  V30 1087 N 103.467 -1.45747 0.599634 0
M  V30 1088 C 104.713 -2.02592 0.0918643 0
M  V30 1089 C 105.046 -1.46806 -1.27128 0
M  V30 1090 O 104.321 -0.639658 -1.83681 0
M  V30 1091 C 104.604 -3.60073 0.0443398 0
M  V30 1092 C 104.457 -4.26208 1.43759 0
M  V30 1093 C 105.776 -4.35309 -0.647608 0
M  V30 1094 H 102.895 -0.736175 0.034857 0
M  V30 1095 H 105.537 -1.73694 0.770081 0
M  V30 1096 H 103.687 -3.84823 -0.533224 0
M  V30 1097 H 105.359 -4.12668 2.06162 0
M  V30 1098 H 103.602 -3.84916 2.00056 0
M  V30 1099 H 104.273 -5.35069 1.35665 0
M  V30 1100 H 106.749 -4.15805 -0.156776 0
M  V30 1101 H 105.625 -5.45038 -0.649942 0
M  V30 1102 H 105.886 -4.07598 -1.71219 0
M  V30 1103 N 104.945 -0.338344 -1.53925 0
M  V30 1104 C 106.191 0.260143 -2.01125 0
M  V30 1105 C 106.524 1.50617 -1.22589 0
M  V30 1106 O 105.799 1.91979 -0.312113 0
M  V30 1107 C 106.082 0.579499 -3.55407 0
M  V30 1108 C 105.935 -0.678264 -4.44657 0
M  V30 1109 C 107.254 1.39122 -4.17532 0
M  V30 1110 H 104.373 0.0930772 -0.731099 0
M  V30 1111 H 107.015 -0.457852 -1.84401 0
M  V30 1112 H 105.165 1.19118 -3.69788 0
M  V30 1113 H 106.837 -1.31631 -4.42121 0
M  V30 1114 H 105.08 -1.3042 -4.13731 0
M  V30 1115 H 105.751 -0.410143 -5.50474 0
M  V30 1116 H 108.227 0.874035 -4.06817 0
M  V30 1117 H 107.103 1.58342 -5.25565 0
M  V30 1118 H 107.364 2.39178 -3.71815 0
M  V30 1119 N 106.423 1.57458 -0.0668435 0
M  V30 1120 C 107.355 2.09413 0.931601 0
M  V30 1121 C 108.368 1.02522 1.26464 0
M  V30 1122 O 109.557 1.30049 1.22269 0
M  V30 1123 C 106.657 2.53537 2.24882 0
M  V30 1124 C 105.83 3.83944 2.09537 0
M  V30 1125 C 104.889 4.14214 3.2452 0
M  V30 1126 O 103.915 4.83891 2.9973 0
M  V30 1127 N 105.117 3.67367 4.49469 0
M  V30 1128 H 107.882 2.95699 0.488048 0
M  V30 1129 H 105.443 1.61462 0.119009 0
M  V30 1130 H 107.435 2.70853 3.00701 0
M  V30 1131 H 106.005 1.72415 2.60753 0
M  V30 1132 H 105.225 3.76057 1.18215 0
M  V30 1133 H 106.513 4.69312 1.96529 0
M  V30 1134 H 105.911 3.11068 4.72497 0
M  V30 1135 H 104.468 3.89891 5.2233 0
M  V30 1136 N 107.901 -0.206675 1.56239 0
M  V30 1137 C 109.129 -0.945345 1.8404 0
M  V30 1138 C 109.544 -1.77336 0.647885 0
M  V30 1139 O 108.901 -1.78425 -0.383511 0
M  V30 1140 C 108.952 -1.8509 3.10522 0
M  V30 1141 O 108.673 -1.05634 4.25174 0
M  V30 1142 C 110.174 -2.70222 3.51418 0
M  V30 1143 H 107.394 -0.276372 0.61144 0
M  V30 1144 H 109.938 -0.217417 2.03341 0
M  V30 1145 H 108.093 -2.53259 2.93153 0
M  V30 1146 H 108.507 -1.67238 4.97124 0
M  V30 1147 H 109.981 -3.29438 4.42916 0
M  V30 1148 H 110.458 -3.43358 2.73864 0
M  V30 1149 H 111.064 -2.07443 3.71278 0
M  V30 1150 N 109.379 -1.50304 -0.473955 0
M  V30 1151 C 110.627 -1.60832 -1.22382 0
M  V30 1152 C 110.948 -0.30939 -1.9253 0
M  V30 1153 O 110.218 0.67296 -1.83978 0
M  V30 1154 H 108.798 -0.592652 -0.454723 0
M  V30 1155 H 111.46 -1.87068 -0.546968 0
M  V30 1156 H 110.556 -2.41803 -1.97327 0
M  V30 1157 N 110.857 0.726932 -1.39834 0
M  V30 1158 C 112.268 1.30558 -1.3346 0
M  V30 1159 C 112.619 1.962 -0.00273003 0
M  V30 1160 O 111.744 1.96826 0.899371 0
M  V30 1161 C 112.339 2.37404 -2.41713 0
M  V30 1162 C 110.898 2.90921 -2.38835 0
M  V30 1163 C 110.045 1.64578 -2.2318 0
M  V30 1164 H 112.996 0.523862 -1.49804 0
M  V30 1165 H 113.017 3.17984 -2.08966 0
M  V30 1166 H 112.529 1.89599 -3.38635 0
M  V30 1167 H 110.63 3.42985 -1.45575 0
M  V30 1168 H 110.743 3.43487 -3.33997 0
M  V30 1169 H 109.107 1.89219 -1.70494 0
M  V30 1170 H 109.89 1.18814 -3.22084 0
M  V30 1171 N 112.336 1.25143 0.95797 0
M  V30 1172 C 113.284 1.05019 2.07542 0
M  V30 1173 C 114.278 -0.0178751 1.69391 0
M  V30 1174 O 115.484 0.137472 1.79474 0
M  V30 1175 H 111.859 0.32265 0.679265 0
M  V30 1176 H 113.83 1.99759 2.21673 0
M  V30 1177 C 112.579 0.682074 3.40944 0
M  V30 1178 H 111.902 1.49573 3.70767 0
M  V30 1179 H 113.342 0.580945 4.20001 0
M  V30 1180 C 111.801 -0.611608 3.31302 0
M  V30 1181 O 112.331 -1.65465 3.66038 0
M  V30 1182 N 110.537 -0.595982 2.84423 0
M  V30 1183 H 110.084 0.253192 2.56353 0
M  V30 1184 H 110.042 -1.46173 2.78354 0
M  V30 1185 N 113.814 -1.1601 1.06675 0
M  V30 1186 C 114.746 -2.20115 0.638921 0
M  V30 1187 C 115.759 -1.59916 -0.305057 0
M  V30 1188 O 116.948 -1.78245 -0.0954446 0
M  V30 1189 C 114.048 -3.38798 -0.0830083 0
M  V30 1190 C 113.221 -4.2855 0.875426 0
M  V30 1191 C 112.28 -5.25849 0.192042 0
M  V30 1192 O 111.306 -5.63102 0.830921 0
M  V30 1193 N 112.508 -5.70648 -1.06493 0
M  V30 1194 H 115.273 -2.57439 1.53444 0
M  V30 1195 H 112.834 -1.31057 0.950557 0
M  V30 1196 H 114.826 -4.00936 -0.550685 0
M  V30 1197 H 113.396 -2.99947 -0.880386 0
M  V30 1198 H 112.616 -3.63617 1.52238 0
M  V30 1199 H 113.904 -4.85393 1.52548 0
M  V30 1200 H 113.302 -5.42482 -1.60405 0
M  V30 1201 H 111.859 -6.34859 -1.47641 0
M  V30 1202 N 115.292 -0.849877 -1.32721 0
M  V30 1203 C 116.522 -0.46408 -2.0132 0
M  V30 1204 C 116.93 0.94246 -1.64056 0
M  V30 1205 O 116.273 1.6257 -0.855379 0
M  V30 1206 C 116.335 -0.517887 -3.5575 0
M  V30 1207 C 115.999 -1.88248 -4.16427 0
M  V30 1208 C 116.996 -2.84726 -4.35002 0
M  V30 1209 C 114.681 -2.17832 -4.52609 0
M  V30 1210 C 116.675 -4.08945 -4.8892 0
M  V30 1211 C 114.362 -3.42304 -5.06232 0
M  V30 1212 C 115.36 -4.37677 -5.24335 0
M  V30 1213 O 115.048 -5.59946 -5.76815 0
M  V30 1214 H 114.78 -0.181327 -0.651227 0
M  V30 1215 H 117.334 -1.14713 -1.70382 0
M  V30 1216 H 115.564 0.221997 -3.86062 0
M  V30 1217 H 117.253 -0.148366 -4.05629 0
M  V30 1218 H 118.019 -2.63174 -4.07388 0
M  V30 1219 H 113.898 -1.44385 -4.37806 0
M  V30 1220 H 117.442 -4.83396 -5.02966 0
M  V30 1221 H 113.339 -3.63709 -5.33278 0
M  V30 1222 H 114.107 -5.61838 -5.95214 0
M  V30 1223 N 116.77 1.45427 -0.607355 0
M  V30 1224 C 117.998 2.06614 -0.108814 0
M  V30 1225 C 118.413 1.45204 1.2067 0
M  V30 1226 O 117.77 0.566132 1.73497 0
M  V30 1227 C 117.821 3.61481 0.0375347 0
M  V30 1228 O 117.542 4.20598 -1.22593 0
M  V30 1229 C 119.043 4.39652 0.567561 0
M  V30 1230 H 116.263 0.66747 -0.0687351 0
M  V30 1231 H 118.807 1.86675 -0.835022 0
M  V30 1232 H 116.962 3.80762 0.714068 0
M  V30 1233 H 117.376 5.1377 -1.05547 0
M  V30 1234 H 118.85 5.48518 0.61905 0
M  V30 1235 H 119.327 4.09417 1.58978 0
M  V30 1236 H 119.933 4.25234 -0.0749202 0
M  V30 1237 N 118.248 0.346503 1.53744 0
M  V30 1238 C 119.494 -0.249473 2.0126 0
M  V30 1239 C 119.827 -1.49965 1.23386 0
M  V30 1240 O 119.102 -1.91811 0.32229 0
M  V30 1241 C 119.385 -0.560643 3.55709 0
M  V30 1242 C 119.238 0.701836 4.44291 0
M  V30 1243 C 120.557 -1.36905 4.18264 0
M  V30 1244 H 117.676 -0.0891987 0.731582 0
M  V30 1245 H 120.318 0.467624 1.84156 0
M  V30 1246 H 118.468 -1.17156 3.70414 0
M  V30 1247 H 120.14 1.33974 4.41417 0
M  V30 1248 H 118.383 1.32612 4.13033 0
M  V30 1249 H 119.054 0.43933 5.50249 0
M  V30 1250 H 121.53 -0.852448 4.07275 0
M  V30 1251 H 120.406 -1.55553 5.26398 0
M  V30 1252 H 120.667 -2.37203 3.73078 0
M  V30 1253 N 119.726 -1.57421 0.075193 0
M  V30 1254 C 120.956 -1.97659 -0.601203 0
M  V30 1255 C 121.364 -0.952427 -1.63479 0
M  V30 1256 O 120.707 0.0688241 -1.83571 0
M  V30 1257 C 120.769 -3.34218 -1.32434 0
M  V30 1258 C 120.433 -4.5484 -0.443826 0
M  V30 1259 C 121.43 -5.19034 0.299969 0
M  V30 1260 C 119.115 -5.00952 -0.367709 0
M  V30 1261 C 121.109 -6.27695 1.10807 0
M  V30 1262 C 118.796 -6.09484 0.444058 0
M  V30 1263 C 119.794 -6.72719 1.18061 0
M  V30 1264 O 119.482 -7.79161 1.97898 0
M  V30 1265 H 119.214 -0.65494 -0.167422 0
M  V30 1266 H 121.768 -2.04886 0.145157 0
M  V30 1267 H 119.998 -3.23615 -2.11685 0
M  V30 1268 H 121.687 -3.59038 -1.89331 0
M  V30 1269 H 122.453 -4.84351 0.250776 0
M  V30 1270 H 118.332 -4.51509 -0.930638 0
M  V30 1271 H 121.876 -6.76982 1.68347 0
M  V30 1272 H 117.773 -6.43601 0.494803 0
M  V30 1273 H 118.541 -7.96055 1.90367 0
M  V30 1274 N 121.204 0.198386 -1.56346 0
M  V30 1275 C 122.45 0.920648 -1.80698 0
M  V30 1276 C 122.783 1.83045 -0.648697 0
M  V30 1277 O 122.058 1.91308 0.350925 0
M  V30 1278 C 122.341 1.73971 -3.15287 0
M  V30 1279 C 122.194 0.85485 -4.41602 0
M  V30 1280 C 123.513 2.71296 -3.46535 0
M  V30 1281 H 120.632 0.333261 -0.657348 0
M  V30 1282 H 123.274 0.188198 -1.89066 0
M  V30 1283 H 121.424 2.36416 -3.08285 0
M  V30 1284 H 123.096 0.245362 -4.60647 0
M  V30 1285 H 121.339 0.161398 -4.335 0
M  V30 1286 H 122.01 1.46286 -5.32264 0
M  V30 1287 H 124.486 2.18983 -3.53816 0
M  V30 1288 H 123.362 3.2569 -4.41834 0
M  V30 1289 H 123.623 3.5018 -2.69864 0
M  V30 1290 N 122.682 1.50554 0.465978 0
M  V30 1291 C 123.612 1.72722 1.57128 0
M  V30 1292 C 124.593 0.576294 1.6004 0
M  V30 1293 O 125.778 0.81598 1.76225 0
M  V30 1294 C 122.908 1.82605 2.95419 0
M  V30 1295 C 121.862 2.97835 3.07373 0
M  V30 1296 C 121.188 2.92867 4.47363 0
M  V30 1297 C 122.488 4.38265 2.84114 0
M  V30 1298 H 124.182 2.65267 1.38829 0
M  V30 1299 H 121.728 1.2765 0.666441 0
M  V30 1300 H 123.681 1.96698 3.72677 0
M  V30 1301 H 122.405 0.866858 3.14886 0
M  V30 1302 H 121.064 2.83401 2.3255 0
M  V30 1303 H 120.712 1.94783 4.63755 0
M  V30 1304 H 120.412 3.70227 4.56296 0
M  V30 1305 H 121.936 3.09015 5.26633 0
M  V30 1306 H 123.35 4.53198 3.51118 0
M  V30 1307 H 121.747 5.17115 3.04487 0
M  V30 1308 H 122.817 4.50281 1.7993 0
M  V30 1309 N 124.16 -0.719506 1.40217 0
M  V30 1310 C 125.123 -1.8153 1.39927 0
M  V30 1311 C 126.123 -1.58095 0.293723 0
M  V30 1312 O 127.313 -1.65209 0.552429 0
M  V30 1313 C 124.445 -3.19561 1.18716 0
M  V30 1314 H 125.638 -1.83186 2.37451 0
M  V30 1315 H 123.191 -0.924746 1.26008 0
M  V30 1316 H 123.926 -3.23557 0.219366 0
M  V30 1317 H 123.711 -3.3797 1.98793 0
M  V30 1318 H 125.201 -3.99598 1.21291 0
M  V30 1319 N 125.638 -1.25649 -0.95132 0
M  V30 1320 C 126.885 -1.10594 -1.69633 0
M  V30 1321 C 127.213 0.352515 -1.91279 0
M  V30 1322 O 126.468 1.27601 -1.4838 0
M  V30 1323 C 126.767 -1.80909 -3.08231 0
M  V30 1324 C 126.433 -3.30825 -3.06375 0
M  V30 1325 C 125.095 -3.71722 -3.05576 0
M  V30 1326 C 127.447 -4.26589 -2.99452 0
M  V30 1327 C 124.775 -5.06788 -2.95606 0
M  V30 1328 C 127.127 -5.61683 -2.91024 0
M  V30 1329 C 125.791 -6.01904 -2.88562 0
M  V30 1330 H 125.061 -0.404691 -0.620731 0
M  V30 1331 H 127.708 -1.55964 -1.11119 0
M  V30 1332 H 126.013 -1.27979 -3.70309 0
M  V30 1333 H 127.71 -1.6671 -3.64704 0
M  V30 1334 H 124.3 -2.98287 -3.07771 0
M  V30 1335 H 128.484 -3.95982 -2.99185 0
M  V30 1336 H 123.74 -5.37126 -2.92071 0
M  V30 1337 H 127.914 -6.35578 -2.84629 0
M  V30 1338 H 125.541 -7.06521 -2.80593 0
M  V30 1339 N 127.117 1.15442 -1.07289 0
M  V30 1340 C 128.08 2.18358 -0.696591 0
M  V30 1341 C 129.08 1.58637 0.262837 0
M  V30 1342 O 130.27 1.74145 0.0438809 0
M  V30 1343 C 127.402 3.4089 -0.0266151 0
M  V30 1344 H 128.595 2.53162 -1.60776 0
M  V30 1345 H 126.148 1.29893 -0.869342 0
M  V30 1346 H 126.883 3.11653 0.896822 0
M  V30 1347 H 126.668 3.85495 -0.716657 0
M  V30 1348 H 128.158 4.17009 0.222028 0
M  V30 1349 N 128.595 0.856903 1.32268 0
M  V30 1350 C 129.842 0.461386 1.97174 0
M  V30 1351 C 130.17 -0.983491 1.67803 0
M  V30 1352 O 129.425 -1.70541 0.959903 0
M  V30 1353 C 129.724 0.649919 3.51441 0
M  V30 1354 C 129.39 2.0656 4.00804 0
M  V30 1355 C 128.052 2.45279 4.13995 0
M  V30 1356 C 130.404 2.98947 4.26943 0
M  V30 1357 C 127.732 3.75653 4.50668 0
M  V30 1358 C 130.084 4.28822 4.65075 0
M  V30 1359 C 128.748 4.67472 4.76472 0
M  V30 1360 H 128.018 0.168833 0.72151 0
M  V30 1361 H 130.665 1.08739 1.57633 0
M  V30 1362 H 128.97 -0.0593018 3.91755 0
M  V30 1363 H 130.667 0.32391 3.9969 0
M  V30 1364 H 127.257 1.75495 3.91024 0
M  V30 1365 H 131.441 2.70265 4.16258 0
M  V30 1366 H 126.697 4.05379 4.57688 0
M  V30 1367 H 130.871 5.0047 4.84255 0
M  V30 1368 H 128.498 5.68539 5.04646 0
M  V30 1369 N 130.073 -1.45103 0.615059 0
M  V30 1370 C 131.321 -2.01784 0.112955 0
M  V30 1371 C 131.642 -1.48504 -1.26378 0
M  V30 1372 O 130.912 -0.682245 -1.83636 0
M  V30 1373 H 129.492 -0.745993 0.0387668 0
M  V30 1374 H 132.154 -1.77808 0.798141 0
M  V30 1375 H 131.25 -3.12025 0.0684069 0
M  V30 1376 N 131.551 -0.354651 -1.53558 0
M  V30 1377 C 132.781 0.239167 -2.05211 0
M  V30 1378 C 133.189 1.43879 -1.22863 0
M  V30 1379 O 132.532 1.81857 -0.259565 0
M  V30 1380 C 132.594 0.707251 -3.52474 0
M  V30 1381 C 132.258 -0.374212 -4.55465 0
M  V30 1382 C 133.255 -1.22054 -5.0537 0
M  V30 1383 C 130.94 -0.531323 -4.99482 0
M  V30 1384 C 132.934 -2.20942 -5.97882 0
M  V30 1385 C 130.621 -1.52358 -5.91802 0
M  V30 1386 C 131.619 -2.36108 -6.40892 0
M  V30 1387 O 131.307 -3.33643 -7.31394 0
M  V30 1388 H 131.039 0.0479716 -0.674296 0
M  V30 1389 H 133.593 -0.508121 -1.99016 0
M  V30 1390 H 131.823 1.50596 -3.56171 0
M  V30 1391 H 133.512 1.22285 -3.87042 0
M  V30 1392 H 134.278 -1.1103 -4.7212 0
M  V30 1393 H 130.157 0.110738 -4.60867 0
M  V30 1394 H 133.701 -2.86348 -6.36121 0
M  V30 1395 H 129.598 -1.63434 -6.24467 0
M  V30 1396 H 130.366 -3.29244 -7.4936 0
M  V30 1397 N 133.029 1.57378 -0.0835403 0
M  V30 1398 C 133.961 2.10389 0.909338 0
M  V30 1399 C 134.974 1.03858 1.25369 0
M  V30 1400 O 136.163 1.31338 1.20882 0
M  V30 1401 C 133.263 2.55908 2.2218 0
M  V30 1402 C 132.436 3.86145 2.05453 0
M  V30 1403 C 131.495 4.17633 3.20108 0
M  V30 1404 O 130.521 4.87043 2.94581 0
M  V30 1405 N 131.723 3.72113 4.45547 0
M  V30 1406 H 134.488 2.962 0.456657 0
M  V30 1407 H 132.049 1.61579 0.101877 0
M  V30 1408 H 134.041 2.74027 2.97811 0
M  V30 1409 H 132.611 1.75171 2.58909 0
M  V30 1410 H 131.831 3.7729 1.1422 0
M  V30 1411 H 133.119 4.7137 1.91541 0
M  V30 1412 H 132.517 3.16062 4.69171 0
M  V30 1413 H 131.074 3.95409 5.18165 0
M  V30 1414 N 134.507 -0.190092 1.56449 0
M  V30 1415 C 135.918 -0.754312 1.70784 0
M  V30 1416 C 136.269 -1.83631 0.690951 0
M  V30 1417 O 135.394 -2.15868 -0.151604 0
M  V30 1418 C 135.989 -1.37503 3.09642 0
M  V30 1419 C 134.548 -1.88628 3.25725 0
M  V30 1420 C 133.695 -0.758098 2.66736 0
M  V30 1421 H 136.646 0.0350524 1.58661 0
M  V30 1422 H 136.667 -2.2445 3.0725 0
M  V30 1423 H 136.179 -0.587302 3.83631 0
M  V30 1424 H 134.28 -2.70103 2.56661 0
M  V30 1425 H 134.393 -2.04462 4.3328 0
M  V30 1426 H 132.757 -1.17369 2.26046 0
M  V30 1427 H 133.54 0.0174705 3.43296 0
M  V30 1428 N 135.985 -1.50799 -0.457987 0
M  V30 1429 C 136.933 -1.71162 -1.575 0
M  V30 1430 C 137.927 -0.577592 -1.59249 0
M  V30 1431 O 139.133 -0.758443 -1.63241 0
M  V30 1432 H 135.508 -0.540468 -0.522875 0
M  V30 1433 H 137.479 -2.64837 -1.37492 0
M  V30 1434 C 136.228 -1.83496 -2.95338 0
M  V30 1435 H 135.551 -2.70153 -2.94716 0
M  V30 1436 H 136.991 -2.01765 -3.72917 0
M  V30 1437 C 135.45 -0.589694 -3.31699 0
M  V30 1438 O 135.98 0.265163 -4.00824 0
M  V30 1439 N 134.186 -0.439845 -2.87252 0
M  V30 1440 H 133.733 -1.13655 -2.31172 0
M  V30 1441 H 133.691 0.392159 -3.11945 0
M  V30 1442 N 137.463 0.71206 -1.40597 0
M  V30 1443 C 138.874 1.29135 -1.34837 0
M  V30 1444 C 139.225 1.96186 -0.0235395 0
M  V30 1445 O 138.35 1.97768 0.878444 0
M  V30 1446 C 138.945 2.34827 -2.44217 0
M  V30 1447 C 137.504 2.88371 -2.41907 0
M  V30 1448 C 136.651 1.62202 -2.24913 0
M  V30 1449 H 139.602 0.507944 -1.50352 0
M  V30 1450 H 139.623 3.15749 -2.12327 0
M  V30 1451 H 139.135 1.85996 -3.40627 0
M  V30 1452 H 137.236 3.41422 -1.49204 0
M  V30 1453 H 137.349 3.39925 -3.37621 0
M  V30 1454 H 135.713 1.874 -1.72492 0
M  V30 1455 H 136.496 1.15391 -3.23326 0
M  V30 1456 N 138.941 1.26152 0.944643 0
M  V30 1457 C 140.19 1.10883 1.68487 0
M  V30 1458 C 140.503 -0.348153 1.92477 0
M  V30 1459 O 141.709 -0.621459 2.64292 0
M  V30 1460 C 140.165 1.93624 3.03377 0
M  V30 1461 C 139.773 3.43875 2.87148 0
M  V30 1462 C 141.517 1.86954 3.81115 0
M  V30 1463 C 139.424 4.18875 4.1749 0
M  V30 1464 H 138.354 0.41135 0.631907 0
M  V30 1465 H 141.005 1.50433 1.05082 0
M  V30 1466 H 139.387 1.46904 3.67743 0
M  V30 1467 H 140.561 3.98338 2.31653 0
M  V30 1468 H 138.876 3.51744 2.22856 0
M  V30 1469 H 141.473 2.40275 4.77673 0
M  V30 1470 H 141.816 0.839518 4.07747 0
M  V30 1471 H 142.349 2.31477 3.23517 0
M  V30 1472 H 139.088 5.22332 3.96043 0
M  V30 1473 H 138.608 3.69193 4.72712 0
M  V30 1474 H 140.287 4.27134 4.85968 0
M  V30 1475 N 140.419 -1.14872 1.07899 0
M  V30 1476 C 141.329 -2.2341 0.715915 0
M  V30 1477 C 142.345 -1.71808 -0.275306 0
M  V30 1478 O 143.521 -2.01039 -0.120545 0
M  V30 1479 C 140.586 -3.46474 0.125168 0
M  V30 1480 C 139.647 -4.13039 1.17034 0
M  V30 1481 C 138.88 -5.30229 0.607688 0
M  V30 1482 O 139.103 -5.675 -0.574497 0
M  V30 1483 O 138.037 -5.86444 1.35526 0
M  V30 1484 H 141.863 -2.56808 1.62121 0
M  V30 1485 H 139.448 -1.22702 0.852322 0
M  V30 1486 H 141.33 -4.20917 -0.201729 0
M  V30 1487 H 140.005 -3.14811 -0.753364 0
M  V30 1488 H 138.912 -3.40493 1.54968 0
M  V30 1489 H 140.245 -4.48796 2.02097 0
M  V30 1490 N 141.898 -0.863906 -1.31812 0
M  V30 1491 C 143.144 -0.472535 -1.97218 0
M  V30 1492 C 143.477 0.971394 -1.68159 0
M  V30 1493 O 142.752 1.68309 -0.974798 0
M  V30 1494 C 143.035 -0.723054 -3.52766 0
M  V30 1495 C 142.888 -2.21608 -3.91421 0
M  V30 1496 C 144.207 -0.185522 -4.39709 0
M  V30 1497 H 141.326 -0.173158 -0.71637 0
M  V30 1498 H 143.968 -1.08403 -1.56041 0
M  V30 1499 H 142.118 -0.202577 -3.87971 0
M  V30 1500 H 143.79 -2.80334 -3.66347 0
M  V30 1501 H 142.033 -2.691 -3.40246 0
M  V30 1502 H 142.704 -2.34203 -4.99853 0
M  V30 1503 H 145.18 -0.630726 -4.11292 0
M  V30 1504 H 144.056 -0.390306 -5.47511 0
M  V30 1505 H 144.317 0.912229 -4.32586 0
M  V30 1506 N 143.376 1.44774 -0.622745 0
M  V30 1507 C 144.787 1.85546 -0.207226 0
M  V30 1508 C 145.138 1.52093 1.23944 0
M  V30 1509 O 144.263 0.95492 1.94191 0
M  V30 1510 C 144.858 3.36781 -0.369313 0
M  V30 1511 C 143.417 3.76399 -0.00836847 0
M  V30 1512 C 142.564 2.68664 -0.686651 0
M  V30 1513 H 145.515 1.3536 -0.828454 0
M  V30 1514 H 145.536 3.78453 0.394162 0
M  V30 1515 H 145.048 3.61098 -1.42231 0
M  V30 1516 H 143.149 3.57698 1.04322 0
M  V30 1517 H 143.262 4.7732 -0.412584 0
M  V30 1518 H 141.626 2.54404 -0.122777 0
M  V30 1519 H 142.409 2.95815 -1.74208 0
M  V30 1520 N 144.854 0.36279 1.53368 0
M  V30 1521 C 145.786 -0.519668 2.23231 0
M  V30 1522 C 146.799 -1.04844 1.24546 0
M  V30 1523 O 147.988 -0.955296 1.50786 0
M  V30 1524 C 145.088 -1.72995 2.9142 0
M  V30 1525 C 144.261 -1.33316 4.16588 0
M  V30 1526 C 143.32 -2.40521 4.68013 0
M  V30 1527 O 142.346 -2.03027 5.3176 0
M  V30 1528 N 143.548 -3.72065 4.45587 0
M  V30 1529 H 146.313 0.078751 2.99597 0
M  V30 1530 H 143.874 0.187833 1.60807 0
M  V30 1531 H 145.866 -2.44184 3.22733 0
M  V30 1532 H 144.436 -2.2353 2.18525 0
M  V30 1533 H 143.656 -0.451236 3.91609 0
M  V30 1534 H 144.944 -1.04432 4.97967 0
M  V30 1535 H 144.342 -4.05304 3.94646 0
M  V30 1536 H 142.899 -4.39366 4.81457 0
M  V30 1537 N 146.332 -1.57332 0.0918853 0
M  V30 1538 C 147.58 -1.93853 -0.571446 0
M  V30 1539 C 147.901 -0.974212 -1.6892 0
M  V30 1540 O 147.171 -0.0257254 -1.95883 0
M  V30 1541 H 145.751 -0.715666 -0.214082 0
M  V30 1542 H 148.413 -1.94287 0.154464 0
M  V30 1543 H 147.509 -2.96191 -0.983729 0
M  V30 1544 N 147.81 0.181792 -1.56548 0
M  V30 1545 C 148.773 1.20894 -1.94724 0
M  V30 1546 C 149.773 1.37738 -0.829747 0
M  V30 1547 O 150.963 1.35323 -1.09697 0
M  V30 1548 C 148.095 2.57593 -2.23291 0
M  V30 1549 H 149.288 0.882275 -2.86629 0
M  V30 1550 H 146.841 0.423838 -1.50444 0
M  V30 1551 H 147.576 2.95291 -1.34067 0
M  V30 1552 H 147.361 2.46735 -3.04736 0
M  V30 1553 H 148.851 3.31637 -2.53785 0
M  V30 1554 N 149.288 1.51039 0.449983 0
M  V30 1555 C 150.198 1.74261 1.57067 0
M  V30 1556 C 151.214 0.626363 1.62335 0
M  V30 1557 O 152.39 0.907162 1.79812 0
M  V30 1558 C 149.455 1.85114 2.93144 0
M  V30 1559 C 148.516 3.0893 2.98095 0
M  V30 1560 C 147.749 3.19256 4.27681 0
M  V30 1561 O 147.972 2.35835 5.19363 0
M  V30 1562 O 146.906 4.12144 4.38658 0
M  V30 1563 H 150.732 2.69303 1.40391 0
M  V30 1564 H 148.317 1.35389 0.631688 0
M  V30 1565 H 150.199 1.94311 3.73926 0
M  V30 1566 H 148.874 0.932588 3.09975 0
M  V30 1567 H 147.781 3.0522 2.16314 0
M  V30 1568 H 149.114 4.00433 2.86206 0
M  V30 1569 N 150.766 -0.704594 1.40972 0
M  V30 1570 C 152.015 -1.46018 1.39146 0
M  V30 1571 C 152.328 -1.956 0.000589254 0
M  V30 1572 O 153.534 -2.71137 -0.1403 0
M  V30 1573 C 151.99 -2.63996 2.4461 0
M  V30 1574 C 151.598 -2.21238 3.89561 0
M  V30 1575 C 153.342 -3.41677 2.51907 0
M  V30 1576 C 151.249 -3.3612 4.86598 0
M  V30 1577 H 150.179 -0.548444 0.517422 0
M  V30 1578 H 152.83 -0.765784 1.66757 0
M  V30 1579 H 151.212 -3.3566 2.10115 0
M  V30 1580 H 152.386 -1.56923 4.33257 0
M  V30 1581 H 150.701 -1.56574 3.85841 0
M  V30 1582 H 153.298 -4.27182 3.2159 0
M  V30 1583 H 153.641 -3.86247 1.55303 0
M  V30 1584 H 154.174 -2.77064 2.85448 0
M  V30 1585 H 150.913 -2.96572 5.84573 0
M  V30 1586 H 150.433 -3.99315 4.47557 0
M  V30 1587 H 152.112 -4.02029 5.06934 0
M  V30 1588 N 152.244 -1.26651 -0.937939 0
M  V30 1589 C 153.49 -1.12553 -1.687 0
M  V30 1590 C 153.823 0.329782 -1.91379 0
M  V30 1591 O 153.098 1.24202 -1.4968 0
M  V30 1592 C 153.381 -1.89862 -3.05981 0
M  V30 1593 C 153.234 -3.43318 -2.90607 0
M  V30 1594 C 154.553 -1.69499 -4.0615 0
M  V30 1595 H 151.672 -0.410257 -0.612257 0
M  V30 1596 H 154.314 -1.55685 -1.08913 0
M  V30 1597 H 152.464 -1.53204 -3.57017 0
M  V30 1598 H 154.136 -3.89747 -2.46769 0
M  V30 1599 H 152.379 -3.70179 -2.26164 0
M  V30 1600 H 153.05 -3.92642 -3.8799 0
M  V30 1601 H 155.526 -2.01442 -3.64088 0
M  V30 1602 H 154.402 -2.26002 -5.00214 0
M  V30 1603 H 154.663 -0.640365 -4.37438 0
M  V30 1604 N 153.722 1.14298 -1.08507 0
M  V30 1605 C 154.969 1.85359 -0.815373 0
M  V30 1606 C 155.297 1.83001 0.658865 0
M  V30 1607 O 154.552 1.25655 1.50031 0
M  V30 1608 C 154.851 3.33547 -1.28379 0
M  V30 1609 C 154.517 3.56093 -2.76602 0
M  V30 1610 C 153.179 3.61955 -3.17084 0
M  V30 1611 C 155.531 3.64834 -3.72217 0
M  V30 1612 C 152.859 3.74082 -4.51973 0
M  V30 1613 C 155.211 3.78487 -5.06883 0
M  V30 1614 C 153.875 3.82598 -5.46969 0
M  V30 1615 H 153.145 0.678276 -0.298366 0
M  V30 1616 H 155.792 1.35002 -1.35819 0
M  V30 1617 H 154.097 3.86191 -0.660593 0
M  V30 1618 H 155.794 3.86959 -1.05186 0
M  V30 1619 H 152.384 3.52179 -2.4427 0
M  V30 1620 H 156.568 3.59595 -3.42061 0
M  V30 1621 H 151.824 3.75527 -4.82483 0
M  V30 1622 H 155.998 3.84193 -5.80834 0
M  V30 1623 H 153.625 3.91747 -6.51489 0
M  V30 1624 N 155.201 0.870884 1.31352 0
M  V30 1625 C 156.148 0.325425 2.28494 0
M  V30 1626 C 157.118 -0.576615 1.5577 0
M  V30 1627 O 158.303 -0.508059 1.83911 0
M  V30 1628 C 155.443 -0.466283 3.41935 0
M  V30 1629 C 154.556 0.463378 4.29508 0
M  V30 1630 C 153.691 -0.342544 5.30094 0
M  V30 1631 C 152.73 0.583486 6.09313 0
M  V30 1632 N 151.867 -0.186244 7.01853 0
M  V30 1633 H 156.707 1.15901 2.74538 0
M  V30 1634 H 154.244 0.58294 1.35056 0
M  V30 1635 H 156.202 -0.941085 4.06447 0
M  V30 1636 H 154.832 -1.26456 2.97 0
M  V30 1637 H 153.884 1.05663 3.65431 0
M  V30 1638 H 155.196 1.1734 4.84802 0
M  V30 1639 H 154.35 -0.879816 6.00287 0
M  V30 1640 H 153.089 -1.08585 4.75458 0
M  V30 1641 H 152.094 1.13251 5.3801 0
M  V30 1642 H 153.319 1.32566 6.66035 0
M  V30 1643 H 151.265 -0.912348 6.49625 0
M  V30 1644 H 151.182 0.464422 7.54572 0
M  V30 1645 H 152.45 -0.704716 7.76308 0
M  V30 1646 N 156.679 -1.44442 0.630414 0
M  V30 1647 C 157.928 -2.01267 0.132073 0
M  V30 1648 C 158.241 -1.50172 -1.25331 0
M  V30 1649 O 159.447 -1.9912 -1.84562 0
M  V30 1650 C 157.903 -3.59422 0.185362 0
M  V30 1651 C 157.511 -4.19514 1.57201 0
M  V30 1652 C 159.255 -4.23724 -0.256553 0
M  V30 1653 C 157.162 -5.69891 1.58045 0
M  V30 1654 H 156.092 -0.752619 0.0456092 0
M  V30 1655 H 158.743 -1.65666 0.789106 0
M  V30 1656 H 157.125 -3.92318 -0.538759 0
M  V30 1657 H 158.299 -3.98156 2.31966 0
M  V30 1658 H 156.614 -3.67496 1.95795 0
M  V30 1659 H 159.211 -5.34019 -0.269767 0
M  V30 1660 H 159.554 -3.96013 -1.28372 0
M  V30 1661 H 160.087 -3.95629 0.41505 0
M  V30 1662 H 156.826 -6.02336 2.58597 0
M  V30 1663 H 156.346 -5.93373 0.875725 0
M  V30 1664 H 158.025 -6.33515 1.31408 0
M  V30 1665 N 158.157 -0.370918 -1.53173 0
M  V30 1666 C 159.385 0.217704 -2.05751 0
M  V30 1667 C 159.8 1.42018 -1.24404 0
M  V30 1668 O 159.157 1.80245 -0.286033 0
M  V30 1669 C 159.208 0.605954 -3.56385 0
M  V30 1670 O 158.929 -0.548734 -4.3465 0
M  V30 1671 C 160.43 1.2524 -4.25241 0
M  V30 1672 H 157.65 0.0371659 -0.66997 0
M  V30 1673 H 160.194 -0.530832 -1.9749 0
M  V30 1674 H 158.349 1.3044 -3.6478 0
M  V30 1675 H 158.763 -0.23376 -5.23979 0
M  V30 1676 H 160.237 1.47458 -5.3194 0
M  V30 1677 H 160.714 2.2143 -3.79296 0
M  V30 1678 H 161.32 0.595233 -4.21114 0
M  V30 1679 N 159.635 1.57281 -0.100228 0
M  V30 1680 C 160.86 1.99302 0.573881 0
M  V30 1681 C 161.285 0.979059 1.60611 0
M  V30 1682 O 160.643 -0.0517803 1.81226 0
M  V30 1683 C 160.691 3.40274 1.19358 0
M  V30 1684 O 159.795 3.41676 2.30935 0
M  V30 1685 H 159.136 0.647944 0.145138 0
M  V30 1686 H 161.666 2.03779 -0.183156 0
M  V30 1687 H 161.676 3.78078 1.53365 0
M  V30 1688 H 160.351 4.13594 0.437385 0
M  V30 1689 H 158.928 3.15672 1.98509 0
M  V30 1690 N 161.113 -0.173488 1.56642 0
M  V30 1691 C 162.524 -0.736155 1.71574 0
M  V30 1692 C 162.875 -1.82888 0.710389 0
M  V30 1693 O 162 -2.16017 -0.1287 0
M  V30 1694 C 162.595 -1.34211 3.11083 0
M  V30 1695 C 161.154 -1.85162 3.27707 0
M  V30 1696 C 160.301 -0.729765 2.67525 0
M  V30 1697 H 163.252 0.0518786 1.58615 0
M  V30 1698 H 163.273 -2.21178 3.09613 0
M  V30 1699 H 162.785 -0.546579 3.84232 0
M  V30 1700 H 160.886 -2.67366 2.59512 0
M  V30 1701 H 160.999 -1.99855 4.35425 0
M  V30 1702 H 159.363 -1.14965 2.27278 0
M  V30 1703 H 160.146 0.0538806 3.43258 0
M  V30 1704 N 162.591 -1.51276 -0.441967 0
M  V30 1705 C 163.868 -1.54252 -1.20273 0
M  V30 1706 C 164.248 -0.30408 -2.08898 0
M  V30 1707 O 163.596 0.711084 -2.17154 0
M  V30 1708 C 163.806 -2.85406 -2.00859 0
M  V30 1709 C 165.154 -3.37181 -2.58059 0
M  V30 1710 O 166.178 -2.86925 -2.11074 0
M  V30 1711 O 165.037 -4.24858 -3.43741 0
M  V30 1712 H 162.131 -0.619969 -0.547328 0
M  V30 1713 H 164.677 -1.63586 -0.451413 0
M  V30 1714 H 163.449 -3.67003 -1.35736 0
M  V30 1715 H 163.072 -2.79213 -2.83065 0
M  V30 1716 N 164.069 0.697108 -1.41344 0
M  V30 1717 C 165.315 1.4593 -1.40827 0
M  V30 1718 C 165.648 1.94193 -0.0167098 0
M  V30 1719 O 164.923 1.69425 0.955263 0
M  V30 1720 C 165.206 2.67229 -2.41373 0
M  V30 1721 C 165.059 2.24741 -3.8963 0
M  V30 1722 C 166.378 3.69423 -2.39196 0
M  V30 1723 H 163.497 0.529303 -0.512842 0
M  V30 1724 H 166.139 0.794112 -1.72609 0
M  V30 1725 H 164.289 3.23982 -2.14401 0
M  V30 1726 H 165.961 1.73327 -4.27499 0
M  V30 1727 H 164.204 1.56542 -4.0457 0
M  V30 1728 H 164.875 3.1177 -4.55525 0
M  V30 1729 H 167.351 3.2234 -2.63128 0
M  V30 1730 H 166.227 4.51907 -3.11563 0
M  V30 1731 H 166.488 4.19012 -1.41001 0
M  V30 1732 N 165.547 1.27147 0.931209 0
M  V30 1733 C 166.796 1.12664 1.67302 0
M  V30 1734 C 167.109 -0.327718 1.92835 0
M  V30 1735 O 168.315 -0.593392 2.64936 0
M  V30 1736 C 166.771 1.9683 3.01307 0
M  V30 1737 C 166.379 3.46901 2.83485 0
M  V30 1738 C 168.123 1.90985 3.79111 0
M  V30 1739 C 166.03 4.23279 4.13024 0
M  V30 1740 H 164.96 0.41803 0.627509 0
M  V30 1741 H 167.611 1.51539 1.03481 0
M  V30 1742 H 165.993 1.50797 3.66164 0
M  V30 1743 H 167.167 4.00773 2.27415 0
M  V30 1744 H 165.482 3.54088 2.19113 0
M  V30 1745 H 168.079 2.45328 4.75098 0
M  V30 1746 H 168.422 0.882718 4.06834 0
M  V30 1747 H 168.955 2.34895 3.21044 0
M  V30 1748 H 165.694 5.26503 3.90481 0
M  V30 1749 H 165.214 3.74186 4.6877 0
M  V30 1750 H 166.893 4.32265 4.81411 0
M  V30 1751 N 167.025 -1.13721 1.09112 0
M  V30 1752 C 167.975 -2.17082 0.697091 0
M  V30 1753 C 168.959 -1.58321 -0.286923 0
M  V30 1754 O 170.151 -1.7673 -0.0978008 0
M  V30 1755 C 167.28 -3.43105 0.115729 0
M  V30 1756 C 166.366 -4.0888 1.12596 0
M  V30 1757 N 166.757 -4.4987 2.31195 0
M  V30 1758 C 165.055 -4.35471 0.963366 0
M  V30 1759 C 165.756 -5.01094 2.95431 0
M  V30 1760 N 164.732 -4.95751 2.23006 0
M  V30 1761 H 168.534 -2.46524 1.6001 0
M  V30 1762 H 166.048 -1.30481 0.966869 0
M  V30 1763 H 168.045 -4.16491 -0.184555 0
M  V30 1764 H 166.705 -3.15138 -0.78217 0
M  V30 1765 H 167.716 -4.42678 2.68806 0
M  V30 1766 H 164.393 -4.17328 0.119878 0
M  V30 1767 H 165.783 -5.4263 3.96236 0
M  V30 1768 N 168.503 -0.877838 -1.30888 0
M  V30 1769 C 169.751 -0.491723 -1.96027 0
M  V30 1770 C 170.072 0.960827 -1.69685 0
M  V30 1771 O 169.342 1.67462 -1.01654 0
M  V30 1772 H 167.922 -0.17885 -0.725273 0
M  V30 1773 H 170.584 -1.11935 -1.59551 0
M  V30 1774 H 169.68 -0.656016 -3.05128 0
M  V30 1775 N 169.982 1.44106 -0.638065 0
M  V30 1776 C 171.229 2.01978 -0.14533 0
M  V30 1777 C 171.557 1.50234 1.23532 0
M  V30 1778 O 170.812 0.679548 1.83523 0
M  V30 1779 C 171.111 3.5729 -0.0887327 0
M  V30 1780 C 170.777 4.28317 -1.40909 0
M  V30 1781 C 169.439 4.47437 -1.77069 0
M  V30 1782 C 171.791 4.6867 -2.28031 0
M  V30 1783 C 169.119 5.04171 -3.00047 0
M  V30 1784 C 171.471 5.26766 -3.50286 0
M  V30 1785 C 170.135 5.44104 -3.86661 0
M  V30 1786 H 169.405 0.739089 -0.0531801 0
M  V30 1787 H 172.052 1.72781 -0.825761 0
M  V30 1788 H 170.357 3.8594 0.675095 0
M  V30 1789 H 172.054 3.99807 0.309145 0
M  V30 1790 H 168.644 4.1377 -1.1177 0
M  V30 1791 H 172.828 4.53604 -2.01388 0
M  V30 1792 H 168.084 5.15782 -3.28298 0
M  V30 1793 H 172.258 5.56983 -4.18023 0
M  V30 1794 H 169.885 5.87832 -4.82034 0
M  V30 1795 N 171.46 0.379036 1.52974 0
M  V30 1796 C 172.41 -0.477772 2.22938 0
M  V30 1797 C 173.394 -1.03792 1.22948 0
M  V30 1798 O 174.586 -0.965725 1.48333 0
M  V30 1799 C 171.715 -1.60994 3.03209 0
M  V30 1800 C 170.801 -1.06203 4.10587 0
M  V30 1801 N 171.192 -0.238214 5.05239 0
M  V30 1802 C 169.49 -1.33554 4.25534 0
M  V30 1803 C 170.191 0.0633235 5.81666 0
M  V30 1804 N 169.167 -0.537901 5.40932 0
M  V30 1805 H 172.969 0.158295 2.93473 0
M  V30 1806 H 170.483 0.187778 1.61311 0
M  V30 1807 H 172.48 -2.23607 3.5186 0
M  V30 1808 H 171.14 -2.24893 2.34207 0
M  V30 1809 H 172.151 0.123695 5.17752 0
M  V30 1810 H 168.828 -1.97632 3.6776 0
M  V30 1811 H 170.218 0.730161 6.67921 0
M  V30 1812 N 172.938 -1.57226 0.108567 0
M  V30 1813 C 174.184 -1.95121 -0.552761 0
M  V30 1814 C 174.517 -0.991345 -1.66991 0
M  V30 1815 O 173.792 -0.0267211 -1.94482 0
M  V30 1816 C 174.075 -3.43039 -1.09528 0
M  V30 1817 C 173.928 -4.49797 0.0177332 0
M  V30 1818 C 175.247 -3.92567 -1.98945 0
M  V30 1819 H 172.366 -0.709496 -0.199461 0
M  V30 1820 H 175.008 -1.89126 0.182011 0
M  V30 1821 H 173.158 -3.48279 -1.72146 0
M  V30 1822 H 174.83 -4.56661 0.652584 0
M  V30 1823 H 173.073 -4.284 0.682309 0
M  V30 1824 H 173.744 -5.50528 -0.402919 0
M  V30 1825 H 176.22 -3.89565 -1.46214 0
M  V30 1826 H 175.096 -4.96605 -2.33827 0
M  V30 1827 H 175.357 -3.32648 -2.91201 0
M  V30 1828 N 174.416 0.165178 -1.56732 0
M  V30 1829 C 175.326 1.22423 -2.00125 0
M  V30 1830 C 176.342 1.48084 -0.913619 0
M  V30 1831 O 177.518 1.60112 -1.22172 0
M  V30 1832 C 174.583 2.54197 -2.35764 0
M  V30 1833 C 173.644 2.36343 -3.58386 0
M  V30 1834 C 172.877 3.61834 -3.92316 0
M  V30 1835 O 173.1 4.67267 -3.27135 0
M  V30 1836 O 172.034 3.55579 -4.85641 0
M  V30 1837 H 175.86 0.885886 -2.90492 0
M  V30 1838 H 173.445 0.372518 -1.44681 0
M  V30 1839 H 175.327 3.3192 -2.59629 0
M  V30 1840 H 174.002 2.87598 -1.48557 0
M  V30 1841 H 172.909 1.56632 -3.39731 0
M  V30 1842 H 174.242 2.07865 -4.46154 0
M  V30 1843 N 175.894 1.51508 0.433938 0
M  V30 1844 C 177.142 1.6402 1.18075 0
M  V30 1845 C 177.463 0.360328 1.91642 0
M  V30 1846 O 176.733 -0.623945 1.85698 0
M  V30 1847 H 175.313 0.6045 0.43885 0
M  V30 1848 H 177.975 1.88452 0.497178 0
M  V30 1849 H 177.071 2.46949 1.90847 0
M  V30 1850 N 177.372 -0.689602 1.41712 0
M  V30 1851 C 178.6 -1.47827 1.44758 0
M  V30 1852 C 179.015 -1.88721 0.0545703 0
M  V30 1853 O 178.372 -1.57176 -0.927463 0
M  V30 1854 C 178.423 -2.73698 2.3616 0
M  V30 1855 O 178.144 -2.34524 3.7004 0
M  V30 1856 C 179.645 -3.67389 2.48072 0
M  V30 1857 H 176.865 -0.455357 0.49284 0
M  V30 1858 H 179.409 -0.848574 1.86063 0
M  V30 1859 H 177.564 -3.32891 1.98148 0
M  V30 1860 H 177.978 -3.15701 4.18847 0
M  V30 1861 H 179.452 -4.52475 3.16181 0
M  V30 1862 H 179.929 -4.12284 1.51388 0
M  V30 1863 H 180.535 -3.14097 2.86746 0
M  V30 1864 N 178.85 -1.27639 -0.924453 0
M  V30 1865 C 179.798 -1.10485 -2.04685 0
M  V30 1866 C 180.792 -0.0270421 -1.69378 0
M  V30 1867 O 181.998 -0.185008 -1.79047 0
M  V30 1868 H 178.373 -0.340546 -0.670472 0
M  V30 1869 H 180.344 -2.05566 -2.16298 0
M  V30 1870 C 179.093 -0.772229 -3.39016 0
M  V30 1871 H 178.416 -1.59351 -3.66671 0
M  V30 1872 H 179.856 -0.692097 -4.18313 0
M  V30 1873 C 178.315 0.523554 -3.32807 0
M  V30 1874 O 178.845 1.55702 -3.70297 0
M  V30 1875 N 177.051 0.520363 -2.85903 0
M  V30 1876 H 176.598 -0.32107 -2.55591 0
M  V30 1877 H 176.556 1.38742 -2.82131 0
M  V30 1878 N 180.328 1.1314 -1.09713 0
M  V30 1879 C 181.577 1.83838 -0.829851 0
M  V30 1880 C 181.89 1.84599 0.646728 0
M  V30 1881 O 183.096 2.51218 1.02965 0
M  V30 1882 C 181.552 3.30069 -1.43466 0
M  V30 1883 C 181.16 3.37688 -2.94399 0
M  V30 1884 C 182.904 4.05788 -1.24645 0
M  V30 1885 C 180.811 4.78209 -3.47952 0
M  V30 1886 H 179.741 0.68877 -0.306777 0
M  V30 1887 H 182.392 1.27448 -1.3202 0
M  V30 1888 H 180.774 3.8628 -0.871996 0
M  V30 1889 H 181.948 2.91456 -3.56918 0
M  V30 1890 H 180.263 2.75436 -3.12289 0
M  V30 1891 H 182.86 5.09535 -1.62107 0
M  V30 1892 H 183.203 4.15878 -0.187357 0
M  V30 1893 H 183.736 3.55915 -1.77678 0
M  V30 1894 H 180.475 4.73311 -4.53495 0
M  V30 1895 H 179.995 5.24924 -2.90198 0
M  V30 1896 H 181.674 5.47133 -3.45332 0
M  V30 1897 N 181.806 0.884767 1.30421 0
M  V30 1898 C 182.754 0.340869 2.30089 0
M  V30 1899 C 183.748 -0.55201 1.60154 0
M  V30 1900 O 184.954 -0.436467 1.74628 0
M  V30 1901 H 181.329 0.0915739 0.746404 0
M  V30 1902 H 183.3 1.19513 2.73421 0
M  V30 1903 C 182.049 -0.429779 3.45034 0
M  V30 1904 H 181.372 0.248024 3.9903 0
M  V30 1905 H 182.812 -0.775445 4.16849 0
M  V30 1906 C 181.271 -1.62677 2.95022 0
M  V30 1907 O 181.801 -2.72614 2.95033 0
M  V30 1908 N 180.007 -1.46387 2.51036 0
M  V30 1909 H 179.554 -0.569506 2.51226 0
M  V30 1910 H 179.512 -2.26612 2.17932 0
M  V30 1911 N 183.284 -1.43765 0.645699 0
M  V30 1912 C 184.53 -2.02197 0.156271 0
M  V30 1913 C 184.863 -1.50776 -1.22393 0
M  V30 1914 O 184.138 -0.697771 -1.81553 0
M  V30 1915 C 184.421 -3.59749 0.158872 0
M  V30 1916 C 184.274 -4.21419 1.57245 0
M  V30 1917 C 185.593 -4.37149 -0.50879 0
M  V30 1918 H 182.712 -0.734694 0.0582602 0
M  V30 1919 H 185.354 -1.71157 0.824951 0
M  V30 1920 H 183.504 -3.86325 -0.410525 0
M  V30 1921 H 185.176 -4.059 2.19186 0
M  V30 1922 H 183.419 -3.78356 2.122 0
M  V30 1923 H 184.09 -5.30482 1.52619 0
M  V30 1924 H 186.566 -4.16093 -0.024412 0
M  V30 1925 H 185.442 -5.4683 -0.476213 0
M  V30 1926 H 185.703 -4.12839 -1.58165 0
M  V30 1927 N 184.763 -0.387143 -1.52771 0
M  V30 1928 C 185.673 0.456442 -2.30117 0
M  V30 1929 C 186.689 1.07342 -1.36944 0
M  V30 1930 O 187.865 1.07971 -1.70013 0
M  V30 1931 C 184.93 1.56957 -3.09136 0
M  V30 1932 C 183.991 0.977916 -4.18014 0
M  V30 1933 C 183.224 2.038 -4.93256 0
M  V30 1934 O 183.447 3.25271 -4.68567 0
M  V30 1935 O 182.381 1.6565 -5.78657 0
M  V30 1936 H 186.207 -0.17359 -3.03203 0
M  V30 1937 H 183.792 -0.150919 -1.48636 0
M  V30 1938 H 185.674 2.21628 -3.58412 0
M  V30 1939 H 184.349 2.18461 -2.38865 0
M  V30 1940 H 183.256 0.294525 -3.72939 0
M  V30 1941 H 184.589 0.407128 -4.90513 0
M  V30 1942 N 186.241 1.57166 -0.116904 0
M  V30 1943 C 187.487 1.95412 0.542405 0
M  V30 1944 C 187.82 1.00019 1.66463 0
M  V30 1945 O 187.095 0.0370346 1.94465 0
M  V30 1946 C 187.378 3.43615 1.07708 0
M  V30 1947 C 187.231 4.49781 -0.0415868 0
M  V30 1948 C 188.55 3.93616 1.96861 0
M  V30 1949 H 185.669 0.710543 0.195696 0
M  V30 1950 H 188.311 1.89027 -0.192038 0
M  V30 1951 H 186.461 3.49187 1.70296 0
M  V30 1952 H 188.133 4.56308 -0.676793 0
M  V30 1953 H 186.376 4.28033 -0.705019 0
M  V30 1954 H 187.047 5.50733 0.373717 0
M  V30 1955 H 189.523 3.90335 1.44146 0
M  V30 1956 H 188.399 4.97838 2.3119 0
M  V30 1957 H 188.66 3.34188 2.89432 0
M  V30 1958 N 187.719 -0.156864 1.56817 0
M  V30 1959 C 188.649 -1.19589 2.00551 0
M  V30 1960 C 189.63 -1.4536 0.883426 0
M  V30 1961 O 190.815 -1.56449 1.15054 0
M  V30 1962 C 187.945 -2.53143 2.37773 0
M  V30 1963 C 186.899 -2.41913 3.53075 0
M  V30 1964 C 186.225 -3.80088 3.76081 0
M  V30 1965 C 187.525 -1.91157 4.86062 0
M  V30 1966 H 189.219 -0.832293 2.87599 0
M  V30 1967 H 186.765 -0.398918 1.38364 0
M  V30 1968 H 188.718 -3.26047 2.66967 0
M  V30 1969 H 187.442 -2.91319 1.4765 0
M  V30 1970 H 186.101 -1.71462 3.24031 0
M  V30 1971 H 185.749 -4.15683 2.83225 0
M  V30 1972 H 185.449 -3.73439 4.53671 0
M  V30 1973 H 186.973 -4.54556 4.0769 0
M  V30 1974 H 188.387 -2.53846 5.14038 0
M  V30 1975 H 186.784 -1.95422 5.67389 0
M  V30 1976 H 187.854 -0.866673 4.77092 0
M  V30 1977 N 189.197 -1.51736 -0.425897 0
M  V30 1978 C 190.608 -1.5732 -1.00536 0
M  V30 1979 C 190.959 -0.403537 -1.92005 0
M  V30 1980 O 190.084 0.478256 -2.11049 0
M  V30 1981 C 190.679 -2.85119 -1.8301 0
M  V30 1982 C 189.238 -2.93236 -2.35987 0
M  V30 1983 C 188.385 -2.52098 -1.15508 0
M  V30 1984 H 191.336 -1.57348 -0.206739 0
M  V30 1985 H 191.357 -2.69526 -2.68581 0
M  V30 1986 H 190.869 -3.7023 -1.16411 0
M  V30 1987 H 188.97 -2.12581 -3.06007 0
M  V30 1988 H 189.083 -3.9713 -2.68001 0
M  V30 1989 H 187.447 -2.05558 -1.50393 0
M  V30 1990 H 188.23 -3.39565 -0.505014 0
M  V30 1991 N 190.675 0.682077 -1.42076 0
M  V30 1992 C 191.923 1.4393 -1.41876 0
M  V30 1993 C 192.244 1.94971 -0.0335599 0
M  V30 1994 O 191.514 1.72591 0.926773 0
M  V30 1995 H 190.094 0.534085 -0.522267 0
M  V30 1996 H 192.756 0.806427 -1.77434 0
M  V30 1997 H 191.852 2.29588 -2.11414 0
M  V30 1998 N 192.153 1.28127 0.917671 0
M  V30 1999 C 193.063 1.13556 2.05286 0
M  V30 2000 C 194.079 0.0630914 1.73886 0
M  V30 2001 O 195.255 0.271598 1.9956 0
M  V30 2002 C 192.32 0.794676 3.3747 0
M  V30 2003 C 191.381 1.94909 3.82504 0
M  V30 2004 C 190.614 1.62437 5.0838 0
M  V30 2005 O 190.837 0.536905 5.67867 0
M  V30 2006 O 189.771 2.46677 5.4903 0
M  V30 2007 H 193.597 2.08844 2.20495 0
M  V30 2008 H 191.182 1.07409 1.03845 0
M  V30 2009 H 193.064 0.618344 4.16839 0
M  V30 2010 H 191.739 -0.128581 3.23445 0
M  V30 2011 H 190.646 2.18055 3.03978 0
M  V30 2012 H 191.979 2.85291 4.01086 0
M  V30 2013 N 193.631 -1.12557 1.10312 0
M  V30 2014 C 194.877 -1.84311 0.846011 0
M  V30 2015 C 195.21 -1.83805 -0.626859 0
M  V30 2016 O 194.485 -1.28268 -1.46211 0
M  V30 2017 C 194.768 -3.32048 1.39341 0
M  V30 2018 C 194.621 -3.41016 2.93305 0
M  V30 2019 C 195.94 -4.27764 1.03468 0
M  V30 2020 H 193.059 -0.669192 0.30879 0
M  V30 2021 H 195.701 -1.32057 1.36605 0
M  V30 2022 H 193.851 -3.76678 0.951087 0
M  V30 2023 H 195.523 -3.05031 3.46055 0
M  V30 2024 H 193.766 -2.81603 3.29973 0
M  V30 2025 H 194.437 -4.44948 3.26689 0
M  V30 2026 H 196.913 -3.91253 1.41633 0
M  V30 2027 H 195.789 -5.29549 1.44463 0
M  V30 2028 H 196.05 -4.42064 -0.0560404 0
M  V30 2029 N 195.109 -0.891671 -1.2995 0
M  V30 2030 C 196.334 -0.527932 -2.00568 0
M  V30 2031 C 196.759 0.877969 -1.66353 0
M  V30 2032 O 196.117 1.58301 -0.883762 0
M  V30 2033 C 196.165 -0.717745 -3.53385 0
M  V30 2034 O 195.269 0.233376 -4.11739 0
M  V30 2035 H 194.61 -0.20722 -0.630837 0
M  V30 2036 H 197.14 -1.20105 -1.65638 0
M  V30 2037 H 197.15 -0.619307 -4.03272 0
M  V30 2038 H 195.825 -1.74276 -3.77625 0
M  V30 2039 H 194.402 0.0880706 -3.72796 0
M  V30 2040 N 196.587 1.43421 -0.653314 0
M  V30 2041 C 197.815 2.06163 -0.174491 0
M  V30 2042 C 198.23 1.48969 1.1599 0
M  V30 2043 O 197.587 0.621042 1.71608 0
M  V30 2044 C 197.638 3.61417 -0.0774865 0
M  V30 2045 O 197.359 4.16485 -1.35912 0
M  V30 2046 C 198.86 4.41235 0.427402 0
M  V30 2047 H 196.08 0.664946 -0.0899353 0
M  V30 2048 H 198.624 1.83924 -0.893988 0
M  V30 2049 H 196.779 3.82841 0.59257 0
M  V30 2050 H 197.193 5.10153 -1.21839 0
M  V30 2051 H 198.667 5.5021 0.44423 0
M  V30 2052 H 199.144 4.14268 1.45873 0
M  V30 2053 H 199.75 4.2478 -0.210167 0
M  V30 2054 N 198.065 0.39524 1.52563 0
M  V30 2055 C 199.311 -0.185318 2.01952 0
M  V30 2056 C 199.644 -1.45964 1.28095 0
M  V30 2057 O 198.919 -1.90689 0.38315 0
M  V30 2058 C 199.202 -0.447193 3.57312 0
M  V30 2059 C 199.055 0.842828 4.41833 0
M  V30 2060 C 200.374 -1.23529 4.22408 0
M  V30 2061 H 197.493 -0.0658788 0.73405 0
M  V30 2062 H 200.135 0.525975 1.82575 0
M  V30 2063 H 198.285 -1.05312 3.73954 0
M  V30 2064 H 199.957 1.4795 4.36931 0
M  V30 2065 H 198.2 1.45686 4.08605 0
M  V30 2066 H 198.871 0.614165 5.48573 0
M  V30 2067 H 201.347 -0.722445 4.0978 0
M  V30 2068 H 200.223 -1.38727 5.3108 0
M  V30 2069 H 200.484 -2.25213 3.80436 0
M  V30 2070 N 199.544 -1.57102 0.125237 0
M  V30 2071 C 200.96 -1.57915 -0.231322 0
M  V30 2072 C 201.16 -1.13833 -1.66266 0
M  V30 2073 O 200.216 -0.828581 -2.38518 0
M  V30 2074 C 201.529 -3.00699 0.00766489 0
M  V30 2075 C 203.077 -3.12947 -0.0577483 0
M  V30 2076 C 203.552 -4.57742 0.153626 0
M  V30 2077 N 205.043 -4.63092 0.0998073 0
M  V30 2078 C 205.778 -5.72905 0.238174 0
M  V30 2079 N 205.274 -6.91445 0.433057 0
M  V30 2080 N 207.067 -5.6182 0.177308 0
M  V30 2081 H 199.218 -1.84055 1.06007 0
M  V30 2082 H 201.481 -0.850905 0.417929 0
M  V30 2083 H 201.187 -3.3726 0.997431 0
M  V30 2084 H 201.061 -3.70236 -0.721452 0
M  V30 2085 H 203.448 -2.7624 -1.03804 0
M  V30 2086 H 203.529 -2.4594 0.70335 0
M  V30 2087 H 203.173 -4.95149 1.13092 0
M  V30 2088 H 203.103 -5.22848 -0.627534 0
M  V30 2089 H 205.594 -3.77871 -0.047051 0
M  V30 2090 H 205.907 -7.70985 0.529332 0
M  V30 2091 H 204.252 -6.93415 0.469109 0
M  V30 2092 H 207.443 -4.68093 0.0259748 0
M  V30 2093 H 207.616 -6.47357 0.288582 0
M  V30 2094 N 201.022 0.148545 -1.56898 0
M  V30 2095 C 202.252 0.875118 -1.8715 0
M  V30 2096 C 202.66 1.75322 -0.711262 0
M  V30 2097 O 202.003 1.80745 0.328151 0
M  V30 2098 C 202.065 1.7844 -3.12089 0
M  V30 2099 C 201.729 1.08361 -4.43967 0
M  V30 2100 C 202.726 0.438247 -5.1805 0
M  V30 2101 C 200.411 1.07358 -4.90693 0
M  V30 2102 C 202.405 -0.20779 -6.37061 0
M  V30 2103 C 200.092 0.42373 -6.09629 0
M  V30 2104 C 201.09 -0.215829 -6.82659 0
M  V30 2105 O 200.778 -0.855378 -7.99336 0
M  V30 2106 H 200.51 0.258504 -0.624621 0
M  V30 2107 H 203.064 0.14652 -2.04877 0
M  V30 2108 H 201.294 2.55389 -2.90367 0
M  V30 2109 H 202.983 2.38279 -3.286 0
M  V30 2110 H 203.749 0.437817 -4.8302 0
M  V30 2111 H 199.628 1.5608 -4.33774 0
M  V30 2112 H 203.172 -0.70758 -6.94002 0
M  V30 2113 H 199.069 0.421822 -6.4412 0
M  V30 2114 H 199.837 -0.756892 -8.14993 0
M  V30 2115 N 202.5 1.5196 0.417844 0
M  V30 2116 C 203.728 1.69426 1.18753 0
M  V30 2117 C 204.143 0.399955 1.84515 0
M  V30 2118 O 203.5 -0.623288 1.71527 0
M  V30 2119 C 203.551 2.82375 2.25714 0
M  V30 2120 O 203.272 4.06793 1.62638 0
M  V30 2121 C 204.773 3.11277 3.15628 0
M  V30 2122 H 201.993 0.568031 0.357186 0
M  V30 2123 H 204.537 1.98475 0.49273 0
M  V30 2124 H 202.692 2.5587 2.90877 0
M  V30 2125 H 203.106 4.69667 2.3348 0
M  V30 2126 H 204.58 3.93843 3.86771 0
M  V30 2127 H 205.057 2.24473 3.77503 0
M  V30 2128 H 205.663 3.39515 2.56144 0
M  V30 2129 N 203.978 -0.674533 1.42435 0
M  V30 2130 C 205.225 -1.43459 1.42919 0
M  V30 2131 C 205.553 -1.94446 0.0457312 0
M  V30 2132 O 204.808 -1.7132 -0.94593 0
M  V30 2133 C 205.107 -2.64767 2.40069 0
M  V30 2134 C 204.773 -2.3232 3.86443 0
M  V30 2135 C 203.435 -2.23182 4.26314 0
M  V30 2136 C 205.787 -2.05977 4.78773 0
M  V30 2137 C 203.115 -1.85827 5.56494 0
M  V30 2138 C 205.467 -1.70125 6.09295 0
M  V30 2139 C 204.131 -1.59498 6.48164 0
M  V30 2140 H 203.401 -0.524952 0.522978 0
M  V30 2141 H 206.048 -0.769097 1.75377 0
M  V30 2142 H 204.353 -3.36349 2.00939 0
M  V30 2143 H 206.05 -3.22949 2.37707 0
M  V30 2144 H 202.64 -2.40334 3.54877 0
M  V30 2145 H 206.824 -2.11969 4.48757 0
M  V30 2146 H 202.08 -1.76168 5.8547 0
M  V30 2147 H 206.254 -1.48767 6.80324 0
M  V30 2148 H 203.881 -1.30322 7.48946 0
M  V30 2149 N 205.456 -1.28612 -0.910864 0
M  V30 2150 C 206.403 -1.12786 -2.01365 0
M  V30 2151 C 207.373 -0.024201 -1.66082 0
M  V30 2152 O 208.558 -0.189667 -1.89855 0
M  V30 2153 C 205.698 -0.798743 -3.35729 0
M  V30 2154 C 204.811 -1.98173 -3.83864 0
M  V30 2155 C 203.946 -1.59298 -5.06752 0
M  V30 2156 C 202.985 -2.74245 -5.47226 0
M  V30 2157 N 202.122 -2.35842 -6.61304 0
M  V30 2158 H 206.962 -2.07142 -2.14234 0
M  V30 2159 H 204.499 -1.03093 -1.0493 0
M  V30 2160 H 206.457 -0.588662 -4.13026 0
M  V30 2161 H 205.087 0.10789 -3.2262 0
M  V30 2162 H 204.139 -2.30386 -3.02699 0
M  V30 2163 H 205.451 -2.84343 -4.09818 0
M  V30 2164 H 204.605 -1.34513 -5.916 0
M  V30 2165 H 203.344 -0.702618 -4.82612 0
M  V30 2166 H 202.349 -2.99725 -4.60918 0
M  V30 2167 H 203.574 -3.63928 -5.73353 0
M  V30 2168 H 201.52 -1.49279 -6.38789 0
M  V30 2169 H 201.437 -3.15546 -6.86998 0
M  V30 2170 H 202.705 -2.14348 -7.4945 0
M  V30 2171 N 206.934 1.1197 -1.10907 0
M  V30 2172 C 208.35 1.35591 -0.841852 0
M  V30 2173 C 208.55 1.94233 0.536246 0
M  V30 2174 O 207.606 2.1717 1.28816 0
M  V30 2175 C 208.919 2.29284 -1.94549 0
M  V30 2176 C 210.467 2.42862 -1.97451 0
M  V30 2177 C 210.942 3.39873 -3.07002 0
M  V30 2178 N 212.433 3.47433 -3.06341 0
M  V30 2179 C 213.168 4.22421 -3.87748 0
M  V30 2180 N 212.664 5.00432 -4.79103 0
M  V30 2181 N 214.457 4.17876 -3.75946 0
M  V30 2182 H 206.608 0.722664 -1.99728 0
M  V30 2183 H 208.871 0.380635 -0.868229 0
M  V30 2184 H 208.577 1.93378 -2.93765 0
M  V30 2185 H 208.451 3.29452 -1.83688 0
M  V30 2186 H 210.838 2.78046 -0.988645 0
M  V30 2187 H 210.919 1.42566 -2.12388 0
M  V30 2188 H 210.563 3.05417 -4.05811 0
M  V30 2189 H 210.493 4.40011 -2.89306 0
M  V30 2190 H 212.984 2.91784 -2.40147 0
M  V30 2191 H 213.297 5.55002 -5.37766 0
M  V30 2192 H 211.642 4.99612 -4.83128 0
M  V30 2193 H 214.833 3.56016 -3.03924 0
M  V30 2194 H 215.006 4.76061 -4.39624 0
M  V30 2195 N 208.412 0.89855 1.29475 0
M  V30 2196 C 209.823 0.572537 1.77705 0
M  V30 2197 C 210.174 -0.911778 1.73727 0
M  V30 2198 O 209.299 -1.71288 1.32247 0
M  V30 2199 C 209.894 1.03252 3.22683 0
M  V30 2200 C 208.453 0.757687 3.68695 0
M  V30 2201 C 207.6 1.20787 2.49612 0
M  V30 2202 H 210.551 1.08139 1.16153 0
M  V30 2203 H 210.572 0.367307 3.78723 0
M  V30 2204 H 210.084 2.11285 3.25546 0
M  V30 2205 H 208.185 -0.310079 3.71308 0
M  V30 2206 H 208.298 1.35476 4.59547 0
M  V30 2207 H 206.662 0.626888 2.46865 0
M  V30 2208 H 207.445 2.29622 2.55203 0
M  V30 2209 N 209.89 -1.43072 0.660911 0
M  V30 2210 C 211.138 -2.01323 0.177094 0
M  V30 2211 C 211.459 -1.5245 -1.2159 0
M  V30 2212 O 210.729 -0.740322 -1.81373 0
M  V30 2213 H 209.309 -0.744382 0.0624804 0
M  V30 2214 H 211.971 -1.75179 0.854305 0
M  V30 2215 H 211.067 -3.11649 0.167641 0
M  V30 2216 N 211.368 -0.403325 -1.52352 0
M  V30 2217 C 212.278 0.432009 -2.30588 0
M  V30 2218 C 213.294 1.05884 -1.38075 0
M  V30 2219 O 214.47 1.06161 -1.71148 0
M  V30 2220 C 211.535 1.53669 -3.10784 0
M  V30 2221 C 210.596 0.933525 -4.19027 0
M  V30 2222 C 209.829 1.98557 -4.9539 0
M  V30 2223 O 210.052 3.20283 -4.71991 0
M  V30 2224 O 208.986 1.59504 -5.80381 0
M  V30 2225 H 212.812 -0.205739 -3.03002 0
M  V30 2226 H 210.397 -0.166675 -1.48467 0
M  V30 2227 H 212.279 2.17814 -3.60742 0
M  V30 2228 H 210.954 2.15915 -2.41169 0
M  V30 2229 H 209.861 0.254954 -3.7323 0
M  V30 2230 H 211.194 0.35508 -4.90918 0
M  V30 2231 N 212.846 1.57033 -0.133567 0
M  V30 2232 C 214.076 1.99754 0.527429 0
M  V30 2233 C 214.484 1.01245 1.59832 0
M  V30 2234 O 213.827 -0.000645496 1.837 0
M  V30 2235 C 213.889 3.38903 1.19939 0
M  V30 2236 C 213.553 4.56174 0.274709 0
M  V30 2237 C 214.55 5.17563 -0.492398 0
M  V30 2238 C 212.235 5.01972 0.18153 0
M  V30 2239 C 214.229 6.2315 -1.34027 0
M  V30 2240 C 211.916 6.07416 -0.669958 0
M  V30 2241 C 212.914 6.67874 -1.42947 0
M  V30 2242 O 212.602 7.71279 -2.2668 0
M  V30 2243 H 212.334 0.660702 0.142999 0
M  V30 2244 H 214.888 2.04207 -0.221099 0
M  V30 2245 H 213.118 3.31248 1.99528 0
M  V30 2246 H 214.807 3.65818 1.75875 0
M  V30 2247 H 215.573 4.83087 -0.430367 0
M  V30 2248 H 211.452 4.54652 0.762422 0
M  V30 2249 H 214.996 6.70268 -1.93357 0
M  V30 2250 H 210.893 6.41321 -0.73333 0
M  V30 2251 H 211.661 7.88441 -2.1978 0
M  V30 2252 N 214.325 -0.140222 1.56975 0
M  V30 2253 C 215.741 -0.493088 1.51792 0
M  V30 2254 C 215.941 -1.83013 0.843116 0
M  V30 2255 O 214.997 -2.49041 0.416493 0
M  V30 2256 C 216.31 -0.497144 2.96562 0
M  V30 2257 C 217.858 -0.582186 3.07538 0
M  V30 2258 C 218.333 -0.616838 4.53827 0
M  V30 2259 N 219.824 -0.678873 4.58198 0
M  V30 2260 C 220.559 -0.726782 5.68775 0
M  V30 2261 N 220.055 -0.733623 6.88905 0
M  V30 2262 N 221.848 -0.768179 5.56826 0
M  V30 2263 H 213.999 0.736108 1.99237 0
M  V30 2264 H 216.262 0.269182 0.90898 0
M  V30 2265 H 215.968 0.417217 3.49217 0
M  V30 2266 H 215.842 -1.33263 3.52875 0
M  V30 2267 H 218.229 -1.48697 2.54899 0
M  V30 2268 H 218.31 0.280581 2.54257 0
M  V30 2269 H 217.954 0.283812 5.07106 0
M  V30 2270 H 217.884 -1.49619 5.04898 0
M  V30 2271 H 220.375 -0.68061 3.7172 0
M  V30 2272 H 220.688 -0.772215 7.68932 0
M  V30 2273 H 219.033 -0.701389 6.91452 0
M  V30 2274 H 222.224 -0.760051 4.61888 0
M  V30 2275 H 222.397 -0.80205 6.43017 0
M  V30 2276 N 215.803 -1.52179 -0.40978 0
M  V30 2277 C 217.052 -1.65434 -1.15388 0
M  V30 2278 C 217.365 -0.390056 -1.91671 0
M  V30 2279 O 218.571 -0.402399 -2.68501 0
M  V30 2280 C 217.027 -2.92279 -2.10003 0
M  V30 2281 C 216.635 -4.25813 -1.39239 0
M  V30 2282 C 218.379 -3.14897 -2.84675 0
M  V30 2283 C 216.286 -5.43782 -2.32498 0
M  V30 2284 H 215.216 -0.616267 -0.434432 0
M  V30 2285 H 217.867 -1.78666 -0.418401 0
M  V30 2286 H 216.249 -2.72744 -2.871 0
M  V30 2287 H 217.423 -4.55828 -0.675099 0
M  V30 2288 H 215.738 -4.09292 -0.766097 0
M  V30 2289 H 218.335 -4.0021 -3.54593 0
M  V30 2290 H 218.678 -2.29103 -3.47588 0
M  V30 2291 H 219.211 -3.34901 -2.14677 0
M  V30 2292 H 215.95 -6.3192 -1.74233 0
M  V30 2293 H 215.47 -5.18106 -3.02201 0
M  V30 2294 H 217.149 -5.76834 -2.93038 0
M  V30 2295 N 217.281 0.66697 -1.42791 0
M  V30 2296 C 218.53 1.42278 -1.42968 0
M  V30 2297 C 218.843 1.9553 -0.0524489 0
M  V30 2298 O 220.049 2.71414 0.068363 0
M  V30 2299 C 218.505 2.57418 -2.51524 0
M  V30 2300 C 218.113 2.10832 -3.9529 0
M  V30 2301 C 219.857 3.34878 -2.60877 0
M  V30 2302 C 217.764 3.23101 -4.95338 0
M  V30 2303 H 216.694 0.534533 -0.531781 0
M  V30 2304 H 219.345 0.721302 -1.68729 0
M  V30 2305 H 217.727 3.29971 -2.18941 0
M  V30 2306 H 218.901 1.4538 -4.37266 0
M  V30 2307 H 217.216 1.46289 -3.89857 0
M  V30 2308 H 219.813 4.18505 -3.32802 0
M  V30 2309 H 220.156 3.81993 -1.6549 0
M  V30 2310 H 220.689 2.69398 -2.92693 0
M  V30 2311 H 217.428 2.80969 -5.9223 0
M  V30 2312 H 216.948 3.87309 -4.57987 0
M  V30 2313 H 218.627 3.88447 -5.17415 0
M  V30 2314 N 218.759 1.29093 0.90403 0
M  V30 2315 C 219.999 1.18076 1.66845 0
M  V30 2316 C 220.363 -0.26436 1.90171 0
M  V30 2317 O 221.564 -0.497423 2.64157 0
M  V30 2318 C 219.835 1.96722 2.98388 0
M  V30 2319 S 221.394 2.0219 3.89441 0
M  V30 2320 H 218.212 0.421104 0.572881 0
M  V30 2321 H 220.814 1.63322 1.07453 0
M  V30 2322 H 219.518 3.00866 2.7912 0
M  V30 2323 H 219.049 1.52064 3.62823 0
M  V30 2324 H 221.064 1.13545 4.83034 0
M  V30 2325 N 220.237 -1.11381 1.11499 0
M  V30 2326 C 221.185 -2.19522 0.768956 0
M  V30 2327 C 222.179 -1.67693 -0.239857 0
M  V30 2328 O 223.385 -1.79727 -0.0990755 0
M  V30 2329 H 219.76 -0.715711 0.230786 0
M  V30 2330 H 221.731 -2.45954 1.68964 0
M  V30 2331 C 220.48 -3.46945 0.229073 0
M  V30 2332 H 219.803 -3.8718 0.996596 0
M  V30 2333 H 221.243 -4.23993 0.0251441 0
M  V30 2334 C 219.702 -3.2042 -1.04079 0
M  V30 2335 O 220.232 -3.41178 -2.12038 0
M  V30 2336 N 218.438 -2.74151 -0.963823 0
M  V30 2337 H 217.985 -2.57459 -0.0851722 0
M  V30 2338 H 217.943 -2.56781 -1.81414 0
M  V30 2339 N 221.715 -0.905404 -1.28997 0
M  V30 2340 C 222.647 -0.344748 -2.26592 0
M  V30 2341 C 223.66 0.512135 -1.54535 0
M  V30 2342 O 224.849 0.328368 -1.75454 0
M  V30 2343 C 221.949 0.526587 -3.34784 0
M  V30 2344 C 221.122 -0.305871 -4.36329 0
M  V30 2345 C 220.181 0.499209 -5.23827 0
M  V30 2346 O 219.207 -0.0853004 -5.69136 0
M  V30 2347 N 220.409 1.80408 -5.51755 0
M  V30 2348 H 223.174 -1.18359 -2.75338 0
M  V30 2349 H 220.735 -0.770481 -1.42391 0
M  V30 2350 H 222.727 1.07171 -3.90252 0
M  V30 2351 H 221.297 1.26613 -2.85811 0
M  V30 2352 H 220.517 -1.0324 -3.80441 0
M  V30 2353 H 221.805 -0.875773 -5.01206 0
M  V30 2354 H 221.203 2.3016 -5.16762 0
M  V30 2355 H 219.76 2.29621 -6.10014 0
M  V30 2356 N 223.193 1.4272 -0.668489 0
M  V30 2357 C 224.423 2.05668 -0.196063 0
M  V30 2358 C 224.831 1.5028 1.14946 0
M  V30 2359 O 224.174 0.6348 1.72383 0
M  V30 2360 C 224.236 3.59469 -0.0468879 0
M  V30 2361 C 223.9 4.37518 -1.32012 0
M  V30 2362 C 224.897 4.68584 -2.25222 0
M  V30 2363 C 222.582 4.77266 -1.56596 0
M  V30 2364 C 224.576 5.38326 -3.41297 0
M  V30 2365 C 222.263 5.4675 -2.72962 0
M  V30 2366 C 223.261 5.77204 -3.65137 0
M  V30 2367 O 222.949 6.45264 -4.79468 0
M  V30 2368 H 222.681 0.669382 -0.0943599 0
M  V30 2369 H 225.235 1.83954 -0.913788 0
M  V30 2370 H 223.465 3.79817 0.726357 0
M  V30 2371 H 225.154 4.04071 0.384852 0
M  V30 2372 H 225.92 4.38382 -2.07477 0
M  V30 2373 H 221.799 4.52959 -0.857249 0
M  V30 2374 H 225.343 5.62014 -4.13263 0
M  V30 2375 H 221.24 5.76369 -2.90635 0
M  V30 2376 H 222.008 6.63753 -4.78931 0
M  V30 2377 N 224.671 0.411399 1.52136 0
M  V30 2378 C 225.911 -0.163143 2.03748 0
M  V30 2379 C 226.275 -1.42187 1.29022 0
M  V30 2380 O 227.476 -2.075 1.70872 0
M  V30 2381 C 225.747 -0.402651 3.55125 0
M  V30 2382 S 227.306 -0.944315 4.28519 0
M  V30 2383 H 224.124 -0.0439833 0.709638 0
M  V30 2384 H 226.726 0.56484 1.87163 0
M  V30 2385 H 225.43 0.520212 4.0709 0
M  V30 2386 H 224.961 -1.15844 3.75957 0
M  V30 2387 H 226.976 -2.22463 4.43536 0
M  V30 2388 N 226.149 -1.5696 0.141893 0
M  V30 2389 C 227.397 -1.95573 -0.509484 0
M  V30 2390 C 227.718 -1.02746 -1.65736 0
M  V30 2391 O 226.988 -0.0880311 -1.95702 0
M  V30 2392 H 225.568 -0.722115 -0.191205 0
M  V30 2393 H 228.23 -1.93697 0.216196 0
M  V30 2394 H 227.326 -2.99171 -0.889 0
M  V30 2395 N 227.627 0.131896 -1.57047 0
M  V30 2396 C 228.557 1.16384 -2.02428 0
M  V30 2397 C 229.538 1.43936 -0.90644 0
M  V30 2398 O 230.723 1.54599 -1.17528 0
M  V30 2399 C 227.853 2.49328 -2.4177 0
M  V30 2400 C 226.807 2.36266 -3.56879 0
M  V30 2401 C 226.133 3.74057 -3.8208 0
M  V30 2402 C 227.433 1.834 -4.89042 0
M  V30 2403 H 229.127 0.786433 -2.88887 0
M  V30 2404 H 226.673 0.376855 -1.38981 0
M  V30 2405 H 228.626 3.21759 -2.7212 0
M  V30 2406 H 227.35 2.88934 -1.52266 0
M  V30 2407 H 226.009 1.66286 -3.26718 0
M  V30 2408 H 225.657 4.11125 -2.89803 0
M  V30 2409 H 225.357 3.66174 -4.59554 0
M  V30 2410 H 226.881 4.48012 -4.1487 0
M  V30 2411 H 228.295 2.45636 -5.18011 0
M  V30 2412 H 226.692 1.8637 -5.70426 0
M  V30 2413 H 227.762 0.790662 -4.7841 0
M  V30 2414 N 229.106 1.52395 0.401703 0
M  V30 2415 C 230.354 1.66488 1.14569 0
M  V30 2416 C 230.675 0.400897 1.90835 0
M  V30 2417 O 229.945 -0.584415 1.8698 0
M  V30 2418 H 228.525 0.613672 0.425929 0
M  V30 2419 H 231.187 1.89464 0.457093 0
M  V30 2420 H 230.283 2.50942 1.85566 0
M  V30 2421 N 230.584 -0.659388 1.43143 0
M  V30 2422 C 231.534 -1.7655 1.44271 0
M  V30 2423 C 232.518 -1.57847 0.311961 0
M  V30 2424 O 233.71 -1.68064 0.555306 0
M  V30 2425 C 230.839 -3.15104 1.36251 0
M  V30 2426 C 229.925 -3.39377 2.54331 0
M  V30 2427 N 230.316 -3.34153 3.79704 0
M  V30 2428 C 228.614 -3.70072 2.48922 0
M  V30 2429 C 229.315 -3.58337 4.58225 0
M  V30 2430 N 228.291 -3.79851 3.88863 0
M  V30 2431 H 232.093 -1.70928 2.39083 0
M  V30 2432 H 229.607 -0.860823 1.37708 0
M  V30 2433 H 231.604 -3.94389 1.35141 0
M  V30 2434 H 230.264 -3.21913 0.424531 0
M  V30 2435 H 231.275 -3.13704 4.1208 0
M  V30 2436 H 227.952 -3.84034 1.63781 0
M  V30 2437 H 229.342 -3.60129 5.67236 0
M  V30 2438 N 232.062 -1.29571 -0.897171 0
M  V30 2439 C 232.994 -1.10724 -2.00681 0
M  V30 2440 C 234.007 -0.0540026 -1.6271 0
M  V30 2441 O 235.196 -0.298783 -1.75982 0
M  V30 2442 C 232.296 -0.663912 -3.32333 0
M  V30 2443 C 231.469 -1.79622 -3.98816 0
M  V30 2444 C 230.528 -1.34349 -5.0876 0
M  V30 2445 O 229.554 -2.04864 -5.31055 0
M  V30 2446 N 230.756 -0.215764 -5.80099 0
M  V30 2447 H 233.521 -2.06291 -2.17403 0
M  V30 2448 H 231.082 -1.21544 -1.06951 0
M  V30 2449 H 233.074 -0.344295 -4.03233 0
M  V30 2450 H 231.644 0.199375 -3.11964 0
M  V30 2451 H 230.864 -2.28459 -3.21248 0
M  V30 2452 H 232.152 -2.55535 -4.39976 0
M  V30 2453 H 231.55 0.372091 -5.64475 0
M  V30 2454 H 230.107 0.0444707 -6.51785 0
M  V30 2455 N 233.54 1.10788 -1.12088 0
M  V30 2456 C 234.488 2.19111 -0.780587 0
M  V30 2457 C 235.482 1.67818 0.230961 0
M  V30 2458 O 236.688 1.79777 0.0895427 0
M  V30 2459 H 233.063 0.714477 -0.234578 0
M  V30 2460 H 235.034 2.45055 -1.70266 0
M  V30 2461 C 233.783 3.46818 -0.24747 0
M  V30 2462 H 233.106 3.86646 -1.01712 0
M  V30 2463 H 234.546 4.23973 -0.0476291 0
M  V30 2464 C 233.005 3.20968 1.02378 0
M  V30 2465 O 233.535 3.42298 2.10226 0
M  V30 2466 N 231.741 2.74658 0.949271 0
M  V30 2467 H 231.288 2.57501 0.0715173 0
M  V30 2468 H 231.246 2.57739 1.80049 0
M  V30 2469 N 235.018 0.912232 1.28515 0
M  V30 2470 C 235.951 0.343928 2.25593 0
M  V30 2471 C 236.929 -0.550994 1.5298 0
M  V30 2472 O 238.113 -0.494991 1.81885 0
M  V30 2473 C 235.24 -0.508525 3.34861 0
M  V30 2474 C 234.286 0.320808 4.25292 0
M  V30 2475 S 235.119 1.72658 5.06902 0
M  V30 2476 C 236.275 0.881394 6.19663 0
M  V30 2477 H 236.508 1.16674 2.73449 0
M  V30 2478 H 234.041 0.713384 1.36931 0
M  V30 2479 H 235.999 -0.994539 3.9827 0
M  V30 2480 H 234.66 -1.30571 2.85675 0
M  V30 2481 H 233.853 -0.330941 5.02912 0
M  V30 2482 H 233.455 0.74042 3.66598 0
M  V30 2483 H 235.747 0.110359 6.7741 0
M  V30 2484 H 236.69 1.63009 6.89082 0
M  V30 2485 H 237.098 0.430239 5.62858 0
M  V30 2486 N 236.496 -1.42363 0.676048 0
M  V30 2487 C 237.743 -2.01522 0.19883 0
M  V30 2488 C 238.071 -1.53456 -1.19505 0
M  V30 2489 O 237.326 -0.727967 -1.81657 0
M  V30 2490 C 237.625 -3.56929 0.183431 0
M  V30 2491 C 237.291 -4.24431 1.52215 0
M  V30 2492 C 235.953 -4.42585 1.8887 0
M  V30 2493 C 238.305 -4.62459 2.40377 0
M  V30 2494 C 235.633 -4.96039 3.13309 0
M  V30 2495 C 237.985 -5.17294 3.64129 0
M  V30 2496 C 236.649 -5.33661 4.00951 0
M  V30 2497 H 235.919 -0.737419 0.0727571 0
M  V30 2498 H 238.566 -1.70531 0.871281 0
M  V30 2499 H 236.871 -3.87594 -0.572532 0
M  V30 2500 H 238.568 -4.00486 -0.203035 0
M  V30 2501 H 235.158 -4.10661 1.22701 0
M  V30 2502 H 239.342 -4.48105 2.13343 0
M  V30 2503 H 234.598 -5.06896 3.41857 0
M  V30 2504 H 238.772 -5.45704 4.32644 0
M  V30 2505 H 236.399 -5.74845 4.9745 0
M  V30 2506 N 237.974 -0.419461 -1.51915 0
M  V30 2507 C 239.222 0.152637 -2.01523 0
M  V30 2508 C 239.543 1.44762 -1.30649 0
M  V30 2509 O 238.813 1.90997 -0.435535 0
M  V30 2510 H 237.393 0.0593966 -0.744635 0
M  V30 2511 H 240.055 -0.558073 -1.86739 0
M  V30 2512 H 239.151 0.341369 -3.10227 0
M  V30 2513 N 239.452 1.56882 -0.150215 0
M  V30 2514 C 240.68 2.00593 0.506948 0
M  V30 2515 C 241.095 1.03033 1.58208 0
M  V30 2516 O 240.452 0.0278396 1.82479 0
M  V30 2517 C 240.503 3.44209 1.10465 0
M  V30 2518 O 240.224 4.3804 0.0724636 0
M  V30 2519 C 241.725 4.03214 1.84211 0
M  V30 2520 H 238.945 0.65795 0.13169 0
M  V30 2521 H 241.489 2.03018 -0.245743 0
M  V30 2522 H 239.644 3.42625 1.80795 0
M  V30 2523 H 240.058 5.22007 0.510793 0
M  V30 2524 H 241.532 5.0569 2.21318 0
M  V30 2525 H 242.009 3.44107 2.72923 0
M  V30 2526 H 242.615 4.08437 1.18572 0
M  V30 2527 N 240.93 -0.123565 1.57115 0
M  V30 2528 C 242.179 -0.830704 1.83799 0
M  V30 2529 C 242.492 -1.81259 0.735158 0
M  V30 2530 O 243.698 -2.56558 0.888278 0
M  V30 2531 C 242.154 -1.52802 3.25852 0
M  V30 2532 C 241.762 -0.587356 4.44133 0
M  V30 2533 C 243.506 -2.22056 3.61789 0
M  V30 2534 C 241.413 -1.28764 5.77212 0
M  V30 2535 H 240.343 -0.313967 0.685522 0
M  V30 2536 H 242.994 -0.0834359 1.8331 0
M  V30 2537 H 241.376 -2.32175 3.20797 0
M  V30 2538 H 242.55 0.172829 4.60476 0
M  V30 2539 H 240.865 -0.00201892 4.164 0
M  V30 2540 H 243.462 -2.75131 4.58483 0
M  V30 2541 H 243.805 -2.99644 2.88997 0
M  V30 2542 H 244.338 -1.49576 3.68608 0
M  V30 2543 H 241.077 -0.55314 6.53162 0
M  V30 2544 H 240.597 -2.01995 5.64764 0
M  V30 2545 H 242.276 -1.8221 6.20813 0
M  V30 2546 N 242.408 -1.52605 -0.393616 0
M  V30 2547 C 243.654 -1.67672 -1.14079 0
M  V30 2548 C 243.987 -0.413121 -1.89755 0
M  V30 2549 O 243.262 0.588952 -1.85369 0
M  V30 2550 C 243.545 -2.9088 -2.12276 0
M  V30 2551 C 243.398 -4.27329 -1.40394 0
M  V30 2552 C 244.717 -3.09628 -3.12759 0
M  V30 2553 H 241.836 -0.610168 -0.413356 0
M  V30 2554 H 244.478 -1.85193 -0.424696 0
M  V30 2555 H 242.628 -2.76073 -2.73342 0
M  V30 2556 H 244.3 -4.53894 -0.82327 0
M  V30 2557 H 242.543 -4.2802 -0.705801 0
M  V30 2558 H 243.214 -5.09615 -2.12123 0
M  V30 2559 H 245.69 -3.23436 -2.61779 0
M  V30 2560 H 244.566 -3.97322 -3.78717 0
M  V30 2561 H 244.827 -2.23637 -3.81365 0
M  V30 2562 N 243.887 0.651787 -1.4349 0
M  V30 2563 C 245.133 1.41376 -1.45398 0
M  V30 2564 C 245.466 1.94041 -0.0784823 0
M  V30 2565 O 244.741 1.72379 0.900878 0
M  V30 2566 C 245.024 2.59414 -2.49752 0
M  V30 2567 C 244.877 2.12232 -3.96582 0
M  V30 2568 C 246.196 3.61626 -2.50827 0
M  V30 2569 H 243.315 0.512719 -0.529422 0
M  V30 2570 H 245.957 0.738796 -1.75048 0
M  V30 2571 H 244.107 3.16997 -2.246 0
M  V30 2572 H 245.779 1.59639 -4.32797 0
M  V30 2573 H 244.022 1.43592 -4.09346 0
M  V30 2574 H 244.693 2.9712 -4.65214 0
M  V30 2575 H 247.169 3.13805 -2.7325 0
M  V30 2576 H 246.045 4.41766 -3.25783 0
M  V30 2577 H 246.306 4.14314 -1.5426 0
M  V30 2578 N 245.365 1.30045 0.890287 0
M  V30 2579 C 246.312 1.15976 1.99545 0
M  V30 2580 C 247.282 0.0506202 1.66023 0
M  V30 2581 O 248.467 0.219847 1.89529 0
M  V30 2582 C 245.607 0.852054 3.34416 0
M  V30 2583 C 244.72 2.04255 3.80662 0
M  V30 2584 C 243.855 1.6734 5.04154 0
M  V30 2585 C 242.894 2.82916 5.42794 0
M  V30 2586 N 242.031 2.46333 6.57468 0
M  V30 2587 H 246.871 2.10524 2.10911 0
M  V30 2588 H 244.408 1.04749 1.03276 0
M  V30 2589 H 246.366 0.654296 4.12037 0
M  V30 2590 H 244.996 -0.0565502 3.2275 0
M  V30 2591 H 244.048 2.35172 2.98995 0
M  V30 2592 H 245.36 2.90826 4.05242 0
M  V30 2593 H 244.514 1.43908 5.89386 0
M  V30 2594 H 243.253 0.779308 4.81433 0
M  V30 2595 H 242.258 3.0702 4.56091 0
M  V30 2596 H 243.483 3.73004 5.6749 0
M  V30 2597 H 241.429 1.59423 6.36334 0
M  V30 2598 H 241.346 3.26436 6.81891 0
M  V30 2599 H 242.614 2.26244 7.45945 0
M  V30 2600 N 246.843 -1.10192 1.12674 0
M  V30 2601 C 247.753 -2.20172 0.810026 0
M  V30 2602 C 248.769 -1.72821 -0.202188 0
M  V30 2603 O 249.945 -2.01369 -0.0351691 0
M  V30 2604 C 247.01 -3.45631 0.272007 0
M  V30 2605 C 246.071 -4.07704 1.34447 0
M  V30 2606 C 245.304 -5.27175 0.832029 0
M  V30 2607 O 245.527 -5.69425 -0.333284 0
M  V30 2608 O 244.461 -5.80168 1.60277 0
M  V30 2609 H 248.287 -2.49701 1.72867 0
M  V30 2610 H 245.872 -1.18977 0.903597 0
M  V30 2611 H 247.754 -4.21394 -0.0230219 0
M  V30 2612 H 246.429 -3.17723 -0.619164 0
M  V30 2613 H 245.336 -3.33614 1.6927 0
M  V30 2614 H 246.669 -4.3982 2.2095 0
M  V30 2615 O 248.36 -1.05067 -1.22651 0
M  V30 2616 H 249.051 -0.726261 -1.79569 0
M  V30 END ATOM
M  V30 BEGIN BOND
M  V30 END BOND
M  V30 END CTAB
M  END
$$$$
