drugbank_target|Q5SKC5 Uracil-DNA glycosylase (DB03419)
 OpenBabel12092120273D

  0  0  0     0  0            999 V3000
M  V30 BEGIN CTAB
M  V30 COUNTS 8151 8745 0 0 0
M  V30 BEGIN ATOM
M  V30 1 H -1.547 9.37743 -1.21644 0
M  V30 2 O -1.44 8.89599 -0.40059 0
M  V30 3 P 0 8.91 0 0
M  V30 4 O 0.22 10.1746 0.733838 0
M  V30 5 O 0.79 8.73346 -1.23964 0
M  V30 6 O 0.25 7.66872 0.971405 0
M  V30 7 C -0.69 7.42405 2.04668 0
M  V30 8 C 0.04 6.86059 3.24661 0
M  V30 9 O 0.25 5.42934 3.03695 0
M  V30 10 C 1.44 7.41287 3.50796 0
M  V30 11 O 1.83 7.27073 4.86816 0
M  V30 12 C 2.32 6.5273 2.63741 0
M  V30 13 C 1.61 5.1842 2.73198 0
M  V30 14 N 1.66 4.38762 1.4784 0
M  V30 15 H -1.178 8.36899 2.3252 0
M  V30 16 H -1.45 6.70391 1.71179 0
M  V30 17 H -0.582 7.03638 4.13219 0
M  V30 18 H 2.073 4.59931 3.54016 0
M  V30 19 H 2.353 6.88995 1.59871 0
M  V30 20 H 3.344 6.4684 3.0373 0
M  V30 21 H 1.51 8.47002 3.20749 0
M  V30 22 P 3.37998 7.20834 5.23717 0
M  V30 23 O 3.59998 7.7993 6.57351 0
M  V30 24 O 4.16998 7.79328 4.13004 0
M  V30 25 O 3.62998 5.63315 5.29344 0
M  V30 26 C 2.68998 4.80193 6.01798 0
M  V30 27 C 3.41998 3.64202 6.65911 0
M  V30 28 O 3.62998 2.60694 5.64732 0
M  V30 29 C 4.81998 3.93473 7.1943 0
M  V30 30 O 5.20998 3.02071 8.21205 0
M  V30 31 C 5.69998 3.73047 5.97036 0
M  V30 32 C 4.98998 2.58828 5.25741 0
M  V30 33 N 5.03998 2.6801 3.77422 0
M  V30 34 C 5.18998 1.50443 3.07133 0
M  V30 35 O 5.27998 0.419406 3.61576 0
M  V30 36 N 5.22998 1.6403 1.69677 0
M  V30 37 C 5.13998 2.81206 0.986255 0
M  V30 38 O 5.18998 2.80892 -0.249754 0
M  V30 39 C 4.98998 3.99158 1.80325 0
M  V30 40 C 4.87998 5.29309 1.06921 0
M  V30 41 C 4.93998 3.89779 3.1476 0
M  V30 42 H 2.19998 5.40332 6.79951 0
M  V30 43 H 1.93098 4.41549 5.32301 0
M  V30 44 H 2.79798 3.26331 7.47797 0
M  V30 45 H 5.45298 1.6395 5.56554 0
M  V30 46 H 5.73198 4.63439 5.3432 0
M  V30 47 H 6.72398 3.44728 6.25838 0
M  V30 48 H 4.88998 4.96652 7.57263 0
M  V30 49 H 4.81898 4.80159 3.74441 0
M  V30 50 H 5.84898 5.81459 1.09608 0
M  V30 51 H 4.11198 5.9187 1.54487 0
M  V30 52 H 4.59998 5.10095 0.0220288 0
M  V30 53 H 5.33598 0.798962 1.16664 0
M  V30 54 P 6.75996 2.75334 8.47391 0
M  V30 55 O 6.97996 2.44571 9.90142 0
M  V30 56 O 7.54996 3.87688 7.92115 0
M  V30 57 O 7.00996 1.4459 7.59357 0
M  V30 58 C 6.06996 0.347608 7.69215 0
M  V30 59 C 6.79996 -0.96767 7.52806 0
M  V30 60 O 7.00996 -1.21036 6.1011 0
M  V30 61 C 8.19996 -1.04544 8.13308 0
M  V30 62 O 8.58996 -2.38311 8.41922 0
M  V30 63 C 9.07996 -0.491279 7.02284 0
M  V30 64 C 8.36996 -0.996264 5.77469 0
M  V30 65 N 8.41996 -0.0501916 4.62973 0
M  V30 66 H 5.58096 0.374722 8.67691 0
M  V30 67 H 5.31096 0.443485 6.90277 0
M  V30 68 H 6.17796 -1.75537 7.96793 0
M  V30 69 P 10.1399 -2.75334 8.47391 0
M  V30 70 O 10.3599 -3.84128 9.44797 0
M  V30 71 O 10.9299 -1.51947 8.68712 0
M  V30 72 O 10.3899 -3.29363 6.99321 0
M  V30 73 C 9.44994 -4.24011 6.4274 0
M  V30 74 C 10.1799 -5.20775 5.52155 0
M  V30 75 O 10.3899 -4.56534 4.22446 0
M  V30 76 C 11.5799 -5.62629 5.96531 0
M  V30 77 O 11.9699 -6.87667 5.41053 0
M  V30 78 C 12.4599 -4.52537 5.39283 0
M  V30 79 C 11.7499 -4.20027 4.08623 0
M  V30 80 N 11.7999 -2.76189 3.71603 0
M  V30 81 H 8.96094 -4.797 7.24003 0
M  V30 82 H 8.69094 -3.69856 5.84513 0
M  V30 83 H 9.55794 -6.10356 5.41441 0
M  V30 84 P 13.5199 -7.20834 5.23717 0
M  V30 85 O 13.7399 -8.66104 5.38572 0
M  V30 86 O 14.3099 -6.33544 6.1349 0
M  V30 87 O 13.7699 -6.7751 3.72168 0
M  V30 88 C 12.8299 -7.20825 2.7076 0
M  V30 89 C 13.5599 -7.45864 1.40599 0
M  V30 90 O 13.7699 -6.17651 0.734225 0
M  V30 91 C 14.9599 -8.05808 1.51899 0
M  V30 92 O 15.3499 -8.74358 0.335205 0
M  V30 93 C 15.8399 -6.83093 1.70294 0
M  V30 94 C 15.1299 -5.79992 0.836974 0
M  V30 95 N 15.1799 -4.41864 1.38293 0
M  V30 96 H 12.3409 -8.13644 3.0377 0
M  V30 97 H 12.0709 -6.42788 2.55485 0
M  V30 98 H 12.9379 -8.12039 0.792769 0
M  V30 99 P 16.8999 -8.91 1.09116e-15 0
M  V30 100 O 17.1199 -10.1726 -0.733694 0
M  V30 101 O 17.6899 -8.73148 1.23936 0
M  V30 102 O 17.1499 -7.66872 -0.971405 0
M  V30 103 C 16.2099 -7.42309 -2.04641 0
M  V30 104 C 16.9399 -6.86059 -3.24661 0
M  V30 105 O 17.1499 -5.42847 -3.03646 0
M  V30 106 C 18.3399 -7.41196 -3.50753 0
M  V30 107 O 18.7299 -7.27073 -4.86816 0
M  V30 108 C 19.2199 -6.5273 -2.63741 0
M  V30 109 C 18.5099 -5.1842 -2.73198 0
M  V30 110 N 18.5599 -4.38762 -1.4784 0
M  V30 111 H 15.7209 -8.36803 -2.32493 0
M  V30 112 H 15.4509 -6.70197 -1.71129 0
M  V30 113 H 16.3179 -7.03551 -4.13168 0
M  V30 114 P 20.2799 -7.20834 -5.23717 0
M  V30 115 O 20.4999 -7.79853 -6.57286 0
M  V30 116 O 21.0699 -7.79239 -4.12957 0
M  V30 117 O 20.5299 -5.63315 -5.29344 0
M  V30 118 C 19.5899 -4.80255 -6.01876 0
M  V30 119 C 20.3199 -3.64202 -6.65911 0
M  V30 120 O 20.5299 -2.60694 -5.64732 0
M  V30 121 C 21.7199 -3.93473 -7.1943 0
M  V30 122 O 22.1099 -3.02071 -8.21205 0
M  V30 123 C 22.5999 -3.73047 -5.97036 0
M  V30 124 C 21.8899 -2.58828 -5.25741 0
M  V30 125 N 21.9399 -2.68068 -3.77503 0
M  V30 126 H 19.1009 -5.40332 -6.79951 0
M  V30 127 H 18.8309 -4.41613 -5.32378 0
M  V30 128 H 19.6979 -3.26331 -7.47797 0
M  V30 129 P 23.6599 -2.75334 -8.47391 0
M  V30 130 O 23.8799 -2.44619 -9.90336 0
M  V30 131 O 24.4499 -3.87776 -7.92294 0
M  V30 132 O 23.9099 -1.4459 -7.59357 0
M  V30 133 C 22.9699 -0.347653 -7.69315 0
M  V30 134 C 23.6999 0.96767 -7.52806 0
M  V30 135 O 23.9099 1.21055 -6.10208 0
M  V30 136 C 25.0999 1.04557 -8.13408 0
M  V30 137 O 25.4899 2.38311 -8.41922 0
M  V30 138 C 25.9799 0.491279 -7.02284 0
M  V30 139 C 25.2699 0.996264 -5.77469 0
M  V30 140 N 25.3199 0.0501916 -4.62973 0
M  V30 141 C 25.2399 -1.31969 -4.65661 0
M  V30 142 N 25.3099 -1.86649 -3.48119 0
M  V30 143 C 25.4599 -0.792089 -2.62406 0
M  V30 144 C 25.5899 -0.705684 -1.2207 0
M  V30 145 N 25.5999 -1.76207 -0.413762 0
M  V30 146 N 25.7099 0.518981 -0.685754 0
M  V30 147 C 25.6999 1.57595 -1.49174 0
M  V30 148 N 25.5799 1.62909 -2.80066 0
M  V30 149 C 25.4599 0.388195 -3.3073 0
M  V30 150 H 22.4819 -0.374765 -8.67791 0
M  V30 151 H 22.2099 -0.443613 -6.90476 0
M  V30 152 H 23.0779 1.75559 -7.96891 0
M  V30 153 H 25.7329 1.94563 -5.46818 0
M  V30 154 H 26.0129 -0.608651 -7.04676 0
M  V30 155 H 27.0039 0.889796 -7.09039 0
M  V30 156 H 25.1699 0.433128 -9.04664 0
M  V30 157 H 25.1289 -1.89246 -5.57664 0
M  V30 158 H 25.5099 -2.71005 -0.804694 0
M  V30 159 H 25.6989 -1.63189 0.603768 0
M  V30 160 H 25.8069 2.53475 -0.997614 0
M  V30 161 P 27.0398 2.75334 -8.47391 0
M  V30 162 O 27.2598 3.84128 -9.44797 0
M  V30 163 O 27.8298 1.51947 -8.68712 0
M  V30 164 O 27.2898 3.29363 -6.99321 0
M  V30 165 C 26.3498 4.24011 -6.4274 0
M  V30 166 C 27.0798 5.20775 -5.52155 0
M  V30 167 O 27.2898 4.56534 -4.22446 0
M  V30 168 C 28.4798 5.62629 -5.96531 0
M  V30 169 O 28.8698 6.87667 -5.41053 0
M  V30 170 C 29.3598 4.52537 -5.39283 0
M  V30 171 C 28.6498 4.20027 -4.08623 0
M  V30 172 N 28.6998 2.76189 -3.71603 0
M  V30 173 H 25.8608 4.797 -7.24003 0
M  V30 174 H 25.5908 3.69856 -5.84513 0
M  V30 175 H 26.4578 6.10356 -5.41441 0
M  V30 176 P 30.4198 7.20834 -5.23717 0
M  V30 177 O 30.6398 8.66274 -5.38678 0
M  V30 178 O 31.2098 6.33687 -6.13629 0
M  V30 179 O 30.6698 6.7751 -3.72168 0
M  V30 180 C 29.7298 7.20919 -2.70795 0
M  V30 181 C 30.4598 7.45864 -1.40599 0
M  V30 182 O 30.6698 6.17751 -0.734343 0
M  V30 183 C 31.8598 8.05906 -1.51917 0
M  V30 184 O 32.2498 8.74358 -0.335205 0
M  V30 185 C 32.7398 6.83093 -1.70294 0
M  V30 186 C 32.0298 5.79992 -0.836974 0
M  V30 187 N 32.0798 4.41864 -1.38293 0
M  V30 188 C 31.9998 4.02089 -2.69407 0
M  V30 189 N 32.0698 2.73403 -2.85089 0
M  V30 190 C 32.2198 2.25086 -1.5642 0
M  V30 191 C 32.3498 0.942887 -1.04836 0
M  V30 192 N 32.3598 -0.150999 -1.80369 0
M  V30 193 N 32.4698 0.812565 0.28167 0
M  V30 194 C 32.4598 1.90572 1.03784 0
M  V30 195 N 32.3398 3.167 0.683905 0
M  V30 196 C 32.2198 3.26538 -0.652815 0
M  V30 197 H 29.2418 8.13738 -3.03804 0
M  V30 198 H 28.9698 6.42974 -2.55559 0
M  V30 199 H 29.8378 8.12139 -0.792866 0
M  V30 200 H 32.4928 5.80178 0.160643 0
M  V30 201 H 32.7728 6.51379 -2.75643 0
M  V30 202 H 33.7638 7.01832 -1.3448 0
M  V30 203 H 31.9298 8.73771 -2.38364 0
M  V30 204 H 31.8888 4.7189 -3.52311 0
M  V30 205 H 32.2698 -0.0721434 -2.82608 0
M  V30 206 H 32.4588 -1.0785 -1.36544 0
M  V30 207 H 32.5668 1.73207 2.10241 0
M  V30 208 P 33.7998 8.91 -2.18232e-15 0
M  V30 209 O 34.0198 10.1726 0.733694 0
M  V30 210 O 34.5898 8.73148 -1.23936 0
M  V30 211 O 34.0498 7.66872 0.971405 0
M  V30 212 C 33.1098 7.42309 2.04641 0
M  V30 213 C 33.8398 6.86059 3.24661 0
M  V30 214 O 34.0498 5.42847 3.03646 0
M  V30 215 C 35.2398 7.41196 3.50753 0
M  V30 216 O 35.6298 7.27073 4.86816 0
M  V30 217 C 36.1198 6.5273 2.63741 0
M  V30 218 C 35.4098 5.1842 2.73198 0
M  V30 219 N 35.4598 4.38762 1.4784 0
M  V30 220 H 32.6208 8.36803 2.32493 0
M  V30 221 H 32.3508 6.70197 1.71129 0
M  V30 222 H 33.2178 7.03551 4.13168 0
M  V30 223 P 37.1798 7.20834 5.23717 0
M  V30 224 O 37.3998 7.79853 6.57286 0
M  V30 225 O 37.9698 7.79239 4.12957 0
M  V30 226 O 37.4298 5.63315 5.29344 0
M  V30 227 C 36.4898 4.80255 6.01876 0
M  V30 228 C 37.2198 3.64202 6.65911 0
M  V30 229 O 37.4298 2.60694 5.64732 0
M  V30 230 C 38.6198 3.93473 7.1943 0
M  V30 231 O 39.0098 3.02071 8.21205 0
M  V30 232 C 39.4998 3.73047 5.97036 0
M  V30 233 C 38.7898 2.58828 5.25741 0
M  V30 234 N 38.8398 2.68068 3.77503 0
M  V30 235 H 36.0008 5.40332 6.79951 0
M  V30 236 H 35.7308 4.41613 5.32378 0
M  V30 237 H 36.5978 3.26331 7.47797 0
M  V30 238 P 40.5598 2.75334 8.47391 0
M  V30 239 O 40.7798 2.44595 9.90239 0
M  V30 240 O 41.3498 3.87732 7.92204 0
M  V30 241 O 40.8098 1.4459 7.59357 0
M  V30 242 C 39.8698 0.347608 7.69215 0
M  V30 243 C 40.5998 -0.96767 7.52806 0
M  V30 244 O 40.8098 -1.21036 6.1011 0
M  V30 245 C 41.9998 -1.04544 8.13308 0
M  V30 246 O 42.3898 -2.38311 8.41922 0
M  V30 247 C 42.8798 -0.491279 7.02284 0
M  V30 248 C 42.1698 -0.996264 5.77469 0
M  V30 249 N 42.2198 -0.0501808 4.62873 0
M  V30 250 C 42.3698 -0.578037 3.3505 0
M  V30 251 O 42.4598 -1.8073 3.21711 0
M  V30 252 N 42.4198 0.468541 2.263 0
M  V30 253 C 42.3198 1.59186 2.47176 0
M  V30 254 N 42.3698 2.37626 1.40392 0
M  V30 255 C 42.1698 2.16203 3.77467 0
M  V30 256 C 42.1198 1.29324 4.8195 0
M  V30 257 H 39.3798 0.374679 8.67591 0
M  V30 258 H 39.1108 0.443421 6.90177 0
M  V30 259 H 39.9778 -1.75559 7.96891 0
M  V30 260 H 42.6328 -1.94529 5.46723 0
M  V30 261 H 42.9118 0.608651 7.04676 0
M  V30 262 H 43.9038 -0.889672 7.08939 0
M  V30 263 H 42.0698 -0.43308 9.04564 0
M  V30 264 H 41.9978 1.67758 5.83046 0
M  V30 265 H 42.0998 3.23869 3.92281 0
M  V30 266 H 42.4878 1.96317 0.467202 0
M  V30 267 H 42.2908 3.39693 1.51142 0
M  V30 268 P 43.9397 -2.75334 8.47391 0
M  V30 269 O 44.1597 -3.84166 9.4489 0
M  V30 270 O 44.7297 -1.51964 8.6881 0
M  V30 271 O 44.1897 -3.29363 6.99321 0
M  V30 272 C 43.2497 -4.23956 6.42656 0
M  V30 273 C 43.9797 -5.20775 5.52155 0
M  V30 274 O 44.1897 -4.56534 4.22446 0
M  V30 275 C 45.3797 -5.62629 5.96531 0
M  V30 276 O 45.7697 -6.87667 5.41053 0
M  V30 277 C 46.2597 -4.52537 5.39283 0
M  V30 278 C 45.5497 -4.20027 4.08623 0
M  V30 279 N 45.5997 -2.7613 3.71522 0
M  V30 280 C 45.7497 -2.45612 2.37989 0
M  V30 281 O 45.8397 -3.30919 1.51621 0
M  V30 282 N 45.7897 -1.10684 2.08435 0
M  V30 283 C 45.6997 -0.0690084 2.9792 0
M  V30 284 O 45.7497 1.10553 2.59426 0
M  V30 285 C 45.5497 -0.481522 4.35345 0
M  V30 286 C 45.4397 0.618778 5.36443 0
M  V30 287 C 45.4997 -1.78906 4.67968 0
M  V30 288 H 42.7597 -4.797 7.24003 0
M  V30 289 H 42.4907 -3.69802 5.84429 0
M  V30 290 H 43.3577 -6.10356 5.41441 0
M  V30 291 H 46.0127 -4.78651 3.27911 0
M  V30 292 H 46.2917 -3.64957 6.05871 0
M  V30 293 H 47.2837 -4.8868 5.2125 0
M  V30 294 H 45.4497 -5.66726 7.06352 0
M  V30 295 H 45.3787 -2.07737 5.72367 0
M  V30 296 H 46.4087 0.754375 5.86871 0
M  V30 297 H 44.6717 0.359721 6.10641 0
M  V30 298 H 45.1597 1.55533 4.8581 0
M  V30 299 H 45.8957 -0.862651 1.12037 0
M  V30 300 P 47.3197 -7.20834 5.23717 0
M  V30 301 O 47.5397 -8.66274 5.38678 0
M  V30 302 O 48.1097 -6.33687 6.13629 0
M  V30 303 O 47.5697 -6.7751 3.72168 0
M  V30 304 C 46.6297 -7.20919 2.70795 0
M  V30 305 C 47.3597 -7.45864 1.40599 0
M  V30 306 O 47.5697 -6.17751 0.734343 0
M  V30 307 C 48.7597 -8.05906 1.51917 0
M  V30 308 O 49.1497 -8.74358 0.335205 0
M  V30 309 C 49.6397 -6.83093 1.70294 0
M  V30 310 C 48.9297 -5.79992 0.836974 0
M  V30 311 N 48.9797 -4.41864 1.38293 0
M  V30 312 C 48.8997 -4.02089 2.69407 0
M  V30 313 N 48.9697 -2.73403 2.85089 0
M  V30 314 C 49.1197 -2.25086 1.5642 0
M  V30 315 C 49.2497 -0.942887 1.04836 0
M  V30 316 N 49.2597 0.150999 1.80369 0
M  V30 317 N 49.3697 -0.812565 -0.28167 0
M  V30 318 C 49.3597 -1.90572 -1.03784 0
M  V30 319 N 49.2397 -3.167 -0.683905 0
M  V30 320 C 49.1197 -3.26538 0.652815 0
M  V30 321 H 46.1417 -8.13738 3.03804 0
M  V30 322 H 45.8697 -6.42974 2.55559 0
M  V30 323 H 46.7377 -8.12139 0.792866 0
M  V30 324 H 49.3927 -5.80178 -0.160643 0
M  V30 325 H 49.6727 -6.51379 2.75643 0
M  V30 326 H 50.6637 -7.01832 1.3448 0
M  V30 327 H 48.8297 -8.73771 2.38364 0
M  V30 328 H 48.7887 -4.7189 3.52311 0
M  V30 329 H 49.1697 0.0721434 2.82608 0
M  V30 330 H 49.3587 1.0785 1.36544 0
M  V30 331 H 49.4667 -1.73207 -2.10241 0
M  V30 332 P 50.6997 -8.91 3.27348e-15 0
M  V30 333 O 50.9197 -10.1736 -0.733766 0
M  V30 334 O 51.4897 -8.73247 1.2395 0
M  V30 335 O 50.9497 -7.66872 -0.971405 0
M  V30 336 C 50.0097 -7.42309 -2.04641 0
M  V30 337 C 50.7397 -6.86059 -3.24661 0
M  V30 338 O 50.9497 -5.42847 -3.03646 0
M  V30 339 C 52.1397 -7.41196 -3.50753 0
M  V30 340 O 52.5297 -7.27073 -4.86816 0
M  V30 341 C 53.0197 -6.5273 -2.63741 0
M  V30 342 C 52.3097 -5.1842 -2.73198 0
M  V30 343 N 52.3597 -4.38668 -1.47808 0
M  V30 344 C 52.5097 -3.00789 -1.58511 0
M  V30 345 O 52.5997 -2.50116 -2.71298 0
M  V30 346 N 52.5597 -2.29703 -0.253698 0
M  V30 347 C 52.4597 -2.84269 0.750133 0
M  V30 348 N 52.5097 -2.06951 1.82612 0
M  V30 349 C 52.3097 -4.25803 0.889776 0
M  V30 350 C 52.2597 -4.98326 -0.259363 0
M  V30 351 H 49.5197 -8.36707 -2.32466 0
M  V30 352 H 49.2507 -6.701 -1.71105 0
M  V30 353 H 50.1177 -7.03638 -4.13219 0
M  V30 354 H 52.7727 -4.59852 -3.53955 0
M  V30 355 H 53.0517 -6.88995 -1.59871 0
M  V30 356 H 54.0437 -6.46749 -3.03687 0
M  V30 357 H 52.2097 -8.46908 -3.20714 0
M  V30 358 H 52.1377 -6.06349 -0.206238 0
M  V30 359 H 52.2397 -4.73163 1.86796 0
M  V30 360 H 52.6277 -1.05099 1.72271 0
M  V30 361 H 52.4307 -2.48716 2.76361 0
M  V30 362 P 54.0797 -7.20834 -5.23717 0
M  V30 363 O 54.2997 -7.79853 -6.57286 0
M  V30 364 O 54.8697 -7.79239 -4.12957 0
M  V30 365 O 54.3297 -5.63315 -5.29344 0
M  V30 366 C 53.3897 -4.80255 -6.01876 0
M  V30 367 C 54.1197 -3.64202 -6.65911 0
M  V30 368 O 54.3297 -2.60694 -5.64732 0
M  V30 369 C 55.5197 -3.93473 -7.1943 0
M  V30 370 O 55.9097 -3.02071 -8.21205 0
M  V30 371 C 56.3997 -3.73047 -5.97036 0
M  V30 372 C 55.6897 -2.58828 -5.25741 0
M  V30 373 N 55.7397 -2.68068 -3.77503 0
M  V30 374 C 55.6597 -3.79715 -2.96723 0
M  V30 375 N 55.7397 -3.5377 -1.68852 0
M  V30 376 C 55.8797 -2.15054 -1.63254 0
M  V30 377 C 56.0097 -1.28964 -0.518571 0
M  V30 378 N 56.1297 0.0538097 -0.918425 0
M  V30 379 C 56.1297 0.494275 -2.22578 0
M  V30 380 N 56.2597 1.81086 -2.40434 0
M  V30 381 N 55.9997 -0.313645 -3.27502 0
M  V30 382 C 55.8797 -1.61829 -2.91033 0
M  V30 383 H 52.9007 -5.40332 -6.79951 0
M  V30 384 H 52.6307 -4.41613 -5.32378 0
M  V30 385 H 53.4977 -3.26331 -7.47797 0
M  V30 386 P 57.4597 -2.75334 -8.47391 0
M  V30 387 O 57.6797 -2.44571 -9.90142 0
M  V30 388 O 58.2497 -3.87688 -7.92115 0
M  V30 389 O 57.7097 -1.4459 -7.59357 0
M  V30 390 C 56.7697 -0.347608 -7.69215 0
M  V30 391 C 57.4997 0.96767 -7.52806 0
M  V30 392 O 57.7097 1.21036 -6.1011 0
M  V30 393 C 58.8997 1.04544 -8.13308 0
M  V30 394 O 59.2897 2.38311 -8.41922 0
M  V30 395 C 59.7797 0.491279 -7.02284 0
M  V30 396 C 59.0697 0.996264 -5.77469 0
M  V30 397 N 59.1197 0.0501916 -4.62973 0
M  V30 398 H 56.2807 -0.374722 -8.67691 0
M  V30 399 H 56.0107 -0.443485 -6.90277 0
M  V30 400 H 56.8777 1.75537 -7.96793 0
M  V30 401 P 60.8396 2.75334 -8.47391 0
M  V30 402 O 61.0596 3.84204 -9.44982 0
M  V30 403 O 61.6296 1.51982 -8.68909 0
M  V30 404 O 61.0896 3.29363 -6.99321 0
M  V30 405 C 60.1496 4.24066 -6.42823 0
M  V30 406 C 60.8796 5.20775 -5.52155 0
M  V30 407 O 61.0896 4.56607 -4.22514 0
M  V30 408 C 62.2796 5.62697 -5.96604 0
M  V30 409 O 62.6696 6.87667 -5.41053 0
M  V30 410 C 63.1596 4.52537 -5.39283 0
M  V30 411 C 62.4496 4.20027 -4.08623 0
M  V30 412 N 62.4996 2.76189 -3.71603 0
M  V30 413 H 59.6616 4.79756 -7.24086 0
M  V30 414 H 59.3896 3.69963 -5.84682 0
M  V30 415 H 60.2576 6.10431 -5.41508 0
M  V30 416 H 62.9126 4.78816 -3.28024 0
M  V30 417 H 63.1926 3.64957 -6.05871 0
M  V30 418 H 64.1836 4.88748 -5.21323 0
M  V30 419 H 62.3496 5.66789 -7.0643 0
M  V30 420 P 64.2196 7.20834 -5.23717 0
M  V30 421 O 64.4396 8.66104 -5.38572 0
M  V30 422 O 65.0096 6.33544 -6.1349 0
M  V30 423 O 64.4696 6.7751 -3.72168 0
M  V30 424 C 63.5296 7.20825 -2.7076 0
M  V30 425 C 64.2596 7.45864 -1.40599 0
M  V30 426 O 64.4696 6.17651 -0.734225 0
M  V30 427 C 65.6596 8.05808 -1.51899 0
M  V30 428 O 66.0496 8.74358 -0.335205 0
M  V30 429 C 66.5396 6.83093 -1.70294 0
M  V30 430 C 65.8296 5.79992 -0.836974 0
M  V30 431 N 65.8796 4.41864 -1.38293 0
M  V30 432 H 63.0406 8.13644 -3.0377 0
M  V30 433 H 62.7706 6.42788 -2.55485 0
M  V30 434 H 63.6376 8.12039 -0.792769 0
M  V30 435 P 67.5996 8.91 -4.36464e-15 0
M  V30 436 O 67.8196 10.1726 0.733694 0
M  V30 437 O 68.3896 8.73148 -1.23936 0
M  V30 438 O 67.8496 7.66872 0.971405 0
M  V30 439 C 66.9096 7.42309 2.04641 0
M  V30 440 C 67.6396 6.86059 3.24661 0
M  V30 441 O 67.8496 5.42847 3.03646 0
M  V30 442 C 69.0396 7.41196 3.50753 0
M  V30 443 O 69.4296 7.27073 4.86816 0
M  V30 444 C 69.9196 6.5273 2.63741 0
M  V30 445 C 69.2096 5.1842 2.73198 0
M  V30 446 N 69.2596 4.38762 1.4784 0
M  V30 447 C 69.1796 4.81605 0.168631 0
M  V30 448 N 69.2596 3.85454 -0.713363 0
M  V30 449 C 69.3996 2.6994 0.0566958 0
M  V30 450 C 69.5296 1.34815 -0.338502 0
M  V30 451 O 69.5496 0.869548 -1.47125 0
M  V30 452 N 69.6496 0.496304 0.77465 0
M  V30 453 C 69.6496 0.908403 2.09122 0
M  V30 454 N 69.7796 -0.0517805 3.00955 0
M  V30 455 N 69.5196 2.17875 2.46519 0
M  V30 456 C 69.3996 3.01988 1.4033 0
M  V30 457 H 66.4206 8.36803 2.32493 0
M  V30 458 H 66.1506 6.70197 1.71129 0
M  V30 459 H 67.0176 7.03551 4.13168 0
M  V30 460 H 69.6726 4.59498 3.54415 0
M  V30 461 H 69.9516 6.88898 1.59848 0
M  V30 462 H 70.9436 6.46749 3.03687 0
M  V30 463 H 69.1096 8.46908 3.20714 0
M  V30 464 H 69.0606 5.86405 -0.105564 0
M  V30 465 H 69.7426 -0.483664 0.597855 0
M  V30 466 H 69.7796 0.187865 4.0116 0
M  V30 467 H 69.8806 -1.03585 2.71726 0
M  V30 468 P 70.9796 7.20834 5.23717 0
M  V30 469 O 71.1996 7.79853 6.57286 0
M  V30 470 O 71.7696 7.79239 4.12957 0
M  V30 471 O 71.2296 5.63315 5.29344 0
M  V30 472 C 70.2896 4.80255 6.01876 0
M  V30 473 C 71.0196 3.64202 6.65911 0
M  V30 474 O 71.2296 2.60694 5.64732 0
M  V30 475 C 72.4196 3.93473 7.1943 0
M  V30 476 O 72.8096 3.02071 8.21205 0
M  V30 477 C 73.2996 3.73047 5.97036 0
M  V30 478 C 72.5896 2.58828 5.25741 0
M  V30 479 N 72.6396 2.68068 3.77503 0
M  V30 480 C 72.5596 3.79715 2.96723 0
M  V30 481 N 72.6396 3.5377 1.68852 0
M  V30 482 C 72.7796 2.15054 1.63254 0
M  V30 483 C 72.9096 1.28964 0.518571 0
M  V30 484 N 73.0296 -0.0538097 0.918425 0
M  V30 485 C 73.0296 -0.494275 2.22578 0
M  V30 486 N 73.1596 -1.81086 2.40434 0
M  V30 487 N 72.8996 0.313645 3.27502 0
M  V30 488 C 72.7796 1.61829 2.91033 0
M  V30 489 H 69.8006 5.40332 6.79951 0
M  V30 490 H 69.5306 4.41613 5.32378 0
M  V30 491 H 70.3976 3.26331 7.47797 0
M  V30 492 P 74.3596 2.75334 8.47391 0
M  V30 493 O 74.5796 2.44595 9.90239 0
M  V30 494 O 75.1496 3.87732 7.92204 0
M  V30 495 O 74.6096 1.4459 7.59357 0
M  V30 496 C 73.6696 0.347563 7.69115 0
M  V30 497 C 74.3996 -0.96767 7.52806 0
M  V30 498 O 74.6096 -1.21036 6.1011 0
M  V30 499 C 75.7996 -1.04544 8.13308 0
M  V30 500 O 76.1896 -2.38311 8.41922 0
M  V30 501 C 76.6796 -0.491279 7.02284 0
M  V30 502 C 75.9696 -0.996264 5.77469 0
M  V30 503 N 76.0196 -0.0501808 4.62873 0
M  V30 504 C 76.1696 -0.588177 3.36904 0
M  V30 505 O 76.2596 -1.78598 3.17173 0
M  V30 506 N 76.2096 0.329694 2.33686 0
M  V30 507 C 76.1196 1.6953 2.45079 0
M  V30 508 O 76.1696 2.41926 1.44899 0
M  V30 509 C 75.9696 2.16933 3.80505 0
M  V30 510 C 75.8596 3.65373 3.97621 0
M  V30 511 C 75.9196 1.30326 4.83752 0
M  V30 512 H 73.1796 0.374722 8.67691 0
M  V30 513 H 72.9106 0.443421 6.90177 0
M  V30 514 H 73.7776 -1.75537 7.96793 0
M  V30 515 H 76.4326 -1.94496 5.46629 0
M  V30 516 H 76.7116 0.608651 7.04676 0
M  V30 517 H 77.7036 -0.889672 7.08939 0
M  V30 518 H 75.8696 -0.43308 9.04564 0
M  V30 519 H 75.7986 1.68366 5.8516 0
M  V30 520 H 76.8286 4.05985 4.30448 0
M  V30 521 H 75.0916 3.88028 4.72875 0
M  V30 522 H 75.5796 4.11381 3.01609 0
M  V30 523 H 76.3156 -0.0393617 1.41345 0
M  V30 524 P 77.7395 -2.75334 8.47391 0
M  V30 525 O 77.9595 -3.84128 9.44797 0
M  V30 526 O 78.5295 -1.51947 8.68712 0
M  V30 527 O 77.9895 -3.29363 6.99321 0
M  V30 528 C 77.0495 -4.24011 6.4274 0
M  V30 529 C 77.7795 -5.20775 5.52155 0
M  V30 530 O 77.9895 -4.56534 4.22446 0
M  V30 531 C 79.1795 -5.62629 5.96531 0
M  V30 532 O 79.5695 -6.87667 5.41053 0
M  V30 533 C 80.0595 -4.52537 5.39283 0
M  V30 534 C 79.3495 -4.20027 4.08623 0
M  V30 535 N 79.3995 -2.76189 3.71603 0
M  V30 536 C 79.3195 -1.64862 4.52822 0
M  V30 537 N 79.3995 -0.512671 3.88633 0
M  V30 538 C 79.5395 -0.888083 2.54977 0
M  V30 539 C 79.6695 -0.094668 1.38677 0
M  V30 540 N 79.7895 -0.890102 0.232633 0
M  V30 541 C 79.7895 -2.26958 0.21772 0
M  V30 542 N 79.9195 -2.84626 -0.97925 0
M  V30 543 N 79.6595 -3.0178 1.31033 0
M  V30 544 C 79.5395 -2.26781 2.43843 0
M  V30 545 H 76.5605 -4.797 7.24003 0
M  V30 546 H 76.2905 -3.69856 5.84513 0
M  V30 547 H 77.1575 -6.10356 5.41441 0
M  V30 548 P 81.1195 -7.20834 5.23717 0
M  V30 549 O 81.3395 -8.66104 5.38572 0
M  V30 550 O 81.9095 -6.33544 6.1349 0
M  V30 551 O 81.3695 -6.7751 3.72168 0
M  V30 552 C 80.4295 -7.20825 2.7076 0
M  V30 553 C 81.1595 -7.45864 1.40599 0
M  V30 554 O 81.3695 -6.17651 0.734225 0
M  V30 555 C 82.5595 -8.05808 1.51899 0
M  V30 556 O 82.9495 -8.74358 0.335205 0
M  V30 557 C 83.4395 -6.83093 1.70294 0
M  V30 558 C 82.7295 -5.79992 0.836974 0
M  V30 559 N 82.7795 -4.41864 1.38293 0
M  V30 560 H 79.9405 -8.13644 3.0377 0
M  V30 561 H 79.6705 -6.42788 2.55485 0
M  V30 562 H 80.5375 -8.12039 0.792769 0
M  V30 563 P 84.4995 -8.91 5.4558e-15 0
M  V30 564 O 84.7195 -10.1726 -0.733694 0
M  V30 565 O 85.2895 -8.73148 1.23936 0
M  V30 566 O 84.7495 -7.66872 -0.971405 0
M  V30 567 C 83.8095 -7.42309 -2.04641 0
M  V30 568 C 84.5395 -6.86059 -3.24661 0
M  V30 569 O 84.7495 -5.42847 -3.03646 0
M  V30 570 C 85.9395 -7.41196 -3.50753 0
M  V30 571 O 86.3295 -7.27073 -4.86816 0
M  V30 572 C 86.8195 -6.5273 -2.63741 0
M  V30 573 C 86.1095 -5.1842 -2.73198 0
M  V30 574 N 86.1595 -4.38762 -1.4784 0
M  V30 575 H 83.3205 -8.36803 -2.32493 0
M  V30 576 H 83.0505 -6.70197 -1.71129 0
M  V30 577 H 83.9175 -7.03551 -4.13168 0
M  V30 578 P 87.8795 -7.20834 -5.23717 0
M  V30 579 O 88.0995 -7.79853 -6.57286 0
M  V30 580 O 88.6695 -7.79239 -4.12957 0
M  V30 581 O 88.1295 -5.63315 -5.29344 0
M  V30 582 C 87.1895 -4.80255 -6.01876 0
M  V30 583 C 87.9195 -3.64202 -6.65911 0
M  V30 584 O 88.1295 -2.60694 -5.64732 0
M  V30 585 C 89.3195 -3.93473 -7.1943 0
M  V30 586 O 89.7095 -3.02071 -8.21205 0
M  V30 587 C 90.1995 -3.73047 -5.97036 0
M  V30 588 C 89.4895 -2.58828 -5.25741 0
M  V30 589 N 89.5395 -2.68068 -3.77503 0
M  V30 590 H 86.7005 -5.40332 -6.79951 0
M  V30 591 H 86.4305 -4.41613 -5.32378 0
M  V30 592 H 87.2975 -3.26331 -7.47797 0
M  V30 593 P 91.2595 -2.75334 -8.47391 0
M  V30 594 O 91.4795 -2.44571 -9.90142 0
M  V30 595 O 92.0495 -3.87688 -7.92115 0
M  V30 596 O 91.5095 -1.4459 -7.59357 0
M  V30 597 C 90.5695 -0.347608 -7.69215 0
M  V30 598 C 91.2995 0.96767 -7.52806 0
M  V30 599 O 91.5095 1.21036 -6.1011 0
M  V30 600 C 92.6995 1.04544 -8.13308 0
M  V30 601 O 93.0895 2.38311 -8.41922 0
M  V30 602 C 93.5795 0.491279 -7.02284 0
M  V30 603 C 92.8695 0.996264 -5.77469 0
M  V30 604 N 92.9195 0.0501916 -4.62973 0
M  V30 605 C 92.8395 -1.32786 -4.63244 0
M  V30 606 N 92.9195 -1.86957 -3.44545 0
M  V30 607 C 93.0595 -0.780241 -2.58481 0
M  V30 608 C 93.1895 -0.738536 -1.17757 0
M  V30 609 O 93.2095 -1.66794 -0.372349 0
M  V30 610 N 93.3095 0.58337 -0.711393 0
M  V30 611 C 93.3095 1.70816 -1.51017 0
M  V30 612 N 93.4395 2.87826 -0.880757 0
M  V30 613 N 93.1795 1.67126 -2.8339 0
M  V30 614 C 93.0595 0.401421 -3.30572 0
M  V30 615 H 90.0805 -0.374722 -8.67691 0
M  V30 616 H 89.8105 -0.443485 -6.90277 0
M  V30 617 H 90.6775 1.75537 -7.96793 0
M  V30 618 H 93.3325 1.95076 -5.46529 0
M  V30 619 H 93.6115 -0.608565 -7.04577 0
M  V30 620 H 94.6035 0.889672 -7.08939 0
M  V30 621 H 92.7695 0.43308 -9.04564 0
M  V30 622 H 92.7205 -1.91249 -5.54442 0
M  V30 623 H 93.4025 0.718054 0.275244 0
M  V30 624 H 93.4395 3.75721 -1.41832 0
M  V30 625 H 93.5405 2.90436 0.145468 0
M  V30 626 P 94.6394 2.75334 -8.47391 0
M  V30 627 O 94.8594 3.84128 -9.44797 0
M  V30 628 O 95.4294 1.51947 -8.68712 0
M  V30 629 O 94.8894 3.29363 -6.99321 0
M  V30 630 C 93.9494 4.24011 -6.4274 0
M  V30 631 C 94.6794 5.20775 -5.52155 0
M  V30 632 O 94.8894 4.56534 -4.22446 0
M  V30 633 C 96.0794 5.62629 -5.96531 0
M  V30 634 O 96.4694 6.87667 -5.41053 0
M  V30 635 C 96.9594 4.52537 -5.39283 0
M  V30 636 C 96.2494 4.20027 -4.08623 0
M  V30 637 N 96.2994 2.76189 -3.71603 0
M  V30 638 H 93.4604 4.797 -7.24003 0
M  V30 639 H 93.1904 3.69856 -5.84513 0
M  V30 640 H 94.0574 6.10356 -5.41441 0
M  V30 641 P 98.0194 7.20834 -5.23717 0
M  V30 642 O 98.2394 8.66104 -5.38572 0
M  V30 643 O 98.8094 6.33544 -6.1349 0
M  V30 644 O 98.2694 6.7751 -3.72168 0
M  V30 645 C 97.3294 7.20825 -2.7076 0
M  V30 646 C 98.0594 7.45864 -1.40599 0
M  V30 647 O 98.2694 6.17651 -0.734225 0
M  V30 648 C 99.4594 8.05808 -1.51899 0
M  V30 649 O 99.8494 8.74358 -0.335205 0
M  V30 650 C 100.339 6.83093 -1.70294 0
M  V30 651 C 99.6294 5.79992 -0.836974 0
M  V30 652 N 99.6794 4.41864 -1.38293 0
M  V30 653 C 99.5994 3.99538 -2.69438 0
M  V30 654 N 99.6794 2.69909 -2.84277 0
M  V30 655 C 99.8194 2.21719 -1.5408 0
M  V30 656 C 99.9494 0.891712 -1.06628 0
M  V30 657 O 99.9694 -0.161298 -1.70137 0
M  V30 658 N 100.069 0.856846 0.334985 0
M  V30 659 C 100.069 1.9641 1.15789 0
M  V30 660 N 100.199 1.72708 2.46522 0
M  V30 661 N 99.9394 3.21165 0.713741 0
M  V30 662 C 99.8194 3.26797 -0.639748 0
M  V30 663 H 96.8404 8.13644 -3.0377 0
M  V30 664 H 96.5704 6.42788 -2.55485 0
M  V30 665 H 97.4374 8.12039 -0.792769 0
M  V30 666 H 100.092 5.80061 0.166416 0
M  V30 667 H 100.371 6.51287 -2.75604 0
M  V30 668 H 101.363 7.01734 -1.34462 0
M  V30 669 H 99.5294 8.73674 -2.38337 0
M  V30 670 H 99.4804 4.68207 -3.53221 0
M  V30 671 H 100.162 -0.0398818 0.767965 0
M  V30 672 H 100.199 2.50995 3.13503 0
M  V30 673 H 100.3 0.759148 2.80716 0
M  V30 674 P 101.399 8.91 -6.54696e-15 0
M  V30 675 O 101.619 10.1726 0.733694 0
M  V30 676 O 102.189 8.73148 -1.23936 0
M  V30 677 O 101.649 7.66872 0.971405 0
M  V30 678 C 100.709 7.42309 2.04641 0
M  V30 679 C 101.439 6.86059 3.24661 0
M  V30 680 O 101.649 5.42847 3.03646 0
M  V30 681 C 102.839 7.41196 3.50753 0
M  V30 682 O 103.229 7.27073 4.86816 0
M  V30 683 C 103.719 6.5273 2.63741 0
M  V30 684 C 103.009 5.1842 2.73198 0
M  V30 685 N 103.059 4.38762 1.4784 0
M  V30 686 H 100.22 8.36803 2.32493 0
M  V30 687 H 99.9504 6.70197 1.71129 0
M  V30 688 H 100.817 7.03551 4.13168 0
M  V30 689 P 104.779 7.20834 5.23717 0
M  V30 690 O 104.999 7.79853 6.57286 0
M  V30 691 O 105.569 7.79239 4.12957 0
M  V30 692 O 105.029 5.63315 5.29344 0
M  V30 693 C 104.089 4.80255 6.01876 0
M  V30 694 C 104.819 3.64202 6.65911 0
M  V30 695 O 105.029 2.60694 5.64732 0
M  V30 696 C 106.219 3.93473 7.1943 0
M  V30 697 O 106.609 3.02071 8.21205 0
M  V30 698 C 107.099 3.73047 5.97036 0
M  V30 699 C 106.389 2.58828 5.25741 0
M  V30 700 N 106.439 2.68068 3.77503 0
M  V30 701 H 103.6 5.40332 6.79951 0
M  V30 702 H 103.33 4.41613 5.32378 0
M  V30 703 H 104.197 3.26331 7.47797 0
M  V30 704 P 108.159 2.75334 8.47391 0
M  V30 705 O 108.379 2.44571 9.90142 0
M  V30 706 O 108.949 3.87688 7.92115 0
M  V30 707 O 108.409 1.4459 7.59357 0
M  V30 708 C 107.469 0.347608 7.69215 0
M  V30 709 C 108.199 -0.96767 7.52806 0
M  V30 710 O 108.409 -1.21036 6.1011 0
M  V30 711 C 109.599 -1.04544 8.13308 0
M  V30 712 O 109.989 -2.38311 8.41922 0
M  V30 713 C 110.479 -0.491279 7.02284 0
M  V30 714 C 109.769 -0.996264 5.77469 0
M  V30 715 N 109.819 -0.0501916 4.62973 0
M  V30 716 H 106.98 0.374722 8.67691 0
M  V30 717 H 106.71 0.443485 6.90277 0
M  V30 718 H 107.577 -1.75537 7.96793 0
M  V30 719 P 111.539 -2.75334 8.47391 0
M  V30 720 O 111.759 -3.84204 9.44982 0
M  V30 721 O 112.329 -1.51982 8.68909 0
M  V30 722 O 111.789 -3.29363 6.99321 0
M  V30 723 C 110.849 -4.24066 6.42823 0
M  V30 724 C 111.579 -5.20775 5.52155 0
M  V30 725 O 111.789 -4.56607 4.22514 0
M  V30 726 C 112.979 -5.62697 5.96604 0
M  V30 727 O 113.369 -6.87667 5.41053 0
M  V30 728 C 113.859 -4.52537 5.39283 0
M  V30 729 C 113.149 -4.20027 4.08623 0
M  V30 730 N 113.199 -2.76189 3.71603 0
M  V30 731 C 113.119 -1.66944 4.54297 0
M  V30 732 N 113.189 -0.536169 3.91344 0
M  V30 733 C 113.339 -0.901569 2.58849 0
M  V30 734 C 113.469 -0.146599 1.40236 0
M  V30 735 N 113.479 1.18234 1.37046 0
M  V30 736 N 113.589 -0.822941 0.249738 0
M  V30 737 C 113.579 -2.15179 0.280525 0
M  V30 738 N 113.459 -2.96414 1.30822 0
M  V30 739 C 113.339 -2.25804 2.44748 0
M  V30 740 H 110.361 -4.79756 7.24086 0
M  V30 741 H 110.089 -3.69963 5.84682 0
M  V30 742 H 110.957 -6.10431 5.41508 0
M  V30 743 H 113.612 -4.78816 3.28024 0
M  V30 744 H 113.892 -3.64957 6.05871 0
M  V30 745 H 114.883 -4.88748 5.21323 0
M  V30 746 H 113.049 -5.66789 7.0643 0
M  V30 747 H 113.008 -1.74684 5.62396 0
M  V30 748 H 113.389 1.71949 2.24394 0
M  V30 749 H 113.578 1.67511 0.470742 0
M  V30 750 H 113.686 -2.63704 -0.6828 0
M  V30 751 P 114.919 -7.20834 5.23717 0
M  V30 752 O 115.139 -8.66104 5.38572 0
M  V30 753 O 115.709 -6.33544 6.1349 0
M  V30 754 O 115.169 -6.7751 3.72168 0
M  V30 755 C 114.229 -7.20825 2.7076 0
M  V30 756 C 114.959 -7.45864 1.40599 0
M  V30 757 O 115.169 -6.17651 0.734225 0
M  V30 758 C 116.359 -8.05808 1.51899 0
M  V30 759 O 116.749 -8.74358 0.335205 0
M  V30 760 C 117.239 -6.83093 1.70294 0
M  V30 761 C 116.529 -5.79992 0.836974 0
M  V30 762 N 116.579 -4.41864 1.38293 0
M  V30 763 H 113.74 -8.13644 3.0377 0
M  V30 764 H 113.47 -6.42788 2.55485 0
M  V30 765 H 114.337 -8.12039 0.792769 0
M  V30 766 P 118.299 -8.91 7.63812e-15 0
M  V30 767 O 118.519 -10.1726 -0.733694 0
M  V30 768 O 119.089 -8.73148 1.23936 0
M  V30 769 O 118.549 -7.66872 -0.971405 0
M  V30 770 C 117.609 -7.42309 -2.04641 0
M  V30 771 C 118.339 -6.86059 -3.24661 0
M  V30 772 O 118.549 -5.42847 -3.03646 0
M  V30 773 C 119.739 -7.41196 -3.50753 0
M  V30 774 O 120.129 -7.27073 -4.86816 0
M  V30 775 C 120.619 -6.5273 -2.63741 0
M  V30 776 C 119.909 -5.1842 -2.73198 0
M  V30 777 N 119.959 -4.38762 -1.4784 0
M  V30 778 H 117.12 -8.36803 -2.32493 0
M  V30 779 H 116.85 -6.70197 -1.71129 0
M  V30 780 H 117.717 -7.03551 -4.13168 0
M  V30 781 P 121.679 -7.20834 -5.23717 0
M  V30 782 O 121.899 -7.80006 -6.57415 0
M  V30 783 O 122.469 -7.79416 -4.13051 0
M  V30 784 O 121.929 -5.63315 -5.29344 0
M  V30 785 C 120.989 -4.80318 -6.01954 0
M  V30 786 C 121.719 -3.64202 -6.65911 0
M  V30 787 O 121.929 -2.60736 -5.64823 0
M  V30 788 C 123.119 -3.93521 -7.19518 0
M  V30 789 O 123.509 -3.02071 -8.21205 0
M  V30 790 C 123.999 -3.73047 -5.97036 0
M  V30 791 C 123.289 -2.58828 -5.25741 0
M  V30 792 N 123.339 -2.68068 -3.77503 0
M  V30 793 H 120.501 -5.40394 -6.8003 0
M  V30 794 H 120.229 -4.41741 -5.32532 0
M  V30 795 H 121.097 -3.26371 -7.47889 0
M  V30 796 H 123.752 -1.64007 -5.56746 0
M  V30 797 H 124.032 -4.63439 -5.3432 0
M  V30 798 H 125.023 -3.44776 -6.25925 0
M  V30 799 H 123.189 -4.96707 -7.57347 0
M  V30 800 P 125.059 -2.75334 -8.47391 0
M  V30 801 O 125.279 -2.44571 -9.90142 0
M  V30 802 O 125.849 -3.87688 -7.92115 0
M  V30 803 O 125.309 -1.4459 -7.59357 0
M  V30 804 C 124.369 -0.347608 -7.69215 0
M  V30 805 C 125.099 0.96767 -7.52806 0
M  V30 806 O 125.309 1.21036 -6.1011 0
M  V30 807 C 126.499 1.04544 -8.13308 0
M  V30 808 O 126.889 2.38311 -8.41922 0
M  V30 809 C 127.379 0.491279 -7.02284 0
M  V30 810 C 126.669 0.996264 -5.77469 0
M  V30 811 N 126.719 0.0501916 -4.62973 0
M  V30 812 H 123.88 -0.374722 -8.67691 0
M  V30 813 H 123.61 -0.443485 -6.90277 0
M  V30 814 H 124.477 1.75537 -7.96793 0
M  V30 815 P 128.439 2.75334 -8.47391 0
M  V30 816 O 128.659 3.84128 -9.44797 0
M  V30 817 O 129.229 1.51947 -8.68712 0
M  V30 818 O 128.689 3.29363 -6.99321 0
M  V30 819 C 127.749 4.24011 -6.4274 0
M  V30 820 C 128.479 5.20775 -5.52155 0
M  V30 821 O 128.689 4.56534 -4.22446 0
M  V30 822 C 129.879 5.62629 -5.96531 0
M  V30 823 O 130.269 6.87667 -5.41053 0
M  V30 824 C 130.759 4.52537 -5.39283 0
M  V30 825 C 130.049 4.20027 -4.08623 0
M  V30 826 N 130.099 2.76189 -3.71603 0
M  V30 827 H 127.26 4.797 -7.24003 0
M  V30 828 H 126.99 3.69856 -5.84513 0
M  V30 829 H 127.857 6.10356 -5.41441 0
M  V30 830 P 131.819 7.20834 -5.23717 0
M  V30 831 O 132.039 8.66104 -5.38572 0
M  V30 832 O 132.609 6.33544 -6.1349 0
M  V30 833 O 132.069 6.7751 -3.72168 0
M  V30 834 C 131.129 7.20825 -2.7076 0
M  V30 835 C 131.859 7.45864 -1.40599 0
M  V30 836 O 132.069 6.17651 -0.734225 0
M  V30 837 C 133.259 8.05808 -1.51899 0
M  V30 838 O 133.649 8.74358 -0.335205 0
M  V30 839 C 134.139 6.83093 -1.70294 0
M  V30 840 C 133.429 5.79992 -0.836974 0
M  V30 841 N 133.479 4.41864 -1.38293 0
M  V30 842 C 133.399 3.99538 -2.69438 0
M  V30 843 N 133.479 2.69909 -2.84277 0
M  V30 844 C 133.619 2.21719 -1.5408 0
M  V30 845 C 133.749 0.891712 -1.06628 0
M  V30 846 O 133.769 -0.161298 -1.70137 0
M  V30 847 N 133.869 0.856846 0.334985 0
M  V30 848 C 133.869 1.9641 1.15789 0
M  V30 849 N 133.999 1.72708 2.46522 0
M  V30 850 N 133.739 3.21165 0.713741 0
M  V30 851 C 133.619 3.26797 -0.639748 0
M  V30 852 H 130.64 8.13644 -3.0377 0
M  V30 853 H 130.37 6.42788 -2.55485 0
M  V30 854 H 131.237 8.12039 -0.792769 0
M  V30 855 H 133.892 5.80061 0.166416 0
M  V30 856 H 134.171 6.51287 -2.75604 0
M  V30 857 H 135.163 7.01734 -1.34462 0
M  V30 858 H 133.329 8.73674 -2.38337 0
M  V30 859 H 133.28 4.68207 -3.53221 0
M  V30 860 H 133.962 -0.0398818 0.767965 0
M  V30 861 H 133.999 2.50995 3.13503 0
M  V30 862 H 134.1 0.759148 2.80716 0
M  V30 863 P 135.199 8.91 -8.72928e-15 0
M  V30 864 O 135.419 10.1726 0.733694 0
M  V30 865 O 135.989 8.73148 -1.23936 0
M  V30 866 O 135.449 7.66872 0.971405 0
M  V30 867 C 134.509 7.42309 2.04641 0
M  V30 868 C 135.239 6.86059 3.24661 0
M  V30 869 O 135.449 5.42847 3.03646 0
M  V30 870 C 136.639 7.41196 3.50753 0
M  V30 871 O 137.029 7.27073 4.86816 0
M  V30 872 C 137.519 6.5273 2.63741 0
M  V30 873 C 136.809 5.1842 2.73198 0
M  V30 874 N 136.859 4.38762 1.4784 0
M  V30 875 H 134.02 8.36803 2.32493 0
M  V30 876 H 133.75 6.70197 1.71129 0
M  V30 877 H 134.617 7.03551 4.13168 0
M  V30 878 P 138.579 7.20834 5.23717 0
M  V30 879 O 138.799 7.79853 6.57286 0
M  V30 880 O 139.369 7.79239 4.12957 0
M  V30 881 O 138.829 5.63315 5.29344 0
M  V30 882 C 137.889 4.80255 6.01876 0
M  V30 883 C 138.619 3.64202 6.65911 0
M  V30 884 O 138.829 2.60694 5.64732 0
M  V30 885 C 140.019 3.93473 7.1943 0
M  V30 886 O 140.409 3.02071 8.21205 0
M  V30 887 C 140.899 3.73047 5.97036 0
M  V30 888 C 140.189 2.58828 5.25741 0
M  V30 889 N 140.239 2.68068 3.77503 0
M  V30 890 C 140.159 3.79715 2.96723 0
M  V30 891 N 140.239 3.5377 1.68852 0
M  V30 892 C 140.379 2.15054 1.63254 0
M  V30 893 C 140.509 1.28964 0.518571 0
M  V30 894 O 140.529 1.56826 -0.679156 0
M  V30 895 N 140.629 -0.0538097 0.918425 0
M  V30 896 C 140.629 -0.494275 2.22578 0
M  V30 897 N 140.759 -1.81086 2.40434 0
M  V30 898 N 140.499 0.313645 3.27502 0
M  V30 899 C 140.379 1.61829 2.91033 0
M  V30 900 H 137.4 5.40332 6.79951 0
M  V30 901 H 137.13 4.41613 5.32378 0
M  V30 902 H 137.997 3.26331 7.47797 0
M  V30 903 H 140.652 1.63422 5.56814 0
M  V30 904 H 140.931 4.63374 5.34244 0
M  V30 905 H 141.923 3.44728 6.25838 0
M  V30 906 H 140.089 4.96652 7.57263 0
M  V30 907 H 140.04 4.80617 3.3614 0
M  V30 908 H 140.722 -0.742702 0.199384 0
M  V30 909 H 140.759 -2.20598 3.35588 0
M  V30 910 H 140.86 -2.43518 1.58945 0
M  V30 911 P 141.959 2.75334 8.47391 0
M  V30 912 O 142.179 2.44571 9.90142 0
M  V30 913 O 142.749 3.87688 7.92115 0
M  V30 914 O 142.209 1.4459 7.59357 0
M  V30 915 C 141.269 0.347608 7.69215 0
M  V30 916 C 141.999 -0.96767 7.52806 0
M  V30 917 O 142.209 -1.21036 6.1011 0
M  V30 918 C 143.399 -1.04544 8.13308 0
M  V30 919 O 143.789 -2.38311 8.41922 0
M  V30 920 C 144.279 -0.491279 7.02284 0
M  V30 921 C 143.569 -0.996264 5.77469 0
M  V30 922 N 143.619 -0.0501916 4.62973 0
M  V30 923 H 140.78 0.374722 8.67691 0
M  V30 924 H 140.51 0.443485 6.90277 0
M  V30 925 H 141.377 -1.75537 7.96793 0
M  V30 926 P 145.339 -2.75334 8.47391 0
M  V30 927 O 145.559 -3.84128 9.44797 0
M  V30 928 O 146.129 -1.51947 8.68712 0
M  V30 929 O 145.589 -3.29363 6.99321 0
M  V30 930 C 144.649 -4.24011 6.4274 0
M  V30 931 C 145.379 -5.20775 5.52155 0
M  V30 932 O 145.589 -4.56534 4.22446 0
M  V30 933 C 146.779 -5.62629 5.96531 0
M  V30 934 O 147.169 -6.87667 5.41053 0
M  V30 935 C 147.659 -4.52537 5.39283 0
M  V30 936 C 146.949 -4.20027 4.08623 0
M  V30 937 N 146.999 -2.76189 3.71603 0
M  V30 938 C 146.919 -1.64862 4.52822 0
M  V30 939 N 146.999 -0.512671 3.88633 0
M  V30 940 C 147.139 -0.888083 2.54977 0
M  V30 941 C 147.269 -0.094668 1.38677 0
M  V30 942 O 147.289 1.13053 1.28163 0
M  V30 943 N 147.389 -0.890102 0.232633 0
M  V30 944 C 147.389 -2.26958 0.21772 0
M  V30 945 N 147.519 -2.84626 -0.97925 0
M  V30 946 N 147.259 -3.0178 1.31033 0
M  V30 947 C 147.139 -2.26781 2.43843 0
M  V30 948 H 144.16 -4.797 7.24003 0
M  V30 949 H 143.89 -3.69856 5.84513 0
M  V30 950 H 144.757 -6.10356 5.41441 0
M  V30 951 H 147.412 -4.79061 3.27488 0
M  V30 952 H 147.691 -3.64906 6.05785 0
M  V30 953 H 148.683 -4.8868 5.2125 0
M  V30 954 H 146.849 -5.66726 7.06352 0
M  V30 955 H 146.8 -1.71169 5.60966 0
M  V30 956 H 147.482 -0.419134 -0.644739 0
M  V30 957 H 147.519 -3.87332 -1.06098 0
M  V30 958 H 147.62 -2.26417 -1.82483 0
M  V30 959 P 148.719 -7.20834 5.23717 0
M  V30 960 O 148.939 -8.66104 5.38572 0
M  V30 961 O 149.509 -6.33544 6.1349 0
M  V30 962 O 148.969 -6.7751 3.72168 0
M  V30 963 C 148.029 -7.20825 2.7076 0
M  V30 964 C 148.759 -7.45864 1.40599 0
M  V30 965 O 148.969 -6.17651 0.734225 0
M  V30 966 C 150.159 -8.05808 1.51899 0
M  V30 967 O 150.549 -8.74358 0.335205 0
M  V30 968 C 151.039 -6.83093 1.70294 0
M  V30 969 C 150.329 -5.79992 0.836974 0
M  V30 970 N 150.379 -4.41864 1.38293 0
M  V30 971 H 147.54 -8.13644 3.0377 0
M  V30 972 H 147.27 -6.42788 2.55485 0
M  V30 973 H 148.137 -8.12039 0.792769 0
M  V30 974 P 152.099 -8.91 9.82044e-15 0
M  V30 975 O 152.319 -10.1726 -0.733694 0
M  V30 976 O 152.889 -8.73148 1.23936 0
M  V30 977 O 152.349 -7.66872 -0.971405 0
M  V30 978 C 151.409 -7.42309 -2.04641 0
M  V30 979 C 152.139 -6.86059 -3.24661 0
M  V30 980 O 152.349 -5.42847 -3.03646 0
M  V30 981 C 153.539 -7.41196 -3.50753 0
M  V30 982 O 153.929 -7.27073 -4.86816 0
M  V30 983 C 154.419 -6.5273 -2.63741 0
M  V30 984 C 153.709 -5.1842 -2.73198 0
M  V30 985 N 153.759 -4.38762 -1.4784 0
M  V30 986 H 150.92 -8.36803 -2.32493 0
M  V30 987 H 150.65 -6.70197 -1.71129 0
M  V30 988 H 151.517 -7.03551 -4.13168 0
M  V30 989 P 155.479 -7.20834 -5.23717 0
M  V30 990 O 155.699 -7.79853 -6.57286 0
M  V30 991 O 156.269 -7.79239 -4.12957 0
M  V30 992 O 155.729 -5.63315 -5.29344 0
M  V30 993 C 154.789 -4.80255 -6.01876 0
M  V30 994 C 155.519 -3.64202 -6.65911 0
M  V30 995 O 155.729 -2.60694 -5.64732 0
M  V30 996 C 156.919 -3.93473 -7.1943 0
M  V30 997 O 157.309 -3.02071 -8.21205 0
M  V30 998 C 157.799 -3.73047 -5.97036 0
M  V30 999 C 157.089 -2.58828 -5.25741 0
M  V30 1000 N 157.139 -2.68068 -3.77503 0
M  V30 1001 H 154.3 -5.40332 -6.79951 0
M  V30 1002 H 154.03 -4.41613 -5.32378 0
M  V30 1003 H 154.897 -3.26331 -7.47797 0
M  V30 1004 P 158.859 -2.75334 -8.47391 0
M  V30 1005 O 159.079 -2.44571 -9.90142 0
M  V30 1006 O 159.649 -3.87688 -7.92115 0
M  V30 1007 O 159.109 -1.4459 -7.59357 0
M  V30 1008 C 158.169 -0.347608 -7.69215 0
M  V30 1009 C 158.899 0.96767 -7.52806 0
M  V30 1010 O 159.109 1.21036 -6.1011 0
M  V30 1011 C 160.299 1.04544 -8.13308 0
M  V30 1012 O 160.689 2.38311 -8.41922 0
M  V30 1013 C 161.179 0.491279 -7.02284 0
M  V30 1014 C 160.469 0.996264 -5.77469 0
M  V30 1015 N 160.519 0.0501916 -4.62973 0
M  V30 1016 H 157.68 -0.374722 -8.67691 0
M  V30 1017 H 157.41 -0.443485 -6.90277 0
M  V30 1018 H 158.277 1.75537 -7.96793 0
M  V30 1019 P 162.239 2.75334 -8.47391 0
M  V30 1020 O 162.459 3.84128 -9.44797 0
M  V30 1021 O 163.029 1.51947 -8.68712 0
M  V30 1022 O 162.489 3.29363 -6.99321 0
M  V30 1023 C 161.549 4.24011 -6.4274 0
M  V30 1024 C 162.279 5.20775 -5.52155 0
M  V30 1025 O 162.489 4.56534 -4.22446 0
M  V30 1026 C 163.679 5.62629 -5.96531 0
M  V30 1027 O 164.069 6.87667 -5.41053 0
M  V30 1028 C 164.559 4.52537 -5.39283 0
M  V30 1029 C 163.849 4.20027 -4.08623 0
M  V30 1030 N 163.899 2.76189 -3.71603 0
M  V30 1031 H 161.06 4.797 -7.24003 0
M  V30 1032 H 160.79 3.69856 -5.84513 0
M  V30 1033 H 161.657 6.10356 -5.41441 0
M  V30 1034 P 165.619 7.20834 -5.23717 0
M  V30 1035 O 165.839 8.66189 -5.38625 0
M  V30 1036 O 166.409 6.33615 -6.1356 0
M  V30 1037 O 165.869 6.7751 -3.72168 0
M  V30 1038 C 164.929 7.20732 -2.70725 0
M  V30 1039 C 165.659 7.45864 -1.40599 0
M  V30 1040 O 165.869 6.17651 -0.734225 0
M  V30 1041 C 167.059 8.05808 -1.51899 0
M  V30 1042 O 167.449 8.74358 -0.335205 0
M  V30 1043 C 167.939 6.83093 -1.70294 0
M  V30 1044 C 167.229 5.79992 -0.836974 0
M  V30 1045 N 167.279 4.41769 -1.38263 0
M  V30 1046 C 167.429 3.38591 -0.481702 0
M  V30 1047 O 167.519 3.56839 0.718452 0
M  V30 1048 N 167.469 2.1206 -1.03569 0
M  V30 1049 C 167.379 1.80696 -2.36966 0
M  V30 1050 O 167.429 0.630473 -2.74862 0
M  V30 1051 C 167.229 2.94845 -3.23898 0
M  V30 1052 C 167.119 2.65253 -4.70362 0
M  V30 1053 C 167.179 4.19803 -2.73435 0
M  V30 1054 H 164.439 8.13644 -3.0377 0
M  V30 1055 H 164.17 6.42695 -2.55448 0
M  V30 1056 H 165.037 8.12039 -0.792769 0
M  V30 1057 H 167.692 5.79978 0.160587 0
M  V30 1058 H 167.971 6.51379 -2.75643 0
M  V30 1059 H 168.963 7.01734 -1.34462 0
M  V30 1060 H 167.129 8.73674 -2.38337 0
M  V30 1061 H 167.058 5.04492 -3.4095 0
M  V30 1062 H 168.088 2.83924 -5.1913 0
M  V30 1063 H 166.351 3.29824 -5.15163 0
M  V30 1064 H 166.839 1.59723 -4.84449 0
M  V30 1065 H 167.575 1.35644 -0.399345 0
M  V30 1066 P 168.999 8.91 -1.09116e-14 0
M  V30 1067 O 169.219 10.1726 0.733694 0
M  V30 1068 O 169.789 8.73148 -1.23936 0
M  V30 1069 O 169.249 7.66872 0.971405 0
M  V30 1070 C 168.309 7.42309 2.04641 0
M  V30 1071 C 169.039 6.86059 3.24661 0
M  V30 1072 O 169.249 5.42847 3.03646 0
M  V30 1073 C 170.439 7.41196 3.50753 0
M  V30 1074 O 170.829 7.27073 4.86816 0
M  V30 1075 C 171.319 6.5273 2.63741 0
M  V30 1076 C 170.609 5.1842 2.73198 0
M  V30 1077 N 170.659 4.38762 1.4784 0
M  V30 1078 C 170.579 4.81605 0.168631 0
M  V30 1079 N 170.659 3.85454 -0.713363 0
M  V30 1080 C 170.799 2.6994 0.0566958 0
M  V30 1081 C 170.929 1.34815 -0.338502 0
M  V30 1082 O 170.949 0.869548 -1.47125 0
M  V30 1083 N 171.049 0.496304 0.77465 0
M  V30 1084 C 171.049 0.908403 2.09122 0
M  V30 1085 N 171.179 -0.0517805 3.00955 0
M  V30 1086 N 170.919 2.17875 2.46519 0
M  V30 1087 C 170.799 3.01988 1.4033 0
M  V30 1088 H 167.82 8.36803 2.32493 0
M  V30 1089 H 167.55 6.70197 1.71129 0
M  V30 1090 H 168.417 7.03551 4.13168 0
M  V30 1091 H 171.072 4.59498 3.54415 0
M  V30 1092 H 171.351 6.88898 1.59848 0
M  V30 1093 H 172.343 6.46749 3.03687 0
M  V30 1094 H 170.509 8.46908 3.20714 0
M  V30 1095 H 170.46 5.86405 -0.105564 0
M  V30 1096 H 171.142 -0.483664 0.597855 0
M  V30 1097 H 171.179 0.187865 4.0116 0
M  V30 1098 H 171.28 -1.03585 2.71726 0
M  V30 1099 P 172.379 7.20834 5.23717 0
M  V30 1100 O 172.599 7.79853 6.57286 0
M  V30 1101 O 173.169 7.79239 4.12957 0
M  V30 1102 O 172.629 5.63315 5.29344 0
M  V30 1103 C 171.689 4.80255 6.01876 0
M  V30 1104 C 172.419 3.64202 6.65911 0
M  V30 1105 O 172.629 2.60694 5.64732 0
M  V30 1106 C 173.819 3.93473 7.1943 0
M  V30 1107 O 174.209 3.02071 8.21205 0
M  V30 1108 C 174.699 3.73047 5.97036 0
M  V30 1109 C 173.989 2.58828 5.25741 0
M  V30 1110 N 174.039 2.68068 3.77503 0
M  V30 1111 C 173.959 3.79715 2.96723 0
M  V30 1112 N 174.039 3.5377 1.68852 0
M  V30 1113 C 174.179 2.15054 1.63254 0
M  V30 1114 C 174.309 1.28964 0.518571 0
M  V30 1115 N 174.429 -0.0538097 0.918425 0
M  V30 1116 C 174.429 -0.494275 2.22578 0
M  V30 1117 N 174.559 -1.81086 2.40434 0
M  V30 1118 N 174.299 0.313645 3.27502 0
M  V30 1119 C 174.179 1.61829 2.91033 0
M  V30 1120 H 171.2 5.40332 6.79951 0
M  V30 1121 H 170.93 4.41613 5.32378 0
M  V30 1122 H 171.797 3.26331 7.47797 0
M  V30 1123 P 175.759 2.75334 8.47391 0
M  V30 1124 O 175.979 2.44571 9.90142 0
M  V30 1125 O 176.549 3.87688 7.92115 0
M  V30 1126 O 176.009 1.4459 7.59357 0
M  V30 1127 C 175.069 0.347608 7.69215 0
M  V30 1128 C 175.799 -0.96767 7.52806 0
M  V30 1129 O 176.009 -1.21036 6.1011 0
M  V30 1130 C 177.199 -1.04544 8.13308 0
M  V30 1131 O 177.589 -2.38311 8.41922 0
M  V30 1132 C 178.079 -0.491279 7.02284 0
M  V30 1133 C 177.369 -0.996264 5.77469 0
M  V30 1134 N 177.419 -0.0501916 4.62973 0
M  V30 1135 H 174.58 0.374722 8.67691 0
M  V30 1136 H 174.31 0.443485 6.90277 0
M  V30 1137 H 175.177 -1.75537 7.96793 0
M  V30 1138 P 179.139 -2.75334 8.47391 0
M  V30 1139 O 179.359 -3.84128 9.44797 0
M  V30 1140 O 179.929 -1.51947 8.68712 0
M  V30 1141 O 179.389 -3.29363 6.99321 0
M  V30 1142 C 178.449 -4.24011 6.4274 0
M  V30 1143 C 179.179 -5.20775 5.52155 0
M  V30 1144 O 179.389 -4.56534 4.22446 0
M  V30 1145 C 180.579 -5.62629 5.96531 0
M  V30 1146 O 180.969 -6.87667 5.41053 0
M  V30 1147 C 181.459 -4.52537 5.39283 0
M  V30 1148 C 180.749 -4.20027 4.08623 0
M  V30 1149 N 180.799 -2.76189 3.71603 0
M  V30 1150 H 177.96 -4.797 7.24003 0
M  V30 1151 H 177.69 -3.69856 5.84513 0
M  V30 1152 H 178.557 -6.10356 5.41441 0
M  V30 1153 P 182.519 -7.20834 5.23717 0
M  V30 1154 O 182.739 -8.66104 5.38572 0
M  V30 1155 O 183.309 -6.33544 6.1349 0
M  V30 1156 O 182.769 -6.7751 3.72168 0
M  V30 1157 C 181.829 -7.20825 2.7076 0
M  V30 1158 C 182.559 -7.45864 1.40599 0
M  V30 1159 O 182.769 -6.17651 0.734225 0
M  V30 1160 C 183.959 -8.05808 1.51899 0
M  V30 1161 O 184.349 -8.74358 0.335205 0
M  V30 1162 C 184.839 -6.83093 1.70294 0
M  V30 1163 C 184.129 -5.79992 0.836974 0
M  V30 1164 N 184.179 -4.41864 1.38293 0
M  V30 1165 H 181.34 -8.13644 3.0377 0
M  V30 1166 H 181.07 -6.42788 2.55485 0
M  V30 1167 H 181.937 -8.12039 0.792769 0
M  V30 1168 P 185.899 -8.91 -8.29613e-14 0
M  V30 1169 O 186.119 -10.1726 -0.733694 0
M  V30 1170 O 186.689 -8.73148 1.23936 0
M  V30 1171 O 186.149 -7.66872 -0.971405 0
M  V30 1172 C 185.209 -7.42309 -2.04641 0
M  V30 1173 C 185.939 -6.86059 -3.24661 0
M  V30 1174 O 186.149 -5.42847 -3.03646 0
M  V30 1175 C 187.339 -7.41196 -3.50753 0
M  V30 1176 O 187.729 -7.27073 -4.86816 0
M  V30 1177 C 188.219 -6.5273 -2.63741 0
M  V30 1178 C 187.509 -5.1842 -2.73198 0
M  V30 1179 N 187.559 -4.38762 -1.4784 0
M  V30 1180 C 187.479 -4.81605 -0.168631 0
M  V30 1181 N 187.559 -3.85454 0.713363 0
M  V30 1182 C 187.699 -2.6994 -0.0566958 0
M  V30 1183 C 187.829 -1.34815 0.338502 0
M  V30 1184 O 187.849 -0.869548 1.47125 0
M  V30 1185 N 187.949 -0.496304 -0.77465 0
M  V30 1186 C 187.949 -0.908403 -2.09122 0
M  V30 1187 N 188.079 0.0517805 -3.00955 0
M  V30 1188 N 187.819 -2.17875 -2.46519 0
M  V30 1189 C 187.699 -3.01988 -1.4033 0
M  V30 1190 H 184.72 -8.36803 -2.32493 0
M  V30 1191 H 184.45 -6.70197 -1.71129 0
M  V30 1192 H 185.317 -7.03551 -4.13168 0
M  V30 1193 H 187.972 -4.59498 -3.54415 0
M  V30 1194 H 188.251 -6.88898 -1.59848 0
M  V30 1195 H 189.243 -6.46749 -3.03687 0
M  V30 1196 H 187.409 -8.46908 -3.20714 0
M  V30 1197 H 187.36 -5.86405 0.105564 0
M  V30 1198 H 188.042 0.483664 -0.597855 0
M  V30 1199 H 188.079 -0.187865 -4.0116 0
M  V30 1200 H 188.18 1.03585 -2.71726 0
M  V30 1201 P 189.279 -7.20834 -5.23717 0
M  V30 1202 O 189.499 -7.79853 -6.57286 0
M  V30 1203 O 190.069 -7.79239 -4.12957 0
M  V30 1204 O 189.529 -5.63315 -5.29344 0
M  V30 1205 C 188.589 -4.80255 -6.01876 0
M  V30 1206 C 189.319 -3.64202 -6.65911 0
M  V30 1207 O 189.529 -2.60694 -5.64732 0
M  V30 1208 C 190.719 -3.93473 -7.1943 0
M  V30 1209 O 191.109 -3.02071 -8.21205 0
M  V30 1210 C 191.599 -3.73047 -5.97036 0
M  V30 1211 C 190.889 -2.58828 -5.25741 0
M  V30 1212 N 190.939 -2.68068 -3.77503 0
M  V30 1213 H 188.1 -5.40332 -6.79951 0
M  V30 1214 H 187.83 -4.41613 -5.32378 0
M  V30 1215 H 188.697 -3.26331 -7.47797 0
M  V30 1216 P 192.659 -2.75334 -8.47391 0
M  V30 1217 O 192.879 -2.44619 -9.90336 0
M  V30 1218 O 193.449 -3.87776 -7.92294 0
M  V30 1219 O 192.909 -1.4459 -7.59357 0
M  V30 1220 C 191.969 -0.347653 -7.69315 0
M  V30 1221 C 192.699 0.96767 -7.52806 0
M  V30 1222 O 192.909 1.21055 -6.10208 0
M  V30 1223 C 194.099 1.04557 -8.13408 0
M  V30 1224 O 194.489 2.38311 -8.41922 0
M  V30 1225 C 194.979 0.491279 -7.02284 0
M  V30 1226 C 194.269 0.996264 -5.77469 0
M  V30 1227 N 194.319 0.0501916 -4.62973 0
M  V30 1228 C 194.239 -1.31969 -4.65661 0
M  V30 1229 N 194.309 -1.86649 -3.48119 0
M  V30 1230 C 194.459 -0.792089 -2.62406 0
M  V30 1231 C 194.589 -0.705684 -1.2207 0
M  V30 1232 N 194.599 -1.76207 -0.413762 0
M  V30 1233 N 194.709 0.518981 -0.685754 0
M  V30 1234 C 194.699 1.57595 -1.49174 0
M  V30 1235 N 194.579 1.62909 -2.80066 0
M  V30 1236 C 194.459 0.388195 -3.3073 0
M  V30 1237 H 191.481 -0.374765 -8.67791 0
M  V30 1238 H 191.209 -0.443613 -6.90476 0
M  V30 1239 H 192.077 1.75559 -7.96891 0
M  V30 1240 H 194.732 1.94563 -5.46818 0
M  V30 1241 H 195.012 -0.608651 -7.04676 0
M  V30 1242 H 196.003 0.889796 -7.09039 0
M  V30 1243 H 194.169 0.433128 -9.04664 0
M  V30 1244 H 194.128 -1.89246 -5.57664 0
M  V30 1245 H 194.509 -2.71005 -0.804694 0
M  V30 1246 H 194.698 -1.63189 0.603768 0
M  V30 1247 H 194.806 2.53475 -0.997614 0
M  V30 1248 P 196.039 2.75334 -8.47391 0
M  V30 1249 O 196.259 3.84128 -9.44797 0
M  V30 1250 O 196.829 1.51947 -8.68712 0
M  V30 1251 O 196.289 3.29363 -6.99321 0
M  V30 1252 C 195.349 4.24011 -6.4274 0
M  V30 1253 C 196.079 5.20775 -5.52155 0
M  V30 1254 O 196.289 4.56534 -4.22446 0
M  V30 1255 C 197.479 5.62629 -5.96531 0
M  V30 1256 O 197.869 6.87667 -5.41053 0
M  V30 1257 C 198.359 4.52537 -5.39283 0
M  V30 1258 C 197.649 4.20027 -4.08623 0
M  V30 1259 N 197.699 2.76189 -3.71603 0
M  V30 1260 C 197.619 1.64862 -4.52822 0
M  V30 1261 N 197.699 0.512671 -3.88633 0
M  V30 1262 C 197.839 0.888083 -2.54977 0
M  V30 1263 C 197.969 0.094668 -1.38677 0
M  V30 1264 O 197.989 -1.13053 -1.28163 0
M  V30 1265 N 198.089 0.890102 -0.232633 0
M  V30 1266 C 198.089 2.26958 -0.21772 0
M  V30 1267 N 198.219 2.84626 0.97925 0
M  V30 1268 N 197.959 3.0178 -1.31033 0
M  V30 1269 C 197.839 2.26781 -2.43843 0
M  V30 1270 H 194.86 4.797 -7.24003 0
M  V30 1271 H 194.59 3.69856 -5.84513 0
M  V30 1272 H 195.457 6.10356 -5.41441 0
M  V30 1273 H 198.112 4.79061 -3.27488 0
M  V30 1274 H 198.391 3.64906 -6.05785 0
M  V30 1275 H 199.383 4.8868 -5.2125 0
M  V30 1276 H 197.549 5.66726 -7.06352 0
M  V30 1277 H 197.5 1.71169 -5.60966 0
M  V30 1278 H 198.182 0.419134 0.644739 0
M  V30 1279 H 198.219 3.87332 1.06098 0
M  V30 1280 H 198.32 2.26417 1.82483 0
M  V30 1281 P 199.419 7.20834 -5.23717 0
M  V30 1282 O 199.639 8.66104 -5.38572 0
M  V30 1283 O 200.209 6.33544 -6.1349 0
M  V30 1284 O 199.669 6.7751 -3.72168 0
M  V30 1285 C 198.729 7.20825 -2.7076 0
M  V30 1286 C 199.459 7.45864 -1.40599 0
M  V30 1287 O 199.669 6.17651 -0.734225 0
M  V30 1288 C 200.859 8.05808 -1.51899 0
M  V30 1289 O 201.249 8.74358 -0.335205 0
M  V30 1290 C 201.739 6.83093 -1.70294 0
M  V30 1291 C 201.029 5.79992 -0.836974 0
M  V30 1292 N 201.079 4.41864 -1.38293 0
M  V30 1293 H 198.24 8.13644 -3.0377 0
M  V30 1294 H 197.97 6.42788 -2.55485 0
M  V30 1295 H 198.837 8.12039 -0.792769 0
M  V30 1296 P 202.799 8.91 2.40144e-13 0
M  V30 1297 O 203.019 10.1726 0.733694 0
M  V30 1298 O 203.589 8.73148 -1.23936 0
M  V30 1299 O 203.049 7.66872 0.971405 0
M  V30 1300 C 202.109 7.42309 2.04641 0
M  V30 1301 C 202.839 6.86059 3.24661 0
M  V30 1302 O 203.049 5.42847 3.03646 0
M  V30 1303 C 204.239 7.41196 3.50753 0
M  V30 1304 O 204.629 7.27073 4.86816 0
M  V30 1305 C 205.119 6.5273 2.63741 0
M  V30 1306 C 204.409 5.1842 2.73198 0
M  V30 1307 N 204.459 4.38762 1.4784 0
M  V30 1308 H 201.62 8.36803 2.32493 0
M  V30 1309 H 201.35 6.70197 1.71129 0
M  V30 1310 H 202.217 7.03551 4.13168 0
M  V30 1311 P 206.179 7.20834 5.23717 0
M  V30 1312 O 206.399 7.79853 6.57286 0
M  V30 1313 O 206.969 7.79239 4.12957 0
M  V30 1314 O 206.429 5.63315 5.29344 0
M  V30 1315 C 205.489 4.80255 6.01876 0
M  V30 1316 C 206.219 3.64202 6.65911 0
M  V30 1317 O 206.429 2.60694 5.64732 0
M  V30 1318 C 207.619 3.93473 7.1943 0
M  V30 1319 O 208.009 3.02071 8.21205 0
M  V30 1320 C 208.499 3.73047 5.97036 0
M  V30 1321 C 207.789 2.58828 5.25741 0
M  V30 1322 N 207.839 2.68068 3.77503 0
M  V30 1323 H 205 5.40332 6.79951 0
M  V30 1324 H 204.73 4.41613 5.32378 0
M  V30 1325 H 205.597 3.26331 7.47797 0
M  V30 1326 P 209.559 2.75334 8.47391 0
M  V30 1327 O 209.779 2.44571 9.90142 0
M  V30 1328 O 210.349 3.87688 7.92115 0
M  V30 1329 O 209.809 1.4459 7.59357 0
M  V30 1330 C 208.869 0.347608 7.69215 0
M  V30 1331 C 209.599 -0.96767 7.52806 0
M  V30 1332 O 209.809 -1.21036 6.1011 0
M  V30 1333 C 210.999 -1.04544 8.13308 0
M  V30 1334 O 211.389 -2.38311 8.41922 0
M  V30 1335 C 211.879 -0.491279 7.02284 0
M  V30 1336 C 211.169 -0.996264 5.77469 0
M  V30 1337 N 211.219 -0.0501916 4.62973 0
M  V30 1338 H 208.38 0.374722 8.67691 0
M  V30 1339 H 208.11 0.443485 6.90277 0
M  V30 1340 H 208.977 -1.75537 7.96793 0
M  V30 1341 P 212.939 -2.75334 8.47391 0
M  V30 1342 O 213.159 -3.84128 9.44797 0
M  V30 1343 O 213.729 -1.51947 8.68712 0
M  V30 1344 O 213.189 -3.29363 6.99321 0
M  V30 1345 C 212.249 -4.24011 6.4274 0
M  V30 1346 C 212.979 -5.20775 5.52155 0
M  V30 1347 O 213.189 -4.56534 4.22446 0
M  V30 1348 C 214.379 -5.62629 5.96531 0
M  V30 1349 O 214.769 -6.87667 5.41053 0
M  V30 1350 C 215.259 -4.52537 5.39283 0
M  V30 1351 C 214.549 -4.20027 4.08623 0
M  V30 1352 N 214.599 -2.76189 3.71603 0
M  V30 1353 C 214.519 -1.64862 4.52822 0
M  V30 1354 N 214.599 -0.512671 3.88633 0
M  V30 1355 C 214.739 -0.888083 2.54977 0
M  V30 1356 C 214.869 -0.094668 1.38677 0
M  V30 1357 N 214.989 -0.890102 0.232633 0
M  V30 1358 C 214.989 -2.26958 0.21772 0
M  V30 1359 N 215.119 -2.84626 -0.97925 0
M  V30 1360 N 214.859 -3.0178 1.31033 0
M  V30 1361 C 214.739 -2.26781 2.43843 0
M  V30 1362 H 211.76 -4.797 7.24003 0
M  V30 1363 H 211.49 -3.69856 5.84513 0
M  V30 1364 H 212.357 -6.10356 5.41441 0
M  V30 1365 P 216.319 -7.20834 5.23717 0
M  V30 1366 O 216.539 -8.66104 5.38572 0
M  V30 1367 O 217.109 -6.33544 6.1349 0
M  V30 1368 O 216.569 -6.7751 3.72168 0
M  V30 1369 C 215.629 -7.20825 2.7076 0
M  V30 1370 C 216.359 -7.45864 1.40599 0
M  V30 1371 O 216.569 -6.17651 0.734225 0
M  V30 1372 C 217.759 -8.05808 1.51899 0
M  V30 1373 O 218.149 -8.74358 0.335205 0
M  V30 1374 C 218.639 -6.83093 1.70294 0
M  V30 1375 C 217.929 -5.79992 0.836974 0
M  V30 1376 N 217.979 -4.41864 1.38293 0
M  V30 1377 H 215.14 -8.13644 3.0377 0
M  V30 1378 H 214.87 -6.42788 2.55485 0
M  V30 1379 H 215.737 -8.12039 0.792769 0
M  V30 1380 P 219.699 -8.91 -3.97326e-13 0
M  V30 1381 O 219.919 -10.1726 -0.733694 0
M  V30 1382 O 220.489 -8.73148 1.23936 0
M  V30 1383 O 219.949 -7.66872 -0.971405 0
M  V30 1384 C 219.009 -7.42309 -2.04641 0
M  V30 1385 C 219.739 -6.86059 -3.24661 0
M  V30 1386 O 219.949 -5.42847 -3.03646 0
M  V30 1387 C 221.139 -7.41196 -3.50753 0
M  V30 1388 O 221.529 -7.27073 -4.86816 0
M  V30 1389 C 222.019 -6.5273 -2.63741 0
M  V30 1390 C 221.309 -5.1842 -2.73198 0
M  V30 1391 N 221.359 -4.38762 -1.4784 0
M  V30 1392 H 218.52 -8.36803 -2.32493 0
M  V30 1393 H 218.25 -6.70197 -1.71129 0
M  V30 1394 H 219.117 -7.03551 -4.13168 0
M  V30 1395 P 223.079 -7.20834 -5.23717 0
M  V30 1396 O 223.299 -7.79853 -6.57286 0
M  V30 1397 O 223.869 -7.79239 -4.12957 0
M  V30 1398 O 223.329 -5.63315 -5.29344 0
M  V30 1399 C 222.389 -4.80255 -6.01876 0
M  V30 1400 C 223.119 -3.64202 -6.65911 0
M  V30 1401 O 223.329 -2.60694 -5.64732 0
M  V30 1402 C 224.519 -3.93473 -7.1943 0
M  V30 1403 O 224.909 -3.02071 -8.21205 0
M  V30 1404 C 225.399 -3.73047 -5.97036 0
M  V30 1405 C 224.689 -2.58828 -5.25741 0
M  V30 1406 N 224.739 -2.68068 -3.77503 0
M  V30 1407 H 221.9 -5.40332 -6.79951 0
M  V30 1408 H 221.63 -4.41613 -5.32378 0
M  V30 1409 H 222.497 -3.26331 -7.47797 0
M  V30 1410 P 226.459 -2.75334 -8.47391 0
M  V30 1411 O 226.679 -2.44619 -9.90336 0
M  V30 1412 O 227.249 -3.87776 -7.92294 0
M  V30 1413 O 226.709 -1.4459 -7.59357 0
M  V30 1414 C 225.769 -0.347653 -7.69315 0
M  V30 1415 C 226.499 0.96767 -7.52806 0
M  V30 1416 O 226.709 1.21055 -6.10208 0
M  V30 1417 C 227.899 1.04557 -8.13408 0
M  V30 1418 O 228.289 2.38311 -8.41922 0
M  V30 1419 C 228.779 0.491279 -7.02284 0
M  V30 1420 C 228.069 0.996264 -5.77469 0
M  V30 1421 N 228.119 0.0501916 -4.62973 0
M  V30 1422 C 228.039 -1.31969 -4.65661 0
M  V30 1423 N 228.109 -1.86649 -3.48119 0
M  V30 1424 C 228.259 -0.792089 -2.62406 0
M  V30 1425 C 228.389 -0.705684 -1.2207 0
M  V30 1426 N 228.399 -1.76207 -0.413762 0
M  V30 1427 N 228.509 0.518981 -0.685754 0
M  V30 1428 C 228.499 1.57595 -1.49174 0
M  V30 1429 N 228.379 1.62909 -2.80066 0
M  V30 1430 C 228.259 0.388195 -3.3073 0
M  V30 1431 H 225.281 -0.374765 -8.67791 0
M  V30 1432 H 225.009 -0.443613 -6.90476 0
M  V30 1433 H 225.877 1.75559 -7.96891 0
M  V30 1434 H 228.532 1.94563 -5.46818 0
M  V30 1435 H 228.812 -0.608651 -7.04676 0
M  V30 1436 H 229.803 0.889796 -7.09039 0
M  V30 1437 H 227.969 0.433128 -9.04664 0
M  V30 1438 H 227.928 -1.89246 -5.57664 0
M  V30 1439 H 228.309 -2.71005 -0.804694 0
M  V30 1440 H 228.498 -1.63189 0.603768 0
M  V30 1441 H 228.606 2.53475 -0.997614 0
M  V30 1442 P 229.839 2.75334 -8.47391 0
M  V30 1443 O 230.059 3.84204 -9.44982 0
M  V30 1444 O 230.629 1.51982 -8.68909 0
M  V30 1445 O 230.089 3.29363 -6.99321 0
M  V30 1446 C 229.149 4.24066 -6.42823 0
M  V30 1447 C 229.879 5.20775 -5.52155 0
M  V30 1448 O 230.089 4.56607 -4.22514 0
M  V30 1449 C 231.279 5.62697 -5.96604 0
M  V30 1450 O 231.669 6.87667 -5.41053 0
M  V30 1451 C 232.159 4.52537 -5.39283 0
M  V30 1452 C 231.449 4.20027 -4.08623 0
M  V30 1453 N 231.499 2.76189 -3.71603 0
M  V30 1454 C 231.419 1.66944 -4.54297 0
M  V30 1455 N 231.489 0.536169 -3.91344 0
M  V30 1456 C 231.639 0.901569 -2.58849 0
M  V30 1457 C 231.769 0.146599 -1.40236 0
M  V30 1458 N 231.779 -1.18234 -1.37046 0
M  V30 1459 N 231.889 0.822941 -0.249738 0
M  V30 1460 C 231.879 2.15179 -0.280525 0
M  V30 1461 N 231.759 2.96414 -1.30822 0
M  V30 1462 C 231.639 2.25804 -2.44748 0
M  V30 1463 H 228.661 4.79756 -7.24086 0
M  V30 1464 H 228.389 3.69963 -5.84682 0
M  V30 1465 H 229.257 6.10431 -5.41508 0
M  V30 1466 H 231.912 4.78816 -3.28024 0
M  V30 1467 H 232.192 3.64957 -6.05871 0
M  V30 1468 H 233.183 4.88748 -5.21323 0
M  V30 1469 H 231.349 5.66789 -7.0643 0
M  V30 1470 H 231.308 1.74684 -5.62396 0
M  V30 1471 H 231.689 -1.71949 -2.24394 0
M  V30 1472 H 231.878 -1.67511 -0.470742 0
M  V30 1473 H 231.986 2.63704 0.6828 0
M  V30 1474 P 233.219 7.20834 -5.23717 0
M  V30 1475 O 233.439 8.66104 -5.38572 0
M  V30 1476 O 234.009 6.33544 -6.1349 0
M  V30 1477 O 233.469 6.7751 -3.72168 0
M  V30 1478 C 232.529 7.20825 -2.7076 0
M  V30 1479 C 233.259 7.45864 -1.40599 0
M  V30 1480 O 233.469 6.17651 -0.734225 0
M  V30 1481 C 234.659 8.05808 -1.51899 0
M  V30 1482 O 235.049 8.74358 -0.335205 0
M  V30 1483 C 235.539 6.83093 -1.70294 0
M  V30 1484 C 234.829 5.79992 -0.836974 0
M  V30 1485 N 234.879 4.41864 -1.38293 0
M  V30 1486 C 234.799 3.99538 -2.69438 0
M  V30 1487 N 234.879 2.69909 -2.84277 0
M  V30 1488 C 235.019 2.21719 -1.5408 0
M  V30 1489 C 235.149 0.891712 -1.06628 0
M  V30 1490 O 235.169 -0.161298 -1.70137 0
M  V30 1491 N 235.269 0.856846 0.334985 0
M  V30 1492 C 235.269 1.9641 1.15789 0
M  V30 1493 N 235.399 1.72708 2.46522 0
M  V30 1494 N 235.139 3.21165 0.713741 0
M  V30 1495 C 235.019 3.26797 -0.639748 0
M  V30 1496 H 232.04 8.13644 -3.0377 0
M  V30 1497 H 231.77 6.42788 -2.55485 0
M  V30 1498 H 232.637 8.12039 -0.792769 0
M  V30 1499 H 235.292 5.80061 0.166416 0
M  V30 1500 H 235.571 6.51287 -2.75604 0
M  V30 1501 H 236.563 7.01734 -1.34462 0
M  V30 1502 H 234.729 8.73674 -2.38337 0
M  V30 1503 H 234.68 4.68207 -3.53221 0
M  V30 1504 H 235.362 -0.0398818 0.767965 0
M  V30 1505 H 235.399 2.50995 3.13503 0
M  V30 1506 H 235.5 0.759148 2.80716 0
M  V30 1507 P 236.599 8.91 5.54508e-13 0
M  V30 1508 O 236.819 10.1726 0.733694 0
M  V30 1509 O 237.389 8.73148 -1.23936 0
M  V30 1510 O 236.849 7.66872 0.971405 0
M  V30 1511 C 235.909 7.42309 2.04641 0
M  V30 1512 C 236.639 6.86059 3.24661 0
M  V30 1513 O 236.849 5.42847 3.03646 0
M  V30 1514 C 238.039 7.41196 3.50753 0
M  V30 1515 O 238.429 7.27073 4.86816 0
M  V30 1516 C 238.919 6.5273 2.63741 0
M  V30 1517 C 238.209 5.1842 2.73198 0
M  V30 1518 N 238.259 4.38762 1.4784 0
M  V30 1519 H 235.42 8.36803 2.32493 0
M  V30 1520 H 235.15 6.70197 1.71129 0
M  V30 1521 H 236.017 7.03551 4.13168 0
M  V30 1522 P 239.979 7.20834 5.23717 0
M  V30 1523 O 240.199 7.79853 6.57286 0
M  V30 1524 O 240.769 7.79239 4.12957 0
M  V30 1525 O 240.229 5.63315 5.29344 0
M  V30 1526 C 239.289 4.80255 6.01876 0
M  V30 1527 C 240.019 3.64202 6.65911 0
M  V30 1528 O 240.229 2.60694 5.64732 0
M  V30 1529 C 241.419 3.93473 7.1943 0
M  V30 1530 O 241.809 3.02071 8.21205 0
M  V30 1531 C 242.299 3.73047 5.97036 0
M  V30 1532 C 241.589 2.58828 5.25741 0
M  V30 1533 N 241.639 2.68068 3.77503 0
M  V30 1534 H 238.8 5.40332 6.79951 0
M  V30 1535 H 238.53 4.41613 5.32378 0
M  V30 1536 H 239.397 3.26331 7.47797 0
M  V30 1537 P 243.359 2.75334 8.47391 0
M  V30 1538 O 243.579 2.44571 9.90142 0
M  V30 1539 O 244.149 3.87688 7.92115 0
M  V30 1540 O 243.609 1.4459 7.59357 0
M  V30 1541 C 242.669 0.347608 7.69215 0
M  V30 1542 C 243.399 -0.96767 7.52806 0
M  V30 1543 O 243.609 -1.21036 6.1011 0
M  V30 1544 C 244.799 -1.04544 8.13308 0
M  V30 1545 O 245.189 -2.38311 8.41922 0
M  V30 1546 C 245.679 -0.491279 7.02284 0
M  V30 1547 C 244.969 -0.996264 5.77469 0
M  V30 1548 N 245.019 -0.0501916 4.62973 0
M  V30 1549 C 244.939 1.32786 4.63244 0
M  V30 1550 N 245.019 1.86957 3.44545 0
M  V30 1551 C 245.159 0.780241 2.58481 0
M  V30 1552 C 245.289 0.738536 1.17757 0
M  V30 1553 N 245.409 -0.58337 0.711393 0
M  V30 1554 C 245.409 -1.70816 1.51017 0
M  V30 1555 N 245.539 -2.87826 0.880757 0
M  V30 1556 N 245.279 -1.67126 2.8339 0
M  V30 1557 C 245.159 -0.401421 3.30572 0
M  V30 1558 H 242.18 0.374722 8.67691 0
M  V30 1559 H 241.91 0.443485 6.90277 0
M  V30 1560 H 242.777 -1.75537 7.96793 0
M  V30 1561 P 246.739 -2.75334 8.47391 0
M  V30 1562 O 246.959 -3.84128 9.44797 0
M  V30 1563 O 247.529 -1.51947 8.68712 0
M  V30 1564 O 246.989 -3.29363 6.99321 0
M  V30 1565 C 246.049 -4.24011 6.4274 0
M  V30 1566 C 246.779 -5.20775 5.52155 0
M  V30 1567 O 246.989 -4.56534 4.22446 0
M  V30 1568 C 248.179 -5.62629 5.96531 0
M  V30 1569 O 248.569 -6.87667 5.41053 0
M  V30 1570 C 249.059 -4.52537 5.39283 0
M  V30 1571 C 248.349 -4.20027 4.08623 0
M  V30 1572 N 248.399 -2.76189 3.71603 0
M  V30 1573 H 245.56 -4.797 7.24003 0
M  V30 1574 H 245.29 -3.69856 5.84513 0
M  V30 1575 H 246.157 -6.10356 5.41441 0
M  V30 1576 P 250.119 -7.20834 5.23717 0
M  V30 1577 O 250.339 -8.66104 5.38572 0
M  V30 1578 O 250.909 -6.33544 6.1349 0
M  V30 1579 O 250.369 -6.7751 3.72168 0
M  V30 1580 C 249.429 -7.20825 2.7076 0
M  V30 1581 C 250.159 -7.45864 1.40599 0
M  V30 1582 O 250.369 -6.17651 0.734225 0
M  V30 1583 C 251.559 -8.05808 1.51899 0
M  V30 1584 O 251.949 -8.74358 0.335205 0
M  V30 1585 C 252.439 -6.83093 1.70294 0
M  V30 1586 C 251.729 -5.79992 0.836974 0
M  V30 1587 N 251.779 -4.41864 1.38293 0
M  V30 1588 H 248.94 -8.13644 3.0377 0
M  V30 1589 H 248.67 -6.42788 2.55485 0
M  V30 1590 H 249.537 -8.12039 0.792769 0
M  V30 1591 P 253.498 -8.91 -7.1169e-13 0
M  V30 1592 O 253.718 -10.1726 -0.733694 0
M  V30 1593 O 254.288 -8.73148 1.23936 0
M  V30 1594 O 253.748 -7.66872 -0.971405 0
M  V30 1595 C 252.808 -7.42309 -2.04641 0
M  V30 1596 C 253.538 -6.86059 -3.24661 0
M  V30 1597 O 253.748 -5.42847 -3.03646 0
M  V30 1598 C 254.938 -7.41196 -3.50753 0
M  V30 1599 O 255.328 -7.27073 -4.86816 0
M  V30 1600 C 255.818 -6.5273 -2.63741 0
M  V30 1601 C 255.108 -5.1842 -2.73198 0
M  V30 1602 N 255.158 -4.38762 -1.4784 0
M  V30 1603 H 252.319 -8.36803 -2.32493 0
M  V30 1604 H 252.049 -6.70197 -1.71129 0
M  V30 1605 H 252.916 -7.03551 -4.13168 0
M  V30 1606 P 256.878 -7.20834 -5.23717 0
M  V30 1607 O 257.098 -7.7993 -6.57351 0
M  V30 1608 O 257.668 -7.79328 -4.13004 0
M  V30 1609 O 257.128 -5.63315 -5.29344 0
M  V30 1610 C 256.188 -4.80193 -6.01798 0
M  V30 1611 C 256.918 -3.64202 -6.65911 0
M  V30 1612 O 257.128 -2.60694 -5.64732 0
M  V30 1613 C 258.318 -3.93473 -7.1943 0
M  V30 1614 O 258.708 -3.02071 -8.21205 0
M  V30 1615 C 259.198 -3.73047 -5.97036 0
M  V30 1616 C 258.488 -2.58828 -5.25741 0
M  V30 1617 N 258.538 -2.6801 -3.77422 0
M  V30 1618 C 258.688 -1.50443 -3.07133 0
M  V30 1619 O 258.778 -0.419406 -3.61576 0
M  V30 1620 N 258.728 -1.6403 -1.69677 0
M  V30 1621 C 258.638 -2.81206 -0.986255 0
M  V30 1622 C 258.488 -3.99158 -1.80325 0
M  V30 1623 C 258.438 -3.89779 -3.1476 0
M  V30 1624 H 255.698 -5.40332 -6.79951 0
M  V30 1625 H 255.429 -4.41549 -5.32301 0
M  V30 1626 H 256.296 -3.26331 -7.47797 0
M  V30 1627 H 258.951 -1.6395 -5.56554 0
M  V30 1628 H 259.23 -4.63439 -5.3432 0
M  V30 1629 H 260.222 -3.44728 -6.25838 0
M  V30 1630 H 258.388 -4.96652 -7.57263 0
M  V30 1631 H 258.317 -4.80159 -3.74441 0
M  V30 1632 P 260.258 -2.75334 -8.47391 0
M  V30 1633 O 260.478 -2.44571 -9.90142 0
M  V30 1634 O 261.048 -3.87688 -7.92115 0
M  V30 1635 O 260.508 -1.4459 -7.59357 0
M  V30 1636 C 259.568 -0.347608 -7.69215 0
M  V30 1637 C 260.298 0.96767 -7.52806 0
M  V30 1638 O 260.508 1.21036 -6.1011 0
M  V30 1639 C 261.698 1.04544 -8.13308 0
M  V30 1640 O 262.088 2.38311 -8.41922 0
M  V30 1641 C 262.578 0.491279 -7.02284 0
M  V30 1642 C 261.868 0.996264 -5.77469 0
M  V30 1643 N 261.918 0.0501916 -4.62973 0
M  V30 1644 H 259.079 -0.374722 -8.67691 0
M  V30 1645 H 258.809 -0.443485 -6.90277 0
M  V30 1646 H 259.676 1.75537 -7.96793 0
M  V30 1647 P 263.638 2.75334 -8.47391 0
M  V30 1648 O 263.858 3.84166 -9.4489 0
M  V30 1649 O 264.428 1.51964 -8.6881 0
M  V30 1650 O 263.888 3.29363 -6.99321 0
M  V30 1651 C 262.948 4.23956 -6.42656 0
M  V30 1652 C 263.678 5.20775 -5.52155 0
M  V30 1653 O 263.888 4.56534 -4.22446 0
M  V30 1654 C 265.078 5.62629 -5.96531 0
M  V30 1655 O 265.468 6.87667 -5.41053 0
M  V30 1656 C 265.958 4.52537 -5.39283 0
M  V30 1657 C 265.248 4.20027 -4.08623 0
M  V30 1658 N 265.298 2.7613 -3.71522 0
M  V30 1659 C 265.448 2.45612 -2.37989 0
M  V30 1660 O 265.538 3.30919 -1.51621 0
M  V30 1661 N 265.488 1.10684 -2.08435 0
M  V30 1662 C 265.398 0.0690084 -2.9792 0
M  V30 1663 O 265.448 -1.10553 -2.59426 0
M  V30 1664 C 265.248 0.481522 -4.35345 0
M  V30 1665 C 265.138 -0.618778 -5.36443 0
M  V30 1666 C 265.198 1.78906 -4.67968 0
M  V30 1667 H 262.458 4.797 -7.24003 0
M  V30 1668 H 262.189 3.69802 -5.84429 0
M  V30 1669 H 263.056 6.10356 -5.41441 0
M  V30 1670 H 265.711 4.78651 -3.27911 0
M  V30 1671 H 265.99 3.64957 -6.05871 0
M  V30 1672 H 266.982 4.8868 -5.2125 0
M  V30 1673 H 265.148 5.66726 -7.06352 0
M  V30 1674 H 265.077 2.07737 -5.72367 0
M  V30 1675 H 266.107 -0.754375 -5.86871 0
M  V30 1676 H 264.37 -0.359721 -6.10641 0
M  V30 1677 H 264.858 -1.55533 -4.8581 0
M  V30 1678 H 265.594 0.862651 -1.12037 0
M  V30 1679 P 267.018 7.20834 -5.23717 0
M  V30 1680 O 267.238 8.66104 -5.38572 0
M  V30 1681 O 267.808 6.33544 -6.1349 0
M  V30 1682 O 267.268 6.7751 -3.72168 0
M  V30 1683 C 266.328 7.20825 -2.7076 0
M  V30 1684 C 267.058 7.45864 -1.40599 0
M  V30 1685 O 267.268 6.17651 -0.734225 0
M  V30 1686 C 268.458 8.05808 -1.51899 0
M  V30 1687 O 268.848 8.74358 -0.335205 0
M  V30 1688 C 269.338 6.83093 -1.70294 0
M  V30 1689 C 268.628 5.79992 -0.836974 0
M  V30 1690 N 268.678 4.41864 -1.38293 0
M  V30 1691 H 265.839 8.13644 -3.0377 0
M  V30 1692 H 265.569 6.42788 -2.55485 0
M  V30 1693 H 266.436 8.12039 -0.792769 0
M  V30 1694 P 270.398 8.91 8.68872e-13 0
M  V30 1695 O 270.618 10.1726 0.733694 0
M  V30 1696 O 271.188 8.73148 -1.23936 0
M  V30 1697 O 270.648 7.66872 0.971405 0
M  V30 1698 C 269.708 7.42309 2.04641 0
M  V30 1699 C 270.438 6.86059 3.24661 0
M  V30 1700 O 270.648 5.42847 3.03646 0
M  V30 1701 C 271.838 7.41196 3.50753 0
M  V30 1702 O 272.228 7.27073 4.86816 0
M  V30 1703 C 272.718 6.5273 2.63741 0
M  V30 1704 C 272.008 5.1842 2.73198 0
M  V30 1705 N 272.058 4.38762 1.4784 0
M  V30 1706 H 269.219 8.36803 2.32493 0
M  V30 1707 H 268.949 6.70197 1.71129 0
M  V30 1708 H 269.816 7.03551 4.13168 0
M  V30 1709 P 273.778 7.20834 5.23717 0
M  V30 1710 O 273.998 7.79853 6.57286 0
M  V30 1711 O 274.568 7.79239 4.12957 0
M  V30 1712 O 274.028 5.63315 5.29344 0
M  V30 1713 C 273.088 4.80255 6.01876 0
M  V30 1714 C 273.818 3.64202 6.65911 0
M  V30 1715 O 274.028 2.60694 5.64732 0
M  V30 1716 C 275.218 3.93473 7.1943 0
M  V30 1717 O 275.608 3.02071 8.21205 0
M  V30 1718 C 276.098 3.73047 5.97036 0
M  V30 1719 C 275.388 2.58828 5.25741 0
M  V30 1720 N 275.438 2.68068 3.77503 0
M  V30 1721 H 272.599 5.40332 6.79951 0
M  V30 1722 H 272.329 4.41613 5.32378 0
M  V30 1723 H 273.196 3.26331 7.47797 0
M  V30 1724 P 277.158 2.75334 8.47391 0
M  V30 1725 O 277.378 2.44571 9.90142 0
M  V30 1726 O 277.948 3.87688 7.92115 0
M  V30 1727 O 277.408 1.4459 7.59357 0
M  V30 1728 C 276.468 0.347608 7.69215 0
M  V30 1729 C 277.198 -0.96767 7.52806 0
M  V30 1730 O 277.408 -1.21036 6.1011 0
M  V30 1731 C 278.598 -1.04544 8.13308 0
M  V30 1732 O 278.988 -2.38311 8.41922 0
M  V30 1733 C 279.478 -0.491279 7.02284 0
M  V30 1734 C 278.768 -0.996264 5.77469 0
M  V30 1735 N 278.818 -0.0501916 4.62973 0
M  V30 1736 H 275.979 0.374722 8.67691 0
M  V30 1737 H 275.709 0.443485 6.90277 0
M  V30 1738 H 276.576 -1.75537 7.96793 0
M  V30 1739 P 280.538 -2.75334 8.47391 0
M  V30 1740 O 280.758 -3.84166 9.4489 0
M  V30 1741 O 281.328 -1.51964 8.6881 0
M  V30 1742 O 280.788 -3.29363 6.99321 0
M  V30 1743 C 279.848 -4.24011 6.4274 0
M  V30 1744 C 280.578 -5.20775 5.52155 0
M  V30 1745 O 280.788 -4.56534 4.22446 0
M  V30 1746 C 281.978 -5.62629 5.96531 0
M  V30 1747 O 282.368 -6.87667 5.41053 0
M  V30 1748 C 282.858 -4.52537 5.39283 0
M  V30 1749 C 282.148 -4.20027 4.08623 0
M  V30 1750 N 282.198 -2.7613 3.71522 0
M  V30 1751 C 282.348 -2.43702 2.37085 0
M  V30 1752 O 282.438 -3.3531 1.54039 0
M  V30 1753 N 282.398 -0.951103 2.10621 0
M  V30 1754 C 282.298 -0.165021 2.93537 0
M  V30 1755 N 282.348 1.09723 2.53253 0
M  V30 1756 C 282.148 -0.469576 4.32458 0
M  V30 1757 C 282.098 -1.78658 4.65921 0
M  V30 1758 H 279.358 -4.79645 7.23919 0
M  V30 1759 H 279.089 -3.69802 5.84429 0
M  V30 1760 H 279.956 -6.10431 5.41508 0
M  V30 1761 H 282.611 -4.78733 3.27967 0
M  V30 1762 H 282.89 -3.64957 6.05871 0
M  V30 1763 H 283.882 -4.8868 5.2125 0
M  V30 1764 H 282.048 -5.66726 7.06352 0
M  V30 1765 H 281.976 -2.06987 5.70299 0
M  V30 1766 H 282.078 0.314383 5.07728 0
M  V30 1767 H 282.466 1.31363 1.5319 0
M  V30 1768 H 282.269 1.85978 3.21943 0
M  V30 1769 P 283.918 -7.20834 5.23717 0
M  V30 1770 O 284.138 -8.66104 5.38572 0
M  V30 1771 O 284.708 -6.33544 6.1349 0
M  V30 1772 O 284.168 -6.7751 3.72168 0
M  V30 1773 C 283.228 -7.20825 2.7076 0
M  V30 1774 C 283.958 -7.45864 1.40599 0
M  V30 1775 O 284.168 -6.17651 0.734225 0
M  V30 1776 C 285.358 -8.05808 1.51899 0
M  V30 1777 O 285.748 -8.74358 0.335205 0
M  V30 1778 C 286.238 -6.83093 1.70294 0
M  V30 1779 C 285.528 -5.79992 0.836974 0
M  V30 1780 N 285.578 -4.41864 1.38293 0
M  V30 1781 C 285.498 -3.99538 2.69438 0
M  V30 1782 N 285.578 -2.69909 2.84277 0
M  V30 1783 C 285.718 -2.21719 1.5408 0
M  V30 1784 C 285.848 -0.891712 1.06628 0
M  V30 1785 N 285.968 -0.856846 -0.334985 0
M  V30 1786 C 285.968 -1.9641 -1.15789 0
M  V30 1787 N 286.098 -1.72708 -2.46522 0
M  V30 1788 N 285.838 -3.21165 -0.713741 0
M  V30 1789 C 285.718 -3.26797 0.639748 0
M  V30 1790 H 282.739 -8.13644 3.0377 0
M  V30 1791 H 282.469 -6.42788 2.55485 0
M  V30 1792 H 283.336 -8.12039 0.792769 0
M  V30 1793 P 287.298 -8.91 -1.02605e-12 0
M  V30 1794 O 287.518 -10.1726 -0.733694 0
M  V30 1795 O 288.088 -8.73148 1.23936 0
M  V30 1796 O 287.548 -7.66872 -0.971405 0
M  V30 1797 C 286.608 -7.42309 -2.04641 0
M  V30 1798 C 287.338 -6.86059 -3.24661 0
M  V30 1799 O 287.548 -5.42847 -3.03646 0
M  V30 1800 C 288.738 -7.41196 -3.50753 0
M  V30 1801 O 289.128 -7.27073 -4.86816 0
M  V30 1802 C 289.618 -6.5273 -2.63741 0
M  V30 1803 C 288.908 -5.1842 -2.73198 0
M  V30 1804 N 288.958 -4.38762 -1.4784 0
M  V30 1805 H 286.119 -8.36803 -2.32493 0
M  V30 1806 H 285.849 -6.70197 -1.71129 0
M  V30 1807 H 286.716 -7.03551 -4.13168 0
M  V30 1808 P 290.678 -7.20834 -5.23717 0
M  V30 1809 O 290.898 -7.79853 -6.57286 0
M  V30 1810 O 291.468 -7.79239 -4.12957 0
M  V30 1811 O 290.928 -5.63315 -5.29344 0
M  V30 1812 C 289.988 -4.80255 -6.01876 0
M  V30 1813 C 290.718 -3.64202 -6.65911 0
M  V30 1814 O 290.928 -2.60694 -5.64732 0
M  V30 1815 C 292.118 -3.93473 -7.1943 0
M  V30 1816 O 292.508 -3.02071 -8.21205 0
M  V30 1817 C 292.998 -3.73047 -5.97036 0
M  V30 1818 C 292.288 -2.58828 -5.25741 0
M  V30 1819 N 292.338 -2.68068 -3.77503 0
M  V30 1820 H 289.499 -5.40332 -6.79951 0
M  V30 1821 H 289.229 -4.41613 -5.32378 0
M  V30 1822 H 290.096 -3.26331 -7.47797 0
M  V30 1823 P 294.058 -2.75334 -8.47391 0
M  V30 1824 O 294.278 -2.44571 -9.90142 0
M  V30 1825 O 294.848 -3.87688 -7.92115 0
M  V30 1826 O 294.308 -1.4459 -7.59357 0
M  V30 1827 C 293.368 -0.347608 -7.69215 0
M  V30 1828 C 294.098 0.96767 -7.52806 0
M  V30 1829 O 294.308 1.21036 -6.1011 0
M  V30 1830 C 295.498 1.04544 -8.13308 0
M  V30 1831 O 295.888 2.38311 -8.41922 0
M  V30 1832 C 296.378 0.491279 -7.02284 0
M  V30 1833 C 295.668 0.996264 -5.77469 0
M  V30 1834 N 295.718 0.0501916 -4.62973 0
M  V30 1835 H 292.879 -0.374722 -8.67691 0
M  V30 1836 H 292.609 -0.443485 -6.90277 0
M  V30 1837 H 293.476 1.75537 -7.96793 0
M  V30 1838 P 297.438 2.75334 -8.47391 0
M  V30 1839 O 297.658 3.84128 -9.44797 0
M  V30 1840 O 298.228 1.51947 -8.68712 0
M  V30 1841 O 297.688 3.29363 -6.99321 0
M  V30 1842 C 296.748 4.24011 -6.4274 0
M  V30 1843 C 297.478 5.20775 -5.52155 0
M  V30 1844 O 297.688 4.56534 -4.22446 0
M  V30 1845 C 298.878 5.62629 -5.96531 0
M  V30 1846 O 299.268 6.87667 -5.41053 0
M  V30 1847 C 299.758 4.52537 -5.39283 0
M  V30 1848 C 299.048 4.20027 -4.08623 0
M  V30 1849 N 299.098 2.76189 -3.71603 0
M  V30 1850 H 296.259 4.797 -7.24003 0
M  V30 1851 H 295.989 3.69856 -5.84513 0
M  V30 1852 H 296.856 6.10356 -5.41441 0
M  V30 1853 P 300.818 7.20834 -5.23717 0
M  V30 1854 O 301.038 8.66104 -5.38572 0
M  V30 1855 O 301.608 6.33544 -6.1349 0
M  V30 1856 O 301.068 6.7751 -3.72168 0
M  V30 1857 C 300.128 7.20825 -2.7076 0
M  V30 1858 C 300.858 7.45864 -1.40599 0
M  V30 1859 O 301.068 6.17651 -0.734225 0
M  V30 1860 C 302.258 8.05808 -1.51899 0
M  V30 1861 O 302.648 8.74358 -0.335205 0
M  V30 1862 C 303.138 6.83093 -1.70294 0
M  V30 1863 C 302.428 5.79992 -0.836974 0
M  V30 1864 N 302.478 4.41864 -1.38293 0
M  V30 1865 C 302.398 3.99538 -2.69438 0
M  V30 1866 N 302.478 2.69909 -2.84277 0
M  V30 1867 C 302.618 2.21719 -1.5408 0
M  V30 1868 C 302.748 0.891712 -1.06628 0
M  V30 1869 N 302.868 0.856846 0.334985 0
M  V30 1870 C 302.868 1.9641 1.15789 0
M  V30 1871 N 302.998 1.72708 2.46522 0
M  V30 1872 N 302.738 3.21165 0.713741 0
M  V30 1873 C 302.618 3.26797 -0.639748 0
M  V30 1874 H 299.639 8.13644 -3.0377 0
M  V30 1875 H 299.369 6.42788 -2.55485 0
M  V30 1876 H 300.236 8.12039 -0.792769 0
M  V30 1877 P 304.198 8.91 1.18324e-12 0
M  V30 1878 O 304.418 10.1746 0.733838 0
M  V30 1879 O 304.988 8.73346 -1.23964 0
M  V30 1880 O 304.448 7.66872 0.971405 0
M  V30 1881 C 303.508 7.42405 2.04668 0
M  V30 1882 C 304.238 6.86059 3.24661 0
M  V30 1883 O 304.448 5.42934 3.03695 0
M  V30 1884 C 305.638 7.41287 3.50796 0
M  V30 1885 O 306.028 7.27073 4.86816 0
M  V30 1886 C 306.518 6.5273 2.63741 0
M  V30 1887 C 305.808 5.1842 2.73198 0
M  V30 1888 N 305.858 4.38762 1.4784 0
M  V30 1889 C 305.778 4.83651 0.183876 0
M  V30 1890 N 305.848 3.88759 -0.699393 0
M  V30 1891 C 305.998 2.7404 0.0575568 0
M  V30 1892 C 306.128 1.37902 -0.293928 0
M  V30 1893 N 306.138 0.938021 -1.54797 0
M  V30 1894 N 306.248 0.491817 0.70549 0
M  V30 1895 C 306.238 0.931735 1.95979 0
M  V30 1896 N 306.118 2.16017 2.41481 0
M  V30 1897 C 305.998 3.02547 1.39121 0
M  V30 1898 H 303.02 8.36899 2.3252 0
M  V30 1899 H 302.748 6.70391 1.71179 0
M  V30 1900 H 303.616 7.03638 4.13219 0
M  V30 1901 H 306.271 4.59931 3.54016 0
M  V30 1902 H 306.551 6.88995 1.59871 0
M  V30 1903 H 307.542 6.4684 3.0373 0
M  V30 1904 H 305.708 8.47002 3.20749 0
M  V30 1905 H 305.667 5.8885 -0.0765548 0
M  V30 1906 H 306.048 1.60276 -2.32875 0
M  V30 1907 H 306.237 -0.0699355 -1.73859 0
M  V30 1908 H 306.345 0.165507 2.71897 0
M  V30 1909 P 307.578 7.20834 5.23717 0
M  V30 1910 O 307.798 7.79853 6.57286 0
M  V30 1911 O 308.368 7.79239 4.12957 0
M  V30 1912 O 307.828 5.63315 5.29344 0
M  V30 1913 C 306.888 4.80255 6.01876 0
M  V30 1914 C 307.618 3.64202 6.65911 0
M  V30 1915 O 307.828 2.60694 5.64732 0
M  V30 1916 C 309.018 3.93473 7.1943 0
M  V30 1917 O 309.408 3.02071 8.21205 0
M  V30 1918 C 309.898 3.73047 5.97036 0
M  V30 1919 C 309.188 2.58828 5.25741 0
M  V30 1920 N 309.238 2.68068 3.77503 0
M  V30 1921 H 306.399 5.40332 6.79951 0
M  V30 1922 H 306.129 4.41613 5.32378 0
M  V30 1923 H 306.996 3.26331 7.47797 0
M  V30 1924 P 310.958 2.75334 8.47391 0
M  V30 1925 O 311.178 2.44571 9.90142 0
M  V30 1926 O 311.748 3.87688 7.92115 0
M  V30 1927 O 311.208 1.4459 7.59357 0
M  V30 1928 C 310.268 0.347608 7.69215 0
M  V30 1929 C 310.998 -0.96767 7.52806 0
M  V30 1930 O 311.208 -1.21036 6.1011 0
M  V30 1931 C 312.398 -1.04544 8.13308 0
M  V30 1932 O 312.788 -2.38311 8.41922 0
M  V30 1933 C 313.278 -0.491279 7.02284 0
M  V30 1934 C 312.568 -0.996264 5.77469 0
M  V30 1935 N 312.618 -0.0501916 4.62973 0
M  V30 1936 H 309.779 0.374722 8.67691 0
M  V30 1937 H 309.509 0.443485 6.90277 0
M  V30 1938 H 310.376 -1.75537 7.96793 0
M  V30 1939 P 314.338 -2.75334 8.47391 0
M  V30 1940 O 314.558 -3.84128 9.44797 0
M  V30 1941 O 315.128 -1.51947 8.68712 0
M  V30 1942 O 314.588 -3.29363 6.99321 0
M  V30 1943 C 313.648 -4.24011 6.4274 0
M  V30 1944 C 314.378 -5.20775 5.52155 0
M  V30 1945 O 314.588 -4.56534 4.22446 0
M  V30 1946 C 315.778 -5.62629 5.96531 0
M  V30 1947 O 316.168 -6.87667 5.41053 0
M  V30 1948 C 316.658 -4.52537 5.39283 0
M  V30 1949 C 315.948 -4.20027 4.08623 0
M  V30 1950 N 315.998 -2.76189 3.71603 0
M  V30 1951 H 313.159 -4.797 7.24003 0
M  V30 1952 H 312.889 -3.69856 5.84513 0
M  V30 1953 H 313.756 -6.10356 5.41441 0
M  V30 1954 P 317.718 -7.20834 5.23717 0
M  V30 1955 O 317.938 -8.66104 5.38572 0
M  V30 1956 O 318.508 -6.33544 6.1349 0
M  V30 1957 O 317.968 -6.7751 3.72168 0
M  V30 1958 C 317.028 -7.20825 2.7076 0
M  V30 1959 C 317.758 -7.45864 1.40599 0
M  V30 1960 O 317.968 -6.17651 0.734225 0
M  V30 1961 C 319.158 -8.05808 1.51899 0
M  V30 1962 O 319.548 -8.74358 0.335205 0
M  V30 1963 C 320.038 -6.83093 1.70294 0
M  V30 1964 C 319.328 -5.79992 0.836974 0
M  V30 1965 N 319.378 -4.41864 1.38293 0
M  V30 1966 H 316.539 -8.13644 3.0377 0
M  V30 1967 H 316.269 -6.42788 2.55485 0
M  V30 1968 H 317.136 -8.12039 0.792769 0
M  V30 1969 P 321.098 -8.91 -1.34042e-12 0
M  V30 1970 O 321.318 -10.1726 -0.733694 0
M  V30 1971 O 321.888 -8.73148 1.23936 0
M  V30 1972 O 321.348 -7.66872 -0.971405 0
M  V30 1973 C 320.408 -7.42309 -2.04641 0
M  V30 1974 C 321.138 -6.86059 -3.24661 0
M  V30 1975 O 321.348 -5.42847 -3.03646 0
M  V30 1976 C 322.538 -7.41196 -3.50753 0
M  V30 1977 O 322.928 -7.27073 -4.86816 0
M  V30 1978 C 323.418 -6.5273 -2.63741 0
M  V30 1979 C 322.708 -5.1842 -2.73198 0
M  V30 1980 N 322.758 -4.38762 -1.4784 0
M  V30 1981 H 319.919 -8.36803 -2.32493 0
M  V30 1982 H 319.649 -6.70197 -1.71129 0
M  V30 1983 H 320.516 -7.03551 -4.13168 0
M  V30 1984 P 324.478 -7.20834 -5.23717 0
M  V30 1985 O 324.698 -7.80006 -6.57415 0
M  V30 1986 O 325.268 -7.79416 -4.13051 0
M  V30 1987 O 324.728 -5.63315 -5.29344 0
M  V30 1988 C 323.788 -4.80318 -6.01954 0
M  V30 1989 C 324.518 -3.64202 -6.65911 0
M  V30 1990 O 324.728 -2.60736 -5.64823 0
M  V30 1991 C 325.918 -3.93521 -7.19518 0
M  V30 1992 O 326.308 -3.02071 -8.21205 0
M  V30 1993 C 326.798 -3.73047 -5.97036 0
M  V30 1994 C 326.088 -2.58828 -5.25741 0
M  V30 1995 N 326.138 -2.68068 -3.77503 0
M  V30 1996 C 326.058 -3.80474 -2.99159 0
M  V30 1997 N 326.128 -3.55622 -1.71925 0
M  V30 1998 C 326.278 -2.1832 -1.65733 0
M  V30 1999 C 326.408 -1.28842 -0.572777 0
M  V30 2000 N 326.418 -1.66875 0.70098 0
M  V30 2001 N 326.528 0.016788 -0.859836 0
M  V30 2002 C 326.518 0.398145 -2.13316 0
M  V30 2003 N 326.398 -0.328224 -3.22333 0
M  V30 2004 C 326.278 -1.62992 -2.90383 0
M  V30 2005 H 323.3 -5.40394 -6.8003 0
M  V30 2006 H 323.028 -4.41741 -5.32532 0
M  V30 2007 H 323.896 -3.26371 -7.47889 0
M  V30 2008 H 326.551 -1.64007 -5.56746 0
M  V30 2009 H 326.831 -4.63439 -5.3432 0
M  V30 2010 H 327.822 -3.44776 -6.25925 0
M  V30 2011 H 325.988 -4.96707 -7.57347 0
M  V30 2012 H 325.947 -4.8089 -3.39924 0
M  V30 2013 H 326.328 -2.66547 0.941919 0
M  V30 2014 H 326.517 -0.965341 1.44766 0
M  V30 2015 H 326.625 1.46427 -2.29697 0
M  V30 2016 P 327.858 -2.75334 -8.47391 0
M  V30 2017 O 328.078 -2.44571 -9.90142 0
M  V30 2018 O 328.648 -3.87688 -7.92115 0
M  V30 2019 O 328.108 -1.4459 -7.59357 0
M  V30 2020 C 327.168 -0.347608 -7.69215 0
M  V30 2021 C 327.898 0.96767 -7.52806 0
M  V30 2022 O 328.108 1.21036 -6.1011 0
M  V30 2023 C 329.298 1.04544 -8.13308 0
M  V30 2024 O 329.688 2.38311 -8.41922 0
M  V30 2025 C 330.178 0.491279 -7.02284 0
M  V30 2026 C 329.468 0.996264 -5.77469 0
M  V30 2027 N 329.518 0.0501916 -4.62973 0
M  V30 2028 H 326.679 -0.374722 -8.67691 0
M  V30 2029 H 326.409 -0.443485 -6.90277 0
M  V30 2030 H 327.276 1.75537 -7.96793 0
M  V30 2031 P 331.238 2.75334 -8.47391 0
M  V30 2032 O 331.458 3.84128 -9.44797 0
M  V30 2033 O 332.028 1.51947 -8.68712 0
M  V30 2034 O 331.488 3.29363 -6.99321 0
M  V30 2035 C 330.548 4.24011 -6.4274 0
M  V30 2036 C 331.278 5.20775 -5.52155 0
M  V30 2037 O 331.488 4.56534 -4.22446 0
M  V30 2038 C 332.678 5.62629 -5.96531 0
M  V30 2039 O 333.068 6.87667 -5.41053 0
M  V30 2040 C 333.558 4.52537 -5.39283 0
M  V30 2041 C 332.848 4.20027 -4.08623 0
M  V30 2042 N 332.898 2.76189 -3.71603 0
M  V30 2043 H 330.059 4.797 -7.24003 0
M  V30 2044 H 329.789 3.69856 -5.84513 0
M  V30 2045 H 330.656 6.10356 -5.41441 0
M  V30 2046 P 334.618 7.20834 -5.23717 0
M  V30 2047 O 334.838 8.66189 -5.38625 0
M  V30 2048 O 335.408 6.33615 -6.1356 0
M  V30 2049 O 334.868 6.7751 -3.72168 0
M  V30 2050 C 333.928 7.20825 -2.7076 0
M  V30 2051 C 334.658 7.45864 -1.40599 0
M  V30 2052 O 334.868 6.17651 -0.734225 0
M  V30 2053 C 336.058 8.05808 -1.51899 0
M  V30 2054 O 336.448 8.74358 -0.335205 0
M  V30 2055 C 336.938 6.83093 -1.70294 0
M  V30 2056 C 336.228 5.79992 -0.836974 0
M  V30 2057 N 336.278 4.41769 -1.38263 0
M  V30 2058 C 336.428 3.36514 -0.485617 0
M  V30 2059 O 336.518 3.61814 0.724703 0
M  V30 2060 N 336.478 2.00746 -1.14492 0
M  V30 2061 C 336.378 1.85887 -2.27776 0
M  V30 2062 N 336.428 0.600907 -2.69379 0
M  V30 2063 C 336.228 2.92182 -3.22265 0
M  V30 2064 C 336.178 4.18399 -2.71925 0
M  V30 2065 H 333.438 8.1355 -3.03735 0
M  V30 2066 H 333.169 6.42695 -2.55448 0
M  V30 2067 H 334.036 8.12139 -0.792866 0
M  V30 2068 H 336.691 5.80078 0.160615 0
M  V30 2069 H 336.97 6.51379 -2.75643 0
M  V30 2070 H 337.962 7.01734 -1.34462 0
M  V30 2071 H 336.128 8.73674 -2.38337 0
M  V30 2072 H 336.056 5.02669 -3.39718 0
M  V30 2073 H 336.158 2.73001 -4.29239 0
M  V30 2074 H 336.546 -0.162318 -2.01146 0
M  V30 2075 H 336.349 0.387742 -3.69773 0
M  V30 2076 P 337.998 8.91 1.4976e-12 0
M  V30 2077 O 338.218 10.1736 0.733766 0
M  V30 2078 O 338.788 8.73247 -1.2395 0
M  V30 2079 O 338.248 7.66872 0.971405 0
M  V30 2080 C 337.308 7.42212 2.04614 0
M  V30 2081 C 338.038 6.86059 3.24661 0
M  V30 2082 O 338.248 5.42847 3.03646 0
M  V30 2083 C 339.438 7.41196 3.50753 0
M  V30 2084 O 339.828 7.27073 4.86816 0
M  V30 2085 C 340.318 6.5273 2.63741 0
M  V30 2086 C 339.608 5.1842 2.73198 0
M  V30 2087 N 339.658 4.38668 1.47808 0
M  V30 2088 C 339.808 3.02239 1.60048 0
M  V30 2089 O 339.898 2.46459 2.67869 0
M  V30 2090 N 339.848 2.32436 0.408571 0
M  V30 2091 C 339.758 2.85471 -0.854993 0
M  V30 2092 O 339.808 2.12566 -1.8531 0
M  V30 2093 C 339.608 4.28918 -0.887335 0
M  V30 2094 C 339.498 4.91066 -2.24619 0
M  V30 2095 C 339.558 5.00349 0.255399 0
M  V30 2096 H 336.818 8.36803 2.32493 0
M  V30 2097 H 336.549 6.701 1.71105 0
M  V30 2098 H 337.416 7.03551 4.13168 0
M  V30 2099 H 340.071 4.59773 3.53894 0
M  V30 2100 H 340.35 6.88995 1.59871 0
M  V30 2101 H 341.342 6.46749 3.03687 0
M  V30 2102 H 339.508 8.46908 3.20714 0
M  V30 2103 H 339.437 6.08548 0.206986 0
M  V30 2104 H 340.467 5.34836 -2.53099 0
M  V30 2105 H 338.73 5.69638 -2.2291 0
M  V30 2106 H 339.218 4.13971 -2.98044 0
M  V30 2107 H 339.954 1.33211 0.474216 0
M  V30 2108 P 341.378 7.20834 5.23717 0
M  V30 2109 O 341.598 7.79853 6.57286 0
M  V30 2110 O 342.168 7.79239 4.12957 0
M  V30 2111 O 341.628 5.63315 5.29344 0
M  V30 2112 C 340.688 4.80255 6.01876 0
M  V30 2113 C 341.418 3.64202 6.65911 0
M  V30 2114 O 341.628 2.60694 5.64732 0
M  V30 2115 C 342.818 3.93473 7.1943 0
M  V30 2116 O 343.208 3.02071 8.21205 0
M  V30 2117 C 343.698 3.73047 5.97036 0
M  V30 2118 C 342.988 2.58828 5.25741 0
M  V30 2119 N 343.038 2.68068 3.77503 0
M  V30 2120 H 340.199 5.40332 6.79951 0
M  V30 2121 H 339.929 4.41613 5.32378 0
M  V30 2122 H 340.796 3.26331 7.47797 0
M  V30 2123 P 344.758 2.75334 8.47391 0
M  V30 2124 O 344.978 2.44571 9.90142 0
M  V30 2125 O 345.548 3.87688 7.92115 0
M  V30 2126 O 345.008 1.4459 7.59357 0
M  V30 2127 C 344.068 0.347608 7.69215 0
M  V30 2128 C 344.798 -0.96767 7.52806 0
M  V30 2129 O 345.008 -1.21036 6.1011 0
M  V30 2130 C 346.198 -1.04544 8.13308 0
M  V30 2131 O 346.588 -2.38311 8.41922 0
M  V30 2132 C 347.078 -0.491279 7.02284 0
M  V30 2133 C 346.368 -0.996264 5.77469 0
M  V30 2134 N 346.418 -0.0501916 4.62973 0
M  V30 2135 H 343.579 0.374722 8.67691 0
M  V30 2136 H 343.309 0.443485 6.90277 0
M  V30 2137 H 344.176 -1.75537 7.96793 0
M  V30 2138 P 348.138 -2.75334 8.47391 0
M  V30 2139 O 348.358 -3.84204 9.44982 0
M  V30 2140 O 348.928 -1.51982 8.68909 0
M  V30 2141 O 348.388 -3.29363 6.99321 0
M  V30 2142 C 347.448 -4.24066 6.42823 0
M  V30 2143 C 348.178 -5.20775 5.52155 0
M  V30 2144 O 348.388 -4.56607 4.22514 0
M  V30 2145 C 349.578 -5.62697 5.96604 0
M  V30 2146 O 349.968 -6.87667 5.41053 0
M  V30 2147 C 350.458 -4.52537 5.39283 0
M  V30 2148 C 349.748 -4.20027 4.08623 0
M  V30 2149 N 349.798 -2.76189 3.71603 0
M  V30 2150 H 346.96 -4.79756 7.24086 0
M  V30 2151 H 346.688 -3.69963 5.84682 0
M  V30 2152 H 347.556 -6.10431 5.41508 0
M  V30 2153 H 350.211 -4.78816 3.28024 0
M  V30 2154 H 350.491 -3.64957 6.05871 0
M  V30 2155 H 351.482 -4.88748 5.21323 0
M  V30 2156 H 349.648 -5.66789 7.0643 0
M  V30 2157 P 351.518 -7.20834 5.23717 0
M  V30 2158 O 351.738 -8.66104 5.38572 0
M  V30 2159 O 352.308 -6.33544 6.1349 0
M  V30 2160 O 351.768 -6.7751 3.72168 0
M  V30 2161 C 350.828 -7.20825 2.7076 0
M  V30 2162 C 351.558 -7.45864 1.40599 0
M  V30 2163 O 351.768 -6.17651 0.734225 0
M  V30 2164 C 352.958 -8.05808 1.51899 0
M  V30 2165 O 353.348 -8.74358 0.335205 0
M  V30 2166 C 353.838 -6.83093 1.70294 0
M  V30 2167 C 353.128 -5.79992 0.836974 0
M  V30 2168 N 353.178 -4.41864 1.38293 0
M  V30 2169 H 350.339 -8.13644 3.0377 0
M  V30 2170 H 350.069 -6.42788 2.55485 0
M  V30 2171 H 350.936 -8.12039 0.792769 0
M  V30 2172 P 354.898 -8.91 -1.65478e-12 0
M  V30 2173 O 355.118 -10.1726 -0.733694 0
M  V30 2174 O 355.688 -8.73148 1.23936 0
M  V30 2175 O 355.148 -7.66872 -0.971405 0
M  V30 2176 C 354.208 -7.42309 -2.04641 0
M  V30 2177 C 354.938 -6.86059 -3.24661 0
M  V30 2178 O 355.148 -5.42847 -3.03646 0
M  V30 2179 C 356.338 -7.41196 -3.50753 0
M  V30 2180 O 356.728 -7.27073 -4.86816 0
M  V30 2181 C 357.218 -6.5273 -2.63741 0
M  V30 2182 C 356.508 -5.1842 -2.73198 0
M  V30 2183 N 356.558 -4.38762 -1.4784 0
M  V30 2184 H 353.719 -8.36803 -2.32493 0
M  V30 2185 H 353.449 -6.70197 -1.71129 0
M  V30 2186 H 354.316 -7.03551 -4.13168 0
M  V30 2187 P 358.278 -7.20834 -5.23717 0
M  V30 2188 O 358.498 -7.79853 -6.57286 0
M  V30 2189 O 359.068 -7.79239 -4.12957 0
M  V30 2190 O 358.528 -5.63315 -5.29344 0
M  V30 2191 C 357.588 -4.80255 -6.01876 0
M  V30 2192 C 358.318 -3.64202 -6.65911 0
M  V30 2193 O 358.528 -2.60694 -5.64732 0
M  V30 2194 C 359.718 -3.93473 -7.1943 0
M  V30 2195 O 360.108 -3.02071 -8.21205 0
M  V30 2196 C 360.598 -3.73047 -5.97036 0
M  V30 2197 C 359.888 -2.58828 -5.25741 0
M  V30 2198 N 359.938 -2.68068 -3.77503 0
M  V30 2199 H 357.099 -5.40332 -6.79951 0
M  V30 2200 H 356.829 -4.41613 -5.32378 0
M  V30 2201 H 357.696 -3.26331 -7.47797 0
M  V30 2202 P 361.658 -2.75334 -8.47391 0
M  V30 2203 O 361.878 -2.44571 -9.90142 0
M  V30 2204 O 362.448 -3.87688 -7.92115 0
M  V30 2205 O 361.908 -1.4459 -7.59357 0
M  V30 2206 C 360.968 -0.347608 -7.69215 0
M  V30 2207 C 361.698 0.96767 -7.52806 0
M  V30 2208 O 361.908 1.21036 -6.1011 0
M  V30 2209 C 363.098 1.04544 -8.13308 0
M  V30 2210 O 363.488 2.38311 -8.41922 0
M  V30 2211 C 363.978 0.491279 -7.02284 0
M  V30 2212 C 363.268 0.996264 -5.77469 0
M  V30 2213 N 363.318 0.0501916 -4.62973 0
M  V30 2214 H 360.479 -0.374722 -8.67691 0
M  V30 2215 H 360.209 -0.443485 -6.90277 0
M  V30 2216 H 361.076 1.75537 -7.96793 0
M  V30 2217 P 365.038 2.75334 -8.47391 0
M  V30 2218 O 365.258 3.84128 -9.44797 0
M  V30 2219 O 365.828 1.51947 -8.68712 0
M  V30 2220 O 365.288 3.29363 -6.99321 0
M  V30 2221 C 364.348 4.24011 -6.4274 0
M  V30 2222 C 365.078 5.20775 -5.52155 0
M  V30 2223 O 365.288 4.56534 -4.22446 0
M  V30 2224 C 366.478 5.62629 -5.96531 0
M  V30 2225 O 366.868 6.87667 -5.41053 0
M  V30 2226 C 367.358 4.52537 -5.39283 0
M  V30 2227 C 366.648 4.20027 -4.08623 0
M  V30 2228 N 366.698 2.76189 -3.71603 0
M  V30 2229 H 363.859 4.797 -7.24003 0
M  V30 2230 H 363.589 3.69856 -5.84513 0
M  V30 2231 H 364.456 6.10356 -5.41441 0
M  V30 2232 P 368.418 7.20834 -5.23717 0
M  V30 2233 O 368.638 8.66104 -5.38572 0
M  V30 2234 O 369.208 6.33544 -6.1349 0
M  V30 2235 O 368.668 6.7751 -3.72168 0
M  V30 2236 C 367.728 7.20825 -2.7076 0
M  V30 2237 C 368.458 7.45864 -1.40599 0
M  V30 2238 O 368.668 6.17651 -0.734225 0
M  V30 2239 C 369.858 8.05808 -1.51899 0
M  V30 2240 O 370.248 8.74358 -0.335205 0
M  V30 2241 C 370.738 6.83093 -1.70294 0
M  V30 2242 C 370.028 5.79992 -0.836974 0
M  V30 2243 N 370.078 4.41864 -1.38293 0
M  V30 2244 H 367.239 8.13644 -3.0377 0
M  V30 2245 H 366.969 6.42788 -2.55485 0
M  V30 2246 H 367.836 8.12039 -0.792769 0
M  V30 2247 P 371.798 8.91 1.81197e-12 0
M  V30 2248 O 372.018 10.1726 0.733694 0
M  V30 2249 O 372.588 8.73148 -1.23936 0
M  V30 2250 O 372.048 7.66872 0.971405 0
M  V30 2251 C 371.108 7.42309 2.04641 0
M  V30 2252 C 371.838 6.86059 3.24661 0
M  V30 2253 O 372.048 5.42847 3.03646 0
M  V30 2254 C 373.238 7.41196 3.50753 0
M  V30 2255 O 373.628 7.27073 4.86816 0
M  V30 2256 C 374.118 6.5273 2.63741 0
M  V30 2257 C 373.408 5.1842 2.73198 0
M  V30 2258 N 373.458 4.38762 1.4784 0
M  V30 2259 H 370.619 8.36803 2.32493 0
M  V30 2260 H 370.349 6.70197 1.71129 0
M  V30 2261 H 371.216 7.03551 4.13168 0
M  V30 2262 P 375.178 7.20834 5.23717 0
M  V30 2263 O 375.398 7.79853 6.57286 0
M  V30 2264 O 375.968 7.79239 4.12957 0
M  V30 2265 O 375.428 5.63315 5.29344 0
M  V30 2266 C 374.488 4.80255 6.01876 0
M  V30 2267 C 375.218 3.64202 6.65911 0
M  V30 2268 O 375.428 2.60694 5.64732 0
M  V30 2269 C 376.618 3.93473 7.1943 0
M  V30 2270 O 377.008 3.02071 8.21205 0
M  V30 2271 C 377.498 3.73047 5.97036 0
M  V30 2272 C 376.788 2.58828 5.25741 0
M  V30 2273 N 376.838 2.68068 3.77503 0
M  V30 2274 H 373.999 5.40332 6.79951 0
M  V30 2275 H 373.729 4.41613 5.32378 0
M  V30 2276 H 374.596 3.26331 7.47797 0
M  V30 2277 P 378.558 2.75334 8.47391 0
M  V30 2278 O 378.778 2.44619 9.90336 0
M  V30 2279 O 379.348 3.87776 7.92294 0
M  V30 2280 O 378.808 1.4459 7.59357 0
M  V30 2281 C 377.868 0.347653 7.69315 0
M  V30 2282 C 378.598 -0.96767 7.52806 0
M  V30 2283 O 378.808 -1.21055 6.10208 0
M  V30 2284 C 379.998 -1.04557 8.13408 0
M  V30 2285 O 380.388 -2.38311 8.41922 0
M  V30 2286 C 380.878 -0.491279 7.02284 0
M  V30 2287 C 380.168 -0.996264 5.77469 0
M  V30 2288 N 380.218 -0.0501916 4.62973 0
M  V30 2289 C 380.138 1.31969 4.65661 0
M  V30 2290 N 380.208 1.86649 3.48119 0
M  V30 2291 C 380.358 0.792089 2.62406 0
M  V30 2292 C 380.488 0.705684 1.2207 0
M  V30 2293 N 380.498 1.76207 0.413762 0
M  V30 2294 N 380.608 -0.518981 0.685754 0
M  V30 2295 C 380.598 -1.57595 1.49174 0
M  V30 2296 N 380.478 -1.62909 2.80066 0
M  V30 2297 C 380.358 -0.388195 3.3073 0
M  V30 2298 H 377.38 0.374765 8.67791 0
M  V30 2299 H 377.108 0.443613 6.90476 0
M  V30 2300 H 377.976 -1.75559 7.96891 0
M  V30 2301 H 380.631 -1.94563 5.46818 0
M  V30 2302 H 380.911 0.608651 7.04676 0
M  V30 2303 H 381.902 -0.889796 7.09039 0
M  V30 2304 H 380.068 -0.433128 9.04664 0
M  V30 2305 H 380.027 1.89246 5.57664 0
M  V30 2306 H 380.408 2.71005 0.804694 0
M  V30 2307 H 380.597 1.63189 -0.603768 0
M  V30 2308 H 380.705 -2.53475 0.997614 0
M  V30 2309 P 381.938 -2.75334 8.47391 0
M  V30 2310 O 382.158 -3.84128 9.44797 0
M  V30 2311 O 382.728 -1.51947 8.68712 0
M  V30 2312 O 382.188 -3.29363 6.99321 0
M  V30 2313 C 381.248 -4.24011 6.4274 0
M  V30 2314 C 381.978 -5.20775 5.52155 0
M  V30 2315 O 382.188 -4.56534 4.22446 0
M  V30 2316 C 383.378 -5.62629 5.96531 0
M  V30 2317 O 383.768 -6.87667 5.41053 0
M  V30 2318 C 384.258 -4.52537 5.39283 0
M  V30 2319 C 383.548 -4.20027 4.08623 0
M  V30 2320 N 383.598 -2.76189 3.71603 0
M  V30 2321 H 380.759 -4.797 7.24003 0
M  V30 2322 H 380.489 -3.69856 5.84513 0
M  V30 2323 H 381.356 -6.10356 5.41441 0
M  V30 2324 P 385.318 -7.20834 5.23717 0
M  V30 2325 O 385.538 -8.66104 5.38572 0
M  V30 2326 O 386.108 -6.33544 6.1349 0
M  V30 2327 O 385.568 -6.7751 3.72168 0
M  V30 2328 C 384.628 -7.20825 2.7076 0
M  V30 2329 C 385.358 -7.45864 1.40599 0
M  V30 2330 O 385.568 -6.17651 0.734225 0
M  V30 2331 C 386.758 -8.05808 1.51899 0
M  V30 2332 O 387.148 -8.74358 0.335205 0
M  V30 2333 C 387.638 -6.83093 1.70294 0
M  V30 2334 C 386.928 -5.79992 0.836974 0
M  V30 2335 N 386.978 -4.41864 1.38293 0
M  V30 2336 H 384.139 -8.13644 3.0377 0
M  V30 2337 H 383.869 -6.42788 2.55485 0
M  V30 2338 H 384.736 -8.12039 0.792769 0
M  V30 2339 P 388.698 -8.91 -1.96915e-12 0
M  V30 2340 O 388.918 -10.1726 -0.733694 0
M  V30 2341 O 389.488 -8.73148 1.23936 0
M  V30 2342 O 388.948 -7.66872 -0.971405 0
M  V30 2343 C 388.008 -7.42309 -2.04641 0
M  V30 2344 C 388.738 -6.86059 -3.24661 0
M  V30 2345 O 388.948 -5.42847 -3.03646 0
M  V30 2346 C 390.138 -7.41196 -3.50753 0
M  V30 2347 O 390.528 -7.27073 -4.86816 0
M  V30 2348 C 391.018 -6.5273 -2.63741 0
M  V30 2349 C 390.308 -5.1842 -2.73198 0
M  V30 2350 N 390.358 -4.38762 -1.4784 0
M  V30 2351 H 387.519 -8.36803 -2.32493 0
M  V30 2352 H 387.249 -6.70197 -1.71129 0
M  V30 2353 H 388.116 -7.03551 -4.13168 0
M  V30 2354 P 392.078 -7.20834 -5.23717 0
M  V30 2355 O 392.298 -7.79853 -6.57286 0
M  V30 2356 O 392.868 -7.79239 -4.12957 0
M  V30 2357 O 392.328 -5.63315 -5.29344 0
M  V30 2358 C 391.388 -4.80255 -6.01876 0
M  V30 2359 C 392.118 -3.64202 -6.65911 0
M  V30 2360 O 392.328 -2.60694 -5.64732 0
M  V30 2361 C 393.518 -3.93473 -7.1943 0
M  V30 2362 O 393.908 -3.02071 -8.21205 0
M  V30 2363 C 394.398 -3.73047 -5.97036 0
M  V30 2364 C 393.688 -2.58828 -5.25741 0
M  V30 2365 N 393.738 -2.68068 -3.77503 0
M  V30 2366 H 390.899 -5.40332 -6.79951 0
M  V30 2367 H 390.629 -4.41613 -5.32378 0
M  V30 2368 H 391.496 -3.26331 -7.47797 0
M  V30 2369 P 395.458 -2.75334 -8.47391 0
M  V30 2370 O 395.678 -2.44571 -9.90142 0
M  V30 2371 O 396.248 -3.87688 -7.92115 0
M  V30 2372 O 395.708 -1.4459 -7.59357 0
M  V30 2373 C 394.768 -0.347608 -7.69215 0
M  V30 2374 C 395.498 0.96767 -7.52806 0
M  V30 2375 O 395.708 1.21036 -6.1011 0
M  V30 2376 C 396.898 1.04544 -8.13308 0
M  V30 2377 O 397.288 2.38311 -8.41922 0
M  V30 2378 C 397.778 0.491279 -7.02284 0
M  V30 2379 C 397.068 0.996264 -5.77469 0
M  V30 2380 N 397.118 0.0501916 -4.62973 0
M  V30 2381 H 394.279 -0.374722 -8.67691 0
M  V30 2382 H 394.009 -0.443485 -6.90277 0
M  V30 2383 H 394.876 1.75537 -7.96793 0
M  V30 2384 P 398.838 2.75334 -8.47391 0
M  V30 2385 O 399.058 3.84128 -9.44797 0
M  V30 2386 O 399.628 1.51947 -8.68712 0
M  V30 2387 O 399.088 3.29363 -6.99321 0
M  V30 2388 C 398.148 4.24011 -6.4274 0
M  V30 2389 C 398.878 5.20775 -5.52155 0
M  V30 2390 O 399.088 4.56534 -4.22446 0
M  V30 2391 C 400.278 5.62629 -5.96531 0
M  V30 2392 O 400.668 6.87667 -5.41053 0
M  V30 2393 C 401.158 4.52537 -5.39283 0
M  V30 2394 C 400.448 4.20027 -4.08623 0
M  V30 2395 N 400.498 2.76189 -3.71603 0
M  V30 2396 H 397.659 4.797 -7.24003 0
M  V30 2397 H 397.389 3.69856 -5.84513 0
M  V30 2398 H 398.256 6.10356 -5.41441 0
M  V30 2399 P 402.218 7.20834 -5.23717 0
M  V30 2400 O 402.438 8.66104 -5.38572 0
M  V30 2401 O 403.008 6.33544 -6.1349 0
M  V30 2402 O 402.468 6.7751 -3.72168 0
M  V30 2403 C 401.528 7.20825 -2.7076 0
M  V30 2404 C 402.258 7.45864 -1.40599 0
M  V30 2405 O 402.468 6.17651 -0.734225 0
M  V30 2406 C 403.658 8.05808 -1.51899 0
M  V30 2407 O 404.048 8.74358 -0.335205 0
M  V30 2408 C 404.538 6.83093 -1.70294 0
M  V30 2409 C 403.828 5.79992 -0.836974 0
M  V30 2410 N 403.878 4.41864 -1.38293 0
M  V30 2411 H 401.039 8.13644 -3.0377 0
M  V30 2412 H 400.769 6.42788 -2.55485 0
M  V30 2413 H 401.636 8.12039 -0.792769 0
M  V30 2414 P 405.598 8.91 2.12633e-12 0
M  V30 2415 O 405.818 10.1726 0.733694 0
M  V30 2416 O 406.388 8.73148 -1.23936 0
M  V30 2417 O 405.848 7.66872 0.971405 0
M  V30 2418 C 404.908 7.42309 2.04641 0
M  V30 2419 C 405.638 6.86059 3.24661 0
M  V30 2420 O 405.848 5.42847 3.03646 0
M  V30 2421 C 407.038 7.41196 3.50753 0
M  V30 2422 O 407.428 7.27073 4.86816 0
M  V30 2423 C 407.918 6.5273 2.63741 0
M  V30 2424 C 407.208 5.1842 2.73198 0
M  V30 2425 N 407.258 4.38762 1.4784 0
M  V30 2426 C 407.178 4.81605 0.168631 0
M  V30 2427 N 407.258 3.85454 -0.713363 0
M  V30 2428 C 407.398 2.6994 0.0566958 0
M  V30 2429 C 407.528 1.34815 -0.338502 0
M  V30 2430 O 407.548 0.869548 -1.47125 0
M  V30 2431 N 407.648 0.496304 0.77465 0
M  V30 2432 C 407.648 0.908403 2.09122 0
M  V30 2433 N 407.778 -0.0517805 3.00955 0
M  V30 2434 N 407.518 2.17875 2.46519 0
M  V30 2435 C 407.398 3.01988 1.4033 0
M  V30 2436 H 404.419 8.36803 2.32493 0
M  V30 2437 H 404.149 6.70197 1.71129 0
M  V30 2438 H 405.016 7.03551 4.13168 0
M  V30 2439 H 407.671 4.59498 3.54415 0
M  V30 2440 H 407.95 6.88898 1.59848 0
M  V30 2441 H 408.942 6.46749 3.03687 0
M  V30 2442 H 407.108 8.46908 3.20714 0
M  V30 2443 H 407.059 5.86405 -0.105564 0
M  V30 2444 H 407.741 -0.483664 0.597855 0
M  V30 2445 H 407.778 0.187865 4.0116 0
M  V30 2446 H 407.879 -1.03585 2.71726 0
M  V30 2447 P 408.978 7.20834 5.23717 0
M  V30 2448 O 409.198 7.80006 6.57415 0
M  V30 2449 O 409.768 7.79416 4.13051 0
M  V30 2450 O 409.228 5.63315 5.29344 0
M  V30 2451 C 408.288 4.80318 6.01954 0
M  V30 2452 C 409.018 3.64202 6.65911 0
M  V30 2453 O 409.228 2.60736 5.64823 0
M  V30 2454 C 410.418 3.93521 7.19518 0
M  V30 2455 O 410.808 3.02071 8.21205 0
M  V30 2456 C 411.298 3.73047 5.97036 0
M  V30 2457 C 410.588 2.58828 5.25741 0
M  V30 2458 N 410.638 2.68068 3.77503 0
M  V30 2459 C 410.558 3.80474 2.99159 0
M  V30 2460 N 410.628 3.55622 1.71925 0
M  V30 2461 C 410.778 2.1832 1.65733 0
M  V30 2462 C 410.908 1.28842 0.572777 0
M  V30 2463 N 410.918 1.66875 -0.70098 0
M  V30 2464 N 411.028 -0.016788 0.859836 0
M  V30 2465 C 411.018 -0.398145 2.13316 0
M  V30 2466 N 410.898 0.328224 3.22333 0
M  V30 2467 C 410.778 1.62992 2.90383 0
M  V30 2468 H 407.8 5.40394 6.8003 0
M  V30 2469 H 407.528 4.41741 5.32532 0
M  V30 2470 H 408.396 3.26371 7.47889 0
M  V30 2471 H 411.051 1.64007 5.56746 0
M  V30 2472 H 411.331 4.63439 5.3432 0
M  V30 2473 H 412.322 3.44776 6.25925 0
M  V30 2474 H 410.488 4.96707 7.57347 0
M  V30 2475 H 410.447 4.8089 3.39924 0
M  V30 2476 H 410.828 2.66547 -0.941919 0
M  V30 2477 H 411.017 0.965341 -1.44766 0
M  V30 2478 H 411.125 -1.46427 2.29697 0
M  V30 2479 P 412.358 2.75334 8.47391 0
M  V30 2480 O 412.578 2.44571 9.90142 0
M  V30 2481 O 413.148 3.87688 7.92115 0
M  V30 2482 O 412.608 1.4459 7.59357 0
M  V30 2483 C 411.668 0.347608 7.69215 0
M  V30 2484 C 412.398 -0.96767 7.52806 0
M  V30 2485 O 412.608 -1.21036 6.1011 0
M  V30 2486 C 413.798 -1.04544 8.13308 0
M  V30 2487 O 414.188 -2.38311 8.41922 0
M  V30 2488 C 414.678 -0.491279 7.02284 0
M  V30 2489 C 413.968 -0.996264 5.77469 0
M  V30 2490 N 414.018 -0.0501916 4.62973 0
M  V30 2491 H 411.179 0.374722 8.67691 0
M  V30 2492 H 410.909 0.443485 6.90277 0
M  V30 2493 H 411.776 -1.75537 7.96793 0
M  V30 2494 P 415.738 -2.75334 8.47391 0
M  V30 2495 O 415.958 -3.84204 9.44982 0
M  V30 2496 O 416.528 -1.51982 8.68909 0
M  V30 2497 O 415.988 -3.29363 6.99321 0
M  V30 2498 C 415.048 -4.24066 6.42823 0
M  V30 2499 C 415.778 -5.20775 5.52155 0
M  V30 2500 O 415.988 -4.56607 4.22514 0
M  V30 2501 C 417.178 -5.62697 5.96604 0
M  V30 2502 O 417.568 -6.87667 5.41053 0
M  V30 2503 C 418.058 -4.52537 5.39283 0
M  V30 2504 C 417.348 -4.20027 4.08623 0
M  V30 2505 N 417.398 -2.76189 3.71603 0
M  V30 2506 C 417.318 -1.66944 4.54297 0
M  V30 2507 N 417.388 -0.536169 3.91344 0
M  V30 2508 C 417.538 -0.901569 2.58849 0
M  V30 2509 C 417.668 -0.146599 1.40236 0
M  V30 2510 N 417.678 1.18234 1.37046 0
M  V30 2511 N 417.788 -0.822941 0.249738 0
M  V30 2512 C 417.778 -2.15179 0.280525 0
M  V30 2513 N 417.658 -2.96414 1.30822 0
M  V30 2514 C 417.538 -2.25804 2.44748 0
M  V30 2515 H 414.56 -4.79756 7.24086 0
M  V30 2516 H 414.288 -3.69963 5.84682 0
M  V30 2517 H 415.156 -6.10431 5.41508 0
M  V30 2518 H 417.811 -4.78816 3.28024 0
M  V30 2519 H 418.091 -3.64957 6.05871 0
M  V30 2520 H 419.082 -4.88748 5.21323 0
M  V30 2521 H 417.248 -5.66789 7.0643 0
M  V30 2522 H 417.207 -1.74684 5.62396 0
M  V30 2523 H 417.588 1.71949 2.24394 0
M  V30 2524 H 417.777 1.67511 0.470742 0
M  V30 2525 H 417.885 -2.63704 -0.6828 0
M  V30 2526 P 419.118 -7.20834 5.23717 0
M  V30 2527 O 419.338 -8.66274 5.38678 0
M  V30 2528 O 419.908 -6.33687 6.13629 0
M  V30 2529 O 419.368 -6.7751 3.72168 0
M  V30 2530 C 418.428 -7.20919 2.70795 0
M  V30 2531 C 419.158 -7.45864 1.40599 0
M  V30 2532 O 419.368 -6.17751 0.734343 0
M  V30 2533 C 420.558 -8.05906 1.51917 0
M  V30 2534 O 420.948 -8.74358 0.335205 0
M  V30 2535 C 421.438 -6.83093 1.70294 0
M  V30 2536 C 420.728 -5.79992 0.836974 0
M  V30 2537 N 420.778 -4.41864 1.38293 0
M  V30 2538 C 420.698 -4.02089 2.69407 0
M  V30 2539 N 420.768 -2.73403 2.85089 0
M  V30 2540 C 420.918 -2.25086 1.5642 0
M  V30 2541 C 421.048 -0.942887 1.04836 0
M  V30 2542 N 421.058 0.150999 1.80369 0
M  V30 2543 N 421.168 -0.812565 -0.28167 0
M  V30 2544 C 421.158 -1.90572 -1.03784 0
M  V30 2545 N 421.038 -3.167 -0.683905 0
M  V30 2546 C 420.918 -3.26538 0.652815 0
M  V30 2547 H 417.94 -8.13738 3.03804 0
M  V30 2548 H 417.668 -6.42974 2.55559 0
M  V30 2549 H 418.536 -8.12139 0.792866 0
M  V30 2550 H 421.191 -5.80178 -0.160643 0
M  V30 2551 H 421.471 -6.51379 2.75643 0
M  V30 2552 H 422.462 -7.01832 1.3448 0
M  V30 2553 H 420.628 -8.73771 2.38364 0
M  V30 2554 H 420.587 -4.7189 3.52311 0
M  V30 2555 H 420.968 0.0721434 2.82608 0
M  V30 2556 H 421.157 1.0785 1.36544 0
M  V30 2557 H 421.265 -1.73207 -2.10241 0
M  V30 2558 P 422.497 -8.91 -2.28351e-12 0
M  V30 2559 O 422.717 -10.1726 -0.733694 0
M  V30 2560 O 423.287 -8.73148 1.23936 0
M  V30 2561 O 422.747 -7.66872 -0.971405 0
M  V30 2562 C 421.807 -7.42309 -2.04641 0
M  V30 2563 C 422.537 -6.86059 -3.24661 0
M  V30 2564 O 422.747 -5.42847 -3.03646 0
M  V30 2565 C 423.937 -7.41196 -3.50753 0
M  V30 2566 O 424.327 -7.27073 -4.86816 0
M  V30 2567 C 424.817 -6.5273 -2.63741 0
M  V30 2568 C 424.107 -5.1842 -2.73198 0
M  V30 2569 N 424.157 -4.38762 -1.4784 0
M  V30 2570 H 421.318 -8.36803 -2.32493 0
M  V30 2571 H 421.048 -6.70197 -1.71129 0
M  V30 2572 H 421.915 -7.03551 -4.13168 0
M  V30 2573 P 425.877 -7.20834 -5.23717 0
M  V30 2574 O 426.097 -7.79853 -6.57286 0
M  V30 2575 O 426.667 -7.79239 -4.12957 0
M  V30 2576 O 426.127 -5.63315 -5.29344 0
M  V30 2577 C 425.187 -4.80255 -6.01876 0
M  V30 2578 C 425.917 -3.64202 -6.65911 0
M  V30 2579 O 426.127 -2.60694 -5.64732 0
M  V30 2580 C 427.317 -3.93473 -7.1943 0
M  V30 2581 O 427.707 -3.02071 -8.21205 0
M  V30 2582 C 428.197 -3.73047 -5.97036 0
M  V30 2583 C 427.487 -2.58828 -5.25741 0
M  V30 2584 N 427.537 -2.68068 -3.77503 0
M  V30 2585 H 424.698 -5.40332 -6.79951 0
M  V30 2586 H 424.428 -4.41613 -5.32378 0
M  V30 2587 H 425.295 -3.26331 -7.47797 0
M  V30 2588 P 429.257 -2.75334 -8.47391 0
M  V30 2589 O 429.477 -2.44571 -9.90142 0
M  V30 2590 O 430.047 -3.87688 -7.92115 0
M  V30 2591 O 429.507 -1.4459 -7.59357 0
M  V30 2592 C 428.567 -0.347608 -7.69215 0
M  V30 2593 C 429.297 0.96767 -7.52806 0
M  V30 2594 O 429.507 1.21036 -6.1011 0
M  V30 2595 C 430.697 1.04544 -8.13308 0
M  V30 2596 O 431.087 2.38311 -8.41922 0
M  V30 2597 C 431.577 0.491279 -7.02284 0
M  V30 2598 C 430.867 0.996264 -5.77469 0
M  V30 2599 N 430.917 0.0501916 -4.62973 0
M  V30 2600 H 428.078 -0.374722 -8.67691 0
M  V30 2601 H 427.808 -0.443485 -6.90277 0
M  V30 2602 H 428.675 1.75537 -7.96793 0
M  V30 2603 P 432.637 2.75334 -8.47391 0
M  V30 2604 O 432.857 3.84128 -9.44797 0
M  V30 2605 O 433.427 1.51947 -8.68712 0
M  V30 2606 O 432.887 3.29363 -6.99321 0
M  V30 2607 C 431.947 4.24011 -6.4274 0
M  V30 2608 C 432.677 5.20775 -5.52155 0
M  V30 2609 O 432.887 4.56534 -4.22446 0
M  V30 2610 C 434.077 5.62629 -5.96531 0
M  V30 2611 O 434.467 6.87667 -5.41053 0
M  V30 2612 C 434.957 4.52537 -5.39283 0
M  V30 2613 C 434.247 4.20027 -4.08623 0
M  V30 2614 N 434.297 2.76189 -3.71603 0
M  V30 2615 H 431.458 4.797 -7.24003 0
M  V30 2616 H 431.188 3.69856 -5.84513 0
M  V30 2617 H 432.055 6.10356 -5.41441 0
M  V30 2618 P 436.017 7.20834 -5.23717 0
M  V30 2619 O 436.237 8.66104 -5.38572 0
M  V30 2620 O 436.807 6.33544 -6.1349 0
M  V30 2621 O 436.267 6.7751 -3.72168 0
M  V30 2622 C 435.327 7.20825 -2.7076 0
M  V30 2623 C 436.057 7.45864 -1.40599 0
M  V30 2624 O 436.267 6.17651 -0.734225 0
M  V30 2625 C 437.457 8.05808 -1.51899 0
M  V30 2626 O 437.847 8.74358 -0.335205 0
M  V30 2627 C 438.337 6.83093 -1.70294 0
M  V30 2628 C 437.627 5.79992 -0.836974 0
M  V30 2629 N 437.677 4.41864 -1.38293 0
M  V30 2630 C 437.597 3.99538 -2.69438 0
M  V30 2631 N 437.677 2.69909 -2.84277 0
M  V30 2632 C 437.817 2.21719 -1.5408 0
M  V30 2633 C 437.947 0.891712 -1.06628 0
M  V30 2634 O 437.967 -0.161298 -1.70137 0
M  V30 2635 N 438.067 0.856846 0.334985 0
M  V30 2636 C 438.067 1.9641 1.15789 0
M  V30 2637 N 438.197 1.72708 2.46522 0
M  V30 2638 N 437.937 3.21165 0.713741 0
M  V30 2639 C 437.817 3.26797 -0.639748 0
M  V30 2640 H 434.838 8.13644 -3.0377 0
M  V30 2641 H 434.568 6.42788 -2.55485 0
M  V30 2642 H 435.435 8.12039 -0.792769 0
M  V30 2643 H 438.09 5.80061 0.166416 0
M  V30 2644 H 438.369 6.51287 -2.75604 0
M  V30 2645 H 439.361 7.01734 -1.34462 0
M  V30 2646 H 437.527 8.73674 -2.38337 0
M  V30 2647 H 437.478 4.68207 -3.53221 0
M  V30 2648 H 438.16 -0.0398818 0.767965 0
M  V30 2649 H 438.197 2.50995 3.13503 0
M  V30 2650 H 438.298 0.759148 2.80716 0
M  V30 2651 P 439.397 8.91 2.44069e-12 0
M  V30 2652 O 439.617 10.1726 0.733694 0
M  V30 2653 O 440.187 8.73148 -1.23936 0
M  V30 2654 O 439.647 7.66872 0.971405 0
M  V30 2655 C 438.707 7.42309 2.04641 0
M  V30 2656 C 439.437 6.86059 3.24661 0
M  V30 2657 O 439.647 5.42847 3.03646 0
M  V30 2658 C 440.837 7.41196 3.50753 0
M  V30 2659 O 441.227 7.27073 4.86816 0
M  V30 2660 C 441.717 6.5273 2.63741 0
M  V30 2661 C 441.007 5.1842 2.73198 0
M  V30 2662 N 441.057 4.38762 1.4784 0
M  V30 2663 H 438.218 8.36803 2.32493 0
M  V30 2664 H 437.948 6.70197 1.71129 0
M  V30 2665 H 438.815 7.03551 4.13168 0
M  V30 2666 P 442.777 7.20834 5.23717 0
M  V30 2667 O 442.997 7.79853 6.57286 0
M  V30 2668 O 443.567 7.79239 4.12957 0
M  V30 2669 O 443.027 5.63315 5.29344 0
M  V30 2670 C 442.087 4.80255 6.01876 0
M  V30 2671 C 442.817 3.64202 6.65911 0
M  V30 2672 O 443.027 2.60694 5.64732 0
M  V30 2673 C 444.217 3.93473 7.1943 0
M  V30 2674 O 444.607 3.02071 8.21205 0
M  V30 2675 C 445.097 3.73047 5.97036 0
M  V30 2676 C 444.387 2.58828 5.25741 0
M  V30 2677 N 444.437 2.68068 3.77503 0
M  V30 2678 H 441.598 5.40332 6.79951 0
M  V30 2679 H 441.328 4.41613 5.32378 0
M  V30 2680 H 442.195 3.26331 7.47797 0
M  V30 2681 P 446.157 2.75334 8.47391 0
M  V30 2682 O 446.377 2.44571 9.90142 0
M  V30 2683 O 446.947 3.87688 7.92115 0
M  V30 2684 O 446.407 1.4459 7.59357 0
M  V30 2685 C 445.467 0.347608 7.69215 0
M  V30 2686 C 446.197 -0.96767 7.52806 0
M  V30 2687 O 446.407 -1.21036 6.1011 0
M  V30 2688 C 447.597 -1.04544 8.13308 0
M  V30 2689 O 447.987 -2.38311 8.41922 0
M  V30 2690 C 448.477 -0.491279 7.02284 0
M  V30 2691 C 447.767 -0.996264 5.77469 0
M  V30 2692 N 447.817 -0.0501916 4.62973 0
M  V30 2693 H 444.978 0.374722 8.67691 0
M  V30 2694 H 444.708 0.443485 6.90277 0
M  V30 2695 H 445.575 -1.75537 7.96793 0
M  V30 2696 P 449.537 -2.75334 8.47391 0
M  V30 2697 O 449.757 -3.84128 9.44797 0
M  V30 2698 O 450.327 -1.51947 8.68712 0
M  V30 2699 O 449.787 -3.29363 6.99321 0
M  V30 2700 C 448.847 -4.24011 6.4274 0
M  V30 2701 C 449.577 -5.20775 5.52155 0
M  V30 2702 O 449.787 -4.56534 4.22446 0
M  V30 2703 C 450.977 -5.62629 5.96531 0
M  V30 2704 O 451.367 -6.87667 5.41053 0
M  V30 2705 C 451.857 -4.52537 5.39283 0
M  V30 2706 C 451.147 -4.20027 4.08623 0
M  V30 2707 N 451.197 -2.76189 3.71603 0
M  V30 2708 H 448.358 -4.797 7.24003 0
M  V30 2709 H 448.088 -3.69856 5.84513 0
M  V30 2710 H 448.955 -6.10356 5.41441 0
M  V30 2711 P 452.917 -7.20834 5.23717 0
M  V30 2712 O 453.137 -8.66104 5.38572 0
M  V30 2713 O 453.707 -6.33544 6.1349 0
M  V30 2714 O 453.167 -6.7751 3.72168 0
M  V30 2715 C 452.227 -7.20825 2.7076 0
M  V30 2716 C 452.957 -7.45864 1.40599 0
M  V30 2717 O 453.167 -6.17651 0.734225 0
M  V30 2718 C 454.357 -8.05808 1.51899 0
M  V30 2719 O 454.747 -8.74358 0.335205 0
M  V30 2720 C 455.237 -6.83093 1.70294 0
M  V30 2721 C 454.527 -5.79992 0.836974 0
M  V30 2722 N 454.577 -4.41864 1.38293 0
M  V30 2723 H 451.738 -8.13644 3.0377 0
M  V30 2724 H 451.468 -6.42788 2.55485 0
M  V30 2725 H 452.335 -8.12039 0.792769 0
M  V30 2726 P 456.297 -8.91 -2.59788e-12 0
M  V30 2727 O 456.517 -10.1736 -0.733766 0
M  V30 2728 O 457.087 -8.73247 1.2395 0
M  V30 2729 O 456.547 -7.66872 -0.971405 0
M  V30 2730 C 455.607 -7.42212 -2.04614 0
M  V30 2731 C 456.337 -6.86059 -3.24661 0
M  V30 2732 O 456.547 -5.42847 -3.03646 0
M  V30 2733 C 457.737 -7.41196 -3.50753 0
M  V30 2734 O 458.127 -7.27073 -4.86816 0
M  V30 2735 C 458.617 -6.5273 -2.63741 0
M  V30 2736 C 457.907 -5.1842 -2.73198 0
M  V30 2737 N 457.957 -4.38668 -1.47808 0
M  V30 2738 C 458.107 -3.02239 -1.60048 0
M  V30 2739 O 458.197 -2.46459 -2.67869 0
M  V30 2740 N 458.147 -2.32436 -0.408571 0
M  V30 2741 C 458.057 -2.85471 0.854993 0
M  V30 2742 O 458.107 -2.12566 1.8531 0
M  V30 2743 C 457.907 -4.28918 0.887335 0
M  V30 2744 C 457.797 -4.91066 2.24619 0
M  V30 2745 C 457.857 -5.00349 -0.255399 0
M  V30 2746 H 455.117 -8.36803 -2.32493 0
M  V30 2747 H 454.848 -6.701 -1.71105 0
M  V30 2748 H 455.715 -7.03551 -4.13168 0
M  V30 2749 H 458.37 -4.59773 -3.53894 0
M  V30 2750 H 458.649 -6.88995 -1.59871 0
M  V30 2751 H 459.641 -6.46749 -3.03687 0
M  V30 2752 H 457.807 -8.46908 -3.20714 0
M  V30 2753 H 457.736 -6.08548 -0.206986 0
M  V30 2754 H 458.766 -5.34836 2.53099 0
M  V30 2755 H 457.029 -5.69638 2.2291 0
M  V30 2756 H 457.517 -4.13971 2.98044 0
M  V30 2757 H 458.253 -1.33211 -0.474216 0
M  V30 2758 P 459.677 -7.20834 -5.23717 0
M  V30 2759 O 459.897 -7.79853 -6.57286 0
M  V30 2760 O 460.467 -7.79239 -4.12957 0
M  V30 2761 O 459.927 -5.63315 -5.29344 0
M  V30 2762 C 458.987 -4.80255 -6.01876 0
M  V30 2763 C 459.717 -3.64202 -6.65911 0
M  V30 2764 O 459.927 -2.60694 -5.64732 0
M  V30 2765 C 461.117 -3.93473 -7.1943 0
M  V30 2766 O 461.507 -3.02071 -8.21205 0
M  V30 2767 C 461.997 -3.73047 -5.97036 0
M  V30 2768 C 461.287 -2.58828 -5.25741 0
M  V30 2769 N 461.337 -2.68068 -3.77503 0
M  V30 2770 H 458.498 -5.40332 -6.79951 0
M  V30 2771 H 458.228 -4.41613 -5.32378 0
M  V30 2772 H 459.095 -3.26331 -7.47797 0
M  V30 2773 P 463.057 -2.75334 -8.47391 0
M  V30 2774 O 463.277 -2.44571 -9.90142 0
M  V30 2775 O 463.847 -3.87688 -7.92115 0
M  V30 2776 O 463.307 -1.4459 -7.59357 0
M  V30 2777 C 462.367 -0.347608 -7.69215 0
M  V30 2778 C 463.097 0.96767 -7.52806 0
M  V30 2779 O 463.307 1.21036 -6.1011 0
M  V30 2780 C 464.497 1.04544 -8.13308 0
M  V30 2781 O 464.887 2.38311 -8.41922 0
M  V30 2782 C 465.377 0.491279 -7.02284 0
M  V30 2783 C 464.667 0.996264 -5.77469 0
M  V30 2784 N 464.717 0.0501916 -4.62973 0
M  V30 2785 H 461.878 -0.374722 -8.67691 0
M  V30 2786 H 461.608 -0.443485 -6.90277 0
M  V30 2787 H 462.475 1.75537 -7.96793 0
M  V30 2788 P 466.437 2.75334 -8.47391 0
M  V30 2789 O 466.657 3.84128 -9.44797 0
M  V30 2790 O 467.227 1.51947 -8.68712 0
M  V30 2791 O 466.687 3.29363 -6.99321 0
M  V30 2792 C 465.747 4.24011 -6.4274 0
M  V30 2793 C 466.477 5.20775 -5.52155 0
M  V30 2794 O 466.687 4.56534 -4.22446 0
M  V30 2795 C 467.877 5.62629 -5.96531 0
M  V30 2796 O 468.267 6.87667 -5.41053 0
M  V30 2797 C 468.757 4.52537 -5.39283 0
M  V30 2798 C 468.047 4.20027 -4.08623 0
M  V30 2799 N 468.097 2.76189 -3.71603 0
M  V30 2800 C 468.017 1.64862 -4.52822 0
M  V30 2801 N 468.097 0.512671 -3.88633 0
M  V30 2802 C 468.237 0.888083 -2.54977 0
M  V30 2803 C 468.367 0.094668 -1.38677 0
M  V30 2804 N 468.487 0.890102 -0.232633 0
M  V30 2805 C 468.487 2.26958 -0.21772 0
M  V30 2806 N 468.617 2.84626 0.97925 0
M  V30 2807 N 468.357 3.0178 -1.31033 0
M  V30 2808 C 468.237 2.26781 -2.43843 0
M  V30 2809 H 465.258 4.797 -7.24003 0
M  V30 2810 H 464.988 3.69856 -5.84513 0
M  V30 2811 H 465.855 6.10356 -5.41441 0
M  V30 2812 P 469.817 7.20834 -5.23717 0
M  V30 2813 O 470.037 8.66104 -5.38572 0
M  V30 2814 O 470.607 6.33544 -6.1349 0
M  V30 2815 O 470.067 6.7751 -3.72168 0
M  V30 2816 C 469.127 7.20825 -2.7076 0
M  V30 2817 C 469.857 7.45864 -1.40599 0
M  V30 2818 O 470.067 6.17651 -0.734225 0
M  V30 2819 C 471.257 8.05808 -1.51899 0
M  V30 2820 O 471.647 8.74358 -0.335205 0
M  V30 2821 C 472.137 6.83093 -1.70294 0
M  V30 2822 C 471.427 5.79992 -0.836974 0
M  V30 2823 N 471.477 4.41864 -1.38293 0
M  V30 2824 C 471.397 3.99538 -2.69438 0
M  V30 2825 N 471.477 2.69909 -2.84277 0
M  V30 2826 C 471.617 2.21719 -1.5408 0
M  V30 2827 C 471.747 0.891712 -1.06628 0
M  V30 2828 O 471.767 -0.161298 -1.70137 0
M  V30 2829 N 471.867 0.856846 0.334985 0
M  V30 2830 C 471.867 1.9641 1.15789 0
M  V30 2831 N 471.997 1.72708 2.46522 0
M  V30 2832 N 471.737 3.21165 0.713741 0
M  V30 2833 C 471.617 3.26797 -0.639748 0
M  V30 2834 H 468.638 8.13644 -3.0377 0
M  V30 2835 H 468.368 6.42788 -2.55485 0
M  V30 2836 H 469.235 8.12039 -0.792769 0
M  V30 2837 H 471.89 5.80061 0.166416 0
M  V30 2838 H 472.169 6.51287 -2.75604 0
M  V30 2839 H 473.161 7.01734 -1.34462 0
M  V30 2840 H 471.327 8.73674 -2.38337 0
M  V30 2841 H 471.278 4.68207 -3.53221 0
M  V30 2842 H 471.96 -0.0398818 0.767965 0
M  V30 2843 H 471.997 2.50995 3.13503 0
M  V30 2844 H 472.098 0.759148 2.80716 0
M  V30 2845 P 473.197 8.91 2.75506e-12 0
M  V30 2846 O 473.417 10.1726 0.733694 0
M  V30 2847 O 473.987 8.73148 -1.23936 0
M  V30 2848 O 473.447 7.66872 0.971405 0
M  V30 2849 C 472.507 7.42309 2.04641 0
M  V30 2850 C 473.237 6.86059 3.24661 0
M  V30 2851 O 473.447 5.42847 3.03646 0
M  V30 2852 C 474.637 7.41196 3.50753 0
M  V30 2853 O 475.027 7.27073 4.86816 0
M  V30 2854 C 475.517 6.5273 2.63741 0
M  V30 2855 C 474.807 5.1842 2.73198 0
M  V30 2856 N 474.857 4.38762 1.4784 0
M  V30 2857 H 472.018 8.36803 2.32493 0
M  V30 2858 H 471.748 6.70197 1.71129 0
M  V30 2859 H 472.615 7.03551 4.13168 0
M  V30 2860 P 476.577 7.20834 5.23717 0
M  V30 2861 O 476.797 7.80006 6.57415 0
M  V30 2862 O 477.367 7.79416 4.13051 0
M  V30 2863 O 476.827 5.63315 5.29344 0
M  V30 2864 C 475.887 4.80318 6.01954 0
M  V30 2865 C 476.617 3.64202 6.65911 0
M  V30 2866 O 476.827 2.60736 5.64823 0
M  V30 2867 C 478.017 3.93521 7.19518 0
M  V30 2868 O 478.407 3.02071 8.21205 0
M  V30 2869 C 478.897 3.73047 5.97036 0
M  V30 2870 C 478.187 2.58828 5.25741 0
M  V30 2871 N 478.237 2.68068 3.77503 0
M  V30 2872 H 475.399 5.40394 6.8003 0
M  V30 2873 H 475.127 4.41741 5.32532 0
M  V30 2874 H 475.995 3.26371 7.47889 0
M  V30 2875 H 478.65 1.64007 5.56746 0
M  V30 2876 H 478.93 4.63439 5.3432 0
M  V30 2877 H 479.921 3.44776 6.25925 0
M  V30 2878 H 478.087 4.96707 7.57347 0
M  V30 2879 P 479.957 2.75334 8.47391 0
M  V30 2880 O 480.177 2.44595 9.90239 0
M  V30 2881 O 480.747 3.87732 7.92204 0
M  V30 2882 O 480.207 1.4459 7.59357 0
M  V30 2883 C 479.267 0.347563 7.69115 0
M  V30 2884 C 479.997 -0.96767 7.52806 0
M  V30 2885 O 480.207 -1.21036 6.1011 0
M  V30 2886 C 481.397 -1.04544 8.13308 0
M  V30 2887 O 481.787 -2.38311 8.41922 0
M  V30 2888 C 482.277 -0.491279 7.02284 0
M  V30 2889 C 481.567 -0.996264 5.77469 0
M  V30 2890 N 481.617 -0.0501808 4.62873 0
M  V30 2891 C 481.767 -0.588177 3.36904 0
M  V30 2892 O 481.857 -1.78598 3.17173 0
M  V30 2893 N 481.807 0.329694 2.33686 0
M  V30 2894 C 481.717 1.6953 2.45079 0
M  V30 2895 C 481.567 2.16933 3.80505 0
M  V30 2896 C 481.517 1.30326 4.83752 0
M  V30 2897 H 478.777 0.374722 8.67691 0
M  V30 2898 H 478.508 0.443421 6.90177 0
M  V30 2899 H 479.375 -1.75537 7.96793 0
M  V30 2900 H 482.03 -1.94496 5.46629 0
M  V30 2901 H 482.309 0.608651 7.04676 0
M  V30 2902 H 483.301 -0.889672 7.08939 0
M  V30 2903 H 481.467 -0.43308 9.04564 0
M  V30 2904 H 481.396 1.68366 5.8516 0
M  V30 2905 P 483.337 -2.75334 8.47391 0
M  V30 2906 O 483.557 -3.84128 9.44797 0
M  V30 2907 O 484.127 -1.51947 8.68712 0
M  V30 2908 O 483.587 -3.29363 6.99321 0
M  V30 2909 C 482.647 -4.24011 6.4274 0
M  V30 2910 C 483.377 -5.20775 5.52155 0
M  V30 2911 O 483.587 -4.56534 4.22446 0
M  V30 2912 C 484.777 -5.62629 5.96531 0
M  V30 2913 O 485.167 -6.87667 5.41053 0
M  V30 2914 C 485.657 -4.52537 5.39283 0
M  V30 2915 C 484.947 -4.20027 4.08623 0
M  V30 2916 N 484.997 -2.76189 3.71603 0
M  V30 2917 H 482.158 -4.797 7.24003 0
M  V30 2918 H 481.888 -3.69856 5.84513 0
M  V30 2919 H 482.755 -6.10356 5.41441 0
M  V30 2920 P 486.717 -7.20834 5.23717 0
M  V30 2921 O 486.937 -8.66274 5.38678 0
M  V30 2922 O 487.507 -6.33687 6.13629 0
M  V30 2923 O 486.967 -6.7751 3.72168 0
M  V30 2924 C 486.027 -7.20919 2.70795 0
M  V30 2925 C 486.757 -7.45864 1.40599 0
M  V30 2926 O 486.967 -6.17751 0.734343 0
M  V30 2927 C 488.157 -8.05906 1.51917 0
M  V30 2928 O 488.547 -8.74358 0.335205 0
M  V30 2929 C 489.037 -6.83093 1.70294 0
M  V30 2930 C 488.327 -5.79992 0.836974 0
M  V30 2931 N 488.377 -4.41864 1.38293 0
M  V30 2932 H 485.539 -8.13738 3.03804 0
M  V30 2933 H 485.267 -6.42974 2.55559 0
M  V30 2934 H 486.135 -8.12139 0.792866 0
M  V30 2935 H 488.79 -5.80178 -0.160643 0
M  V30 2936 H 489.07 -6.51379 2.75643 0
M  V30 2937 H 490.061 -7.01832 1.3448 0
M  V30 2938 H 488.227 -8.73771 2.38364 0
M  V30 2939 P 490.097 -8.91 -2.91224e-12 0
M  V30 2940 O 490.317 -10.1746 -0.733838 0
M  V30 2941 O 490.887 -8.73346 1.23964 0
M  V30 2942 O 490.347 -7.66872 -0.971405 0
M  V30 2943 C 489.407 -7.42405 -2.04668 0
M  V30 2944 C 490.137 -6.86059 -3.24661 0
M  V30 2945 O 490.347 -5.42934 -3.03695 0
M  V30 2946 C 491.537 -7.41287 -3.50796 0
M  V30 2947 O 491.927 -7.27073 -4.86816 0
M  V30 2948 C 492.417 -6.5273 -2.63741 0
M  V30 2949 C 491.707 -5.1842 -2.73198 0
M  V30 2950 N 491.757 -4.38762 -1.4784 0
M  V30 2951 H 488.919 -8.36899 -2.3252 0
M  V30 2952 H 488.647 -6.70391 -1.71179 0
M  V30 2953 H 489.515 -7.03638 -4.13219 0
M  V30 2954 H 492.17 -4.59931 -3.54016 0
M  V30 2955 H 492.45 -6.88995 -1.59871 0
M  V30 2956 H 493.441 -6.4684 -3.0373 0
M  V30 2957 H 491.607 -8.47002 -3.20749 0
M  V30 2958 P 493.477 -7.20834 -5.23717 0
M  V30 2959 O 493.697 -7.79853 -6.57286 0
M  V30 2960 O 494.267 -7.79239 -4.12957 0
M  V30 2961 O 493.727 -5.63315 -5.29344 0
M  V30 2962 C 492.787 -4.80255 -6.01876 0
M  V30 2963 C 493.517 -3.64202 -6.65911 0
M  V30 2964 O 493.727 -2.60694 -5.64732 0
M  V30 2965 C 494.917 -3.93473 -7.1943 0
M  V30 2966 O 495.307 -3.02071 -8.21205 0
M  V30 2967 C 495.797 -3.73047 -5.97036 0
M  V30 2968 C 495.087 -2.58828 -5.25741 0
M  V30 2969 N 495.137 -2.68068 -3.77503 0
M  V30 2970 C 495.057 -3.79715 -2.96723 0
M  V30 2971 N 495.137 -3.5377 -1.68852 0
M  V30 2972 C 495.277 -2.15054 -1.63254 0
M  V30 2973 C 495.407 -1.28964 -0.518571 0
M  V30 2974 O 495.427 -1.56826 0.679156 0
M  V30 2975 N 495.527 0.0538097 -0.918425 0
M  V30 2976 C 495.527 0.494275 -2.22578 0
M  V30 2977 N 495.657 1.81086 -2.40434 0
M  V30 2978 N 495.397 -0.313645 -3.27502 0
M  V30 2979 C 495.277 -1.61829 -2.91033 0
M  V30 2980 H 492.298 -5.40332 -6.79951 0
M  V30 2981 H 492.028 -4.41613 -5.32378 0
M  V30 2982 H 492.895 -3.26331 -7.47797 0
M  V30 2983 H 495.55 -1.63422 -5.56814 0
M  V30 2984 H 495.829 -4.63374 -5.34244 0
M  V30 2985 H 496.821 -3.44728 -6.25838 0
M  V30 2986 H 494.987 -4.96652 -7.57263 0
M  V30 2987 H 494.938 -4.80617 -3.3614 0
M  V30 2988 H 495.62 0.742702 -0.199384 0
M  V30 2989 H 495.657 2.20598 -3.35588 0
M  V30 2990 H 495.758 2.43518 -1.58945 0
M  V30 2991 P 496.857 -2.75334 -8.47391 0
M  V30 2992 O 497.077 -2.44571 -9.90142 0
M  V30 2993 O 497.647 -3.87688 -7.92115 0
M  V30 2994 O 497.107 -1.4459 -7.59357 0
M  V30 2995 C 496.167 -0.347608 -7.69215 0
M  V30 2996 C 496.897 0.96767 -7.52806 0
M  V30 2997 O 497.107 1.21036 -6.1011 0
M  V30 2998 C 498.297 1.04544 -8.13308 0
M  V30 2999 O 498.687 2.38311 -8.41922 0
M  V30 3000 C 499.177 0.491279 -7.02284 0
M  V30 3001 C 498.467 0.996264 -5.77469 0
M  V30 3002 N 498.517 0.0501916 -4.62973 0
M  V30 3003 H 495.678 -0.374722 -8.67691 0
M  V30 3004 H 495.408 -0.443485 -6.90277 0
M  V30 3005 H 496.275 1.75537 -7.96793 0
M  V30 3006 P 500.237 2.75334 -8.47391 0
M  V30 3007 O 500.457 3.84128 -9.44797 0
M  V30 3008 O 501.027 1.51947 -8.68712 0
M  V30 3009 O 500.487 3.29363 -6.99321 0
M  V30 3010 C 499.547 4.24011 -6.4274 0
M  V30 3011 C 500.277 5.20775 -5.52155 0
M  V30 3012 O 500.487 4.56534 -4.22446 0
M  V30 3013 C 501.677 5.62629 -5.96531 0
M  V30 3014 O 502.067 6.87667 -5.41053 0
M  V30 3015 C 502.557 4.52537 -5.39283 0
M  V30 3016 C 501.847 4.20027 -4.08623 0
M  V30 3017 N 501.897 2.76189 -3.71603 0
M  V30 3018 H 499.058 4.797 -7.24003 0
M  V30 3019 H 498.788 3.69856 -5.84513 0
M  V30 3020 H 499.655 6.10356 -5.41441 0
M  V30 3021 P 503.617 7.20834 -5.23717 0
M  V30 3022 O 503.837 8.66104 -5.38572 0
M  V30 3023 O 504.407 6.33544 -6.1349 0
M  V30 3024 O 503.867 6.7751 -3.72168 0
M  V30 3025 C 502.927 7.20825 -2.7076 0
M  V30 3026 C 503.657 7.45864 -1.40599 0
M  V30 3027 O 503.867 6.17651 -0.734225 0
M  V30 3028 C 505.057 8.05808 -1.51899 0
M  V30 3029 O 505.447 8.74358 -0.335205 0
M  V30 3030 C 505.937 6.83093 -1.70294 0
M  V30 3031 C 505.227 5.79992 -0.836974 0
M  V30 3032 N 505.277 4.41864 -1.38293 0
M  V30 3033 H 502.438 8.13644 -3.0377 0
M  V30 3034 H 502.168 6.42788 -2.55485 0
M  V30 3035 H 503.035 8.12039 -0.792769 0
M  V30 3036 P 506.997 8.91 3.06942e-12 0
M  V30 3037 O 507.217 10.1726 0.733694 0
M  V30 3038 O 507.787 8.73148 -1.23936 0
M  V30 3039 O 507.247 7.66872 0.971405 0
M  V30 3040 C 506.307 7.42309 2.04641 0
M  V30 3041 C 507.037 6.86059 3.24661 0
M  V30 3042 O 507.247 5.42847 3.03646 0
M  V30 3043 C 508.437 7.41196 3.50753 0
M  V30 3044 O 508.827 7.27073 4.86816 0
M  V30 3045 C 509.317 6.5273 2.63741 0
M  V30 3046 C 508.607 5.1842 2.73198 0
M  V30 3047 N 508.657 4.38762 1.4784 0
M  V30 3048 H 505.818 8.36803 2.32493 0
M  V30 3049 H 505.548 6.70197 1.71129 0
M  V30 3050 H 506.415 7.03551 4.13168 0
M  V30 3051 P 510.377 7.20834 5.23717 0
M  V30 3052 O 510.597 7.79853 6.57286 0
M  V30 3053 O 511.167 7.79239 4.12957 0
M  V30 3054 O 510.627 5.63315 5.29344 0
M  V30 3055 C 509.687 4.80255 6.01876 0
M  V30 3056 C 510.417 3.64202 6.65911 0
M  V30 3057 O 510.627 2.60694 5.64732 0
M  V30 3058 C 511.817 3.93473 7.1943 0
M  V30 3059 O 512.207 3.02071 8.21205 0
M  V30 3060 C 512.697 3.73047 5.97036 0
M  V30 3061 C 511.987 2.58828 5.25741 0
M  V30 3062 N 512.037 2.68068 3.77503 0
M  V30 3063 H 509.198 5.40332 6.79951 0
M  V30 3064 H 508.928 4.41613 5.32378 0
M  V30 3065 H 509.795 3.26331 7.47797 0
M  V30 3066 P 513.757 2.75334 8.47391 0
M  V30 3067 O 513.977 2.44619 9.90336 0
M  V30 3068 O 514.547 3.87776 7.92294 0
M  V30 3069 O 514.007 1.4459 7.59357 0
M  V30 3070 C 513.067 0.347653 7.69315 0
M  V30 3071 C 513.797 -0.96767 7.52806 0
M  V30 3072 O 514.007 -1.21055 6.10208 0
M  V30 3073 C 515.197 -1.04557 8.13408 0
M  V30 3074 O 515.587 -2.38311 8.41922 0
M  V30 3075 C 516.077 -0.491279 7.02284 0
M  V30 3076 C 515.367 -0.996264 5.77469 0
M  V30 3077 N 515.417 -0.0501916 4.62973 0
M  V30 3078 H 512.579 0.374765 8.67791 0
M  V30 3079 H 512.307 0.443613 6.90476 0
M  V30 3080 H 513.175 -1.75559 7.96891 0
M  V30 3081 H 515.83 -1.94563 5.46818 0
M  V30 3082 H 516.11 0.608651 7.04676 0
M  V30 3083 H 517.101 -0.889796 7.09039 0
M  V30 3084 H 515.267 -0.433128 9.04664 0
M  V30 3085 P 517.137 -2.75334 8.47391 0
M  V30 3086 O 517.357 -3.84128 9.44797 0
M  V30 3087 O 517.927 -1.51947 8.68712 0
M  V30 3088 O 517.387 -3.29363 6.99321 0
M  V30 3089 C 516.447 -4.24011 6.4274 0
M  V30 3090 C 517.177 -5.20775 5.52155 0
M  V30 3091 O 517.387 -4.56534 4.22446 0
M  V30 3092 C 518.577 -5.62629 5.96531 0
M  V30 3093 O 518.967 -6.87667 5.41053 0
M  V30 3094 C 519.457 -4.52537 5.39283 0
M  V30 3095 C 518.747 -4.20027 4.08623 0
M  V30 3096 N 518.797 -2.76189 3.71603 0
M  V30 3097 H 515.958 -4.797 7.24003 0
M  V30 3098 H 515.688 -3.69856 5.84513 0
M  V30 3099 H 516.555 -6.10356 5.41441 0
M  V30 3100 P 520.517 -7.20834 5.23717 0
M  V30 3101 O 520.737 -8.66274 5.38678 0
M  V30 3102 O 521.307 -6.33687 6.13629 0
M  V30 3103 O 520.767 -6.7751 3.72168 0
M  V30 3104 C 519.827 -7.20919 2.70795 0
M  V30 3105 C 520.557 -7.45864 1.40599 0
M  V30 3106 O 520.767 -6.17751 0.734343 0
M  V30 3107 C 521.957 -8.05906 1.51917 0
M  V30 3108 O 522.347 -8.74358 0.335205 0
M  V30 3109 C 522.837 -6.83093 1.70294 0
M  V30 3110 C 522.127 -5.79992 0.836974 0
M  V30 3111 N 522.177 -4.41864 1.38293 0
M  V30 3112 H 519.339 -8.13738 3.03804 0
M  V30 3113 H 519.067 -6.42974 2.55559 0
M  V30 3114 H 519.935 -8.12139 0.792866 0
M  V30 3115 H 522.59 -5.80178 -0.160643 0
M  V30 3116 H 522.87 -6.51379 2.75643 0
M  V30 3117 H 523.861 -7.01832 1.3448 0
M  V30 3118 H 522.027 -8.73771 2.38364 0
M  V30 3119 P 523.897 -8.91 -3.22661e-12 0
M  V30 3120 O 524.117 -10.1726 -0.733694 0
M  V30 3121 O 524.687 -8.73148 1.23936 0
M  V30 3122 O 524.147 -7.66872 -0.971405 0
M  V30 3123 C 523.207 -7.42309 -2.04641 0
M  V30 3124 C 523.937 -6.86059 -3.24661 0
M  V30 3125 O 524.147 -5.42847 -3.03646 0
M  V30 3126 C 525.337 -7.41196 -3.50753 0
M  V30 3127 O 525.727 -7.27073 -4.86816 0
M  V30 3128 C 526.217 -6.5273 -2.63741 0
M  V30 3129 C 525.507 -5.1842 -2.73198 0
M  V30 3130 N 525.557 -4.38762 -1.4784 0
M  V30 3131 H 522.718 -8.36803 -2.32493 0
M  V30 3132 H 522.448 -6.70197 -1.71129 0
M  V30 3133 H 523.315 -7.03551 -4.13168 0
M  V30 3134 P 527.277 -7.20834 -5.23717 0
M  V30 3135 O 527.497 -7.80006 -6.57415 0
M  V30 3136 O 528.067 -7.79416 -4.13051 0
M  V30 3137 O 527.527 -5.63315 -5.29344 0
M  V30 3138 C 526.587 -4.80318 -6.01954 0
M  V30 3139 C 527.317 -3.64202 -6.65911 0
M  V30 3140 O 527.527 -2.60736 -5.64823 0
M  V30 3141 C 528.717 -3.93521 -7.19518 0
M  V30 3142 O 529.107 -3.02071 -8.21205 0
M  V30 3143 C 529.597 -3.73047 -5.97036 0
M  V30 3144 C 528.887 -2.58828 -5.25741 0
M  V30 3145 N 528.937 -2.68068 -3.77503 0
M  V30 3146 C 528.857 -3.80474 -2.99159 0
M  V30 3147 N 528.927 -3.55622 -1.71925 0
M  V30 3148 C 529.077 -2.1832 -1.65733 0
M  V30 3149 C 529.207 -1.28842 -0.572777 0
M  V30 3150 N 529.217 -1.66875 0.70098 0
M  V30 3151 N 529.327 0.016788 -0.859836 0
M  V30 3152 C 529.317 0.398145 -2.13316 0
M  V30 3153 N 529.197 -0.328224 -3.22333 0
M  V30 3154 C 529.077 -1.62992 -2.90383 0
M  V30 3155 H 526.099 -5.40394 -6.8003 0
M  V30 3156 H 525.827 -4.41741 -5.32532 0
M  V30 3157 H 526.695 -3.26371 -7.47889 0
M  V30 3158 H 529.35 -1.64007 -5.56746 0
M  V30 3159 H 529.63 -4.63439 -5.3432 0
M  V30 3160 H 530.621 -3.44776 -6.25925 0
M  V30 3161 H 528.787 -4.96707 -7.57347 0
M  V30 3162 H 528.746 -4.8089 -3.39924 0
M  V30 3163 H 529.127 -2.66547 0.941919 0
M  V30 3164 H 529.316 -0.965341 1.44766 0
M  V30 3165 H 529.424 1.46427 -2.29697 0
M  V30 3166 P 530.657 -2.75334 -8.47391 0
M  V30 3167 O 530.877 -2.44595 -9.90239 0
M  V30 3168 O 531.447 -3.87732 -7.92204 0
M  V30 3169 O 530.907 -1.4459 -7.59357 0
M  V30 3170 C 529.967 -0.347563 -7.69115 0
M  V30 3171 C 530.697 0.96767 -7.52806 0
M  V30 3172 O 530.907 1.21036 -6.1011 0
M  V30 3173 C 532.097 1.04544 -8.13308 0
M  V30 3174 O 532.487 2.38311 -8.41922 0
M  V30 3175 C 532.977 0.491279 -7.02284 0
M  V30 3176 C 532.267 0.996264 -5.77469 0
M  V30 3177 N 532.317 0.0501808 -4.62873 0
M  V30 3178 C 532.467 0.588177 -3.36904 0
M  V30 3179 O 532.557 1.78598 -3.17173 0
M  V30 3180 N 532.507 -0.329694 -2.33686 0
M  V30 3181 C 532.417 -1.6953 -2.45079 0
M  V30 3182 C 532.267 -2.16933 -3.80505 0
M  V30 3183 C 532.217 -1.30326 -4.83752 0
M  V30 3184 H 529.477 -0.374722 -8.67691 0
M  V30 3185 H 529.208 -0.443421 -6.90177 0
M  V30 3186 H 530.075 1.75537 -7.96793 0
M  V30 3187 H 532.73 1.94496 -5.46629 0
M  V30 3188 H 533.009 -0.608651 -7.04676 0
M  V30 3189 H 534.001 0.889672 -7.08939 0
M  V30 3190 H 532.167 0.43308 -9.04564 0
M  V30 3191 H 532.096 -1.68366 -5.8516 0
M  V30 3192 P 534.037 2.75334 -8.47391 0
M  V30 3193 O 534.257 3.84128 -9.44797 0
M  V30 3194 O 534.827 1.51947 -8.68712 0
M  V30 3195 O 534.287 3.29363 -6.99321 0
M  V30 3196 C 533.347 4.24011 -6.4274 0
M  V30 3197 C 534.077 5.20775 -5.52155 0
M  V30 3198 O 534.287 4.56534 -4.22446 0
M  V30 3199 C 535.477 5.62629 -5.96531 0
M  V30 3200 O 535.867 6.87667 -5.41053 0
M  V30 3201 C 536.357 4.52537 -5.39283 0
M  V30 3202 C 535.647 4.20027 -4.08623 0
M  V30 3203 N 535.697 2.76189 -3.71603 0
M  V30 3204 H 532.858 4.797 -7.24003 0
M  V30 3205 H 532.588 3.69856 -5.84513 0
M  V30 3206 H 533.455 6.10356 -5.41441 0
M  V30 3207 P 537.417 7.20834 -5.23717 0
M  V30 3208 O 537.637 8.66104 -5.38572 0
M  V30 3209 O 538.207 6.33544 -6.1349 0
M  V30 3210 O 537.667 6.7751 -3.72168 0
M  V30 3211 C 536.727 7.20825 -2.7076 0
M  V30 3212 C 537.457 7.45864 -1.40599 0
M  V30 3213 O 537.667 6.17651 -0.734225 0
M  V30 3214 C 538.857 8.05808 -1.51899 0
M  V30 3215 O 539.247 8.74358 -0.335205 0
M  V30 3216 C 539.737 6.83093 -1.70294 0
M  V30 3217 C 539.027 5.79992 -0.836974 0
M  V30 3218 N 539.077 4.41864 -1.38293 0
M  V30 3219 H 536.238 8.13644 -3.0377 0
M  V30 3220 H 535.968 6.42788 -2.55485 0
M  V30 3221 H 536.835 8.12039 -0.792769 0
M  V30 3222 P 540.797 8.91 3.38379e-12 0
M  V30 3223 O 541.017 10.1726 0.733694 0
M  V30 3224 O 541.587 8.73148 -1.23936 0
M  V30 3225 O 541.047 7.66872 0.971405 0
M  V30 3226 C 540.107 7.42309 2.04641 0
M  V30 3227 C 540.837 6.86059 3.24661 0
M  V30 3228 O 541.047 5.42847 3.03646 0
M  V30 3229 C 542.237 7.41196 3.50753 0
M  V30 3230 O 542.627 7.27073 4.86816 0
M  V30 3231 C 543.117 6.5273 2.63741 0
M  V30 3232 C 542.407 5.1842 2.73198 0
M  V30 3233 N 542.457 4.38762 1.4784 0
M  V30 3234 C 542.377 4.81605 0.168631 0
M  V30 3235 N 542.457 3.85454 -0.713363 0
M  V30 3236 C 542.597 2.6994 0.0566958 0
M  V30 3237 C 542.727 1.34815 -0.338502 0
M  V30 3238 N 542.847 0.496304 0.77465 0
M  V30 3239 C 542.847 0.908403 2.09122 0
M  V30 3240 N 542.977 -0.0517805 3.00955 0
M  V30 3241 N 542.717 2.17875 2.46519 0
M  V30 3242 C 542.597 3.01988 1.4033 0
M  V30 3243 H 539.618 8.36803 2.32493 0
M  V30 3244 H 539.348 6.70197 1.71129 0
M  V30 3245 H 540.215 7.03551 4.13168 0
M  V30 3246 P 544.177 7.20834 5.23717 0
M  V30 3247 O 544.397 7.79853 6.57286 0
M  V30 3248 O 544.967 7.79239 4.12957 0
M  V30 3249 O 544.427 5.63315 5.29344 0
M  V30 3250 C 543.487 4.80255 6.01876 0
M  V30 3251 C 544.217 3.64202 6.65911 0
M  V30 3252 O 544.427 2.60694 5.64732 0
M  V30 3253 C 545.617 3.93473 7.1943 0
M  V30 3254 O 546.007 3.02071 8.21205 0
M  V30 3255 C 546.497 3.73047 5.97036 0
M  V30 3256 C 545.787 2.58828 5.25741 0
M  V30 3257 N 545.837 2.68068 3.77503 0
M  V30 3258 H 542.998 5.40332 6.79951 0
M  V30 3259 H 542.728 4.41613 5.32378 0
M  V30 3260 H 543.595 3.26331 7.47797 0
M  V30 3261 P 547.557 2.75334 8.47391 0
M  V30 3262 O 547.777 2.44571 9.90142 0
M  V30 3263 O 548.347 3.87688 7.92115 0
M  V30 3264 O 547.807 1.4459 7.59357 0
M  V30 3265 C 546.867 0.347608 7.69215 0
M  V30 3266 C 547.597 -0.96767 7.52806 0
M  V30 3267 O 547.807 -1.21036 6.1011 0
M  V30 3268 C 548.997 -1.04544 8.13308 0
M  V30 3269 O 549.387 -2.38311 8.41922 0
M  V30 3270 C 549.877 -0.491279 7.02284 0
M  V30 3271 C 549.167 -0.996264 5.77469 0
M  V30 3272 N 549.217 -0.0501916 4.62973 0
M  V30 3273 H 546.378 0.374722 8.67691 0
M  V30 3274 H 546.108 0.443485 6.90277 0
M  V30 3275 H 546.975 -1.75537 7.96793 0
M  V30 3276 P 550.937 -2.75334 8.47391 0
M  V30 3277 O 551.157 -3.84128 9.44797 0
M  V30 3278 O 551.727 -1.51947 8.68712 0
M  V30 3279 O 551.187 -3.29363 6.99321 0
M  V30 3280 C 550.247 -4.24011 6.4274 0
M  V30 3281 C 550.977 -5.20775 5.52155 0
M  V30 3282 O 551.187 -4.56534 4.22446 0
M  V30 3283 C 552.377 -5.62629 5.96531 0
M  V30 3284 O 552.767 -6.87667 5.41053 0
M  V30 3285 C 553.257 -4.52537 5.39283 0
M  V30 3286 C 552.547 -4.20027 4.08623 0
M  V30 3287 N 552.597 -2.76189 3.71603 0
M  V30 3288 H 549.758 -4.797 7.24003 0
M  V30 3289 H 549.488 -3.69856 5.84513 0
M  V30 3290 H 550.355 -6.10356 5.41441 0
M  V30 3291 P 554.317 -7.20834 5.23717 0
M  V30 3292 O 554.537 -8.66104 5.38572 0
M  V30 3293 O 555.107 -6.33544 6.1349 0
M  V30 3294 O 554.567 -6.7751 3.72168 0
M  V30 3295 C 553.627 -7.20825 2.7076 0
M  V30 3296 C 554.357 -7.45864 1.40599 0
M  V30 3297 O 554.567 -6.17651 0.734225 0
M  V30 3298 C 555.757 -8.05808 1.51899 0
M  V30 3299 O 556.147 -8.74358 0.335205 0
M  V30 3300 C 556.637 -6.83093 1.70294 0
M  V30 3301 C 555.927 -5.79992 0.836974 0
M  V30 3302 N 555.977 -4.41864 1.38293 0
M  V30 3303 C 555.897 -3.99538 2.69438 0
M  V30 3304 N 555.977 -2.69909 2.84277 0
M  V30 3305 C 556.117 -2.21719 1.5408 0
M  V30 3306 C 556.247 -0.891712 1.06628 0
M  V30 3307 N 556.367 -0.856846 -0.334985 0
M  V30 3308 C 556.367 -1.9641 -1.15789 0
M  V30 3309 N 556.497 -1.72708 -2.46522 0
M  V30 3310 N 556.237 -3.21165 -0.713741 0
M  V30 3311 C 556.117 -3.26797 0.639748 0
M  V30 3312 H 553.138 -8.13644 3.0377 0
M  V30 3313 H 552.868 -6.42788 2.55485 0
M  V30 3314 H 553.735 -8.12039 0.792769 0
M  V30 3315 P 557.697 -8.91 -3.54097e-12 0
M  V30 3316 O 557.917 -10.1746 -0.733838 0
M  V30 3317 O 558.487 -8.73346 1.23964 0
M  V30 3318 O 557.947 -7.66872 -0.971405 0
M  V30 3319 C 557.007 -7.42405 -2.04668 0
M  V30 3320 C 557.737 -6.86059 -3.24661 0
M  V30 3321 O 557.947 -5.42934 -3.03695 0
M  V30 3322 C 559.137 -7.41287 -3.50796 0
M  V30 3323 O 559.527 -7.27073 -4.86816 0
M  V30 3324 C 560.017 -6.5273 -2.63741 0
M  V30 3325 C 559.307 -5.1842 -2.73198 0
M  V30 3326 N 559.357 -4.38762 -1.4784 0
M  V30 3327 C 559.277 -4.83651 -0.183876 0
M  V30 3328 N 559.347 -3.88759 0.699393 0
M  V30 3329 C 559.497 -2.7404 -0.0575568 0
M  V30 3330 C 559.627 -1.37902 0.293928 0
M  V30 3331 N 559.637 -0.938021 1.54797 0
M  V30 3332 N 559.747 -0.491817 -0.70549 0
M  V30 3333 C 559.737 -0.931735 -1.95979 0
M  V30 3334 N 559.617 -2.16017 -2.41481 0
M  V30 3335 C 559.497 -3.02547 -1.39121 0
M  V30 3336 H 556.519 -8.36899 -2.3252 0
M  V30 3337 H 556.247 -6.70391 -1.71179 0
M  V30 3338 H 557.115 -7.03638 -4.13219 0
M  V30 3339 H 559.77 -4.59931 -3.54016 0
M  V30 3340 H 560.05 -6.88995 -1.59871 0
M  V30 3341 H 561.041 -6.4684 -3.0373 0
M  V30 3342 H 559.207 -8.47002 -3.20749 0
M  V30 3343 H 559.166 -5.8885 0.0765548 0
M  V30 3344 H 559.547 -1.60276 2.32875 0
M  V30 3345 H 559.736 0.0699355 1.73859 0
M  V30 3346 H 559.844 -0.165507 -2.71897 0
M  V30 3347 P 561.077 -7.20834 -5.23717 0
M  V30 3348 O 561.297 -7.79853 -6.57286 0
M  V30 3349 O 561.867 -7.79239 -4.12957 0
M  V30 3350 O 561.327 -5.63315 -5.29344 0
M  V30 3351 C 560.387 -4.80255 -6.01876 0
M  V30 3352 C 561.117 -3.64202 -6.65911 0
M  V30 3353 O 561.327 -2.60694 -5.64732 0
M  V30 3354 C 562.517 -3.93473 -7.1943 0
M  V30 3355 O 562.907 -3.02071 -8.21205 0
M  V30 3356 C 563.397 -3.73047 -5.97036 0
M  V30 3357 C 562.687 -2.58828 -5.25741 0
M  V30 3358 N 562.737 -2.68068 -3.77503 0
M  V30 3359 H 559.898 -5.40332 -6.79951 0
M  V30 3360 H 559.628 -4.41613 -5.32378 0
M  V30 3361 H 560.495 -3.26331 -7.47797 0
M  V30 3362 P 564.457 -2.75334 -8.47391 0
M  V30 3363 O 564.677 -2.44571 -9.90142 0
M  V30 3364 O 565.247 -3.87688 -7.92115 0
M  V30 3365 O 564.707 -1.4459 -7.59357 0
M  V30 3366 C 563.767 -0.347608 -7.69215 0
M  V30 3367 C 564.497 0.96767 -7.52806 0
M  V30 3368 O 564.707 1.21036 -6.1011 0
M  V30 3369 C 565.897 1.04544 -8.13308 0
M  V30 3370 O 566.287 2.38311 -8.41922 0
M  V30 3371 C 566.777 0.491279 -7.02284 0
M  V30 3372 C 566.067 0.996264 -5.77469 0
M  V30 3373 N 566.117 0.0501916 -4.62973 0
M  V30 3374 C 566.037 -1.32786 -4.63244 0
M  V30 3375 N 566.117 -1.86957 -3.44545 0
M  V30 3376 C 566.257 -0.780241 -2.58481 0
M  V30 3377 C 566.387 -0.738536 -1.17757 0
M  V30 3378 O 566.407 -1.66794 -0.372349 0
M  V30 3379 N 566.507 0.58337 -0.711393 0
M  V30 3380 C 566.507 1.70816 -1.51017 0
M  V30 3381 N 566.637 2.87826 -0.880757 0
M  V30 3382 N 566.377 1.67126 -2.8339 0
M  V30 3383 C 566.257 0.401421 -3.30572 0
M  V30 3384 H 563.278 -0.374722 -8.67691 0
M  V30 3385 H 563.008 -0.443485 -6.90277 0
M  V30 3386 H 563.875 1.75537 -7.96793 0
M  V30 3387 H 566.53 1.95076 -5.46529 0
M  V30 3388 H 566.809 -0.608565 -7.04577 0
M  V30 3389 H 567.801 0.889672 -7.08939 0
M  V30 3390 H 565.967 0.43308 -9.04564 0
M  V30 3391 H 565.918 -1.91249 -5.54442 0
M  V30 3392 H 566.6 0.718054 0.275244 0
M  V30 3393 H 566.637 3.75721 -1.41832 0
M  V30 3394 H 566.738 2.90436 0.145468 0
M  V30 3395 P 567.837 2.75334 -8.47391 0
M  V30 3396 O 568.057 3.84128 -9.44797 0
M  V30 3397 O 568.627 1.51947 -8.68712 0
M  V30 3398 O 568.087 3.29363 -6.99321 0
M  V30 3399 C 567.147 4.24011 -6.4274 0
M  V30 3400 C 567.877 5.20775 -5.52155 0
M  V30 3401 O 568.087 4.56534 -4.22446 0
M  V30 3402 C 569.277 5.62629 -5.96531 0
M  V30 3403 O 569.667 6.87667 -5.41053 0
M  V30 3404 C 570.157 4.52537 -5.39283 0
M  V30 3405 C 569.447 4.20027 -4.08623 0
M  V30 3406 N 569.497 2.76189 -3.71603 0
M  V30 3407 H 566.658 4.797 -7.24003 0
M  V30 3408 H 566.388 3.69856 -5.84513 0
M  V30 3409 H 567.255 6.10356 -5.41441 0
M  V30 3410 P 571.217 7.20834 -5.23717 0
M  V30 3411 O 571.437 8.66104 -5.38572 0
M  V30 3412 O 572.007 6.33544 -6.1349 0
M  V30 3413 O 571.467 6.7751 -3.72168 0
M  V30 3414 C 570.527 7.20825 -2.7076 0
M  V30 3415 C 571.257 7.45864 -1.40599 0
M  V30 3416 O 571.467 6.17651 -0.734225 0
M  V30 3417 C 572.657 8.05808 -1.51899 0
M  V30 3418 O 573.047 8.74358 -0.335205 0
M  V30 3419 C 573.537 6.83093 -1.70294 0
M  V30 3420 C 572.827 5.79992 -0.836974 0
M  V30 3421 N 572.877 4.41864 -1.38293 0
M  V30 3422 H 570.038 8.13644 -3.0377 0
M  V30 3423 H 569.768 6.42788 -2.55485 0
M  V30 3424 H 570.635 8.12039 -0.792769 0
M  V30 3425 P 574.597 8.91 3.69815e-12 0
M  V30 3426 O 574.817 10.1726 0.733694 0
M  V30 3427 O 575.387 8.73148 -1.23936 0
M  V30 3428 O 574.847 7.66872 0.971405 0
M  V30 3429 C 573.907 7.42309 2.04641 0
M  V30 3430 C 574.637 6.86059 3.24661 0
M  V30 3431 O 574.847 5.42847 3.03646 0
M  V30 3432 C 576.037 7.41196 3.50753 0
M  V30 3433 O 576.427 7.27073 4.86816 0
M  V30 3434 C 576.917 6.5273 2.63741 0
M  V30 3435 C 576.207 5.1842 2.73198 0
M  V30 3436 N 576.257 4.38762 1.4784 0
M  V30 3437 H 573.418 8.36803 2.32493 0
M  V30 3438 H 573.148 6.70197 1.71129 0
M  V30 3439 H 574.015 7.03551 4.13168 0
M  V30 3440 P 577.977 7.20834 5.23717 0
M  V30 3441 O 578.197 7.80006 6.57415 0
M  V30 3442 O 578.767 7.79416 4.13051 0
M  V30 3443 O 578.227 5.63315 5.29344 0
M  V30 3444 C 577.287 4.80318 6.01954 0
M  V30 3445 C 578.017 3.64202 6.65911 0
M  V30 3446 O 578.227 2.60736 5.64823 0
M  V30 3447 C 579.417 3.93521 7.19518 0
M  V30 3448 O 579.807 3.02071 8.21205 0
M  V30 3449 C 580.297 3.73047 5.97036 0
M  V30 3450 C 579.587 2.58828 5.25741 0
M  V30 3451 N 579.637 2.68068 3.77503 0
M  V30 3452 H 576.799 5.40394 6.8003 0
M  V30 3453 H 576.527 4.41741 5.32532 0
M  V30 3454 H 577.395 3.26371 7.47889 0
M  V30 3455 H 580.05 1.64007 5.56746 0
M  V30 3456 H 580.33 4.63439 5.3432 0
M  V30 3457 H 581.321 3.44776 6.25925 0
M  V30 3458 H 579.487 4.96707 7.57347 0
M  V30 3459 P 581.357 2.75334 8.47391 0
M  V30 3460 O 581.577 2.44571 9.90142 0
M  V30 3461 O 582.147 3.87688 7.92115 0
M  V30 3462 O 581.607 1.4459 7.59357 0
M  V30 3463 C 580.667 0.347608 7.69215 0
M  V30 3464 C 581.397 -0.96767 7.52806 0
M  V30 3465 O 581.607 -1.21036 6.1011 0
M  V30 3466 C 582.797 -1.04544 8.13308 0
M  V30 3467 O 583.187 -2.38311 8.41922 0
M  V30 3468 C 583.677 -0.491279 7.02284 0
M  V30 3469 C 582.967 -0.996264 5.77469 0
M  V30 3470 N 583.017 -0.0501916 4.62973 0
M  V30 3471 H 580.178 0.374722 8.67691 0
M  V30 3472 H 579.908 0.443485 6.90277 0
M  V30 3473 H 580.775 -1.75537 7.96793 0
M  V30 3474 P 584.737 -2.75334 8.47391 0
M  V30 3475 O 584.957 -3.84166 9.4489 0
M  V30 3476 O 585.527 -1.51964 8.6881 0
M  V30 3477 O 584.987 -3.29363 6.99321 0
M  V30 3478 C 584.047 -4.23956 6.42656 0
M  V30 3479 C 584.777 -5.20775 5.52155 0
M  V30 3480 O 584.987 -4.56534 4.22446 0
M  V30 3481 C 586.177 -5.62629 5.96531 0
M  V30 3482 O 586.567 -6.87667 5.41053 0
M  V30 3483 C 587.057 -4.52537 5.39283 0
M  V30 3484 C 586.347 -4.20027 4.08623 0
M  V30 3485 N 586.397 -2.7613 3.71522 0
M  V30 3486 C 586.547 -2.45612 2.37989 0
M  V30 3487 O 586.637 -3.30919 1.51621 0
M  V30 3488 N 586.587 -1.10684 2.08435 0
M  V30 3489 C 586.497 -0.0690084 2.9792 0
M  V30 3490 O 586.547 1.10553 2.59426 0
M  V30 3491 C 586.347 -0.481522 4.35345 0
M  V30 3492 C 586.237 0.618778 5.36443 0
M  V30 3493 C 586.297 -1.78906 4.67968 0
M  V30 3494 H 583.557 -4.797 7.24003 0
M  V30 3495 H 583.288 -3.69802 5.84429 0
M  V30 3496 H 584.155 -6.10356 5.41441 0
M  V30 3497 H 586.81 -4.78651 3.27911 0
M  V30 3498 H 587.089 -3.64957 6.05871 0
M  V30 3499 H 588.081 -4.8868 5.2125 0
M  V30 3500 H 586.247 -5.66726 7.06352 0
M  V30 3501 H 586.176 -2.07737 5.72367 0
M  V30 3502 H 587.206 0.754375 5.86871 0
M  V30 3503 H 585.469 0.359721 6.10641 0
M  V30 3504 H 585.957 1.55533 4.8581 0
M  V30 3505 H 586.693 -0.862651 1.12037 0
M  V30 3506 P 588.117 -7.20834 5.23717 0
M  V30 3507 O 588.337 -8.66274 5.38678 0
M  V30 3508 O 588.907 -6.33687 6.13629 0
M  V30 3509 O 588.367 -6.7751 3.72168 0
M  V30 3510 C 587.427 -7.20919 2.70795 0
M  V30 3511 C 588.157 -7.45864 1.40599 0
M  V30 3512 O 588.367 -6.17751 0.734343 0
M  V30 3513 C 589.557 -8.05906 1.51917 0
M  V30 3514 O 589.947 -8.74358 0.335205 0
M  V30 3515 C 590.437 -6.83093 1.70294 0
M  V30 3516 C 589.727 -5.79992 0.836974 0
M  V30 3517 N 589.777 -4.41864 1.38293 0
M  V30 3518 H 586.939 -8.13738 3.03804 0
M  V30 3519 H 586.667 -6.42974 2.55559 0
M  V30 3520 H 587.535 -8.12139 0.792866 0
M  V30 3521 H 590.19 -5.80178 -0.160643 0
M  V30 3522 H 590.47 -6.51379 2.75643 0
M  V30 3523 H 591.461 -7.01832 1.3448 0
M  V30 3524 H 589.627 -8.73771 2.38364 0
M  V30 3525 P 591.496 -8.91 -3.85533e-12 0
M  V30 3526 O 591.716 -10.1726 -0.733694 0
M  V30 3527 O 592.286 -8.73148 1.23936 0
M  V30 3528 O 591.746 -7.66872 -0.971405 0
M  V30 3529 C 590.806 -7.42309 -2.04641 0
M  V30 3530 C 591.536 -6.86059 -3.24661 0
M  V30 3531 O 591.746 -5.42847 -3.03646 0
M  V30 3532 C 592.937 -7.41196 -3.50753 0
M  V30 3533 O 593.327 -7.27073 -4.86816 0
M  V30 3534 C 593.817 -6.5273 -2.63741 0
M  V30 3535 C 593.106 -5.1842 -2.73198 0
M  V30 3536 N 593.156 -4.38762 -1.4784 0
M  V30 3537 H 590.317 -8.36803 -2.32493 0
M  V30 3538 H 590.048 -6.70197 -1.71129 0
M  V30 3539 H 590.914 -7.03551 -4.13168 0
M  V30 3540 P 594.876 -7.20834 -5.23717 0
M  V30 3541 O 595.096 -7.79853 -6.57286 0
M  V30 3542 O 595.666 -7.79239 -4.12957 0
M  V30 3543 O 595.126 -5.63315 -5.29344 0
M  V30 3544 C 594.186 -4.80255 -6.01876 0
M  V30 3545 C 594.916 -3.64202 -6.65911 0
M  V30 3546 O 595.126 -2.60694 -5.64732 0
M  V30 3547 C 596.316 -3.93473 -7.1943 0
M  V30 3548 O 596.706 -3.02071 -8.21205 0
M  V30 3549 C 597.196 -3.73047 -5.97036 0
M  V30 3550 C 596.486 -2.58828 -5.25741 0
M  V30 3551 N 596.536 -2.68068 -3.77503 0
M  V30 3552 H 593.697 -5.40332 -6.79951 0
M  V30 3553 H 593.427 -4.41613 -5.32378 0
M  V30 3554 H 594.294 -3.26331 -7.47797 0
M  V30 3555 P 598.256 -2.75334 -8.47391 0
M  V30 3556 O 598.476 -2.44571 -9.90142 0
M  V30 3557 O 599.046 -3.87688 -7.92115 0
M  V30 3558 O 598.506 -1.4459 -7.59357 0
M  V30 3559 C 597.566 -0.347608 -7.69215 0
M  V30 3560 C 598.296 0.96767 -7.52806 0
M  V30 3561 O 598.506 1.21036 -6.1011 0
M  V30 3562 C 599.696 1.04544 -8.13308 0
M  V30 3563 O 600.086 2.38311 -8.41922 0
M  V30 3564 C 600.576 0.491279 -7.02284 0
M  V30 3565 C 599.866 0.996264 -5.77469 0
M  V30 3566 N 599.916 0.0501916 -4.62973 0
M  V30 3567 H 597.077 -0.374722 -8.67691 0
M  V30 3568 H 596.807 -0.443485 -6.90277 0
M  V30 3569 H 597.674 1.75537 -7.96793 0
M  V30 3570 P 601.636 2.75334 -8.47391 0
M  V30 3571 O 601.856 3.84128 -9.44797 0
M  V30 3572 O 602.426 1.51947 -8.68712 0
M  V30 3573 O 601.886 3.29363 -6.99321 0
M  V30 3574 C 600.946 4.24011 -6.4274 0
M  V30 3575 C 601.676 5.20775 -5.52155 0
M  V30 3576 O 601.886 4.56534 -4.22446 0
M  V30 3577 C 603.076 5.62629 -5.96531 0
M  V30 3578 O 603.466 6.87667 -5.41053 0
M  V30 3579 C 603.956 4.52537 -5.39283 0
M  V30 3580 C 603.246 4.20027 -4.08623 0
M  V30 3581 N 603.296 2.76189 -3.71603 0
M  V30 3582 H 600.457 4.797 -7.24003 0
M  V30 3583 H 600.187 3.69856 -5.84513 0
M  V30 3584 H 601.054 6.10356 -5.41441 0
M  V30 3585 P 605.016 7.20834 -5.23717 0
M  V30 3586 O 605.236 8.66104 -5.38572 0
M  V30 3587 O 605.806 6.33544 -6.1349 0
M  V30 3588 O 605.266 6.7751 -3.72168 0
M  V30 3589 C 604.326 7.20825 -2.7076 0
M  V30 3590 C 605.056 7.45864 -1.40599 0
M  V30 3591 O 605.266 6.17651 -0.734225 0
M  V30 3592 C 606.456 8.05808 -1.51899 0
M  V30 3593 O 606.846 8.74358 -0.335205 0
M  V30 3594 C 607.336 6.83093 -1.70294 0
M  V30 3595 C 606.626 5.79992 -0.836974 0
M  V30 3596 N 606.676 4.41864 -1.38293 0
M  V30 3597 H 603.837 8.13644 -3.0377 0
M  V30 3598 H 603.567 6.42788 -2.55485 0
M  V30 3599 H 604.434 8.12039 -0.792769 0
M  V30 3600 P 608.396 8.91 4.01252e-12 0
M  V30 3601 O 608.616 10.1726 0.733694 0
M  V30 3602 O 609.186 8.73148 -1.23936 0
M  V30 3603 O 608.646 7.66872 0.971405 0
M  V30 3604 C 607.706 7.42309 2.04641 0
M  V30 3605 C 608.436 6.86059 3.24661 0
M  V30 3606 O 608.646 5.42847 3.03646 0
M  V30 3607 C 609.836 7.41196 3.50753 0
M  V30 3608 O 610.226 7.27073 4.86816 0
M  V30 3609 C 610.716 6.5273 2.63741 0
M  V30 3610 C 610.006 5.1842 2.73198 0
M  V30 3611 N 610.056 4.38762 1.4784 0
M  V30 3612 H 607.217 8.36803 2.32493 0
M  V30 3613 H 606.947 6.70197 1.71129 0
M  V30 3614 H 607.814 7.03551 4.13168 0
M  V30 3615 P 611.776 7.20834 5.23717 0
M  V30 3616 O 611.996 7.79853 6.57286 0
M  V30 3617 O 612.566 7.79239 4.12957 0
M  V30 3618 O 612.026 5.63315 5.29344 0
M  V30 3619 C 611.086 4.80255 6.01876 0
M  V30 3620 C 611.816 3.64202 6.65911 0
M  V30 3621 O 612.026 2.60694 5.64732 0
M  V30 3622 C 613.216 3.93473 7.1943 0
M  V30 3623 O 613.606 3.02071 8.21205 0
M  V30 3624 C 614.096 3.73047 5.97036 0
M  V30 3625 C 613.386 2.58828 5.25741 0
M  V30 3626 N 613.436 2.68068 3.77503 0
M  V30 3627 H 610.597 5.40332 6.79951 0
M  V30 3628 H 610.327 4.41613 5.32378 0
M  V30 3629 H 611.194 3.26331 7.47797 0
M  V30 3630 P 615.156 2.75334 8.47391 0
M  V30 3631 O 615.376 2.44571 9.90142 0
M  V30 3632 O 615.946 3.87688 7.92115 0
M  V30 3633 O 615.406 1.4459 7.59357 0
M  V30 3634 C 614.466 0.347608 7.69215 0
M  V30 3635 C 615.196 -0.96767 7.52806 0
M  V30 3636 O 615.406 -1.21036 6.1011 0
M  V30 3637 C 616.596 -1.04544 8.13308 0
M  V30 3638 O 616.986 -2.38311 8.41922 0
M  V30 3639 C 617.476 -0.491279 7.02284 0
M  V30 3640 C 616.766 -0.996264 5.77469 0
M  V30 3641 N 616.816 -0.0501916 4.62973 0
M  V30 3642 C 616.736 1.32786 4.63244 0
M  V30 3643 N 616.816 1.86957 3.44545 0
M  V30 3644 C 616.956 0.780241 2.58481 0
M  V30 3645 C 617.086 0.738536 1.17757 0
M  V30 3646 N 617.206 -0.58337 0.711393 0
M  V30 3647 C 617.206 -1.70816 1.51017 0
M  V30 3648 N 617.336 -2.87826 0.880757 0
M  V30 3649 N 617.076 -1.67126 2.8339 0
M  V30 3650 C 616.956 -0.401421 3.30572 0
M  V30 3651 H 613.977 0.374722 8.67691 0
M  V30 3652 H 613.707 0.443485 6.90277 0
M  V30 3653 H 614.574 -1.75537 7.96793 0
M  V30 3654 P 618.536 -2.75334 8.47391 0
M  V30 3655 O 618.756 -3.84204 9.44982 0
M  V30 3656 O 619.326 -1.51982 8.68909 0
M  V30 3657 O 618.786 -3.29363 6.99321 0
M  V30 3658 C 617.846 -4.24066 6.42823 0
M  V30 3659 C 618.576 -5.20775 5.52155 0
M  V30 3660 O 618.786 -4.56607 4.22514 0
M  V30 3661 C 619.976 -5.62697 5.96604 0
M  V30 3662 O 620.366 -6.87667 5.41053 0
M  V30 3663 C 620.856 -4.52537 5.39283 0
M  V30 3664 C 620.146 -4.20027 4.08623 0
M  V30 3665 N 620.196 -2.76189 3.71603 0
M  V30 3666 C 620.116 -1.66944 4.54297 0
M  V30 3667 N 620.186 -0.536169 3.91344 0
M  V30 3668 C 620.336 -0.901569 2.58849 0
M  V30 3669 C 620.466 -0.146599 1.40236 0
M  V30 3670 N 620.476 1.18234 1.37046 0
M  V30 3671 N 620.586 -0.822941 0.249738 0
M  V30 3672 C 620.576 -2.15179 0.280525 0
M  V30 3673 N 620.456 -2.96414 1.30822 0
M  V30 3674 C 620.336 -2.25804 2.44748 0
M  V30 3675 H 617.358 -4.79756 7.24086 0
M  V30 3676 H 617.086 -3.69963 5.84682 0
M  V30 3677 H 617.954 -6.10431 5.41508 0
M  V30 3678 H 620.609 -4.78816 3.28024 0
M  V30 3679 H 620.889 -3.64957 6.05871 0
M  V30 3680 H 621.88 -4.88748 5.21323 0
M  V30 3681 H 620.046 -5.66789 7.0643 0
M  V30 3682 H 620.005 -1.74684 5.62396 0
M  V30 3683 H 620.386 1.71949 2.24394 0
M  V30 3684 H 620.575 1.67511 0.470742 0
M  V30 3685 H 620.683 -2.63704 -0.6828 0
M  V30 3686 P 621.916 -7.20834 5.23717 0
M  V30 3687 O 622.136 -8.66104 5.38572 0
M  V30 3688 O 622.706 -6.33544 6.1349 0
M  V30 3689 O 622.166 -6.7751 3.72168 0
M  V30 3690 C 621.226 -7.20825 2.7076 0
M  V30 3691 C 621.956 -7.45864 1.40599 0
M  V30 3692 O 622.166 -6.17651 0.734225 0
M  V30 3693 C 623.356 -8.05808 1.51899 0
M  V30 3694 O 623.746 -8.74358 0.335205 0
M  V30 3695 C 624.236 -6.83093 1.70294 0
M  V30 3696 C 623.526 -5.79992 0.836974 0
M  V30 3697 N 623.576 -4.41864 1.38293 0
M  V30 3698 H 620.737 -8.13644 3.0377 0
M  V30 3699 H 620.467 -6.42788 2.55485 0
M  V30 3700 H 621.334 -8.12039 0.792769 0
M  V30 3701 P 625.296 -8.91 -4.1697e-12 0
M  V30 3702 O 625.516 -10.1726 -0.733694 0
M  V30 3703 O 626.086 -8.73148 1.23936 0
M  V30 3704 O 625.546 -7.66872 -0.971405 0
M  V30 3705 C 624.606 -7.42309 -2.04641 0
M  V30 3706 C 625.336 -6.86059 -3.24661 0
M  V30 3707 O 625.546 -5.42847 -3.03646 0
M  V30 3708 C 626.736 -7.41196 -3.50753 0
M  V30 3709 O 627.126 -7.27073 -4.86816 0
M  V30 3710 C 627.616 -6.5273 -2.63741 0
M  V30 3711 C 626.906 -5.1842 -2.73198 0
M  V30 3712 N 626.956 -4.38762 -1.4784 0
M  V30 3713 H 624.117 -8.36803 -2.32493 0
M  V30 3714 H 623.847 -6.70197 -1.71129 0
M  V30 3715 H 624.714 -7.03551 -4.13168 0
M  V30 3716 P 628.676 -7.20834 -5.23717 0
M  V30 3717 O 628.896 -7.80006 -6.57415 0
M  V30 3718 O 629.466 -7.79416 -4.13051 0
M  V30 3719 O 628.926 -5.63315 -5.29344 0
M  V30 3720 C 627.986 -4.80318 -6.01954 0
M  V30 3721 C 628.716 -3.64202 -6.65911 0
M  V30 3722 O 628.926 -2.60736 -5.64823 0
M  V30 3723 C 630.116 -3.93521 -7.19518 0
M  V30 3724 O 630.506 -3.02071 -8.21205 0
M  V30 3725 C 630.996 -3.73047 -5.97036 0
M  V30 3726 C 630.286 -2.58828 -5.25741 0
M  V30 3727 N 630.336 -2.68068 -3.77503 0
M  V30 3728 C 630.256 -3.80474 -2.99159 0
M  V30 3729 N 630.326 -3.55622 -1.71925 0
M  V30 3730 C 630.476 -2.1832 -1.65733 0
M  V30 3731 C 630.606 -1.28842 -0.572777 0
M  V30 3732 N 630.616 -1.66875 0.70098 0
M  V30 3733 N 630.726 0.016788 -0.859836 0
M  V30 3734 C 630.716 0.398145 -2.13316 0
M  V30 3735 N 630.596 -0.328224 -3.22333 0
M  V30 3736 C 630.476 -1.62992 -2.90383 0
M  V30 3737 H 627.498 -5.40394 -6.8003 0
M  V30 3738 H 627.226 -4.41741 -5.32532 0
M  V30 3739 H 628.094 -3.26371 -7.47889 0
M  V30 3740 H 630.749 -1.64007 -5.56746 0
M  V30 3741 H 631.029 -4.63439 -5.3432 0
M  V30 3742 H 632.02 -3.44776 -6.25925 0
M  V30 3743 H 630.186 -4.96707 -7.57347 0
M  V30 3744 H 630.145 -4.8089 -3.39924 0
M  V30 3745 H 630.526 -2.66547 0.941919 0
M  V30 3746 H 630.715 -0.965341 1.44766 0
M  V30 3747 H 630.823 1.46427 -2.29697 0
M  V30 3748 P 632.056 -2.75334 -8.47391 0
M  V30 3749 O 632.276 -2.44571 -9.90142 0
M  V30 3750 O 632.846 -3.87688 -7.92115 0
M  V30 3751 O 632.306 -1.4459 -7.59357 0
M  V30 3752 C 631.366 -0.347608 -7.69215 0
M  V30 3753 C 632.096 0.96767 -7.52806 0
M  V30 3754 O 632.306 1.21036 -6.1011 0
M  V30 3755 C 633.496 1.04544 -8.13308 0
M  V30 3756 O 633.886 2.38311 -8.41922 0
M  V30 3757 C 634.376 0.491279 -7.02284 0
M  V30 3758 C 633.666 0.996264 -5.77469 0
M  V30 3759 N 633.716 0.0501916 -4.62973 0
M  V30 3760 H 630.877 -0.374722 -8.67691 0
M  V30 3761 H 630.607 -0.443485 -6.90277 0
M  V30 3762 H 631.474 1.75537 -7.96793 0
M  V30 3763 P 635.436 2.75334 -8.47391 0
M  V30 3764 O 635.656 3.84128 -9.44797 0
M  V30 3765 O 636.226 1.51947 -8.68712 0
M  V30 3766 O 635.686 3.29363 -6.99321 0
M  V30 3767 C 634.746 4.24011 -6.4274 0
M  V30 3768 C 635.476 5.20775 -5.52155 0
M  V30 3769 O 635.686 4.56534 -4.22446 0
M  V30 3770 C 636.876 5.62629 -5.96531 0
M  V30 3771 O 637.266 6.87667 -5.41053 0
M  V30 3772 C 637.756 4.52537 -5.39283 0
M  V30 3773 C 637.046 4.20027 -4.08623 0
M  V30 3774 N 637.096 2.76189 -3.71603 0
M  V30 3775 H 634.257 4.797 -7.24003 0
M  V30 3776 H 633.987 3.69856 -5.84513 0
M  V30 3777 H 634.854 6.10356 -5.41441 0
M  V30 3778 P 638.816 7.20834 -5.23717 0
M  V30 3779 O 639.036 8.66104 -5.38572 0
M  V30 3780 O 639.606 6.33544 -6.1349 0
M  V30 3781 O 639.066 6.7751 -3.72168 0
M  V30 3782 C 638.126 7.20825 -2.7076 0
M  V30 3783 C 638.856 7.45864 -1.40599 0
M  V30 3784 O 639.066 6.17651 -0.734225 0
M  V30 3785 C 640.256 8.05808 -1.51899 0
M  V30 3786 O 640.646 8.74358 -0.335205 0
M  V30 3787 C 641.136 6.83093 -1.70294 0
M  V30 3788 C 640.426 5.79992 -0.836974 0
M  V30 3789 N 640.476 4.41864 -1.38293 0
M  V30 3790 H 637.637 8.13644 -3.0377 0
M  V30 3791 H 637.367 6.42788 -2.55485 0
M  V30 3792 H 638.234 8.12039 -0.792769 0
M  V30 3793 P 642.196 8.91 4.32688e-12 0
M  V30 3794 O 642.416 10.1726 0.733694 0
M  V30 3795 O 642.986 8.73148 -1.23936 0
M  V30 3796 O 642.446 7.66872 0.971405 0
M  V30 3797 C 641.506 7.42309 2.04641 0
M  V30 3798 C 642.236 6.86059 3.24661 0
M  V30 3799 O 642.446 5.42847 3.03646 0
M  V30 3800 C 643.636 7.41196 3.50753 0
M  V30 3801 O 644.026 7.27073 4.86816 0
M  V30 3802 C 644.516 6.5273 2.63741 0
M  V30 3803 C 643.806 5.1842 2.73198 0
M  V30 3804 N 643.856 4.38762 1.4784 0
M  V30 3805 H 641.017 8.36803 2.32493 0
M  V30 3806 H 640.747 6.70197 1.71129 0
M  V30 3807 H 641.614 7.03551 4.13168 0
M  V30 3808 P 645.576 7.20834 5.23717 0
M  V30 3809 O 645.796 7.79853 6.57286 0
M  V30 3810 O 646.366 7.79239 4.12957 0
M  V30 3811 O 645.826 5.63315 5.29344 0
M  V30 3812 C 644.886 4.80255 6.01876 0
M  V30 3813 C 645.616 3.64202 6.65911 0
M  V30 3814 O 645.826 2.60694 5.64732 0
M  V30 3815 C 647.016 3.93473 7.1943 0
M  V30 3816 O 647.406 3.02071 8.21205 0
M  V30 3817 C 647.896 3.73047 5.97036 0
M  V30 3818 C 647.186 2.58828 5.25741 0
M  V30 3819 N 647.236 2.68068 3.77503 0
M  V30 3820 H 644.397 5.40332 6.79951 0
M  V30 3821 H 644.127 4.41613 5.32378 0
M  V30 3822 H 644.994 3.26331 7.47797 0
M  V30 3823 P 648.956 2.75334 8.47391 0
M  V30 3824 O 649.176 2.44571 9.90142 0
M  V30 3825 O 649.746 3.87688 7.92115 0
M  V30 3826 O 649.206 1.4459 7.59357 0
M  V30 3827 C 648.266 0.347608 7.69215 0
M  V30 3828 C 648.996 -0.96767 7.52806 0
M  V30 3829 O 649.206 -1.21036 6.1011 0
M  V30 3830 C 650.396 -1.04544 8.13308 0
M  V30 3831 O 650.786 -2.38311 8.41922 0
M  V30 3832 C 651.276 -0.491279 7.02284 0
M  V30 3833 C 650.566 -0.996264 5.77469 0
M  V30 3834 N 650.616 -0.0501916 4.62973 0
M  V30 3835 C 650.536 1.32786 4.63244 0
M  V30 3836 N 650.616 1.86957 3.44545 0
M  V30 3837 C 650.756 0.780241 2.58481 0
M  V30 3838 C 650.886 0.738536 1.17757 0
M  V30 3839 N 651.006 -0.58337 0.711393 0
M  V30 3840 C 651.006 -1.70816 1.51017 0
M  V30 3841 N 651.136 -2.87826 0.880757 0
M  V30 3842 N 650.876 -1.67126 2.8339 0
M  V30 3843 C 650.756 -0.401421 3.30572 0
M  V30 3844 H 647.777 0.374722 8.67691 0
M  V30 3845 H 647.507 0.443485 6.90277 0
M  V30 3846 H 648.374 -1.75537 7.96793 0
M  V30 3847 P 652.336 -2.75334 8.47391 0
M  V30 3848 O 652.556 -3.84128 9.44797 0
M  V30 3849 O 653.126 -1.51947 8.68712 0
M  V30 3850 O 652.586 -3.29363 6.99321 0
M  V30 3851 C 651.646 -4.24011 6.4274 0
M  V30 3852 C 652.376 -5.20775 5.52155 0
M  V30 3853 O 652.586 -4.56534 4.22446 0
M  V30 3854 C 653.776 -5.62629 5.96531 0
M  V30 3855 O 654.166 -6.87667 5.41053 0
M  V30 3856 C 654.656 -4.52537 5.39283 0
M  V30 3857 C 653.946 -4.20027 4.08623 0
M  V30 3858 N 653.996 -2.76189 3.71603 0
M  V30 3859 C 653.916 -1.64862 4.52822 0
M  V30 3860 N 653.996 -0.512671 3.88633 0
M  V30 3861 C 654.136 -0.888083 2.54977 0
M  V30 3862 C 654.266 -0.094668 1.38677 0
M  V30 3863 N 654.386 -0.890102 0.232633 0
M  V30 3864 C 654.386 -2.26958 0.21772 0
M  V30 3865 N 654.516 -2.84626 -0.97925 0
M  V30 3866 N 654.256 -3.0178 1.31033 0
M  V30 3867 C 654.136 -2.26781 2.43843 0
M  V30 3868 H 651.157 -4.797 7.24003 0
M  V30 3869 H 650.887 -3.69856 5.84513 0
M  V30 3870 H 651.754 -6.10356 5.41441 0
M  V30 3871 P 655.716 -7.20834 5.23717 0
M  V30 3872 O 655.936 -8.66104 5.38572 0
M  V30 3873 O 656.506 -6.33544 6.1349 0
M  V30 3874 O 655.966 -6.7751 3.72168 0
M  V30 3875 C 655.026 -7.20825 2.7076 0
M  V30 3876 C 655.756 -7.45864 1.40599 0
M  V30 3877 O 655.966 -6.17651 0.734225 0
M  V30 3878 C 657.156 -8.05808 1.51899 0
M  V30 3879 O 657.546 -8.74358 0.335205 0
M  V30 3880 C 658.036 -6.83093 1.70294 0
M  V30 3881 C 657.326 -5.79992 0.836974 0
M  V30 3882 N 657.376 -4.41864 1.38293 0
M  V30 3883 H 654.537 -8.13644 3.0377 0
M  V30 3884 H 654.267 -6.42788 2.55485 0
M  V30 3885 H 655.134 -8.12039 0.792769 0
M  V30 3886 P 659.096 -8.91 -4.48406e-12 0
M  V30 3887 O 659.316 -10.1726 -0.733694 0
M  V30 3888 O 659.886 -8.73148 1.23936 0
M  V30 3889 O 659.346 -7.66872 -0.971405 0
M  V30 3890 C 658.406 -7.42309 -2.04641 0
M  V30 3891 C 659.136 -6.86059 -3.24661 0
M  V30 3892 O 659.346 -5.42847 -3.03646 0
M  V30 3893 C 660.536 -7.41196 -3.50753 0
M  V30 3894 O 660.926 -7.27073 -4.86816 0
M  V30 3895 C 661.416 -6.5273 -2.63741 0
M  V30 3896 C 660.706 -5.1842 -2.73198 0
M  V30 3897 N 660.756 -4.38762 -1.4784 0
M  V30 3898 H 657.917 -8.36803 -2.32493 0
M  V30 3899 H 657.647 -6.70197 -1.71129 0
M  V30 3900 H 658.514 -7.03551 -4.13168 0
M  V30 3901 P 662.476 -7.20834 -5.23717 0
M  V30 3902 O 662.696 -7.79853 -6.57286 0
M  V30 3903 O 663.266 -7.79239 -4.12957 0
M  V30 3904 O 662.726 -5.63315 -5.29344 0
M  V30 3905 C 661.786 -4.80255 -6.01876 0
M  V30 3906 C 662.516 -3.64202 -6.65911 0
M  V30 3907 O 662.726 -2.60694 -5.64732 0
M  V30 3908 C 663.916 -3.93473 -7.1943 0
M  V30 3909 O 664.306 -3.02071 -8.21205 0
M  V30 3910 C 664.796 -3.73047 -5.97036 0
M  V30 3911 C 664.086 -2.58828 -5.25741 0
M  V30 3912 N 664.136 -2.68068 -3.77503 0
M  V30 3913 H 661.297 -5.40332 -6.79951 0
M  V30 3914 H 661.027 -4.41613 -5.32378 0
M  V30 3915 H 661.894 -3.26331 -7.47797 0
M  V30 3916 P 665.856 -2.75334 -8.47391 0
M  V30 3917 O 666.076 -2.44619 -9.90336 0
M  V30 3918 O 666.646 -3.87776 -7.92294 0
M  V30 3919 O 666.106 -1.4459 -7.59357 0
M  V30 3920 C 665.166 -0.347653 -7.69315 0
M  V30 3921 C 665.896 0.96767 -7.52806 0
M  V30 3922 O 666.106 1.21055 -6.10208 0
M  V30 3923 C 667.296 1.04557 -8.13408 0
M  V30 3924 O 667.686 2.38311 -8.41922 0
M  V30 3925 C 668.176 0.491279 -7.02284 0
M  V30 3926 C 667.466 0.996264 -5.77469 0
M  V30 3927 N 667.516 0.0501916 -4.62973 0
M  V30 3928 C 667.436 -1.31969 -4.65661 0
M  V30 3929 N 667.506 -1.86649 -3.48119 0
M  V30 3930 C 667.656 -0.792089 -2.62406 0
M  V30 3931 C 667.786 -0.705684 -1.2207 0
M  V30 3932 N 667.796 -1.76207 -0.413762 0
M  V30 3933 N 667.906 0.518981 -0.685754 0
M  V30 3934 C 667.896 1.57595 -1.49174 0
M  V30 3935 N 667.776 1.62909 -2.80066 0
M  V30 3936 C 667.656 0.388195 -3.3073 0
M  V30 3937 H 664.678 -0.374765 -8.67791 0
M  V30 3938 H 664.406 -0.443613 -6.90476 0
M  V30 3939 H 665.274 1.75559 -7.96891 0
M  V30 3940 H 667.929 1.94563 -5.46818 0
M  V30 3941 H 668.209 -0.608651 -7.04676 0
M  V30 3942 H 669.2 0.889796 -7.09039 0
M  V30 3943 H 667.366 0.433128 -9.04664 0
M  V30 3944 H 667.325 -1.89246 -5.57664 0
M  V30 3945 H 667.706 -2.71005 -0.804694 0
M  V30 3946 H 667.895 -1.63189 0.603768 0
M  V30 3947 H 668.003 2.53475 -0.997614 0
M  V30 3948 P 669.236 2.75334 -8.47391 0
M  V30 3949 O 669.456 3.84128 -9.44797 0
M  V30 3950 O 670.026 1.51947 -8.68712 0
M  V30 3951 O 669.486 3.29363 -6.99321 0
M  V30 3952 C 668.546 4.24011 -6.4274 0
M  V30 3953 C 669.276 5.20775 -5.52155 0
M  V30 3954 O 669.486 4.56534 -4.22446 0
M  V30 3955 C 670.676 5.62629 -5.96531 0
M  V30 3956 O 671.066 6.87667 -5.41053 0
M  V30 3957 C 671.556 4.52537 -5.39283 0
M  V30 3958 C 670.846 4.20027 -4.08623 0
M  V30 3959 N 670.896 2.76189 -3.71603 0
M  V30 3960 H 668.057 4.797 -7.24003 0
M  V30 3961 H 667.787 3.69856 -5.84513 0
M  V30 3962 H 668.654 6.10356 -5.41441 0
M  V30 3963 P 672.616 7.20834 -5.23717 0
M  V30 3964 O 672.836 8.66104 -5.38572 0
M  V30 3965 O 673.406 6.33544 -6.1349 0
M  V30 3966 O 672.866 6.7751 -3.72168 0
M  V30 3967 C 671.926 7.20825 -2.7076 0
M  V30 3968 C 672.656 7.45864 -1.40599 0
M  V30 3969 O 672.866 6.17651 -0.734225 0
M  V30 3970 C 674.056 8.05808 -1.51899 0
M  V30 3971 O 674.446 8.74358 -0.335205 0
M  V30 3972 C 674.936 6.83093 -1.70294 0
M  V30 3973 C 674.226 5.79992 -0.836974 0
M  V30 3974 N 674.276 4.41864 -1.38293 0
M  V30 3975 H 671.437 8.13644 -3.0377 0
M  V30 3976 H 671.167 6.42788 -2.55485 0
M  V30 3977 H 672.034 8.12039 -0.792769 0
M  V30 3978 P 675.996 8.91 4.64125e-12 0
M  V30 3979 O 676.216 10.1726 0.733694 0
M  V30 3980 O 676.786 8.73148 -1.23936 0
M  V30 3981 O 676.246 7.66872 0.971405 0
M  V30 3982 C 675.306 7.42309 2.04641 0
M  V30 3983 C 676.036 6.86059 3.24661 0
M  V30 3984 O 676.246 5.42847 3.03646 0
M  V30 3985 C 677.436 7.41196 3.50753 0
M  V30 3986 O 677.826 7.27073 4.86816 0
M  V30 3987 C 678.316 6.5273 2.63741 0
M  V30 3988 C 677.606 5.1842 2.73198 0
M  V30 3989 N 677.656 4.38762 1.4784 0
M  V30 3990 H 674.817 8.36803 2.32493 0
M  V30 3991 H 674.547 6.70197 1.71129 0
M  V30 3992 H 675.414 7.03551 4.13168 0
M  V30 3993 P 679.376 7.20834 5.23717 0
M  V30 3994 O 679.596 7.79853 6.57286 0
M  V30 3995 O 680.166 7.79239 4.12957 0
M  V30 3996 O 679.626 5.63315 5.29344 0
M  V30 3997 C 678.686 4.80255 6.01876 0
M  V30 3998 C 679.416 3.64202 6.65911 0
M  V30 3999 O 679.626 2.60694 5.64732 0
M  V30 4000 C 680.816 3.93473 7.1943 0
M  V30 4001 O 681.206 3.02071 8.21205 0
M  V30 4002 C 681.696 3.73047 5.97036 0
M  V30 4003 C 680.986 2.58828 5.25741 0
M  V30 4004 N 681.036 2.68068 3.77503 0
M  V30 4005 H 678.197 5.40332 6.79951 0
M  V30 4006 H 677.927 4.41613 5.32378 0
M  V30 4007 H 678.794 3.26331 7.47797 0
M  V30 4008 P 682.756 2.75334 8.47391 0
M  V30 4009 O 682.976 2.44571 9.90142 0
M  V30 4010 O 683.546 3.87688 7.92115 0
M  V30 4011 O 683.006 1.4459 7.59357 0
M  V30 4012 C 682.066 0.347608 7.69215 0
M  V30 4013 C 682.796 -0.96767 7.52806 0
M  V30 4014 O 683.006 -1.21036 6.1011 0
M  V30 4015 C 684.196 -1.04544 8.13308 0
M  V30 4016 O 684.586 -2.38311 8.41922 0
M  V30 4017 C 685.076 -0.491279 7.02284 0
M  V30 4018 C 684.366 -0.996264 5.77469 0
M  V30 4019 N 684.416 -0.0501916 4.62973 0
M  V30 4020 H 681.577 0.374722 8.67691 0
M  V30 4021 H 681.307 0.443485 6.90277 0
M  V30 4022 H 682.174 -1.75537 7.96793 0
M  V30 4023 P 686.136 -2.75334 8.47391 0
M  V30 4024 O 686.356 -3.84128 9.44797 0
M  V30 4025 O 686.926 -1.51947 8.68712 0
M  V30 4026 O 686.386 -3.29363 6.99321 0
M  V30 4027 C 685.446 -4.24011 6.4274 0
M  V30 4028 C 686.176 -5.20775 5.52155 0
M  V30 4029 O 686.386 -4.56534 4.22446 0
M  V30 4030 C 687.576 -5.62629 5.96531 0
M  V30 4031 O 687.966 -6.87667 5.41053 0
M  V30 4032 C 688.456 -4.52537 5.39283 0
M  V30 4033 C 687.746 -4.20027 4.08623 0
M  V30 4034 N 687.796 -2.76189 3.71603 0
M  V30 4035 H 684.957 -4.797 7.24003 0
M  V30 4036 H 684.687 -3.69856 5.84513 0
M  V30 4037 H 685.554 -6.10356 5.41441 0
M  V30 4038 P 689.516 -7.20834 5.23717 0
M  V30 4039 O 689.736 -8.66104 5.38572 0
M  V30 4040 O 690.306 -6.33544 6.1349 0
M  V30 4041 O 689.766 -6.7751 3.72168 0
M  V30 4042 C 688.826 -7.20825 2.7076 0
M  V30 4043 C 689.556 -7.45864 1.40599 0
M  V30 4044 O 689.766 -6.17651 0.734225 0
M  V30 4045 C 690.956 -8.05808 1.51899 0
M  V30 4046 O 691.346 -8.74358 0.335205 0
M  V30 4047 C 691.836 -6.83093 1.70294 0
M  V30 4048 C 691.126 -5.79992 0.836974 0
M  V30 4049 N 691.176 -4.41864 1.38293 0
M  V30 4050 H 688.337 -8.13644 3.0377 0
M  V30 4051 H 688.067 -6.42788 2.55485 0
M  V30 4052 H 688.934 -8.12039 0.792769 0
M  V30 4053 H 691.215 -8.17008 -0.422618 0
M  V30 4054 H 695.237 9.01697 -3.02546 0
M  V30 4055 O 695.117 8.19513 -3.48153 0
M  V30 4056 P 693.676 8.03563 -3.84925 0
M  V30 4057 O 693.456 8.85821 -5.0569 0
M  V30 4058 O 692.886 8.41101 -2.65469 0
M  V30 4059 O 693.426 6.4965 -4.18908 0
M  V30 4060 C 694.366 5.81037 -5.05421 0
M  V30 4061 C 693.636 4.78366 -5.89277 0
M  V30 4062 O 693.426 3.58302 -5.08433 0
M  V30 4063 C 692.236 5.17448 -6.36119 0
M  V30 4064 O 691.846 4.45271 -7.53232 0
M  V30 4065 C 691.356 4.74639 -5.19936 0
M  V30 4066 C 692.066 3.49432 -4.70418 0
M  V30 4067 N 692.016 3.31776 -3.22945 0
M  V30 4068 H 694.855 6.54213 -5.71376 0
M  V30 4069 H 695.127 5.30492 -4.44033 0
M  V30 4070 H 694.259 4.55889 -6.76652 0
M  V30 4071 P 690.296 4.23843 -7.83734 0
M  V30 4072 O 690.076 4.19407 -9.29784 0
M  V30 4073 O 689.506 5.24426 -7.09156 0
M  V30 4074 O 690.046 2.7935 -7.20758 0
M  V30 4075 C 690.986 1.7299 -7.50419 0
M  V30 4076 C 690.256 0.406376 -7.57911 0
M  V30 4077 O 690.046 -0.0897726 -6.21935 0
M  V30 4078 C 688.856 0.447224 -8.1878 0
M  V30 4079 O 688.466 -0.825065 -8.71101 0
M  V30 4080 C 687.976 0.783801 -6.99623 0
M  V30 4081 C 688.686 0.0619192 -5.85967 0
M  V30 4082 N 688.636 0.7859 -4.56281 0
M  V30 4083 H 691.475 1.93423 -8.4679 0
M  V30 4084 H 691.747 1.68181 -6.71046 0
M  V30 4085 H 690.879 -0.289041 -8.15388 0
M  V30 4086 P 686.916 -1.17771 -8.83182 0
M  V30 4087 O 686.696 -2.07206 -9.98732 0
M  V30 4088 O 686.126 0.0743816 -8.81969 0
M  V30 4089 O 686.666 -1.97652 -7.47304 0
M  V30 4090 C 687.606 -3.01133 -7.08783 0
M  V30 4091 C 686.876 -4.12613 -6.37049 0
M  V30 4092 O 686.666 -3.72827 -4.97879 0
M  V30 4093 C 685.476 -4.45085 -6.88694 0
M  V30 4094 O 685.086 -5.7877 -6.5624 0
M  V30 4095 C 684.596 -3.47817 -6.12078 0
M  V30 4096 C 685.306 -3.39414 -4.77697 0
M  V30 4097 N 685.256 -2.04615 -4.15333 0
M  V30 4098 H 688.095 -3.41248 -7.98759 0
M  V30 4099 H 688.367 -2.5837 -6.41742 0
M  V30 4100 H 687.499 -5.02657 -6.42673 0
M  V30 4101 P 683.536 -6.144 -6.45285 0
M  V30 4102 O 683.316 -7.54673 -6.86199 0
M  V30 4103 O 682.746 -5.12391 -7.179 0
M  V30 4104 O 683.286 -5.99158 -4.88404 0
M  V30 4105 C 684.226 -6.60234 -3.96415 0
M  V30 4106 C 683.496 -7.08259 -2.72856 0
M  V30 4107 O 683.286 -5.9427 -1.83651 0
M  V30 4108 C 682.096 -7.64886 -2.9555 0
M  V30 4109 O 681.706 -8.53963 -1.90717 0
M  V30 4110 C 681.216 -6.4116 -2.90739 0
M  V30 4111 C 681.926 -5.55375 -1.86963 0
M  V30 4112 N 681.876 -4.09664 -2.15742 0
M  V30 4113 H 684.715 -7.45574 -4.45629 0
M  V30 4114 H 684.987 -5.86232 -3.67314 0
M  V30 4115 H 684.119 -7.84412 -2.24479 0
M  V30 4116 P 680.156 -8.7635 -1.60911 0
M  V30 4117 O 679.936 -10.1388 -1.11561 0
M  V30 4118 O 679.366 -8.36503 -2.79617 0
M  V30 4119 O 679.906 -7.71806 -0.42951 0
M  V30 4120 C 680.846 -7.67148 0.673689 0
M  V30 4121 C 680.116 -7.33374 1.95559 0
M  V30 4122 O 679.906 -5.88721 2.00726 0
M  V30 4123 C 678.716 -7.92526 2.10483 0
M  V30 4124 O 678.326 -8.02971 3.47653 0
M  V30 4125 C 677.836 -6.89602 1.41652 0
M  V30 4126 C 678.546 -5.59201 1.75185 0
M  V30 4127 N 678.496 -4.58235 0.662552 0
M  V30 4128 H 681.335 -8.65116 0.777161 0
M  V30 4129 H 681.607 -6.90173 0.474152 0
M  V30 4130 H 680.739 -7.66548 2.79458 0
M  V30 4131 P 676.776 -8.03563 3.84925 0
M  V30 4132 O 676.556 -8.85821 5.0569 0
M  V30 4133 O 675.986 -8.41101 2.65469 0
M  V30 4134 O 676.526 -6.4965 4.18908 0
M  V30 4135 C 677.466 -5.81037 5.05421 0
M  V30 4136 C 676.736 -4.78366 5.89277 0
M  V30 4137 O 676.526 -3.58302 5.08433 0
M  V30 4138 C 675.336 -5.17448 6.36119 0
M  V30 4139 O 674.946 -4.45271 7.53232 0
M  V30 4140 C 674.456 -4.74639 5.19936 0
M  V30 4141 C 675.166 -3.49432 4.70418 0
M  V30 4142 N 675.116 -3.32099 3.22613 0
M  V30 4143 H 677.955 -6.54213 5.71376 0
M  V30 4144 H 678.227 -5.30936 4.43503 0
M  V30 4145 H 677.359 -4.55889 6.76652 0
M  V30 4146 H 674.704 -2.61715 5.17932 0
M  V30 4147 H 674.424 -5.52155 4.41878 0
M  V30 4148 H 673.433 -4.51981 5.53374 0
M  V30 4149 H 675.267 -6.25124 6.55234 0
M  V30 4150 P 673.396 -4.23843 7.83734 0
M  V30 4151 O 673.176 -4.19407 9.29784 0
M  V30 4152 O 672.606 -5.24426 7.09156 0
M  V30 4153 O 673.146 -2.7935 7.20758 0
M  V30 4154 C 674.086 -1.7299 7.50419 0
M  V30 4155 C 673.356 -0.406376 7.57911 0
M  V30 4156 O 673.146 0.0897726 6.21935 0
M  V30 4157 C 671.956 -0.447224 8.1878 0
M  V30 4158 O 671.566 0.825065 8.71101 0
M  V30 4159 C 671.076 -0.783801 6.99623 0
M  V30 4160 C 671.786 -0.0619192 5.85967 0
M  V30 4161 N 671.736 -0.7859 4.56281 0
M  V30 4162 H 674.575 -1.93423 8.4679 0
M  V30 4163 H 674.847 -1.68181 6.71046 0
M  V30 4164 H 673.979 0.289041 8.15388 0
M  V30 4165 P 670.016 1.17771 8.83182 0
M  V30 4166 O 669.796 2.07206 9.98732 0
M  V30 4167 O 669.226 -0.0743816 8.81969 0
M  V30 4168 O 669.766 1.97652 7.47304 0
M  V30 4169 C 670.706 3.01055 7.08599 0
M  V30 4170 C 669.976 4.12613 6.37049 0
M  V30 4171 O 669.766 3.72827 4.97879 0
M  V30 4172 C 668.576 4.45719 6.88164 0
M  V30 4173 O 668.186 5.7877 6.5624 0
M  V30 4174 C 667.696 3.47768 6.11991 0
M  V30 4175 C 668.406 3.39356 4.77615 0
M  V30 4176 N 668.356 2.04571 4.15244 0
M  V30 4177 C 668.206 1.98587 2.78314 0
M  V30 4178 O 668.116 2.98134 2.08835 0
M  V30 4179 N 668.166 0.714467 2.24925 0
M  V30 4180 C 668.256 -0.470001 2.94169 0
M  V30 4181 O 668.206 -1.55587 2.35195 0
M  V30 4182 C 668.406 -0.312541 4.36783 0
M  V30 4183 C 668.516 -1.57711 5.16352 0
M  V30 4184 C 668.456 0.914512 4.92583 0
M  V30 4185 H 671.197 3.41169 7.98575 0
M  V30 4186 H 671.466 2.58295 6.41556 0
M  V30 4187 H 670.599 5.02657 6.42673 0
M  V30 4188 H 667.944 4.11637 4.08885 0
M  V30 4189 H 667.665 2.49626 6.61679 0
M  V30 4190 H 666.673 3.86566 6.00778 0
M  V30 4191 H 668.507 4.29943 7.96918 0
M  V30 4192 H 668.578 1.00937 6.00374 0
M  V30 4193 H 667.548 -1.80153 5.63503 0
M  V30 4194 H 669.285 -1.4566 5.94104 0
M  V30 4195 H 668.797 -2.40664 4.49645 0
M  V30 4196 H 668.061 0.647622 1.25697 0
M  V30 4197 P 666.636 6.144 6.45285 0
M  V30 4198 O 666.416 7.54673 6.86199 0
M  V30 4199 O 665.846 5.12391 7.179 0
M  V30 4200 O 666.386 5.99158 4.88404 0
M  V30 4201 C 667.326 6.60234 3.96415 0
M  V30 4202 C 666.596 7.08259 2.72856 0
M  V30 4203 O 666.386 5.9427 1.83651 0
M  V30 4204 C 665.196 7.64886 2.9555 0
M  V30 4205 O 664.806 8.53963 1.90717 0
M  V30 4206 C 664.316 6.4116 2.90739 0
M  V30 4207 C 665.026 5.55375 1.86963 0
M  V30 4208 N 664.976 4.09448 2.16152 0
M  V30 4209 H 667.815 7.45574 4.45629 0
M  V30 4210 H 668.087 5.85864 3.679 0
M  V30 4211 H 667.219 7.84412 2.24479 0
M  V30 4212 H 664.564 5.73457 0.888562 0
M  V30 4213 H 664.284 5.90877 3.88583 0
M  V30 4214 H 663.293 6.6596 2.58858 0
M  V30 4215 H 665.127 8.16339 3.92049 0
M  V30 4216 P 663.256 8.7635 1.60911 0
M  V30 4217 O 663.036 10.1388 1.11561 0
M  V30 4218 O 662.466 8.36503 2.79617 0
M  V30 4219 O 663.006 7.71806 0.42951 0
M  V30 4220 C 663.946 7.67148 -0.673689 0
M  V30 4221 C 663.216 7.33374 -1.95559 0
M  V30 4222 O 663.006 5.88721 -2.00726 0
M  V30 4223 C 661.816 7.92526 -2.10483 0
M  V30 4224 O 661.426 8.02971 -3.47653 0
M  V30 4225 C 660.936 6.89602 -1.41652 0
M  V30 4226 C 661.646 5.59201 -1.75185 0
M  V30 4227 N 661.596 4.58235 -0.662552 0
M  V30 4228 H 664.435 8.65116 -0.777161 0
M  V30 4229 H 664.707 6.90173 -0.474152 0
M  V30 4230 H 663.839 7.66548 -2.79458 0
M  V30 4231 P 659.876 8.03563 -3.84925 0
M  V30 4232 O 659.656 8.85821 -5.0569 0
M  V30 4233 O 659.086 8.41101 -2.65469 0
M  V30 4234 O 659.626 6.4965 -4.18908 0
M  V30 4235 C 660.566 5.81037 -5.05421 0
M  V30 4236 C 659.836 4.78366 -5.89277 0
M  V30 4237 O 659.626 3.58302 -5.08433 0
M  V30 4238 C 658.436 5.17448 -6.36119 0
M  V30 4239 O 658.046 4.45271 -7.53232 0
M  V30 4240 C 657.556 4.74639 -5.19936 0
M  V30 4241 C 658.266 3.49432 -4.70418 0
M  V30 4242 N 658.216 3.31776 -3.22945 0
M  V30 4243 H 661.055 6.54213 -5.71376 0
M  V30 4244 H 661.327 5.30492 -4.44033 0
M  V30 4245 H 660.459 4.55889 -6.76652 0
M  V30 4246 P 656.496 4.23843 -7.83734 0
M  V30 4247 O 656.276 4.19407 -9.29784 0
M  V30 4248 O 655.706 5.24426 -7.09156 0
M  V30 4249 O 656.246 2.7935 -7.20758 0
M  V30 4250 C 657.186 1.72945 -7.50224 0
M  V30 4251 C 656.456 0.406376 -7.57911 0
M  V30 4252 O 656.246 -0.0897726 -6.21935 0
M  V30 4253 C 655.056 0.438983 -8.18724 0
M  V30 4254 O 654.666 -0.825065 -8.71101 0
M  V30 4255 C 654.176 0.783689 -6.99524 0
M  V30 4256 C 654.886 0.0619086 -5.85867 0
M  V30 4257 N 654.836 0.78573 -4.56183 0
M  V30 4258 C 654.686 0.0292889 -3.41887 0
M  V30 4259 O 654.596 -1.18445 -3.4419 0
M  V30 4260 N 654.646 0.744061 -2.23964 0
M  V30 4261 C 654.736 2.10932 -2.10362 0
M  V30 4262 C 654.886 2.8202 -3.34994 0
M  V30 4263 C 654.936 2.15547 -4.52261 0
M  V30 4264 H 657.677 1.93379 -8.46595 0
M  V30 4265 H 657.946 1.68132 -6.70852 0
M  V30 4266 H 657.079 -0.289041 -8.15388 0
M  V30 4267 H 654.424 -0.926847 -5.72749 0
M  V30 4268 H 654.145 1.86973 -6.82036 0
M  V30 4269 H 653.153 0.403896 -7.13257 0
M  V30 4270 H 654.987 1.20585 -8.97435 0
M  V30 4271 H 655.058 2.71231 -5.45042 0
M  V30 4272 P 653.116 -1.17771 -8.83182 0
M  V30 4273 O 652.896 -2.07206 -9.98732 0
M  V30 4274 O 652.326 0.0743816 -8.81969 0
M  V30 4275 O 652.866 -1.97652 -7.47304 0
M  V30 4276 C 653.806 -3.01055 -7.08599 0
M  V30 4277 C 653.076 -4.12613 -6.37049 0
M  V30 4278 O 652.866 -3.72827 -4.97879 0
M  V30 4279 C 651.676 -4.45719 -6.88164 0
M  V30 4280 O 651.286 -5.7877 -6.5624 0
M  V30 4281 C 650.796 -3.47768 -6.11991 0
M  V30 4282 C 651.506 -3.39356 -4.77615 0
M  V30 4283 N 651.456 -2.04571 -4.15244 0
M  V30 4284 C 651.306 -1.98587 -2.78314 0
M  V30 4285 O 651.216 -2.98134 -2.08835 0
M  V30 4286 N 651.266 -0.714467 -2.24925 0
M  V30 4287 C 651.356 0.470001 -2.94169 0
M  V30 4288 C 651.506 0.312541 -4.36783 0
M  V30 4289 C 651.556 -0.914512 -4.92583 0
M  V30 4290 H 654.297 -3.41169 -7.98575 0
M  V30 4291 H 654.566 -2.58295 -6.41556 0
M  V30 4292 H 653.699 -5.02657 -6.42673 0
M  V30 4293 H 651.044 -4.11637 -4.08885 0
M  V30 4294 H 650.765 -2.49626 -6.61679 0
M  V30 4295 H 649.773 -3.86566 -6.00778 0
M  V30 4296 H 651.607 -4.29943 -7.96918 0
M  V30 4297 H 651.678 -1.00937 -6.00374 0
M  V30 4298 P 649.736 -6.144 -6.45285 0
M  V30 4299 O 649.516 -7.54673 -6.86199 0
M  V30 4300 O 648.946 -5.12391 -7.179 0
M  V30 4301 O 649.486 -5.99158 -4.88404 0
M  V30 4302 C 650.426 -6.60234 -3.96415 0
M  V30 4303 C 649.696 -7.08259 -2.72856 0
M  V30 4304 O 649.486 -5.9427 -1.83651 0
M  V30 4305 C 648.296 -7.64886 -2.9555 0
M  V30 4306 O 647.906 -8.53963 -1.90717 0
M  V30 4307 C 647.416 -6.4116 -2.90739 0
M  V30 4308 C 648.126 -5.55375 -1.86963 0
M  V30 4309 N 648.076 -4.09664 -2.15742 0
M  V30 4310 H 650.915 -7.45574 -4.45629 0
M  V30 4311 H 651.187 -5.86232 -3.67314 0
M  V30 4312 H 650.319 -7.84412 -2.24479 0
M  V30 4313 P 646.356 -8.7635 -1.60911 0
M  V30 4314 O 646.136 -10.1388 -1.11561 0
M  V30 4315 O 645.566 -8.36503 -2.79617 0
M  V30 4316 O 646.106 -7.71806 -0.42951 0
M  V30 4317 C 647.046 -7.67148 0.673689 0
M  V30 4318 C 646.316 -7.33374 1.95559 0
M  V30 4319 O 646.106 -5.88721 2.00726 0
M  V30 4320 C 644.916 -7.92526 2.10483 0
M  V30 4321 O 644.526 -8.02971 3.47653 0
M  V30 4322 C 644.036 -6.89602 1.41652 0
M  V30 4323 C 644.746 -5.59201 1.75185 0
M  V30 4324 N 644.696 -4.58301 0.657969 0
M  V30 4325 H 647.535 -8.65116 0.777161 0
M  V30 4326 H 647.807 -6.9022 0.46725 0
M  V30 4327 H 646.939 -7.66548 2.79458 0
M  V30 4328 H 644.284 -5.16165 2.65183 0
M  V30 4329 H 644.004 -7.06433 0.329384 0
M  V30 4330 H 643.013 -6.90926 1.82021 0
M  V30 4331 H 644.847 -8.90873 1.62657 0
M  V30 4332 P 642.976 -8.03563 3.84925 0
M  V30 4333 O 642.756 -8.85821 5.0569 0
M  V30 4334 O 642.186 -8.41101 2.65469 0
M  V30 4335 O 642.726 -6.4965 4.18908 0
M  V30 4336 C 643.666 -5.81037 5.05421 0
M  V30 4337 C 642.936 -4.78366 5.89277 0
M  V30 4338 O 642.726 -3.58302 5.08433 0
M  V30 4339 C 641.536 -5.17448 6.36119 0
M  V30 4340 O 641.146 -4.45271 7.53232 0
M  V30 4341 C 640.656 -4.74639 5.19936 0
M  V30 4342 C 641.366 -3.49432 4.70418 0
M  V30 4343 N 641.316 -3.31776 3.22945 0
M  V30 4344 H 644.155 -6.54213 5.71376 0
M  V30 4345 H 644.427 -5.30492 4.44033 0
M  V30 4346 H 643.559 -4.55889 6.76652 0
M  V30 4347 P 639.596 -4.23843 7.83734 0
M  V30 4348 O 639.376 -4.19407 9.29784 0
M  V30 4349 O 638.806 -5.24426 7.09156 0
M  V30 4350 O 639.346 -2.7935 7.20758 0
M  V30 4351 C 640.286 -1.7299 7.50419 0
M  V30 4352 C 639.556 -0.406376 7.57911 0
M  V30 4353 O 639.346 0.0897726 6.21935 0
M  V30 4354 C 638.156 -0.447224 8.1878 0
M  V30 4355 O 637.766 0.825065 8.71101 0
M  V30 4356 C 637.276 -0.783801 6.99623 0
M  V30 4357 C 637.986 -0.0619192 5.85967 0
M  V30 4358 N 637.936 -0.7859 4.56281 0
M  V30 4359 H 640.775 -1.93423 8.4679 0
M  V30 4360 H 641.047 -1.68181 6.71046 0
M  V30 4361 H 640.179 0.289041 8.15388 0
M  V30 4362 P 636.216 1.17771 8.83182 0
M  V30 4363 O 635.996 2.07206 9.98732 0
M  V30 4364 O 635.426 -0.0743816 8.81969 0
M  V30 4365 O 635.966 1.97652 7.47304 0
M  V30 4366 C 636.906 3.01133 7.08783 0
M  V30 4367 C 636.176 4.12613 6.37049 0
M  V30 4368 O 635.966 3.72827 4.97879 0
M  V30 4369 C 634.776 4.45085 6.88694 0
M  V30 4370 O 634.386 5.7877 6.5624 0
M  V30 4371 C 633.896 3.47817 6.12078 0
M  V30 4372 C 634.606 3.39414 4.77697 0
M  V30 4373 N 634.556 2.04615 4.15333 0
M  V30 4374 H 637.395 3.41248 7.98759 0
M  V30 4375 H 637.667 2.5837 6.41742 0
M  V30 4376 H 636.799 5.02657 6.42673 0
M  V30 4377 P 632.836 6.144 6.45285 0
M  V30 4378 O 632.616 7.54673 6.86199 0
M  V30 4379 O 632.046 5.12391 7.179 0
M  V30 4380 O 632.586 5.99158 4.88404 0
M  V30 4381 C 633.526 6.60062 3.96313 0
M  V30 4382 C 632.796 7.08259 2.72856 0
M  V30 4383 O 632.586 5.9427 1.83651 0
M  V30 4384 C 631.396 7.65087 2.94749 0
M  V30 4385 O 631.006 8.53963 1.90717 0
M  V30 4386 C 630.516 6.41069 2.90698 0
M  V30 4387 C 631.226 5.5528 1.86931 0
M  V30 4388 N 631.176 4.09575 2.15696 0
M  V30 4389 C 631.026 3.24249 1.08435 0
M  V30 4390 O 630.936 3.63946 -0.0628747 0
M  V30 4391 N 630.986 1.90009 1.39973 0
M  V30 4392 C 631.076 1.34884 2.65614 0
M  V30 4393 O 631.026 0.123716 2.81728 0
M  V30 4394 C 631.226 2.3145 3.71736 0
M  V30 4395 C 631.336 1.75913 5.10438 0
M  V30 4396 C 631.276 3.63518 3.44754 0
M  V30 4397 H 634.017 7.45402 4.45526 0
M  V30 4398 H 634.286 5.86062 3.67208 0
M  V30 4399 H 633.419 7.84412 2.24479 0
M  V30 4400 H 630.764 5.73358 0.888409 0
M  V30 4401 H 630.485 5.90877 3.88583 0
M  V30 4402 H 629.493 6.65867 2.58821 0
M  V30 4403 H 631.327 8.16248 3.92006 0
M  V30 4404 H 631.398 4.34551 4.26383 0
M  V30 4405 H 630.368 1.85471 5.61775 0
M  V30 4406 H 632.105 2.31364 5.66257 0
M  V30 4407 H 631.617 0.695936 5.05229 0
M  V30 4408 H 630.881 1.26277 0.63625 0
M  V30 4409 P 629.456 8.7635 1.60911 0
M  V30 4410 O 629.236 10.1388 1.11561 0
M  V30 4411 O 628.666 8.36503 2.79617 0
M  V30 4412 O 629.206 7.71806 0.42951 0
M  V30 4413 C 630.146 7.67148 -0.673689 0
M  V30 4414 C 629.416 7.33374 -1.95559 0
M  V30 4415 O 629.206 5.88721 -2.00726 0
M  V30 4416 C 628.016 7.92526 -2.10483 0
M  V30 4417 O 627.626 8.02971 -3.47653 0
M  V30 4418 C 627.136 6.89602 -1.41652 0
M  V30 4419 C 627.846 5.59201 -1.75185 0
M  V30 4420 N 627.796 4.58301 -0.657969 0
M  V30 4421 H 630.635 8.65116 -0.777161 0
M  V30 4422 H 630.907 6.9022 -0.46725 0
M  V30 4423 H 630.039 7.66548 -2.79458 0
M  V30 4424 H 627.384 5.16165 -2.65183 0
M  V30 4425 H 627.104 7.06433 -0.329384 0
M  V30 4426 H 626.113 6.90926 -1.82021 0
M  V30 4427 H 627.947 8.90873 -1.62657 0
M  V30 4428 P 626.076 8.03563 -3.84925 0
M  V30 4429 O 625.856 8.85821 -5.0569 0
M  V30 4430 O 625.286 8.41101 -2.65469 0
M  V30 4431 O 625.826 6.4965 -4.18908 0
M  V30 4432 C 626.766 5.81037 -5.05421 0
M  V30 4433 C 626.036 4.78366 -5.89277 0
M  V30 4434 O 625.826 3.58302 -5.08433 0
M  V30 4435 C 624.636 5.17448 -6.36119 0
M  V30 4436 O 624.246 4.45271 -7.53232 0
M  V30 4437 C 623.756 4.74639 -5.19936 0
M  V30 4438 C 624.466 3.49432 -4.70418 0
M  V30 4439 N 624.416 3.31776 -3.22945 0
M  V30 4440 H 627.255 6.54213 -5.71376 0
M  V30 4441 H 627.527 5.30492 -4.44033 0
M  V30 4442 H 626.659 4.55889 -6.76652 0
M  V30 4443 P 622.696 4.23843 -7.83734 0
M  V30 4444 O 622.476 4.19407 -9.29784 0
M  V30 4445 O 621.906 5.24426 -7.09156 0
M  V30 4446 O 622.446 2.7935 -7.20758 0
M  V30 4447 C 623.386 1.72945 -7.50224 0
M  V30 4448 C 622.656 0.406376 -7.57911 0
M  V30 4449 O 622.446 -0.0897726 -6.21935 0
M  V30 4450 C 621.256 0.438983 -8.18724 0
M  V30 4451 O 620.866 -0.825065 -8.71101 0
M  V30 4452 C 620.376 0.783689 -6.99524 0
M  V30 4453 C 621.086 0.0619086 -5.85867 0
M  V30 4454 N 621.036 0.78573 -4.56183 0
M  V30 4455 C 620.886 0.0292889 -3.41887 0
M  V30 4456 O 620.796 -1.18445 -3.4419 0
M  V30 4457 N 620.846 0.744061 -2.23964 0
M  V30 4458 C 620.936 2.10932 -2.10362 0
M  V30 4459 O 620.886 2.64117 -0.98825 0
M  V30 4460 C 621.086 2.8202 -3.34994 0
M  V30 4461 C 621.196 4.31095 -3.25037 0
M  V30 4462 C 621.136 2.15547 -4.52261 0
M  V30 4463 H 623.877 1.93379 -8.46595 0
M  V30 4464 H 624.146 1.68132 -6.70852 0
M  V30 4465 H 623.279 -0.289041 -8.15388 0
M  V30 4466 H 620.624 -0.926847 -5.72749 0
M  V30 4467 H 620.345 1.86973 -6.82036 0
M  V30 4468 H 619.353 0.403896 -7.13257 0
M  V30 4469 H 621.187 1.20585 -8.97435 0
M  V30 4470 H 621.258 2.71231 -5.45042 0
M  V30 4471 H 620.228 4.76966 -3.49992 0
M  V30 4472 H 621.965 4.67047 -3.95024 0
M  V30 4473 H 621.477 4.58996 -2.22312 0
M  V30 4474 H 620.741 0.214893 -1.39758 0
M  V30 4475 P 619.316 -1.17771 -8.83182 0
M  V30 4476 O 619.096 -2.07206 -9.98732 0
M  V30 4477 O 618.526 0.0743816 -8.81969 0
M  V30 4478 O 619.066 -1.97652 -7.47304 0
M  V30 4479 C 620.006 -3.01055 -7.08599 0
M  V30 4480 C 619.276 -4.12613 -6.37049 0
M  V30 4481 O 619.066 -3.72827 -4.97879 0
M  V30 4482 C 617.876 -4.45719 -6.88164 0
M  V30 4483 O 617.486 -5.7877 -6.5624 0
M  V30 4484 C 616.996 -3.47768 -6.11991 0
M  V30 4485 C 617.706 -3.39356 -4.77615 0
M  V30 4486 N 617.656 -2.04571 -4.15244 0
M  V30 4487 C 617.506 -1.98587 -2.78314 0
M  V30 4488 O 617.416 -2.98134 -2.08835 0
M  V30 4489 N 617.466 -0.714467 -2.24925 0
M  V30 4490 C 617.556 0.470001 -2.94169 0
M  V30 4491 C 617.706 0.312541 -4.36783 0
M  V30 4492 C 617.756 -0.914512 -4.92583 0
M  V30 4493 H 620.497 -3.41169 -7.98575 0
M  V30 4494 H 620.766 -2.58295 -6.41556 0
M  V30 4495 H 619.899 -5.02657 -6.42673 0
M  V30 4496 H 617.244 -4.11637 -4.08885 0
M  V30 4497 H 616.965 -2.49626 -6.61679 0
M  V30 4498 H 615.973 -3.86566 -6.00778 0
M  V30 4499 H 617.807 -4.29943 -7.96918 0
M  V30 4500 H 617.878 -1.00937 -6.00374 0
M  V30 4501 P 615.936 -6.144 -6.45285 0
M  V30 4502 O 615.716 -7.54673 -6.86199 0
M  V30 4503 O 615.146 -5.12391 -7.179 0
M  V30 4504 O 615.686 -5.99158 -4.88404 0
M  V30 4505 C 616.626 -6.60234 -3.96415 0
M  V30 4506 C 615.896 -7.08259 -2.72856 0
M  V30 4507 O 615.686 -5.9427 -1.83651 0
M  V30 4508 C 614.496 -7.64886 -2.9555 0
M  V30 4509 O 614.106 -8.53963 -1.90717 0
M  V30 4510 C 613.616 -6.4116 -2.90739 0
M  V30 4511 C 614.326 -5.55375 -1.86963 0
M  V30 4512 N 614.276 -4.09448 -2.16152 0
M  V30 4513 H 617.115 -7.45574 -4.45629 0
M  V30 4514 H 617.387 -5.85864 -3.679 0
M  V30 4515 H 616.519 -7.84412 -2.24479 0
M  V30 4516 H 613.864 -5.73457 -0.888562 0
M  V30 4517 H 613.584 -5.90877 -3.88583 0
M  V30 4518 H 612.593 -6.6596 -2.58858 0
M  V30 4519 H 614.427 -8.16339 -3.92049 0
M  V30 4520 P 612.556 -8.7635 -1.60911 0
M  V30 4521 O 612.336 -10.1388 -1.11561 0
M  V30 4522 O 611.766 -8.36503 -2.79617 0
M  V30 4523 O 612.306 -7.71806 -0.42951 0
M  V30 4524 C 613.246 -7.67148 0.673689 0
M  V30 4525 C 612.516 -7.33374 1.95559 0
M  V30 4526 O 612.306 -5.88721 2.00726 0
M  V30 4527 C 611.116 -7.92526 2.10483 0
M  V30 4528 O 610.726 -8.02971 3.47653 0
M  V30 4529 C 610.236 -6.89602 1.41652 0
M  V30 4530 C 610.946 -5.59201 1.75185 0
M  V30 4531 N 610.896 -4.58235 0.662552 0
M  V30 4532 H 613.735 -8.65116 0.777161 0
M  V30 4533 H 614.007 -6.90173 0.474152 0
M  V30 4534 H 613.139 -7.66548 2.79458 0
M  V30 4535 P 609.176 -8.03563 3.84925 0
M  V30 4536 O 608.956 -8.85821 5.0569 0
M  V30 4537 O 608.386 -8.41101 2.65469 0
M  V30 4538 O 608.926 -6.4965 4.18908 0
M  V30 4539 C 609.866 -5.81037 5.05421 0
M  V30 4540 C 609.136 -4.78366 5.89277 0
M  V30 4541 O 608.926 -3.58302 5.08433 0
M  V30 4542 C 607.736 -5.17448 6.36119 0
M  V30 4543 O 607.346 -4.45271 7.53232 0
M  V30 4544 C 606.856 -4.74639 5.19936 0
M  V30 4545 C 607.566 -3.49432 4.70418 0
M  V30 4546 N 607.516 -3.31776 3.22945 0
M  V30 4547 H 610.355 -6.54213 5.71376 0
M  V30 4548 H 610.627 -5.30492 4.44033 0
M  V30 4549 H 609.759 -4.55889 6.76652 0
M  V30 4550 P 605.796 -4.23843 7.83734 0
M  V30 4551 O 605.576 -4.19407 9.29784 0
M  V30 4552 O 605.006 -5.24426 7.09156 0
M  V30 4553 O 605.546 -2.7935 7.20758 0
M  V30 4554 C 606.486 -1.7299 7.50419 0
M  V30 4555 C 605.756 -0.406376 7.57911 0
M  V30 4556 O 605.546 0.0897726 6.21935 0
M  V30 4557 C 604.356 -0.447224 8.1878 0
M  V30 4558 O 603.966 0.825065 8.71101 0
M  V30 4559 C 603.476 -0.783801 6.99623 0
M  V30 4560 C 604.186 -0.0619192 5.85967 0
M  V30 4561 N 604.136 -0.7859 4.56281 0
M  V30 4562 H 606.975 -1.93423 8.4679 0
M  V30 4563 H 607.247 -1.68181 6.71046 0
M  V30 4564 H 606.379 0.289041 8.15388 0
M  V30 4565 P 602.416 1.17771 8.83182 0
M  V30 4566 O 602.196 2.07206 9.98732 0
M  V30 4567 O 601.626 -0.0743816 8.81969 0
M  V30 4568 O 602.166 1.97652 7.47304 0
M  V30 4569 C 603.106 3.01133 7.08783 0
M  V30 4570 C 602.376 4.12613 6.37049 0
M  V30 4571 O 602.166 3.72827 4.97879 0
M  V30 4572 C 600.976 4.45085 6.88694 0
M  V30 4573 O 600.586 5.7877 6.5624 0
M  V30 4574 C 600.096 3.47817 6.12078 0
M  V30 4575 C 600.806 3.39414 4.77697 0
M  V30 4576 N 600.756 2.04615 4.15333 0
M  V30 4577 H 603.595 3.41248 7.98759 0
M  V30 4578 H 603.867 2.5837 6.41742 0
M  V30 4579 H 602.999 5.02657 6.42673 0
M  V30 4580 P 599.036 6.144 6.45285 0
M  V30 4581 O 598.816 7.54673 6.86199 0
M  V30 4582 O 598.246 5.12391 7.179 0
M  V30 4583 O 598.786 5.99158 4.88404 0
M  V30 4584 C 599.726 6.60234 3.96415 0
M  V30 4585 C 598.996 7.08259 2.72856 0
M  V30 4586 O 598.786 5.9427 1.83651 0
M  V30 4587 C 597.596 7.64886 2.9555 0
M  V30 4588 O 597.206 8.53963 1.90717 0
M  V30 4589 C 596.716 6.4116 2.90739 0
M  V30 4590 C 597.426 5.55375 1.86963 0
M  V30 4591 N 597.376 4.09448 2.16152 0
M  V30 4592 H 600.215 7.45574 4.45629 0
M  V30 4593 H 600.487 5.85864 3.679 0
M  V30 4594 H 599.619 7.84412 2.24479 0
M  V30 4595 H 596.964 5.73457 0.888562 0
M  V30 4596 H 596.684 5.90877 3.88583 0
M  V30 4597 H 595.693 6.6596 2.58858 0
M  V30 4598 H 597.527 8.16339 3.92049 0
M  V30 4599 P 595.656 8.7635 1.60911 0
M  V30 4600 O 595.437 10.1388 1.11561 0
M  V30 4601 O 594.866 8.36503 2.79617 0
M  V30 4602 O 595.406 7.71806 0.42951 0
M  V30 4603 C 596.346 7.67148 -0.673689 0
M  V30 4604 C 595.616 7.33374 -1.95559 0
M  V30 4605 O 595.406 5.88721 -2.00726 0
M  V30 4606 C 594.216 7.92526 -2.10483 0
M  V30 4607 O 593.827 8.02971 -3.47653 0
M  V30 4608 C 593.337 6.89602 -1.41652 0
M  V30 4609 C 594.046 5.59201 -1.75185 0
M  V30 4610 N 593.996 4.58235 -0.662552 0
M  V30 4611 H 596.836 8.65116 -0.777161 0
M  V30 4612 H 597.107 6.90173 -0.474152 0
M  V30 4613 H 596.24 7.66548 -2.79458 0
M  V30 4614 P 592.277 8.03563 -3.84925 0
M  V30 4615 O 592.057 8.85821 -5.0569 0
M  V30 4616 O 591.487 8.41101 -2.65469 0
M  V30 4617 O 592.027 6.4965 -4.18908 0
M  V30 4618 C 592.967 5.81037 -5.05421 0
M  V30 4619 C 592.237 4.78366 -5.89277 0
M  V30 4620 O 592.027 3.58302 -5.08433 0
M  V30 4621 C 590.837 5.17448 -6.36119 0
M  V30 4622 O 590.447 4.45271 -7.53232 0
M  V30 4623 C 589.957 4.74639 -5.19936 0
M  V30 4624 C 590.667 3.49432 -4.70418 0
M  V30 4625 N 590.617 3.31776 -3.22945 0
M  V30 4626 H 593.456 6.54213 -5.71376 0
M  V30 4627 H 593.728 5.30492 -4.44033 0
M  V30 4628 H 592.86 4.55889 -6.76652 0
M  V30 4629 P 588.897 4.23843 -7.83734 0
M  V30 4630 O 588.677 4.19407 -9.29784 0
M  V30 4631 O 588.107 5.24426 -7.09156 0
M  V30 4632 O 588.647 2.7935 -7.20758 0
M  V30 4633 C 589.587 1.7299 -7.50419 0
M  V30 4634 C 588.857 0.406376 -7.57911 0
M  V30 4635 O 588.647 -0.0897726 -6.21935 0
M  V30 4636 C 587.457 0.447224 -8.1878 0
M  V30 4637 O 587.067 -0.825065 -8.71101 0
M  V30 4638 C 586.577 0.783801 -6.99623 0
M  V30 4639 C 587.287 0.0619192 -5.85967 0
M  V30 4640 N 587.237 0.790462 -4.56202 0
M  V30 4641 C 587.317 2.13895 -4.34171 0
M  V30 4642 N 587.247 2.46449 -3.08687 0
M  V30 4643 C 587.097 1.2525 -2.43697 0
M  V30 4644 C 586.967 0.914535 -1.07318 0
M  V30 4645 N 586.957 1.80782 -0.0887348 0
M  V30 4646 N 586.847 -0.386745 -0.768133 0
M  V30 4647 C 586.857 -1.28096 -1.75159 0
M  V30 4648 N 586.977 -1.09708 -3.04861 0
M  V30 4649 C 587.097 0.214857 -3.32306 0
M  V30 4650 H 590.076 1.93423 -8.4679 0
M  V30 4651 H 590.348 1.68852 -6.70877 0
M  V30 4652 H 589.48 -0.289041 -8.15388 0
M  V30 4653 H 586.825 -0.927006 -5.72848 0
M  V30 4654 H 586.545 1.86973 -6.82036 0
M  V30 4655 H 585.554 0.403953 -7.13357 0
M  V30 4656 H 587.388 1.20599 -8.97534 0
M  V30 4657 H 587.429 2.86846 -5.14318 0
M  V30 4658 H 587.048 2.81082 -0.302037 0
M  V30 4659 H 586.859 1.49688 0.889064 0
M  V30 4660 H 586.751 -2.31317 -1.43855 0
M  V30 4661 P 585.517 -1.17771 -8.83182 0
M  V30 4662 O 585.297 -2.07206 -9.98732 0
M  V30 4663 O 584.727 0.0743816 -8.81969 0
M  V30 4664 O 585.267 -1.97652 -7.47304 0
M  V30 4665 C 586.207 -3.01133 -7.08783 0
M  V30 4666 C 585.477 -4.12613 -6.37049 0
M  V30 4667 O 585.267 -3.72827 -4.97879 0
M  V30 4668 C 584.077 -4.45085 -6.88694 0
M  V30 4669 O 583.687 -5.7877 -6.5624 0
M  V30 4670 C 583.197 -3.47817 -6.12078 0
M  V30 4671 C 583.907 -3.39414 -4.77697 0
M  V30 4672 N 583.857 -2.04615 -4.15333 0
M  V30 4673 H 586.696 -3.41248 -7.98759 0
M  V30 4674 H 586.968 -2.5837 -6.41742 0
M  V30 4675 H 586.1 -5.02657 -6.42673 0
M  V30 4676 P 582.137 -6.144 -6.45285 0
M  V30 4677 O 581.917 -7.54673 -6.86199 0
M  V30 4678 O 581.347 -5.12391 -7.179 0
M  V30 4679 O 581.887 -5.99158 -4.88404 0
M  V30 4680 C 582.827 -6.60234 -3.96415 0
M  V30 4681 C 582.097 -7.08259 -2.72856 0
M  V30 4682 O 581.887 -5.9427 -1.83651 0
M  V30 4683 C 580.697 -7.64886 -2.9555 0
M  V30 4684 O 580.307 -8.53963 -1.90717 0
M  V30 4685 C 579.817 -6.4116 -2.90739 0
M  V30 4686 C 580.527 -5.55375 -1.86963 0
M  V30 4687 N 580.477 -4.09664 -2.15742 0
M  V30 4688 H 583.316 -7.45574 -4.45629 0
M  V30 4689 H 583.588 -5.86232 -3.67314 0
M  V30 4690 H 582.72 -7.84412 -2.24479 0
M  V30 4691 P 578.757 -8.7635 -1.60911 0
M  V30 4692 O 578.537 -10.1388 -1.11561 0
M  V30 4693 O 577.967 -8.36503 -2.79617 0
M  V30 4694 O 578.507 -7.71806 -0.42951 0
M  V30 4695 C 579.447 -7.67148 0.673689 0
M  V30 4696 C 578.717 -7.33374 1.95559 0
M  V30 4697 O 578.507 -5.88721 2.00726 0
M  V30 4698 C 577.317 -7.92526 2.10483 0
M  V30 4699 O 576.927 -8.02971 3.47653 0
M  V30 4700 C 576.437 -6.89602 1.41652 0
M  V30 4701 C 577.147 -5.59201 1.75185 0
M  V30 4702 N 577.097 -4.58301 0.657969 0
M  V30 4703 H 579.936 -8.65116 0.777161 0
M  V30 4704 H 580.208 -6.9022 0.46725 0
M  V30 4705 H 579.34 -7.66548 2.79458 0
M  V30 4706 H 576.685 -5.16165 2.65183 0
M  V30 4707 H 576.405 -7.06433 0.329384 0
M  V30 4708 H 575.414 -6.90926 1.82021 0
M  V30 4709 H 577.248 -8.90873 1.62657 0
M  V30 4710 P 575.377 -8.03563 3.84925 0
M  V30 4711 O 575.157 -8.85821 5.0569 0
M  V30 4712 O 574.587 -8.41101 2.65469 0
M  V30 4713 O 575.127 -6.4965 4.18908 0
M  V30 4714 C 576.067 -5.81037 5.05421 0
M  V30 4715 C 575.337 -4.78366 5.89277 0
M  V30 4716 O 575.127 -3.58302 5.08433 0
M  V30 4717 C 573.937 -5.17448 6.36119 0
M  V30 4718 O 573.547 -4.45271 7.53232 0
M  V30 4719 C 573.057 -4.74639 5.19936 0
M  V30 4720 C 573.767 -3.49432 4.70418 0
M  V30 4721 N 573.717 -3.31776 3.22945 0
M  V30 4722 H 576.556 -6.54213 5.71376 0
M  V30 4723 H 576.828 -5.30492 4.44033 0
M  V30 4724 H 575.96 -4.55889 6.76652 0
M  V30 4725 P 571.997 -4.23843 7.83734 0
M  V30 4726 O 571.777 -4.19407 9.29784 0
M  V30 4727 O 571.207 -5.24426 7.09156 0
M  V30 4728 O 571.747 -2.7935 7.20758 0
M  V30 4729 C 572.687 -1.7299 7.50419 0
M  V30 4730 C 571.957 -0.406376 7.57911 0
M  V30 4731 O 571.747 0.0897726 6.21935 0
M  V30 4732 C 570.557 -0.447224 8.1878 0
M  V30 4733 O 570.167 0.825065 8.71101 0
M  V30 4734 C 569.677 -0.783801 6.99623 0
M  V30 4735 C 570.387 -0.0619192 5.85967 0
M  V30 4736 N 570.337 -0.790462 4.56202 0
M  V30 4737 H 573.176 -1.93423 8.4679 0
M  V30 4738 H 573.448 -1.68852 6.70877 0
M  V30 4739 H 572.58 0.289041 8.15388 0
M  V30 4740 H 569.925 0.927006 5.72848 0
M  V30 4741 H 569.645 -1.86973 6.82036 0
M  V30 4742 H 568.654 -0.403953 7.13357 0
M  V30 4743 H 570.488 -1.20599 8.97534 0
M  V30 4744 P 568.617 1.17771 8.83182 0
M  V30 4745 O 568.397 2.07206 9.98732 0
M  V30 4746 O 567.827 -0.0743816 8.81969 0
M  V30 4747 O 568.367 1.97678 7.474 0
M  V30 4748 C 569.307 3.01133 7.08783 0
M  V30 4749 C 568.577 4.1203 6.37546 0
M  V30 4750 O 568.367 3.72887 4.9796 0
M  V30 4751 C 567.177 4.45085 6.88694 0
M  V30 4752 O 566.787 5.78836 6.56315 0
M  V30 4753 C 566.297 3.47817 6.12078 0
M  V30 4754 C 567.007 3.39414 4.77697 0
M  V30 4755 N 566.957 2.04615 4.15333 0
M  V30 4756 C 566.807 1.96929 2.77162 0
M  V30 4757 O 566.717 3.02017 2.12006 0
M  V30 4758 N 566.757 0.55485 2.24237 0
M  V30 4759 C 566.857 -0.367808 2.9169 0
M  V30 4760 N 566.807 -1.53426 2.29427 0
M  V30 4761 C 567.007 -0.319148 4.33828 0
M  V30 4762 C 567.057 0.920672 4.90433 0
M  V30 4763 H 569.797 3.41209 7.98667 0
M  V30 4764 H 570.067 2.5837 6.41742 0
M  V30 4765 H 569.2 5.02718 6.42752 0
M  V30 4766 H 566.545 4.11779 4.09026 0
M  V30 4767 H 566.265 2.49661 6.61772 0
M  V30 4768 H 565.274 3.86674 6.00946 0
M  V30 4769 H 567.108 4.29991 7.97006 0
M  V30 4770 H 567.18 1.00589 5.98303 0
M  V30 4771 H 567.078 -1.22639 4.93799 0
M  V30 4772 H 566.69 -1.56819 1.27167 0
M  V30 4773 H 566.886 -2.41062 2.83063 0
M  V30 4774 P 565.237 6.144 6.45285 0
M  V30 4775 O 565.017 7.54673 6.86199 0
M  V30 4776 O 564.447 5.12391 7.179 0
M  V30 4777 O 564.987 5.99158 4.88404 0
M  V30 4778 C 565.927 6.60234 3.96415 0
M  V30 4779 C 565.197 7.08259 2.72856 0
M  V30 4780 O 564.987 5.9427 1.83651 0
M  V30 4781 C 563.797 7.64886 2.9555 0
M  V30 4782 O 563.407 8.53963 1.90717 0
M  V30 4783 C 562.917 6.4116 2.90739 0
M  V30 4784 C 563.627 5.55375 1.86963 0
M  V30 4785 N 563.577 4.09664 2.15742 0
M  V30 4786 H 566.416 7.45574 4.45629 0
M  V30 4787 H 566.688 5.86232 3.67314 0
M  V30 4788 H 565.82 7.84412 2.24479 0
M  V30 4789 P 561.857 8.7635 1.60911 0
M  V30 4790 O 561.637 10.1388 1.11561 0
M  V30 4791 O 561.067 8.36503 2.79617 0
M  V30 4792 O 561.607 7.71806 0.42951 0
M  V30 4793 C 562.547 7.66948 -0.673514 0
M  V30 4794 C 561.817 7.33374 -1.95559 0
M  V30 4795 O 561.607 5.88721 -2.00726 0
M  V30 4796 C 560.417 7.92218 -2.1125 0
M  V30 4797 O 560.027 8.02971 -3.47653 0
M  V30 4798 C 559.537 6.89504 -1.41631 0
M  V30 4799 C 560.247 5.59106 -1.75155 0
M  V30 4800 N 560.197 4.58136 -0.662409 0
M  V30 4801 C 560.047 3.26059 -1.02863 0
M  V30 4802 O 559.957 2.90743 -2.19009 0
M  V30 4803 N 560.007 2.35995 0.0155585 0
M  V30 4804 C 560.097 2.65248 1.35603 0
M  V30 4805 O 560.047 1.75605 2.20651 0
M  V30 4806 C 560.247 4.05747 1.64698 0
M  V30 4807 C 560.357 4.42345 3.09553 0
M  V30 4808 C 560.297 4.96734 0.652411 0
M  V30 4809 H 563.038 8.64917 -0.776982 0
M  V30 4810 H 563.307 6.89974 -0.474015 0
M  V30 4811 H 562.44 7.66548 -2.79458 0
M  V30 4812 H 559.785 5.16076 -2.65138 0
M  V30 4813 H 559.506 7.06433 -0.329384 0
M  V30 4814 H 558.514 6.90829 -1.81996 0
M  V30 4815 H 560.348 8.90774 -1.62639 0
M  V30 4816 H 560.419 6.02181 0.895285 0
M  V30 4817 H 559.389 4.80252 3.45468 0
M  V30 4818 H 561.126 5.20015 3.22119 0
M  V30 4819 H 560.638 3.53269 3.67833 0
M  V30 4820 H 559.902 1.39558 -0.227499 0
M  V30 4821 P 558.477 8.03563 -3.84925 0
M  V30 4822 O 558.257 8.85821 -5.0569 0
M  V30 4823 O 557.687 8.41101 -2.65469 0
M  V30 4824 O 558.227 6.4965 -4.18908 0
M  V30 4825 C 559.167 5.80886 -5.05289 0
M  V30 4826 C 558.437 4.78366 -5.89277 0
M  V30 4827 O 558.227 3.58302 -5.08433 0
M  V30 4828 C 557.037 5.16748 -6.36559 0
M  V30 4829 O 556.647 4.45271 -7.53232 0
M  V30 4830 C 556.157 4.74572 -5.19863 0
M  V30 4831 C 556.867 3.49373 -4.70338 0
M  V30 4832 N 556.817 3.31704 -3.22876 0
M  V30 4833 C 556.667 2.03326 -2.74871 0
M  V30 4834 O 556.577 1.06486 -3.48076 0
M  V30 4835 N 556.627 1.91838 -1.37456 0
M  V30 4836 C 556.717 2.94295 -0.462035 0
M  V30 4837 C 556.867 4.25064 -1.05249 0
M  V30 4838 C 556.917 4.40214 -2.39192 0
M  V30 4839 H 559.658 6.54063 -5.71245 0
M  V30 4840 H 559.927 5.30339 -4.43905 0
M  V30 4841 H 559.06 4.55889 -6.76652 0
M  V30 4842 H 556.405 2.6167 -5.17842 0
M  V30 4843 H 556.126 5.52155 -4.41878 0
M  V30 4844 H 555.134 4.51918 -5.53297 0
M  V30 4845 H 556.968 6.25055 -6.55162 0
M  V30 4846 H 557.039 5.39798 -2.81523 0
M  V30 4847 P 555.097 4.23843 -7.83734 0
M  V30 4848 O 554.877 4.19407 -9.29784 0
M  V30 4849 O 554.307 5.24426 -7.09156 0
M  V30 4850 O 554.847 2.7935 -7.20758 0
M  V30 4851 C 555.787 1.7299 -7.50419 0
M  V30 4852 C 555.057 0.406376 -7.57911 0
M  V30 4853 O 554.847 -0.0897726 -6.21935 0
M  V30 4854 C 553.657 0.447224 -8.1878 0
M  V30 4855 O 553.267 -0.825065 -8.71101 0
M  V30 4856 C 552.777 0.783801 -6.99623 0
M  V30 4857 C 553.487 0.0619192 -5.85967 0
M  V30 4858 N 553.437 0.790462 -4.56202 0
M  V30 4859 H 556.276 1.93423 -8.4679 0
M  V30 4860 H 556.548 1.68852 -6.70877 0
M  V30 4861 H 555.68 -0.289041 -8.15388 0
M  V30 4862 H 553.025 -0.927006 -5.72848 0
M  V30 4863 H 552.745 1.86973 -6.82036 0
M  V30 4864 H 551.754 0.403953 -7.13357 0
M  V30 4865 H 553.588 1.20599 -8.97534 0
M  V30 4866 P 551.717 -1.17771 -8.83182 0
M  V30 4867 O 551.497 -2.07206 -9.98732 0
M  V30 4868 O 550.927 0.0743816 -8.81969 0
M  V30 4869 O 551.467 -1.97652 -7.47304 0
M  V30 4870 C 552.407 -3.01133 -7.08783 0
M  V30 4871 C 551.677 -4.12613 -6.37049 0
M  V30 4872 O 551.467 -3.72827 -4.97879 0
M  V30 4873 C 550.277 -4.45085 -6.88694 0
M  V30 4874 O 549.887 -5.7877 -6.5624 0
M  V30 4875 C 549.397 -3.47817 -6.12078 0
M  V30 4876 C 550.107 -3.39414 -4.77697 0
M  V30 4877 N 550.057 -2.04615 -4.15333 0
M  V30 4878 H 552.896 -3.41248 -7.98759 0
M  V30 4879 H 553.168 -2.5837 -6.41742 0
M  V30 4880 H 552.3 -5.02657 -6.42673 0
M  V30 4881 P 548.337 -6.144 -6.45285 0
M  V30 4882 O 548.117 -7.54673 -6.86199 0
M  V30 4883 O 547.547 -5.12391 -7.179 0
M  V30 4884 O 548.087 -5.99158 -4.88404 0
M  V30 4885 C 549.027 -6.60234 -3.96415 0
M  V30 4886 C 548.297 -7.08259 -2.72856 0
M  V30 4887 O 548.087 -5.9427 -1.83651 0
M  V30 4888 C 546.897 -7.64886 -2.9555 0
M  V30 4889 O 546.507 -8.53963 -1.90717 0
M  V30 4890 C 546.017 -6.4116 -2.90739 0
M  V30 4891 C 546.727 -5.55375 -1.86963 0
M  V30 4892 N 546.677 -4.09664 -2.15742 0
M  V30 4893 H 549.516 -7.45574 -4.45629 0
M  V30 4894 H 549.788 -5.86232 -3.67314 0
M  V30 4895 H 548.92 -7.84412 -2.24479 0
M  V30 4896 P 544.957 -8.7635 -1.60911 0
M  V30 4897 O 544.737 -10.1388 -1.11561 0
M  V30 4898 O 544.167 -8.36503 -2.79617 0
M  V30 4899 O 544.707 -7.71806 -0.42951 0
M  V30 4900 C 545.647 -7.66948 0.673514 0
M  V30 4901 C 544.917 -7.33374 1.95559 0
M  V30 4902 O 544.707 -5.88721 2.00726 0
M  V30 4903 C 543.517 -7.92218 2.1125 0
M  V30 4904 O 543.127 -8.02971 3.47653 0
M  V30 4905 C 542.637 -6.89504 1.41631 0
M  V30 4906 C 543.347 -5.59106 1.75155 0
M  V30 4907 N 543.297 -4.58136 0.662409 0
M  V30 4908 C 543.147 -3.26059 1.02863 0
M  V30 4909 O 543.057 -2.90743 2.19009 0
M  V30 4910 N 543.107 -2.35995 -0.0155585 0
M  V30 4911 C 543.197 -2.65248 -1.35603 0
M  V30 4912 C 543.347 -4.05747 -1.64698 0
M  V30 4913 C 543.397 -4.96734 -0.652411 0
M  V30 4914 H 546.138 -8.64917 0.776982 0
M  V30 4915 H 546.407 -6.89974 0.474015 0
M  V30 4916 H 545.54 -7.66548 2.79458 0
M  V30 4917 H 542.885 -5.16076 2.65138 0
M  V30 4918 H 542.606 -7.06433 0.329384 0
M  V30 4919 H 541.614 -6.90829 1.81996 0
M  V30 4920 H 543.448 -8.90774 1.62639 0
M  V30 4921 H 543.519 -6.02181 -0.895285 0
M  V30 4922 P 541.577 -8.03563 3.84925 0
M  V30 4923 O 541.357 -8.85821 5.0569 0
M  V30 4924 O 540.787 -8.41101 2.65469 0
M  V30 4925 O 541.327 -6.4965 4.18908 0
M  V30 4926 C 542.267 -5.81037 5.05421 0
M  V30 4927 C 541.537 -4.78366 5.89277 0
M  V30 4928 O 541.327 -3.58302 5.08433 0
M  V30 4929 C 540.137 -5.17448 6.36119 0
M  V30 4930 O 539.747 -4.45271 7.53232 0
M  V30 4931 C 539.257 -4.74639 5.19936 0
M  V30 4932 C 539.967 -3.49432 4.70418 0
M  V30 4933 N 539.917 -3.31776 3.22945 0
M  V30 4934 H 542.756 -6.54213 5.71376 0
M  V30 4935 H 543.028 -5.30492 4.44033 0
M  V30 4936 H 542.16 -4.55889 6.76652 0
M  V30 4937 P 538.197 -4.23843 7.83734 0
M  V30 4938 O 537.977 -4.19407 9.29784 0
M  V30 4939 O 537.407 -5.24426 7.09156 0
M  V30 4940 O 537.947 -2.7935 7.20758 0
M  V30 4941 C 538.887 -1.7299 7.50419 0
M  V30 4942 C 538.157 -0.406376 7.57911 0
M  V30 4943 O 537.947 0.0897726 6.21935 0
M  V30 4944 C 536.757 -0.447224 8.1878 0
M  V30 4945 O 536.367 0.825065 8.71101 0
M  V30 4946 C 535.877 -0.783801 6.99623 0
M  V30 4947 C 536.587 -0.0619192 5.85967 0
M  V30 4948 N 536.537 -0.7859 4.56281 0
M  V30 4949 H 539.376 -1.93423 8.4679 0
M  V30 4950 H 539.648 -1.68181 6.71046 0
M  V30 4951 H 538.78 0.289041 8.15388 0
M  V30 4952 P 534.817 1.17771 8.83182 0
M  V30 4953 O 534.597 2.07206 9.98732 0
M  V30 4954 O 534.027 -0.0743816 8.81969 0
M  V30 4955 O 534.567 1.97652 7.47304 0
M  V30 4956 C 535.507 3.01133 7.08783 0
M  V30 4957 C 534.777 4.12613 6.37049 0
M  V30 4958 O 534.567 3.72827 4.97879 0
M  V30 4959 C 533.377 4.45085 6.88694 0
M  V30 4960 O 532.987 5.7877 6.5624 0
M  V30 4961 C 532.497 3.47817 6.12078 0
M  V30 4962 C 533.207 3.39414 4.77697 0
M  V30 4963 N 533.157 2.04615 4.15333 0
M  V30 4964 C 533.237 0.803897 4.75249 0
M  V30 4965 N 533.157 -0.197615 3.91502 0
M  V30 4966 C 533.017 0.413002 2.66823 0
M  V30 4967 C 532.887 -0.157221 1.38007 0
M  V30 4968 N 532.767 0.833136 0.390236 0
M  V30 4969 C 532.767 2.19402 0.623885 0
M  V30 4970 N 532.637 2.97622 -0.449677 0
M  V30 4971 N 532.897 2.73005 1.83601 0
M  V30 4972 C 533.017 1.78786 2.80935 0
M  V30 4973 H 535.996 3.41248 7.98759 0
M  V30 4974 H 536.268 2.5837 6.41742 0
M  V30 4975 H 535.4 5.02657 6.42673 0
M  V30 4976 P 531.437 6.144 6.45285 0
M  V30 4977 O 531.217 7.54673 6.86199 0
M  V30 4978 O 530.647 5.12391 7.179 0
M  V30 4979 O 531.187 5.99158 4.88404 0
M  V30 4980 C 532.127 6.60062 3.96313 0
M  V30 4981 C 531.397 7.08259 2.72856 0
M  V30 4982 O 531.187 5.9427 1.83651 0
M  V30 4983 C 529.997 7.65087 2.94749 0
M  V30 4984 O 529.607 8.53963 1.90717 0
M  V30 4985 C 529.117 6.41069 2.90698 0
M  V30 4986 C 529.827 5.5528 1.86931 0
M  V30 4987 N 529.777 4.09575 2.15696 0
M  V30 4988 C 529.627 3.24249 1.08435 0
M  V30 4989 O 529.537 3.63946 -0.0628747 0
M  V30 4990 N 529.587 1.90009 1.39973 0
M  V30 4991 C 529.677 1.34884 2.65614 0
M  V30 4992 O 529.627 0.123716 2.81728 0
M  V30 4993 C 529.827 2.3145 3.71736 0
M  V30 4994 C 529.937 1.75913 5.10438 0
M  V30 4995 C 529.877 3.63518 3.44754 0
M  V30 4996 H 532.618 7.45402 4.45526 0
M  V30 4997 H 532.887 5.86062 3.67208 0
M  V30 4998 H 532.02 7.84412 2.24479 0
M  V30 4999 H 529.365 5.73358 0.888409 0
M  V30 5000 H 529.086 5.90877 3.88583 0
M  V30 5001 H 528.094 6.65867 2.58821 0
M  V30 5002 H 529.928 8.16248 3.92006 0
M  V30 5003 H 529.999 4.34551 4.26383 0
M  V30 5004 H 528.969 1.85471 5.61775 0
M  V30 5005 H 530.706 2.31364 5.66257 0
M  V30 5006 H 530.218 0.695936 5.05229 0
M  V30 5007 H 529.482 1.26277 0.63625 0
M  V30 5008 P 528.057 8.7635 1.60911 0
M  V30 5009 O 527.837 10.1388 1.11561 0
M  V30 5010 O 527.267 8.36503 2.79617 0
M  V30 5011 O 527.807 7.71806 0.42951 0
M  V30 5012 C 528.747 7.67148 -0.673689 0
M  V30 5013 C 528.017 7.33374 -1.95559 0
M  V30 5014 O 527.807 5.88721 -2.00726 0
M  V30 5015 C 526.617 7.92526 -2.10483 0
M  V30 5016 O 526.227 8.02971 -3.47653 0
M  V30 5017 C 525.737 6.89602 -1.41652 0
M  V30 5018 C 526.447 5.59201 -1.75185 0
M  V30 5019 N 526.397 4.58235 -0.662552 0
M  V30 5020 H 529.236 8.65116 -0.777161 0
M  V30 5021 H 529.508 6.90173 -0.474152 0
M  V30 5022 H 528.64 7.66548 -2.79458 0
M  V30 5023 P 524.677 8.03563 -3.84925 0
M  V30 5024 O 524.457 8.85821 -5.0569 0
M  V30 5025 O 523.887 8.41101 -2.65469 0
M  V30 5026 O 524.427 6.4965 -4.18908 0
M  V30 5027 C 525.367 5.81037 -5.05421 0
M  V30 5028 C 524.637 4.78366 -5.89277 0
M  V30 5029 O 524.427 3.58302 -5.08433 0
M  V30 5030 C 523.237 5.17448 -6.36119 0
M  V30 5031 O 522.847 4.45271 -7.53232 0
M  V30 5032 C 522.357 4.74639 -5.19936 0
M  V30 5033 C 523.067 3.49432 -4.70418 0
M  V30 5034 N 523.017 3.31776 -3.22945 0
M  V30 5035 H 525.856 6.54213 -5.71376 0
M  V30 5036 H 526.128 5.30492 -4.44033 0
M  V30 5037 H 525.26 4.55889 -6.76652 0
M  V30 5038 P 521.297 4.23843 -7.83734 0
M  V30 5039 O 521.077 4.19407 -9.29784 0
M  V30 5040 O 520.507 5.24426 -7.09156 0
M  V30 5041 O 521.047 2.7935 -7.20758 0
M  V30 5042 C 521.987 1.7299 -7.50419 0
M  V30 5043 C 521.257 0.406376 -7.57911 0
M  V30 5044 O 521.047 -0.0897726 -6.21935 0
M  V30 5045 C 519.857 0.447224 -8.1878 0
M  V30 5046 O 519.467 -0.825065 -8.71101 0
M  V30 5047 C 518.977 0.783801 -6.99623 0
M  V30 5048 C 519.687 0.0619192 -5.85967 0
M  V30 5049 N 519.637 0.7859 -4.56281 0
M  V30 5050 H 522.476 1.93423 -8.4679 0
M  V30 5051 H 522.748 1.68181 -6.71046 0
M  V30 5052 H 521.88 -0.289041 -8.15388 0
M  V30 5053 P 517.917 -1.17771 -8.83182 0
M  V30 5054 O 517.697 -2.07206 -9.98732 0
M  V30 5055 O 517.127 0.0743816 -8.81969 0
M  V30 5056 O 517.667 -1.97652 -7.47304 0
M  V30 5057 C 518.607 -3.01133 -7.08783 0
M  V30 5058 C 517.877 -4.12613 -6.37049 0
M  V30 5059 O 517.667 -3.72827 -4.97879 0
M  V30 5060 C 516.477 -4.45085 -6.88694 0
M  V30 5061 O 516.087 -5.7877 -6.5624 0
M  V30 5062 C 515.597 -3.47817 -6.12078 0
M  V30 5063 C 516.307 -3.39414 -4.77697 0
M  V30 5064 N 516.257 -2.04615 -4.15333 0
M  V30 5065 H 519.096 -3.41248 -7.98759 0
M  V30 5066 H 519.368 -2.5837 -6.41742 0
M  V30 5067 H 518.5 -5.02657 -6.42673 0
M  V30 5068 P 514.537 -6.144 -6.45285 0
M  V30 5069 O 514.317 -7.54673 -6.86199 0
M  V30 5070 O 513.747 -5.12391 -7.179 0
M  V30 5071 O 514.287 -5.99158 -4.88404 0
M  V30 5072 C 515.227 -6.60234 -3.96415 0
M  V30 5073 C 514.497 -7.08259 -2.72856 0
M  V30 5074 O 514.287 -5.9427 -1.83651 0
M  V30 5075 C 513.097 -7.64886 -2.9555 0
M  V30 5076 O 512.707 -8.53963 -1.90717 0
M  V30 5077 C 512.217 -6.4116 -2.90739 0
M  V30 5078 C 512.927 -5.55375 -1.86963 0
M  V30 5079 N 512.877 -4.09664 -2.15742 0
M  V30 5080 H 515.716 -7.45574 -4.45629 0
M  V30 5081 H 515.988 -5.86232 -3.67314 0
M  V30 5082 H 515.12 -7.84412 -2.24479 0
M  V30 5083 P 511.157 -8.7635 -1.60911 0
M  V30 5084 O 510.937 -10.1388 -1.11561 0
M  V30 5085 O 510.367 -8.36503 -2.79617 0
M  V30 5086 O 510.907 -7.71806 -0.42951 0
M  V30 5087 C 511.847 -7.67148 0.673689 0
M  V30 5088 C 511.117 -7.33374 1.95559 0
M  V30 5089 O 510.907 -5.88721 2.00726 0
M  V30 5090 C 509.717 -7.92526 2.10483 0
M  V30 5091 O 509.327 -8.02971 3.47653 0
M  V30 5092 C 508.837 -6.89602 1.41652 0
M  V30 5093 C 509.547 -5.59201 1.75185 0
M  V30 5094 N 509.497 -4.58235 0.662552 0
M  V30 5095 H 512.336 -8.65116 0.777161 0
M  V30 5096 H 512.608 -6.90173 0.474152 0
M  V30 5097 H 511.74 -7.66548 2.79458 0
M  V30 5098 P 507.777 -8.03563 3.84925 0
M  V30 5099 O 507.557 -8.85821 5.0569 0
M  V30 5100 O 506.987 -8.41101 2.65469 0
M  V30 5101 O 507.527 -6.4965 4.18908 0
M  V30 5102 C 508.467 -5.81037 5.05421 0
M  V30 5103 C 507.737 -4.78366 5.89277 0
M  V30 5104 O 507.527 -3.58302 5.08433 0
M  V30 5105 C 506.337 -5.17448 6.36119 0
M  V30 5106 O 505.947 -4.45271 7.53232 0
M  V30 5107 C 505.457 -4.74639 5.19936 0
M  V30 5108 C 506.167 -3.49432 4.70418 0
M  V30 5109 N 506.117 -3.31776 3.22945 0
M  V30 5110 H 508.956 -6.54213 5.71376 0
M  V30 5111 H 509.228 -5.30492 4.44033 0
M  V30 5112 H 508.36 -4.55889 6.76652 0
M  V30 5113 P 504.397 -4.23843 7.83734 0
M  V30 5114 O 504.177 -4.19407 9.29784 0
M  V30 5115 O 503.607 -5.24426 7.09156 0
M  V30 5116 O 504.147 -2.7935 7.20758 0
M  V30 5117 C 505.087 -1.7299 7.50419 0
M  V30 5118 C 504.357 -0.406376 7.57911 0
M  V30 5119 O 504.147 0.0897726 6.21935 0
M  V30 5120 C 502.957 -0.447224 8.1878 0
M  V30 5121 O 502.567 0.825065 8.71101 0
M  V30 5122 C 502.077 -0.783801 6.99623 0
M  V30 5123 C 502.787 -0.0619192 5.85967 0
M  V30 5124 N 502.737 -0.790462 4.56202 0
M  V30 5125 H 505.576 -1.93423 8.4679 0
M  V30 5126 H 505.848 -1.68852 6.70877 0
M  V30 5127 H 504.98 0.289041 8.15388 0
M  V30 5128 H 502.325 0.927006 5.72848 0
M  V30 5129 H 502.045 -1.86973 6.82036 0
M  V30 5130 H 501.054 -0.403953 7.13357 0
M  V30 5131 H 502.888 -1.20599 8.97534 0
M  V30 5132 P 501.017 1.17771 8.83182 0
M  V30 5133 O 500.797 2.07206 9.98732 0
M  V30 5134 O 500.227 -0.0743816 8.81969 0
M  V30 5135 O 500.767 1.97652 7.47304 0
M  V30 5136 C 501.707 3.01133 7.08783 0
M  V30 5137 C 500.977 4.12613 6.37049 0
M  V30 5138 O 500.767 3.72827 4.97879 0
M  V30 5139 C 499.577 4.45085 6.88694 0
M  V30 5140 O 499.187 5.7877 6.5624 0
M  V30 5141 C 498.697 3.47817 6.12078 0
M  V30 5142 C 499.407 3.39414 4.77697 0
M  V30 5143 N 499.357 2.04615 4.15333 0
M  V30 5144 H 502.196 3.41248 7.98759 0
M  V30 5145 H 502.468 2.5837 6.41742 0
M  V30 5146 H 501.6 5.02657 6.42673 0
M  V30 5147 P 497.637 6.144 6.45285 0
M  V30 5148 O 497.417 7.54673 6.86199 0
M  V30 5149 O 496.847 5.12391 7.179 0
M  V30 5150 O 497.387 5.99236 4.88467 0
M  V30 5151 C 498.327 6.60234 3.96415 0
M  V30 5152 C 497.597 7.08079 2.736 0
M  V30 5153 O 497.387 5.94365 1.8368 0
M  V30 5154 C 496.197 7.64886 2.9555 0
M  V30 5155 O 495.807 8.5406 1.90739 0
M  V30 5156 C 495.317 6.4116 2.90739 0
M  V30 5157 C 496.027 5.55375 1.86963 0
M  V30 5158 N 495.977 4.09664 2.15742 0
M  V30 5159 C 495.827 3.22231 1.08477 0
M  V30 5160 O 495.737 3.68951 -0.0600489 0
M  V30 5161 N 495.777 1.76692 1.48799 0
M  V30 5162 C 495.877 1.41695 2.57602 0
M  V30 5163 N 495.827 0.107296 2.75791 0
M  V30 5164 C 496.027 2.29178 3.69733 0
M  V30 5165 C 496.077 3.62753 3.42653 0
M  V30 5166 H 498.817 7.45488 4.45578 0
M  V30 5167 H 499.087 5.86232 3.67314 0
M  V30 5168 H 498.22 7.84508 2.24507 0
M  V30 5169 H 495.565 5.73556 0.888715 0
M  V30 5170 H 495.285 5.9096 3.88638 0
M  V30 5171 H 494.294 6.66053 2.58894 0
M  V30 5172 H 496.128 8.16339 3.92049 0
M  V30 5173 H 496.2 4.33052 4.24913 0
M  V30 5174 H 496.098 1.9103 4.71577 0
M  V30 5175 H 495.71 -0.521221 1.95056 0
M  V30 5176 H 495.906 -0.286429 3.70695 0
M  V30 5177 P 494.257 8.7635 1.60911 0
M  V30 5178 O 494.037 10.1388 1.11561 0
M  V30 5179 O 493.467 8.36503 2.79617 0
M  V30 5180 O 494.007 7.71806 0.42951 0
M  V30 5181 C 494.947 7.67148 -0.673689 0
M  V30 5182 C 494.217 7.33374 -1.95559 0
M  V30 5183 O 494.007 5.88721 -2.00726 0
M  V30 5184 C 492.817 7.92526 -2.10483 0
M  V30 5185 O 492.427 8.02971 -3.47653 0
M  V30 5186 C 491.937 6.89602 -1.41652 0
M  V30 5187 C 492.647 5.59201 -1.75185 0
M  V30 5188 N 492.597 4.58235 -0.662552 0
M  V30 5189 H 495.436 8.65116 -0.777161 0
M  V30 5190 H 495.708 6.90173 -0.474152 0
M  V30 5191 H 494.84 7.66548 -2.79458 0
M  V30 5192 P 490.877 8.03563 -3.84925 0
M  V30 5193 O 490.657 8.85821 -5.0569 0
M  V30 5194 O 490.087 8.41101 -2.65469 0
M  V30 5195 O 490.627 6.4965 -4.18908 0
M  V30 5196 C 491.567 5.81037 -5.05421 0
M  V30 5197 C 490.837 4.78366 -5.89277 0
M  V30 5198 O 490.627 3.58302 -5.08433 0
M  V30 5199 C 489.437 5.17448 -6.36119 0
M  V30 5200 O 489.047 4.45271 -7.53232 0
M  V30 5201 C 488.557 4.74639 -5.19936 0
M  V30 5202 C 489.267 3.49432 -4.70418 0
M  V30 5203 N 489.217 3.31776 -3.22945 0
M  V30 5204 H 492.056 6.54213 -5.71376 0
M  V30 5205 H 492.328 5.30492 -4.44033 0
M  V30 5206 H 491.46 4.55889 -6.76652 0
M  V30 5207 P 487.497 4.23843 -7.83734 0
M  V30 5208 O 487.277 4.19407 -9.29784 0
M  V30 5209 O 486.707 5.24426 -7.09156 0
M  V30 5210 O 487.247 2.7935 -7.20758 0
M  V30 5211 C 488.187 1.7299 -7.50419 0
M  V30 5212 C 487.457 0.406376 -7.57911 0
M  V30 5213 O 487.247 -0.0897726 -6.21935 0
M  V30 5214 C 486.057 0.447224 -8.1878 0
M  V30 5215 O 485.667 -0.825065 -8.71101 0
M  V30 5216 C 485.177 0.783801 -6.99623 0
M  V30 5217 C 485.887 0.0619192 -5.85967 0
M  V30 5218 N 485.837 0.7859 -4.56281 0
M  V30 5219 H 488.676 1.93423 -8.4679 0
M  V30 5220 H 488.948 1.68181 -6.71046 0
M  V30 5221 H 488.08 -0.289041 -8.15388 0
M  V30 5222 P 484.117 -1.17771 -8.83182 0
M  V30 5223 O 483.897 -2.07206 -9.98732 0
M  V30 5224 O 483.327 0.0743816 -8.81969 0
M  V30 5225 O 483.867 -1.97652 -7.47304 0
M  V30 5226 C 484.807 -3.01133 -7.08783 0
M  V30 5227 C 484.077 -4.12613 -6.37049 0
M  V30 5228 O 483.867 -3.72827 -4.97879 0
M  V30 5229 C 482.677 -4.45085 -6.88694 0
M  V30 5230 O 482.287 -5.7877 -6.5624 0
M  V30 5231 C 481.797 -3.47817 -6.12078 0
M  V30 5232 C 482.507 -3.39414 -4.77697 0
M  V30 5233 N 482.457 -2.04615 -4.15333 0
M  V30 5234 C 482.537 -0.803897 -4.75249 0
M  V30 5235 N 482.457 0.197615 -3.91502 0
M  V30 5236 C 482.317 -0.413002 -2.66823 0
M  V30 5237 C 482.187 0.157221 -1.38007 0
M  V30 5238 N 482.067 -0.833136 -0.390236 0
M  V30 5239 C 482.067 -2.19402 -0.623885 0
M  V30 5240 N 481.937 -2.97622 0.449677 0
M  V30 5241 N 482.197 -2.73005 -1.83601 0
M  V30 5242 C 482.317 -1.78786 -2.80935 0
M  V30 5243 H 485.296 -3.41248 -7.98759 0
M  V30 5244 H 485.568 -2.5837 -6.41742 0
M  V30 5245 H 484.7 -5.02657 -6.42673 0
M  V30 5246 P 480.737 -6.144 -6.45285 0
M  V30 5247 O 480.517 -7.54673 -6.86199 0
M  V30 5248 O 479.947 -5.12391 -7.179 0
M  V30 5249 O 480.487 -5.99158 -4.88404 0
M  V30 5250 C 481.427 -6.60234 -3.96415 0
M  V30 5251 C 480.697 -7.08259 -2.72856 0
M  V30 5252 O 480.487 -5.9427 -1.83651 0
M  V30 5253 C 479.297 -7.64886 -2.9555 0
M  V30 5254 O 478.907 -8.53963 -1.90717 0
M  V30 5255 C 478.417 -6.4116 -2.90739 0
M  V30 5256 C 479.127 -5.55375 -1.86963 0
M  V30 5257 N 479.077 -4.09664 -2.15742 0
M  V30 5258 H 481.916 -7.45574 -4.45629 0
M  V30 5259 H 482.188 -5.86232 -3.67314 0
M  V30 5260 H 481.32 -7.84412 -2.24479 0
M  V30 5261 P 477.357 -8.7635 -1.60911 0
M  V30 5262 O 477.137 -10.1388 -1.11561 0
M  V30 5263 O 476.567 -8.36503 -2.79617 0
M  V30 5264 O 477.107 -7.71806 -0.42951 0
M  V30 5265 C 478.047 -7.67148 0.673689 0
M  V30 5266 C 477.317 -7.33374 1.95559 0
M  V30 5267 O 477.107 -5.88721 2.00726 0
M  V30 5268 C 475.917 -7.92526 2.10483 0
M  V30 5269 O 475.527 -8.02971 3.47653 0
M  V30 5270 C 475.037 -6.89602 1.41652 0
M  V30 5271 C 475.747 -5.59201 1.75185 0
M  V30 5272 N 475.697 -4.58301 0.657969 0
M  V30 5273 H 478.536 -8.65116 0.777161 0
M  V30 5274 H 478.808 -6.9022 0.46725 0
M  V30 5275 H 477.94 -7.66548 2.79458 0
M  V30 5276 H 475.285 -5.16165 2.65183 0
M  V30 5277 H 475.005 -7.06433 0.329384 0
M  V30 5278 H 474.014 -6.90926 1.82021 0
M  V30 5279 H 475.848 -8.90873 1.62657 0
M  V30 5280 P 473.977 -8.03563 3.84925 0
M  V30 5281 O 473.757 -8.85821 5.0569 0
M  V30 5282 O 473.187 -8.41101 2.65469 0
M  V30 5283 O 473.727 -6.49734 4.18962 0
M  V30 5284 C 474.667 -5.81037 5.05421 0
M  V30 5285 C 473.937 -4.79018 5.88876 0
M  V30 5286 O 473.727 -3.58359 5.08515 0
M  V30 5287 C 472.537 -5.17448 6.36119 0
M  V30 5288 O 472.147 -4.45322 7.53318 0
M  V30 5289 C 471.657 -4.74639 5.19936 0
M  V30 5290 C 472.367 -3.49432 4.70418 0
M  V30 5291 N 472.317 -3.31776 3.22945 0
M  V30 5292 C 472.167 -2.02742 2.72939 0
M  V30 5293 O 472.077 -1.08301 3.52749 0
M  V30 5294 N 472.117 -1.96117 1.22063 0
M  V30 5295 C 472.217 -2.8878 0.551566 0
M  V30 5296 N 472.167 -2.65609 -0.750198 0
M  V30 5297 C 472.367 -4.22457 1.03707 0
M  V30 5298 C 472.417 -4.37979 2.39113 0
M  V30 5299 H 475.157 -6.54138 5.7131 0
M  V30 5300 H 475.427 -5.30492 4.44033 0
M  V30 5301 H 474.56 -4.55945 6.76735 0
M  V30 5302 H 471.905 -2.6176 5.18021 0
M  V30 5303 H 471.625 -5.52233 4.41941 0
M  V30 5304 H 470.634 -4.52045 5.53452 0
M  V30 5305 H 472.468 -6.25124 6.55234 0
M  V30 5306 H 472.54 -5.37936 2.80552 0
M  V30 5307 H 472.438 -5.07528 0.359553 0
M  V30 5308 H 472.05 -1.69403 -1.09847 0
M  V30 5309 H 472.246 -3.43701 -1.41792 0
M  V30 5310 P 470.597 -4.23843 7.83734 0
M  V30 5311 O 470.377 -4.19407 9.29784 0
M  V30 5312 O 469.807 -5.24426 7.09156 0
M  V30 5313 O 470.347 -2.7935 7.20758 0
M  V30 5314 C 471.287 -1.72945 7.50224 0
M  V30 5315 C 470.557 -0.406376 7.57911 0
M  V30 5316 O 470.347 0.0897726 6.21935 0
M  V30 5317 C 469.157 -0.438983 8.18724 0
M  V30 5318 O 468.767 0.825065 8.71101 0
M  V30 5319 C 468.277 -0.783689 6.99524 0
M  V30 5320 C 468.987 -0.0619086 5.85867 0
M  V30 5321 N 468.937 -0.78573 4.56183 0
M  V30 5322 C 468.787 -0.0292889 3.41887 0
M  V30 5323 O 468.697 1.18445 3.4419 0
M  V30 5324 N 468.747 -0.744061 2.23964 0
M  V30 5325 C 468.837 -2.10932 2.10362 0
M  V30 5326 C 468.987 -2.8202 3.34994 0
M  V30 5327 C 469.037 -2.15547 4.52261 0
M  V30 5328 H 471.778 -1.93379 8.46595 0
M  V30 5329 H 472.047 -1.68132 6.70852 0
M  V30 5330 H 471.18 0.289041 8.15388 0
M  V30 5331 H 468.525 0.926847 5.72749 0
M  V30 5332 H 468.246 -1.86973 6.82036 0
M  V30 5333 H 467.254 -0.403896 7.13257 0
M  V30 5334 H 469.088 -1.20585 8.97435 0
M  V30 5335 H 469.159 -2.71231 5.45042 0
M  V30 5336 P 467.217 1.17771 8.83182 0
M  V30 5337 O 466.997 2.07206 9.98732 0
M  V30 5338 O 466.427 -0.0743816 8.81969 0
M  V30 5339 O 466.967 1.97652 7.47304 0
M  V30 5340 C 467.907 3.01133 7.08783 0
M  V30 5341 C 467.177 4.12613 6.37049 0
M  V30 5342 O 466.967 3.72827 4.97879 0
M  V30 5343 C 465.777 4.45085 6.88694 0
M  V30 5344 O 465.387 5.7877 6.5624 0
M  V30 5345 C 464.897 3.47817 6.12078 0
M  V30 5346 C 465.607 3.39414 4.77697 0
M  V30 5347 N 465.557 2.04615 4.15333 0
M  V30 5348 H 468.396 3.41248 7.98759 0
M  V30 5349 H 468.668 2.5837 6.41742 0
M  V30 5350 H 467.8 5.02657 6.42673 0
M  V30 5351 P 463.837 6.144 6.45285 0
M  V30 5352 O 463.617 7.54673 6.86199 0
M  V30 5353 O 463.047 5.12391 7.179 0
M  V30 5354 O 463.587 5.99158 4.88404 0
M  V30 5355 C 464.527 6.60234 3.96415 0
M  V30 5356 C 463.797 7.08259 2.72856 0
M  V30 5357 O 463.587 5.9427 1.83651 0
M  V30 5358 C 462.397 7.64886 2.9555 0
M  V30 5359 O 462.007 8.53963 1.90717 0
M  V30 5360 C 461.517 6.4116 2.90739 0
M  V30 5361 C 462.227 5.55375 1.86963 0
M  V30 5362 N 462.177 4.09448 2.16152 0
M  V30 5363 H 465.016 7.45574 4.45629 0
M  V30 5364 H 465.288 5.85864 3.679 0
M  V30 5365 H 464.42 7.84412 2.24479 0
M  V30 5366 H 461.765 5.73457 0.888562 0
M  V30 5367 H 461.485 5.90877 3.88583 0
M  V30 5368 H 460.494 6.6596 2.58858 0
M  V30 5369 H 462.328 8.16339 3.92049 0
M  V30 5370 P 460.457 8.7635 1.60911 0
M  V30 5371 O 460.237 10.1388 1.11561 0
M  V30 5372 O 459.667 8.36503 2.79617 0
M  V30 5373 O 460.207 7.71806 0.42951 0
M  V30 5374 C 461.147 7.67148 -0.673689 0
M  V30 5375 C 460.417 7.33374 -1.95559 0
M  V30 5376 O 460.207 5.88721 -2.00726 0
M  V30 5377 C 459.017 7.92526 -2.10483 0
M  V30 5378 O 458.627 8.02971 -3.47653 0
M  V30 5379 C 458.137 6.89602 -1.41652 0
M  V30 5380 C 458.847 5.59201 -1.75185 0
M  V30 5381 N 458.797 4.58301 -0.657969 0
M  V30 5382 C 458.877 4.79019 0.692603 0
M  V30 5383 N 458.807 3.69736 1.38998 0
M  V30 5384 C 458.657 2.70474 0.438135 0
M  V30 5385 C 458.527 1.30327 0.538142 0
M  V30 5386 N 458.517 0.64304 1.69192 0
M  V30 5387 N 458.407 0.611027 -0.605183 0
M  V30 5388 C 458.417 1.27002 -1.75953 0
M  V30 5389 N 458.537 2.56038 -1.98546 0
M  V30 5390 C 458.657 3.22681 -0.822541 0
M  V30 5391 H 461.636 8.65116 -0.777161 0
M  V30 5392 H 461.908 6.9022 -0.46725 0
M  V30 5393 H 461.04 7.66548 -2.79458 0
M  V30 5394 H 458.385 5.16165 -2.65183 0
M  V30 5395 H 458.105 7.06433 -0.329384 0
M  V30 5396 H 457.114 6.90926 -1.82021 0
M  V30 5397 H 458.948 8.90873 -1.62657 0
M  V30 5398 H 458.989 5.77785 1.13874 0
M  V30 5399 H 458.608 1.15585 2.57991 0
M  V30 5400 H 458.419 -0.382989 1.69835 0
M  V30 5401 H 458.311 0.653331 -2.64449 0
M  V30 5402 P 457.077 8.03563 -3.84925 0
M  V30 5403 O 456.857 8.85821 -5.0569 0
M  V30 5404 O 456.287 8.41101 -2.65469 0
M  V30 5405 O 456.827 6.4965 -4.18908 0
M  V30 5406 C 457.767 5.81037 -5.05421 0
M  V30 5407 C 457.037 4.78366 -5.89277 0
M  V30 5408 O 456.827 3.58302 -5.08433 0
M  V30 5409 C 455.637 5.17448 -6.36119 0
M  V30 5410 O 455.247 4.45271 -7.53232 0
M  V30 5411 C 454.757 4.74639 -5.19936 0
M  V30 5412 C 455.467 3.49432 -4.70418 0
M  V30 5413 N 455.417 3.31776 -3.22945 0
M  V30 5414 H 458.256 6.54213 -5.71376 0
M  V30 5415 H 458.528 5.30492 -4.44033 0
M  V30 5416 H 457.66 4.55889 -6.76652 0
M  V30 5417 P 453.697 4.23843 -7.83734 0
M  V30 5418 O 453.477 4.19407 -9.29784 0
M  V30 5419 O 452.907 5.24426 -7.09156 0
M  V30 5420 O 453.447 2.7935 -7.20758 0
M  V30 5421 C 454.387 1.7299 -7.50419 0
M  V30 5422 C 453.657 0.406376 -7.57911 0
M  V30 5423 O 453.447 -0.0897726 -6.21935 0
M  V30 5424 C 452.257 0.447224 -8.1878 0
M  V30 5425 O 451.867 -0.825065 -8.71101 0
M  V30 5426 C 451.377 0.783801 -6.99623 0
M  V30 5427 C 452.087 0.0619192 -5.85967 0
M  V30 5428 N 452.037 0.790462 -4.56202 0
M  V30 5429 H 454.876 1.93423 -8.4679 0
M  V30 5430 H 455.148 1.68852 -6.70877 0
M  V30 5431 H 454.28 -0.289041 -8.15388 0
M  V30 5432 H 451.625 -0.927006 -5.72848 0
M  V30 5433 H 451.345 1.86973 -6.82036 0
M  V30 5434 H 450.354 0.403953 -7.13357 0
M  V30 5435 H 452.188 1.20599 -8.97534 0
M  V30 5436 P 450.317 -1.17771 -8.83182 0
M  V30 5437 O 450.097 -2.07206 -9.98732 0
M  V30 5438 O 449.527 0.0743816 -8.81969 0
M  V30 5439 O 450.067 -1.97652 -7.47304 0
M  V30 5440 C 451.007 -3.01133 -7.08783 0
M  V30 5441 C 450.277 -4.12613 -6.37049 0
M  V30 5442 O 450.067 -3.72827 -4.97879 0
M  V30 5443 C 448.877 -4.45085 -6.88694 0
M  V30 5444 O 448.487 -5.7877 -6.5624 0
M  V30 5445 C 447.997 -3.47817 -6.12078 0
M  V30 5446 C 448.707 -3.39414 -4.77697 0
M  V30 5447 N 448.657 -2.04615 -4.15333 0
M  V30 5448 H 451.496 -3.41248 -7.98759 0
M  V30 5449 H 451.768 -2.5837 -6.41742 0
M  V30 5450 H 450.9 -5.02657 -6.42673 0
M  V30 5451 P 446.937 -6.144 -6.45285 0
M  V30 5452 O 446.717 -7.54673 -6.86199 0
M  V30 5453 O 446.147 -5.12391 -7.179 0
M  V30 5454 O 446.687 -5.99158 -4.88404 0
M  V30 5455 C 447.627 -6.60234 -3.96415 0
M  V30 5456 C 446.897 -7.08259 -2.72856 0
M  V30 5457 O 446.687 -5.9427 -1.83651 0
M  V30 5458 C 445.497 -7.64886 -2.9555 0
M  V30 5459 O 445.107 -8.53963 -1.90717 0
M  V30 5460 C 444.617 -6.4116 -2.90739 0
M  V30 5461 C 445.327 -5.55375 -1.86963 0
M  V30 5462 N 445.277 -4.09448 -2.16152 0
M  V30 5463 H 448.116 -7.45574 -4.45629 0
M  V30 5464 H 448.388 -5.85864 -3.679 0
M  V30 5465 H 447.52 -7.84412 -2.24479 0
M  V30 5466 H 444.865 -5.73457 -0.888562 0
M  V30 5467 H 444.585 -5.90877 -3.88583 0
M  V30 5468 H 443.594 -6.6596 -2.58858 0
M  V30 5469 H 445.428 -8.16339 -3.92049 0
M  V30 5470 P 443.557 -8.7635 -1.60911 0
M  V30 5471 O 443.337 -10.1388 -1.11561 0
M  V30 5472 O 442.767 -8.36503 -2.79617 0
M  V30 5473 O 443.307 -7.71806 -0.42951 0
M  V30 5474 C 444.247 -7.67148 0.673689 0
M  V30 5475 C 443.517 -7.33374 1.95559 0
M  V30 5476 O 443.307 -5.88721 2.00726 0
M  V30 5477 C 442.117 -7.92526 2.10483 0
M  V30 5478 O 441.727 -8.02971 3.47653 0
M  V30 5479 C 441.237 -6.89602 1.41652 0
M  V30 5480 C 441.947 -5.59201 1.75185 0
M  V30 5481 N 441.897 -4.58235 0.662552 0
M  V30 5482 H 444.736 -8.65116 0.777161 0
M  V30 5483 H 445.008 -6.90173 0.474152 0
M  V30 5484 H 444.14 -7.66548 2.79458 0
M  V30 5485 P 440.177 -8.03563 3.84925 0
M  V30 5486 O 439.957 -8.85821 5.0569 0
M  V30 5487 O 439.387 -8.41101 2.65469 0
M  V30 5488 O 439.927 -6.49734 4.18962 0
M  V30 5489 C 440.867 -5.81037 5.05421 0
M  V30 5490 C 440.137 -4.79018 5.88876 0
M  V30 5491 O 439.927 -3.58359 5.08515 0
M  V30 5492 C 438.737 -5.17448 6.36119 0
M  V30 5493 O 438.347 -4.45322 7.53318 0
M  V30 5494 C 437.857 -4.74639 5.19936 0
M  V30 5495 C 438.567 -3.49432 4.70418 0
M  V30 5496 N 438.517 -3.31776 3.22945 0
M  V30 5497 C 438.367 -2.02742 2.72939 0
M  V30 5498 O 438.277 -1.08301 3.52749 0
M  V30 5499 N 438.317 -1.96117 1.22063 0
M  V30 5500 C 438.417 -2.8878 0.551566 0
M  V30 5501 N 438.367 -2.65609 -0.750198 0
M  V30 5502 C 438.567 -4.22457 1.03707 0
M  V30 5503 C 438.617 -4.37979 2.39113 0
M  V30 5504 H 441.357 -6.54138 5.7131 0
M  V30 5505 H 441.627 -5.30492 4.44033 0
M  V30 5506 H 440.76 -4.55945 6.76735 0
M  V30 5507 H 438.105 -2.6176 5.18021 0
M  V30 5508 H 437.825 -5.52233 4.41941 0
M  V30 5509 H 436.834 -4.52045 5.53452 0
M  V30 5510 H 438.668 -6.25124 6.55234 0
M  V30 5511 H 438.74 -5.37936 2.80552 0
M  V30 5512 H 438.638 -5.07528 0.359553 0
M  V30 5513 H 438.25 -1.69403 -1.09847 0
M  V30 5514 H 438.446 -3.43701 -1.41792 0
M  V30 5515 P 436.797 -4.23843 7.83734 0
M  V30 5516 O 436.577 -4.19407 9.29784 0
M  V30 5517 O 436.007 -5.24426 7.09156 0
M  V30 5518 O 436.547 -2.7935 7.20758 0
M  V30 5519 C 437.487 -1.7299 7.50419 0
M  V30 5520 C 436.757 -0.406376 7.57911 0
M  V30 5521 O 436.547 0.0897726 6.21935 0
M  V30 5522 C 435.357 -0.447224 8.1878 0
M  V30 5523 O 434.967 0.825065 8.71101 0
M  V30 5524 C 434.477 -0.783801 6.99623 0
M  V30 5525 C 435.187 -0.0619192 5.85967 0
M  V30 5526 N 435.137 -0.7859 4.56281 0
M  V30 5527 H 437.976 -1.93423 8.4679 0
M  V30 5528 H 438.248 -1.68181 6.71046 0
M  V30 5529 H 437.38 0.289041 8.15388 0
M  V30 5530 P 433.417 1.17771 8.83182 0
M  V30 5531 O 433.197 2.07206 9.98732 0
M  V30 5532 O 432.627 -0.0743816 8.81969 0
M  V30 5533 O 433.167 1.97652 7.47304 0
M  V30 5534 C 434.107 3.01133 7.08783 0
M  V30 5535 C 433.377 4.12613 6.37049 0
M  V30 5536 O 433.167 3.72827 4.97879 0
M  V30 5537 C 431.977 4.45085 6.88694 0
M  V30 5538 O 431.587 5.7877 6.5624 0
M  V30 5539 C 431.097 3.47817 6.12078 0
M  V30 5540 C 431.807 3.39414 4.77697 0
M  V30 5541 N 431.757 2.04615 4.15333 0
M  V30 5542 H 434.596 3.41248 7.98759 0
M  V30 5543 H 434.868 2.5837 6.41742 0
M  V30 5544 H 434 5.02657 6.42673 0
M  V30 5545 P 430.037 6.144 6.45285 0
M  V30 5546 O 429.817 7.54673 6.86199 0
M  V30 5547 O 429.247 5.12391 7.179 0
M  V30 5548 O 429.787 5.99158 4.88404 0
M  V30 5549 C 430.727 6.60234 3.96415 0
M  V30 5550 C 429.997 7.08259 2.72856 0
M  V30 5551 O 429.787 5.9427 1.83651 0
M  V30 5552 C 428.597 7.64886 2.9555 0
M  V30 5553 O 428.207 8.53963 1.90717 0
M  V30 5554 C 427.717 6.4116 2.90739 0
M  V30 5555 C 428.427 5.55375 1.86963 0
M  V30 5556 N 428.377 4.09664 2.15742 0
M  V30 5557 H 431.216 7.45574 4.45629 0
M  V30 5558 H 431.488 5.86232 3.67314 0
M  V30 5559 H 430.62 7.84412 2.24479 0
M  V30 5560 P 426.657 8.7635 1.60911 0
M  V30 5561 O 426.437 10.1388 1.11561 0
M  V30 5562 O 425.867 8.36503 2.79617 0
M  V30 5563 O 426.407 7.71806 0.42951 0
M  V30 5564 C 427.347 7.67148 -0.673689 0
M  V30 5565 C 426.617 7.33374 -1.95559 0
M  V30 5566 O 426.407 5.88721 -2.00726 0
M  V30 5567 C 425.217 7.92526 -2.10483 0
M  V30 5568 O 424.827 8.02971 -3.47653 0
M  V30 5569 C 424.337 6.89602 -1.41652 0
M  V30 5570 C 425.047 5.59201 -1.75185 0
M  V30 5571 N 424.997 4.58235 -0.662552 0
M  V30 5572 H 427.836 8.65116 -0.777161 0
M  V30 5573 H 428.108 6.90173 -0.474152 0
M  V30 5574 H 427.24 7.66548 -2.79458 0
M  V30 5575 P 423.278 8.03563 -3.84925 0
M  V30 5576 O 423.058 8.85821 -5.0569 0
M  V30 5577 O 422.488 8.41101 -2.65469 0
M  V30 5578 O 423.028 6.4965 -4.18908 0
M  V30 5579 C 423.968 5.80886 -5.05289 0
M  V30 5580 C 423.238 4.78366 -5.89277 0
M  V30 5581 O 423.028 3.58302 -5.08433 0
M  V30 5582 C 421.838 5.16748 -6.36559 0
M  V30 5583 O 421.448 4.45271 -7.53232 0
M  V30 5584 C 420.958 4.74572 -5.19863 0
M  V30 5585 C 421.668 3.49373 -4.70338 0
M  V30 5586 N 421.618 3.31704 -3.22876 0
M  V30 5587 C 421.468 2.03326 -2.74871 0
M  V30 5588 O 421.378 1.06486 -3.48076 0
M  V30 5589 N 421.428 1.91838 -1.37456 0
M  V30 5590 C 421.518 2.94295 -0.462035 0
M  V30 5591 O 421.468 2.71763 0.752928 0
M  V30 5592 C 421.668 4.25064 -1.05249 0
M  V30 5593 C 421.778 5.39815 -0.095697 0
M  V30 5594 C 421.718 4.40214 -2.39192 0
M  V30 5595 H 424.459 6.54063 -5.71245 0
M  V30 5596 H 424.728 5.30339 -4.43905 0
M  V30 5597 H 423.861 4.55889 -6.76652 0
M  V30 5598 H 421.206 2.6167 -5.17842 0
M  V30 5599 H 420.927 5.52155 -4.41878 0
M  V30 5600 H 419.935 4.51918 -5.53297 0
M  V30 5601 H 421.769 6.25055 -6.55162 0
M  V30 5602 H 421.84 5.39798 -2.81523 0
M  V30 5603 H 420.81 5.91593 -0.0279582 0
M  V30 5604 H 422.547 6.10038 -0.450573 0
M  V30 5605 H 422.059 5.02007 0.89937 0
M  V30 5606 H 421.323 0.995326 -1.00435 0
M  V30 5607 P 419.898 4.23843 -7.83734 0
M  V30 5608 O 419.678 4.19407 -9.29784 0
M  V30 5609 O 419.108 5.24426 -7.09156 0
M  V30 5610 O 419.648 2.7935 -7.20758 0
M  V30 5611 C 420.588 1.72945 -7.50224 0
M  V30 5612 C 419.858 0.406376 -7.57911 0
M  V30 5613 O 419.648 -0.0897726 -6.21935 0
M  V30 5614 C 418.458 0.438983 -8.18724 0
M  V30 5615 O 418.068 -0.825065 -8.71101 0
M  V30 5616 C 417.578 0.783689 -6.99524 0
M  V30 5617 C 418.288 0.0619086 -5.85867 0
M  V30 5618 N 418.238 0.78573 -4.56183 0
M  V30 5619 C 418.088 0.0292889 -3.41887 0
M  V30 5620 O 417.998 -1.18445 -3.4419 0
M  V30 5621 N 418.048 0.744061 -2.23964 0
M  V30 5622 C 418.138 2.10932 -2.10362 0
M  V30 5623 O 418.088 2.64117 -0.98825 0
M  V30 5624 C 418.288 2.8202 -3.34994 0
M  V30 5625 C 418.398 4.31095 -3.25037 0
M  V30 5626 C 418.338 2.15547 -4.52261 0
M  V30 5627 H 421.079 1.93379 -8.46595 0
M  V30 5628 H 421.348 1.68132 -6.70852 0
M  V30 5629 H 420.481 -0.289041 -8.15388 0
M  V30 5630 H 417.826 -0.926847 -5.72749 0
M  V30 5631 H 417.547 1.86973 -6.82036 0
M  V30 5632 H 416.555 0.403896 -7.13257 0
M  V30 5633 H 418.389 1.20585 -8.97435 0
M  V30 5634 H 418.46 2.71231 -5.45042 0
M  V30 5635 H 417.43 4.76966 -3.49992 0
M  V30 5636 H 419.167 4.67047 -3.95024 0
M  V30 5637 H 418.679 4.58996 -2.22312 0
M  V30 5638 H 417.943 0.214893 -1.39758 0
M  V30 5639 P 416.518 -1.17771 -8.83182 0
M  V30 5640 O 416.298 -2.07206 -9.98732 0
M  V30 5641 O 415.728 0.0743816 -8.81969 0
M  V30 5642 O 416.268 -1.97652 -7.47304 0
M  V30 5643 C 417.208 -3.01133 -7.08783 0
M  V30 5644 C 416.478 -4.12613 -6.37049 0
M  V30 5645 O 416.268 -3.72827 -4.97879 0
M  V30 5646 C 415.078 -4.45085 -6.88694 0
M  V30 5647 O 414.688 -5.7877 -6.5624 0
M  V30 5648 C 414.198 -3.47817 -6.12078 0
M  V30 5649 C 414.908 -3.39414 -4.77697 0
M  V30 5650 N 414.858 -2.04615 -4.15333 0
M  V30 5651 H 417.697 -3.41248 -7.98759 0
M  V30 5652 H 417.969 -2.5837 -6.41742 0
M  V30 5653 H 417.101 -5.02657 -6.42673 0
M  V30 5654 P 413.138 -6.144 -6.45285 0
M  V30 5655 O 412.918 -7.54673 -6.86199 0
M  V30 5656 O 412.348 -5.12391 -7.179 0
M  V30 5657 O 412.888 -5.99158 -4.88404 0
M  V30 5658 C 413.828 -6.60062 -3.96313 0
M  V30 5659 C 413.098 -7.08259 -2.72856 0
M  V30 5660 O 412.888 -5.9427 -1.83651 0
M  V30 5661 C 411.698 -7.65087 -2.94749 0
M  V30 5662 O 411.308 -8.53963 -1.90717 0
M  V30 5663 C 410.818 -6.41069 -2.90698 0
M  V30 5664 C 411.528 -5.5528 -1.86931 0
M  V30 5665 N 411.478 -4.09575 -2.15696 0
M  V30 5666 C 411.328 -3.24249 -1.08435 0
M  V30 5667 O 411.238 -3.63946 0.0628747 0
M  V30 5668 N 411.288 -1.90009 -1.39973 0
M  V30 5669 C 411.378 -1.34884 -2.65614 0
M  V30 5670 O 411.328 -0.123716 -2.81728 0
M  V30 5671 C 411.528 -2.3145 -3.71736 0
M  V30 5672 C 411.638 -1.75913 -5.10438 0
M  V30 5673 C 411.578 -3.63518 -3.44754 0
M  V30 5674 H 414.319 -7.45402 -4.45526 0
M  V30 5675 H 414.588 -5.86062 -3.67208 0
M  V30 5676 H 413.721 -7.84412 -2.24479 0
M  V30 5677 H 411.066 -5.73358 -0.888409 0
M  V30 5678 H 410.787 -5.90877 -3.88583 0
M  V30 5679 H 409.795 -6.65867 -2.58821 0
M  V30 5680 H 411.629 -8.16248 -3.92006 0
M  V30 5681 H 411.7 -4.34551 -4.26383 0
M  V30 5682 H 410.67 -1.85471 -5.61775 0
M  V30 5683 H 412.407 -2.31364 -5.66257 0
M  V30 5684 H 411.919 -0.695936 -5.05229 0
M  V30 5685 H 411.183 -1.26277 -0.63625 0
M  V30 5686 P 409.758 -8.7635 -1.60911 0
M  V30 5687 O 409.538 -10.1388 -1.11561 0
M  V30 5688 O 408.968 -8.36503 -2.79617 0
M  V30 5689 O 409.508 -7.71906 -0.429565 0
M  V30 5690 C 410.448 -7.67148 0.673689 0
M  V30 5691 C 409.718 -7.33666 1.94851 0
M  V30 5692 O 409.508 -5.88816 2.00759 0
M  V30 5693 C 408.318 -7.92526 2.10483 0
M  V30 5694 O 407.928 -8.03063 3.47693 0
M  V30 5695 C 407.438 -6.89602 1.41652 0
M  V30 5696 C 408.148 -5.59201 1.75185 0
M  V30 5697 N 408.098 -4.58235 0.662552 0
M  V30 5698 C 407.948 -3.24451 1.01643 0
M  V30 5699 O 407.858 -2.94958 2.21722 0
M  V30 5700 N 407.898 -2.30408 -0.165238 0
M  V30 5701 C 407.998 -2.66048 -1.25118 0
M  V30 5702 N 407.948 -1.70787 -2.16813 0
M  V30 5703 C 408.148 -4.02732 -1.64413 0
M  V30 5704 C 408.198 -4.9488 -0.63991 0
M  V30 5705 H 410.938 -8.65017 0.777072 0
M  V30 5706 H 411.208 -6.90173 0.474152 0
M  V30 5707 H 410.341 -7.66642 2.79492 0
M  V30 5708 H 407.686 -5.16254 2.65229 0
M  V30 5709 H 407.406 -7.06532 0.329431 0
M  V30 5710 H 406.415 -6.91023 1.82047 0
M  V30 5711 H 408.249 -8.90873 1.62657 0
M  V30 5712 H 408.321 -6.00104 -0.892197 0
M  V30 5713 H 408.219 -4.31733 -2.69229 0
M  V30 5714 H 407.831 -0.724835 -1.8844 0
M  V30 5715 H 408.027 -1.94716 -3.16734 0
M  V30 5716 P 406.378 -8.03563 3.84925 0
M  V30 5717 O 406.158 -8.85821 5.0569 0
M  V30 5718 O 405.588 -8.41101 2.65469 0
M  V30 5719 O 406.128 -6.4965 4.18908 0
M  V30 5720 C 407.068 -5.81037 5.05421 0
M  V30 5721 C 406.338 -4.78366 5.89277 0
M  V30 5722 O 406.128 -3.58302 5.08433 0
M  V30 5723 C 404.938 -5.17448 6.36119 0
M  V30 5724 O 404.548 -4.45271 7.53232 0
M  V30 5725 C 404.058 -4.74639 5.19936 0
M  V30 5726 C 404.768 -3.49432 4.70418 0
M  V30 5727 N 404.718 -3.31776 3.22945 0
M  V30 5728 H 407.557 -6.54213 5.71376 0
M  V30 5729 H 407.829 -5.30492 4.44033 0
M  V30 5730 H 406.961 -4.55889 6.76652 0
M  V30 5731 P 402.998 -4.23843 7.83734 0
M  V30 5732 O 402.778 -4.19407 9.29784 0
M  V30 5733 O 402.208 -5.24426 7.09156 0
M  V30 5734 O 402.748 -2.7935 7.20758 0
M  V30 5735 C 403.688 -1.7299 7.50419 0
M  V30 5736 C 402.958 -0.406376 7.57911 0
M  V30 5737 O 402.748 0.0897726 6.21935 0
M  V30 5738 C 401.558 -0.447224 8.1878 0
M  V30 5739 O 401.168 0.825065 8.71101 0
M  V30 5740 C 400.678 -0.783801 6.99623 0
M  V30 5741 C 401.388 -0.0619192 5.85967 0
M  V30 5742 N 401.338 -0.7859 4.56281 0
M  V30 5743 H 404.177 -1.93423 8.4679 0
M  V30 5744 H 404.449 -1.68181 6.71046 0
M  V30 5745 H 403.581 0.289041 8.15388 0
M  V30 5746 P 399.618 1.17771 8.83182 0
M  V30 5747 O 399.398 2.07206 9.98732 0
M  V30 5748 O 398.828 -0.0743816 8.81969 0
M  V30 5749 O 399.368 1.97652 7.47304 0
M  V30 5750 C 400.308 3.01133 7.08783 0
M  V30 5751 C 399.578 4.12613 6.37049 0
M  V30 5752 O 399.368 3.72827 4.97879 0
M  V30 5753 C 398.178 4.45085 6.88694 0
M  V30 5754 O 397.788 5.7877 6.5624 0
M  V30 5755 C 397.298 3.47817 6.12078 0
M  V30 5756 C 398.008 3.39414 4.77697 0
M  V30 5757 N 397.958 2.04615 4.15333 0
M  V30 5758 H 400.797 3.41248 7.98759 0
M  V30 5759 H 401.069 2.5837 6.41742 0
M  V30 5760 H 400.201 5.02657 6.42673 0
M  V30 5761 P 396.238 6.144 6.45285 0
M  V30 5762 O 396.018 7.54673 6.86199 0
M  V30 5763 O 395.448 5.12391 7.179 0
M  V30 5764 O 395.988 5.99158 4.88404 0
M  V30 5765 C 396.928 6.60234 3.96415 0
M  V30 5766 C 396.198 7.08259 2.72856 0
M  V30 5767 O 395.988 5.9427 1.83651 0
M  V30 5768 C 394.798 7.64886 2.9555 0
M  V30 5769 O 394.408 8.53963 1.90717 0
M  V30 5770 C 393.918 6.4116 2.90739 0
M  V30 5771 C 394.628 5.55375 1.86963 0
M  V30 5772 N 394.578 4.09664 2.15742 0
M  V30 5773 H 397.417 7.45574 4.45629 0
M  V30 5774 H 397.689 5.86232 3.67314 0
M  V30 5775 H 396.821 7.84412 2.24479 0
M  V30 5776 P 392.858 8.7635 1.60911 0
M  V30 5777 O 392.638 10.1388 1.11561 0
M  V30 5778 O 392.068 8.36503 2.79617 0
M  V30 5779 O 392.608 7.71806 0.42951 0
M  V30 5780 C 393.548 7.67148 -0.673689 0
M  V30 5781 C 392.818 7.33374 -1.95559 0
M  V30 5782 O 392.608 5.88721 -2.00726 0
M  V30 5783 C 391.418 7.92526 -2.10483 0
M  V30 5784 O 391.028 8.02971 -3.47653 0
M  V30 5785 C 390.538 6.89602 -1.41652 0
M  V30 5786 C 391.248 5.59201 -1.75185 0
M  V30 5787 N 391.198 4.58235 -0.662552 0
M  V30 5788 H 394.037 8.65116 -0.777161 0
M  V30 5789 H 394.309 6.90173 -0.474152 0
M  V30 5790 H 393.441 7.66548 -2.79458 0
M  V30 5791 P 389.478 8.03563 -3.84925 0
M  V30 5792 O 389.258 8.85821 -5.0569 0
M  V30 5793 O 388.688 8.41101 -2.65469 0
M  V30 5794 O 389.228 6.4965 -4.18908 0
M  V30 5795 C 390.168 5.81037 -5.05421 0
M  V30 5796 C 389.438 4.78366 -5.89277 0
M  V30 5797 O 389.228 3.58302 -5.08433 0
M  V30 5798 C 388.038 5.17448 -6.36119 0
M  V30 5799 O 387.648 4.45271 -7.53232 0
M  V30 5800 C 387.158 4.74639 -5.19936 0
M  V30 5801 C 387.868 3.49432 -4.70418 0
M  V30 5802 N 387.818 3.31776 -3.22945 0
M  V30 5803 H 390.657 6.54213 -5.71376 0
M  V30 5804 H 390.929 5.30492 -4.44033 0
M  V30 5805 H 390.061 4.55889 -6.76652 0
M  V30 5806 P 386.098 4.23843 -7.83734 0
M  V30 5807 O 385.878 4.19407 -9.29784 0
M  V30 5808 O 385.308 5.24426 -7.09156 0
M  V30 5809 O 385.848 2.7935 -7.20758 0
M  V30 5810 C 386.788 1.7299 -7.50419 0
M  V30 5811 C 386.058 0.406376 -7.57911 0
M  V30 5812 O 385.848 -0.0897726 -6.21935 0
M  V30 5813 C 384.658 0.447224 -8.1878 0
M  V30 5814 O 384.268 -0.825065 -8.71101 0
M  V30 5815 C 383.778 0.783801 -6.99623 0
M  V30 5816 C 384.488 0.0619192 -5.85967 0
M  V30 5817 N 384.438 0.7859 -4.56281 0
M  V30 5818 H 387.277 1.93423 -8.4679 0
M  V30 5819 H 387.549 1.68181 -6.71046 0
M  V30 5820 H 386.681 -0.289041 -8.15388 0
M  V30 5821 P 382.718 -1.17771 -8.83182 0
M  V30 5822 O 382.498 -2.07206 -9.98732 0
M  V30 5823 O 381.928 0.0743816 -8.81969 0
M  V30 5824 O 382.468 -1.97652 -7.47304 0
M  V30 5825 C 383.408 -3.01055 -7.08599 0
M  V30 5826 C 382.678 -4.12613 -6.37049 0
M  V30 5827 O 382.468 -3.72827 -4.97879 0
M  V30 5828 C 381.278 -4.45719 -6.88164 0
M  V30 5829 O 380.888 -5.7877 -6.5624 0
M  V30 5830 C 380.398 -3.47768 -6.11991 0
M  V30 5831 C 381.108 -3.39356 -4.77615 0
M  V30 5832 N 381.058 -2.04571 -4.15244 0
M  V30 5833 C 380.908 -1.98587 -2.78314 0
M  V30 5834 O 380.818 -2.98134 -2.08835 0
M  V30 5835 N 380.868 -0.714467 -2.24925 0
M  V30 5836 C 380.958 0.470001 -2.94169 0
M  V30 5837 O 380.908 1.55587 -2.35195 0
M  V30 5838 C 381.108 0.312541 -4.36783 0
M  V30 5839 C 381.218 1.57711 -5.16352 0
M  V30 5840 C 381.158 -0.914512 -4.92583 0
M  V30 5841 H 383.899 -3.41169 -7.98575 0
M  V30 5842 H 384.168 -2.58295 -6.41556 0
M  V30 5843 H 383.301 -5.02657 -6.42673 0
M  V30 5844 H 380.646 -4.11637 -4.08885 0
M  V30 5845 H 380.367 -2.49626 -6.61679 0
M  V30 5846 H 379.375 -3.86566 -6.00778 0
M  V30 5847 H 381.209 -4.29943 -7.96918 0
M  V30 5848 H 381.28 -1.00937 -6.00374 0
M  V30 5849 H 380.25 1.80153 -5.63503 0
M  V30 5850 H 381.987 1.4566 -5.94104 0
M  V30 5851 H 381.499 2.40664 -4.49645 0
M  V30 5852 H 380.763 -0.647622 -1.25697 0
M  V30 5853 P 379.338 -6.144 -6.45285 0
M  V30 5854 O 379.118 -7.54673 -6.86199 0
M  V30 5855 O 378.548 -5.12391 -7.179 0
M  V30 5856 O 379.088 -5.99158 -4.88404 0
M  V30 5857 C 380.028 -6.60234 -3.96415 0
M  V30 5858 C 379.298 -7.08259 -2.72856 0
M  V30 5859 O 379.088 -5.9427 -1.83651 0
M  V30 5860 C 377.898 -7.64886 -2.9555 0
M  V30 5861 O 377.508 -8.53963 -1.90717 0
M  V30 5862 C 377.018 -6.4116 -2.90739 0
M  V30 5863 C 377.728 -5.55375 -1.86963 0
M  V30 5864 N 377.678 -4.09664 -2.15742 0
M  V30 5865 H 380.517 -7.45574 -4.45629 0
M  V30 5866 H 380.789 -5.86232 -3.67314 0
M  V30 5867 H 379.921 -7.84412 -2.24479 0
M  V30 5868 P 375.958 -8.7635 -1.60911 0
M  V30 5869 O 375.738 -10.1388 -1.11561 0
M  V30 5870 O 375.168 -8.36503 -2.79617 0
M  V30 5871 O 375.708 -7.71806 -0.42951 0
M  V30 5872 C 376.648 -7.67148 0.673689 0
M  V30 5873 C 375.918 -7.33374 1.95559 0
M  V30 5874 O 375.708 -5.88721 2.00726 0
M  V30 5875 C 374.518 -7.92526 2.10483 0
M  V30 5876 O 374.128 -8.02971 3.47653 0
M  V30 5877 C 373.638 -6.89602 1.41652 0
M  V30 5878 C 374.348 -5.59201 1.75185 0
M  V30 5879 N 374.298 -4.58235 0.662552 0
M  V30 5880 H 377.137 -8.65116 0.777161 0
M  V30 5881 H 377.409 -6.90173 0.474152 0
M  V30 5882 H 376.541 -7.66548 2.79458 0
M  V30 5883 P 372.578 -8.03563 3.84925 0
M  V30 5884 O 372.358 -8.85821 5.0569 0
M  V30 5885 O 371.788 -8.41101 2.65469 0
M  V30 5886 O 372.328 -6.4965 4.18908 0
M  V30 5887 C 373.268 -5.81037 5.05421 0
M  V30 5888 C 372.538 -4.78366 5.89277 0
M  V30 5889 O 372.328 -3.58302 5.08433 0
M  V30 5890 C 371.138 -5.17448 6.36119 0
M  V30 5891 O 370.748 -4.45271 7.53232 0
M  V30 5892 C 370.258 -4.74639 5.19936 0
M  V30 5893 C 370.968 -3.49432 4.70418 0
M  V30 5894 N 370.918 -3.31776 3.22945 0
M  V30 5895 H 373.757 -6.54213 5.71376 0
M  V30 5896 H 374.029 -5.30492 4.44033 0
M  V30 5897 H 373.161 -4.55889 6.76652 0
M  V30 5898 P 369.198 -4.23843 7.83734 0
M  V30 5899 O 368.978 -4.19407 9.29784 0
M  V30 5900 O 368.408 -5.24426 7.09156 0
M  V30 5901 O 368.948 -2.7935 7.20758 0
M  V30 5902 C 369.888 -1.7299 7.50419 0
M  V30 5903 C 369.158 -0.406376 7.57911 0
M  V30 5904 O 368.948 0.0897726 6.21935 0
M  V30 5905 C 367.758 -0.447224 8.1878 0
M  V30 5906 O 367.368 0.825065 8.71101 0
M  V30 5907 C 366.878 -0.783801 6.99623 0
M  V30 5908 C 367.588 -0.0619192 5.85967 0
M  V30 5909 N 367.538 -0.7859 4.56281 0
M  V30 5910 H 370.377 -1.93423 8.4679 0
M  V30 5911 H 370.649 -1.68181 6.71046 0
M  V30 5912 H 369.781 0.289041 8.15388 0
M  V30 5913 P 365.818 1.17771 8.83182 0
M  V30 5914 O 365.598 2.07206 9.98732 0
M  V30 5915 O 365.028 -0.0743816 8.81969 0
M  V30 5916 O 365.568 1.97652 7.47304 0
M  V30 5917 C 366.508 3.01133 7.08783 0
M  V30 5918 C 365.778 4.12613 6.37049 0
M  V30 5919 O 365.568 3.72827 4.97879 0
M  V30 5920 C 364.378 4.45085 6.88694 0
M  V30 5921 O 363.988 5.7877 6.5624 0
M  V30 5922 C 363.498 3.47817 6.12078 0
M  V30 5923 C 364.208 3.39414 4.77697 0
M  V30 5924 N 364.158 2.04615 4.15333 0
M  V30 5925 H 366.997 3.41248 7.98759 0
M  V30 5926 H 367.269 2.5837 6.41742 0
M  V30 5927 H 366.401 5.02657 6.42673 0
M  V30 5928 P 362.438 6.144 6.45285 0
M  V30 5929 O 362.218 7.54673 6.86199 0
M  V30 5930 O 361.648 5.12391 7.179 0
M  V30 5931 O 362.188 5.99158 4.88404 0
M  V30 5932 C 363.128 6.60234 3.96415 0
M  V30 5933 C 362.398 7.08259 2.72856 0
M  V30 5934 O 362.188 5.9427 1.83651 0
M  V30 5935 C 360.998 7.64886 2.9555 0
M  V30 5936 O 360.608 8.53963 1.90717 0
M  V30 5937 C 360.118 6.4116 2.90739 0
M  V30 5938 C 360.828 5.55375 1.86963 0
M  V30 5939 N 360.778 4.09448 2.16152 0
M  V30 5940 H 363.617 7.45574 4.45629 0
M  V30 5941 H 363.889 5.85864 3.679 0
M  V30 5942 H 363.021 7.84412 2.24479 0
M  V30 5943 H 360.366 5.73457 0.888562 0
M  V30 5944 H 360.086 5.90877 3.88583 0
M  V30 5945 H 359.095 6.6596 2.58858 0
M  V30 5946 H 360.929 8.16339 3.92049 0
M  V30 5947 P 359.058 8.7635 1.60911 0
M  V30 5948 O 358.838 10.1388 1.11561 0
M  V30 5949 O 358.268 8.36503 2.79617 0
M  V30 5950 O 358.808 7.71806 0.42951 0
M  V30 5951 C 359.748 7.67148 -0.673689 0
M  V30 5952 C 359.018 7.33374 -1.95559 0
M  V30 5953 O 358.808 5.88721 -2.00726 0
M  V30 5954 C 357.618 7.92526 -2.10483 0
M  V30 5955 O 357.228 8.02971 -3.47653 0
M  V30 5956 C 356.738 6.89602 -1.41652 0
M  V30 5957 C 357.448 5.59201 -1.75185 0
M  V30 5958 N 357.398 4.58235 -0.662552 0
M  V30 5959 H 360.237 8.65116 -0.777161 0
M  V30 5960 H 360.509 6.90173 -0.474152 0
M  V30 5961 H 359.641 7.66548 -2.79458 0
M  V30 5962 P 355.678 8.03563 -3.84925 0
M  V30 5963 O 355.458 8.85821 -5.0569 0
M  V30 5964 O 354.888 8.41101 -2.65469 0
M  V30 5965 O 355.428 6.4965 -4.18908 0
M  V30 5966 C 356.368 5.81037 -5.05421 0
M  V30 5967 C 355.638 4.78366 -5.89277 0
M  V30 5968 O 355.428 3.58302 -5.08433 0
M  V30 5969 C 354.238 5.17448 -6.36119 0
M  V30 5970 O 353.848 4.45271 -7.53232 0
M  V30 5971 C 353.358 4.74639 -5.19936 0
M  V30 5972 C 354.068 3.49432 -4.70418 0
M  V30 5973 N 354.018 3.31776 -3.22945 0
M  V30 5974 H 356.857 6.54213 -5.71376 0
M  V30 5975 H 357.129 5.30492 -4.44033 0
M  V30 5976 H 356.261 4.55889 -6.76652 0
M  V30 5977 P 352.298 4.23843 -7.83734 0
M  V30 5978 O 352.078 4.19407 -9.29784 0
M  V30 5979 O 351.508 5.24426 -7.09156 0
M  V30 5980 O 352.048 2.7935 -7.20758 0
M  V30 5981 C 352.988 1.7299 -7.50419 0
M  V30 5982 C 352.258 0.406376 -7.57911 0
M  V30 5983 O 352.048 -0.0897726 -6.21935 0
M  V30 5984 C 350.858 0.447224 -8.1878 0
M  V30 5985 O 350.468 -0.825065 -8.71101 0
M  V30 5986 C 349.978 0.783801 -6.99623 0
M  V30 5987 C 350.688 0.0619192 -5.85967 0
M  V30 5988 N 350.638 0.7859 -4.56281 0
M  V30 5989 H 353.477 1.93423 -8.4679 0
M  V30 5990 H 353.749 1.68181 -6.71046 0
M  V30 5991 H 352.881 -0.289041 -8.15388 0
M  V30 5992 P 348.918 -1.17771 -8.83182 0
M  V30 5993 O 348.698 -2.07206 -9.98732 0
M  V30 5994 O 348.128 0.0743816 -8.81969 0
M  V30 5995 O 348.668 -1.97652 -7.47304 0
M  V30 5996 C 349.608 -3.01133 -7.08783 0
M  V30 5997 C 348.878 -4.12613 -6.37049 0
M  V30 5998 O 348.668 -3.72827 -4.97879 0
M  V30 5999 C 347.478 -4.45085 -6.88694 0
M  V30 6000 O 347.088 -5.7877 -6.5624 0
M  V30 6001 C 346.598 -3.47817 -6.12078 0
M  V30 6002 C 347.308 -3.39414 -4.77697 0
M  V30 6003 N 347.258 -2.04199 -4.15538 0
M  V30 6004 H 350.097 -3.41248 -7.98759 0
M  V30 6005 H 350.369 -2.57728 -6.42 0
M  V30 6006 H 349.501 -5.02657 -6.42673 0
M  V30 6007 H 346.846 -4.11708 -4.08956 0
M  V30 6008 H 346.566 -2.49626 -6.61679 0
M  V30 6009 H 345.575 -3.8662 -6.00862 0
M  V30 6010 H 347.409 -4.29991 -7.97006 0
M  V30 6011 P 345.538 -6.144 -6.45285 0
M  V30 6012 O 345.318 -7.54673 -6.86199 0
M  V30 6013 O 344.748 -5.12391 -7.179 0
M  V30 6014 O 345.288 -5.99158 -4.88404 0
M  V30 6015 C 346.228 -6.60234 -3.96415 0
M  V30 6016 C 345.498 -7.08259 -2.72856 0
M  V30 6017 O 345.288 -5.9427 -1.83651 0
M  V30 6018 C 344.098 -7.64886 -2.9555 0
M  V30 6019 O 343.708 -8.53963 -1.90717 0
M  V30 6020 C 343.218 -6.4116 -2.90739 0
M  V30 6021 C 343.928 -5.55375 -1.86963 0
M  V30 6022 N 343.878 -4.09448 -2.16152 0
M  V30 6023 H 346.717 -7.45574 -4.45629 0
M  V30 6024 H 346.989 -5.85864 -3.679 0
M  V30 6025 H 346.121 -7.84412 -2.24479 0
M  V30 6026 H 343.466 -5.73457 -0.888562 0
M  V30 6027 H 343.186 -5.90877 -3.88583 0
M  V30 6028 H 342.195 -6.6596 -2.58858 0
M  V30 6029 H 344.029 -8.16339 -3.92049 0
M  V30 6030 P 342.158 -8.7635 -1.60911 0
M  V30 6031 O 341.938 -10.1388 -1.11561 0
M  V30 6032 O 341.368 -8.36503 -2.79617 0
M  V30 6033 O 341.908 -7.71806 -0.42951 0
M  V30 6034 C 342.848 -7.67148 0.673689 0
M  V30 6035 C 342.118 -7.33374 1.95559 0
M  V30 6036 O 341.908 -5.88721 2.00726 0
M  V30 6037 C 340.718 -7.92526 2.10483 0
M  V30 6038 O 340.328 -8.02971 3.47653 0
M  V30 6039 C 339.838 -6.89602 1.41652 0
M  V30 6040 C 340.548 -5.59201 1.75185 0
M  V30 6041 N 340.498 -4.58301 0.657969 0
M  V30 6042 C 340.578 -4.79019 -0.692603 0
M  V30 6043 N 340.508 -3.69736 -1.38998 0
M  V30 6044 C 340.358 -2.70474 -0.438135 0
M  V30 6045 C 340.228 -1.30327 -0.538142 0
M  V30 6046 N 340.218 -0.64304 -1.69192 0
M  V30 6047 N 340.108 -0.611027 0.605183 0
M  V30 6048 C 340.118 -1.27002 1.75953 0
M  V30 6049 N 340.238 -2.56038 1.98546 0
M  V30 6050 C 340.358 -3.22681 0.822541 0
M  V30 6051 H 343.337 -8.65116 0.777161 0
M  V30 6052 H 343.609 -6.9022 0.46725 0
M  V30 6053 H 342.741 -7.66548 2.79458 0
M  V30 6054 H 340.086 -5.16165 2.65183 0
M  V30 6055 H 339.806 -7.06433 0.329384 0
M  V30 6056 H 338.815 -6.90926 1.82021 0
M  V30 6057 H 340.649 -8.90873 1.62657 0
M  V30 6058 H 340.69 -5.77785 -1.13874 0
M  V30 6059 H 340.309 -1.15585 -2.57991 0
M  V30 6060 H 340.12 0.382989 -1.69835 0
M  V30 6061 H 340.012 -0.653331 2.64449 0
M  V30 6062 P 338.778 -8.03563 3.84925 0
M  V30 6063 O 338.558 -8.85821 5.0569 0
M  V30 6064 O 337.988 -8.41101 2.65469 0
M  V30 6065 O 338.528 -6.4965 4.18908 0
M  V30 6066 C 339.468 -5.81037 5.05421 0
M  V30 6067 C 338.738 -4.78366 5.89277 0
M  V30 6068 O 338.528 -3.58302 5.08433 0
M  V30 6069 C 337.338 -5.17448 6.36119 0
M  V30 6070 O 336.948 -4.45271 7.53232 0
M  V30 6071 C 336.458 -4.74639 5.19936 0
M  V30 6072 C 337.168 -3.49432 4.70418 0
M  V30 6073 N 337.118 -3.31776 3.22945 0
M  V30 6074 C 337.198 -4.27147 2.23315 0
M  V30 6075 N 337.118 -3.78447 1.02186 0
M  V30 6076 C 336.978 -2.41001 1.21732 0
M  V30 6077 C 336.848 -1.36111 0.27694 0
M  V30 6078 O 336.828 -1.42065 -0.951767 0
M  V30 6079 N 336.728 -0.113683 0.912949 0
M  V30 6080 C 336.728 0.0846396 2.27943 0
M  V30 6081 N 336.598 1.34737 2.6916 0
M  V30 6082 N 336.858 -0.902521 3.16379 0
M  V30 6083 C 336.978 -2.11937 2.56849 0
M  V30 6084 H 339.957 -6.54213 5.71376 0
M  V30 6085 H 340.229 -5.30492 4.44033 0
M  V30 6086 H 339.361 -4.55889 6.76652 0
M  V30 6087 H 336.706 -2.6176 5.18021 0
M  V30 6088 H 336.426 -5.52233 4.41941 0
M  V30 6089 H 335.435 -4.52045 5.53452 0
M  V30 6090 H 337.269 -6.25193 6.55307 0
M  V30 6091 H 337.318 -5.3351 2.43857 0
M  V30 6092 H 336.636 0.69331 0.330371 0
M  V30 6093 H 336.599 1.56433 3.6988 0
M  V30 6094 H 336.498 2.10701 2.00133 0
M  V30 6095 P 335.398 -4.23843 7.83734 0
M  V30 6096 O 335.178 -4.19407 9.29784 0
M  V30 6097 O 334.608 -5.24426 7.09156 0
M  V30 6098 O 335.148 -2.7935 7.20758 0
M  V30 6099 C 336.088 -1.7299 7.50419 0
M  V30 6100 C 335.358 -0.406376 7.57911 0
M  V30 6101 O 335.148 0.0897726 6.21935 0
M  V30 6102 C 333.958 -0.447224 8.1878 0
M  V30 6103 O 333.568 0.825065 8.71101 0
M  V30 6104 C 333.078 -0.783801 6.99623 0
M  V30 6105 C 333.788 -0.0619192 5.85967 0
M  V30 6106 N 333.738 -0.7859 4.56281 0
M  V30 6107 H 336.577 -1.93423 8.4679 0
M  V30 6108 H 336.849 -1.68181 6.71046 0
M  V30 6109 H 335.981 0.289041 8.15388 0
M  V30 6110 P 332.018 1.17771 8.83182 0
M  V30 6111 O 331.798 2.07206 9.98732 0
M  V30 6112 O 331.228 -0.0743816 8.81969 0
M  V30 6113 O 331.768 1.97652 7.47304 0
M  V30 6114 C 332.708 3.01133 7.08783 0
M  V30 6115 C 331.978 4.12613 6.37049 0
M  V30 6116 O 331.768 3.72827 4.97879 0
M  V30 6117 C 330.578 4.45085 6.88694 0
M  V30 6118 O 330.188 5.7877 6.5624 0
M  V30 6119 C 329.698 3.47817 6.12078 0
M  V30 6120 C 330.408 3.39414 4.77697 0
M  V30 6121 N 330.358 2.04199 4.15538 0
M  V30 6122 H 333.197 3.41248 7.98759 0
M  V30 6123 H 333.469 2.57728 6.42 0
M  V30 6124 H 332.601 5.02657 6.42673 0
M  V30 6125 H 329.946 4.11708 4.08956 0
M  V30 6126 H 329.666 2.49626 6.61679 0
M  V30 6127 H 328.675 3.8662 6.00862 0
M  V30 6128 H 330.509 4.29991 7.97006 0
M  V30 6129 P 328.638 6.144 6.45285 0
M  V30 6130 O 328.418 7.54673 6.86199 0
M  V30 6131 O 327.848 5.12391 7.179 0
M  V30 6132 O 328.388 5.99158 4.88404 0
M  V30 6133 C 329.328 6.60062 3.96313 0
M  V30 6134 C 328.598 7.08259 2.72856 0
M  V30 6135 O 328.388 5.9427 1.83651 0
M  V30 6136 C 327.198 7.65087 2.94749 0
M  V30 6137 O 326.808 8.53963 1.90717 0
M  V30 6138 C 326.318 6.41069 2.90698 0
M  V30 6139 C 327.028 5.5528 1.86931 0
M  V30 6140 N 326.978 4.09575 2.15696 0
M  V30 6141 C 326.828 3.24249 1.08435 0
M  V30 6142 O 326.738 3.63946 -0.0628747 0
M  V30 6143 N 326.788 1.90009 1.39973 0
M  V30 6144 C 326.878 1.34884 2.65614 0
M  V30 6145 O 326.828 0.123716 2.81728 0
M  V30 6146 C 327.028 2.3145 3.71736 0
M  V30 6147 C 327.138 1.75913 5.10438 0
M  V30 6148 C 327.078 3.63518 3.44754 0
M  V30 6149 H 329.819 7.45402 4.45526 0
M  V30 6150 H 330.088 5.86062 3.67208 0
M  V30 6151 H 329.221 7.84412 2.24479 0
M  V30 6152 H 326.566 5.73358 0.888409 0
M  V30 6153 H 326.287 5.90877 3.88583 0
M  V30 6154 H 325.295 6.65867 2.58821 0
M  V30 6155 H 327.129 8.16248 3.92006 0
M  V30 6156 H 327.2 4.34551 4.26383 0
M  V30 6157 H 326.17 1.85471 5.61775 0
M  V30 6158 H 327.907 2.31364 5.66257 0
M  V30 6159 H 327.419 0.695936 5.05229 0
M  V30 6160 H 326.683 1.26277 0.63625 0
M  V30 6161 P 325.258 8.7635 1.60911 0
M  V30 6162 O 325.038 10.1388 1.11561 0
M  V30 6163 O 324.468 8.36503 2.79617 0
M  V30 6164 O 325.008 7.71806 0.42951 0
M  V30 6165 C 325.948 7.67148 -0.673689 0
M  V30 6166 C 325.218 7.33374 -1.95559 0
M  V30 6167 O 325.008 5.88721 -2.00726 0
M  V30 6168 C 323.818 7.92526 -2.10483 0
M  V30 6169 O 323.428 8.02971 -3.47653 0
M  V30 6170 C 322.938 6.89602 -1.41652 0
M  V30 6171 C 323.648 5.59201 -1.75185 0
M  V30 6172 N 323.598 4.58235 -0.662552 0
M  V30 6173 H 326.437 8.65116 -0.777161 0
M  V30 6174 H 326.709 6.90173 -0.474152 0
M  V30 6175 H 325.841 7.66548 -2.79458 0
M  V30 6176 P 321.878 8.03563 -3.84925 0
M  V30 6177 O 321.658 8.85821 -5.0569 0
M  V30 6178 O 321.088 8.41101 -2.65469 0
M  V30 6179 O 321.628 6.4965 -4.18908 0
M  V30 6180 C 322.568 5.81037 -5.05421 0
M  V30 6181 C 321.838 4.78366 -5.89277 0
M  V30 6182 O 321.628 3.58302 -5.08433 0
M  V30 6183 C 320.438 5.17448 -6.36119 0
M  V30 6184 O 320.048 4.45271 -7.53232 0
M  V30 6185 C 319.558 4.74639 -5.19936 0
M  V30 6186 C 320.268 3.49432 -4.70418 0
M  V30 6187 N 320.218 3.32099 -3.22613 0
M  V30 6188 H 323.057 6.54213 -5.71376 0
M  V30 6189 H 323.329 5.30936 -4.43503 0
M  V30 6190 H 322.461 4.55889 -6.76652 0
M  V30 6191 H 319.806 2.61715 -5.17932 0
M  V30 6192 H 319.526 5.52155 -4.41878 0
M  V30 6193 H 318.535 4.51981 -5.53374 0
M  V30 6194 H 320.369 6.25124 -6.55234 0
M  V30 6195 P 318.498 4.23843 -7.83734 0
M  V30 6196 O 318.278 4.19407 -9.29784 0
M  V30 6197 O 317.708 5.24426 -7.09156 0
M  V30 6198 O 318.248 2.7935 -7.20758 0
M  V30 6199 C 319.188 1.7299 -7.50419 0
M  V30 6200 C 318.458 0.406376 -7.57911 0
M  V30 6201 O 318.248 -0.0897726 -6.21935 0
M  V30 6202 C 317.058 0.447224 -8.1878 0
M  V30 6203 O 316.668 -0.825065 -8.71101 0
M  V30 6204 C 316.178 0.783801 -6.99623 0
M  V30 6205 C 316.888 0.0619192 -5.85967 0
M  V30 6206 N 316.838 0.7859 -4.56281 0
M  V30 6207 H 319.677 1.93423 -8.4679 0
M  V30 6208 H 319.949 1.68181 -6.71046 0
M  V30 6209 H 319.081 -0.289041 -8.15388 0
M  V30 6210 P 315.118 -1.17771 -8.83182 0
M  V30 6211 O 314.898 -2.07206 -9.98732 0
M  V30 6212 O 314.328 0.0743816 -8.81969 0
M  V30 6213 O 314.868 -1.97652 -7.47304 0
M  V30 6214 C 315.808 -3.01133 -7.08783 0
M  V30 6215 C 315.078 -4.12613 -6.37049 0
M  V30 6216 O 314.868 -3.72827 -4.97879 0
M  V30 6217 C 313.678 -4.45085 -6.88694 0
M  V30 6218 O 313.288 -5.7877 -6.5624 0
M  V30 6219 C 312.798 -3.47817 -6.12078 0
M  V30 6220 C 313.508 -3.39414 -4.77697 0
M  V30 6221 N 313.458 -2.04615 -4.15333 0
M  V30 6222 H 316.297 -3.41248 -7.98759 0
M  V30 6223 H 316.569 -2.5837 -6.41742 0
M  V30 6224 H 315.701 -5.02657 -6.42673 0
M  V30 6225 P 311.738 -6.144 -6.45285 0
M  V30 6226 O 311.518 -7.54673 -6.86199 0
M  V30 6227 O 310.948 -5.12391 -7.179 0
M  V30 6228 O 311.488 -5.99158 -4.88404 0
M  V30 6229 C 312.428 -6.60234 -3.96415 0
M  V30 6230 C 311.698 -7.08259 -2.72856 0
M  V30 6231 O 311.488 -5.9427 -1.83651 0
M  V30 6232 C 310.298 -7.64886 -2.9555 0
M  V30 6233 O 309.908 -8.53963 -1.90717 0
M  V30 6234 C 309.418 -6.4116 -2.90739 0
M  V30 6235 C 310.128 -5.55375 -1.86963 0
M  V30 6236 N 310.078 -4.09664 -2.15742 0
M  V30 6237 H 312.917 -7.45574 -4.45629 0
M  V30 6238 H 313.189 -5.86232 -3.67314 0
M  V30 6239 H 312.321 -7.84412 -2.24479 0
M  V30 6240 P 308.358 -8.7635 -1.60911 0
M  V30 6241 O 308.138 -10.1388 -1.11561 0
M  V30 6242 O 307.568 -8.36503 -2.79617 0
M  V30 6243 O 308.108 -7.71806 -0.42951 0
M  V30 6244 C 309.048 -7.66948 0.673514 0
M  V30 6245 C 308.318 -7.33374 1.95559 0
M  V30 6246 O 308.108 -5.88721 2.00726 0
M  V30 6247 C 306.918 -7.92218 2.1125 0
M  V30 6248 O 306.528 -8.02971 3.47653 0
M  V30 6249 C 306.038 -6.89504 1.41631 0
M  V30 6250 C 306.748 -5.59106 1.75155 0
M  V30 6251 N 306.698 -4.58136 0.662409 0
M  V30 6252 C 306.548 -3.26059 1.02863 0
M  V30 6253 O 306.458 -2.90743 2.19009 0
M  V30 6254 N 306.508 -2.35995 -0.0155585 0
M  V30 6255 C 306.598 -2.65248 -1.35603 0
M  V30 6256 O 306.548 -1.75605 -2.20651 0
M  V30 6257 C 306.748 -4.05747 -1.64698 0
M  V30 6258 C 306.858 -4.42345 -3.09553 0
M  V30 6259 C 306.798 -4.96734 -0.652411 0
M  V30 6260 H 309.539 -8.64917 0.776982 0
M  V30 6261 H 309.808 -6.89974 0.474015 0
M  V30 6262 H 308.941 -7.66548 2.79458 0
M  V30 6263 H 306.286 -5.16076 2.65138 0
M  V30 6264 H 306.007 -7.06433 0.329384 0
M  V30 6265 H 305.015 -6.90829 1.81996 0
M  V30 6266 H 306.849 -8.90774 1.62639 0
M  V30 6267 H 306.92 -6.02181 -0.895285 0
M  V30 6268 H 305.89 -4.80252 -3.45468 0
M  V30 6269 H 307.627 -5.20015 -3.22119 0
M  V30 6270 H 307.139 -3.53269 -3.67833 0
M  V30 6271 H 306.403 -1.39558 0.227499 0
M  V30 6272 P 304.978 -8.03563 3.84925 0
M  V30 6273 O 304.758 -8.85821 5.0569 0
M  V30 6274 O 304.188 -8.41101 2.65469 0
M  V30 6275 O 304.728 -6.4965 4.18908 0
M  V30 6276 C 305.668 -5.80886 5.05289 0
M  V30 6277 C 304.938 -4.78366 5.89277 0
M  V30 6278 O 304.728 -3.58302 5.08433 0
M  V30 6279 C 303.538 -5.16748 6.36559 0
M  V30 6280 O 303.148 -4.45271 7.53232 0
M  V30 6281 C 302.658 -4.74572 5.19863 0
M  V30 6282 C 303.368 -3.49373 4.70338 0
M  V30 6283 N 303.318 -3.31704 3.22876 0
M  V30 6284 C 303.168 -2.03326 2.74871 0
M  V30 6285 O 303.078 -1.06486 3.48076 0
M  V30 6286 N 303.128 -1.91838 1.37456 0
M  V30 6287 C 303.218 -2.94295 0.462035 0
M  V30 6288 C 303.368 -4.25064 1.05249 0
M  V30 6289 C 303.418 -4.40214 2.39192 0
M  V30 6290 H 306.159 -6.54063 5.71245 0
M  V30 6291 H 306.428 -5.30339 4.43905 0
M  V30 6292 H 305.561 -4.55889 6.76652 0
M  V30 6293 H 302.906 -2.6167 5.17842 0
M  V30 6294 H 302.627 -5.52155 4.41878 0
M  V30 6295 H 301.635 -4.51918 5.53297 0
M  V30 6296 H 303.469 -6.25055 6.55162 0
M  V30 6297 H 303.54 -5.39798 2.81523 0
M  V30 6298 P 301.598 -4.23843 7.83734 0
M  V30 6299 O 301.378 -4.19407 9.29784 0
M  V30 6300 O 300.808 -5.24426 7.09156 0
M  V30 6301 O 301.348 -2.7935 7.20758 0
M  V30 6302 C 302.288 -1.7299 7.50419 0
M  V30 6303 C 301.558 -0.406376 7.57911 0
M  V30 6304 O 301.348 0.0897726 6.21935 0
M  V30 6305 C 300.158 -0.447224 8.1878 0
M  V30 6306 O 299.768 0.825065 8.71101 0
M  V30 6307 C 299.278 -0.783801 6.99623 0
M  V30 6308 C 299.988 -0.0619192 5.85967 0
M  V30 6309 N 299.938 -0.7859 4.56281 0
M  V30 6310 H 302.777 -1.93423 8.4679 0
M  V30 6311 H 303.049 -1.68181 6.71046 0
M  V30 6312 H 302.181 0.289041 8.15388 0
M  V30 6313 P 298.218 1.17771 8.83182 0
M  V30 6314 O 297.998 2.07206 9.98732 0
M  V30 6315 O 297.428 -0.0743816 8.81969 0
M  V30 6316 O 297.968 1.97652 7.47304 0
M  V30 6317 C 298.908 3.01133 7.08783 0
M  V30 6318 C 298.178 4.12613 6.37049 0
M  V30 6319 O 297.968 3.72827 4.97879 0
M  V30 6320 C 296.778 4.45085 6.88694 0
M  V30 6321 O 296.388 5.7877 6.5624 0
M  V30 6322 C 295.898 3.47817 6.12078 0
M  V30 6323 C 296.608 3.39414 4.77697 0
M  V30 6324 N 296.558 2.04615 4.15333 0
M  V30 6325 H 299.397 3.41248 7.98759 0
M  V30 6326 H 299.669 2.5837 6.41742 0
M  V30 6327 H 298.801 5.02657 6.42673 0
M  V30 6328 P 294.838 6.144 6.45285 0
M  V30 6329 O 294.618 7.54673 6.86199 0
M  V30 6330 O 294.048 5.12391 7.179 0
M  V30 6331 O 294.588 5.99158 4.88404 0
M  V30 6332 C 295.528 6.60234 3.96415 0
M  V30 6333 C 294.798 7.08259 2.72856 0
M  V30 6334 O 294.588 5.9427 1.83651 0
M  V30 6335 C 293.398 7.64886 2.9555 0
M  V30 6336 O 293.008 8.53963 1.90717 0
M  V30 6337 C 292.518 6.4116 2.90739 0
M  V30 6338 C 293.228 5.55375 1.86963 0
M  V30 6339 N 293.178 4.09664 2.15742 0
M  V30 6340 H 296.017 7.45574 4.45629 0
M  V30 6341 H 296.289 5.86232 3.67314 0
M  V30 6342 H 295.421 7.84412 2.24479 0
M  V30 6343 P 291.458 8.7635 1.60911 0
M  V30 6344 O 291.238 10.1388 1.11561 0
M  V30 6345 O 290.668 8.36503 2.79617 0
M  V30 6346 O 291.208 7.71806 0.42951 0
M  V30 6347 C 292.148 7.67148 -0.673689 0
M  V30 6348 C 291.418 7.33374 -1.95559 0
M  V30 6349 O 291.208 5.88721 -2.00726 0
M  V30 6350 C 290.018 7.92526 -2.10483 0
M  V30 6351 O 289.628 8.02971 -3.47653 0
M  V30 6352 C 289.138 6.89602 -1.41652 0
M  V30 6353 C 289.848 5.59201 -1.75185 0
M  V30 6354 N 289.798 4.58235 -0.662552 0
M  V30 6355 H 292.637 8.65116 -0.777161 0
M  V30 6356 H 292.909 6.90173 -0.474152 0
M  V30 6357 H 292.041 7.66548 -2.79458 0
M  V30 6358 P 288.078 8.03563 -3.84925 0
M  V30 6359 O 287.858 8.85821 -5.0569 0
M  V30 6360 O 287.288 8.41101 -2.65469 0
M  V30 6361 O 287.828 6.4965 -4.18908 0
M  V30 6362 C 288.768 5.80886 -5.05289 0
M  V30 6363 C 288.038 4.78366 -5.89277 0
M  V30 6364 O 287.828 3.58302 -5.08433 0
M  V30 6365 C 286.638 5.16748 -6.36559 0
M  V30 6366 O 286.248 4.45271 -7.53232 0
M  V30 6367 C 285.758 4.74572 -5.19863 0
M  V30 6368 C 286.468 3.49373 -4.70338 0
M  V30 6369 N 286.418 3.31704 -3.22876 0
M  V30 6370 C 286.268 2.03326 -2.74871 0
M  V30 6371 O 286.178 1.06486 -3.48076 0
M  V30 6372 N 286.228 1.91838 -1.37456 0
M  V30 6373 C 286.318 2.94295 -0.462035 0
M  V30 6374 C 286.468 4.25064 -1.05249 0
M  V30 6375 C 286.518 4.40214 -2.39192 0
M  V30 6376 H 289.259 6.54063 -5.71245 0
M  V30 6377 H 289.528 5.30339 -4.43905 0
M  V30 6378 H 288.661 4.55889 -6.76652 0
M  V30 6379 H 286.006 2.6167 -5.17842 0
M  V30 6380 H 285.727 5.52155 -4.41878 0
M  V30 6381 H 284.735 4.51918 -5.53297 0
M  V30 6382 H 286.569 6.25055 -6.55162 0
M  V30 6383 H 286.64 5.39798 -2.81523 0
M  V30 6384 P 284.698 4.23843 -7.83734 0
M  V30 6385 O 284.478 4.19407 -9.29784 0
M  V30 6386 O 283.908 5.24426 -7.09156 0
M  V30 6387 O 284.448 2.7935 -7.20758 0
M  V30 6388 C 285.388 1.7299 -7.50419 0
M  V30 6389 C 284.658 0.406376 -7.57911 0
M  V30 6390 O 284.448 -0.0897726 -6.21935 0
M  V30 6391 C 283.258 0.447224 -8.1878 0
M  V30 6392 O 282.868 -0.825065 -8.71101 0
M  V30 6393 C 282.378 0.783801 -6.99623 0
M  V30 6394 C 283.088 0.0619192 -5.85967 0
M  V30 6395 N 283.038 0.7859 -4.56281 0
M  V30 6396 C 283.118 2.14308 -4.31736 0
M  V30 6397 N 283.038 2.46106 -3.05116 0
M  V30 6398 C 282.898 1.23422 -2.4014 0
M  V30 6399 C 282.768 0.938381 -1.02409 0
M  V30 6400 O 282.748 1.70876 -0.0650402 0
M  V30 6401 N 282.648 -0.444647 -0.805413 0
M  V30 6402 C 282.648 -1.40829 -1.79435 0
M  V30 6403 N 282.518 -2.67213 -1.38558 0
M  V30 6404 N 282.778 -1.12947 -3.09005 0
M  V30 6405 C 282.898 0.204887 -3.32369 0
M  V30 6406 H 285.877 1.93423 -8.4679 0
M  V30 6407 H 286.149 1.68181 -6.71046 0
M  V30 6408 H 285.281 -0.289041 -8.15388 0
M  V30 6409 H 282.626 -0.927166 -5.72947 0
M  V30 6410 H 282.346 1.87 -6.82132 0
M  V30 6411 H 281.355 0.404009 -7.13457 0
M  V30 6412 H 283.189 1.20612 -8.97633 0
M  V30 6413 H 283.238 2.88284 -5.10874 0
M  V30 6414 H 282.556 -0.755087 0.140242 0
M  V30 6415 H 282.519 -3.43967 -2.0729 0
M  V30 6416 H 282.418 -2.88096 -0.380644 0
M  V30 6417 P 281.318 -1.17771 -8.83182 0
M  V30 6418 O 281.098 -2.07206 -9.98732 0
M  V30 6419 O 280.528 0.0743816 -8.81969 0
M  V30 6420 O 281.068 -1.97652 -7.47304 0
M  V30 6421 C 282.008 -3.01133 -7.08783 0
M  V30 6422 C 281.278 -4.12613 -6.37049 0
M  V30 6423 O 281.068 -3.72827 -4.97879 0
M  V30 6424 C 279.878 -4.45085 -6.88694 0
M  V30 6425 O 279.488 -5.7877 -6.5624 0
M  V30 6426 C 278.998 -3.47817 -6.12078 0
M  V30 6427 C 279.708 -3.39414 -4.77697 0
M  V30 6428 N 279.658 -2.04199 -4.15538 0
M  V30 6429 H 282.497 -3.41248 -7.98759 0
M  V30 6430 H 282.769 -2.57728 -6.42 0
M  V30 6431 H 281.901 -5.02657 -6.42673 0
M  V30 6432 H 279.246 -4.11708 -4.08956 0
M  V30 6433 H 278.966 -2.49626 -6.61679 0
M  V30 6434 H 277.975 -3.8662 -6.00862 0
M  V30 6435 H 279.809 -4.29991 -7.97006 0
M  V30 6436 P 277.938 -6.144 -6.45285 0
M  V30 6437 O 277.718 -7.54673 -6.86199 0
M  V30 6438 O 277.148 -5.12391 -7.179 0
M  V30 6439 O 277.688 -5.99158 -4.88404 0
M  V30 6440 C 278.628 -6.60234 -3.96415 0
M  V30 6441 C 277.898 -7.08259 -2.72856 0
M  V30 6442 O 277.688 -5.9427 -1.83651 0
M  V30 6443 C 276.498 -7.64886 -2.9555 0
M  V30 6444 O 276.108 -8.53963 -1.90717 0
M  V30 6445 C 275.618 -6.4116 -2.90739 0
M  V30 6446 C 276.328 -5.55375 -1.86963 0
M  V30 6447 N 276.278 -4.09664 -2.15742 0
M  V30 6448 H 279.117 -7.45574 -4.45629 0
M  V30 6449 H 279.389 -5.86232 -3.67314 0
M  V30 6450 H 278.521 -7.84412 -2.24479 0
M  V30 6451 P 274.558 -8.7635 -1.60911 0
M  V30 6452 O 274.338 -10.1388 -1.11561 0
M  V30 6453 O 273.768 -8.36503 -2.79617 0
M  V30 6454 O 274.308 -7.71806 -0.42951 0
M  V30 6455 C 275.248 -7.67148 0.673689 0
M  V30 6456 C 274.518 -7.33374 1.95559 0
M  V30 6457 O 274.308 -5.88721 2.00726 0
M  V30 6458 C 273.118 -7.92526 2.10483 0
M  V30 6459 O 272.728 -8.02971 3.47653 0
M  V30 6460 C 272.238 -6.89602 1.41652 0
M  V30 6461 C 272.948 -5.59201 1.75185 0
M  V30 6462 N 272.898 -4.58235 0.662552 0
M  V30 6463 H 275.737 -8.65116 0.777161 0
M  V30 6464 H 276.009 -6.90173 0.474152 0
M  V30 6465 H 275.141 -7.66548 2.79458 0
M  V30 6466 P 271.178 -8.03563 3.84925 0
M  V30 6467 O 270.958 -8.85821 5.0569 0
M  V30 6468 O 270.388 -8.41101 2.65469 0
M  V30 6469 O 270.928 -6.4965 4.18908 0
M  V30 6470 C 271.868 -5.81037 5.05421 0
M  V30 6471 C 271.138 -4.78366 5.89277 0
M  V30 6472 O 270.928 -3.58302 5.08433 0
M  V30 6473 C 269.738 -5.17448 6.36119 0
M  V30 6474 O 269.348 -4.45271 7.53232 0
M  V30 6475 C 268.858 -4.74639 5.19936 0
M  V30 6476 C 269.568 -3.49432 4.70418 0
M  V30 6477 N 269.518 -3.31776 3.22945 0
M  V30 6478 H 272.357 -6.54213 5.71376 0
M  V30 6479 H 272.629 -5.30492 4.44033 0
M  V30 6480 H 271.761 -4.55889 6.76652 0
M  V30 6481 P 267.798 -4.23843 7.83734 0
M  V30 6482 O 267.578 -4.19407 9.29784 0
M  V30 6483 O 267.008 -5.24426 7.09156 0
M  V30 6484 O 267.548 -2.7935 7.20758 0
M  V30 6485 C 268.488 -1.7299 7.50419 0
M  V30 6486 C 267.758 -0.406376 7.57911 0
M  V30 6487 O 267.548 0.0897726 6.21935 0
M  V30 6488 C 266.358 -0.447224 8.1878 0
M  V30 6489 O 265.968 0.825065 8.71101 0
M  V30 6490 C 265.478 -0.783801 6.99623 0
M  V30 6491 C 266.188 -0.0619192 5.85967 0
M  V30 6492 N 266.138 -0.790462 4.56202 0
M  V30 6493 C 266.218 -2.13895 4.34171 0
M  V30 6494 N 266.148 -2.46449 3.08687 0
M  V30 6495 C 265.998 -1.2525 2.43697 0
M  V30 6496 C 265.868 -0.914535 1.07318 0
M  V30 6497 N 265.858 -1.80782 0.0887348 0
M  V30 6498 N 265.748 0.386745 0.768133 0
M  V30 6499 C 265.758 1.28096 1.75159 0
M  V30 6500 N 265.878 1.09708 3.04861 0
M  V30 6501 C 265.998 -0.214857 3.32306 0
M  V30 6502 H 268.977 -1.93423 8.4679 0
M  V30 6503 H 269.249 -1.68852 6.70877 0
M  V30 6504 H 268.381 0.289041 8.15388 0
M  V30 6505 H 265.726 0.927006 5.72848 0
M  V30 6506 H 265.446 -1.86973 6.82036 0
M  V30 6507 H 264.455 -0.403953 7.13357 0
M  V30 6508 H 266.289 -1.20599 8.97534 0
M  V30 6509 H 266.33 -2.86846 5.14318 0
M  V30 6510 H 265.949 -2.81082 0.302037 0
M  V30 6511 H 265.76 -1.49688 -0.889064 0
M  V30 6512 H 265.652 2.31317 1.43855 0
M  V30 6513 P 264.418 1.17771 8.83182 0
M  V30 6514 O 264.198 2.07206 9.98732 0
M  V30 6515 O 263.628 -0.0743816 8.81969 0
M  V30 6516 O 264.168 1.97652 7.47304 0
M  V30 6517 C 265.108 3.01133 7.08783 0
M  V30 6518 C 264.378 4.12613 6.37049 0
M  V30 6519 O 264.168 3.72827 4.97879 0
M  V30 6520 C 262.978 4.45085 6.88694 0
M  V30 6521 O 262.588 5.7877 6.5624 0
M  V30 6522 C 262.098 3.47817 6.12078 0
M  V30 6523 C 262.808 3.39414 4.77697 0
M  V30 6524 N 262.758 2.04615 4.15333 0
M  V30 6525 H 265.597 3.41248 7.98759 0
M  V30 6526 H 265.869 2.5837 6.41742 0
M  V30 6527 H 265.001 5.02657 6.42673 0
M  V30 6528 P 261.038 6.144 6.45285 0
M  V30 6529 O 260.818 7.54673 6.86199 0
M  V30 6530 O 260.248 5.12391 7.179 0
M  V30 6531 O 260.788 5.99158 4.88404 0
M  V30 6532 C 261.728 6.60234 3.96415 0
M  V30 6533 C 260.998 7.08259 2.72856 0
M  V30 6534 O 260.788 5.9427 1.83651 0
M  V30 6535 C 259.598 7.64886 2.9555 0
M  V30 6536 O 259.208 8.53963 1.90717 0
M  V30 6537 C 258.718 6.4116 2.90739 0
M  V30 6538 C 259.428 5.55375 1.86963 0
M  V30 6539 N 259.378 4.09664 2.15742 0
M  V30 6540 C 259.458 3.44381 3.37233 0
M  V30 6541 N 259.378 2.14131 3.28347 0
M  V30 6542 C 259.238 1.90247 1.91588 0
M  V30 6543 C 259.108 0.683992 1.20892 0
M  V30 6544 N 258.988 0.903396 -0.173998 0
M  V30 6545 C 258.988 2.14171 -0.784879 0
M  V30 6546 N 258.858 2.1435 -2.11317 0
M  V30 6547 N 259.118 3.28784 -0.119316 0
M  V30 6548 C 259.238 3.0977 1.22194 0
M  V30 6549 H 262.217 7.45574 4.45629 0
M  V30 6550 H 262.489 5.86232 3.67314 0
M  V30 6551 H 261.621 7.84412 2.24479 0
M  V30 6552 P 257.658 8.7635 1.60911 0
M  V30 6553 O 257.438 10.1388 1.11561 0
M  V30 6554 O 256.868 8.36503 2.79617 0
M  V30 6555 O 257.408 7.71806 0.42951 0
M  V30 6556 C 258.348 7.67148 -0.673689 0
M  V30 6557 C 257.618 7.33374 -1.95559 0
M  V30 6558 O 257.408 5.88721 -2.00726 0
M  V30 6559 C 256.218 7.92526 -2.10483 0
M  V30 6560 O 255.828 8.02971 -3.47653 0
M  V30 6561 C 255.338 6.89602 -1.41652 0
M  V30 6562 C 256.048 5.59201 -1.75185 0
M  V30 6563 N 255.998 4.58235 -0.662552 0
M  V30 6564 H 258.837 8.65116 -0.777161 0
M  V30 6565 H 259.109 6.90173 -0.474152 0
M  V30 6566 H 258.241 7.66548 -2.79458 0
M  V30 6567 P 254.279 8.03563 -3.84925 0
M  V30 6568 O 254.059 8.85821 -5.0569 0
M  V30 6569 O 253.489 8.41101 -2.65469 0
M  V30 6570 O 254.029 6.4965 -4.18908 0
M  V30 6571 C 254.969 5.81037 -5.05421 0
M  V30 6572 C 254.239 4.78366 -5.89277 0
M  V30 6573 O 254.029 3.58302 -5.08433 0
M  V30 6574 C 252.839 5.17448 -6.36119 0
M  V30 6575 O 252.449 4.45271 -7.53232 0
M  V30 6576 C 251.959 4.74639 -5.19936 0
M  V30 6577 C 252.669 3.49432 -4.70418 0
M  V30 6578 N 252.619 3.31776 -3.22945 0
M  V30 6579 H 255.458 6.54213 -5.71376 0
M  V30 6580 H 255.73 5.30492 -4.44033 0
M  V30 6581 H 254.862 4.55889 -6.76652 0
M  V30 6582 P 250.899 4.23843 -7.83734 0
M  V30 6583 O 250.679 4.19407 -9.29784 0
M  V30 6584 O 250.109 5.24426 -7.09156 0
M  V30 6585 O 250.649 2.7935 -7.20758 0
M  V30 6586 C 251.589 1.7299 -7.50419 0
M  V30 6587 C 250.859 0.406376 -7.57911 0
M  V30 6588 O 250.649 -0.0897726 -6.21935 0
M  V30 6589 C 249.459 0.447224 -8.1878 0
M  V30 6590 O 249.069 -0.825065 -8.71101 0
M  V30 6591 C 248.579 0.783801 -6.99623 0
M  V30 6592 C 249.289 0.0619192 -5.85967 0
M  V30 6593 N 249.239 0.7859 -4.56281 0
M  V30 6594 H 252.078 1.93423 -8.4679 0
M  V30 6595 H 252.35 1.68181 -6.71046 0
M  V30 6596 H 251.482 -0.289041 -8.15388 0
M  V30 6597 P 247.519 -1.17771 -8.83182 0
M  V30 6598 O 247.299 -2.07206 -9.98732 0
M  V30 6599 O 246.729 0.0743816 -8.81969 0
M  V30 6600 O 247.269 -1.97652 -7.47304 0
M  V30 6601 C 248.209 -3.01055 -7.08599 0
M  V30 6602 C 247.479 -4.12613 -6.37049 0
M  V30 6603 O 247.269 -3.72827 -4.97879 0
M  V30 6604 C 246.079 -4.45719 -6.88164 0
M  V30 6605 O 245.689 -5.7877 -6.5624 0
M  V30 6606 C 245.199 -3.47768 -6.11991 0
M  V30 6607 C 245.909 -3.39356 -4.77615 0
M  V30 6608 N 245.859 -2.04571 -4.15244 0
M  V30 6609 C 245.709 -1.98587 -2.78314 0
M  V30 6610 O 245.619 -2.98134 -2.08835 0
M  V30 6611 N 245.669 -0.714467 -2.24925 0
M  V30 6612 C 245.759 0.470001 -2.94169 0
M  V30 6613 C 245.909 0.312541 -4.36783 0
M  V30 6614 C 245.959 -0.914512 -4.92583 0
M  V30 6615 H 248.7 -3.41169 -7.98575 0
M  V30 6616 H 248.969 -2.58295 -6.41556 0
M  V30 6617 H 248.102 -5.02657 -6.42673 0
M  V30 6618 H 245.447 -4.11637 -4.08885 0
M  V30 6619 H 245.168 -2.49626 -6.61679 0
M  V30 6620 H 244.176 -3.86566 -6.00778 0
M  V30 6621 H 246.01 -4.29943 -7.96918 0
M  V30 6622 H 246.081 -1.00937 -6.00374 0
M  V30 6623 P 244.139 -6.144 -6.45285 0
M  V30 6624 O 243.919 -7.54673 -6.86199 0
M  V30 6625 O 243.349 -5.12391 -7.179 0
M  V30 6626 O 243.889 -5.99158 -4.88404 0
M  V30 6627 C 244.829 -6.60234 -3.96415 0
M  V30 6628 C 244.099 -7.08259 -2.72856 0
M  V30 6629 O 243.889 -5.9427 -1.83651 0
M  V30 6630 C 242.699 -7.64886 -2.9555 0
M  V30 6631 O 242.309 -8.53963 -1.90717 0
M  V30 6632 C 241.819 -6.4116 -2.90739 0
M  V30 6633 C 242.529 -5.55375 -1.86963 0
M  V30 6634 N 242.479 -4.09664 -2.15742 0
M  V30 6635 H 245.318 -7.45574 -4.45629 0
M  V30 6636 H 245.59 -5.86232 -3.67314 0
M  V30 6637 H 244.722 -7.84412 -2.24479 0
M  V30 6638 P 240.759 -8.7635 -1.60911 0
M  V30 6639 O 240.539 -10.1388 -1.11561 0
M  V30 6640 O 239.969 -8.36503 -2.79617 0
M  V30 6641 O 240.509 -7.71806 -0.42951 0
M  V30 6642 C 241.449 -7.67148 0.673689 0
M  V30 6643 C 240.719 -7.33374 1.95559 0
M  V30 6644 O 240.509 -5.88721 2.00726 0
M  V30 6645 C 239.319 -7.92526 2.10483 0
M  V30 6646 O 238.929 -8.02971 3.47653 0
M  V30 6647 C 238.439 -6.89602 1.41652 0
M  V30 6648 C 239.149 -5.59201 1.75185 0
M  V30 6649 N 239.099 -4.58235 0.662552 0
M  V30 6650 H 241.938 -8.65116 0.777161 0
M  V30 6651 H 242.21 -6.90173 0.474152 0
M  V30 6652 H 241.342 -7.66548 2.79458 0
M  V30 6653 P 237.379 -8.03563 3.84925 0
M  V30 6654 O 237.159 -8.85821 5.0569 0
M  V30 6655 O 236.589 -8.41101 2.65469 0
M  V30 6656 O 237.129 -6.49734 4.18962 0
M  V30 6657 C 238.069 -5.81037 5.05421 0
M  V30 6658 C 237.339 -4.79018 5.88876 0
M  V30 6659 O 237.129 -3.58359 5.08515 0
M  V30 6660 C 235.939 -5.17448 6.36119 0
M  V30 6661 O 235.549 -4.45322 7.53318 0
M  V30 6662 C 235.059 -4.74639 5.19936 0
M  V30 6663 C 235.769 -3.49432 4.70418 0
M  V30 6664 N 235.719 -3.31776 3.22945 0
M  V30 6665 C 235.569 -2.02742 2.72939 0
M  V30 6666 O 235.479 -1.08301 3.52749 0
M  V30 6667 N 235.519 -1.96117 1.22063 0
M  V30 6668 C 235.619 -2.8878 0.551566 0
M  V30 6669 N 235.569 -2.65609 -0.750198 0
M  V30 6670 C 235.769 -4.22457 1.03707 0
M  V30 6671 C 235.819 -4.37979 2.39113 0
M  V30 6672 H 238.559 -6.54138 5.7131 0
M  V30 6673 H 238.829 -5.30492 4.44033 0
M  V30 6674 H 237.962 -4.55945 6.76735 0
M  V30 6675 H 235.307 -2.6176 5.18021 0
M  V30 6676 H 235.027 -5.52233 4.41941 0
M  V30 6677 H 234.036 -4.52045 5.53452 0
M  V30 6678 H 235.87 -6.25124 6.55234 0
M  V30 6679 H 235.942 -5.37936 2.80552 0
M  V30 6680 H 235.84 -5.07528 0.359553 0
M  V30 6681 H 235.452 -1.69403 -1.09847 0
M  V30 6682 H 235.648 -3.43701 -1.41792 0
M  V30 6683 P 233.999 -4.23843 7.83734 0
M  V30 6684 O 233.779 -4.19407 9.29784 0
M  V30 6685 O 233.209 -5.24426 7.09156 0
M  V30 6686 O 233.749 -2.7935 7.20758 0
M  V30 6687 C 234.689 -1.72945 7.50224 0
M  V30 6688 C 233.959 -0.406376 7.57911 0
M  V30 6689 O 233.749 0.0897726 6.21935 0
M  V30 6690 C 232.559 -0.438983 8.18724 0
M  V30 6691 O 232.169 0.825065 8.71101 0
M  V30 6692 C 231.679 -0.783689 6.99524 0
M  V30 6693 C 232.389 -0.0619086 5.85867 0
M  V30 6694 N 232.339 -0.78573 4.56183 0
M  V30 6695 C 232.189 -0.0292889 3.41887 0
M  V30 6696 O 232.099 1.18445 3.4419 0
M  V30 6697 N 232.149 -0.744061 2.23964 0
M  V30 6698 C 232.239 -2.10932 2.10362 0
M  V30 6699 O 232.189 -2.64117 0.98825 0
M  V30 6700 C 232.389 -2.8202 3.34994 0
M  V30 6701 C 232.499 -4.31095 3.25037 0
M  V30 6702 C 232.439 -2.15547 4.52261 0
M  V30 6703 H 235.18 -1.93379 8.46595 0
M  V30 6704 H 235.449 -1.68132 6.70852 0
M  V30 6705 H 234.582 0.289041 8.15388 0
M  V30 6706 H 231.927 0.926847 5.72749 0
M  V30 6707 H 231.648 -1.86973 6.82036 0
M  V30 6708 H 230.656 -0.403896 7.13257 0
M  V30 6709 H 232.49 -1.20585 8.97435 0
M  V30 6710 H 232.561 -2.71231 5.45042 0
M  V30 6711 H 231.531 -4.76966 3.49992 0
M  V30 6712 H 233.268 -4.67047 3.95024 0
M  V30 6713 H 232.78 -4.58996 2.22312 0
M  V30 6714 H 232.044 -0.214893 1.39758 0
M  V30 6715 P 230.619 1.17771 8.83182 0
M  V30 6716 O 230.399 2.07206 9.98732 0
M  V30 6717 O 229.829 -0.0743816 8.81969 0
M  V30 6718 O 230.369 1.97652 7.47304 0
M  V30 6719 C 231.309 3.01055 7.08599 0
M  V30 6720 C 230.579 4.12613 6.37049 0
M  V30 6721 O 230.369 3.72827 4.97879 0
M  V30 6722 C 229.179 4.45719 6.88164 0
M  V30 6723 O 228.789 5.7877 6.5624 0
M  V30 6724 C 228.299 3.47768 6.11991 0
M  V30 6725 C 229.009 3.39356 4.77615 0
M  V30 6726 N 228.959 2.04571 4.15244 0
M  V30 6727 C 228.809 1.98587 2.78314 0
M  V30 6728 O 228.719 2.98134 2.08835 0
M  V30 6729 N 228.769 0.714467 2.24925 0
M  V30 6730 C 228.859 -0.470001 2.94169 0
M  V30 6731 O 228.809 -1.55587 2.35195 0
M  V30 6732 C 229.009 -0.312541 4.36783 0
M  V30 6733 C 229.119 -1.57711 5.16352 0
M  V30 6734 C 229.059 0.914512 4.92583 0
M  V30 6735 H 231.8 3.41169 7.98575 0
M  V30 6736 H 232.069 2.58295 6.41556 0
M  V30 6737 H 231.202 5.02657 6.42673 0
M  V30 6738 H 228.547 4.11637 4.08885 0
M  V30 6739 H 228.268 2.49626 6.61679 0
M  V30 6740 H 227.276 3.86566 6.00778 0
M  V30 6741 H 229.11 4.29943 7.96918 0
M  V30 6742 H 229.181 1.00937 6.00374 0
M  V30 6743 H 228.151 -1.80153 5.63503 0
M  V30 6744 H 229.888 -1.4566 5.94104 0
M  V30 6745 H 229.4 -2.40664 4.49645 0
M  V30 6746 H 228.664 0.647622 1.25697 0
M  V30 6747 P 227.239 6.144 6.45285 0
M  V30 6748 O 227.019 7.54673 6.86199 0
M  V30 6749 O 226.449 5.12391 7.179 0
M  V30 6750 O 226.989 5.99158 4.88404 0
M  V30 6751 C 227.929 6.60234 3.96415 0
M  V30 6752 C 227.199 7.08259 2.72856 0
M  V30 6753 O 226.989 5.9427 1.83651 0
M  V30 6754 C 225.799 7.64886 2.9555 0
M  V30 6755 O 225.409 8.53963 1.90717 0
M  V30 6756 C 224.919 6.4116 2.90739 0
M  V30 6757 C 225.629 5.55375 1.86963 0
M  V30 6758 N 225.579 4.09664 2.15742 0
M  V30 6759 H 228.418 7.45574 4.45629 0
M  V30 6760 H 228.69 5.86232 3.67314 0
M  V30 6761 H 227.822 7.84412 2.24479 0
M  V30 6762 P 223.859 8.7635 1.60911 0
M  V30 6763 O 223.639 10.1388 1.11561 0
M  V30 6764 O 223.069 8.36503 2.79617 0
M  V30 6765 O 223.609 7.71806 0.42951 0
M  V30 6766 C 224.549 7.67148 -0.673689 0
M  V30 6767 C 223.819 7.33374 -1.95559 0
M  V30 6768 O 223.609 5.88721 -2.00726 0
M  V30 6769 C 222.419 7.92526 -2.10483 0
M  V30 6770 O 222.029 8.02971 -3.47653 0
M  V30 6771 C 221.539 6.89602 -1.41652 0
M  V30 6772 C 222.249 5.59201 -1.75185 0
M  V30 6773 N 222.199 4.58235 -0.662552 0
M  V30 6774 H 225.038 8.65116 -0.777161 0
M  V30 6775 H 225.31 6.90173 -0.474152 0
M  V30 6776 H 224.442 7.66548 -2.79458 0
M  V30 6777 P 220.479 8.03563 -3.84925 0
M  V30 6778 O 220.259 8.85821 -5.0569 0
M  V30 6779 O 219.689 8.41101 -2.65469 0
M  V30 6780 O 220.229 6.4965 -4.18908 0
M  V30 6781 C 221.169 5.81037 -5.05421 0
M  V30 6782 C 220.439 4.78366 -5.89277 0
M  V30 6783 O 220.229 3.58302 -5.08433 0
M  V30 6784 C 219.039 5.17448 -6.36119 0
M  V30 6785 O 218.649 4.45271 -7.53232 0
M  V30 6786 C 218.159 4.74639 -5.19936 0
M  V30 6787 C 218.869 3.49432 -4.70418 0
M  V30 6788 N 218.819 3.31776 -3.22945 0
M  V30 6789 H 221.658 6.54213 -5.71376 0
M  V30 6790 H 221.93 5.30492 -4.44033 0
M  V30 6791 H 221.062 4.55889 -6.76652 0
M  V30 6792 P 217.099 4.23843 -7.83734 0
M  V30 6793 O 216.879 4.19407 -9.29784 0
M  V30 6794 O 216.309 5.24426 -7.09156 0
M  V30 6795 O 216.849 2.7935 -7.20758 0
M  V30 6796 C 217.789 1.72945 -7.50224 0
M  V30 6797 C 217.059 0.406376 -7.57911 0
M  V30 6798 O 216.849 -0.0897726 -6.21935 0
M  V30 6799 C 215.659 0.438983 -8.18724 0
M  V30 6800 O 215.269 -0.825065 -8.71101 0
M  V30 6801 C 214.779 0.783689 -6.99524 0
M  V30 6802 C 215.489 0.0619086 -5.85867 0
M  V30 6803 N 215.439 0.78573 -4.56183 0
M  V30 6804 C 215.289 0.0292889 -3.41887 0
M  V30 6805 O 215.199 -1.18445 -3.4419 0
M  V30 6806 N 215.249 0.744061 -2.23964 0
M  V30 6807 C 215.339 2.10932 -2.10362 0
M  V30 6808 C 215.489 2.8202 -3.34994 0
M  V30 6809 C 215.539 2.15547 -4.52261 0
M  V30 6810 H 218.28 1.93379 -8.46595 0
M  V30 6811 H 218.549 1.68132 -6.70852 0
M  V30 6812 H 217.682 -0.289041 -8.15388 0
M  V30 6813 H 215.027 -0.926847 -5.72749 0
M  V30 6814 H 214.748 1.86973 -6.82036 0
M  V30 6815 H 213.756 0.403896 -7.13257 0
M  V30 6816 H 215.59 1.20585 -8.97435 0
M  V30 6817 H 215.661 2.71231 -5.45042 0
M  V30 6818 P 213.719 -1.17771 -8.83182 0
M  V30 6819 O 213.499 -2.07206 -9.98732 0
M  V30 6820 O 212.929 0.0743816 -8.81969 0
M  V30 6821 O 213.469 -1.97652 -7.47304 0
M  V30 6822 C 214.409 -3.01133 -7.08783 0
M  V30 6823 C 213.679 -4.12613 -6.37049 0
M  V30 6824 O 213.469 -3.72827 -4.97879 0
M  V30 6825 C 212.279 -4.45085 -6.88694 0
M  V30 6826 O 211.889 -5.7877 -6.5624 0
M  V30 6827 C 211.399 -3.47817 -6.12078 0
M  V30 6828 C 212.109 -3.39414 -4.77697 0
M  V30 6829 N 212.059 -2.04615 -4.15333 0
M  V30 6830 H 214.898 -3.41248 -7.98759 0
M  V30 6831 H 215.17 -2.5837 -6.41742 0
M  V30 6832 H 214.302 -5.02657 -6.42673 0
M  V30 6833 P 210.339 -6.144 -6.45285 0
M  V30 6834 O 210.119 -7.54673 -6.86199 0
M  V30 6835 O 209.549 -5.12391 -7.179 0
M  V30 6836 O 210.089 -5.99158 -4.88404 0
M  V30 6837 C 211.029 -6.60234 -3.96415 0
M  V30 6838 C 210.299 -7.08259 -2.72856 0
M  V30 6839 O 210.089 -5.9427 -1.83651 0
M  V30 6840 C 208.899 -7.64886 -2.9555 0
M  V30 6841 O 208.509 -8.53963 -1.90717 0
M  V30 6842 C 208.019 -6.4116 -2.90739 0
M  V30 6843 C 208.729 -5.55375 -1.86963 0
M  V30 6844 N 208.679 -4.09664 -2.15742 0
M  V30 6845 H 211.518 -7.45574 -4.45629 0
M  V30 6846 H 211.79 -5.86232 -3.67314 0
M  V30 6847 H 210.922 -7.84412 -2.24479 0
M  V30 6848 P 206.959 -8.7635 -1.60911 0
M  V30 6849 O 206.739 -10.1388 -1.11561 0
M  V30 6850 O 206.169 -8.36503 -2.79617 0
M  V30 6851 O 206.709 -7.71806 -0.42951 0
M  V30 6852 C 207.649 -7.67148 0.673689 0
M  V30 6853 C 206.919 -7.33374 1.95559 0
M  V30 6854 O 206.709 -5.88721 2.00726 0
M  V30 6855 C 205.519 -7.92526 2.10483 0
M  V30 6856 O 205.129 -8.02971 3.47653 0
M  V30 6857 C 204.639 -6.89602 1.41652 0
M  V30 6858 C 205.349 -5.59201 1.75185 0
M  V30 6859 N 205.299 -4.58235 0.662552 0
M  V30 6860 H 208.138 -8.65116 0.777161 0
M  V30 6861 H 208.41 -6.90173 0.474152 0
M  V30 6862 H 207.542 -7.66548 2.79458 0
M  V30 6863 P 203.579 -8.03563 3.84925 0
M  V30 6864 O 203.359 -8.85821 5.0569 0
M  V30 6865 O 202.789 -8.41101 2.65469 0
M  V30 6866 O 203.329 -6.4965 4.18908 0
M  V30 6867 C 204.269 -5.81037 5.05421 0
M  V30 6868 C 203.539 -4.78366 5.89277 0
M  V30 6869 O 203.329 -3.58302 5.08433 0
M  V30 6870 C 202.139 -5.17448 6.36119 0
M  V30 6871 O 201.749 -4.45271 7.53232 0
M  V30 6872 C 201.259 -4.74639 5.19936 0
M  V30 6873 C 201.969 -3.49432 4.70418 0
M  V30 6874 N 201.919 -3.31776 3.22945 0
M  V30 6875 H 204.758 -6.54213 5.71376 0
M  V30 6876 H 205.03 -5.30492 4.44033 0
M  V30 6877 H 204.162 -4.55889 6.76652 0
M  V30 6878 P 200.199 -4.23843 7.83734 0
M  V30 6879 O 199.979 -4.19407 9.29784 0
M  V30 6880 O 199.409 -5.24426 7.09156 0
M  V30 6881 O 199.949 -2.79386 7.20852 0
M  V30 6882 C 200.889 -1.7299 7.50419 0
M  V30 6883 C 200.159 -0.41401 7.5797 0
M  V30 6884 O 199.949 0.089787 6.22035 0
M  V30 6885 C 198.759 -0.447224 8.1878 0
M  V30 6886 O 198.369 0.825159 8.71201 0
M  V30 6887 C 197.879 -0.783801 6.99623 0
M  V30 6888 C 198.589 -0.0619192 5.85967 0
M  V30 6889 N 198.539 -0.7859 4.56281 0
M  V30 6890 C 198.389 -0.0359258 3.39981 0
M  V30 6891 O 198.299 1.19723 3.49038 0
M  V30 6892 N 198.339 -0.869151 2.14025 0
M  V30 6893 C 198.439 -2.01207 2.14363 0
M  V30 6894 N 198.389 -2.58978 0.954287 0
M  V30 6895 C 198.589 -2.80817 3.32215 0
M  V30 6896 C 198.639 -2.13785 4.50884 0
M  V30 6897 H 201.379 -1.93401 8.46693 0
M  V30 6898 H 201.649 -1.68181 6.71046 0
M  V30 6899 H 200.782 0.289076 8.15488 0
M  V30 6900 H 198.127 0.927166 5.72947 0
M  V30 6901 H 197.847 -1.87 6.82132 0
M  V30 6902 H 196.856 -0.404009 7.13457 0
M  V30 6903 H 198.69 -1.20599 8.97534 0
M  V30 6904 H 198.762 -2.70295 5.43162 0
M  V30 6905 H 198.66 -3.89465 3.27406 0
M  V30 6906 H 198.272 -2.01616 0.107046 0
M  V30 6907 H 198.468 -3.61403 0.873101 0
M  V30 6908 P 196.819 1.17771 8.83182 0
M  V30 6909 O 196.599 2.07206 9.98732 0
M  V30 6910 O 196.029 -0.0743816 8.81969 0
M  V30 6911 O 196.569 1.97652 7.47304 0
M  V30 6912 C 197.509 3.01055 7.08599 0
M  V30 6913 C 196.779 4.12613 6.37049 0
M  V30 6914 O 196.569 3.72827 4.97879 0
M  V30 6915 C 195.379 4.45719 6.88164 0
M  V30 6916 O 194.989 5.7877 6.5624 0
M  V30 6917 C 194.499 3.47768 6.11991 0
M  V30 6918 C 195.209 3.39356 4.77615 0
M  V30 6919 N 195.159 2.04571 4.15244 0
M  V30 6920 C 195.009 1.98587 2.78314 0
M  V30 6921 O 194.919 2.98134 2.08835 0
M  V30 6922 N 194.969 0.714467 2.24925 0
M  V30 6923 C 195.059 -0.470001 2.94169 0
M  V30 6924 O 195.009 -1.55587 2.35195 0
M  V30 6925 C 195.209 -0.312541 4.36783 0
M  V30 6926 C 195.319 -1.57711 5.16352 0
M  V30 6927 C 195.259 0.914512 4.92583 0
M  V30 6928 H 198 3.41169 7.98575 0
M  V30 6929 H 198.269 2.58295 6.41556 0
M  V30 6930 H 197.402 5.02657 6.42673 0
M  V30 6931 H 194.747 4.11637 4.08885 0
M  V30 6932 H 194.468 2.49626 6.61679 0
M  V30 6933 H 193.476 3.86566 6.00778 0
M  V30 6934 H 195.31 4.29943 7.96918 0
M  V30 6935 H 195.381 1.00937 6.00374 0
M  V30 6936 H 194.351 -1.80153 5.63503 0
M  V30 6937 H 196.088 -1.4566 5.94104 0
M  V30 6938 H 195.6 -2.40664 4.49645 0
M  V30 6939 H 194.864 0.647622 1.25697 0
M  V30 6940 P 193.439 6.144 6.45285 0
M  V30 6941 O 193.219 7.54673 6.86199 0
M  V30 6942 O 192.649 5.12391 7.179 0
M  V30 6943 O 193.189 5.99158 4.88404 0
M  V30 6944 C 194.129 6.60234 3.96415 0
M  V30 6945 C 193.399 7.08259 2.72856 0
M  V30 6946 O 193.189 5.9427 1.83651 0
M  V30 6947 C 191.999 7.64886 2.9555 0
M  V30 6948 O 191.609 8.53963 1.90717 0
M  V30 6949 C 191.119 6.4116 2.90739 0
M  V30 6950 C 191.829 5.55375 1.86963 0
M  V30 6951 N 191.779 4.09448 2.16152 0
M  V30 6952 H 194.618 7.45574 4.45629 0
M  V30 6953 H 194.89 5.85864 3.679 0
M  V30 6954 H 194.022 7.84412 2.24479 0
M  V30 6955 H 191.367 5.73457 0.888562 0
M  V30 6956 H 191.087 5.90877 3.88583 0
M  V30 6957 H 190.096 6.6596 2.58858 0
M  V30 6958 H 191.93 8.16339 3.92049 0
M  V30 6959 P 190.059 8.7635 1.60911 0
M  V30 6960 O 189.839 10.1388 1.11561 0
M  V30 6961 O 189.269 8.36503 2.79617 0
M  V30 6962 O 189.809 7.71906 0.429565 0
M  V30 6963 C 190.749 7.67148 -0.673689 0
M  V30 6964 C 190.019 7.33666 -1.94851 0
M  V30 6965 O 189.809 5.88816 -2.00759 0
M  V30 6966 C 188.619 7.92526 -2.10483 0
M  V30 6967 O 188.229 8.03063 -3.47693 0
M  V30 6968 C 187.739 6.89602 -1.41652 0
M  V30 6969 C 188.449 5.59201 -1.75185 0
M  V30 6970 N 188.399 4.58235 -0.662552 0
M  V30 6971 C 188.249 3.24451 -1.01643 0
M  V30 6972 O 188.159 2.94958 -2.21722 0
M  V30 6973 N 188.199 2.30408 0.165238 0
M  V30 6974 C 188.299 2.66048 1.25118 0
M  V30 6975 N 188.249 1.70787 2.16813 0
M  V30 6976 C 188.449 4.02732 1.64413 0
M  V30 6977 C 188.499 4.9488 0.63991 0
M  V30 6978 H 191.239 8.65017 -0.777072 0
M  V30 6979 H 191.509 6.90173 -0.474152 0
M  V30 6980 H 190.642 7.66642 -2.79492 0
M  V30 6981 H 187.987 5.16254 -2.65229 0
M  V30 6982 H 187.707 7.06532 -0.329431 0
M  V30 6983 H 186.716 6.91023 -1.82047 0
M  V30 6984 H 188.55 8.90873 -1.62657 0
M  V30 6985 H 188.622 6.00104 0.892197 0
M  V30 6986 H 188.52 4.31733 2.69229 0
M  V30 6987 H 188.132 0.724835 1.8844 0
M  V30 6988 H 188.328 1.94716 3.16734 0
M  V30 6989 P 186.679 8.03563 -3.84925 0
M  V30 6990 O 186.459 8.85821 -5.0569 0
M  V30 6991 O 185.889 8.41101 -2.65469 0
M  V30 6992 O 186.429 6.4965 -4.18908 0
M  V30 6993 C 187.369 5.81037 -5.05421 0
M  V30 6994 C 186.639 4.78366 -5.89277 0
M  V30 6995 O 186.429 3.58302 -5.08433 0
M  V30 6996 C 185.239 5.17448 -6.36119 0
M  V30 6997 O 184.849 4.45271 -7.53232 0
M  V30 6998 C 184.359 4.74639 -5.19936 0
M  V30 6999 C 185.069 3.49432 -4.70418 0
M  V30 7000 N 185.019 3.31776 -3.22945 0
M  V30 7001 H 187.858 6.54213 -5.71376 0
M  V30 7002 H 188.13 5.30492 -4.44033 0
M  V30 7003 H 187.262 4.55889 -6.76652 0
M  V30 7004 P 183.299 4.23843 -7.83734 0
M  V30 7005 O 183.079 4.19407 -9.29784 0
M  V30 7006 O 182.509 5.24426 -7.09156 0
M  V30 7007 O 183.049 2.7935 -7.20758 0
M  V30 7008 C 183.989 1.7299 -7.50419 0
M  V30 7009 C 183.259 0.406376 -7.57911 0
M  V30 7010 O 183.049 -0.0897726 -6.21935 0
M  V30 7011 C 181.859 0.447224 -8.1878 0
M  V30 7012 O 181.469 -0.825065 -8.71101 0
M  V30 7013 C 180.979 0.783801 -6.99623 0
M  V30 7014 C 181.689 0.0619192 -5.85967 0
M  V30 7015 N 181.639 0.7859 -4.56281 0
M  V30 7016 H 184.478 1.93423 -8.4679 0
M  V30 7017 H 184.75 1.68181 -6.71046 0
M  V30 7018 H 183.882 -0.289041 -8.15388 0
M  V30 7019 P 179.919 -1.17771 -8.83182 0
M  V30 7020 O 179.699 -2.07206 -9.98732 0
M  V30 7021 O 179.129 0.0743816 -8.81969 0
M  V30 7022 O 179.669 -1.97652 -7.47304 0
M  V30 7023 C 180.609 -3.01133 -7.08783 0
M  V30 7024 C 179.879 -4.12613 -6.37049 0
M  V30 7025 O 179.669 -3.72827 -4.97879 0
M  V30 7026 C 178.479 -4.45085 -6.88694 0
M  V30 7027 O 178.089 -5.7877 -6.5624 0
M  V30 7028 C 177.599 -3.47817 -6.12078 0
M  V30 7029 C 178.309 -3.39414 -4.77697 0
M  V30 7030 N 178.259 -2.04615 -4.15333 0
M  V30 7031 H 181.098 -3.41248 -7.98759 0
M  V30 7032 H 181.37 -2.5837 -6.41742 0
M  V30 7033 H 180.502 -5.02657 -6.42673 0
M  V30 7034 P 176.539 -6.144 -6.45285 0
M  V30 7035 O 176.319 -7.54673 -6.86199 0
M  V30 7036 O 175.749 -5.12391 -7.179 0
M  V30 7037 O 176.289 -5.99158 -4.88404 0
M  V30 7038 C 177.229 -6.60062 -3.96313 0
M  V30 7039 C 176.499 -7.08259 -2.72856 0
M  V30 7040 O 176.289 -5.9427 -1.83651 0
M  V30 7041 C 175.099 -7.65087 -2.94749 0
M  V30 7042 O 174.709 -8.53963 -1.90717 0
M  V30 7043 C 174.219 -6.41069 -2.90698 0
M  V30 7044 C 174.929 -5.5528 -1.86931 0
M  V30 7045 N 174.879 -4.09575 -2.15696 0
M  V30 7046 C 174.729 -3.24249 -1.08435 0
M  V30 7047 O 174.639 -3.63946 0.0628747 0
M  V30 7048 N 174.689 -1.90009 -1.39973 0
M  V30 7049 C 174.779 -1.34884 -2.65614 0
M  V30 7050 C 174.929 -2.3145 -3.71736 0
M  V30 7051 C 174.979 -3.63518 -3.44754 0
M  V30 7052 H 177.72 -7.45402 -4.45526 0
M  V30 7053 H 177.989 -5.86062 -3.67208 0
M  V30 7054 H 177.122 -7.84412 -2.24479 0
M  V30 7055 H 174.467 -5.73358 -0.888409 0
M  V30 7056 H 174.188 -5.90877 -3.88583 0
M  V30 7057 H 173.196 -6.65867 -2.58821 0
M  V30 7058 H 175.03 -8.16248 -3.92006 0
M  V30 7059 H 175.101 -4.34551 -4.26383 0
M  V30 7060 P 173.159 -8.7635 -1.60911 0
M  V30 7061 O 172.939 -10.1388 -1.11561 0
M  V30 7062 O 172.369 -8.36503 -2.79617 0
M  V30 7063 O 172.909 -7.71906 -0.429565 0
M  V30 7064 C 173.849 -7.67148 0.673689 0
M  V30 7065 C 173.119 -7.33666 1.94851 0
M  V30 7066 O 172.909 -5.88816 2.00759 0
M  V30 7067 C 171.719 -7.92526 2.10483 0
M  V30 7068 O 171.329 -8.03063 3.47693 0
M  V30 7069 C 170.839 -6.89602 1.41652 0
M  V30 7070 C 171.549 -5.59201 1.75185 0
M  V30 7071 N 171.499 -4.58235 0.662552 0
M  V30 7072 C 171.349 -3.24451 1.01643 0
M  V30 7073 O 171.259 -2.94958 2.21722 0
M  V30 7074 N 171.299 -2.30408 -0.165238 0
M  V30 7075 C 171.399 -2.66048 -1.25118 0
M  V30 7076 N 171.349 -1.70787 -2.16813 0
M  V30 7077 C 171.549 -4.02732 -1.64413 0
M  V30 7078 C 171.599 -4.9488 -0.63991 0
M  V30 7079 H 174.339 -8.65017 0.777072 0
M  V30 7080 H 174.609 -6.90173 0.474152 0
M  V30 7081 H 173.742 -7.66642 2.79492 0
M  V30 7082 H 171.087 -5.16254 2.65229 0
M  V30 7083 H 170.807 -7.06532 0.329431 0
M  V30 7084 H 169.816 -6.91023 1.82047 0
M  V30 7085 H 171.65 -8.90873 1.62657 0
M  V30 7086 H 171.722 -6.00104 -0.892197 0
M  V30 7087 H 171.62 -4.31733 -2.69229 0
M  V30 7088 H 171.232 -0.724835 -1.8844 0
M  V30 7089 H 171.428 -1.94716 -3.16734 0
M  V30 7090 P 169.779 -8.03563 3.84925 0
M  V30 7091 O 169.559 -8.85821 5.0569 0
M  V30 7092 O 168.989 -8.41101 2.65469 0
M  V30 7093 O 169.529 -6.4965 4.18908 0
M  V30 7094 C 170.469 -5.81037 5.05421 0
M  V30 7095 C 169.739 -4.78366 5.89277 0
M  V30 7096 O 169.529 -3.58302 5.08433 0
M  V30 7097 C 168.339 -5.17448 6.36119 0
M  V30 7098 O 167.949 -4.45271 7.53232 0
M  V30 7099 C 167.459 -4.74639 5.19936 0
M  V30 7100 C 168.169 -3.49432 4.70418 0
M  V30 7101 N 168.119 -3.32099 3.22613 0
M  V30 7102 C 168.199 -4.28245 2.25527 0
M  V30 7103 N 168.129 -3.80823 1.04874 0
M  V30 7104 C 167.979 -2.44571 1.23535 0
M  V30 7105 C 167.849 -1.37068 0.330675 0
M  V30 7106 N 167.839 -1.51472 -0.990824 0
M  V30 7107 N 167.729 -0.138614 0.848756 0
M  V30 7108 C 167.739 0.00675923 2.16999 0
M  V30 7109 N 167.859 -0.904372 3.11122 0
M  V30 7110 C 167.979 -2.12707 2.56212 0
M  V30 7111 H 170.958 -6.54213 5.71376 0
M  V30 7112 H 171.23 -5.30936 4.43503 0
M  V30 7113 H 170.362 -4.55889 6.76652 0
M  V30 7114 H 167.707 -2.61715 5.17932 0
M  V30 7115 H 167.427 -5.52155 4.41878 0
M  V30 7116 H 166.436 -4.51981 5.53374 0
M  V30 7117 H 168.27 -6.25124 6.55234 0
M  V30 7118 H 168.311 -5.34372 2.47488 0
M  V30 7119 H 167.93 -2.45153 -1.4078 0
M  V30 7120 H 167.741 -0.688422 -1.59911 0
M  V30 7121 H 167.633 1.02584 2.52346 0
M  V30 7122 P 166.399 -4.23843 7.83734 0
M  V30 7123 O 166.179 -4.19407 9.29784 0
M  V30 7124 O 165.609 -5.24426 7.09156 0
M  V30 7125 O 166.149 -2.7935 7.20758 0
M  V30 7126 C 167.089 -1.7299 7.50419 0
M  V30 7127 C 166.359 -0.406376 7.57911 0
M  V30 7128 O 166.149 0.0897726 6.21935 0
M  V30 7129 C 164.959 -0.447224 8.1878 0
M  V30 7130 O 164.569 0.825065 8.71101 0
M  V30 7131 C 164.079 -0.783801 6.99623 0
M  V30 7132 C 164.789 -0.0619192 5.85967 0
M  V30 7133 N 164.739 -0.790462 4.56202 0
M  V30 7134 H 167.578 -1.93423 8.4679 0
M  V30 7135 H 167.85 -1.68852 6.70877 0
M  V30 7136 H 166.982 0.289041 8.15388 0
M  V30 7137 H 164.327 0.927006 5.72848 0
M  V30 7138 H 164.047 -1.86973 6.82036 0
M  V30 7139 H 163.056 -0.403953 7.13357 0
M  V30 7140 H 164.89 -1.20599 8.97534 0
M  V30 7141 P 163.019 1.17771 8.83182 0
M  V30 7142 O 162.799 2.07206 9.98732 0
M  V30 7143 O 162.229 -0.0743816 8.81969 0
M  V30 7144 O 162.769 1.97652 7.47304 0
M  V30 7145 C 163.709 3.01133 7.08783 0
M  V30 7146 C 162.979 4.12613 6.37049 0
M  V30 7147 O 162.769 3.72827 4.97879 0
M  V30 7148 C 161.579 4.45085 6.88694 0
M  V30 7149 O 161.189 5.7877 6.5624 0
M  V30 7150 C 160.699 3.47817 6.12078 0
M  V30 7151 C 161.409 3.39414 4.77697 0
M  V30 7152 N 161.359 2.04199 4.15538 0
M  V30 7153 H 164.198 3.41248 7.98759 0
M  V30 7154 H 164.47 2.57728 6.42 0
M  V30 7155 H 163.602 5.02657 6.42673 0
M  V30 7156 H 160.947 4.11708 4.08956 0
M  V30 7157 H 160.667 2.49626 6.61679 0
M  V30 7158 H 159.676 3.8662 6.00862 0
M  V30 7159 H 161.51 4.29991 7.97006 0
M  V30 7160 P 159.639 6.144 6.45285 0
M  V30 7161 O 159.419 7.54673 6.86199 0
M  V30 7162 O 158.849 5.12391 7.179 0
M  V30 7163 O 159.389 5.99158 4.88404 0
M  V30 7164 C 160.329 6.60234 3.96415 0
M  V30 7165 C 159.599 7.08259 2.72856 0
M  V30 7166 O 159.389 5.9427 1.83651 0
M  V30 7167 C 158.199 7.64886 2.9555 0
M  V30 7168 O 157.809 8.53963 1.90717 0
M  V30 7169 C 157.319 6.4116 2.90739 0
M  V30 7170 C 158.029 5.55375 1.86963 0
M  V30 7171 N 157.979 4.09664 2.15742 0
M  V30 7172 H 160.818 7.45574 4.45629 0
M  V30 7173 H 161.09 5.86232 3.67314 0
M  V30 7174 H 160.222 7.84412 2.24479 0
M  V30 7175 P 156.259 8.7635 1.60911 0
M  V30 7176 O 156.039 10.1388 1.11561 0
M  V30 7177 O 155.469 8.36503 2.79617 0
M  V30 7178 O 156.009 7.71806 0.42951 0
M  V30 7179 C 156.949 7.67148 -0.673689 0
M  V30 7180 C 156.219 7.33374 -1.95559 0
M  V30 7181 O 156.009 5.88721 -2.00726 0
M  V30 7182 C 154.819 7.92526 -2.10483 0
M  V30 7183 O 154.429 8.02971 -3.47653 0
M  V30 7184 C 153.939 6.89602 -1.41652 0
M  V30 7185 C 154.649 5.59201 -1.75185 0
M  V30 7186 N 154.599 4.58235 -0.662552 0
M  V30 7187 H 157.438 8.65116 -0.777161 0
M  V30 7188 H 157.71 6.90173 -0.474152 0
M  V30 7189 H 156.842 7.66548 -2.79458 0
M  V30 7190 P 152.879 8.03563 -3.84925 0
M  V30 7191 O 152.659 8.85821 -5.0569 0
M  V30 7192 O 152.089 8.41101 -2.65469 0
M  V30 7193 O 152.629 6.4965 -4.18908 0
M  V30 7194 C 153.569 5.81037 -5.05421 0
M  V30 7195 C 152.839 4.78366 -5.89277 0
M  V30 7196 O 152.629 3.58302 -5.08433 0
M  V30 7197 C 151.439 5.17448 -6.36119 0
M  V30 7198 O 151.049 4.45271 -7.53232 0
M  V30 7199 C 150.559 4.74639 -5.19936 0
M  V30 7200 C 151.269 3.49432 -4.70418 0
M  V30 7201 N 151.219 3.31776 -3.22945 0
M  V30 7202 H 154.058 6.54213 -5.71376 0
M  V30 7203 H 154.33 5.30492 -4.44033 0
M  V30 7204 H 153.462 4.55889 -6.76652 0
M  V30 7205 P 149.499 4.23843 -7.83734 0
M  V30 7206 O 149.279 4.19407 -9.29784 0
M  V30 7207 O 148.709 5.24426 -7.09156 0
M  V30 7208 O 149.249 2.79386 -7.20852 0
M  V30 7209 C 150.189 1.7299 -7.50419 0
M  V30 7210 C 149.459 0.41401 -7.5797 0
M  V30 7211 O 149.249 -0.089787 -6.22035 0
M  V30 7212 C 148.059 0.447224 -8.1878 0
M  V30 7213 O 147.669 -0.825159 -8.71201 0
M  V30 7214 C 147.179 0.783801 -6.99623 0
M  V30 7215 C 147.889 0.0619192 -5.85967 0
M  V30 7216 N 147.839 0.7859 -4.56281 0
M  V30 7217 C 147.689 0.0359258 -3.39981 0
M  V30 7218 O 147.599 -1.19723 -3.49038 0
M  V30 7219 N 147.639 0.869151 -2.14025 0
M  V30 7220 C 147.739 2.01207 -2.14363 0
M  V30 7221 N 147.689 2.58978 -0.954287 0
M  V30 7222 C 147.889 2.80817 -3.32215 0
M  V30 7223 C 147.939 2.13785 -4.50884 0
M  V30 7224 H 150.679 1.93401 -8.46693 0
M  V30 7225 H 150.949 1.68181 -6.71046 0
M  V30 7226 H 150.082 -0.289076 -8.15488 0
M  V30 7227 H 147.427 -0.927166 -5.72947 0
M  V30 7228 H 147.147 1.87 -6.82132 0
M  V30 7229 H 146.156 0.404009 -7.13457 0
M  V30 7230 H 147.99 1.20599 -8.97534 0
M  V30 7231 H 148.062 2.70295 -5.43162 0
M  V30 7232 H 147.96 3.89465 -3.27406 0
M  V30 7233 H 147.572 2.01616 -0.107046 0
M  V30 7234 H 147.768 3.61403 -0.873101 0
M  V30 7235 P 146.119 -1.17771 -8.83182 0
M  V30 7236 O 145.899 -2.07206 -9.98732 0
M  V30 7237 O 145.329 0.0743816 -8.81969 0
M  V30 7238 O 145.869 -1.97652 -7.47304 0
M  V30 7239 C 146.809 -3.01133 -7.08783 0
M  V30 7240 C 146.079 -4.12613 -6.37049 0
M  V30 7241 O 145.869 -3.72827 -4.97879 0
M  V30 7242 C 144.679 -4.45085 -6.88694 0
M  V30 7243 O 144.289 -5.7877 -6.5624 0
M  V30 7244 C 143.799 -3.47817 -6.12078 0
M  V30 7245 C 144.509 -3.39414 -4.77697 0
M  V30 7246 N 144.459 -2.04615 -4.15333 0
M  V30 7247 H 147.298 -3.41248 -7.98759 0
M  V30 7248 H 147.57 -2.5837 -6.41742 0
M  V30 7249 H 146.702 -5.02657 -6.42673 0
M  V30 7250 P 142.739 -6.144 -6.45285 0
M  V30 7251 O 142.519 -7.54673 -6.86199 0
M  V30 7252 O 141.949 -5.12391 -7.179 0
M  V30 7253 O 142.489 -5.99236 -4.88467 0
M  V30 7254 C 143.429 -6.60234 -3.96415 0
M  V30 7255 C 142.699 -7.08079 -2.736 0
M  V30 7256 O 142.489 -5.94365 -1.8368 0
M  V30 7257 C 141.299 -7.64886 -2.9555 0
M  V30 7258 O 140.909 -8.5406 -1.90739 0
M  V30 7259 C 140.419 -6.4116 -2.90739 0
M  V30 7260 C 141.129 -5.55375 -1.86963 0
M  V30 7261 N 141.079 -4.09664 -2.15742 0
M  V30 7262 C 140.929 -3.22231 -1.08477 0
M  V30 7263 O 140.839 -3.68951 0.0600489 0
M  V30 7264 N 140.879 -1.76692 -1.48799 0
M  V30 7265 C 140.979 -1.41695 -2.57602 0
M  V30 7266 N 140.929 -0.107296 -2.75791 0
M  V30 7267 C 141.129 -2.29178 -3.69733 0
M  V30 7268 C 141.179 -3.62753 -3.42653 0
M  V30 7269 H 143.919 -7.45488 -4.45578 0
M  V30 7270 H 144.189 -5.86232 -3.67314 0
M  V30 7271 H 143.322 -7.84508 -2.24507 0
M  V30 7272 H 140.667 -5.73556 -0.888715 0
M  V30 7273 H 140.387 -5.9096 -3.88638 0
M  V30 7274 H 139.396 -6.66053 -2.58894 0
M  V30 7275 H 141.23 -8.16339 -3.92049 0
M  V30 7276 H 141.302 -4.33052 -4.24913 0
M  V30 7277 H 141.2 -1.9103 -4.71577 0
M  V30 7278 H 140.812 0.521221 -1.95056 0
M  V30 7279 H 141.008 0.286429 -3.70695 0
M  V30 7280 P 139.359 -8.7635 -1.60911 0
M  V30 7281 O 139.139 -10.1388 -1.11561 0
M  V30 7282 O 138.569 -8.36503 -2.79617 0
M  V30 7283 O 139.109 -7.71806 -0.42951 0
M  V30 7284 C 140.049 -7.67148 0.673689 0
M  V30 7285 C 139.319 -7.33374 1.95559 0
M  V30 7286 O 139.109 -5.88721 2.00726 0
M  V30 7287 C 137.919 -7.92526 2.10483 0
M  V30 7288 O 137.529 -8.02971 3.47653 0
M  V30 7289 C 137.039 -6.89602 1.41652 0
M  V30 7290 C 137.749 -5.59201 1.75185 0
M  V30 7291 N 137.699 -4.58235 0.662552 0
M  V30 7292 H 140.538 -8.65116 0.777161 0
M  V30 7293 H 140.81 -6.90173 0.474152 0
M  V30 7294 H 139.942 -7.66548 2.79458 0
M  V30 7295 P 135.979 -8.03563 3.84925 0
M  V30 7296 O 135.759 -8.85821 5.0569 0
M  V30 7297 O 135.189 -8.41101 2.65469 0
M  V30 7298 O 135.729 -6.49734 4.18962 0
M  V30 7299 C 136.669 -5.81037 5.05421 0
M  V30 7300 C 135.939 -4.79018 5.88876 0
M  V30 7301 O 135.729 -3.58359 5.08515 0
M  V30 7302 C 134.539 -5.17448 6.36119 0
M  V30 7303 O 134.149 -4.45322 7.53318 0
M  V30 7304 C 133.659 -4.74639 5.19936 0
M  V30 7305 C 134.369 -3.49432 4.70418 0
M  V30 7306 N 134.319 -3.31776 3.22945 0
M  V30 7307 C 134.169 -2.02742 2.72939 0
M  V30 7308 O 134.079 -1.08301 3.52749 0
M  V30 7309 N 134.119 -1.96117 1.22063 0
M  V30 7310 C 134.219 -2.8878 0.551566 0
M  V30 7311 N 134.169 -2.65609 -0.750198 0
M  V30 7312 C 134.369 -4.22457 1.03707 0
M  V30 7313 C 134.419 -4.37979 2.39113 0
M  V30 7314 H 137.159 -6.54138 5.7131 0
M  V30 7315 H 137.429 -5.30492 4.44033 0
M  V30 7316 H 136.562 -4.55945 6.76735 0
M  V30 7317 H 133.907 -2.6176 5.18021 0
M  V30 7318 H 133.627 -5.52233 4.41941 0
M  V30 7319 H 132.636 -4.52045 5.53452 0
M  V30 7320 H 134.47 -6.25124 6.55234 0
M  V30 7321 H 134.542 -5.37936 2.80552 0
M  V30 7322 H 134.44 -5.07528 0.359553 0
M  V30 7323 H 134.052 -1.69403 -1.09847 0
M  V30 7324 H 134.248 -3.43701 -1.41792 0
M  V30 7325 P 132.599 -4.23843 7.83734 0
M  V30 7326 O 132.379 -4.19407 9.29784 0
M  V30 7327 O 131.809 -5.24426 7.09156 0
M  V30 7328 O 132.349 -2.7935 7.20758 0
M  V30 7329 C 133.289 -1.7299 7.50419 0
M  V30 7330 C 132.559 -0.406376 7.57911 0
M  V30 7331 O 132.349 0.0897726 6.21935 0
M  V30 7332 C 131.159 -0.447224 8.1878 0
M  V30 7333 O 130.769 0.825065 8.71101 0
M  V30 7334 C 130.279 -0.783801 6.99623 0
M  V30 7335 C 130.989 -0.0619192 5.85967 0
M  V30 7336 N 130.939 -0.7859 4.56281 0
M  V30 7337 H 133.778 -1.93423 8.4679 0
M  V30 7338 H 134.05 -1.68181 6.71046 0
M  V30 7339 H 133.182 0.289041 8.15388 0
M  V30 7340 P 129.219 1.17771 8.83182 0
M  V30 7341 O 128.999 2.07206 9.98732 0
M  V30 7342 O 128.429 -0.0743816 8.81969 0
M  V30 7343 O 128.969 1.97652 7.47304 0
M  V30 7344 C 129.909 3.01133 7.08783 0
M  V30 7345 C 129.179 4.12613 6.37049 0
M  V30 7346 O 128.969 3.72827 4.97879 0
M  V30 7347 C 127.779 4.45085 6.88694 0
M  V30 7348 O 127.389 5.7877 6.5624 0
M  V30 7349 C 126.899 3.47817 6.12078 0
M  V30 7350 C 127.609 3.39414 4.77697 0
M  V30 7351 N 127.559 2.04615 4.15333 0
M  V30 7352 H 130.398 3.41248 7.98759 0
M  V30 7353 H 130.67 2.5837 6.41742 0
M  V30 7354 H 129.802 5.02657 6.42673 0
M  V30 7355 P 125.839 6.144 6.45285 0
M  V30 7356 O 125.619 7.54673 6.86199 0
M  V30 7357 O 125.049 5.12391 7.179 0
M  V30 7358 O 125.589 5.99158 4.88404 0
M  V30 7359 C 126.529 6.60234 3.96415 0
M  V30 7360 C 125.799 7.08259 2.72856 0
M  V30 7361 O 125.589 5.9427 1.83651 0
M  V30 7362 C 124.399 7.64886 2.9555 0
M  V30 7363 O 124.009 8.53963 1.90717 0
M  V30 7364 C 123.519 6.4116 2.90739 0
M  V30 7365 C 124.229 5.55375 1.86963 0
M  V30 7366 N 124.179 4.09664 2.15742 0
M  V30 7367 H 127.018 7.45574 4.45629 0
M  V30 7368 H 127.29 5.86232 3.67314 0
M  V30 7369 H 126.422 7.84412 2.24479 0
M  V30 7370 P 122.459 8.7635 1.60911 0
M  V30 7371 O 122.239 10.1388 1.11561 0
M  V30 7372 O 121.669 8.36503 2.79617 0
M  V30 7373 O 122.209 7.71806 0.42951 0
M  V30 7374 C 123.149 7.67148 -0.673689 0
M  V30 7375 C 122.419 7.33374 -1.95559 0
M  V30 7376 O 122.209 5.88721 -2.00726 0
M  V30 7377 C 121.019 7.92526 -2.10483 0
M  V30 7378 O 120.629 8.02971 -3.47653 0
M  V30 7379 C 120.139 6.89602 -1.41652 0
M  V30 7380 C 120.849 5.59201 -1.75185 0
M  V30 7381 N 120.799 4.58235 -0.662552 0
M  V30 7382 H 123.638 8.65116 -0.777161 0
M  V30 7383 H 123.91 6.90173 -0.474152 0
M  V30 7384 H 123.042 7.66548 -2.79458 0
M  V30 7385 P 119.079 8.03563 -3.84925 0
M  V30 7386 O 118.859 8.85821 -5.0569 0
M  V30 7387 O 118.289 8.41101 -2.65469 0
M  V30 7388 O 118.829 6.4965 -4.18908 0
M  V30 7389 C 119.769 5.81037 -5.05421 0
M  V30 7390 C 119.039 4.78366 -5.89277 0
M  V30 7391 O 118.829 3.58302 -5.08433 0
M  V30 7392 C 117.639 5.17448 -6.36119 0
M  V30 7393 O 117.249 4.45271 -7.53232 0
M  V30 7394 C 116.759 4.74639 -5.19936 0
M  V30 7395 C 117.469 3.49432 -4.70418 0
M  V30 7396 N 117.419 3.32099 -3.22613 0
M  V30 7397 H 120.258 6.54213 -5.71376 0
M  V30 7398 H 120.53 5.30936 -4.43503 0
M  V30 7399 H 119.662 4.55889 -6.76652 0
M  V30 7400 H 117.007 2.61715 -5.17932 0
M  V30 7401 H 116.727 5.52155 -4.41878 0
M  V30 7402 H 115.736 4.51981 -5.53374 0
M  V30 7403 H 117.57 6.25124 -6.55234 0
M  V30 7404 P 115.699 4.23843 -7.83734 0
M  V30 7405 O 115.479 4.19407 -9.29784 0
M  V30 7406 O 114.909 5.24426 -7.09156 0
M  V30 7407 O 115.449 2.7935 -7.20758 0
M  V30 7408 C 116.389 1.72945 -7.50224 0
M  V30 7409 C 115.659 0.406376 -7.57911 0
M  V30 7410 O 115.449 -0.0897726 -6.21935 0
M  V30 7411 C 114.259 0.438983 -8.18724 0
M  V30 7412 O 113.869 -0.825065 -8.71101 0
M  V30 7413 C 113.379 0.783689 -6.99524 0
M  V30 7414 C 114.089 0.0619086 -5.85867 0
M  V30 7415 N 114.039 0.78573 -4.56183 0
M  V30 7416 C 113.889 0.0292889 -3.41887 0
M  V30 7417 O 113.799 -1.18445 -3.4419 0
M  V30 7418 N 113.849 0.744061 -2.23964 0
M  V30 7419 C 113.939 2.10932 -2.10362 0
M  V30 7420 O 113.889 2.64117 -0.98825 0
M  V30 7421 C 114.089 2.8202 -3.34994 0
M  V30 7422 C 114.199 4.31095 -3.25037 0
M  V30 7423 C 114.139 2.15547 -4.52261 0
M  V30 7424 H 116.88 1.93379 -8.46595 0
M  V30 7425 H 117.149 1.68132 -6.70852 0
M  V30 7426 H 116.282 -0.289041 -8.15388 0
M  V30 7427 H 113.627 -0.926847 -5.72749 0
M  V30 7428 H 113.348 1.86973 -6.82036 0
M  V30 7429 H 112.356 0.403896 -7.13257 0
M  V30 7430 H 114.19 1.20585 -8.97435 0
M  V30 7431 H 114.261 2.71231 -5.45042 0
M  V30 7432 H 113.231 4.76966 -3.49992 0
M  V30 7433 H 114.968 4.67047 -3.95024 0
M  V30 7434 H 114.48 4.58996 -2.22312 0
M  V30 7435 H 113.744 0.214893 -1.39758 0
M  V30 7436 P 112.319 -1.17771 -8.83182 0
M  V30 7437 O 112.099 -2.07206 -9.98732 0
M  V30 7438 O 111.529 0.0743816 -8.81969 0
M  V30 7439 O 112.069 -1.97652 -7.47304 0
M  V30 7440 C 113.009 -3.01133 -7.08783 0
M  V30 7441 C 112.279 -4.12613 -6.37049 0
M  V30 7442 O 112.069 -3.72827 -4.97879 0
M  V30 7443 C 110.879 -4.45085 -6.88694 0
M  V30 7444 O 110.489 -5.7877 -6.5624 0
M  V30 7445 C 109.999 -3.47817 -6.12078 0
M  V30 7446 C 110.709 -3.39414 -4.77697 0
M  V30 7447 N 110.659 -2.04199 -4.15538 0
M  V30 7448 H 113.498 -3.41248 -7.98759 0
M  V30 7449 H 113.77 -2.57728 -6.42 0
M  V30 7450 H 112.902 -5.02657 -6.42673 0
M  V30 7451 H 110.247 -4.11708 -4.08956 0
M  V30 7452 H 109.967 -2.49626 -6.61679 0
M  V30 7453 H 108.976 -3.8662 -6.00862 0
M  V30 7454 H 110.81 -4.29991 -7.97006 0
M  V30 7455 P 108.939 -6.144 -6.45285 0
M  V30 7456 O 108.719 -7.54673 -6.86199 0
M  V30 7457 O 108.149 -5.12391 -7.179 0
M  V30 7458 O 108.689 -5.99158 -4.88404 0
M  V30 7459 C 109.629 -6.60234 -3.96415 0
M  V30 7460 C 108.899 -7.08259 -2.72856 0
M  V30 7461 O 108.689 -5.9427 -1.83651 0
M  V30 7462 C 107.499 -7.64886 -2.9555 0
M  V30 7463 O 107.109 -8.53963 -1.90717 0
M  V30 7464 C 106.619 -6.4116 -2.90739 0
M  V30 7465 C 107.329 -5.55375 -1.86963 0
M  V30 7466 N 107.279 -4.09664 -2.15742 0
M  V30 7467 H 110.118 -7.45574 -4.45629 0
M  V30 7468 H 110.39 -5.86232 -3.67314 0
M  V30 7469 H 109.522 -7.84412 -2.24479 0
M  V30 7470 P 105.559 -8.7635 -1.60911 0
M  V30 7471 O 105.339 -10.1388 -1.11561 0
M  V30 7472 O 104.769 -8.36503 -2.79617 0
M  V30 7473 O 105.309 -7.71806 -0.42951 0
M  V30 7474 C 106.249 -7.67148 0.673689 0
M  V30 7475 C 105.519 -7.33374 1.95559 0
M  V30 7476 O 105.309 -5.88721 2.00726 0
M  V30 7477 C 104.119 -7.92526 2.10483 0
M  V30 7478 O 103.729 -8.02971 3.47653 0
M  V30 7479 C 103.239 -6.89602 1.41652 0
M  V30 7480 C 103.949 -5.59201 1.75185 0
M  V30 7481 N 103.899 -4.58235 0.662552 0
M  V30 7482 H 106.738 -8.65116 0.777161 0
M  V30 7483 H 107.01 -6.90173 0.474152 0
M  V30 7484 H 106.142 -7.66548 2.79458 0
M  V30 7485 P 102.179 -8.03563 3.84925 0
M  V30 7486 O 101.959 -8.85821 5.0569 0
M  V30 7487 O 101.389 -8.41101 2.65469 0
M  V30 7488 O 101.929 -6.49734 4.18962 0
M  V30 7489 C 102.869 -5.81037 5.05421 0
M  V30 7490 C 102.139 -4.79018 5.88876 0
M  V30 7491 O 101.929 -3.58359 5.08515 0
M  V30 7492 C 100.739 -5.17448 6.36119 0
M  V30 7493 O 100.349 -4.45322 7.53318 0
M  V30 7494 C 99.8594 -4.74639 5.19936 0
M  V30 7495 C 100.569 -3.49432 4.70418 0
M  V30 7496 N 100.519 -3.31776 3.22945 0
M  V30 7497 C 100.369 -2.02742 2.72939 0
M  V30 7498 O 100.279 -1.08301 3.52749 0
M  V30 7499 N 100.319 -1.96117 1.22063 0
M  V30 7500 C 100.419 -2.8878 0.551566 0
M  V30 7501 N 100.369 -2.65609 -0.750198 0
M  V30 7502 C 100.569 -4.22457 1.03707 0
M  V30 7503 C 100.619 -4.37979 2.39113 0
M  V30 7504 H 103.359 -6.54138 5.7131 0
M  V30 7505 H 103.629 -5.30492 4.44033 0
M  V30 7506 H 102.762 -4.55945 6.76735 0
M  V30 7507 H 100.107 -2.6176 5.18021 0
M  V30 7508 H 99.8274 -5.52233 4.41941 0
M  V30 7509 H 98.8364 -4.52045 5.53452 0
M  V30 7510 H 100.67 -6.25124 6.55234 0
M  V30 7511 H 100.742 -5.37936 2.80552 0
M  V30 7512 H 100.64 -5.07528 0.359553 0
M  V30 7513 H 100.252 -1.69403 -1.09847 0
M  V30 7514 H 100.448 -3.43701 -1.41792 0
M  V30 7515 P 98.7994 -4.23843 7.83734 0
M  V30 7516 O 98.5794 -4.19407 9.29784 0
M  V30 7517 O 98.0094 -5.24426 7.09156 0
M  V30 7518 O 98.5494 -2.7935 7.20758 0
M  V30 7519 C 99.4894 -1.7299 7.50419 0
M  V30 7520 C 98.7594 -0.406376 7.57911 0
M  V30 7521 O 98.5494 0.0897726 6.21935 0
M  V30 7522 C 97.3594 -0.447224 8.1878 0
M  V30 7523 O 96.9694 0.825065 8.71101 0
M  V30 7524 C 96.4794 -0.783801 6.99623 0
M  V30 7525 C 97.1894 -0.0619192 5.85967 0
M  V30 7526 N 97.1394 -0.7859 4.56281 0
M  V30 7527 H 99.9784 -1.93423 8.4679 0
M  V30 7528 H 100.25 -1.68181 6.71046 0
M  V30 7529 H 99.3824 0.289041 8.15388 0
M  V30 7530 P 95.4195 1.17771 8.83182 0
M  V30 7531 O 95.1995 2.07206 9.98732 0
M  V30 7532 O 94.6295 -0.0743816 8.81969 0
M  V30 7533 O 95.1695 1.97678 7.474 0
M  V30 7534 C 96.1095 3.01133 7.08783 0
M  V30 7535 C 95.3795 4.1203 6.37546 0
M  V30 7536 O 95.1695 3.72887 4.9796 0
M  V30 7537 C 93.9795 4.45085 6.88694 0
M  V30 7538 O 93.5895 5.78836 6.56315 0
M  V30 7539 C 93.0995 3.47817 6.12078 0
M  V30 7540 C 93.8095 3.39414 4.77697 0
M  V30 7541 N 93.7595 2.04615 4.15333 0
M  V30 7542 C 93.6095 1.96929 2.77162 0
M  V30 7543 O 93.5195 3.02017 2.12006 0
M  V30 7544 N 93.5595 0.55485 2.24237 0
M  V30 7545 C 93.6595 -0.367808 2.9169 0
M  V30 7546 N 93.6095 -1.53426 2.29427 0
M  V30 7547 C 93.8095 -0.319148 4.33828 0
M  V30 7548 C 93.8595 0.920672 4.90433 0
M  V30 7549 H 96.5995 3.41209 7.98667 0
M  V30 7550 H 96.8695 2.5837 6.41742 0
M  V30 7551 H 96.0025 5.02718 6.42752 0
M  V30 7552 H 93.3475 4.11779 4.09026 0
M  V30 7553 H 93.0675 2.49661 6.61772 0
M  V30 7554 H 92.0765 3.86674 6.00946 0
M  V30 7555 H 93.9105 4.29991 7.97006 0
M  V30 7556 H 93.9825 1.00589 5.98303 0
M  V30 7557 H 93.8805 -1.22639 4.93799 0
M  V30 7558 H 93.4925 -1.56819 1.27167 0
M  V30 7559 H 93.6885 -2.41062 2.83063 0
M  V30 7560 P 92.0395 6.144 6.45285 0
M  V30 7561 O 91.8195 7.54673 6.86199 0
M  V30 7562 O 91.2495 5.12391 7.179 0
M  V30 7563 O 91.7895 5.99158 4.88404 0
M  V30 7564 C 92.7295 6.60234 3.96415 0
M  V30 7565 C 91.9995 7.08259 2.72856 0
M  V30 7566 O 91.7895 5.9427 1.83651 0
M  V30 7567 C 90.5995 7.64886 2.9555 0
M  V30 7568 O 90.2095 8.53963 1.90717 0
M  V30 7569 C 89.7195 6.4116 2.90739 0
M  V30 7570 C 90.4295 5.55375 1.86963 0
M  V30 7571 N 90.3795 4.09664 2.15742 0
M  V30 7572 H 93.2185 7.45574 4.45629 0
M  V30 7573 H 93.4905 5.86232 3.67314 0
M  V30 7574 H 92.6225 7.84412 2.24479 0
M  V30 7575 P 88.6595 8.7635 1.60911 0
M  V30 7576 O 88.4395 10.1388 1.11561 0
M  V30 7577 O 87.8695 8.36503 2.79617 0
M  V30 7578 O 88.4095 7.71806 0.42951 0
M  V30 7579 C 89.3495 7.67148 -0.673689 0
M  V30 7580 C 88.6195 7.33374 -1.95559 0
M  V30 7581 O 88.4095 5.88721 -2.00726 0
M  V30 7582 C 87.2195 7.92526 -2.10483 0
M  V30 7583 O 86.8295 8.02971 -3.47653 0
M  V30 7584 C 86.3395 6.89602 -1.41652 0
M  V30 7585 C 87.0495 5.59201 -1.75185 0
M  V30 7586 N 86.9995 4.58235 -0.662552 0
M  V30 7587 H 89.8385 8.65116 -0.777161 0
M  V30 7588 H 90.1105 6.90173 -0.474152 0
M  V30 7589 H 89.2425 7.66548 -2.79458 0
M  V30 7590 P 85.2795 8.03563 -3.84925 0
M  V30 7591 O 85.0595 8.85821 -5.0569 0
M  V30 7592 O 84.4895 8.41101 -2.65469 0
M  V30 7593 O 85.0295 6.4965 -4.18908 0
M  V30 7594 C 85.9695 5.81037 -5.05421 0
M  V30 7595 C 85.2395 4.78366 -5.89277 0
M  V30 7596 O 85.0295 3.58302 -5.08433 0
M  V30 7597 C 83.8395 5.17448 -6.36119 0
M  V30 7598 O 83.4495 4.45271 -7.53232 0
M  V30 7599 C 82.9595 4.74639 -5.19936 0
M  V30 7600 C 83.6695 3.49432 -4.70418 0
M  V30 7601 N 83.6195 3.31776 -3.22945 0
M  V30 7602 H 86.4585 6.54213 -5.71376 0
M  V30 7603 H 86.7305 5.30492 -4.44033 0
M  V30 7604 H 85.8625 4.55889 -6.76652 0
M  V30 7605 P 81.8995 4.23843 -7.83734 0
M  V30 7606 O 81.6795 4.19407 -9.29784 0
M  V30 7607 O 81.1095 5.24426 -7.09156 0
M  V30 7608 O 81.6495 2.7935 -7.20758 0
M  V30 7609 C 82.5895 1.72945 -7.50224 0
M  V30 7610 C 81.8595 0.406376 -7.57911 0
M  V30 7611 O 81.6495 -0.0897726 -6.21935 0
M  V30 7612 C 80.4595 0.438983 -8.18724 0
M  V30 7613 O 80.0695 -0.825065 -8.71101 0
M  V30 7614 C 79.5795 0.783689 -6.99524 0
M  V30 7615 C 80.2895 0.0619086 -5.85867 0
M  V30 7616 N 80.2395 0.78573 -4.56183 0
M  V30 7617 C 80.0895 0.0292889 -3.41887 0
M  V30 7618 O 79.9995 -1.18445 -3.4419 0
M  V30 7619 N 80.0495 0.744061 -2.23964 0
M  V30 7620 C 80.1395 2.10932 -2.10362 0
M  V30 7621 C 80.2895 2.8202 -3.34994 0
M  V30 7622 C 80.3395 2.15547 -4.52261 0
M  V30 7623 H 83.0805 1.93379 -8.46595 0
M  V30 7624 H 83.3495 1.68132 -6.70852 0
M  V30 7625 H 82.4825 -0.289041 -8.15388 0
M  V30 7626 H 79.8275 -0.926847 -5.72749 0
M  V30 7627 H 79.5485 1.86973 -6.82036 0
M  V30 7628 H 78.5565 0.403896 -7.13257 0
M  V30 7629 H 80.3905 1.20585 -8.97435 0
M  V30 7630 H 80.4615 2.71231 -5.45042 0
M  V30 7631 P 78.5196 -1.17771 -8.83182 0
M  V30 7632 O 78.2996 -2.07206 -9.98732 0
M  V30 7633 O 77.7296 0.0743816 -8.81969 0
M  V30 7634 O 78.2696 -1.97652 -7.47304 0
M  V30 7635 C 79.2096 -3.01133 -7.08783 0
M  V30 7636 C 78.4796 -4.12613 -6.37049 0
M  V30 7637 O 78.2696 -3.72827 -4.97879 0
M  V30 7638 C 77.0796 -4.45085 -6.88694 0
M  V30 7639 O 76.6896 -5.7877 -6.5624 0
M  V30 7640 C 76.1996 -3.47817 -6.12078 0
M  V30 7641 C 76.9096 -3.39414 -4.77697 0
M  V30 7642 N 76.8596 -2.04199 -4.15538 0
M  V30 7643 C 76.9396 -0.821545 -4.76977 0
M  V30 7644 N 76.8696 0.1794 -3.94592 0
M  V30 7645 C 76.7196 -0.419121 -2.70776 0
M  V30 7646 C 76.5896 0.109072 -1.40577 0
M  V30 7647 N 76.5796 1.4104 -1.1344 0
M  V30 7648 N 76.4696 -0.764381 -0.39411 0
M  V30 7649 C 76.4796 -2.06587 -0.664135 0
M  V30 7650 N 76.5996 -2.67948 -1.82153 0
M  V30 7651 C 76.7196 -1.77942 -2.8147 0
M  V30 7652 H 79.6986 -3.41248 -7.98759 0
M  V30 7653 H 79.9706 -2.57728 -6.42 0
M  V30 7654 H 79.1026 -5.02657 -6.42673 0
M  V30 7655 H 76.4476 -4.11708 -4.08956 0
M  V30 7656 H 76.1676 -2.49626 -6.61679 0
M  V30 7657 H 75.1766 -3.8662 -6.00862 0
M  V30 7658 H 77.0106 -4.29991 -7.97006 0
M  V30 7659 H 77.0516 -0.702451 -5.84696 0
M  V30 7660 H 76.6706 2.09647 -1.89651 0
M  V30 7661 H 76.4816 1.73358 -0.160575 0
M  V30 7662 H 76.3736 -2.71695 0.195838 0
M  V30 7663 P 75.1396 -6.144 -6.45285 0
M  V30 7664 O 74.9196 -7.54673 -6.86199 0
M  V30 7665 O 74.3496 -5.12391 -7.179 0
M  V30 7666 O 74.8896 -5.99158 -4.88404 0
M  V30 7667 C 75.8296 -6.60062 -3.96313 0
M  V30 7668 C 75.0996 -7.08259 -2.72856 0
M  V30 7669 O 74.8896 -5.9427 -1.83651 0
M  V30 7670 C 73.6996 -7.65087 -2.94749 0
M  V30 7671 O 73.3096 -8.53963 -1.90717 0
M  V30 7672 C 72.8196 -6.41069 -2.90698 0
M  V30 7673 C 73.5296 -5.5528 -1.86931 0
M  V30 7674 N 73.4796 -4.09575 -2.15696 0
M  V30 7675 C 73.3296 -3.24249 -1.08435 0
M  V30 7676 O 73.2396 -3.63946 0.0628747 0
M  V30 7677 N 73.2896 -1.90009 -1.39973 0
M  V30 7678 C 73.3796 -1.34884 -2.65614 0
M  V30 7679 C 73.5296 -2.3145 -3.71736 0
M  V30 7680 C 73.5796 -3.63518 -3.44754 0
M  V30 7681 H 76.3206 -7.45402 -4.45526 0
M  V30 7682 H 76.5896 -5.86062 -3.67208 0
M  V30 7683 H 75.7226 -7.84412 -2.24479 0
M  V30 7684 H 73.0676 -5.73358 -0.888409 0
M  V30 7685 H 72.7886 -5.90877 -3.88583 0
M  V30 7686 H 71.7966 -6.65867 -2.58821 0
M  V30 7687 H 73.6306 -8.16248 -3.92006 0
M  V30 7688 H 73.7016 -4.34551 -4.26383 0
M  V30 7689 P 71.7596 -8.7635 -1.60911 0
M  V30 7690 O 71.5396 -10.1388 -1.11561 0
M  V30 7691 O 70.9696 -8.36503 -2.79617 0
M  V30 7692 O 71.5096 -7.71906 -0.429565 0
M  V30 7693 C 72.4496 -7.67148 0.673689 0
M  V30 7694 C 71.7196 -7.33666 1.94851 0
M  V30 7695 O 71.5096 -5.88816 2.00759 0
M  V30 7696 C 70.3196 -7.92526 2.10483 0
M  V30 7697 O 69.9296 -8.03063 3.47693 0
M  V30 7698 C 69.4396 -6.89602 1.41652 0
M  V30 7699 C 70.1496 -5.59201 1.75185 0
M  V30 7700 N 70.0996 -4.58235 0.662552 0
M  V30 7701 C 69.9496 -3.24451 1.01643 0
M  V30 7702 O 69.8596 -2.94958 2.21722 0
M  V30 7703 N 69.8996 -2.30408 -0.165238 0
M  V30 7704 C 69.9996 -2.66048 -1.25118 0
M  V30 7705 N 69.9496 -1.70787 -2.16813 0
M  V30 7706 C 70.1496 -4.02732 -1.64413 0
M  V30 7707 C 70.1996 -4.9488 -0.63991 0
M  V30 7708 H 72.9396 -8.65017 0.777072 0
M  V30 7709 H 73.2096 -6.90173 0.474152 0
M  V30 7710 H 72.3426 -7.66642 2.79492 0
M  V30 7711 H 69.6876 -5.16254 2.65229 0
M  V30 7712 H 69.4076 -7.06532 0.329431 0
M  V30 7713 H 68.4166 -6.91023 1.82047 0
M  V30 7714 H 70.2506 -8.90873 1.62657 0
M  V30 7715 H 70.3226 -6.00104 -0.892197 0
M  V30 7716 H 70.2206 -4.31733 -2.69229 0
M  V30 7717 H 69.8326 -0.724835 -1.8844 0
M  V30 7718 H 70.0286 -1.94716 -3.16734 0
M  V30 7719 P 68.3796 -8.03563 3.84925 0
M  V30 7720 O 68.1596 -8.85821 5.0569 0
M  V30 7721 O 67.5896 -8.41101 2.65469 0
M  V30 7722 O 68.1296 -6.4965 4.18908 0
M  V30 7723 C 69.0696 -5.81037 5.05421 0
M  V30 7724 C 68.3396 -4.78366 5.89277 0
M  V30 7725 O 68.1296 -3.58302 5.08433 0
M  V30 7726 C 66.9396 -5.17448 6.36119 0
M  V30 7727 O 66.5496 -4.45271 7.53232 0
M  V30 7728 C 66.0596 -4.74639 5.19936 0
M  V30 7729 C 66.7696 -3.49432 4.70418 0
M  V30 7730 N 66.7196 -3.31776 3.22945 0
M  V30 7731 H 69.5586 -6.54213 5.71376 0
M  V30 7732 H 69.8306 -5.30492 4.44033 0
M  V30 7733 H 68.9626 -4.55889 6.76652 0
M  V30 7734 P 64.9996 -4.23843 7.83734 0
M  V30 7735 O 64.7796 -4.19407 9.29784 0
M  V30 7736 O 64.2096 -5.24426 7.09156 0
M  V30 7737 O 64.7496 -2.7935 7.20758 0
M  V30 7738 C 65.6896 -1.7299 7.50419 0
M  V30 7739 C 64.9596 -0.406376 7.57911 0
M  V30 7740 O 64.7496 0.0897726 6.21935 0
M  V30 7741 C 63.5596 -0.447224 8.1878 0
M  V30 7742 O 63.1696 0.825065 8.71101 0
M  V30 7743 C 62.6796 -0.783801 6.99623 0
M  V30 7744 C 63.3896 -0.0619192 5.85967 0
M  V30 7745 N 63.3396 -0.7859 4.56281 0
M  V30 7746 H 66.1786 -1.93423 8.4679 0
M  V30 7747 H 66.4506 -1.68181 6.71046 0
M  V30 7748 H 65.5826 0.289041 8.15388 0
M  V30 7749 P 61.6197 1.17771 8.83182 0
M  V30 7750 O 61.3997 2.07206 9.98732 0
M  V30 7751 O 60.8297 -0.0743816 8.81969 0
M  V30 7752 O 61.3697 1.97652 7.47304 0
M  V30 7753 C 62.3097 3.01133 7.08783 0
M  V30 7754 C 61.5797 4.12613 6.37049 0
M  V30 7755 O 61.3697 3.72827 4.97879 0
M  V30 7756 C 60.1797 4.45085 6.88694 0
M  V30 7757 O 59.7897 5.7877 6.5624 0
M  V30 7758 C 59.2997 3.47817 6.12078 0
M  V30 7759 C 60.0097 3.39414 4.77697 0
M  V30 7760 N 59.9597 2.04615 4.15333 0
M  V30 7761 H 62.7987 3.41248 7.98759 0
M  V30 7762 H 63.0707 2.5837 6.41742 0
M  V30 7763 H 62.2027 5.02657 6.42673 0
M  V30 7764 P 58.2397 6.144 6.45285 0
M  V30 7765 O 58.0197 7.54673 6.86199 0
M  V30 7766 O 57.4497 5.12391 7.179 0
M  V30 7767 O 57.9897 5.99158 4.88404 0
M  V30 7768 C 58.9297 6.60062 3.96313 0
M  V30 7769 C 58.1997 7.08259 2.72856 0
M  V30 7770 O 57.9897 5.9427 1.83651 0
M  V30 7771 C 56.7997 7.65087 2.94749 0
M  V30 7772 O 56.4097 8.53963 1.90717 0
M  V30 7773 C 55.9197 6.41069 2.90698 0
M  V30 7774 C 56.6297 5.5528 1.86931 0
M  V30 7775 N 56.5797 4.09575 2.15696 0
M  V30 7776 C 56.4297 3.24249 1.08435 0
M  V30 7777 O 56.3397 3.63946 -0.0628747 0
M  V30 7778 N 56.3897 1.90009 1.39973 0
M  V30 7779 C 56.4797 1.34884 2.65614 0
M  V30 7780 C 56.6297 2.3145 3.71736 0
M  V30 7781 C 56.6797 3.63518 3.44754 0
M  V30 7782 H 59.4207 7.45402 4.45526 0
M  V30 7783 H 59.6897 5.86062 3.67208 0
M  V30 7784 H 58.8227 7.84412 2.24479 0
M  V30 7785 H 56.1677 5.73358 0.888409 0
M  V30 7786 H 55.8887 5.90877 3.88583 0
M  V30 7787 H 54.8967 6.65867 2.58821 0
M  V30 7788 H 56.7307 8.16248 3.92006 0
M  V30 7789 H 56.8017 4.34551 4.26383 0
M  V30 7790 P 54.8597 8.7635 1.60911 0
M  V30 7791 O 54.6397 10.1388 1.11561 0
M  V30 7792 O 54.0697 8.36503 2.79617 0
M  V30 7793 O 54.6097 7.71806 0.42951 0
M  V30 7794 C 55.5497 7.67148 -0.673689 0
M  V30 7795 C 54.8197 7.33374 -1.95559 0
M  V30 7796 O 54.6097 5.88721 -2.00726 0
M  V30 7797 C 53.4197 7.92526 -2.10483 0
M  V30 7798 O 53.0297 8.02971 -3.47653 0
M  V30 7799 C 52.5397 6.89602 -1.41652 0
M  V30 7800 C 53.2497 5.59201 -1.75185 0
M  V30 7801 N 53.1997 4.58235 -0.662552 0
M  V30 7802 C 53.2797 4.7683 0.704049 0
M  V30 7803 N 53.1997 3.66233 1.39775 0
M  V30 7804 C 53.0597 2.66526 0.431739 0
M  V30 7805 C 52.9297 1.26394 0.575992 0
M  V30 7806 O 52.9097 0.589894 1.60503 0
M  V30 7807 N 52.8097 0.62859 -0.67177 0
M  V30 7808 C 52.8097 1.27134 -1.89385 0
M  V30 7809 N 52.6797 0.492035 -2.96951 0
M  V30 7810 N 52.9397 2.58978 -2.02907 0
M  V30 7811 C 53.0597 3.22433 -0.832218 0
M  V30 7812 H 56.0387 8.65116 -0.777161 0
M  V30 7813 H 56.3107 6.90173 -0.474152 0
M  V30 7814 H 55.4427 7.66548 -2.79458 0
M  V30 7815 H 52.7877 5.16254 -2.65229 0
M  V30 7816 H 52.5077 7.06532 -0.329431 0
M  V30 7817 H 51.5167 6.91023 -1.82047 0
M  V30 7818 H 53.3507 8.90971 -1.62675 0
M  V30 7819 H 53.3997 5.74954 1.16305 0
M  V30 7820 H 52.7177 -0.366713 -0.674793 0
M  V30 7821 H 52.6807 0.908532 -3.91188 0
M  V30 7822 H 52.5797 -0.528253 -2.85758 0
M  V30 7823 P 51.4797 8.03563 -3.84925 0
M  V30 7824 O 51.2597 8.85821 -5.0569 0
M  V30 7825 O 50.6897 8.41101 -2.65469 0
M  V30 7826 O 51.2297 6.4965 -4.18908 0
M  V30 7827 C 52.1697 5.80886 -5.05289 0
M  V30 7828 C 51.4397 4.78366 -5.89277 0
M  V30 7829 O 51.2297 3.58302 -5.08433 0
M  V30 7830 C 50.0397 5.16748 -6.36559 0
M  V30 7831 O 49.6497 4.45271 -7.53232 0
M  V30 7832 C 49.1597 4.74572 -5.19863 0
M  V30 7833 C 49.8697 3.49373 -4.70338 0
M  V30 7834 N 49.8197 3.31704 -3.22876 0
M  V30 7835 C 49.6697 2.03326 -2.74871 0
M  V30 7836 O 49.5797 1.06486 -3.48076 0
M  V30 7837 N 49.6297 1.91838 -1.37456 0
M  V30 7838 C 49.7197 2.94295 -0.462035 0
M  V30 7839 O 49.6697 2.71763 0.752928 0
M  V30 7840 C 49.8697 4.25064 -1.05249 0
M  V30 7841 C 49.9797 5.39815 -0.095697 0
M  V30 7842 C 49.9197 4.40214 -2.39192 0
M  V30 7843 H 52.6607 6.54063 -5.71245 0
M  V30 7844 H 52.9297 5.30339 -4.43905 0
M  V30 7845 H 52.0627 4.55889 -6.76652 0
M  V30 7846 H 49.4077 2.6167 -5.17842 0
M  V30 7847 H 49.1287 5.52155 -4.41878 0
M  V30 7848 H 48.1367 4.51918 -5.53297 0
M  V30 7849 H 49.9707 6.25055 -6.55162 0
M  V30 7850 H 50.0417 5.39798 -2.81523 0
M  V30 7851 H 49.0117 5.91593 -0.0279582 0
M  V30 7852 H 50.7487 6.10038 -0.450573 0
M  V30 7853 H 50.2607 5.02007 0.89937 0
M  V30 7854 H 49.5247 0.995326 -1.00435 0
M  V30 7855 P 48.0997 4.23843 -7.83734 0
M  V30 7856 O 47.8797 4.19407 -9.29784 0
M  V30 7857 O 47.3097 5.24426 -7.09156 0
M  V30 7858 O 47.8497 2.7935 -7.20758 0
M  V30 7859 C 48.7897 1.7299 -7.50419 0
M  V30 7860 C 48.0597 0.406376 -7.57911 0
M  V30 7861 O 47.8497 -0.0897726 -6.21935 0
M  V30 7862 C 46.6597 0.447224 -8.1878 0
M  V30 7863 O 46.2697 -0.825065 -8.71101 0
M  V30 7864 C 45.7797 0.783801 -6.99623 0
M  V30 7865 C 46.4897 0.0619192 -5.85967 0
M  V30 7866 N 46.4397 0.790462 -4.56202 0
M  V30 7867 C 46.5197 2.13895 -4.34171 0
M  V30 7868 N 46.4497 2.46449 -3.08687 0
M  V30 7869 C 46.2997 1.2525 -2.43697 0
M  V30 7870 C 46.1697 0.914535 -1.07318 0
M  V30 7871 N 46.1597 1.80782 -0.0887348 0
M  V30 7872 N 46.0497 -0.386745 -0.768133 0
M  V30 7873 C 46.0597 -1.28096 -1.75159 0
M  V30 7874 N 46.1797 -1.09708 -3.04861 0
M  V30 7875 C 46.2997 0.214857 -3.32306 0
M  V30 7876 H 49.2787 1.93423 -8.4679 0
M  V30 7877 H 49.5507 1.68852 -6.70877 0
M  V30 7878 H 48.6827 -0.289041 -8.15388 0
M  V30 7879 H 46.0277 -0.927006 -5.72848 0
M  V30 7880 H 45.7477 1.86973 -6.82036 0
M  V30 7881 H 44.7567 0.403953 -7.13357 0
M  V30 7882 H 46.5907 1.20599 -8.97534 0
M  V30 7883 H 46.6317 2.86846 -5.14318 0
M  V30 7884 H 46.2507 2.81082 -0.302037 0
M  V30 7885 H 46.0617 1.49688 0.889064 0
M  V30 7886 H 45.9537 -2.31317 -1.43855 0
M  V30 7887 P 44.7198 -1.17771 -8.83182 0
M  V30 7888 O 44.4998 -2.07206 -9.98732 0
M  V30 7889 O 43.9298 0.0743816 -8.81969 0
M  V30 7890 O 44.4698 -1.97652 -7.47304 0
M  V30 7891 C 45.4098 -3.01133 -7.08783 0
M  V30 7892 C 44.6798 -4.12613 -6.37049 0
M  V30 7893 O 44.4698 -3.72827 -4.97879 0
M  V30 7894 C 43.2798 -4.45085 -6.88694 0
M  V30 7895 O 42.8898 -5.7877 -6.5624 0
M  V30 7896 C 42.3998 -3.47817 -6.12078 0
M  V30 7897 C 43.1098 -3.39414 -4.77697 0
M  V30 7898 N 43.0598 -2.04615 -4.15333 0
M  V30 7899 C 43.1398 -0.803897 -4.75249 0
M  V30 7900 N 43.0598 0.197615 -3.91502 0
M  V30 7901 C 42.9198 -0.413002 -2.66823 0
M  V30 7902 C 42.7898 0.157221 -1.38007 0
M  V30 7903 O 42.7698 1.34419 -1.057 0
M  V30 7904 N 42.6698 -0.833136 -0.390236 0
M  V30 7905 C 42.6698 -2.19402 -0.623885 0
M  V30 7906 N 42.5398 -2.97622 0.449677 0
M  V30 7907 N 42.7998 -2.73005 -1.83601 0
M  V30 7908 C 42.9198 -1.78786 -2.80935 0
M  V30 7909 H 45.8988 -3.41248 -7.98759 0
M  V30 7910 H 46.1708 -2.5837 -6.41742 0
M  V30 7911 H 45.3028 -5.02657 -6.42673 0
M  V30 7912 H 42.6478 -4.11779 -4.09026 0
M  V30 7913 H 42.3678 -2.49661 -6.61772 0
M  V30 7914 H 41.3768 -3.86674 -6.00946 0
M  V30 7915 H 43.2108 -4.30038 -7.97094 0
M  V30 7916 H 43.2598 -0.670579 -5.82754 0
M  V30 7917 H 42.5778 -0.528446 0.557287 0
M  V30 7918 H 42.5408 -4.00117 0.344773 0
M  V30 7919 H 42.4398 -2.55448 1.38544 0
M  V30 7920 P 41.3398 -6.144 -6.45285 0
M  V30 7921 O 41.1198 -7.54673 -6.86199 0
M  V30 7922 O 40.5498 -5.12391 -7.179 0
M  V30 7923 O 41.0898 -5.99158 -4.88404 0
M  V30 7924 C 42.0298 -6.60234 -3.96415 0
M  V30 7925 C 41.2998 -7.08259 -2.72856 0
M  V30 7926 O 41.0898 -5.9427 -1.83651 0
M  V30 7927 C 39.8998 -7.64886 -2.9555 0
M  V30 7928 O 39.5098 -8.53963 -1.90717 0
M  V30 7929 C 39.0198 -6.4116 -2.90739 0
M  V30 7930 C 39.7298 -5.55375 -1.86963 0
M  V30 7931 N 39.6798 -4.09664 -2.15742 0
M  V30 7932 H 42.5188 -7.45574 -4.45629 0
M  V30 7933 H 42.7908 -5.86232 -3.67314 0
M  V30 7934 H 41.9228 -7.84412 -2.24479 0
M  V30 7935 P 37.9598 -8.7635 -1.60911 0
M  V30 7936 O 37.7398 -10.1388 -1.11561 0
M  V30 7937 O 37.1698 -8.36503 -2.79617 0
M  V30 7938 O 37.7098 -7.71806 -0.42951 0
M  V30 7939 C 38.6498 -7.67148 0.673689 0
M  V30 7940 C 37.9198 -7.33374 1.95559 0
M  V30 7941 O 37.7098 -5.88721 2.00726 0
M  V30 7942 C 36.5198 -7.92526 2.10483 0
M  V30 7943 O 36.1298 -8.02971 3.47653 0
M  V30 7944 C 35.6398 -6.89602 1.41652 0
M  V30 7945 C 36.3498 -5.59201 1.75185 0
M  V30 7946 N 36.2998 -4.58235 0.662552 0
M  V30 7947 H 39.1388 -8.65116 0.777161 0
M  V30 7948 H 39.4108 -6.90173 0.474152 0
M  V30 7949 H 38.5428 -7.66548 2.79458 0
M  V30 7950 P 34.5798 -8.03563 3.84925 0
M  V30 7951 O 34.3598 -8.85821 5.0569 0
M  V30 7952 O 33.7898 -8.41101 2.65469 0
M  V30 7953 O 34.3298 -6.4965 4.18908 0
M  V30 7954 C 35.2698 -5.80886 5.05289 0
M  V30 7955 C 34.5398 -4.78366 5.89277 0
M  V30 7956 O 34.3298 -3.58302 5.08433 0
M  V30 7957 C 33.1398 -5.16748 6.36559 0
M  V30 7958 O 32.7498 -4.45271 7.53232 0
M  V30 7959 C 32.2598 -4.74572 5.19863 0
M  V30 7960 C 32.9698 -3.49373 4.70338 0
M  V30 7961 N 32.9198 -3.31704 3.22876 0
M  V30 7962 C 32.7698 -2.03326 2.74871 0
M  V30 7963 O 32.6798 -1.06486 3.48076 0
M  V30 7964 N 32.7298 -1.91838 1.37456 0
M  V30 7965 C 32.8198 -2.94295 0.462035 0
M  V30 7966 O 32.7698 -2.71763 -0.752928 0
M  V30 7967 C 32.9698 -4.25064 1.05249 0
M  V30 7968 C 33.0798 -5.39815 0.095697 0
M  V30 7969 C 33.0198 -4.40214 2.39192 0
M  V30 7970 H 35.7608 -6.54063 5.71245 0
M  V30 7971 H 36.0298 -5.30339 4.43905 0
M  V30 7972 H 35.1628 -4.55889 6.76652 0
M  V30 7973 H 32.5078 -2.6167 5.17842 0
M  V30 7974 H 32.2288 -5.52155 4.41878 0
M  V30 7975 H 31.2368 -4.51918 5.53297 0
M  V30 7976 H 33.0708 -6.25055 6.55162 0
M  V30 7977 H 33.1418 -5.39798 2.81523 0
M  V30 7978 H 32.1118 -5.91593 0.0279582 0
M  V30 7979 H 33.8488 -6.10038 0.450573 0
M  V30 7980 H 33.3608 -5.02007 -0.89937 0
M  V30 7981 H 32.6248 -0.995326 1.00435 0
M  V30 7982 P 31.1998 -4.23843 7.83734 0
M  V30 7983 O 30.9798 -4.19407 9.29784 0
M  V30 7984 O 30.4098 -5.24426 7.09156 0
M  V30 7985 O 30.9498 -2.7935 7.20758 0
M  V30 7986 C 31.8898 -1.7299 7.50419 0
M  V30 7987 C 31.1598 -0.406376 7.57911 0
M  V30 7988 O 30.9498 0.0897726 6.21935 0
M  V30 7989 C 29.7598 -0.447224 8.1878 0
M  V30 7990 O 29.3698 0.825065 8.71101 0
M  V30 7991 C 28.8798 -0.783801 6.99623 0
M  V30 7992 C 29.5898 -0.0619192 5.85967 0
M  V30 7993 N 29.5398 -0.7859 4.56281 0
M  V30 7994 H 32.3788 -1.93423 8.4679 0
M  V30 7995 H 32.6508 -1.68181 6.71046 0
M  V30 7996 H 31.7828 0.289041 8.15388 0
M  V30 7997 P 27.8199 1.17771 8.83182 0
M  V30 7998 O 27.5999 2.07206 9.98732 0
M  V30 7999 O 27.0299 -0.0743816 8.81969 0
M  V30 8000 O 27.5699 1.97652 7.47304 0
M  V30 8001 C 28.5099 3.01055 7.08599 0
M  V30 8002 C 27.7799 4.12613 6.37049 0
M  V30 8003 O 27.5699 3.72827 4.97879 0
M  V30 8004 C 26.3799 4.45719 6.88164 0
M  V30 8005 O 25.9899 5.7877 6.5624 0
M  V30 8006 C 25.4999 3.47768 6.11991 0
M  V30 8007 C 26.2099 3.39356 4.77615 0
M  V30 8008 N 26.1599 2.04571 4.15244 0
M  V30 8009 C 26.0099 1.98587 2.78314 0
M  V30 8010 O 25.9199 2.98134 2.08835 0
M  V30 8011 N 25.9699 0.714467 2.24925 0
M  V30 8012 C 26.0599 -0.470001 2.94169 0
M  V30 8013 O 26.0099 -1.55587 2.35195 0
M  V30 8014 C 26.2099 -0.312541 4.36783 0
M  V30 8015 C 26.3199 -1.57711 5.16352 0
M  V30 8016 C 26.2599 0.914512 4.92583 0
M  V30 8017 H 29.0009 3.41169 7.98575 0
M  V30 8018 H 29.2699 2.58295 6.41556 0
M  V30 8019 H 28.4029 5.02657 6.42673 0
M  V30 8020 H 25.7479 4.11637 4.08885 0
M  V30 8021 H 25.4689 2.49626 6.61679 0
M  V30 8022 H 24.4769 3.86566 6.00778 0
M  V30 8023 H 26.3109 4.29943 7.96918 0
M  V30 8024 H 26.3819 1.00937 6.00374 0
M  V30 8025 H 25.3519 -1.80153 5.63503 0
M  V30 8026 H 27.0889 -1.4566 5.94104 0
M  V30 8027 H 26.6009 -2.40664 4.49645 0
M  V30 8028 H 25.8649 0.647622 1.25697 0
M  V30 8029 P 24.4399 6.144 6.45285 0
M  V30 8030 O 24.2199 7.54673 6.86199 0
M  V30 8031 O 23.6499 5.12391 7.179 0
M  V30 8032 O 24.1899 5.99158 4.88404 0
M  V30 8033 C 25.1299 6.60234 3.96415 0
M  V30 8034 C 24.3999 7.08259 2.72856 0
M  V30 8035 O 24.1899 5.9427 1.83651 0
M  V30 8036 C 22.9999 7.64886 2.9555 0
M  V30 8037 O 22.6099 8.53963 1.90717 0
M  V30 8038 C 22.1199 6.4116 2.90739 0
M  V30 8039 C 22.8299 5.55375 1.86963 0
M  V30 8040 N 22.7799 4.09664 2.15742 0
M  V30 8041 H 25.6189 7.45574 4.45629 0
M  V30 8042 H 25.8909 5.86232 3.67314 0
M  V30 8043 H 25.0229 7.84412 2.24479 0
M  V30 8044 P 21.0599 8.7635 1.60911 0
M  V30 8045 O 20.8399 10.1388 1.11561 0
M  V30 8046 O 20.2699 8.36503 2.79617 0
M  V30 8047 O 20.8099 7.71806 0.42951 0
M  V30 8048 C 21.7499 7.67148 -0.673689 0
M  V30 8049 C 21.0199 7.33374 -1.95559 0
M  V30 8050 O 20.8099 5.88721 -2.00726 0
M  V30 8051 C 19.6199 7.92526 -2.10483 0
M  V30 8052 O 19.2299 8.02971 -3.47653 0
M  V30 8053 C 18.7399 6.89602 -1.41652 0
M  V30 8054 C 19.4499 5.59201 -1.75185 0
M  V30 8055 N 19.3999 4.58235 -0.662552 0
M  V30 8056 H 22.2389 8.65116 -0.777161 0
M  V30 8057 H 22.5109 6.90173 -0.474152 0
M  V30 8058 H 21.6429 7.66548 -2.79458 0
M  V30 8059 P 17.6799 8.03563 -3.84925 0
M  V30 8060 O 17.4599 8.85821 -5.0569 0
M  V30 8061 O 16.8899 8.41101 -2.65469 0
M  V30 8062 O 17.4299 6.4965 -4.18908 0
M  V30 8063 C 18.3699 5.81037 -5.05421 0
M  V30 8064 C 17.6399 4.78366 -5.89277 0
M  V30 8065 O 17.4299 3.58302 -5.08433 0
M  V30 8066 C 16.2399 5.17448 -6.36119 0
M  V30 8067 O 15.8499 4.45271 -7.53232 0
M  V30 8068 C 15.3599 4.74639 -5.19936 0
M  V30 8069 C 16.0699 3.49432 -4.70418 0
M  V30 8070 N 16.0199 3.31776 -3.22945 0
M  V30 8071 H 18.8589 6.54213 -5.71376 0
M  V30 8072 H 19.1309 5.30492 -4.44033 0
M  V30 8073 H 18.2629 4.55889 -6.76652 0
M  V30 8074 P 14.2999 4.23843 -7.83734 0
M  V30 8075 O 14.0799 4.19407 -9.29784 0
M  V30 8076 O 13.5099 5.24426 -7.09156 0
M  V30 8077 O 14.0499 2.7935 -7.20758 0
M  V30 8078 C 14.9899 1.7299 -7.50419 0
M  V30 8079 C 14.2599 0.406376 -7.57911 0
M  V30 8080 O 14.0499 -0.0897726 -6.21935 0
M  V30 8081 C 12.8599 0.447224 -8.1878 0
M  V30 8082 O 12.4699 -0.825065 -8.71101 0
M  V30 8083 C 11.9799 0.783801 -6.99623 0
M  V30 8084 C 12.6899 0.0619192 -5.85967 0
M  V30 8085 N 12.6399 0.7859 -4.56281 0
M  V30 8086 H 15.4789 1.93423 -8.4679 0
M  V30 8087 H 15.7509 1.68181 -6.71046 0
M  V30 8088 H 14.8829 -0.289041 -8.15388 0
M  V30 8089 P 10.92 -1.17771 -8.83182 0
M  V30 8090 O 10.7 -2.07206 -9.98732 0
M  V30 8091 O 10.13 0.0743816 -8.81969 0
M  V30 8092 O 10.67 -1.97652 -7.47304 0
M  V30 8093 C 11.61 -3.01133 -7.08783 0
M  V30 8094 C 10.88 -4.12613 -6.37049 0
M  V30 8095 O 10.67 -3.72827 -4.97879 0
M  V30 8096 C 9.47996 -4.45085 -6.88694 0
M  V30 8097 O 9.08996 -5.7877 -6.5624 0
M  V30 8098 C 8.59996 -3.47817 -6.12078 0
M  V30 8099 C 9.30996 -3.39414 -4.77697 0
M  V30 8100 N 9.25996 -2.04615 -4.15333 0
M  V30 8101 H 12.099 -3.41248 -7.98759 0
M  V30 8102 H 12.371 -2.5837 -6.41742 0
M  V30 8103 H 11.503 -5.02657 -6.42673 0
M  V30 8104 P 7.53998 -6.144 -6.45285 0
M  V30 8105 O 7.31998 -7.54673 -6.86199 0
M  V30 8106 O 6.74998 -5.12391 -7.179 0
M  V30 8107 O 7.28998 -5.99158 -4.88404 0
M  V30 8108 C 8.22998 -6.60234 -3.96415 0
M  V30 8109 C 7.49998 -7.08259 -2.72856 0
M  V30 8110 O 7.28998 -5.9427 -1.83651 0
M  V30 8111 C 6.09998 -7.64886 -2.9555 0
M  V30 8112 O 5.70998 -8.53963 -1.90717 0
M  V30 8113 C 5.21998 -6.4116 -2.90739 0
M  V30 8114 C 5.92998 -5.55375 -1.86963 0
M  V30 8115 N 5.87998 -4.09448 -2.16152 0
M  V30 8116 C 5.95998 -3.46824 -3.37593 0
M  V30 8117 N 5.88998 -2.17422 -3.29777 0
M  V30 8118 C 5.73998 -1.93065 -1.94427 0
M  V30 8119 C 5.60998 -0.738053 -1.20141 0
M  V30 8120 N 5.59998 0.474256 -1.74676 0
M  V30 8121 N 5.48998 -0.850049 0.13045 0
M  V30 8122 C 5.49998 -2.06169 0.676992 0
M  V30 8123 N 5.61998 -3.23842 0.101312 0
M  V30 8124 C 5.73998 -3.09402 -1.23122 0
M  V30 8125 H 8.71898 -7.45574 -4.45629 0
M  V30 8126 H 8.99098 -5.85864 -3.679 0
M  V30 8127 H 8.12298 -7.84412 -2.24479 0
M  V30 8128 H 5.46798 -5.73457 -0.888562 0
M  V30 8129 H 5.18798 -5.90877 -3.88583 0
M  V30 8130 H 4.19698 -6.6596 -2.58858 0
M  V30 8131 H 6.03098 -8.16339 -3.92049 0
M  V30 8132 H 6.07198 -4.00505 -4.3174 0
M  V30 8133 H 5.69098 0.581337 -2.76658 0
M  V30 8134 H 5.50198 1.30811 -1.14888 0
M  V30 8135 H 5.39398 -2.08295 1.75542 0
M  V30 8136 P 4.16 -8.7635 -1.60911 0
M  V30 8137 O 3.94 -10.1388 -1.11561 0
M  V30 8138 O 3.37 -8.36503 -2.79617 0
M  V30 8139 O 3.91 -7.71806 -0.42951 0
M  V30 8140 C 4.85 -7.67148 0.673689 0
M  V30 8141 C 4.12 -7.33374 1.95559 0
M  V30 8142 O 3.91 -5.88721 2.00726 0
M  V30 8143 C 2.72 -7.92526 2.10483 0
M  V30 8144 O 2.33 -8.02971 3.47653 0
M  V30 8145 C 1.84 -6.89602 1.41652 0
M  V30 8146 C 2.55 -5.59201 1.75185 0
M  V30 8147 N 2.5 -4.58235 0.662552 0
M  V30 8148 H 5.339 -8.65116 0.777161 0
M  V30 8149 H 5.611 -6.90173 0.474152 0
M  V30 8150 H 4.743 -7.66548 2.79458 0
M  V30 8151 H 1.613 -8.66322 3.55694 0
M  V30 END ATOM
M  V30 BEGIN BOND
M  V30 END BOND
M  V30 END CTAB
M  END
$$$$
