drugbank_target|Q5SKW1 RNA polymerase sigma factor SigA (DB08226; DB08266)
 OpenBabel12092120303D

  0  0  0     0  0            999 V3000
M  V30 BEGIN CTAB
M  V30 COUNTS 9159 9759 0 0 0
M  V30 BEGIN ATOM
M  V30 1 H -2.588 8.49073 -0.0679273 0
M  V30 2 O -1.492 9.37262 0.0843559 0
M  V30 3 P 0 8.791 0 0
M  V30 4 O 1.422 9.31096 0.027933 0
M  V30 5 O -0.36 7.77869 -1.04071 0
M  V30 6 O -0.323 8.09533 1.41463 0
M  V30 7 C -0.483 9.0349 2.53943 0
M  V30 8 C 0.057 8.35226 3.79016 0
M  V30 9 O -0.999 7.57992 4.15078 0
M  V30 10 C 1.275 7.45087 3.67298 0
M  V30 11 O 2.013 7.27796 4.85194 0
M  V30 12 C 0.606 6.17323 3.12027 0
M  V30 13 O 1.405 5.04231 3.47188 0
M  V30 14 C -0.731 6.19961 3.81809 0
M  V30 15 H -0.699 5.58218 4.73051 0
M  V30 16 H 0.484 6.21726 2.02589 0
M  V30 17 H 1.968 7.86112 2.9231 0
M  V30 18 H 0.274 9.11627 4.55076 0
M  V30 19 H 0.084 9.9573 2.34194 0
M  V30 20 H -1.546 9.2792 2.67832 0
M  V30 21 H 1.093 4.67702 4.28772 0
M  V30 22 P 2.95057 7.39546 4.75277 0
M  V30 23 O 4.37257 7.81777 5.05738 0
M  V30 24 O 2.59057 7.1065 3.32998 0
M  V30 25 O 2.62757 6.04542 5.56673 0
M  V30 26 C 2.46757 6.22772 7.02095 0
M  V30 27 C 3.00757 4.97725 7.70406 0
M  V30 28 O 1.95157 4.13256 7.58987 0
M  V30 29 C 4.22557 4.28231 7.11815 0
M  V30 30 O 4.96357 3.49945 8.01648 0
M  V30 31 C 3.55657 3.5063 5.96244 0
M  V30 32 O 4.35557 2.36482 5.64681 0
M  V30 33 C 2.21957 3.15122 6.56374 0
M  V30 34 H 2.25157 2.13853 6.99751 0
M  V30 35 H 3.43457 4.13501 5.06559 0
M  V30 36 H 4.91857 5.03285 6.70911 0
M  V30 37 H 3.22457 5.20877 8.75697 0
M  V30 38 H 3.03457 7.11046 7.35349 0
M  V30 39 H 1.40457 6.35815 7.26986 0
M  V30 40 H 4.04357 1.61644 6.13565 0
M  V30 41 P 5.90114 3.65191 7.99657 0
M  V30 42 O 7.32314 3.8425 8.48115 0
M  V30 43 O 5.54114 4.17805 6.64342 0
M  V30 44 O 5.57814 2.07613 7.95143 0
M  V30 45 C 5.41814 1.44328 9.27336 0
M  V30 46 C 5.95814 0.0220036 9.17197 0
M  V30 47 O 4.90214 -0.626867 8.61923 0
M  V30 48 C 7.17614 -0.24586 8.30336 0
M  V30 49 O 7.91414 -1.39011 8.63583 0
M  V30 50 C 6.50714 -0.273849 6.91158 0
M  V30 51 O 7.30614 -1.06348 6.02892 0
M  V30 52 C 5.17014 -0.897649 7.22545 0
M  V30 53 H 5.20214 -1.9841 7.04286 0
M  V30 54 H 6.38514 0.739928 6.497 0
M  V30 55 H 7.86914 0.60668 8.36503 0
M  V30 56 H 6.17514 -0.352479 10.1829 0
M  V30 57 H 5.98514 2.00611 10.0304 0
M  V30 58 H 4.35514 1.41843 9.55327 0
M  V30 59 H 6.99414 -1.95734 6.03555 0
M  V30 60 P 8.85171 -1.25109 8.70152 0
M  V30 61 O 10.2737 -1.35274 9.21221 0
M  V30 62 O 8.49171 -0.0769065 7.84762 0
M  V30 63 O 8.52871 -2.55232 7.81161 0
M  V30 64 C 8.36871 -3.79939 8.58154 0
M  V30 65 C 8.90871 -4.94023 7.72785 0
M  V30 66 O 7.85271 -5.18726 6.91205 0
M  V30 67 C 10.1267 -4.69597 6.85231 0
M  V30 68 O 10.8647 -5.83832 6.51337 0
M  V30 69 C 9.45771 -3.96706 5.66633 0
M  V30 70 O 10.2567 -4.15414 4.49689 0
M  V30 71 C 8.12071 -4.66153 5.59313 0
M  V30 72 H 8.15271 -5.47679 4.85214 0
M  V30 73 H 9.33571 -2.89008 5.86566 0
M  V30 74 H 10.8197 -4.0121 7.36511 0
M  V30 75 H 9.12571 -5.80182 8.37584 0
M  V30 76 H 8.93571 -3.73517 9.52265 0
M  V30 77 H 7.30571 -3.97163 8.80359 0
M  V30 78 H 9.94471 -4.90969 4.01921 0
M  V30 79 P 11.8023 -5.75688 6.64379 0
M  V30 80 O 13.2243 -6.11849 7.01846 0
M  V30 81 O 11.4423 -4.30744 6.56026 0
M  V30 82 O 11.4793 -6.37042 5.19165 0
M  V30 83 C 11.3193 -7.83578 5.16515 0
M  V30 84 C 11.8593 -8.33398 3.83019 0
M  V30 85 O 10.8033 -8.10074 3.01034 0
M  V30 86 C 13.0773 -7.65514 3.2257 0
M  V30 87 O 13.8153 -8.4329 2.32297 0
M  V30 88 C 12.4083 -6.40075 2.62207 0
M  V30 89 O 13.2073 -5.92589 1.53712 0
M  V30 90 C 11.0713 -6.9454 2.18503 0
M  V30 91 H 11.1033 -7.23063 1.12091 0
M  V30 92 H 12.2863 -5.6025 3.37201 0
M  V30 93 H 13.7703 -7.35707 4.02681 0
M  V30 94 H 12.0763 -9.40912 3.9095 0
M  V30 95 H 11.8863 -8.29056 5.99158 0
M  V30 96 H 10.2563 -8.10073 5.25882 0
M  V30 97 H 12.8953 -6.30324 0.726794 0
M  V30 98 P 14.7528 -8.4349 2.47671 0
M  V30 99 O 16.1738 -8.94263 2.59668 0
M  V30 100 O 14.3928 -7.1704 3.19006 0
M  V30 101 O 14.4298 -8.16596 0.923387 0
M  V30 102 C 14.2688 -9.38537 0.108869 0
M  V30 103 C 14.8098 -9.08175 -1.28353 0
M  V30 104 O 13.7548 -8.44131 -1.84692 0
M  V30 105 C 16.0278 -8.18386 -1.42505 0
M  V30 106 O 16.7659 -8.3501 -2.60497 0
M  V30 107 C 15.3598 -6.80225 -1.25468 0
M  V30 108 O 16.1578 -5.81716 -1.90454 0
M  V30 109 C 14.0218 -7.02416 -1.9168 0
M  V30 110 N 12.9788 -6.31033 -1.20314 0
M  V30 111 C 13.1478 -5.98817 0.0994088 0
M  V30 112 N 12.1208 -5.35403 0.621694 0
M  V30 113 C 11.2358 -5.25212 -0.43376 0
M  V30 114 C 9.96885 -4.64602 -0.519722 0
M  V30 115 N 9.40385 -4.7568 -1.76013 0
M  V30 116 C 10.0058 -5.3653 -2.83017 0
M  V30 117 N 11.1828 -5.93676 -2.79782 0
M  V30 118 C 11.7578 -5.84061 -1.56249 0
M  V30 119 H 15.2368 -6.53498 -0.198729 0
M  V30 120 H 16.7198 -8.36622 -0.589963 0
M  V30 121 H 15.0258 -10.0273 -1.8081 0
M  V30 122 H 14.8358 -10.2138 0.558219 0
M  V30 123 H 13.2058 -9.6579 0.0444202 0
M  V30 124 H 14.0478 -6.23209 0.660562 0
M  V30 125 H 15.8458 -5.69466 -2.79593 0
M  V30 126 P 17.7034 -8.4349 -2.47671 0
M  V30 127 O 19.1254 -8.92593 -2.65 0
M  V30 128 O 17.3434 -7.7568 -1.19296 0
M  V30 129 O 17.3804 -7.36886 -3.63805 0
M  V30 130 C 17.2204 -7.95349 -4.982 0
M  V30 131 C 17.7604 -6.94612 -5.98974 0
M  V30 132 O 16.7044 -6.10347 -6.11815 0
M  V30 133 C 18.9784 -6.11426 -5.62335 0
M  V30 134 O 19.7164 -5.6162 -6.70584 0
M  V30 135 C 18.3094 -5.04409 -4.73308 0
M  V30 136 O 19.1084 -3.85992 -4.75183 0
M  V30 137 C 16.9724 -4.8728 -5.41006 0
M  V30 138 H 17.0044 -4.02333 -6.11157 0
M  V30 139 H 18.1874 -5.39466 -3.69543 0
M  V30 140 H 19.6714 -6.71916 -5.01943 0
M  V30 141 H 17.9774 -7.4649 -6.93477 0
M  V30 142 H 17.7874 -8.89416 -5.05237 0
M  V30 143 H 16.1574 -8.14876 -5.18409 0
M  V30 144 H 18.7964 -3.27957 -5.4317 0
M  V30 145 P 20.654 -5.75688 -6.64379 0
M  V30 146 O 22.076 -6.07627 -7.05504 0
M  V30 147 O 20.294 -5.88047 -5.19722 0
M  V30 148 O 20.331 -4.2322 -7.04443 0
M  V30 149 C 20.171 -3.99743 -8.4911 0
M  V30 150 C 20.711 -2.60516 -8.79425 0
M  V30 151 O 19.655 -1.82684 -8.4467 0
M  V30 152 C 21.929 -2.10343 -8.03628 0
M  V30 153 O 22.667 -1.09919 -8.67766 0
M  V30 154 C 21.26 -1.68446 -6.70876 0
M  V30 155 O 22.059 -0.678137 -6.08433 0
M  V30 156 C 19.923 -1.17436 -7.18567 0
M  V30 157 H 19.955 -0.0804732 -7.31656 0
M  V30 158 H 21.138 -2.54037 -6.02537 0
M  V30 159 H 22.622 -2.93881 -7.85526 0
M  V30 160 H 20.928 -2.53065 -9.86973 0
M  V30 161 H 20.738 -4.75072 -9.05887 0
M  V30 162 H 19.108 -4.05244 -8.76668 0
M  V30 163 H 21.747 0.177647 -6.34251 0
M  V30 164 P 23.6046 -1.25109 -8.70152 0
M  V30 165 O 25.0256 -1.29758 -9.22115 0
M  V30 166 O 23.2446 -2.13714 -7.55141 0
M  V30 167 O 23.2816 0.248149 -8.21425 0
M  V30 168 C 23.1206 1.22792 -9.30533 0
M  V30 169 C 23.6616 2.56293 -8.80664 0
M  V30 170 O 22.6066 3.02944 -8.09255 0
M  V30 171 C 24.8796 2.57523 -7.89775 0
M  V30 172 O 25.6176 3.7668 -7.89438 0
M  V30 173 C 24.2116 2.20997 -6.55446 0
M  V30 174 O 25.0096 2.71302 -5.48691 0
M  V30 175 C 22.8736 2.89693 -6.67988 0
M  V30 176 N 21.8306 2.08895 -6.07487 0
M  V30 177 C 21.9996 0.753809 -5.94137 0
M  V30 178 N 20.9726 0.146592 -5.38801 0
M  V30 179 C 20.0876 1.1768 -5.13693 0
M  V30 180 C 18.8206 1.17563 -4.52477 0
M  V30 181 N 18.2216 0.057481 -4.04759 0
M  V30 182 N 18.2556 2.41918 -4.45789 0
M  V30 183 C 18.8576 3.56493 -4.90792 0
M  V30 184 N 20.0346 3.61423 -5.47817 0
M  V30 185 C 20.6096 2.37779 -5.5588 0
M  V30 186 H 22.9056 3.8874 -6.19774 0
M  V30 187 H 24.0886 1.12673 -6.44018 0
M  V30 188 H 25.5716 1.7746 -8.19711 0
M  V30 189 H 23.8776 3.21673 -9.66791 0
M  V30 190 H 23.6876 0.901032 -10.1892 0
M  V30 191 H 22.0576 1.33049 -9.56592 0
M  V30 192 H 18.3216 4.49919 -4.77947 0
M  V30 193 H 22.8996 0.233081 -6.26266 0
M  V30 194 H 17.2916 0.119831 -3.60801 0
M  V30 195 H 18.6956 -0.852272 -4.12385 0
M  V30 196 H 24.6976 3.5779 -5.23879 0
M  V30 197 P 26.5551 3.65191 -7.99657 0
M  V30 198 O 27.9771 3.89332 -8.45794 0
M  V30 199 O 26.1951 2.28472 -7.50807 0
M  V30 200 O 26.2321 4.64972 -6.77611 0
M  V30 201 C 26.0721 6.06319 -7.16352 0
M  V30 202 C 26.6121 6.91731 -6.02299 0
M  V30 203 O 25.5561 6.92449 -5.17064 0
M  V30 204 C 27.8301 6.43627 -5.25174 0
M  V30 205 O 28.5681 7.43686 -4.60469 0
M  V30 206 C 27.1611 5.40275 -4.31916 0
M  V30 207 O 27.9601 5.25279 -3.14438 0
M  V30 208 C 25.8241 6.04847 -4.05327 0
M  V30 209 H 25.8561 6.62195 -3.11261 0
M  V30 210 H 27.0391 4.42556 -4.81383 0
M  V30 211 H 28.5231 5.92458 -5.93643 0
M  V30 212 H 26.8291 7.92655 -6.402 0
M  V30 213 H 26.6391 6.26671 -8.0846 0
M  V30 214 H 25.0091 6.29101 -7.32804 0
M  V30 215 H 27.6481 5.84315 -2.47318 0
M  V30 216 P 29.5057 7.39546 -4.75277 0
M  V30 217 O 30.9267 7.84882 -5.01092 0
M  V30 218 O 29.1457 5.9812 -5.08098 0
M  V30 219 O 29.1827 7.57503 -3.1866 0
M  V30 220 C 29.0217 8.97452 -2.74862 0
M  V30 221 C 29.5627 9.07548 -1.32709 0
M  V30 222 O 28.5077 8.61972 -0.606089 0
M  V30 223 C 30.7807 8.25383 -0.938334 0
M  V30 224 O 31.5187 8.74577 0.146954 0
M  V30 225 C 30.1127 6.8802 -0.712559 0
M  V30 226 O 30.9107 6.1181 0.188505 0
M  V30 227 C 28.7747 7.27966 -0.139777 0
M  V30 228 N 27.7317 6.39368 -0.623421 0
M  V30 229 C 27.9007 5.71761 -1.78245 0
M  V30 230 N 26.8737 4.962 -2.10491 0
M  V30 231 C 25.9887 5.16158 -1.0635 0
M  V30 232 C 24.7217 4.60425 -0.810266 0
M  V30 233 N 24.1227 3.7057 -1.62914 0
M  V30 234 N 24.1567 5.06 0.348685 0
M  V30 235 C 24.7587 5.94532 1.20395 0
M  V30 236 N 25.9357 6.48452 1.01191 0
M  V30 237 C 26.5107 6.04423 -0.146291 0
M  V30 238 H 28.8067 7.25255 0.961469 0
M  V30 239 H 29.9897 6.32625 -1.65044 0
M  V30 240 H 31.4727 8.19355 -1.79097 0
M  V30 241 H 29.7787 10.1305 -1.09016 0
M  V30 242 H 29.5887 9.64276 -3.41316 0
M  V30 243 H 27.9587 9.25417 -2.76357 0
M  V30 244 H 24.2227 6.21659 2.10714 0
M  V30 245 H 28.8007 5.79354 -2.38959 0
M  V30 246 H 23.1927 3.33174 -1.38982 0
M  V30 247 H 24.5967 3.39714 -2.48836 0
M  V30 248 H 30.5987 6.25169 1.0783 0
M  V30 249 P 32.4563 8.791 -9.96115e-15 0
M  V30 250 O 33.8783 9.31096 0.027933 0
M  V30 251 O 32.0963 7.77869 -1.04071 0
M  V30 252 O 32.1333 8.09533 1.41463 0
M  V30 253 C 31.9733 9.0349 2.53943 0
M  V30 254 C 32.5133 8.35226 3.79016 0
M  V30 255 O 31.4573 7.57992 4.15078 0
M  V30 256 C 33.7313 7.45087 3.67298 0
M  V30 257 O 34.4693 7.27796 4.85194 0
M  V30 258 C 33.0623 6.17323 3.12027 0
M  V30 259 O 33.8613 5.04231 3.47188 0
M  V30 260 C 31.7253 6.19961 3.81809 0
M  V30 261 H 31.7573 5.58218 4.73051 0
M  V30 262 H 32.9403 6.21726 2.02589 0
M  V30 263 H 34.4243 7.86112 2.9231 0
M  V30 264 H 32.7303 9.11627 4.55076 0
M  V30 265 H 32.5403 9.9573 2.34194 0
M  V30 266 H 30.9103 9.2792 2.67832 0
M  V30 267 H 33.5493 4.67702 4.28772 0
M  V30 268 P 35.4068 7.39546 4.75277 0
M  V30 269 O 36.8288 7.81777 5.05738 0
M  V30 270 O 35.0468 7.1065 3.32998 0
M  V30 271 O 35.0838 6.04542 5.56673 0
M  V30 272 C 34.9238 6.22772 7.02095 0
M  V30 273 C 35.4638 4.97725 7.70406 0
M  V30 274 O 34.4078 4.13256 7.58987 0
M  V30 275 C 36.6818 4.28231 7.11815 0
M  V30 276 O 37.4198 3.49945 8.01648 0
M  V30 277 C 36.0128 3.5063 5.96244 0
M  V30 278 O 36.8118 2.36482 5.64681 0
M  V30 279 C 34.6758 3.15122 6.56374 0
M  V30 280 H 34.7078 2.13853 6.99751 0
M  V30 281 H 35.8908 4.13501 5.06559 0
M  V30 282 H 37.3748 5.03285 6.70911 0
M  V30 283 H 35.6808 5.20877 8.75697 0
M  V30 284 H 35.4908 7.11046 7.35349 0
M  V30 285 H 33.8608 6.35815 7.26986 0
M  V30 286 H 36.4998 1.61644 6.13565 0
M  V30 287 P 38.3574 3.65191 7.99657 0
M  V30 288 O 39.7784 3.84292 8.48206 0
M  V30 289 O 37.9974 4.17805 6.64342 0
M  V30 290 O 38.0344 2.07613 7.95143 0
M  V30 291 C 37.8734 1.44344 9.27435 0
M  V30 292 C 38.4144 0.0220036 9.17197 0
M  V30 293 O 37.3594 -0.626794 8.61824 0
M  V30 294 C 39.6324 -0.24586 8.30336 0
M  V30 295 O 40.3704 -1.39011 8.63583 0
M  V30 296 C 38.9644 -0.273849 6.91158 0
M  V30 297 O 39.7624 -1.05728 6.029 0
M  V30 298 C 37.6264 -0.897649 7.22545 0
M  V30 299 N 36.5834 -0.292839 6.41732 0
M  V30 300 C 36.7524 0.950603 5.91308 0
M  V30 301 N 35.7254 1.37732 5.21105 0
M  V30 302 C 34.8404 0.318109 5.26039 0
M  V30 303 C 33.5734 0.146766 4.6727 0
M  V30 304 N 32.9744 1.08519 3.89983 0
M  V30 305 N 33.0084 -1.06525 4.95887 0
M  V30 306 C 33.6104 -2.0378 5.71347 0
M  V30 307 N 34.7874 -1.92445 6.27451 0
M  V30 308 C 35.3624 -0.715382 6.00353 0
M  V30 309 H 37.6584 -1.98383 7.04189 0
M  V30 310 H 38.8414 0.733318 6.49674 0
M  V30 311 H 40.3244 0.60668 8.36503 0
M  V30 312 H 38.6304 -0.362662 10.1825 0
M  V30 313 H 38.4404 2.00611 10.0304 0
M  V30 314 H 36.8104 1.41843 9.55327 0
M  V30 315 H 33.0744 -2.97041 5.85344 0
M  V30 316 H 37.6524 1.54076 6.07465 0
M  V30 317 H 32.0444 0.901517 3.49562 0
M  V30 318 H 33.4484 1.97957 3.71669 0
M  V30 319 H 39.4504 -1.95704 6.0346 0
M  V30 320 P 41.308 -1.25109 8.70152 0
M  V30 321 O 42.73 -1.35274 9.21221 0
M  V30 322 O 40.948 -0.0769065 7.84762 0
M  V30 323 O 40.985 -2.55232 7.81161 0
M  V30 324 C 40.825 -3.79939 8.58154 0
M  V30 325 C 41.365 -4.94023 7.72785 0
M  V30 326 O 40.309 -5.18726 6.91205 0
M  V30 327 C 42.583 -4.69597 6.85231 0
M  V30 328 O 43.321 -5.83832 6.51337 0
M  V30 329 C 41.914 -3.96706 5.66633 0
M  V30 330 O 42.713 -4.15414 4.49689 0
M  V30 331 C 40.577 -4.66153 5.59313 0
M  V30 332 H 40.609 -5.47679 4.85214 0
M  V30 333 H 41.792 -2.89008 5.86566 0
M  V30 334 H 43.276 -4.0121 7.36511 0
M  V30 335 H 41.582 -5.80182 8.37584 0
M  V30 336 H 41.392 -3.73517 9.52265 0
M  V30 337 H 39.762 -3.97163 8.80359 0
M  V30 338 H 42.401 -4.90969 4.01921 0
M  V30 339 P 44.2585 -5.75688 6.64379 0
M  V30 340 O 45.6805 -6.11849 7.01846 0
M  V30 341 O 43.8985 -4.30744 6.56026 0
M  V30 342 O 43.9355 -6.37042 5.19165 0
M  V30 343 C 43.7755 -7.83578 5.16515 0
M  V30 344 C 44.3155 -8.33398 3.83019 0
M  V30 345 O 43.2595 -8.10074 3.01034 0
M  V30 346 C 45.5335 -7.65514 3.2257 0
M  V30 347 O 46.2715 -8.4329 2.32297 0
M  V30 348 C 44.8645 -6.40075 2.62207 0
M  V30 349 O 45.6635 -5.92589 1.53712 0
M  V30 350 C 43.5275 -6.9454 2.18503 0
M  V30 351 H 43.5595 -7.23063 1.12091 0
M  V30 352 H 44.7425 -5.6025 3.37201 0
M  V30 353 H 46.2265 -7.35707 4.02681 0
M  V30 354 H 44.5325 -9.40912 3.9095 0
M  V30 355 H 44.3425 -8.29056 5.99158 0
M  V30 356 H 42.7125 -8.10073 5.25882 0
M  V30 357 H 45.3515 -6.30324 0.726794 0
M  V30 358 P 47.2091 -8.4349 2.47671 0
M  V30 359 O 48.6311 -8.94167 2.5964 0
M  V30 360 O 46.8491 -7.1704 3.19006 0
M  V30 361 O 46.8861 -8.16596 0.923387 0
M  V30 362 C 46.7261 -9.38437 0.108857 0
M  V30 363 C 47.2661 -9.08175 -1.28353 0
M  V30 364 O 46.2101 -8.44229 -1.84713 0
M  V30 365 C 48.4841 -8.18386 -1.42505 0
M  V30 366 O 49.2221 -8.3501 -2.60497 0
M  V30 367 C 47.8151 -6.80225 -1.25468 0
M  V30 368 O 48.6141 -5.81621 -1.91066 0
M  V30 369 C 46.4781 -7.02416 -1.9168 0
M  V30 370 H 46.5101 -6.6888 -2.96621 0
M  V30 371 H 47.6931 -6.53617 -0.192223 0
M  V30 372 H 49.1771 -8.36622 -0.589963 0
M  V30 373 H 47.4831 -10.0291 -1.79807 0
M  V30 374 H 47.2931 -10.2138 0.558219 0
M  V30 375 H 45.6631 -9.6579 0.0444202 0
M  V30 376 H 48.3021 -5.69556 -2.79637 0
M  V30 377 P 50.1597 -8.4349 -2.47671 0
M  V30 378 O 51.5817 -8.92593 -2.65 0
M  V30 379 O 49.7997 -7.7568 -1.19296 0
M  V30 380 O 49.8367 -7.36886 -3.63805 0
M  V30 381 C 49.6767 -7.95349 -4.982 0
M  V30 382 C 50.2167 -6.94612 -5.98974 0
M  V30 383 O 49.1607 -6.10347 -6.11815 0
M  V30 384 C 51.4347 -6.11426 -5.62335 0
M  V30 385 O 52.1727 -5.6162 -6.70584 0
M  V30 386 C 50.7657 -5.04409 -4.73308 0
M  V30 387 O 51.5647 -3.85992 -4.75183 0
M  V30 388 C 49.4287 -4.8728 -5.41006 0
M  V30 389 H 49.4607 -4.02333 -6.11157 0
M  V30 390 H 50.6437 -5.39466 -3.69543 0
M  V30 391 H 52.1277 -6.71916 -5.01943 0
M  V30 392 H 50.4337 -7.4649 -6.93477 0
M  V30 393 H 50.2437 -8.89416 -5.05237 0
M  V30 394 H 48.6137 -8.14876 -5.18409 0
M  V30 395 H 51.2527 -3.27957 -5.4317 0
M  V30 396 P 53.1103 -5.75688 -6.64379 0
M  V30 397 O 54.5323 -6.07627 -7.05504 0
M  V30 398 O 52.7503 -5.88047 -5.19722 0
M  V30 399 O 52.7873 -4.2322 -7.04443 0
M  V30 400 C 52.6273 -3.99743 -8.4911 0
M  V30 401 C 53.1673 -2.60516 -8.79425 0
M  V30 402 O 52.1113 -1.82684 -8.4467 0
M  V30 403 C 54.3853 -2.10343 -8.03628 0
M  V30 404 O 55.1233 -1.09919 -8.67766 0
M  V30 405 C 53.7163 -1.68446 -6.70876 0
M  V30 406 O 54.5153 -0.678137 -6.08433 0
M  V30 407 C 52.3793 -1.17436 -7.18567 0
M  V30 408 H 52.4113 -0.0804732 -7.31656 0
M  V30 409 H 53.5943 -2.54037 -6.02537 0
M  V30 410 H 55.0783 -2.93881 -7.85526 0
M  V30 411 H 53.3843 -2.53065 -9.86973 0
M  V30 412 H 53.1943 -4.75072 -9.05887 0
M  V30 413 H 51.5643 -4.05244 -8.76668 0
M  V30 414 H 54.2033 0.177647 -6.34251 0
M  V30 415 P 56.0608 -1.25109 -8.70152 0
M  V30 416 O 57.4828 -1.29744 -9.22016 0
M  V30 417 O 55.7008 -2.13714 -7.55141 0
M  V30 418 O 55.7378 0.248149 -8.21425 0
M  V30 419 C 55.5778 1.22779 -9.30434 0
M  V30 420 C 56.1178 2.56293 -8.80664 0
M  V30 421 O 55.0618 3.02979 -8.09349 0
M  V30 422 C 57.3358 2.57523 -7.89775 0
M  V30 423 O 58.0738 3.7668 -7.89438 0
M  V30 424 C 56.6668 2.20997 -6.55446 0
M  V30 425 O 57.4658 2.71895 -5.48509 0
M  V30 426 C 55.3298 2.89693 -6.67988 0
M  V30 427 H 55.3618 3.88793 -6.19859 0
M  V30 428 H 56.5448 1.12046 -6.44229 0
M  V30 429 H 58.0288 1.7746 -8.19711 0
M  V30 430 H 56.3348 3.20706 -9.67112 0
M  V30 431 H 56.1448 0.901032 -10.1892 0
M  V30 432 H 54.5148 1.33049 -9.56592 0
M  V30 433 H 57.1538 3.57847 -5.23962 0
M  V30 434 P 59.0114 3.65191 -7.99657 0
M  V30 435 O 60.4334 3.89332 -8.45794 0
M  V30 436 O 58.6514 2.28472 -7.50807 0
M  V30 437 O 58.6884 4.64972 -6.77611 0
M  V30 438 C 58.5284 6.06319 -7.16352 0
M  V30 439 C 59.0684 6.91731 -6.02299 0
M  V30 440 O 58.0124 6.92449 -5.17064 0
M  V30 441 C 60.2864 6.43627 -5.25174 0
M  V30 442 O 61.0244 7.43686 -4.60469 0
M  V30 443 C 59.6174 5.40275 -4.31916 0
M  V30 444 O 60.4164 5.25279 -3.14438 0
M  V30 445 C 58.2804 6.04847 -4.05327 0
M  V30 446 H 58.3124 6.62195 -3.11261 0
M  V30 447 H 59.4954 4.42556 -4.81383 0
M  V30 448 H 60.9794 5.92458 -5.93643 0
M  V30 449 H 59.2854 7.92655 -6.402 0
M  V30 450 H 59.0954 6.26671 -8.0846 0
M  V30 451 H 57.4654 6.29101 -7.32804 0
M  V30 452 H 60.1044 5.84315 -2.47318 0
M  V30 453 P 61.962 7.39546 -4.75277 0
M  V30 454 O 63.384 7.84798 -5.01039 0
M  V30 455 O 61.602 5.9812 -5.08098 0
M  V30 456 O 61.639 7.57503 -3.1866 0
M  V30 457 C 61.479 8.97357 -2.74833 0
M  V30 458 C 62.019 9.07548 -1.32709 0
M  V30 459 O 60.963 8.62072 -0.606159 0
M  V30 460 C 63.237 8.25383 -0.938334 0
M  V30 461 O 63.975 8.74577 0.146954 0
M  V30 462 C 62.568 6.8802 -0.712559 0
M  V30 463 O 63.367 6.1189 0.194655 0
M  V30 464 C 61.231 7.27966 -0.139777 0
M  V30 465 H 61.263 7.25354 0.961601 0
M  V30 466 H 62.446 6.32557 -1.65702 0
M  V30 467 H 63.93 8.19355 -1.79097 0
M  V30 468 H 62.236 10.1294 -1.10029 0
M  V30 469 H 62.046 9.64276 -3.41316 0
M  V30 470 H 60.416 9.25417 -2.76357 0
M  V30 471 H 63.055 6.25267 1.07847 0
M  V30 472 P 64.9125 8.791 -3.55383e-14 0
M  V30 473 O 66.3345 9.31096 0.027933 0
M  V30 474 O 64.5525 7.77869 -1.04071 0
M  V30 475 O 64.5895 8.09533 1.41463 0
M  V30 476 C 64.4295 9.0349 2.53943 0
M  V30 477 C 64.9695 8.35226 3.79016 0
M  V30 478 O 63.9135 7.57992 4.15078 0
M  V30 479 C 66.1875 7.45087 3.67298 0
M  V30 480 O 66.9255 7.27796 4.85194 0
M  V30 481 C 65.5185 6.17323 3.12027 0
M  V30 482 O 66.3175 5.04231 3.47188 0
M  V30 483 C 64.1815 6.19961 3.81809 0
M  V30 484 H 64.2135 5.58218 4.73051 0
M  V30 485 H 65.3965 6.21726 2.02589 0
M  V30 486 H 66.8805 7.86112 2.9231 0
M  V30 487 H 65.1865 9.11627 4.55076 0
M  V30 488 H 64.9965 9.9573 2.34194 0
M  V30 489 H 63.3665 9.2792 2.67832 0
M  V30 490 H 66.0055 4.67702 4.28772 0
M  V30 491 P 67.8631 7.39546 4.75277 0
M  V30 492 O 69.2851 7.81777 5.05738 0
M  V30 493 O 67.5031 7.1065 3.32998 0
M  V30 494 O 67.5401 6.04542 5.56673 0
M  V30 495 C 67.3801 6.22772 7.02095 0
M  V30 496 C 67.9201 4.97725 7.70406 0
M  V30 497 O 66.8641 4.13256 7.58987 0
M  V30 498 C 69.1381 4.28231 7.11815 0
M  V30 499 O 69.8761 3.49945 8.01648 0
M  V30 500 C 68.4691 3.5063 5.96244 0
M  V30 501 O 69.2681 2.36482 5.64681 0
M  V30 502 C 67.1321 3.15122 6.56374 0
M  V30 503 H 67.1641 2.13853 6.99751 0
M  V30 504 H 68.3471 4.13501 5.06559 0
M  V30 505 H 69.8311 5.03285 6.70911 0
M  V30 506 H 68.1371 5.20877 8.75697 0
M  V30 507 H 67.9471 7.11046 7.35349 0
M  V30 508 H 66.3171 6.35815 7.26986 0
M  V30 509 H 68.9561 1.61644 6.13565 0
M  V30 510 P 70.8137 3.65191 7.99657 0
M  V30 511 O 72.2347 3.84292 8.48206 0
M  V30 512 O 70.4537 4.17805 6.64342 0
M  V30 513 O 70.4907 2.07613 7.95143 0
M  V30 514 C 70.3297 1.44344 9.27435 0
M  V30 515 C 70.8707 0.0220036 9.17197 0
M  V30 516 O 69.8157 -0.626794 8.61824 0
M  V30 517 C 72.0887 -0.24586 8.30336 0
M  V30 518 O 72.8267 -1.39011 8.63583 0
M  V30 519 C 71.4207 -0.273849 6.91158 0
M  V30 520 O 72.2187 -1.05728 6.029 0
M  V30 521 C 70.0827 -0.897649 7.22545 0
M  V30 522 N 69.0397 -0.292839 6.41732 0
M  V30 523 C 69.2087 0.950603 5.91308 0
M  V30 524 N 68.1817 1.37732 5.21105 0
M  V30 525 C 67.2967 0.318109 5.26039 0
M  V30 526 C 66.0297 0.146766 4.6727 0
M  V30 527 N 65.4307 1.08519 3.89983 0
M  V30 528 N 65.4647 -1.06525 4.95887 0
M  V30 529 C 66.0667 -2.0378 5.71347 0
M  V30 530 N 67.2437 -1.92445 6.27451 0
M  V30 531 C 67.8187 -0.715382 6.00353 0
M  V30 532 H 70.1147 -1.98383 7.04189 0
M  V30 533 H 71.2977 0.733318 6.49674 0
M  V30 534 H 72.7807 0.60668 8.36503 0
M  V30 535 H 71.0867 -0.362662 10.1825 0
M  V30 536 H 70.8967 2.00611 10.0304 0
M  V30 537 H 69.2667 1.41843 9.55327 0
M  V30 538 H 65.5307 -2.97041 5.85344 0
M  V30 539 H 70.1087 1.54076 6.07465 0
M  V30 540 H 64.5007 0.901517 3.49562 0
M  V30 541 H 65.9047 1.97957 3.71669 0
M  V30 542 H 71.9067 -1.95704 6.0346 0
M  V30 543 P 73.7642 -1.25109 8.70152 0
M  V30 544 O 75.1862 -1.35274 9.21221 0
M  V30 545 O 73.4042 -0.0769065 7.84762 0
M  V30 546 O 73.4412 -2.55232 7.81161 0
M  V30 547 C 73.2812 -3.79939 8.58154 0
M  V30 548 C 73.8212 -4.94023 7.72785 0
M  V30 549 O 72.7652 -5.18726 6.91205 0
M  V30 550 C 75.0392 -4.69597 6.85231 0
M  V30 551 O 75.7772 -5.83832 6.51337 0
M  V30 552 C 74.3702 -3.96706 5.66633 0
M  V30 553 O 75.1692 -4.15414 4.49689 0
M  V30 554 C 73.0332 -4.66153 5.59313 0
M  V30 555 H 73.0652 -5.47679 4.85214 0
M  V30 556 H 74.2482 -2.89008 5.86566 0
M  V30 557 H 75.7322 -4.0121 7.36511 0
M  V30 558 H 74.0382 -5.80182 8.37584 0
M  V30 559 H 73.8482 -3.73517 9.52265 0
M  V30 560 H 72.2182 -3.97163 8.80359 0
M  V30 561 H 74.8572 -4.90969 4.01921 0
M  V30 562 P 76.7148 -5.75688 6.64379 0
M  V30 563 O 78.1368 -6.11849 7.01846 0
M  V30 564 O 76.3548 -4.30744 6.56026 0
M  V30 565 O 76.3918 -6.37042 5.19165 0
M  V30 566 C 76.2318 -7.83578 5.16515 0
M  V30 567 C 76.7718 -8.33398 3.83019 0
M  V30 568 O 75.7158 -8.10074 3.01034 0
M  V30 569 C 77.9898 -7.65514 3.2257 0
M  V30 570 O 78.7278 -8.4329 2.32297 0
M  V30 571 C 77.3208 -6.40075 2.62207 0
M  V30 572 O 78.1198 -5.92589 1.53712 0
M  V30 573 C 75.9838 -6.9454 2.18503 0
M  V30 574 H 76.0158 -7.23063 1.12091 0
M  V30 575 H 77.1988 -5.6025 3.37201 0
M  V30 576 H 78.6828 -7.35707 4.02681 0
M  V30 577 H 76.9888 -9.40912 3.9095 0
M  V30 578 H 76.7988 -8.29056 5.99158 0
M  V30 579 H 75.1688 -8.10073 5.25882 0
M  V30 580 H 77.8078 -6.30324 0.726794 0
M  V30 581 P 79.6654 -8.4349 2.47671 0
M  V30 582 O 81.0874 -8.94167 2.5964 0
M  V30 583 O 79.3054 -7.1704 3.19006 0
M  V30 584 O 79.3424 -8.16596 0.923387 0
M  V30 585 C 79.1824 -9.38437 0.108857 0
M  V30 586 C 79.7224 -9.08175 -1.28353 0
M  V30 587 O 78.6664 -8.44229 -1.84713 0
M  V30 588 C 80.9404 -8.18386 -1.42505 0
M  V30 589 O 81.6784 -8.3501 -2.60497 0
M  V30 590 C 80.2714 -6.80225 -1.25468 0
M  V30 591 O 81.0704 -5.81621 -1.91066 0
M  V30 592 C 78.9344 -7.02416 -1.9168 0
M  V30 593 H 78.9664 -6.6888 -2.96621 0
M  V30 594 H 80.1494 -6.53617 -0.192223 0
M  V30 595 H 81.6334 -8.36622 -0.589963 0
M  V30 596 H 79.9394 -10.0291 -1.79807 0
M  V30 597 H 79.7494 -10.2138 0.558219 0
M  V30 598 H 78.1194 -9.6579 0.0444202 0
M  V30 599 H 80.7584 -5.69556 -2.79637 0
M  V30 600 P 82.616 -8.4349 -2.47671 0
M  V30 601 O 84.038 -8.92593 -2.65 0
M  V30 602 O 82.256 -7.7568 -1.19296 0
M  V30 603 O 82.293 -7.36886 -3.63805 0
M  V30 604 C 82.133 -7.95349 -4.982 0
M  V30 605 C 82.673 -6.94612 -5.98974 0
M  V30 606 O 81.617 -6.10347 -6.11815 0
M  V30 607 C 83.891 -6.11426 -5.62335 0
M  V30 608 O 84.629 -5.6162 -6.70584 0
M  V30 609 C 83.222 -5.04409 -4.73308 0
M  V30 610 O 84.021 -3.85992 -4.75183 0
M  V30 611 C 81.885 -4.8728 -5.41006 0
M  V30 612 H 81.917 -4.02333 -6.11157 0
M  V30 613 H 83.1 -5.39466 -3.69543 0
M  V30 614 H 84.584 -6.71916 -5.01943 0
M  V30 615 H 82.89 -7.4649 -6.93477 0
M  V30 616 H 82.7 -8.89416 -5.05237 0
M  V30 617 H 81.07 -8.14876 -5.18409 0
M  V30 618 H 83.709 -3.27957 -5.4317 0
M  V30 619 P 85.5665 -5.75688 -6.64379 0
M  V30 620 O 86.9885 -6.07627 -7.05504 0
M  V30 621 O 85.2065 -5.88047 -5.19722 0
M  V30 622 O 85.2435 -4.2322 -7.04443 0
M  V30 623 C 85.0835 -3.99743 -8.4911 0
M  V30 624 C 85.6235 -2.60516 -8.79425 0
M  V30 625 O 84.5675 -1.82684 -8.4467 0
M  V30 626 C 86.8415 -2.10343 -8.03628 0
M  V30 627 O 87.5795 -1.09919 -8.67766 0
M  V30 628 C 86.1725 -1.68446 -6.70876 0
M  V30 629 O 86.9715 -0.678137 -6.08433 0
M  V30 630 C 84.8355 -1.17436 -7.18567 0
M  V30 631 H 84.8675 -0.0804732 -7.31656 0
M  V30 632 H 86.0505 -2.54037 -6.02537 0
M  V30 633 H 87.5345 -2.93881 -7.85526 0
M  V30 634 H 85.8405 -2.53065 -9.86973 0
M  V30 635 H 85.6505 -4.75072 -9.05887 0
M  V30 636 H 84.0205 -4.05244 -8.76668 0
M  V30 637 H 86.6595 0.177647 -6.34251 0
M  V30 638 P 88.5171 -1.25109 -8.70152 0
M  V30 639 O 89.9391 -1.29744 -9.22016 0
M  V30 640 O 88.1571 -2.13714 -7.55141 0
M  V30 641 O 88.1941 0.248149 -8.21425 0
M  V30 642 C 88.0341 1.22779 -9.30434 0
M  V30 643 C 88.5741 2.56293 -8.80664 0
M  V30 644 O 87.5181 3.02979 -8.09349 0
M  V30 645 C 89.7921 2.57523 -7.89775 0
M  V30 646 O 90.5301 3.7668 -7.89438 0
M  V30 647 C 89.1231 2.20997 -6.55446 0
M  V30 648 O 89.9221 2.71895 -5.48509 0
M  V30 649 C 87.7861 2.89693 -6.67988 0
M  V30 650 H 87.8181 3.88793 -6.19859 0
M  V30 651 H 89.0011 1.12046 -6.44229 0
M  V30 652 H 90.4851 1.7746 -8.19711 0
M  V30 653 H 88.7911 3.20706 -9.67112 0
M  V30 654 H 88.6011 0.901032 -10.1892 0
M  V30 655 H 86.9711 1.33049 -9.56592 0
M  V30 656 H 89.6101 3.57847 -5.23962 0
M  V30 657 P 91.4677 3.65191 -7.99657 0
M  V30 658 O 92.8897 3.89332 -8.45794 0
M  V30 659 O 91.1077 2.28472 -7.50807 0
M  V30 660 O 91.1447 4.64972 -6.77611 0
M  V30 661 C 90.9847 6.06319 -7.16352 0
M  V30 662 C 91.5247 6.91731 -6.02299 0
M  V30 663 O 90.4687 6.92449 -5.17064 0
M  V30 664 C 92.7427 6.43627 -5.25174 0
M  V30 665 O 93.4807 7.43686 -4.60469 0
M  V30 666 C 92.0737 5.40275 -4.31916 0
M  V30 667 O 92.8727 5.25279 -3.14438 0
M  V30 668 C 90.7367 6.04847 -4.05327 0
M  V30 669 H 90.7687 6.62195 -3.11261 0
M  V30 670 H 91.9517 4.42556 -4.81383 0
M  V30 671 H 93.4357 5.92458 -5.93643 0
M  V30 672 H 91.7417 7.92655 -6.402 0
M  V30 673 H 91.5517 6.26671 -8.0846 0
M  V30 674 H 89.9217 6.29101 -7.32804 0
M  V30 675 H 92.5607 5.84315 -2.47318 0
M  V30 676 P 94.4182 7.39546 -4.75277 0
M  V30 677 O 95.8402 7.84798 -5.01039 0
M  V30 678 O 94.0582 5.9812 -5.08098 0
M  V30 679 O 94.0952 7.57503 -3.1866 0
M  V30 680 C 93.9352 8.97357 -2.74833 0
M  V30 681 C 94.4752 9.07548 -1.32709 0
M  V30 682 O 93.4192 8.62072 -0.606159 0
M  V30 683 C 95.6932 8.25383 -0.938334 0
M  V30 684 O 96.4312 8.74577 0.146954 0
M  V30 685 C 95.0242 6.8802 -0.712559 0
M  V30 686 O 95.8232 6.1189 0.194655 0
M  V30 687 C 93.6872 7.27966 -0.139777 0
M  V30 688 H 93.7192 7.25354 0.961601 0
M  V30 689 H 94.9022 6.32557 -1.65702 0
M  V30 690 H 96.3862 8.19355 -1.79097 0
M  V30 691 H 94.6922 10.1294 -1.10029 0
M  V30 692 H 94.5022 9.64276 -3.41316 0
M  V30 693 H 92.8722 9.25417 -2.76357 0
M  V30 694 H 95.5112 6.25267 1.07847 0
M  V30 695 P 97.3688 8.791 -6.89233e-14 0
M  V30 696 O 98.7908 9.31296 0.027939 0
M  V30 697 O 97.0088 7.77869 -1.04071 0
M  V30 698 O 97.0458 8.09533 1.41463 0
M  V30 699 C 96.8858 9.0349 2.53943 0
M  V30 700 C 97.4258 8.35135 3.78975 0
M  V30 701 O 96.3708 7.57992 4.15078 0
M  V30 702 C 98.6438 7.45087 3.67298 0
M  V30 703 O 99.3818 7.27796 4.85194 0
M  V30 704 C 97.9758 6.17323 3.12027 0
M  V30 705 O 98.7738 5.04149 3.47132 0
M  V30 706 C 96.6378 6.19961 3.81809 0
M  V30 707 N 95.5948 5.71575 2.93223 0
M  V30 708 C 95.6568 5.97133 1.62693 0
M  V30 709 N 94.6118 5.44066 0.984414 0
M  V30 710 C 93.8778 4.87093 1.93987 0
M  V30 711 C 92.5718 4.26449 1.8738 0
M  V30 712 O 91.8388 4.1089 0.884377 0
M  V30 713 N 92.1418 3.82483 3.08036 0
M  V30 714 C 92.8908 3.95124 4.27727 0
M  V30 715 N 92.2938 3.4084 5.39089 0
M  V30 716 N 94.0438 4.55264 4.3706 0
M  V30 717 C 94.5008 5.00861 3.18217 0
M  V30 718 H 96.6698 5.58218 4.73051 0
M  V30 719 H 97.8528 6.21631 2.02558 0
M  V30 720 H 99.3378 7.85819 2.93096 0
M  V30 721 H 97.6428 9.11627 4.55076 0
M  V30 722 H 97.4528 9.9573 2.34194 0
M  V30 723 H 95.8218 9.2792 2.67832 0
M  V30 724 H 91.2458 3.38323 3.1329 0
M  V30 725 H 96.4528 6.53891 1.14265 0
M  V30 726 H 91.3828 2.93852 5.30559 0
M  V30 727 H 92.7588 3.47631 6.30632 0
M  V30 728 H 98.4628 4.67628 4.28704 0
M  V30 729 P 100.319 7.39546 4.75277 0
M  V30 730 O 101.741 7.81777 5.05738 0
M  V30 731 O 99.9594 7.1065 3.32998 0
M  V30 732 O 99.9964 6.04542 5.56673 0
M  V30 733 C 99.8364 6.22772 7.02095 0
M  V30 734 C 100.376 4.97725 7.70406 0
M  V30 735 O 99.3204 4.13256 7.58987 0
M  V30 736 C 101.594 4.28231 7.11815 0
M  V30 737 O 102.332 3.49945 8.01648 0
M  V30 738 C 100.925 3.5063 5.96244 0
M  V30 739 O 101.724 2.36482 5.64681 0
M  V30 740 C 99.5884 3.15122 6.56374 0
M  V30 741 H 99.6204 2.13853 6.99751 0
M  V30 742 H 100.803 4.13501 5.06559 0
M  V30 743 H 102.287 5.03285 6.70911 0
M  V30 744 H 100.593 5.20877 8.75697 0
M  V30 745 H 100.403 7.11046 7.35349 0
M  V30 746 H 98.7734 6.35815 7.26986 0
M  V30 747 H 101.412 1.61644 6.13565 0
M  V30 748 P 103.27 3.65191 7.99657 0
M  V30 749 O 104.692 3.8425 8.48115 0
M  V30 750 O 102.91 4.17805 6.64342 0
M  V30 751 O 102.947 2.07613 7.95143 0
M  V30 752 C 102.787 1.44328 9.27336 0
M  V30 753 C 103.327 0.0220036 9.17197 0
M  V30 754 O 102.271 -0.626867 8.61923 0
M  V30 755 C 104.545 -0.24586 8.30336 0
M  V30 756 O 105.283 -1.39011 8.63583 0
M  V30 757 C 103.876 -0.273849 6.91158 0
M  V30 758 O 104.675 -1.06348 6.02892 0
M  V30 759 C 102.539 -0.897649 7.22545 0
M  V30 760 H 102.571 -1.9841 7.04286 0
M  V30 761 H 103.754 0.739928 6.497 0
M  V30 762 H 105.238 0.60668 8.36503 0
M  V30 763 H 103.544 -0.352479 10.1829 0
M  V30 764 H 103.354 2.00611 10.0304 0
M  V30 765 H 101.724 1.41843 9.55327 0
M  V30 766 H 104.363 -1.95734 6.03555 0
M  V30 767 P 106.221 -1.25109 8.70152 0
M  V30 768 O 107.643 -1.35274 9.21221 0
M  V30 769 O 105.861 -0.0769065 7.84762 0
M  V30 770 O 105.898 -2.55232 7.81161 0
M  V30 771 C 105.738 -3.79939 8.58154 0
M  V30 772 C 106.278 -4.94023 7.72785 0
M  V30 773 O 105.222 -5.18726 6.91205 0
M  V30 774 C 107.496 -4.69597 6.85231 0
M  V30 775 O 108.234 -5.83832 6.51337 0
M  V30 776 C 106.827 -3.96706 5.66633 0
M  V30 777 O 107.626 -4.15414 4.49689 0
M  V30 778 C 105.49 -4.66153 5.59313 0
M  V30 779 H 105.522 -5.47679 4.85214 0
M  V30 780 H 106.705 -2.89008 5.86566 0
M  V30 781 H 108.189 -4.0121 7.36511 0
M  V30 782 H 106.495 -5.80182 8.37584 0
M  V30 783 H 106.305 -3.73517 9.52265 0
M  V30 784 H 104.675 -3.97163 8.80359 0
M  V30 785 H 107.314 -4.90969 4.01921 0
M  V30 786 P 109.171 -5.75688 6.64379 0
M  V30 787 O 110.593 -6.11849 7.01846 0
M  V30 788 O 108.811 -4.30744 6.56026 0
M  V30 789 O 108.848 -6.37042 5.19165 0
M  V30 790 C 108.688 -7.83578 5.16515 0
M  V30 791 C 109.228 -8.33398 3.83019 0
M  V30 792 O 108.172 -8.10074 3.01034 0
M  V30 793 C 110.446 -7.65514 3.2257 0
M  V30 794 O 111.184 -8.4329 2.32297 0
M  V30 795 C 109.777 -6.40075 2.62207 0
M  V30 796 O 110.576 -5.92589 1.53712 0
M  V30 797 C 108.44 -6.9454 2.18503 0
M  V30 798 H 108.472 -7.23063 1.12091 0
M  V30 799 H 109.655 -5.6025 3.37201 0
M  V30 800 H 111.139 -7.35707 4.02681 0
M  V30 801 H 109.445 -9.40912 3.9095 0
M  V30 802 H 109.255 -8.29056 5.99158 0
M  V30 803 H 107.625 -8.10073 5.25882 0
M  V30 804 H 110.264 -6.30324 0.726794 0
M  V30 805 P 112.122 -8.4349 2.47671 0
M  V30 806 O 113.544 -8.94167 2.5964 0
M  V30 807 O 111.762 -7.1704 3.19006 0
M  V30 808 O 111.799 -8.16596 0.923387 0
M  V30 809 C 111.639 -9.38437 0.108857 0
M  V30 810 C 112.179 -9.08175 -1.28353 0
M  V30 811 O 111.123 -8.44229 -1.84713 0
M  V30 812 C 113.397 -8.18386 -1.42505 0
M  V30 813 O 114.135 -8.3501 -2.60497 0
M  V30 814 C 112.728 -6.80225 -1.25468 0
M  V30 815 O 113.527 -5.81621 -1.91066 0
M  V30 816 C 111.391 -7.02416 -1.9168 0
M  V30 817 H 111.423 -6.6888 -2.96621 0
M  V30 818 H 112.606 -6.53617 -0.192223 0
M  V30 819 H 114.09 -8.36622 -0.589963 0
M  V30 820 H 112.396 -10.0291 -1.79807 0
M  V30 821 H 112.206 -10.2138 0.558219 0
M  V30 822 H 110.576 -9.6579 0.0444202 0
M  V30 823 H 113.215 -5.69556 -2.79637 0
M  V30 824 P 115.072 -8.4349 -2.47671 0
M  V30 825 O 116.494 -8.92593 -2.65 0
M  V30 826 O 114.712 -7.7568 -1.19296 0
M  V30 827 O 114.749 -7.36886 -3.63805 0
M  V30 828 C 114.589 -7.95349 -4.982 0
M  V30 829 C 115.129 -6.94612 -5.98974 0
M  V30 830 O 114.073 -6.10347 -6.11815 0
M  V30 831 C 116.347 -6.11426 -5.62335 0
M  V30 832 O 117.085 -5.6162 -6.70584 0
M  V30 833 C 115.678 -5.04409 -4.73308 0
M  V30 834 O 116.477 -3.85992 -4.75183 0
M  V30 835 C 114.341 -4.8728 -5.41006 0
M  V30 836 H 114.373 -4.02333 -6.11157 0
M  V30 837 H 115.556 -5.39466 -3.69543 0
M  V30 838 H 117.04 -6.71916 -5.01943 0
M  V30 839 H 115.346 -7.4649 -6.93477 0
M  V30 840 H 115.156 -8.89416 -5.05237 0
M  V30 841 H 113.526 -8.14876 -5.18409 0
M  V30 842 H 116.165 -3.27957 -5.4317 0
M  V30 843 P 118.023 -5.75688 -6.64379 0
M  V30 844 O 119.445 -6.07627 -7.05504 0
M  V30 845 O 117.663 -5.88047 -5.19722 0
M  V30 846 O 117.7 -4.2322 -7.04443 0
M  V30 847 C 117.54 -3.99743 -8.4911 0
M  V30 848 C 118.08 -2.60516 -8.79425 0
M  V30 849 O 117.024 -1.82684 -8.4467 0
M  V30 850 C 119.298 -2.10343 -8.03628 0
M  V30 851 O 120.036 -1.09919 -8.67766 0
M  V30 852 C 118.629 -1.68446 -6.70876 0
M  V30 853 O 119.428 -0.678137 -6.08433 0
M  V30 854 C 117.292 -1.17436 -7.18567 0
M  V30 855 H 117.324 -0.0804732 -7.31656 0
M  V30 856 H 118.507 -2.54037 -6.02537 0
M  V30 857 H 119.991 -2.93881 -7.85526 0
M  V30 858 H 118.297 -2.53065 -9.86973 0
M  V30 859 H 118.107 -4.75072 -9.05887 0
M  V30 860 H 116.477 -4.05244 -8.76668 0
M  V30 861 H 119.116 0.177647 -6.34251 0
M  V30 862 P 120.973 -1.25109 -8.70152 0
M  V30 863 O 122.395 -1.29744 -9.22016 0
M  V30 864 O 120.613 -2.13714 -7.55141 0
M  V30 865 O 120.65 0.248149 -8.21425 0
M  V30 866 C 120.49 1.22779 -9.30434 0
M  V30 867 C 121.03 2.56293 -8.80664 0
M  V30 868 O 119.974 3.02979 -8.09349 0
M  V30 869 C 122.248 2.57523 -7.89775 0
M  V30 870 O 122.986 3.7668 -7.89438 0
M  V30 871 C 121.579 2.20997 -6.55446 0
M  V30 872 O 122.378 2.71895 -5.48509 0
M  V30 873 C 120.242 2.89693 -6.67988 0
M  V30 874 H 120.274 3.88793 -6.19859 0
M  V30 875 H 121.457 1.12046 -6.44229 0
M  V30 876 H 122.941 1.7746 -8.19711 0
M  V30 877 H 121.247 3.20706 -9.67112 0
M  V30 878 H 121.057 0.901032 -10.1892 0
M  V30 879 H 119.427 1.33049 -9.56592 0
M  V30 880 H 122.066 3.57847 -5.23962 0
M  V30 881 P 123.924 3.65191 -7.99657 0
M  V30 882 O 125.346 3.89332 -8.45794 0
M  V30 883 O 123.564 2.28472 -7.50807 0
M  V30 884 O 123.601 4.64972 -6.77611 0
M  V30 885 C 123.441 6.06319 -7.16352 0
M  V30 886 C 123.981 6.91731 -6.02299 0
M  V30 887 O 122.925 6.92449 -5.17064 0
M  V30 888 C 125.199 6.43627 -5.25174 0
M  V30 889 O 125.937 7.43686 -4.60469 0
M  V30 890 C 124.53 5.40275 -4.31916 0
M  V30 891 O 125.329 5.25279 -3.14438 0
M  V30 892 C 123.193 6.04847 -4.05327 0
M  V30 893 H 123.225 6.62195 -3.11261 0
M  V30 894 H 124.408 4.42556 -4.81383 0
M  V30 895 H 125.892 5.92458 -5.93643 0
M  V30 896 H 124.198 7.92655 -6.402 0
M  V30 897 H 124.008 6.26671 -8.0846 0
M  V30 898 H 122.378 6.29101 -7.32804 0
M  V30 899 H 125.017 5.84315 -2.47318 0
M  V30 900 P 126.875 7.39546 -4.75277 0
M  V30 901 O 128.297 7.84798 -5.01039 0
M  V30 902 O 126.515 5.9812 -5.08098 0
M  V30 903 O 126.552 7.57503 -3.1866 0
M  V30 904 C 126.392 8.97357 -2.74833 0
M  V30 905 C 126.932 9.07548 -1.32709 0
M  V30 906 O 125.876 8.62072 -0.606159 0
M  V30 907 C 128.15 8.25383 -0.938334 0
M  V30 908 O 128.888 8.74577 0.146954 0
M  V30 909 C 127.481 6.8802 -0.712559 0
M  V30 910 O 128.28 6.1189 0.194655 0
M  V30 911 C 126.144 7.27966 -0.139777 0
M  V30 912 H 126.176 7.25354 0.961601 0
M  V30 913 H 127.359 6.32557 -1.65702 0
M  V30 914 H 128.843 8.19355 -1.79097 0
M  V30 915 H 127.149 10.1294 -1.10029 0
M  V30 916 H 126.959 9.64276 -3.41316 0
M  V30 917 H 125.329 9.25417 -2.76357 0
M  V30 918 H 127.968 6.25267 1.07847 0
M  V30 919 P 129.825 8.791 -1.02308e-13 0
M  V30 920 O 131.247 9.31096 0.027933 0
M  V30 921 O 129.465 7.77869 -1.04071 0
M  V30 922 O 129.502 8.09533 1.41463 0
M  V30 923 C 129.342 9.0349 2.53943 0
M  V30 924 C 129.882 8.35226 3.79016 0
M  V30 925 O 128.826 7.57992 4.15078 0
M  V30 926 C 131.1 7.45087 3.67298 0
M  V30 927 O 131.838 7.27796 4.85194 0
M  V30 928 C 130.431 6.17323 3.12027 0
M  V30 929 O 131.23 5.04231 3.47188 0
M  V30 930 C 129.094 6.19961 3.81809 0
M  V30 931 H 129.126 5.58218 4.73051 0
M  V30 932 H 130.309 6.21726 2.02589 0
M  V30 933 H 131.793 7.86112 2.9231 0
M  V30 934 H 130.099 9.11627 4.55076 0
M  V30 935 H 129.909 9.9573 2.34194 0
M  V30 936 H 128.279 9.2792 2.67832 0
M  V30 937 H 130.918 4.67702 4.28772 0
M  V30 938 P 132.776 7.39546 4.75277 0
M  V30 939 O 134.198 7.81777 5.05738 0
M  V30 940 O 132.416 7.1065 3.32998 0
M  V30 941 O 132.453 6.04542 5.56673 0
M  V30 942 C 132.293 6.22772 7.02095 0
M  V30 943 C 132.833 4.97725 7.70406 0
M  V30 944 O 131.777 4.13256 7.58987 0
M  V30 945 C 134.051 4.28231 7.11815 0
M  V30 946 O 134.789 3.49945 8.01648 0
M  V30 947 C 133.382 3.5063 5.96244 0
M  V30 948 O 134.181 2.36482 5.64681 0
M  V30 949 C 132.045 3.15122 6.56374 0
M  V30 950 H 132.077 2.13853 6.99751 0
M  V30 951 H 133.26 4.13501 5.06559 0
M  V30 952 H 134.744 5.03285 6.70911 0
M  V30 953 H 133.05 5.20877 8.75697 0
M  V30 954 H 132.86 7.11046 7.35349 0
M  V30 955 H 131.23 6.35815 7.26986 0
M  V30 956 H 133.869 1.61644 6.13565 0
M  V30 957 P 135.726 3.65191 7.99657 0
M  V30 958 O 137.148 3.8425 8.48115 0
M  V30 959 O 135.366 4.17805 6.64342 0
M  V30 960 O 135.403 2.07613 7.95143 0
M  V30 961 C 135.243 1.44328 9.27336 0
M  V30 962 C 135.783 0.0220036 9.17197 0
M  V30 963 O 134.727 -0.626867 8.61923 0
M  V30 964 C 137.001 -0.24586 8.30336 0
M  V30 965 O 137.739 -1.39011 8.63583 0
M  V30 966 C 136.332 -0.273849 6.91158 0
M  V30 967 O 137.131 -1.06348 6.02892 0
M  V30 968 C 134.995 -0.897649 7.22545 0
M  V30 969 H 135.027 -1.9841 7.04286 0
M  V30 970 H 136.21 0.739928 6.497 0
M  V30 971 H 137.694 0.60668 8.36503 0
M  V30 972 H 136 -0.352479 10.1829 0
M  V30 973 H 135.81 2.00611 10.0304 0
M  V30 974 H 134.18 1.41843 9.55327 0
M  V30 975 H 136.819 -1.95734 6.03555 0
M  V30 976 P 138.677 -1.25109 8.70152 0
M  V30 977 O 140.099 -1.35274 9.21221 0
M  V30 978 O 138.317 -0.0769065 7.84762 0
M  V30 979 O 138.354 -2.55232 7.81161 0
M  V30 980 C 138.194 -3.79939 8.58154 0
M  V30 981 C 138.734 -4.94023 7.72785 0
M  V30 982 O 137.678 -5.18726 6.91205 0
M  V30 983 C 139.952 -4.69597 6.85231 0
M  V30 984 O 140.69 -5.83832 6.51337 0
M  V30 985 C 139.283 -3.96706 5.66633 0
M  V30 986 O 140.082 -4.15414 4.49689 0
M  V30 987 C 137.946 -4.66153 5.59313 0
M  V30 988 H 137.978 -5.47679 4.85214 0
M  V30 989 H 139.161 -2.89008 5.86566 0
M  V30 990 H 140.645 -4.0121 7.36511 0
M  V30 991 H 138.951 -5.80182 8.37584 0
M  V30 992 H 138.761 -3.73517 9.52265 0
M  V30 993 H 137.131 -3.97163 8.80359 0
M  V30 994 H 139.77 -4.90969 4.01921 0
M  V30 995 P 141.627 -5.75688 6.64379 0
M  V30 996 O 143.049 -6.11849 7.01846 0
M  V30 997 O 141.267 -4.30744 6.56026 0
M  V30 998 O 141.304 -6.37042 5.19165 0
M  V30 999 C 141.144 -7.83578 5.16515 0
M  V30 1000 C 141.684 -8.33398 3.83019 0
M  V30 1001 O 140.628 -8.10074 3.01034 0
M  V30 1002 C 142.902 -7.65514 3.2257 0
M  V30 1003 O 143.64 -8.4329 2.32297 0
M  V30 1004 C 142.233 -6.40075 2.62207 0
M  V30 1005 O 143.032 -5.92589 1.53712 0
M  V30 1006 C 140.896 -6.9454 2.18503 0
M  V30 1007 H 140.928 -7.23063 1.12091 0
M  V30 1008 H 142.111 -5.6025 3.37201 0
M  V30 1009 H 143.595 -7.35707 4.02681 0
M  V30 1010 H 141.901 -9.40912 3.9095 0
M  V30 1011 H 141.711 -8.29056 5.99158 0
M  V30 1012 H 140.081 -8.10073 5.25882 0
M  V30 1013 H 142.72 -6.30324 0.726794 0
M  V30 1014 P 144.578 -8.4349 2.47671 0
M  V30 1015 O 146 -8.94167 2.5964 0
M  V30 1016 O 144.218 -7.1704 3.19006 0
M  V30 1017 O 144.255 -8.16596 0.923387 0
M  V30 1018 C 144.095 -9.38437 0.108857 0
M  V30 1019 C 144.635 -9.08175 -1.28353 0
M  V30 1020 O 143.579 -8.44229 -1.84713 0
M  V30 1021 C 145.853 -8.18386 -1.42505 0
M  V30 1022 O 146.591 -8.3501 -2.60497 0
M  V30 1023 C 145.184 -6.80225 -1.25468 0
M  V30 1024 O 145.983 -5.81621 -1.91066 0
M  V30 1025 C 143.847 -7.02416 -1.9168 0
M  V30 1026 H 143.879 -6.6888 -2.96621 0
M  V30 1027 H 145.062 -6.53617 -0.192223 0
M  V30 1028 H 146.546 -8.36622 -0.589963 0
M  V30 1029 H 144.852 -10.0291 -1.79807 0
M  V30 1030 H 144.662 -10.2138 0.558219 0
M  V30 1031 H 143.032 -9.6579 0.0444202 0
M  V30 1032 H 145.671 -5.69556 -2.79637 0
M  V30 1033 P 147.528 -8.4349 -2.47671 0
M  V30 1034 O 148.95 -8.92593 -2.65 0
M  V30 1035 O 147.168 -7.7568 -1.19296 0
M  V30 1036 O 147.205 -7.36886 -3.63805 0
M  V30 1037 C 147.045 -7.95349 -4.982 0
M  V30 1038 C 147.585 -6.94612 -5.98974 0
M  V30 1039 O 146.529 -6.10347 -6.11815 0
M  V30 1040 C 148.803 -6.11426 -5.62335 0
M  V30 1041 O 149.541 -5.6162 -6.70584 0
M  V30 1042 C 148.134 -5.04409 -4.73308 0
M  V30 1043 O 148.933 -3.85992 -4.75183 0
M  V30 1044 C 146.797 -4.8728 -5.41006 0
M  V30 1045 H 146.829 -4.02333 -6.11157 0
M  V30 1046 H 148.012 -5.39466 -3.69543 0
M  V30 1047 H 149.496 -6.71916 -5.01943 0
M  V30 1048 H 147.802 -7.4649 -6.93477 0
M  V30 1049 H 147.612 -8.89416 -5.05237 0
M  V30 1050 H 145.982 -8.14876 -5.18409 0
M  V30 1051 H 148.621 -3.27957 -5.4317 0
M  V30 1052 P 150.479 -5.75688 -6.64379 0
M  V30 1053 O 151.901 -6.07627 -7.05504 0
M  V30 1054 O 150.119 -5.88047 -5.19722 0
M  V30 1055 O 150.156 -4.2322 -7.04443 0
M  V30 1056 C 149.996 -3.99743 -8.4911 0
M  V30 1057 C 150.536 -2.60516 -8.79425 0
M  V30 1058 O 149.48 -1.82684 -8.4467 0
M  V30 1059 C 151.754 -2.10343 -8.03628 0
M  V30 1060 O 152.492 -1.09919 -8.67766 0
M  V30 1061 C 151.085 -1.68446 -6.70876 0
M  V30 1062 O 151.884 -0.678137 -6.08433 0
M  V30 1063 C 149.748 -1.17436 -7.18567 0
M  V30 1064 H 149.78 -0.0804732 -7.31656 0
M  V30 1065 H 150.963 -2.54037 -6.02537 0
M  V30 1066 H 152.447 -2.93881 -7.85526 0
M  V30 1067 H 150.753 -2.53065 -9.86973 0
M  V30 1068 H 150.563 -4.75072 -9.05887 0
M  V30 1069 H 148.933 -4.05244 -8.76668 0
M  V30 1070 H 151.572 0.177647 -6.34251 0
M  V30 1071 P 153.43 -1.25109 -8.70152 0
M  V30 1072 O 154.852 -1.29744 -9.22016 0
M  V30 1073 O 153.07 -2.13714 -7.55141 0
M  V30 1074 O 153.107 0.248149 -8.21425 0
M  V30 1075 C 152.947 1.22779 -9.30434 0
M  V30 1076 C 153.487 2.56293 -8.80664 0
M  V30 1077 O 152.431 3.02979 -8.09349 0
M  V30 1078 C 154.705 2.57523 -7.89775 0
M  V30 1079 O 155.443 3.7668 -7.89438 0
M  V30 1080 C 154.036 2.20997 -6.55446 0
M  V30 1081 O 154.835 2.71895 -5.48509 0
M  V30 1082 C 152.699 2.89693 -6.67988 0
M  V30 1083 H 152.731 3.88793 -6.19859 0
M  V30 1084 H 153.914 1.12046 -6.44229 0
M  V30 1085 H 155.398 1.7746 -8.19711 0
M  V30 1086 H 153.704 3.20706 -9.67112 0
M  V30 1087 H 153.514 0.901032 -10.1892 0
M  V30 1088 H 151.884 1.33049 -9.56592 0
M  V30 1089 H 154.523 3.57847 -5.23962 0
M  V30 1090 P 156.38 3.65191 -7.99657 0
M  V30 1091 O 157.802 3.89332 -8.45794 0
M  V30 1092 O 156.02 2.28472 -7.50807 0
M  V30 1093 O 156.057 4.64972 -6.77611 0
M  V30 1094 C 155.897 6.06319 -7.16352 0
M  V30 1095 C 156.437 6.91731 -6.02299 0
M  V30 1096 O 155.381 6.92449 -5.17064 0
M  V30 1097 C 157.655 6.43627 -5.25174 0
M  V30 1098 O 158.393 7.43686 -4.60469 0
M  V30 1099 C 156.986 5.40275 -4.31916 0
M  V30 1100 O 157.785 5.25279 -3.14438 0
M  V30 1101 C 155.649 6.04847 -4.05327 0
M  V30 1102 H 155.681 6.62195 -3.11261 0
M  V30 1103 H 156.864 4.42556 -4.81383 0
M  V30 1104 H 158.348 5.92458 -5.93643 0
M  V30 1105 H 156.654 7.92655 -6.402 0
M  V30 1106 H 156.464 6.26671 -8.0846 0
M  V30 1107 H 154.834 6.29101 -7.32804 0
M  V30 1108 H 157.473 5.84315 -2.47318 0
M  V30 1109 P 159.331 7.39546 -4.75277 0
M  V30 1110 O 160.753 7.84798 -5.01039 0
M  V30 1111 O 158.971 5.9812 -5.08098 0
M  V30 1112 O 159.008 7.57503 -3.1866 0
M  V30 1113 C 158.848 8.97357 -2.74833 0
M  V30 1114 C 159.388 9.07548 -1.32709 0
M  V30 1115 O 158.332 8.62072 -0.606159 0
M  V30 1116 C 160.606 8.25383 -0.938334 0
M  V30 1117 O 161.344 8.74577 0.146954 0
M  V30 1118 C 159.937 6.8802 -0.712559 0
M  V30 1119 O 160.736 6.1189 0.194655 0
M  V30 1120 C 158.6 7.27966 -0.139777 0
M  V30 1121 H 158.632 7.25354 0.961601 0
M  V30 1122 H 159.815 6.32557 -1.65702 0
M  V30 1123 H 161.299 8.19355 -1.79097 0
M  V30 1124 H 159.605 10.1294 -1.10029 0
M  V30 1125 H 159.415 9.64276 -3.41316 0
M  V30 1126 H 157.785 9.25417 -2.76357 0
M  V30 1127 H 160.424 6.25267 1.07847 0
M  V30 1128 P 162.281 8.791 -1.35693e-13 0
M  V30 1129 O 163.703 9.31096 0.027933 0
M  V30 1130 O 161.921 7.77869 -1.04071 0
M  V30 1131 O 161.958 8.09533 1.41463 0
M  V30 1132 C 161.798 9.0349 2.53943 0
M  V30 1133 C 162.338 8.35226 3.79016 0
M  V30 1134 O 161.282 7.57992 4.15078 0
M  V30 1135 C 163.556 7.45087 3.67298 0
M  V30 1136 O 164.294 7.27796 4.85194 0
M  V30 1137 C 162.887 6.17323 3.12027 0
M  V30 1138 O 163.686 5.04231 3.47188 0
M  V30 1139 C 161.55 6.19961 3.81809 0
M  V30 1140 H 161.582 5.58218 4.73051 0
M  V30 1141 H 162.765 6.21726 2.02589 0
M  V30 1142 H 164.249 7.86112 2.9231 0
M  V30 1143 H 162.555 9.11627 4.55076 0
M  V30 1144 H 162.365 9.9573 2.34194 0
M  V30 1145 H 160.735 9.2792 2.67832 0
M  V30 1146 H 163.374 4.67702 4.28772 0
M  V30 1147 P 165.232 7.39546 4.75277 0
M  V30 1148 O 166.654 7.81777 5.05738 0
M  V30 1149 O 164.872 7.1065 3.32998 0
M  V30 1150 O 164.909 6.04542 5.56673 0
M  V30 1151 C 164.749 6.22772 7.02095 0
M  V30 1152 C 165.289 4.97725 7.70406 0
M  V30 1153 O 164.233 4.13256 7.58987 0
M  V30 1154 C 166.507 4.28231 7.11815 0
M  V30 1155 O 167.245 3.49945 8.01648 0
M  V30 1156 C 165.838 3.5063 5.96244 0
M  V30 1157 O 166.637 2.36482 5.64681 0
M  V30 1158 C 164.501 3.15122 6.56374 0
M  V30 1159 H 164.533 2.13853 6.99751 0
M  V30 1160 H 165.716 4.13501 5.06559 0
M  V30 1161 H 167.2 5.03285 6.70911 0
M  V30 1162 H 165.506 5.20877 8.75697 0
M  V30 1163 H 165.316 7.11046 7.35349 0
M  V30 1164 H 163.686 6.35815 7.26986 0
M  V30 1165 H 166.325 1.61644 6.13565 0
M  V30 1166 P 168.182 3.65191 7.99657 0
M  V30 1167 O 169.604 3.84333 8.48297 0
M  V30 1168 O 167.822 4.17805 6.64342 0
M  V30 1169 O 167.859 2.07613 7.95143 0
M  V30 1170 C 167.699 1.44328 9.27336 0
M  V30 1171 C 168.239 0.0220012 9.17097 0
M  V30 1172 O 167.184 -0.626867 8.61923 0
M  V30 1173 C 169.457 -0.24586 8.30336 0
M  V30 1174 O 170.195 -1.39011 8.63583 0
M  V30 1175 C 168.789 -0.273849 6.91158 0
M  V30 1176 O 169.587 -1.06331 6.02794 0
M  V30 1177 C 167.451 -0.897649 7.22545 0
M  V30 1178 N 166.408 -0.292839 6.41732 0
M  V30 1179 C 166.47 1.00068 6.10757 0
M  V30 1180 N 165.425 1.36468 5.35794 0
M  V30 1181 C 164.691 0.258894 5.2366 0
M  V30 1182 C 163.385 0.0670682 4.65752 0
M  V30 1183 O 162.652 0.902443 4.10497 0
M  V30 1184 N 162.955 -1.2131 4.75881 0
M  V30 1185 C 163.704 -2.24934 5.37101 0
M  V30 1186 N 163.107 -3.48783 5.33984 0
M  V30 1187 N 164.857 -2.0844 5.95684 0
M  V30 1188 C 165.314 -0.81395 5.87791 0
M  V30 1189 H 167.483 -1.9841 7.04286 0
M  V30 1190 H 168.666 0.739815 6.49601 0
M  V30 1191 H 170.151 0.598315 8.36563 0
M  V30 1192 H 168.456 -0.352479 10.1829 0
M  V30 1193 H 168.266 2.00611 10.0304 0
M  V30 1194 H 166.635 1.41843 9.55327 0
M  V30 1195 H 162.059 -1.44434 4.37895 0
M  V30 1196 H 167.266 1.67697 6.42268 0
M  V30 1197 H 162.196 -3.60543 4.87699 0
M  V30 1198 H 163.572 -4.29232 5.7819 0
M  V30 1199 H 169.276 -1.95704 6.0346 0
M  V30 1200 P 171.133 -1.25109 8.70152 0
M  V30 1201 O 172.555 -1.35274 9.21221 0
M  V30 1202 O 170.773 -0.0769065 7.84762 0
M  V30 1203 O 170.81 -2.55232 7.81161 0
M  V30 1204 C 170.65 -3.79939 8.58154 0
M  V30 1205 C 171.19 -4.94023 7.72785 0
M  V30 1206 O 170.134 -5.18726 6.91205 0
M  V30 1207 C 172.408 -4.69597 6.85231 0
M  V30 1208 O 173.146 -5.83832 6.51337 0
M  V30 1209 C 171.739 -3.96706 5.66633 0
M  V30 1210 O 172.538 -4.15414 4.49689 0
M  V30 1211 C 170.402 -4.66153 5.59313 0
M  V30 1212 H 170.434 -5.47679 4.85214 0
M  V30 1213 H 171.617 -2.89008 5.86566 0
M  V30 1214 H 173.101 -4.0121 7.36511 0
M  V30 1215 H 171.407 -5.80182 8.37584 0
M  V30 1216 H 171.217 -3.73517 9.52265 0
M  V30 1217 H 169.587 -3.97163 8.80359 0
M  V30 1218 H 172.226 -4.90969 4.01921 0
M  V30 1219 P 174.084 -5.75688 6.64379 0
M  V30 1220 O 175.506 -6.11981 7.01997 0
M  V30 1221 O 173.724 -4.30744 6.56026 0
M  V30 1222 O 173.761 -6.37042 5.19165 0
M  V30 1223 C 173.601 -7.83578 5.16515 0
M  V30 1224 C 174.141 -8.33307 3.82977 0
M  V30 1225 O 173.086 -8.10074 3.01034 0
M  V30 1226 C 175.359 -7.65514 3.2257 0
M  V30 1227 O 176.097 -8.4329 2.32297 0
M  V30 1228 C 174.691 -6.40075 2.62207 0
M  V30 1229 O 175.489 -5.92492 1.53687 0
M  V30 1230 C 173.353 -6.9454 2.18503 0
M  V30 1231 N 172.31 -5.95905 2.39948 0
M  V30 1232 C 172.372 -5.13994 3.44742 0
M  V30 1233 N 171.327 -4.30684 3.46712 0
M  V30 1234 C 170.593 -4.65583 2.41086 0
M  V30 1235 C 169.287 -4.20877 1.99581 0
M  V30 1236 O 168.554 -3.35913 2.52616 0
M  V30 1237 N 168.857 -4.83271 0.873406 0
M  V30 1238 C 169.606 -5.82006 0.185129 0
M  V30 1239 N 169.009 -6.30619 -0.95439 0
M  V30 1240 N 170.759 -6.28443 0.578524 0
M  V30 1241 C 171.216 -5.68486 1.70138 0
M  V30 1242 H 173.385 -7.23063 1.12091 0
M  V30 1243 H 174.568 -5.60165 3.3715 0
M  V30 1244 H 176.053 -7.3611 4.01946 0
M  V30 1245 H 174.358 -9.40912 3.9095 0
M  V30 1246 H 174.168 -8.29056 5.99158 0
M  V30 1247 H 172.537 -8.10073 5.25882 0
M  V30 1248 H 167.961 -4.58323 0.505262 0
M  V30 1249 H 173.168 -5.14564 4.1935 0
M  V30 1250 H 168.098 -5.93402 -1.25364 0
M  V30 1251 H 169.474 -7.0425 -1.50254 0
M  V30 1252 H 175.178 -6.30224 0.72668 0
M  V30 1253 P 177.034 -8.4349 2.47671 0
M  V30 1254 O 178.456 -8.94167 2.5964 0
M  V30 1255 O 176.674 -7.1704 3.19006 0
M  V30 1256 O 176.711 -8.16596 0.923387 0
M  V30 1257 C 176.551 -9.38437 0.108857 0
M  V30 1258 C 177.091 -9.08175 -1.28353 0
M  V30 1259 O 176.035 -8.44229 -1.84713 0
M  V30 1260 C 178.309 -8.18386 -1.42505 0
M  V30 1261 O 179.047 -8.3501 -2.60497 0
M  V30 1262 C 177.64 -6.80225 -1.25468 0
M  V30 1263 O 178.439 -5.81621 -1.91066 0
M  V30 1264 C 176.303 -7.02416 -1.9168 0
M  V30 1265 H 176.335 -6.6888 -2.96621 0
M  V30 1266 H 177.518 -6.53617 -0.192223 0
M  V30 1267 H 179.002 -8.36622 -0.589963 0
M  V30 1268 H 177.308 -10.0291 -1.79807 0
M  V30 1269 H 177.118 -10.2138 0.558219 0
M  V30 1270 H 175.488 -9.6579 0.0444202 0
M  V30 1271 H 178.127 -5.69556 -2.79637 0
M  V30 1272 P 179.985 -8.4349 -2.47671 0
M  V30 1273 O 181.407 -8.92593 -2.65 0
M  V30 1274 O 179.625 -7.7568 -1.19296 0
M  V30 1275 O 179.662 -7.36886 -3.63805 0
M  V30 1276 C 179.502 -7.95349 -4.982 0
M  V30 1277 C 180.042 -6.94612 -5.98974 0
M  V30 1278 O 178.986 -6.10347 -6.11815 0
M  V30 1279 C 181.26 -6.11426 -5.62335 0
M  V30 1280 O 181.998 -5.6162 -6.70584 0
M  V30 1281 C 180.591 -5.04409 -4.73308 0
M  V30 1282 O 181.39 -3.85992 -4.75183 0
M  V30 1283 C 179.254 -4.8728 -5.41006 0
M  V30 1284 H 179.286 -4.02333 -6.11157 0
M  V30 1285 H 180.469 -5.39466 -3.69543 0
M  V30 1286 H 181.953 -6.71916 -5.01943 0
M  V30 1287 H 180.259 -7.4649 -6.93477 0
M  V30 1288 H 180.069 -8.89416 -5.05237 0
M  V30 1289 H 178.439 -8.14876 -5.18409 0
M  V30 1290 H 181.078 -3.27957 -5.4317 0
M  V30 1291 P 182.935 -5.75688 -6.64379 0
M  V30 1292 O 184.357 -6.07627 -7.05504 0
M  V30 1293 O 182.575 -5.88047 -5.19722 0
M  V30 1294 O 182.612 -4.2322 -7.04443 0
M  V30 1295 C 182.452 -3.99743 -8.4911 0
M  V30 1296 C 182.992 -2.60516 -8.79425 0
M  V30 1297 O 181.936 -1.82684 -8.4467 0
M  V30 1298 C 184.21 -2.10343 -8.03628 0
M  V30 1299 O 184.948 -1.09919 -8.67766 0
M  V30 1300 C 183.541 -1.68446 -6.70876 0
M  V30 1301 O 184.34 -0.678137 -6.08433 0
M  V30 1302 C 182.204 -1.17436 -7.18567 0
M  V30 1303 H 182.236 -0.0804732 -7.31656 0
M  V30 1304 H 183.419 -2.54037 -6.02537 0
M  V30 1305 H 184.903 -2.93881 -7.85526 0
M  V30 1306 H 183.209 -2.53065 -9.86973 0
M  V30 1307 H 183.019 -4.75072 -9.05887 0
M  V30 1308 H 181.389 -4.05244 -8.76668 0
M  V30 1309 H 184.028 0.177647 -6.34251 0
M  V30 1310 P 185.886 -1.25109 -8.70152 0
M  V30 1311 O 187.308 -1.29744 -9.22016 0
M  V30 1312 O 185.526 -2.13714 -7.55141 0
M  V30 1313 O 185.563 0.248149 -8.21425 0
M  V30 1314 C 185.403 1.22779 -9.30434 0
M  V30 1315 C 185.943 2.56293 -8.80664 0
M  V30 1316 O 184.887 3.02979 -8.09349 0
M  V30 1317 C 187.161 2.57523 -7.89775 0
M  V30 1318 O 187.899 3.7668 -7.89438 0
M  V30 1319 C 186.492 2.20997 -6.55446 0
M  V30 1320 O 187.291 2.71895 -5.48509 0
M  V30 1321 C 185.155 2.89693 -6.67988 0
M  V30 1322 H 185.187 3.88793 -6.19859 0
M  V30 1323 H 186.37 1.12046 -6.44229 0
M  V30 1324 H 187.854 1.7746 -8.19711 0
M  V30 1325 H 186.16 3.20706 -9.67112 0
M  V30 1326 H 185.97 0.901032 -10.1892 0
M  V30 1327 H 184.34 1.33049 -9.56592 0
M  V30 1328 H 186.979 3.57847 -5.23962 0
M  V30 1329 P 188.836 3.65191 -7.99657 0
M  V30 1330 O 190.258 3.89332 -8.45794 0
M  V30 1331 O 188.476 2.28472 -7.50807 0
M  V30 1332 O 188.513 4.64972 -6.77611 0
M  V30 1333 C 188.353 6.06319 -7.16352 0
M  V30 1334 C 188.893 6.91731 -6.02299 0
M  V30 1335 O 187.837 6.92449 -5.17064 0
M  V30 1336 C 190.111 6.43627 -5.25174 0
M  V30 1337 O 190.849 7.43686 -4.60469 0
M  V30 1338 C 189.442 5.40275 -4.31916 0
M  V30 1339 O 190.241 5.25279 -3.14438 0
M  V30 1340 C 188.105 6.04847 -4.05327 0
M  V30 1341 H 188.137 6.62195 -3.11261 0
M  V30 1342 H 189.32 4.42556 -4.81383 0
M  V30 1343 H 190.804 5.92458 -5.93643 0
M  V30 1344 H 189.11 7.92655 -6.402 0
M  V30 1345 H 188.92 6.26671 -8.0846 0
M  V30 1346 H 187.29 6.29101 -7.32804 0
M  V30 1347 H 189.929 5.84315 -2.47318 0
M  V30 1348 P 191.787 7.39546 -4.75277 0
M  V30 1349 O 193.209 7.84798 -5.01039 0
M  V30 1350 O 191.427 5.9812 -5.08098 0
M  V30 1351 O 191.464 7.57503 -3.1866 0
M  V30 1352 C 191.304 8.97357 -2.74833 0
M  V30 1353 C 191.844 9.07548 -1.32709 0
M  V30 1354 O 190.788 8.62072 -0.606159 0
M  V30 1355 C 193.062 8.25383 -0.938334 0
M  V30 1356 O 193.8 8.74577 0.146954 0
M  V30 1357 C 192.393 6.8802 -0.712559 0
M  V30 1358 O 193.192 6.1189 0.194655 0
M  V30 1359 C 191.056 7.27966 -0.139777 0
M  V30 1360 H 191.088 7.25354 0.961601 0
M  V30 1361 H 192.271 6.32557 -1.65702 0
M  V30 1362 H 193.755 8.19355 -1.79097 0
M  V30 1363 H 192.061 10.1294 -1.10029 0
M  V30 1364 H 191.871 9.64276 -3.41316 0
M  V30 1365 H 190.241 9.25417 -2.76357 0
M  V30 1366 H 192.88 6.25267 1.07847 0
M  V30 1367 P 194.738 8.791 1.12009e-13 0
M  V30 1368 O 196.16 9.31096 0.027933 0
M  V30 1369 O 194.378 7.77869 -1.04071 0
M  V30 1370 O 194.415 8.09533 1.41463 0
M  V30 1371 C 194.255 9.0349 2.53943 0
M  V30 1372 C 194.795 8.35226 3.79016 0
M  V30 1373 O 193.739 7.57992 4.15078 0
M  V30 1374 C 196.013 7.45087 3.67298 0
M  V30 1375 O 196.751 7.27796 4.85194 0
M  V30 1376 C 195.344 6.17323 3.12027 0
M  V30 1377 O 196.143 5.04231 3.47188 0
M  V30 1378 C 194.007 6.19961 3.81809 0
M  V30 1379 H 194.039 5.58218 4.73051 0
M  V30 1380 H 195.222 6.21726 2.02589 0
M  V30 1381 H 196.706 7.86112 2.9231 0
M  V30 1382 H 195.012 9.11627 4.55076 0
M  V30 1383 H 194.822 9.9573 2.34194 0
M  V30 1384 H 193.192 9.2792 2.67832 0
M  V30 1385 H 195.831 4.67702 4.28772 0
M  V30 1386 P 197.688 7.39546 4.75277 0
M  V30 1387 O 199.11 7.81777 5.05738 0
M  V30 1388 O 197.328 7.1065 3.32998 0
M  V30 1389 O 197.365 6.04542 5.56673 0
M  V30 1390 C 197.205 6.22772 7.02095 0
M  V30 1391 C 197.745 4.97725 7.70406 0
M  V30 1392 O 196.689 4.13256 7.58987 0
M  V30 1393 C 198.963 4.28231 7.11815 0
M  V30 1394 O 199.701 3.49945 8.01648 0
M  V30 1395 C 198.294 3.5063 5.96244 0
M  V30 1396 O 199.093 2.36482 5.64681 0
M  V30 1397 C 196.957 3.15122 6.56374 0
M  V30 1398 H 196.989 2.13853 6.99751 0
M  V30 1399 H 198.172 4.13501 5.06559 0
M  V30 1400 H 199.656 5.03285 6.70911 0
M  V30 1401 H 197.962 5.20877 8.75697 0
M  V30 1402 H 197.772 7.11046 7.35349 0
M  V30 1403 H 196.142 6.35815 7.26986 0
M  V30 1404 H 198.781 1.61644 6.13565 0
M  V30 1405 P 200.639 3.65191 7.99657 0
M  V30 1406 O 202.061 3.8425 8.48115 0
M  V30 1407 O 200.279 4.17805 6.64342 0
M  V30 1408 O 200.316 2.07613 7.95143 0
M  V30 1409 C 200.156 1.44328 9.27336 0
M  V30 1410 C 200.696 0.0220036 9.17197 0
M  V30 1411 O 199.64 -0.626867 8.61923 0
M  V30 1412 C 201.914 -0.24586 8.30336 0
M  V30 1413 O 202.652 -1.39011 8.63583 0
M  V30 1414 C 201.245 -0.273849 6.91158 0
M  V30 1415 O 202.044 -1.06348 6.02892 0
M  V30 1416 C 199.908 -0.897649 7.22545 0
M  V30 1417 H 199.94 -1.9841 7.04286 0
M  V30 1418 H 201.123 0.739928 6.497 0
M  V30 1419 H 202.607 0.60668 8.36503 0
M  V30 1420 H 200.913 -0.352479 10.1829 0
M  V30 1421 H 200.723 2.00611 10.0304 0
M  V30 1422 H 199.093 1.41843 9.55327 0
M  V30 1423 H 201.732 -1.95734 6.03555 0
M  V30 1424 P 203.589 -1.25109 8.70152 0
M  V30 1425 O 205.011 -1.35274 9.21221 0
M  V30 1426 O 203.229 -0.0769065 7.84762 0
M  V30 1427 O 203.266 -2.55232 7.81161 0
M  V30 1428 C 203.106 -3.79939 8.58154 0
M  V30 1429 C 203.646 -4.94023 7.72785 0
M  V30 1430 O 202.59 -5.18726 6.91205 0
M  V30 1431 C 204.864 -4.69597 6.85231 0
M  V30 1432 O 205.602 -5.83832 6.51337 0
M  V30 1433 C 204.195 -3.96706 5.66633 0
M  V30 1434 O 204.994 -4.15414 4.49689 0
M  V30 1435 C 202.858 -4.66153 5.59313 0
M  V30 1436 H 202.89 -5.47679 4.85214 0
M  V30 1437 H 204.073 -2.89008 5.86566 0
M  V30 1438 H 205.557 -4.0121 7.36511 0
M  V30 1439 H 203.863 -5.80182 8.37584 0
M  V30 1440 H 203.673 -3.73517 9.52265 0
M  V30 1441 H 202.043 -3.97163 8.80359 0
M  V30 1442 H 204.682 -4.90969 4.01921 0
M  V30 1443 P 206.54 -5.75688 6.64379 0
M  V30 1444 O 207.962 -6.11849 7.01846 0
M  V30 1445 O 206.18 -4.30744 6.56026 0
M  V30 1446 O 206.217 -6.37042 5.19165 0
M  V30 1447 C 206.057 -7.83578 5.16515 0
M  V30 1448 C 206.597 -8.33398 3.83019 0
M  V30 1449 O 205.541 -8.10074 3.01034 0
M  V30 1450 C 207.815 -7.65514 3.2257 0
M  V30 1451 O 208.553 -8.4329 2.32297 0
M  V30 1452 C 207.146 -6.40075 2.62207 0
M  V30 1453 O 207.945 -5.92589 1.53712 0
M  V30 1454 C 205.809 -6.9454 2.18503 0
M  V30 1455 H 205.841 -7.23063 1.12091 0
M  V30 1456 H 207.024 -5.6025 3.37201 0
M  V30 1457 H 208.508 -7.35707 4.02681 0
M  V30 1458 H 206.814 -9.40912 3.9095 0
M  V30 1459 H 206.624 -8.29056 5.99158 0
M  V30 1460 H 204.994 -8.10073 5.25882 0
M  V30 1461 H 207.633 -6.30324 0.726794 0
M  V30 1462 P 209.49 -8.4349 2.47671 0
M  V30 1463 O 210.912 -8.94167 2.5964 0
M  V30 1464 O 209.13 -7.1704 3.19006 0
M  V30 1465 O 209.167 -8.16596 0.923387 0
M  V30 1466 C 209.007 -9.38437 0.108857 0
M  V30 1467 C 209.547 -9.08175 -1.28353 0
M  V30 1468 O 208.491 -8.44229 -1.84713 0
M  V30 1469 C 210.765 -8.18386 -1.42505 0
M  V30 1470 O 211.503 -8.3501 -2.60497 0
M  V30 1471 C 210.096 -6.80225 -1.25468 0
M  V30 1472 O 210.895 -5.81621 -1.91066 0
M  V30 1473 C 208.759 -7.02416 -1.9168 0
M  V30 1474 H 208.791 -6.6888 -2.96621 0
M  V30 1475 H 209.974 -6.53617 -0.192223 0
M  V30 1476 H 211.458 -8.36622 -0.589963 0
M  V30 1477 H 209.764 -10.0291 -1.79807 0
M  V30 1478 H 209.574 -10.2138 0.558219 0
M  V30 1479 H 207.944 -9.6579 0.0444202 0
M  V30 1480 H 210.583 -5.69556 -2.79637 0
M  V30 1481 P 212.441 -8.4349 -2.47671 0
M  V30 1482 O 213.863 -8.92593 -2.65 0
M  V30 1483 O 212.081 -7.7568 -1.19296 0
M  V30 1484 O 212.118 -7.36886 -3.63805 0
M  V30 1485 C 211.958 -7.95349 -4.982 0
M  V30 1486 C 212.498 -6.94612 -5.98974 0
M  V30 1487 O 211.442 -6.10347 -6.11815 0
M  V30 1488 C 213.716 -6.11426 -5.62335 0
M  V30 1489 O 214.454 -5.6162 -6.70584 0
M  V30 1490 C 213.047 -5.04409 -4.73308 0
M  V30 1491 O 213.846 -3.85992 -4.75183 0
M  V30 1492 C 211.71 -4.8728 -5.41006 0
M  V30 1493 H 211.742 -4.02333 -6.11157 0
M  V30 1494 H 212.925 -5.39466 -3.69543 0
M  V30 1495 H 214.409 -6.71916 -5.01943 0
M  V30 1496 H 212.715 -7.4649 -6.93477 0
M  V30 1497 H 212.525 -8.89416 -5.05237 0
M  V30 1498 H 210.895 -8.14876 -5.18409 0
M  V30 1499 H 213.534 -3.27957 -5.4317 0
M  V30 1500 P 215.392 -5.75688 -6.64379 0
M  V30 1501 O 216.814 -6.07627 -7.05504 0
M  V30 1502 O 215.032 -5.88047 -5.19722 0
M  V30 1503 O 215.069 -4.2322 -7.04443 0
M  V30 1504 C 214.909 -3.99743 -8.4911 0
M  V30 1505 C 215.449 -2.60516 -8.79425 0
M  V30 1506 O 214.393 -1.82684 -8.4467 0
M  V30 1507 C 216.667 -2.10343 -8.03628 0
M  V30 1508 O 217.405 -1.09919 -8.67766 0
M  V30 1509 C 215.998 -1.68446 -6.70876 0
M  V30 1510 O 216.797 -0.678137 -6.08433 0
M  V30 1511 C 214.661 -1.17436 -7.18567 0
M  V30 1512 H 214.693 -0.0804732 -7.31656 0
M  V30 1513 H 215.876 -2.54037 -6.02537 0
M  V30 1514 H 217.36 -2.93881 -7.85526 0
M  V30 1515 H 215.666 -2.53065 -9.86973 0
M  V30 1516 H 215.476 -4.75072 -9.05887 0
M  V30 1517 H 213.846 -4.05244 -8.76668 0
M  V30 1518 H 216.485 0.177647 -6.34251 0
M  V30 1519 P 218.342 -1.25109 -8.70152 0
M  V30 1520 O 219.764 -1.29744 -9.22016 0
M  V30 1521 O 217.982 -2.13714 -7.55141 0
M  V30 1522 O 218.019 0.248149 -8.21425 0
M  V30 1523 C 217.859 1.22779 -9.30434 0
M  V30 1524 C 218.399 2.56293 -8.80664 0
M  V30 1525 O 217.343 3.02979 -8.09349 0
M  V30 1526 C 219.617 2.57523 -7.89775 0
M  V30 1527 O 220.355 3.7668 -7.89438 0
M  V30 1528 C 218.948 2.20997 -6.55446 0
M  V30 1529 O 219.747 2.71895 -5.48509 0
M  V30 1530 C 217.611 2.89693 -6.67988 0
M  V30 1531 H 217.643 3.88793 -6.19859 0
M  V30 1532 H 218.826 1.12046 -6.44229 0
M  V30 1533 H 220.31 1.7746 -8.19711 0
M  V30 1534 H 218.616 3.20706 -9.67112 0
M  V30 1535 H 218.426 0.901032 -10.1892 0
M  V30 1536 H 216.796 1.33049 -9.56592 0
M  V30 1537 H 219.435 3.57847 -5.23962 0
M  V30 1538 P 221.293 3.65191 -7.99657 0
M  V30 1539 O 222.715 3.89332 -8.45794 0
M  V30 1540 O 220.933 2.28472 -7.50807 0
M  V30 1541 O 220.97 4.64972 -6.77611 0
M  V30 1542 C 220.81 6.06319 -7.16352 0
M  V30 1543 C 221.35 6.91731 -6.02299 0
M  V30 1544 O 220.294 6.92449 -5.17064 0
M  V30 1545 C 222.568 6.43627 -5.25174 0
M  V30 1546 O 223.306 7.43686 -4.60469 0
M  V30 1547 C 221.899 5.40275 -4.31916 0
M  V30 1548 O 222.698 5.25279 -3.14438 0
M  V30 1549 C 220.562 6.04847 -4.05327 0
M  V30 1550 H 220.594 6.62195 -3.11261 0
M  V30 1551 H 221.777 4.42556 -4.81383 0
M  V30 1552 H 223.261 5.92458 -5.93643 0
M  V30 1553 H 221.567 7.92655 -6.402 0
M  V30 1554 H 221.377 6.26671 -8.0846 0
M  V30 1555 H 219.747 6.29101 -7.32804 0
M  V30 1556 H 222.386 5.84315 -2.47318 0
M  V30 1557 P 224.243 7.39546 -4.75277 0
M  V30 1558 O 225.665 7.84798 -5.01039 0
M  V30 1559 O 223.883 5.9812 -5.08098 0
M  V30 1560 O 223.92 7.57503 -3.1866 0
M  V30 1561 C 223.76 8.97357 -2.74833 0
M  V30 1562 C 224.3 9.07548 -1.32709 0
M  V30 1563 O 223.244 8.62072 -0.606159 0
M  V30 1564 C 225.518 8.25383 -0.938334 0
M  V30 1565 O 226.256 8.74577 0.146954 0
M  V30 1566 C 224.849 6.8802 -0.712559 0
M  V30 1567 O 225.648 6.1189 0.194655 0
M  V30 1568 C 223.512 7.27966 -0.139777 0
M  V30 1569 H 223.544 7.25354 0.961601 0
M  V30 1570 H 224.727 6.32557 -1.65702 0
M  V30 1571 H 226.211 8.19355 -1.79097 0
M  V30 1572 H 224.517 10.1294 -1.10029 0
M  V30 1573 H 224.327 9.64276 -3.41316 0
M  V30 1574 H 222.697 9.25417 -2.76357 0
M  V30 1575 H 225.336 6.25267 1.07847 0
M  V30 1576 P 227.194 8.791 4.22174e-13 0
M  V30 1577 O 228.616 9.31096 0.027933 0
M  V30 1578 O 226.834 7.77869 -1.04071 0
M  V30 1579 O 226.871 8.09533 1.41463 0
M  V30 1580 C 226.711 9.0349 2.53943 0
M  V30 1581 C 227.251 8.35226 3.79016 0
M  V30 1582 O 226.195 7.57992 4.15078 0
M  V30 1583 C 228.469 7.45087 3.67298 0
M  V30 1584 O 229.207 7.27796 4.85194 0
M  V30 1585 C 227.8 6.17323 3.12027 0
M  V30 1586 O 228.599 5.04231 3.47188 0
M  V30 1587 C 226.463 6.19961 3.81809 0
M  V30 1588 H 226.495 5.58218 4.73051 0
M  V30 1589 H 227.678 6.21726 2.02589 0
M  V30 1590 H 229.162 7.86112 2.9231 0
M  V30 1591 H 227.468 9.11627 4.55076 0
M  V30 1592 H 227.278 9.9573 2.34194 0
M  V30 1593 H 225.648 9.2792 2.67832 0
M  V30 1594 H 228.287 4.67702 4.28772 0
M  V30 1595 P 230.144 7.39546 4.75277 0
M  V30 1596 O 231.566 7.81777 5.05738 0
M  V30 1597 O 229.784 7.1065 3.32998 0
M  V30 1598 O 229.821 6.04542 5.56673 0
M  V30 1599 C 229.661 6.22772 7.02095 0
M  V30 1600 C 230.201 4.97725 7.70406 0
M  V30 1601 O 229.145 4.13256 7.58987 0
M  V30 1602 C 231.419 4.28231 7.11815 0
M  V30 1603 O 232.157 3.49945 8.01648 0
M  V30 1604 C 230.75 3.5063 5.96244 0
M  V30 1605 O 231.549 2.36482 5.64681 0
M  V30 1606 C 229.413 3.15122 6.56374 0
M  V30 1607 H 229.445 2.13853 6.99751 0
M  V30 1608 H 230.628 4.13501 5.06559 0
M  V30 1609 H 232.112 5.03285 6.70911 0
M  V30 1610 H 230.418 5.20877 8.75697 0
M  V30 1611 H 230.228 7.11046 7.35349 0
M  V30 1612 H 228.598 6.35815 7.26986 0
M  V30 1613 H 231.237 1.61644 6.13565 0
M  V30 1614 P 233.095 3.65191 7.99657 0
M  V30 1615 O 234.517 3.8425 8.48115 0
M  V30 1616 O 232.735 4.17805 6.64342 0
M  V30 1617 O 232.772 2.07613 7.95143 0
M  V30 1618 C 232.612 1.44328 9.27336 0
M  V30 1619 C 233.152 0.0220036 9.17197 0
M  V30 1620 O 232.096 -0.626867 8.61923 0
M  V30 1621 C 234.37 -0.24586 8.30336 0
M  V30 1622 O 235.108 -1.39011 8.63583 0
M  V30 1623 C 233.701 -0.273849 6.91158 0
M  V30 1624 O 234.5 -1.06348 6.02892 0
M  V30 1625 C 232.364 -0.897649 7.22545 0
M  V30 1626 H 232.396 -1.9841 7.04286 0
M  V30 1627 H 233.579 0.739928 6.497 0
M  V30 1628 H 235.063 0.60668 8.36503 0
M  V30 1629 H 233.369 -0.352479 10.1829 0
M  V30 1630 H 233.179 2.00611 10.0304 0
M  V30 1631 H 231.549 1.41843 9.55327 0
M  V30 1632 H 234.188 -1.95734 6.03555 0
M  V30 1633 P 236.046 -1.25109 8.70152 0
M  V30 1634 O 237.468 -1.35274 9.21221 0
M  V30 1635 O 235.686 -0.0769065 7.84762 0
M  V30 1636 O 235.723 -2.55232 7.81161 0
M  V30 1637 C 235.563 -3.79939 8.58154 0
M  V30 1638 C 236.103 -4.94023 7.72785 0
M  V30 1639 O 235.047 -5.18726 6.91205 0
M  V30 1640 C 237.321 -4.69597 6.85231 0
M  V30 1641 O 238.059 -5.83832 6.51337 0
M  V30 1642 C 236.652 -3.96706 5.66633 0
M  V30 1643 O 237.451 -4.15414 4.49689 0
M  V30 1644 C 235.315 -4.66153 5.59313 0
M  V30 1645 H 235.347 -5.47679 4.85214 0
M  V30 1646 H 236.53 -2.89008 5.86566 0
M  V30 1647 H 238.014 -4.0121 7.36511 0
M  V30 1648 H 236.32 -5.80182 8.37584 0
M  V30 1649 H 236.13 -3.73517 9.52265 0
M  V30 1650 H 234.5 -3.97163 8.80359 0
M  V30 1651 H 237.139 -4.90969 4.01921 0
M  V30 1652 P 238.996 -5.75688 6.64379 0
M  V30 1653 O 240.417 -6.11915 7.01921 0
M  V30 1654 O 238.636 -4.30744 6.56026 0
M  V30 1655 O 238.673 -6.37042 5.19165 0
M  V30 1656 C 238.512 -7.83662 5.1657 0
M  V30 1657 C 239.053 -8.33398 3.83019 0
M  V30 1658 O 237.998 -8.0998 3.00999 0
M  V30 1659 C 240.271 -7.65514 3.2257 0
M  V30 1660 O 241.009 -8.4329 2.32297 0
M  V30 1661 C 239.603 -6.40075 2.62207 0
M  V30 1662 O 240.401 -5.92338 1.5428 0
M  V30 1663 C 238.265 -6.9454 2.18503 0
M  V30 1664 N 237.222 -5.95905 2.39948 0
M  V30 1665 C 237.391 -4.98383 3.32108 0
M  V30 1666 N 236.364 -4.16798 3.41761 0
M  V30 1667 C 235.479 -4.65287 2.47461 0
M  V30 1668 C 234.212 -4.18946 2.07461 0
M  V30 1669 N 233.647 -4.95327 1.09101 0
M  V30 1670 C 234.249 -6.04369 0.519812 0
M  V30 1671 N 235.426 -6.50694 0.855982 0
M  V30 1672 C 236.001 -5.75818 1.84322 0
M  V30 1673 H 239.48 -5.60502 3.36589 0
M  V30 1674 H 240.963 -7.35707 4.02681 0
M  V30 1675 H 239.269 -9.41302 3.90009 0
M  V30 1676 H 239.079 -8.29056 5.99158 0
M  V30 1677 H 237.449 -8.10073 5.25882 0
M  V30 1678 H 238.291 -4.88564 3.92502 0
M  V30 1679 H 240.089 -6.30224 0.72668 0
M  V30 1680 P 241.947 -8.4349 2.47671 0
M  V30 1681 O 243.369 -8.94167 2.5964 0
M  V30 1682 O 241.587 -7.1704 3.19006 0
M  V30 1683 O 241.624 -8.16596 0.923387 0
M  V30 1684 C 241.464 -9.38437 0.108857 0
M  V30 1685 C 242.004 -9.08175 -1.28353 0
M  V30 1686 O 240.948 -8.44229 -1.84713 0
M  V30 1687 C 243.222 -8.18386 -1.42505 0
M  V30 1688 O 243.96 -8.3501 -2.60497 0
M  V30 1689 C 242.553 -6.80225 -1.25468 0
M  V30 1690 O 243.352 -5.81621 -1.91066 0
M  V30 1691 C 241.216 -7.02416 -1.9168 0
M  V30 1692 H 241.248 -6.6888 -2.96621 0
M  V30 1693 H 242.431 -6.53617 -0.192223 0
M  V30 1694 H 243.915 -8.36622 -0.589963 0
M  V30 1695 H 242.221 -10.0291 -1.79807 0
M  V30 1696 H 242.031 -10.2138 0.558219 0
M  V30 1697 H 240.401 -9.6579 0.0444202 0
M  V30 1698 H 243.04 -5.69556 -2.79637 0
M  V30 1699 P 244.897 -8.4349 -2.47671 0
M  V30 1700 O 246.298 -8.99283 -2.62101 0
M  V30 1701 O 244.519 -7.81195 -1.16947 0
M  V30 1702 O 244.574 -7.36797 -3.63761 0
M  V30 1703 C 244.414 -7.95349 -4.982 0
M  V30 1704 C 244.954 -6.94537 -5.98908 0
M  V30 1705 O 243.898 -6.10277 -6.11744 0
M  V30 1706 C 246.171 -6.11426 -5.62335 0
M  V30 1707 O 246.91 -5.6162 -6.70584 0
M  V30 1708 C 245.504 -5.04409 -4.73308 0
M  V30 1709 O 246.302 -3.85929 -4.75106 0
M  V30 1710 C 244.166 -4.8728 -5.41006 0
M  V30 1711 N 243.123 -4.65812 -4.42377 0
M  V30 1712 C 242.088 -3.81293 -4.74224 0
M  V30 1713 O 242.127 -3.20533 -5.83679 0
M  V30 1714 N 241.076 -3.6442 -3.86349 0
M  V30 1715 C 241.124 -4.2728 -2.6824 0
M  V30 1716 C 242.22 -5.10813 -2.3217 0
M  V30 1717 C 243.186 -5.27909 -3.22647 0
M  V30 1718 H 244.198 -4.02278 -6.11074 0
M  V30 1719 H 245.381 -5.39013 -3.70026 0
M  V30 1720 H 246.865 -6.71494 -5.02675 0
M  V30 1721 H 245.171 -7.45796 -6.94223 0
M  V30 1722 H 244.98 -8.89416 -5.05237 0
M  V30 1723 H 243.35 -8.14791 -5.18355 0
M  V30 1724 H 242.268 -5.58884 -1.34755 0
M  V30 1725 H 244.032 -5.92811 -2.9934 0
M  V30 1726 H 246.086 -3.3454 -5.51577 0
M  V30 1727 P 247.848 -5.75688 -6.64379 0
M  V30 1728 O 249.27 -6.07627 -7.05504 0
M  V30 1729 O 247.488 -5.88047 -5.19722 0
M  V30 1730 O 247.525 -4.2322 -7.04443 0
M  V30 1731 C 247.365 -3.99743 -8.4911 0
M  V30 1732 C 247.905 -2.60516 -8.79425 0
M  V30 1733 O 246.849 -1.82684 -8.4467 0
M  V30 1734 C 249.123 -2.10343 -8.03628 0
M  V30 1735 O 249.861 -1.09919 -8.67766 0
M  V30 1736 C 248.454 -1.68446 -6.70876 0
M  V30 1737 O 249.253 -0.678137 -6.08433 0
M  V30 1738 C 247.117 -1.17436 -7.18567 0
M  V30 1739 H 247.149 -0.0804732 -7.31656 0
M  V30 1740 H 248.332 -2.54037 -6.02537 0
M  V30 1741 H 249.816 -2.93881 -7.85526 0
M  V30 1742 H 248.122 -2.53065 -9.86973 0
M  V30 1743 H 247.932 -4.75072 -9.05887 0
M  V30 1744 H 246.302 -4.05244 -8.76668 0
M  V30 1745 H 248.941 0.177647 -6.34251 0
M  V30 1746 P 250.798 -1.25109 -8.70152 0
M  V30 1747 O 252.22 -1.29744 -9.22016 0
M  V30 1748 O 250.438 -2.13714 -7.55141 0
M  V30 1749 O 250.475 0.248149 -8.21425 0
M  V30 1750 C 250.315 1.22779 -9.30434 0
M  V30 1751 C 250.855 2.56293 -8.80664 0
M  V30 1752 O 249.799 3.02979 -8.09349 0
M  V30 1753 C 252.073 2.57523 -7.89775 0
M  V30 1754 O 252.811 3.7668 -7.89438 0
M  V30 1755 C 251.404 2.20997 -6.55446 0
M  V30 1756 O 252.203 2.71895 -5.48509 0
M  V30 1757 C 250.067 2.89693 -6.67988 0
M  V30 1758 H 250.099 3.88793 -6.19859 0
M  V30 1759 H 251.282 1.12046 -6.44229 0
M  V30 1760 H 252.766 1.7746 -8.19711 0
M  V30 1761 H 251.072 3.20706 -9.67112 0
M  V30 1762 H 250.882 0.901032 -10.1892 0
M  V30 1763 H 249.252 1.33049 -9.56592 0
M  V30 1764 H 251.891 3.57847 -5.23962 0
M  V30 1765 P 253.749 3.65191 -7.99657 0
M  V30 1766 O 255.171 3.89332 -8.45794 0
M  V30 1767 O 253.389 2.28472 -7.50807 0
M  V30 1768 O 253.426 4.64972 -6.77611 0
M  V30 1769 C 253.266 6.06319 -7.16352 0
M  V30 1770 C 253.806 6.91731 -6.02299 0
M  V30 1771 O 252.75 6.92449 -5.17064 0
M  V30 1772 C 255.024 6.43627 -5.25174 0
M  V30 1773 O 255.762 7.43686 -4.60469 0
M  V30 1774 C 254.355 5.40275 -4.31916 0
M  V30 1775 O 255.154 5.25279 -3.14438 0
M  V30 1776 C 253.018 6.04847 -4.05327 0
M  V30 1777 H 253.05 6.62195 -3.11261 0
M  V30 1778 H 254.233 4.42556 -4.81383 0
M  V30 1779 H 255.717 5.92458 -5.93643 0
M  V30 1780 H 254.023 7.92655 -6.402 0
M  V30 1781 H 253.833 6.26671 -8.0846 0
M  V30 1782 H 252.203 6.29101 -7.32804 0
M  V30 1783 H 254.842 5.84315 -2.47318 0
M  V30 1784 P 256.7 7.39546 -4.75277 0
M  V30 1785 O 258.122 7.84798 -5.01039 0
M  V30 1786 O 256.34 5.9812 -5.08098 0
M  V30 1787 O 256.377 7.57503 -3.1866 0
M  V30 1788 C 256.217 8.97357 -2.74833 0
M  V30 1789 C 256.757 9.07548 -1.32709 0
M  V30 1790 O 255.701 8.62072 -0.606159 0
M  V30 1791 C 257.975 8.25383 -0.938334 0
M  V30 1792 O 258.713 8.74577 0.146954 0
M  V30 1793 C 257.306 6.8802 -0.712559 0
M  V30 1794 O 258.105 6.1189 0.194655 0
M  V30 1795 C 255.969 7.27966 -0.139777 0
M  V30 1796 H 256.001 7.25354 0.961601 0
M  V30 1797 H 257.184 6.32557 -1.65702 0
M  V30 1798 H 258.668 8.19355 -1.79097 0
M  V30 1799 H 256.974 10.1294 -1.10029 0
M  V30 1800 H 256.784 9.64276 -3.41316 0
M  V30 1801 H 255.154 9.25417 -2.76357 0
M  V30 1802 H 257.793 6.25267 1.07847 0
M  V30 1803 P 259.65 8.791 7.3234e-13 0
M  V30 1804 O 261.072 9.31296 0.027939 0
M  V30 1805 O 259.29 7.77869 -1.04071 0
M  V30 1806 O 259.327 8.09533 1.41463 0
M  V30 1807 C 259.167 9.0349 2.53943 0
M  V30 1808 C 259.707 8.35135 3.78975 0
M  V30 1809 O 258.652 7.57992 4.15078 0
M  V30 1810 C 260.925 7.45087 3.67298 0
M  V30 1811 O 261.663 7.27796 4.85194 0
M  V30 1812 C 260.257 6.17323 3.12027 0
M  V30 1813 O 261.055 5.04149 3.47132 0
M  V30 1814 C 258.919 6.19961 3.81809 0
M  V30 1815 N 257.876 5.71575 2.93223 0
M  V30 1816 C 257.938 5.97133 1.62693 0
M  V30 1817 N 256.893 5.44066 0.984414 0
M  V30 1818 C 256.159 4.87093 1.93987 0
M  V30 1819 C 254.853 4.26449 1.8738 0
M  V30 1820 O 254.12 4.1089 0.884377 0
M  V30 1821 N 254.423 3.82483 3.08036 0
M  V30 1822 C 255.172 3.95124 4.27727 0
M  V30 1823 N 254.575 3.4084 5.39089 0
M  V30 1824 N 256.325 4.55264 4.3706 0
M  V30 1825 C 256.782 5.00861 3.18217 0
M  V30 1826 H 258.951 5.58218 4.73051 0
M  V30 1827 H 260.134 6.21631 2.02558 0
M  V30 1828 H 261.619 7.85819 2.93096 0
M  V30 1829 H 259.924 9.11627 4.55076 0
M  V30 1830 H 259.734 9.9573 2.34194 0
M  V30 1831 H 258.103 9.2792 2.67832 0
M  V30 1832 H 253.527 3.38323 3.1329 0
M  V30 1833 H 258.734 6.53891 1.14265 0
M  V30 1834 H 253.664 2.93852 5.30559 0
M  V30 1835 H 255.04 3.47631 6.30632 0
M  V30 1836 H 260.744 4.67628 4.28704 0
M  V30 1837 P 262.601 7.39546 4.75277 0
M  V30 1838 O 264.023 7.81777 5.05738 0
M  V30 1839 O 262.241 7.1065 3.32998 0
M  V30 1840 O 262.278 6.04542 5.56673 0
M  V30 1841 C 262.118 6.22772 7.02095 0
M  V30 1842 C 262.658 4.97725 7.70406 0
M  V30 1843 O 261.602 4.13256 7.58987 0
M  V30 1844 C 263.876 4.28231 7.11815 0
M  V30 1845 O 264.614 3.49945 8.01648 0
M  V30 1846 C 263.207 3.5063 5.96244 0
M  V30 1847 O 264.006 2.36482 5.64681 0
M  V30 1848 C 261.87 3.15122 6.56374 0
M  V30 1849 H 261.902 2.13853 6.99751 0
M  V30 1850 H 263.085 4.13501 5.06559 0
M  V30 1851 H 264.569 5.03285 6.70911 0
M  V30 1852 H 262.875 5.20877 8.75697 0
M  V30 1853 H 262.685 7.11046 7.35349 0
M  V30 1854 H 261.055 6.35815 7.26986 0
M  V30 1855 H 263.694 1.61644 6.13565 0
M  V30 1856 P 265.551 3.65191 7.99657 0
M  V30 1857 O 266.973 3.8425 8.48115 0
M  V30 1858 O 265.191 4.17805 6.64342 0
M  V30 1859 O 265.228 2.07613 7.95143 0
M  V30 1860 C 265.068 1.44328 9.27336 0
M  V30 1861 C 265.608 0.0220036 9.17197 0
M  V30 1862 O 264.552 -0.626867 8.61923 0
M  V30 1863 C 266.826 -0.24586 8.30336 0
M  V30 1864 O 267.564 -1.39011 8.63583 0
M  V30 1865 C 266.157 -0.273849 6.91158 0
M  V30 1866 O 266.956 -1.06348 6.02892 0
M  V30 1867 C 264.82 -0.897649 7.22545 0
M  V30 1868 H 264.852 -1.9841 7.04286 0
M  V30 1869 H 266.035 0.739928 6.497 0
M  V30 1870 H 267.519 0.60668 8.36503 0
M  V30 1871 H 265.825 -0.352479 10.1829 0
M  V30 1872 H 265.635 2.00611 10.0304 0
M  V30 1873 H 264.005 1.41843 9.55327 0
M  V30 1874 H 266.644 -1.95734 6.03555 0
M  V30 1875 P 268.502 -1.25109 8.70152 0
M  V30 1876 O 269.924 -1.35274 9.21221 0
M  V30 1877 O 268.142 -0.0769065 7.84762 0
M  V30 1878 O 268.179 -2.55232 7.81161 0
M  V30 1879 C 268.019 -3.79939 8.58154 0
M  V30 1880 C 268.559 -4.94023 7.72785 0
M  V30 1881 O 267.503 -5.18726 6.91205 0
M  V30 1882 C 269.777 -4.69597 6.85231 0
M  V30 1883 O 270.515 -5.83832 6.51337 0
M  V30 1884 C 269.108 -3.96706 5.66633 0
M  V30 1885 O 269.907 -4.15414 4.49689 0
M  V30 1886 C 267.771 -4.66153 5.59313 0
M  V30 1887 H 267.803 -5.47679 4.85214 0
M  V30 1888 H 268.986 -2.89008 5.86566 0
M  V30 1889 H 270.47 -4.0121 7.36511 0
M  V30 1890 H 268.776 -5.80182 8.37584 0
M  V30 1891 H 268.586 -3.73517 9.52265 0
M  V30 1892 H 266.956 -3.97163 8.80359 0
M  V30 1893 H 269.595 -4.90969 4.01921 0
M  V30 1894 P 271.452 -5.75688 6.64379 0
M  V30 1895 O 272.874 -6.11849 7.01846 0
M  V30 1896 O 271.092 -4.30744 6.56026 0
M  V30 1897 O 271.129 -6.37042 5.19165 0
M  V30 1898 C 270.969 -7.83578 5.16515 0
M  V30 1899 C 271.509 -8.33398 3.83019 0
M  V30 1900 O 270.453 -8.10074 3.01034 0
M  V30 1901 C 272.727 -7.65514 3.2257 0
M  V30 1902 O 273.465 -8.4329 2.32297 0
M  V30 1903 C 272.058 -6.40075 2.62207 0
M  V30 1904 O 272.857 -5.92589 1.53712 0
M  V30 1905 C 270.721 -6.9454 2.18503 0
M  V30 1906 H 270.753 -7.23063 1.12091 0
M  V30 1907 H 271.936 -5.6025 3.37201 0
M  V30 1908 H 273.42 -7.35707 4.02681 0
M  V30 1909 H 271.726 -9.40912 3.9095 0
M  V30 1910 H 271.536 -8.29056 5.99158 0
M  V30 1911 H 269.906 -8.10073 5.25882 0
M  V30 1912 H 272.545 -6.30324 0.726794 0
M  V30 1913 P 274.403 -8.4349 2.47671 0
M  V30 1914 O 275.825 -8.94167 2.5964 0
M  V30 1915 O 274.043 -7.1704 3.19006 0
M  V30 1916 O 274.08 -8.16596 0.923387 0
M  V30 1917 C 273.92 -9.38437 0.108857 0
M  V30 1918 C 274.46 -9.08175 -1.28353 0
M  V30 1919 O 273.404 -8.44229 -1.84713 0
M  V30 1920 C 275.678 -8.18386 -1.42505 0
M  V30 1921 O 276.416 -8.3501 -2.60497 0
M  V30 1922 C 275.009 -6.80225 -1.25468 0
M  V30 1923 O 275.808 -5.81621 -1.91066 0
M  V30 1924 C 273.672 -7.02416 -1.9168 0
M  V30 1925 H 273.704 -6.6888 -2.96621 0
M  V30 1926 H 274.887 -6.53617 -0.192223 0
M  V30 1927 H 276.371 -8.36622 -0.589963 0
M  V30 1928 H 274.677 -10.0291 -1.79807 0
M  V30 1929 H 274.487 -10.2138 0.558219 0
M  V30 1930 H 272.857 -9.6579 0.0444202 0
M  V30 1931 H 275.496 -5.69556 -2.79637 0
M  V30 1932 P 277.354 -8.4349 -2.47671 0
M  V30 1933 O 278.776 -8.92593 -2.65 0
M  V30 1934 O 276.994 -7.7568 -1.19296 0
M  V30 1935 O 277.031 -7.36886 -3.63805 0
M  V30 1936 C 276.871 -7.95349 -4.982 0
M  V30 1937 C 277.411 -6.94612 -5.98974 0
M  V30 1938 O 276.355 -6.10347 -6.11815 0
M  V30 1939 C 278.629 -6.11426 -5.62335 0
M  V30 1940 O 279.367 -5.6162 -6.70584 0
M  V30 1941 C 277.96 -5.04409 -4.73308 0
M  V30 1942 O 278.759 -3.85992 -4.75183 0
M  V30 1943 C 276.623 -4.8728 -5.41006 0
M  V30 1944 H 276.655 -4.02333 -6.11157 0
M  V30 1945 H 277.838 -5.39466 -3.69543 0
M  V30 1946 H 279.322 -6.71916 -5.01943 0
M  V30 1947 H 277.628 -7.4649 -6.93477 0
M  V30 1948 H 277.438 -8.89416 -5.05237 0
M  V30 1949 H 275.808 -8.14876 -5.18409 0
M  V30 1950 H 278.447 -3.27957 -5.4317 0
M  V30 1951 P 280.304 -5.75688 -6.64379 0
M  V30 1952 O 281.726 -6.07627 -7.05504 0
M  V30 1953 O 279.944 -5.88047 -5.19722 0
M  V30 1954 O 279.981 -4.2322 -7.04443 0
M  V30 1955 C 279.821 -3.99743 -8.4911 0
M  V30 1956 C 280.361 -2.60516 -8.79425 0
M  V30 1957 O 279.305 -1.82684 -8.4467 0
M  V30 1958 C 281.579 -2.10343 -8.03628 0
M  V30 1959 O 282.317 -1.09919 -8.67766 0
M  V30 1960 C 280.91 -1.68446 -6.70876 0
M  V30 1961 O 281.709 -0.678137 -6.08433 0
M  V30 1962 C 279.573 -1.17436 -7.18567 0
M  V30 1963 H 279.605 -0.0804732 -7.31656 0
M  V30 1964 H 280.788 -2.54037 -6.02537 0
M  V30 1965 H 282.272 -2.93881 -7.85526 0
M  V30 1966 H 280.578 -2.53065 -9.86973 0
M  V30 1967 H 280.388 -4.75072 -9.05887 0
M  V30 1968 H 278.758 -4.05244 -8.76668 0
M  V30 1969 H 281.397 0.177647 -6.34251 0
M  V30 1970 P 283.255 -1.25109 -8.70152 0
M  V30 1971 O 284.677 -1.29744 -9.22016 0
M  V30 1972 O 282.895 -2.13714 -7.55141 0
M  V30 1973 O 282.932 0.248149 -8.21425 0
M  V30 1974 C 282.772 1.22779 -9.30434 0
M  V30 1975 C 283.312 2.56293 -8.80664 0
M  V30 1976 O 282.256 3.02979 -8.09349 0
M  V30 1977 C 284.53 2.57523 -7.89775 0
M  V30 1978 O 285.268 3.7668 -7.89438 0
M  V30 1979 C 283.861 2.20997 -6.55446 0
M  V30 1980 O 284.66 2.71895 -5.48509 0
M  V30 1981 C 282.524 2.89693 -6.67988 0
M  V30 1982 H 282.556 3.88793 -6.19859 0
M  V30 1983 H 283.739 1.12046 -6.44229 0
M  V30 1984 H 285.223 1.7746 -8.19711 0
M  V30 1985 H 283.529 3.20706 -9.67112 0
M  V30 1986 H 283.339 0.901032 -10.1892 0
M  V30 1987 H 281.709 1.33049 -9.56592 0
M  V30 1988 H 284.348 3.57847 -5.23962 0
M  V30 1989 P 286.205 3.65191 -7.99657 0
M  V30 1990 O 287.627 3.89332 -8.45794 0
M  V30 1991 O 285.845 2.28472 -7.50807 0
M  V30 1992 O 285.882 4.64972 -6.77611 0
M  V30 1993 C 285.722 6.06319 -7.16352 0
M  V30 1994 C 286.262 6.91731 -6.02299 0
M  V30 1995 O 285.206 6.92449 -5.17064 0
M  V30 1996 C 287.48 6.43627 -5.25174 0
M  V30 1997 O 288.218 7.43686 -4.60469 0
M  V30 1998 C 286.811 5.40275 -4.31916 0
M  V30 1999 O 287.61 5.25279 -3.14438 0
M  V30 2000 C 285.474 6.04847 -4.05327 0
M  V30 2001 H 285.506 6.62195 -3.11261 0
M  V30 2002 H 286.689 4.42556 -4.81383 0
M  V30 2003 H 288.173 5.92458 -5.93643 0
M  V30 2004 H 286.479 7.92655 -6.402 0
M  V30 2005 H 286.289 6.26671 -8.0846 0
M  V30 2006 H 284.659 6.29101 -7.32804 0
M  V30 2007 H 287.298 5.84315 -2.47318 0
M  V30 2008 P 289.156 7.39546 -4.75277 0
M  V30 2009 O 290.578 7.84798 -5.01039 0
M  V30 2010 O 288.796 5.9812 -5.08098 0
M  V30 2011 O 288.833 7.57503 -3.1866 0
M  V30 2012 C 288.673 8.97357 -2.74833 0
M  V30 2013 C 289.213 9.07548 -1.32709 0
M  V30 2014 O 288.157 8.62072 -0.606159 0
M  V30 2015 C 290.431 8.25383 -0.938334 0
M  V30 2016 O 291.169 8.74577 0.146954 0
M  V30 2017 C 289.762 6.8802 -0.712559 0
M  V30 2018 O 290.561 6.1189 0.194655 0
M  V30 2019 C 288.425 7.27966 -0.139777 0
M  V30 2020 H 288.457 7.25354 0.961601 0
M  V30 2021 H 289.64 6.32557 -1.65702 0
M  V30 2022 H 291.124 8.19355 -1.79097 0
M  V30 2023 H 289.43 10.1294 -1.10029 0
M  V30 2024 H 289.24 9.64276 -3.41316 0
M  V30 2025 H 287.61 9.25417 -2.76357 0
M  V30 2026 H 290.249 6.25267 1.07847 0
M  V30 2027 P 292.106 8.791 1.04251e-12 0
M  V30 2028 O 293.528 9.31096 0.027933 0
M  V30 2029 O 291.746 7.77869 -1.04071 0
M  V30 2030 O 291.783 8.09533 1.41463 0
M  V30 2031 C 291.623 9.0349 2.53943 0
M  V30 2032 C 292.163 8.35226 3.79016 0
M  V30 2033 O 291.107 7.57992 4.15078 0
M  V30 2034 C 293.381 7.45087 3.67298 0
M  V30 2035 O 294.119 7.27796 4.85194 0
M  V30 2036 C 292.712 6.17323 3.12027 0
M  V30 2037 O 293.511 5.04231 3.47188 0
M  V30 2038 C 291.375 6.19961 3.81809 0
M  V30 2039 H 291.407 5.58218 4.73051 0
M  V30 2040 H 292.59 6.21726 2.02589 0
M  V30 2041 H 294.074 7.86112 2.9231 0
M  V30 2042 H 292.38 9.11627 4.55076 0
M  V30 2043 H 292.19 9.9573 2.34194 0
M  V30 2044 H 290.56 9.2792 2.67832 0
M  V30 2045 H 293.199 4.67702 4.28772 0
M  V30 2046 P 295.057 7.39546 4.75277 0
M  V30 2047 O 296.479 7.81777 5.05738 0
M  V30 2048 O 294.697 7.1065 3.32998 0
M  V30 2049 O 294.734 6.04542 5.56673 0
M  V30 2050 C 294.574 6.22772 7.02095 0
M  V30 2051 C 295.114 4.97725 7.70406 0
M  V30 2052 O 294.058 4.13256 7.58987 0
M  V30 2053 C 296.332 4.28231 7.11815 0
M  V30 2054 O 297.07 3.49945 8.01648 0
M  V30 2055 C 295.663 3.5063 5.96244 0
M  V30 2056 O 296.462 2.36482 5.64681 0
M  V30 2057 C 294.326 3.15122 6.56374 0
M  V30 2058 H 294.358 2.13853 6.99751 0
M  V30 2059 H 295.541 4.13501 5.06559 0
M  V30 2060 H 297.025 5.03285 6.70911 0
M  V30 2061 H 295.331 5.20877 8.75697 0
M  V30 2062 H 295.141 7.11046 7.35349 0
M  V30 2063 H 293.511 6.35815 7.26986 0
M  V30 2064 H 296.15 1.61644 6.13565 0
M  V30 2065 P 298.008 3.65191 7.99657 0
M  V30 2066 O 299.43 3.8425 8.48115 0
M  V30 2067 O 297.648 4.17805 6.64342 0
M  V30 2068 O 297.685 2.07613 7.95143 0
M  V30 2069 C 297.525 1.44328 9.27336 0
M  V30 2070 C 298.065 0.0220036 9.17197 0
M  V30 2071 O 297.009 -0.626867 8.61923 0
M  V30 2072 C 299.283 -0.24586 8.30336 0
M  V30 2073 O 300.021 -1.39011 8.63583 0
M  V30 2074 C 298.614 -0.273849 6.91158 0
M  V30 2075 O 299.413 -1.06348 6.02892 0
M  V30 2076 C 297.277 -0.897649 7.22545 0
M  V30 2077 H 297.309 -1.9841 7.04286 0
M  V30 2078 H 298.492 0.739928 6.497 0
M  V30 2079 H 299.976 0.60668 8.36503 0
M  V30 2080 H 298.282 -0.352479 10.1829 0
M  V30 2081 H 298.092 2.00611 10.0304 0
M  V30 2082 H 296.462 1.41843 9.55327 0
M  V30 2083 H 299.101 -1.95734 6.03555 0
M  V30 2084 P 300.958 -1.25109 8.70152 0
M  V30 2085 O 302.379 -1.35288 9.2132 0
M  V30 2086 O 300.598 -0.0769065 7.84762 0
M  V30 2087 O 300.635 -2.55232 7.81161 0
M  V30 2088 C 300.474 -3.79979 8.58246 0
M  V30 2089 C 301.015 -4.94023 7.72785 0
M  V30 2090 O 299.96 -5.18666 6.91125 0
M  V30 2091 C 302.233 -4.69597 6.85231 0
M  V30 2092 O 302.971 -5.83832 6.51337 0
M  V30 2093 C 301.565 -3.96706 5.66633 0
M  V30 2094 O 302.363 -4.14896 4.5003 0
M  V30 2095 C 300.227 -4.66153 5.59313 0
M  V30 2096 N 299.184 -3.71582 5.24027 0
M  V30 2097 C 299.353 -2.39715 5.48833 0
M  V30 2098 N 298.326 -1.65863 5.12845 0
M  V30 2099 C 297.441 -2.57637 4.5973 0
M  V30 2100 C 296.174 -2.40278 4.01027 0
M  V30 2101 N 295.575 -1.19549 3.86744 0
M  V30 2102 N 295.609 -3.57711 3.59575 0
M  V30 2103 C 296.211 -4.80324 3.70476 0
M  V30 2104 N 297.388 -5.01121 4.23801 0
M  V30 2105 C 297.963 -3.84757 4.66372 0
M  V30 2106 H 300.259 -5.47604 4.85148 0
M  V30 2107 H 301.442 -2.8955 5.86187 0
M  V30 2108 H 302.925 -4.0121 7.36511 0
M  V30 2109 H 301.231 -5.81019 8.37003 0
M  V30 2110 H 301.041 -3.73517 9.52265 0
M  V30 2111 H 299.411 -3.97163 8.80359 0
M  V30 2112 H 295.675 -5.66348 3.3183 0
M  V30 2113 H 300.253 -1.98804 5.94332 0
M  V30 2114 H 294.645 -1.13147 3.4281 0
M  V30 2115 H 296.049 -0.344074 4.19692 0
M  V30 2116 H 302.051 -4.90891 4.01857 0
M  V30 2117 P 303.909 -5.75688 6.64379 0
M  V30 2118 O 305.33 -6.11915 7.01921 0
M  V30 2119 O 303.549 -4.30744 6.56026 0
M  V30 2120 O 303.586 -6.37042 5.19165 0
M  V30 2121 C 303.425 -7.83662 5.1657 0
M  V30 2122 C 303.966 -8.33398 3.83019 0
M  V30 2123 O 302.911 -8.0998 3.00999 0
M  V30 2124 C 305.184 -7.65514 3.2257 0
M  V30 2125 O 305.922 -8.4329 2.32297 0
M  V30 2126 C 304.516 -6.40075 2.62207 0
M  V30 2127 O 305.314 -5.92338 1.5428 0
M  V30 2128 C 303.178 -6.9454 2.18503 0
M  V30 2129 N 302.135 -5.95905 2.39948 0
M  V30 2130 C 302.304 -4.98383 3.32108 0
M  V30 2131 N 301.277 -4.16798 3.41761 0
M  V30 2132 C 300.392 -4.65287 2.47461 0
M  V30 2133 C 299.125 -4.18946 2.07461 0
M  V30 2134 N 298.56 -4.95327 1.09101 0
M  V30 2135 C 299.162 -6.04369 0.519812 0
M  V30 2136 N 300.339 -6.50694 0.855982 0
M  V30 2137 C 300.914 -5.75818 1.84322 0
M  V30 2138 H 304.393 -5.60502 3.36589 0
M  V30 2139 H 305.876 -7.35707 4.02681 0
M  V30 2140 H 304.182 -9.41302 3.90009 0
M  V30 2141 H 303.992 -8.29056 5.99158 0
M  V30 2142 H 302.362 -8.10073 5.25882 0
M  V30 2143 H 303.204 -4.88564 3.92502 0
M  V30 2144 H 305.002 -6.30224 0.72668 0
M  V30 2145 P 306.859 -8.4349 2.47671 0
M  V30 2146 O 308.281 -8.94167 2.5964 0
M  V30 2147 O 306.499 -7.1704 3.19006 0
M  V30 2148 O 306.536 -8.16596 0.923387 0
M  V30 2149 C 306.376 -9.38437 0.108857 0
M  V30 2150 C 306.916 -9.08175 -1.28353 0
M  V30 2151 O 305.86 -8.44229 -1.84713 0
M  V30 2152 C 308.134 -8.18386 -1.42505 0
M  V30 2153 O 308.872 -8.3501 -2.60497 0
M  V30 2154 C 307.465 -6.80225 -1.25468 0
M  V30 2155 O 308.264 -5.81621 -1.91066 0
M  V30 2156 C 306.128 -7.02416 -1.9168 0
M  V30 2157 H 306.16 -6.6888 -2.96621 0
M  V30 2158 H 307.343 -6.53617 -0.192223 0
M  V30 2159 H 308.827 -8.36622 -0.589963 0
M  V30 2160 H 307.133 -10.0291 -1.79807 0
M  V30 2161 H 306.943 -10.2138 0.558219 0
M  V30 2162 H 305.313 -9.6579 0.0444202 0
M  V30 2163 H 307.952 -5.69556 -2.79637 0
M  V30 2164 P 309.81 -8.4349 -2.47671 0
M  V30 2165 O 311.232 -8.92593 -2.65 0
M  V30 2166 O 309.45 -7.7568 -1.19296 0
M  V30 2167 O 309.487 -7.36886 -3.63805 0
M  V30 2168 C 309.327 -7.95349 -4.982 0
M  V30 2169 C 309.867 -6.94612 -5.98974 0
M  V30 2170 O 308.811 -6.10347 -6.11815 0
M  V30 2171 C 311.085 -6.11426 -5.62335 0
M  V30 2172 O 311.823 -5.6162 -6.70584 0
M  V30 2173 C 310.416 -5.04409 -4.73308 0
M  V30 2174 O 311.215 -3.85992 -4.75183 0
M  V30 2175 C 309.079 -4.8728 -5.41006 0
M  V30 2176 H 309.111 -4.02333 -6.11157 0
M  V30 2177 H 310.294 -5.39466 -3.69543 0
M  V30 2178 H 311.778 -6.71916 -5.01943 0
M  V30 2179 H 310.084 -7.4649 -6.93477 0
M  V30 2180 H 309.894 -8.89416 -5.05237 0
M  V30 2181 H 308.264 -8.14876 -5.18409 0
M  V30 2182 H 310.903 -3.27957 -5.4317 0
M  V30 2183 P 312.76 -5.75688 -6.64379 0
M  V30 2184 O 314.182 -6.07627 -7.05504 0
M  V30 2185 O 312.4 -5.88047 -5.19722 0
M  V30 2186 O 312.437 -4.2322 -7.04443 0
M  V30 2187 C 312.277 -3.99743 -8.4911 0
M  V30 2188 C 312.817 -2.60516 -8.79425 0
M  V30 2189 O 311.761 -1.82684 -8.4467 0
M  V30 2190 C 314.035 -2.10343 -8.03628 0
M  V30 2191 O 314.773 -1.09919 -8.67766 0
M  V30 2192 C 313.366 -1.68446 -6.70876 0
M  V30 2193 O 314.165 -0.678137 -6.08433 0
M  V30 2194 C 312.029 -1.17436 -7.18567 0
M  V30 2195 H 312.061 -0.0804732 -7.31656 0
M  V30 2196 H 313.244 -2.54037 -6.02537 0
M  V30 2197 H 314.728 -2.93881 -7.85526 0
M  V30 2198 H 313.034 -2.53065 -9.86973 0
M  V30 2199 H 312.844 -4.75072 -9.05887 0
M  V30 2200 H 311.214 -4.05244 -8.76668 0
M  V30 2201 H 313.853 0.177647 -6.34251 0
M  V30 2202 P 315.711 -1.25109 -8.70152 0
M  V30 2203 O 317.133 -1.29744 -9.22016 0
M  V30 2204 O 315.351 -2.13714 -7.55141 0
M  V30 2205 O 315.388 0.248149 -8.21425 0
M  V30 2206 C 315.228 1.22779 -9.30434 0
M  V30 2207 C 315.768 2.56293 -8.80664 0
M  V30 2208 O 314.712 3.02979 -8.09349 0
M  V30 2209 C 316.986 2.57523 -7.89775 0
M  V30 2210 O 317.724 3.7668 -7.89438 0
M  V30 2211 C 316.317 2.20997 -6.55446 0
M  V30 2212 O 317.116 2.71895 -5.48509 0
M  V30 2213 C 314.98 2.89693 -6.67988 0
M  V30 2214 H 315.012 3.88793 -6.19859 0
M  V30 2215 H 316.195 1.12046 -6.44229 0
M  V30 2216 H 317.679 1.7746 -8.19711 0
M  V30 2217 H 315.985 3.20706 -9.67112 0
M  V30 2218 H 315.795 0.901032 -10.1892 0
M  V30 2219 H 314.165 1.33049 -9.56592 0
M  V30 2220 H 316.804 3.57847 -5.23962 0
M  V30 2221 P 318.662 3.65191 -7.99657 0
M  V30 2222 O 320.084 3.89416 -8.45976 0
M  V30 2223 O 318.302 2.28472 -7.50807 0
M  V30 2224 O 318.339 4.64972 -6.77611 0
M  V30 2225 C 318.179 6.06319 -7.16352 0
M  V30 2226 C 318.719 6.91655 -6.02234 0
M  V30 2227 O 317.664 6.92449 -5.17064 0
M  V30 2228 C 319.937 6.43627 -5.25174 0
M  V30 2229 O 320.675 7.43686 -4.60469 0
M  V30 2230 C 319.269 5.40275 -4.31916 0
M  V30 2231 O 320.067 5.25193 -3.14386 0
M  V30 2232 C 317.931 6.04847 -4.05327 0
M  V30 2233 N 316.888 5.04166 -3.98114 0
M  V30 2234 C 316.95 3.96049 -4.75587 0
M  V30 2235 N 315.905 3.15559 -4.54006 0
M  V30 2236 C 315.171 3.78802 -3.62491 0
M  V30 2237 C 313.865 3.476 -3.10071 0
M  V30 2238 O 313.132 2.51136 -3.37021 0
M  V30 2239 N 313.435 4.39088 -2.19956 0
M  V30 2240 C 314.184 5.53215 -1.81733 0
M  V30 2241 N 313.587 6.31963 -0.860928 0
M  V30 2242 N 315.337 5.86688 -2.32562 0
M  V30 2243 C 315.794 4.97525 -3.23407 0
M  V30 2244 H 317.963 6.62195 -3.11261 0
M  V30 2245 H 319.146 4.42488 -4.8131 0
M  V30 2246 H 320.631 5.93051 -5.9305 0
M  V30 2247 H 318.936 7.92655 -6.402 0
M  V30 2248 H 318.746 6.26671 -8.0846 0
M  V30 2249 H 317.115 6.29101 -7.32804 0
M  V30 2250 H 312.539 4.25523 -1.77604 0
M  V30 2251 H 317.746 3.75576 -5.47333 0
M  V30 2252 H 312.676 6.04684 -0.468946 0
M  V30 2253 H 314.052 7.18054 -0.542422 0
M  V30 2254 H 319.756 5.84223 -2.47279 0
M  V30 2255 P 321.612 7.39546 -4.75277 0
M  V30 2256 O 323.034 7.84798 -5.01039 0
M  V30 2257 O 321.252 5.9812 -5.08098 0
M  V30 2258 O 321.289 7.57503 -3.1866 0
M  V30 2259 C 321.129 8.97357 -2.74833 0
M  V30 2260 C 321.669 9.07548 -1.32709 0
M  V30 2261 O 320.613 8.62072 -0.606159 0
M  V30 2262 C 322.887 8.25383 -0.938334 0
M  V30 2263 O 323.625 8.74577 0.146954 0
M  V30 2264 C 322.218 6.8802 -0.712559 0
M  V30 2265 O 323.017 6.1189 0.194655 0
M  V30 2266 C 320.881 7.27966 -0.139777 0
M  V30 2267 H 320.913 7.25354 0.961601 0
M  V30 2268 H 322.096 6.32557 -1.65702 0
M  V30 2269 H 323.58 8.19355 -1.79097 0
M  V30 2270 H 321.886 10.1294 -1.10029 0
M  V30 2271 H 321.696 9.64276 -3.41316 0
M  V30 2272 H 320.066 9.25417 -2.76357 0
M  V30 2273 H 322.705 6.25267 1.07847 0
M  V30 2274 P 324.563 8.791 1.35267e-12 0
M  V30 2275 O 325.985 9.31096 0.027933 0
M  V30 2276 O 324.203 7.77869 -1.04071 0
M  V30 2277 O 324.24 8.09533 1.41463 0
M  V30 2278 C 324.08 9.0349 2.53943 0
M  V30 2279 C 324.62 8.35226 3.79016 0
M  V30 2280 O 323.564 7.57992 4.15078 0
M  V30 2281 C 325.838 7.45087 3.67298 0
M  V30 2282 O 326.576 7.27796 4.85194 0
M  V30 2283 C 325.169 6.17323 3.12027 0
M  V30 2284 O 325.968 5.04231 3.47188 0
M  V30 2285 C 323.832 6.19961 3.81809 0
M  V30 2286 H 323.864 5.58218 4.73051 0
M  V30 2287 H 325.047 6.21726 2.02589 0
M  V30 2288 H 326.531 7.86112 2.9231 0
M  V30 2289 H 324.837 9.11627 4.55076 0
M  V30 2290 H 324.647 9.9573 2.34194 0
M  V30 2291 H 323.017 9.2792 2.67832 0
M  V30 2292 H 325.656 4.67702 4.28772 0
M  V30 2293 P 327.513 7.39546 4.75277 0
M  V30 2294 O 328.934 7.81861 5.05793 0
M  V30 2295 O 327.153 7.1065 3.32998 0
M  V30 2296 O 327.19 6.04542 5.56673 0
M  V30 2297 C 327.029 6.22839 7.02169 0
M  V30 2298 C 327.57 4.97725 7.70406 0
M  V30 2299 O 326.515 4.13208 7.58899 0
M  V30 2300 C 328.788 4.28231 7.11815 0
M  V30 2301 O 329.526 3.49945 8.01648 0
M  V30 2302 C 328.12 3.5063 5.96244 0
M  V30 2303 O 328.918 2.37008 5.64352 0
M  V30 2304 C 326.782 3.15122 6.56374 0
M  V30 2305 N 325.739 3.22311 5.55692 0
M  V30 2306 C 325.908 3.99655 4.46046 0
M  V30 2307 N 324.881 3.97599 3.63918 0
M  V30 2308 C 323.996 3.11159 4.25334 0
M  V30 2309 C 322.729 2.64972 3.85157 0
M  V30 2310 N 322.13 3.02132 2.69405 0
M  V30 2311 N 322.164 1.78482 4.74759 0
M  V30 2312 C 322.766 1.37463 5.90819 0
M  V30 2313 N 323.943 1.7733 6.31889 0
M  V30 2314 C 324.518 2.64393 5.43725 0
M  V30 2315 H 326.814 2.13823 6.99656 0
M  V30 2316 H 327.997 4.12931 5.06895 0
M  V30 2317 H 329.48 5.03285 6.70911 0
M  V30 2318 H 327.786 5.20001 8.76217 0
M  V30 2319 H 327.596 7.11046 7.35349 0
M  V30 2320 H 325.966 6.35815 7.26986 0
M  V30 2321 H 322.23 0.66574 6.53015 0
M  V30 2322 H 326.808 4.58037 4.27732 0
M  V30 2323 H 321.2 2.64828 2.45331 0
M  V30 2324 H 322.604 3.67472 2.05644 0
M  V30 2325 H 328.606 1.61619 6.13468 0
M  V30 2326 P 330.464 3.65191 7.99657 0
M  V30 2327 O 331.886 3.8425 8.48115 0
M  V30 2328 O 330.104 4.17805 6.64342 0
M  V30 2329 O 330.141 2.07613 7.95143 0
M  V30 2330 C 329.981 1.44328 9.27336 0
M  V30 2331 C 330.521 0.0220036 9.17197 0
M  V30 2332 O 329.465 -0.626867 8.61923 0
M  V30 2333 C 331.739 -0.24586 8.30336 0
M  V30 2334 O 332.477 -1.39011 8.63583 0
M  V30 2335 C 331.07 -0.273849 6.91158 0
M  V30 2336 O 331.869 -1.06348 6.02892 0
M  V30 2337 C 329.733 -0.897649 7.22545 0
M  V30 2338 H 329.765 -1.9841 7.04286 0
M  V30 2339 H 330.948 0.739928 6.497 0
M  V30 2340 H 332.432 0.60668 8.36503 0
M  V30 2341 H 330.738 -0.352479 10.1829 0
M  V30 2342 H 330.548 2.00611 10.0304 0
M  V30 2343 H 328.918 1.41843 9.55327 0
M  V30 2344 H 331.557 -1.95734 6.03555 0
M  V30 2345 P 333.414 -1.25109 8.70152 0
M  V30 2346 O 334.836 -1.35274 9.21221 0
M  V30 2347 O 333.054 -0.0769065 7.84762 0
M  V30 2348 O 333.091 -2.55232 7.81161 0
M  V30 2349 C 332.931 -3.79939 8.58154 0
M  V30 2350 C 333.471 -4.94023 7.72785 0
M  V30 2351 O 332.415 -5.18726 6.91205 0
M  V30 2352 C 334.689 -4.69597 6.85231 0
M  V30 2353 O 335.427 -5.83832 6.51337 0
M  V30 2354 C 334.02 -3.96706 5.66633 0
M  V30 2355 O 334.819 -4.15414 4.49689 0
M  V30 2356 C 332.683 -4.66153 5.59313 0
M  V30 2357 H 332.715 -5.47679 4.85214 0
M  V30 2358 H 333.898 -2.89008 5.86566 0
M  V30 2359 H 335.382 -4.0121 7.36511 0
M  V30 2360 H 333.688 -5.80182 8.37584 0
M  V30 2361 H 333.498 -3.73517 9.52265 0
M  V30 2362 H 331.868 -3.97163 8.80359 0
M  V30 2363 H 334.507 -4.90969 4.01921 0
M  V30 2364 P 336.365 -5.75688 6.64379 0
M  V30 2365 O 337.787 -6.11849 7.01846 0
M  V30 2366 O 336.005 -4.30744 6.56026 0
M  V30 2367 O 336.042 -6.37042 5.19165 0
M  V30 2368 C 335.882 -7.83578 5.16515 0
M  V30 2369 C 336.422 -8.33398 3.83019 0
M  V30 2370 O 335.366 -8.10074 3.01034 0
M  V30 2371 C 337.64 -7.65514 3.2257 0
M  V30 2372 O 338.378 -8.4329 2.32297 0
M  V30 2373 C 336.971 -6.40075 2.62207 0
M  V30 2374 O 337.77 -5.92589 1.53712 0
M  V30 2375 C 335.634 -6.9454 2.18503 0
M  V30 2376 H 335.666 -7.23063 1.12091 0
M  V30 2377 H 336.849 -5.6025 3.37201 0
M  V30 2378 H 338.333 -7.35707 4.02681 0
M  V30 2379 H 336.639 -9.40912 3.9095 0
M  V30 2380 H 336.449 -8.29056 5.99158 0
M  V30 2381 H 334.819 -8.10073 5.25882 0
M  V30 2382 H 337.458 -6.30324 0.726794 0
M  V30 2383 P 339.316 -8.4349 2.47671 0
M  V30 2384 O 340.738 -8.94167 2.5964 0
M  V30 2385 O 338.956 -7.1704 3.19006 0
M  V30 2386 O 338.993 -8.16596 0.923387 0
M  V30 2387 C 338.833 -9.38437 0.108857 0
M  V30 2388 C 339.373 -9.08175 -1.28353 0
M  V30 2389 O 338.317 -8.44229 -1.84713 0
M  V30 2390 C 340.591 -8.18386 -1.42505 0
M  V30 2391 O 341.329 -8.3501 -2.60497 0
M  V30 2392 C 339.922 -6.80225 -1.25468 0
M  V30 2393 O 340.721 -5.81621 -1.91066 0
M  V30 2394 C 338.585 -7.02416 -1.9168 0
M  V30 2395 H 338.617 -6.6888 -2.96621 0
M  V30 2396 H 339.8 -6.53617 -0.192223 0
M  V30 2397 H 341.284 -8.36622 -0.589963 0
M  V30 2398 H 339.59 -10.0291 -1.79807 0
M  V30 2399 H 339.4 -10.2138 0.558219 0
M  V30 2400 H 337.77 -9.6579 0.0444202 0
M  V30 2401 H 340.409 -5.69556 -2.79637 0
M  V30 2402 P 342.266 -8.4349 -2.47671 0
M  V30 2403 O 343.688 -8.92593 -2.65 0
M  V30 2404 O 341.906 -7.7568 -1.19296 0
M  V30 2405 O 341.943 -7.36886 -3.63805 0
M  V30 2406 C 341.783 -7.95349 -4.982 0
M  V30 2407 C 342.323 -6.94612 -5.98974 0
M  V30 2408 O 341.267 -6.10347 -6.11815 0
M  V30 2409 C 343.541 -6.11426 -5.62335 0
M  V30 2410 O 344.279 -5.6162 -6.70584 0
M  V30 2411 C 342.872 -5.04409 -4.73308 0
M  V30 2412 O 343.671 -3.85992 -4.75183 0
M  V30 2413 C 341.535 -4.8728 -5.41006 0
M  V30 2414 H 341.567 -4.02333 -6.11157 0
M  V30 2415 H 342.75 -5.39466 -3.69543 0
M  V30 2416 H 344.234 -6.71916 -5.01943 0
M  V30 2417 H 342.54 -7.4649 -6.93477 0
M  V30 2418 H 342.35 -8.89416 -5.05237 0
M  V30 2419 H 340.72 -8.14876 -5.18409 0
M  V30 2420 H 343.359 -3.27957 -5.4317 0
M  V30 2421 P 345.217 -5.75688 -6.64379 0
M  V30 2422 O 346.639 -6.07627 -7.05504 0
M  V30 2423 O 344.857 -5.88047 -5.19722 0
M  V30 2424 O 344.894 -4.2322 -7.04443 0
M  V30 2425 C 344.734 -3.99743 -8.4911 0
M  V30 2426 C 345.274 -2.60516 -8.79425 0
M  V30 2427 O 344.218 -1.82684 -8.4467 0
M  V30 2428 C 346.492 -2.10343 -8.03628 0
M  V30 2429 O 347.23 -1.09919 -8.67766 0
M  V30 2430 C 345.823 -1.68446 -6.70876 0
M  V30 2431 O 346.622 -0.678137 -6.08433 0
M  V30 2432 C 344.486 -1.17436 -7.18567 0
M  V30 2433 H 344.518 -0.0804732 -7.31656 0
M  V30 2434 H 345.701 -2.54037 -6.02537 0
M  V30 2435 H 347.185 -2.93881 -7.85526 0
M  V30 2436 H 345.491 -2.53065 -9.86973 0
M  V30 2437 H 345.301 -4.75072 -9.05887 0
M  V30 2438 H 343.671 -4.05244 -8.76668 0
M  V30 2439 H 346.31 0.177647 -6.34251 0
M  V30 2440 P 348.167 -1.25109 -8.70152 0
M  V30 2441 O 349.589 -1.29744 -9.22016 0
M  V30 2442 O 347.807 -2.13714 -7.55141 0
M  V30 2443 O 347.844 0.248149 -8.21425 0
M  V30 2444 C 347.684 1.22779 -9.30434 0
M  V30 2445 C 348.224 2.56293 -8.80664 0
M  V30 2446 O 347.168 3.02979 -8.09349 0
M  V30 2447 C 349.442 2.57523 -7.89775 0
M  V30 2448 O 350.18 3.7668 -7.89438 0
M  V30 2449 C 348.773 2.20997 -6.55446 0
M  V30 2450 O 349.572 2.71895 -5.48509 0
M  V30 2451 C 347.436 2.89693 -6.67988 0
M  V30 2452 H 347.468 3.88793 -6.19859 0
M  V30 2453 H 348.651 1.12046 -6.44229 0
M  V30 2454 H 350.135 1.7746 -8.19711 0
M  V30 2455 H 348.441 3.20706 -9.67112 0
M  V30 2456 H 348.251 0.901032 -10.1892 0
M  V30 2457 H 346.621 1.33049 -9.56592 0
M  V30 2458 H 349.26 3.57847 -5.23962 0
M  V30 2459 P 351.118 3.65191 -7.99657 0
M  V30 2460 O 352.54 3.89332 -8.45794 0
M  V30 2461 O 350.758 2.28472 -7.50807 0
M  V30 2462 O 350.795 4.64972 -6.77611 0
M  V30 2463 C 350.635 6.06319 -7.16352 0
M  V30 2464 C 351.175 6.91731 -6.02299 0
M  V30 2465 O 350.119 6.92449 -5.17064 0
M  V30 2466 C 352.393 6.43627 -5.25174 0
M  V30 2467 O 353.131 7.43686 -4.60469 0
M  V30 2468 C 351.724 5.40275 -4.31916 0
M  V30 2469 O 352.523 5.25279 -3.14438 0
M  V30 2470 C 350.387 6.04847 -4.05327 0
M  V30 2471 H 350.419 6.62195 -3.11261 0
M  V30 2472 H 351.602 4.42556 -4.81383 0
M  V30 2473 H 353.086 5.92458 -5.93643 0
M  V30 2474 H 351.392 7.92655 -6.402 0
M  V30 2475 H 351.202 6.26671 -8.0846 0
M  V30 2476 H 349.572 6.29101 -7.32804 0
M  V30 2477 H 352.211 5.84315 -2.47318 0
M  V30 2478 P 354.068 7.39546 -4.75277 0
M  V30 2479 O 355.49 7.84966 -5.01146 0
M  V30 2480 O 353.708 5.9812 -5.08098 0
M  V30 2481 O 353.745 7.57503 -3.1866 0
M  V30 2482 C 353.585 8.97357 -2.74833 0
M  V30 2483 C 354.125 9.0745 -1.32694 0
M  V30 2484 O 353.07 8.62072 -0.606159 0
M  V30 2485 C 355.343 8.25383 -0.938334 0
M  V30 2486 O 356.081 8.74577 0.146954 0
M  V30 2487 C 354.675 6.8802 -0.712559 0
M  V30 2488 O 355.473 6.11791 0.194623 0
M  V30 2489 C 353.337 7.27966 -0.139777 0
M  V30 2490 N 352.294 6.39368 -0.623421 0
M  V30 2491 C 352.356 5.90299 -1.85969 0
M  V30 2492 N 351.311 5.10919 -2.1133 0
M  V30 2493 C 350.577 5.14646 -1.0015 0
M  V30 2494 C 349.271 4.60057 -0.729219 0
M  V30 2495 O 348.538 3.93476 -1.47746 0
M  V30 2496 N 348.841 4.88302 0.523505 0
M  V30 2497 C 349.59 5.63646 1.46207 0
M  V30 2498 N 348.993 5.78186 2.69239 0
M  V30 2499 N 350.743 6.19285 1.21544 0
M  V30 2500 C 351.2 5.93392 -0.0308487 0
M  V30 2501 H 353.369 7.25354 0.961601 0
M  V30 2502 H 354.552 6.3246 -1.65676 0
M  V30 2503 H 356.037 8.19533 -1.78278 0
M  V30 2504 H 354.342 10.1294 -1.10029 0
M  V30 2505 H 354.152 9.64276 -3.41316 0
M  V30 2506 H 352.521 9.25417 -2.76357 0
M  V30 2507 H 347.945 4.53993 0.806451 0
M  V30 2508 H 353.152 6.11865 -2.57394 0
M  V30 2509 H 348.082 5.34046 2.87467 0
M  V30 2510 H 349.458 6.33391 3.42578 0
M  V30 2511 H 355.162 6.25169 1.0783 0
M  V30 2512 P 357.019 8.791 1.66284e-12 0
M  V30 2513 O 358.441 9.31096 0.027933 0
M  V30 2514 O 356.659 7.77869 -1.04071 0
M  V30 2515 O 356.696 8.09533 1.41463 0
M  V30 2516 C 356.536 9.0349 2.53943 0
M  V30 2517 C 357.076 8.35226 3.79016 0
M  V30 2518 O 356.02 7.57992 4.15078 0
M  V30 2519 C 358.294 7.45087 3.67298 0
M  V30 2520 O 359.032 7.27796 4.85194 0
M  V30 2521 C 357.625 6.17323 3.12027 0
M  V30 2522 O 358.424 5.04231 3.47188 0
M  V30 2523 C 356.288 6.19961 3.81809 0
M  V30 2524 H 356.32 5.58218 4.73051 0
M  V30 2525 H 357.503 6.21726 2.02589 0
M  V30 2526 H 358.987 7.86112 2.9231 0
M  V30 2527 H 357.293 9.11627 4.55076 0
M  V30 2528 H 357.103 9.9573 2.34194 0
M  V30 2529 H 355.473 9.2792 2.67832 0
M  V30 2530 H 358.112 4.67702 4.28772 0
M  V30 2531 P 359.97 7.39546 4.75277 0
M  V30 2532 O 361.392 7.81777 5.05738 0
M  V30 2533 O 359.61 7.1065 3.32998 0
M  V30 2534 O 359.647 6.04542 5.56673 0
M  V30 2535 C 359.487 6.22772 7.02095 0
M  V30 2536 C 360.027 4.97725 7.70406 0
M  V30 2537 O 358.971 4.13256 7.58987 0
M  V30 2538 C 361.245 4.28231 7.11815 0
M  V30 2539 O 361.983 3.49945 8.01648 0
M  V30 2540 C 360.576 3.5063 5.96244 0
M  V30 2541 O 361.375 2.36482 5.64681 0
M  V30 2542 C 359.239 3.15122 6.56374 0
M  V30 2543 H 359.271 2.13853 6.99751 0
M  V30 2544 H 360.454 4.13501 5.06559 0
M  V30 2545 H 361.938 5.03285 6.70911 0
M  V30 2546 H 360.244 5.20877 8.75697 0
M  V30 2547 H 360.054 7.11046 7.35349 0
M  V30 2548 H 358.424 6.35815 7.26986 0
M  V30 2549 H 361.063 1.61644 6.13565 0
M  V30 2550 P 362.92 3.65191 7.99657 0
M  V30 2551 O 364.342 3.8425 8.48115 0
M  V30 2552 O 362.56 4.17805 6.64342 0
M  V30 2553 O 362.597 2.07613 7.95143 0
M  V30 2554 C 362.437 1.44328 9.27336 0
M  V30 2555 C 362.977 0.0220036 9.17197 0
M  V30 2556 O 361.921 -0.626867 8.61923 0
M  V30 2557 C 364.195 -0.24586 8.30336 0
M  V30 2558 O 364.933 -1.39011 8.63583 0
M  V30 2559 C 363.526 -0.273849 6.91158 0
M  V30 2560 O 364.325 -1.06348 6.02892 0
M  V30 2561 C 362.189 -0.897649 7.22545 0
M  V30 2562 H 362.221 -1.9841 7.04286 0
M  V30 2563 H 363.404 0.739928 6.497 0
M  V30 2564 H 364.888 0.60668 8.36503 0
M  V30 2565 H 363.194 -0.352479 10.1829 0
M  V30 2566 H 363.004 2.00611 10.0304 0
M  V30 2567 H 361.374 1.41843 9.55327 0
M  V30 2568 H 364.013 -1.95734 6.03555 0
M  V30 2569 P 365.871 -1.25109 8.70152 0
M  V30 2570 O 367.293 -1.35274 9.21221 0
M  V30 2571 O 365.511 -0.0769065 7.84762 0
M  V30 2572 O 365.548 -2.55232 7.81161 0
M  V30 2573 C 365.388 -3.79939 8.58154 0
M  V30 2574 C 365.928 -4.94023 7.72785 0
M  V30 2575 O 364.872 -5.18726 6.91205 0
M  V30 2576 C 367.146 -4.69597 6.85231 0
M  V30 2577 O 367.884 -5.83832 6.51337 0
M  V30 2578 C 366.477 -3.96706 5.66633 0
M  V30 2579 O 367.276 -4.15414 4.49689 0
M  V30 2580 C 365.14 -4.66153 5.59313 0
M  V30 2581 H 365.172 -5.47679 4.85214 0
M  V30 2582 H 366.355 -2.89008 5.86566 0
M  V30 2583 H 367.839 -4.0121 7.36511 0
M  V30 2584 H 366.145 -5.80182 8.37584 0
M  V30 2585 H 365.955 -3.73517 9.52265 0
M  V30 2586 H 364.325 -3.97163 8.80359 0
M  V30 2587 H 366.964 -4.90969 4.01921 0
M  V30 2588 P 368.821 -5.75688 6.64379 0
M  V30 2589 O 370.243 -6.11849 7.01846 0
M  V30 2590 O 368.461 -4.30744 6.56026 0
M  V30 2591 O 368.498 -6.37042 5.19165 0
M  V30 2592 C 368.338 -7.83578 5.16515 0
M  V30 2593 C 368.878 -8.33398 3.83019 0
M  V30 2594 O 367.822 -8.10074 3.01034 0
M  V30 2595 C 370.096 -7.65514 3.2257 0
M  V30 2596 O 370.834 -8.4329 2.32297 0
M  V30 2597 C 369.427 -6.40075 2.62207 0
M  V30 2598 O 370.226 -5.92589 1.53712 0
M  V30 2599 C 368.09 -6.9454 2.18503 0
M  V30 2600 H 368.122 -7.23063 1.12091 0
M  V30 2601 H 369.305 -5.6025 3.37201 0
M  V30 2602 H 370.789 -7.35707 4.02681 0
M  V30 2603 H 369.095 -9.40912 3.9095 0
M  V30 2604 H 368.905 -8.29056 5.99158 0
M  V30 2605 H 367.275 -8.10073 5.25882 0
M  V30 2606 H 369.914 -6.30324 0.726794 0
M  V30 2607 P 371.772 -8.4349 2.47671 0
M  V30 2608 O 373.194 -8.94167 2.5964 0
M  V30 2609 O 371.412 -7.1704 3.19006 0
M  V30 2610 O 371.449 -8.16596 0.923387 0
M  V30 2611 C 371.289 -9.38437 0.108857 0
M  V30 2612 C 371.829 -9.08175 -1.28353 0
M  V30 2613 O 370.773 -8.44229 -1.84713 0
M  V30 2614 C 373.047 -8.18386 -1.42505 0
M  V30 2615 O 373.785 -8.3501 -2.60497 0
M  V30 2616 C 372.378 -6.80225 -1.25468 0
M  V30 2617 O 373.177 -5.81621 -1.91066 0
M  V30 2618 C 371.041 -7.02416 -1.9168 0
M  V30 2619 H 371.073 -6.6888 -2.96621 0
M  V30 2620 H 372.256 -6.53617 -0.192223 0
M  V30 2621 H 373.74 -8.36622 -0.589963 0
M  V30 2622 H 372.046 -10.0291 -1.79807 0
M  V30 2623 H 371.856 -10.2138 0.558219 0
M  V30 2624 H 370.226 -9.6579 0.0444202 0
M  V30 2625 H 372.865 -5.69556 -2.79637 0
M  V30 2626 P 374.722 -8.4349 -2.47671 0
M  V30 2627 O 376.143 -8.92689 -2.65029 0
M  V30 2628 O 374.362 -7.7568 -1.19296 0
M  V30 2629 O 374.399 -7.36886 -3.63805 0
M  V30 2630 C 374.238 -7.95433 -4.98253 0
M  V30 2631 C 374.779 -6.94612 -5.98974 0
M  V30 2632 O 373.724 -6.10277 -6.11744 0
M  V30 2633 C 375.997 -6.11426 -5.62335 0
M  V30 2634 O 376.735 -5.6162 -6.70584 0
M  V30 2635 C 375.329 -5.04409 -4.73308 0
M  V30 2636 O 376.127 -3.86404 -4.74719 0
M  V30 2637 C 373.991 -4.8728 -5.41006 0
M  V30 2638 N 372.948 -4.65812 -4.42377 0
M  V30 2639 C 373.117 -5.09132 -3.15382 0
M  V30 2640 N 372.09 -4.84021 -2.3716 0
M  V30 2641 C 371.205 -4.18386 -3.20441 0
M  V30 2642 C 369.938 -3.6275 -2.94905 0
M  V30 2643 N 369.373 -3.05008 -4.05243 0
M  V30 2644 C 369.975 -2.98348 -5.28159 0
M  V30 2645 N 371.152 -3.48171 -5.56333 0
M  V30 2646 C 371.727 -4.06869 -4.47212 0
M  V30 2647 H 375.206 -5.39013 -3.70026 0
M  V30 2648 H 376.689 -6.71916 -5.01943 0
M  V30 2649 H 374.995 -7.45796 -6.94223 0
M  V30 2650 H 374.805 -8.89416 -5.05237 0
M  V30 2651 H 373.175 -8.14876 -5.18409 0
M  V30 2652 H 374.017 -5.59989 -2.81362 0
M  V30 2653 H 375.815 -3.27906 -5.43085 0
M  V30 2654 P 377.673 -5.75688 -6.64379 0
M  V30 2655 O 379.095 -6.07627 -7.05504 0
M  V30 2656 O 377.313 -5.88047 -5.19722 0
M  V30 2657 O 377.35 -4.2322 -7.04443 0
M  V30 2658 C 377.19 -3.99743 -8.4911 0
M  V30 2659 C 377.73 -2.60516 -8.79425 0
M  V30 2660 O 376.674 -1.82684 -8.4467 0
M  V30 2661 C 378.948 -2.10343 -8.03628 0
M  V30 2662 O 379.686 -1.09919 -8.67766 0
M  V30 2663 C 378.279 -1.68446 -6.70876 0
M  V30 2664 O 379.078 -0.678137 -6.08433 0
M  V30 2665 C 376.942 -1.17436 -7.18567 0
M  V30 2666 H 376.974 -0.0804732 -7.31656 0
M  V30 2667 H 378.157 -2.54037 -6.02537 0
M  V30 2668 H 379.641 -2.93881 -7.85526 0
M  V30 2669 H 377.947 -2.53065 -9.86973 0
M  V30 2670 H 377.757 -4.75072 -9.05887 0
M  V30 2671 H 376.127 -4.05244 -8.76668 0
M  V30 2672 H 378.766 0.177647 -6.34251 0
M  V30 2673 P 380.624 -1.25109 -8.70152 0
M  V30 2674 O 382.046 -1.29744 -9.22016 0
M  V30 2675 O 380.264 -2.13714 -7.55141 0
M  V30 2676 O 380.301 0.248149 -8.21425 0
M  V30 2677 C 380.141 1.22779 -9.30434 0
M  V30 2678 C 380.681 2.56293 -8.80664 0
M  V30 2679 O 379.625 3.02979 -8.09349 0
M  V30 2680 C 381.899 2.57523 -7.89775 0
M  V30 2681 O 382.637 3.7668 -7.89438 0
M  V30 2682 C 381.23 2.20997 -6.55446 0
M  V30 2683 O 382.029 2.71895 -5.48509 0
M  V30 2684 C 379.893 2.89693 -6.67988 0
M  V30 2685 H 379.925 3.88793 -6.19859 0
M  V30 2686 H 381.108 1.12046 -6.44229 0
M  V30 2687 H 382.592 1.7746 -8.19711 0
M  V30 2688 H 380.898 3.20706 -9.67112 0
M  V30 2689 H 380.708 0.901032 -10.1892 0
M  V30 2690 H 379.078 1.33049 -9.56592 0
M  V30 2691 H 381.717 3.57847 -5.23962 0
M  V30 2692 P 383.574 3.65191 -7.99657 0
M  V30 2693 O 384.996 3.89332 -8.45794 0
M  V30 2694 O 383.214 2.28472 -7.50807 0
M  V30 2695 O 383.251 4.64972 -6.77611 0
M  V30 2696 C 383.091 6.06319 -7.16352 0
M  V30 2697 C 383.631 6.91731 -6.02299 0
M  V30 2698 O 382.575 6.92449 -5.17064 0
M  V30 2699 C 384.849 6.43627 -5.25174 0
M  V30 2700 O 385.587 7.43686 -4.60469 0
M  V30 2701 C 384.18 5.40275 -4.31916 0
M  V30 2702 O 384.979 5.25279 -3.14438 0
M  V30 2703 C 382.843 6.04847 -4.05327 0
M  V30 2704 H 382.875 6.62195 -3.11261 0
M  V30 2705 H 384.058 4.42556 -4.81383 0
M  V30 2706 H 385.542 5.92458 -5.93643 0
M  V30 2707 H 383.848 7.92655 -6.402 0
M  V30 2708 H 383.658 6.26671 -8.0846 0
M  V30 2709 H 382.028 6.29101 -7.32804 0
M  V30 2710 H 384.667 5.84315 -2.47318 0
M  V30 2711 P 386.525 7.39546 -4.75277 0
M  V30 2712 O 387.946 7.84882 -5.01092 0
M  V30 2713 O 386.165 5.9812 -5.08098 0
M  V30 2714 O 386.202 7.57503 -3.1866 0
M  V30 2715 C 386.041 8.97452 -2.74862 0
M  V30 2716 C 386.582 9.07548 -1.32709 0
M  V30 2717 O 385.527 8.61972 -0.606089 0
M  V30 2718 C 387.8 8.25383 -0.938334 0
M  V30 2719 O 388.538 8.74577 0.146954 0
M  V30 2720 C 387.132 6.8802 -0.712559 0
M  V30 2721 O 387.93 6.1181 0.188505 0
M  V30 2722 C 385.794 7.27966 -0.139777 0
M  V30 2723 N 384.751 6.39368 -0.623421 0
M  V30 2724 C 384.92 5.71761 -1.78245 0
M  V30 2725 N 383.893 4.962 -2.10491 0
M  V30 2726 C 383.008 5.16158 -1.0635 0
M  V30 2727 C 381.741 4.60425 -0.810266 0
M  V30 2728 N 381.176 5.06 0.348685 0
M  V30 2729 C 381.778 5.94532 1.20395 0
M  V30 2730 N 382.955 6.48452 1.01191 0
M  V30 2731 C 383.53 6.04423 -0.146291 0
M  V30 2732 H 387.009 6.32625 -1.65044 0
M  V30 2733 H 388.492 8.19355 -1.79097 0
M  V30 2734 H 386.798 10.1305 -1.09016 0
M  V30 2735 H 386.608 9.64276 -3.41316 0
M  V30 2736 H 384.978 9.25417 -2.76357 0
M  V30 2737 H 385.82 5.79354 -2.38959 0
M  V30 2738 H 387.618 6.25169 1.0783 0
M  V30 2739 P 389.475 8.791 1.973e-12 0
M  V30 2740 O 390.896 9.31196 0.027936 0
M  V30 2741 O 389.115 7.77869 -1.04071 0
M  V30 2742 O 389.152 8.09533 1.41463 0
M  V30 2743 C 388.991 9.03587 2.5397 0
M  V30 2744 C 389.532 8.35226 3.79016 0
M  V30 2745 O 388.477 7.57904 4.1503 0
M  V30 2746 C 390.75 7.45087 3.67298 0
M  V30 2747 O 391.488 7.27796 4.85194 0
M  V30 2748 C 390.082 6.17323 3.12027 0
M  V30 2749 O 390.88 5.04496 3.46627 0
M  V30 2750 C 388.744 6.19961 3.81809 0
M  V30 2751 N 387.701 5.71575 2.93223 0
M  V30 2752 C 387.87 5.77362 1.59168 0
M  V30 2753 N 386.843 5.3123 0.911893 0
M  V30 2754 C 385.958 4.91717 1.89588 0
M  V30 2755 C 384.691 4.3114 1.8076 0
M  V30 2756 N 384.092 3.99821 0.632928 0
M  V30 2757 N 384.126 4.06823 3.02898 0
M  V30 2758 C 384.728 4.35062 4.22711 0
M  V30 2759 N 385.905 4.90805 4.35707 0
M  V30 2760 C 386.48 5.16382 3.14469 0
M  V30 2761 H 388.776 5.58142 4.72986 0
M  V30 2762 H 389.959 6.21428 2.0318 0
M  V30 2763 H 391.442 7.86112 2.9231 0
M  V30 2764 H 389.748 9.11171 4.55987 0
M  V30 2765 H 389.558 9.9573 2.34194 0
M  V30 2766 H 387.928 9.2792 2.67832 0
M  V30 2767 H 384.192 4.09052 5.13359 0
M  V30 2768 H 388.77 6.16575 1.12198 0
M  V30 2769 H 383.162 3.55423 0.632085 0
M  V30 2770 H 384.566 4.20317 -0.256712 0
M  V30 2771 H 390.568 4.67628 4.28704 0
M  V30 2772 P 392.426 7.39546 4.75277 0
M  V30 2773 O 393.848 7.81777 5.05738 0
M  V30 2774 O 392.066 7.1065 3.32998 0
M  V30 2775 O 392.103 6.04542 5.56673 0
M  V30 2776 C 391.943 6.22772 7.02095 0
M  V30 2777 C 392.483 4.97725 7.70406 0
M  V30 2778 O 391.427 4.13256 7.58987 0
M  V30 2779 C 393.701 4.28231 7.11815 0
M  V30 2780 O 394.439 3.49945 8.01648 0
M  V30 2781 C 393.032 3.5063 5.96244 0
M  V30 2782 O 393.831 2.36482 5.64681 0
M  V30 2783 C 391.695 3.15122 6.56374 0
M  V30 2784 H 391.727 2.13853 6.99751 0
M  V30 2785 H 392.91 4.13501 5.06559 0
M  V30 2786 H 394.394 5.03285 6.70911 0
M  V30 2787 H 392.7 5.20877 8.75697 0
M  V30 2788 H 392.51 7.11046 7.35349 0
M  V30 2789 H 390.88 6.35815 7.26986 0
M  V30 2790 H 393.519 1.61644 6.13565 0
M  V30 2791 P 395.376 3.65191 7.99657 0
M  V30 2792 O 396.798 3.8425 8.48115 0
M  V30 2793 O 395.016 4.17805 6.64342 0
M  V30 2794 O 395.053 2.07613 7.95143 0
M  V30 2795 C 394.893 1.44328 9.27336 0
M  V30 2796 C 395.433 0.0220036 9.17197 0
M  V30 2797 O 394.377 -0.626867 8.61923 0
M  V30 2798 C 396.651 -0.24586 8.30336 0
M  V30 2799 O 397.389 -1.39011 8.63583 0
M  V30 2800 C 395.982 -0.273849 6.91158 0
M  V30 2801 O 396.781 -1.06348 6.02892 0
M  V30 2802 C 394.645 -0.897649 7.22545 0
M  V30 2803 H 394.677 -1.9841 7.04286 0
M  V30 2804 H 395.86 0.739928 6.497 0
M  V30 2805 H 397.344 0.60668 8.36503 0
M  V30 2806 H 395.65 -0.352479 10.1829 0
M  V30 2807 H 395.46 2.00611 10.0304 0
M  V30 2808 H 393.83 1.41843 9.55327 0
M  V30 2809 H 396.469 -1.95734 6.03555 0
M  V30 2810 P 398.327 -1.25109 8.70152 0
M  V30 2811 O 399.749 -1.35274 9.21221 0
M  V30 2812 O 397.967 -0.0769065 7.84762 0
M  V30 2813 O 398.004 -2.55232 7.81161 0
M  V30 2814 C 397.844 -3.79939 8.58154 0
M  V30 2815 C 398.384 -4.94023 7.72785 0
M  V30 2816 O 397.328 -5.18726 6.91205 0
M  V30 2817 C 399.602 -4.69597 6.85231 0
M  V30 2818 O 400.34 -5.83832 6.51337 0
M  V30 2819 C 398.933 -3.96706 5.66633 0
M  V30 2820 O 399.732 -4.15414 4.49689 0
M  V30 2821 C 397.596 -4.66153 5.59313 0
M  V30 2822 H 397.628 -5.47679 4.85214 0
M  V30 2823 H 398.811 -2.89008 5.86566 0
M  V30 2824 H 400.295 -4.0121 7.36511 0
M  V30 2825 H 398.601 -5.80182 8.37584 0
M  V30 2826 H 398.411 -3.73517 9.52265 0
M  V30 2827 H 396.781 -3.97163 8.80359 0
M  V30 2828 H 399.42 -4.90969 4.01921 0
M  V30 2829 P 401.278 -5.75688 6.64379 0
M  V30 2830 O 402.7 -6.11981 7.01997 0
M  V30 2831 O 400.918 -4.30744 6.56026 0
M  V30 2832 O 400.955 -6.37042 5.19165 0
M  V30 2833 C 400.795 -7.83578 5.16515 0
M  V30 2834 C 401.335 -8.33307 3.82977 0
M  V30 2835 O 400.28 -8.10074 3.01034 0
M  V30 2836 C 402.553 -7.65514 3.2257 0
M  V30 2837 O 403.291 -8.4329 2.32297 0
M  V30 2838 C 401.885 -6.40075 2.62207 0
M  V30 2839 O 402.683 -5.92492 1.53687 0
M  V30 2840 C 400.547 -6.9454 2.18503 0
M  V30 2841 N 399.504 -5.95905 2.39948 0
M  V30 2842 C 399.566 -5.13994 3.44742 0
M  V30 2843 N 398.521 -4.30684 3.46712 0
M  V30 2844 C 397.787 -4.65583 2.41086 0
M  V30 2845 C 396.481 -4.20877 1.99581 0
M  V30 2846 O 395.748 -3.35913 2.52616 0
M  V30 2847 N 396.051 -4.83271 0.873406 0
M  V30 2848 C 396.8 -5.82006 0.185129 0
M  V30 2849 N 396.203 -6.30619 -0.95439 0
M  V30 2850 N 397.953 -6.28443 0.578524 0
M  V30 2851 C 398.41 -5.68486 1.70138 0
M  V30 2852 H 400.579 -7.23063 1.12091 0
M  V30 2853 H 401.762 -5.60165 3.3715 0
M  V30 2854 H 403.247 -7.3611 4.01946 0
M  V30 2855 H 401.552 -9.40912 3.9095 0
M  V30 2856 H 401.362 -8.29056 5.99158 0
M  V30 2857 H 399.731 -8.10073 5.25882 0
M  V30 2858 H 395.155 -4.58323 0.505262 0
M  V30 2859 H 400.362 -5.14564 4.1935 0
M  V30 2860 H 395.292 -5.93402 -1.25364 0
M  V30 2861 H 396.668 -7.0425 -1.50254 0
M  V30 2862 H 402.372 -6.30224 0.72668 0
M  V30 2863 P 404.228 -8.4349 2.47671 0
M  V30 2864 O 405.65 -8.94167 2.5964 0
M  V30 2865 O 403.868 -7.1704 3.19006 0
M  V30 2866 O 403.905 -8.16596 0.923387 0
M  V30 2867 C 403.745 -9.38437 0.108857 0
M  V30 2868 C 404.285 -9.08175 -1.28353 0
M  V30 2869 O 403.229 -8.44229 -1.84713 0
M  V30 2870 C 405.503 -8.18386 -1.42505 0
M  V30 2871 O 406.241 -8.3501 -2.60497 0
M  V30 2872 C 404.834 -6.80225 -1.25468 0
M  V30 2873 O 405.633 -5.81621 -1.91066 0
M  V30 2874 C 403.497 -7.02416 -1.9168 0
M  V30 2875 H 403.529 -6.6888 -2.96621 0
M  V30 2876 H 404.712 -6.53617 -0.192223 0
M  V30 2877 H 406.196 -8.36622 -0.589963 0
M  V30 2878 H 404.502 -10.0291 -1.79807 0
M  V30 2879 H 404.312 -10.2138 0.558219 0
M  V30 2880 H 402.682 -9.6579 0.0444202 0
M  V30 2881 H 405.321 -5.69556 -2.79637 0
M  V30 2882 P 407.179 -8.4349 -2.47671 0
M  V30 2883 O 408.6 -8.92689 -2.65029 0
M  V30 2884 O 406.819 -7.7568 -1.19296 0
M  V30 2885 O 406.856 -7.36886 -3.63805 0
M  V30 2886 C 406.695 -7.95433 -4.98253 0
M  V30 2887 C 407.236 -6.94612 -5.98974 0
M  V30 2888 O 406.181 -6.10277 -6.11744 0
M  V30 2889 C 408.454 -6.11426 -5.62335 0
M  V30 2890 O 409.192 -5.6162 -6.70584 0
M  V30 2891 C 407.786 -5.04409 -4.73308 0
M  V30 2892 O 408.584 -3.86404 -4.74719 0
M  V30 2893 C 406.448 -4.8728 -5.41006 0
M  V30 2894 N 405.405 -4.65812 -4.42377 0
M  V30 2895 C 405.574 -5.09132 -3.15382 0
M  V30 2896 N 404.547 -4.84021 -2.3716 0
M  V30 2897 C 403.662 -4.18386 -3.20441 0
M  V30 2898 C 402.395 -3.6275 -2.94905 0
M  V30 2899 N 401.796 -3.65794 -1.73372 0
M  V30 2900 N 401.83 -3.05008 -4.05243 0
M  V30 2901 C 402.432 -2.98348 -5.28159 0
M  V30 2902 N 403.609 -3.48171 -5.56333 0
M  V30 2903 C 404.184 -4.06869 -4.47212 0
M  V30 2904 H 406.48 -4.02278 -6.11074 0
M  V30 2905 H 407.663 -5.39013 -3.70026 0
M  V30 2906 H 409.146 -6.71916 -5.01943 0
M  V30 2907 H 407.452 -7.45796 -6.94223 0
M  V30 2908 H 407.262 -8.89416 -5.05237 0
M  V30 2909 H 405.632 -8.14876 -5.18409 0
M  V30 2910 H 401.896 -2.47853 -6.07807 0
M  V30 2911 H 406.474 -5.59989 -2.81362 0
M  V30 2912 H 400.866 -3.23218 -1.60782 0
M  V30 2913 H 402.27 -4.10523 -0.937856 0
M  V30 2914 H 408.272 -3.27906 -5.43085 0
M  V30 2915 P 410.129 -5.75688 -6.64379 0
M  V30 2916 O 411.55 -6.07692 -7.0558 0
M  V30 2917 O 409.769 -5.88047 -5.19722 0
M  V30 2918 O 409.806 -4.2322 -7.04443 0
M  V30 2919 C 409.645 -3.99785 -8.49201 0
M  V30 2920 C 410.186 -2.60516 -8.79425 0
M  V30 2921 O 409.131 -1.82663 -8.44573 0
M  V30 2922 C 411.404 -2.10343 -8.03628 0
M  V30 2923 O 412.142 -1.09919 -8.67766 0
M  V30 2924 C 410.736 -1.68446 -6.70876 0
M  V30 2925 O 411.534 -0.684109 -6.08265 0
M  V30 2926 C 409.398 -1.17436 -7.18567 0
M  V30 2927 N 408.355 -1.52699 -6.23988 0
M  V30 2928 C 408.524 -2.578 -5.40574 0
M  V30 2929 N 407.497 -2.78966 -4.61193 0
M  V30 2930 C 406.612 -1.78725 -4.95769 0
M  V30 2931 C 405.345 -1.45727 -4.44207 0
M  V30 2932 N 404.78 -0.374977 -5.05812 0
M  V30 2933 C 405.382 0.345585 -6.05615 0
M  V30 2934 N 406.559 0.0787651 -6.56253 0
M  V30 2935 C 407.134 -1.00499 -5.96189 0
M  V30 2936 H 410.613 -2.53396 -6.02698 0
M  V30 2937 H 412.096 -2.93881 -7.85526 0
M  V30 2938 H 410.402 -2.52078 -9.87225 0
M  V30 2939 H 410.212 -4.75072 -9.05887 0
M  V30 2940 H 408.582 -4.05244 -8.76668 0
M  V30 2941 H 409.424 -3.18977 -5.3945 0
M  V30 2942 H 411.222 0.177619 -6.34151 0
M  V30 2943 P 413.08 -1.25109 -8.70152 0
M  V30 2944 O 414.502 -1.29744 -9.22016 0
M  V30 2945 O 412.72 -2.13714 -7.55141 0
M  V30 2946 O 412.757 0.248149 -8.21425 0
M  V30 2947 C 412.597 1.22779 -9.30434 0
M  V30 2948 C 413.137 2.56293 -8.80664 0
M  V30 2949 O 412.081 3.02979 -8.09349 0
M  V30 2950 C 414.355 2.57523 -7.89775 0
M  V30 2951 O 415.093 3.7668 -7.89438 0
M  V30 2952 C 413.686 2.20997 -6.55446 0
M  V30 2953 O 414.485 2.71895 -5.48509 0
M  V30 2954 C 412.349 2.89693 -6.67988 0
M  V30 2955 H 412.381 3.88793 -6.19859 0
M  V30 2956 H 413.564 1.12046 -6.44229 0
M  V30 2957 H 415.048 1.7746 -8.19711 0
M  V30 2958 H 413.354 3.20706 -9.67112 0
M  V30 2959 H 413.164 0.901032 -10.1892 0
M  V30 2960 H 411.534 1.33049 -9.56592 0
M  V30 2961 H 414.173 3.57847 -5.23962 0
M  V30 2962 P 416.03 3.65191 -7.99657 0
M  V30 2963 O 417.451 3.89374 -8.45885 0
M  V30 2964 O 415.67 2.28472 -7.50807 0
M  V30 2965 O 415.707 4.64972 -6.77611 0
M  V30 2966 C 415.546 6.06383 -7.16428 0
M  V30 2967 C 416.087 6.91731 -6.02299 0
M  V30 2968 O 415.032 6.92369 -5.17005 0
M  V30 2969 C 417.305 6.43627 -5.25174 0
M  V30 2970 O 418.043 7.43686 -4.60469 0
M  V30 2971 C 416.637 5.40275 -4.31916 0
M  V30 2972 O 417.435 5.24878 -3.14911 0
M  V30 2973 C 415.299 6.04847 -4.05327 0
M  V30 2974 N 414.256 5.04166 -3.98114 0
M  V30 2975 C 414.425 3.84629 -4.59066 0
M  V30 2976 N 413.398 3.0363 -4.45343 0
M  V30 2977 C 412.513 3.76722 -3.68523 0
M  V30 2978 C 411.246 3.43528 -3.17088 0
M  V30 2979 N 410.681 4.44526 -2.44231 0
M  V30 2980 C 411.283 5.65243 -2.20146 0
M  V30 2981 N 412.46 6.00221 -2.65453 0
M  V30 2982 C 413.035 5.00564 -3.39083 0
M  V30 2983 H 416.514 4.42969 -4.80867 0
M  V30 2984 H 417.997 5.92458 -5.93643 0
M  V30 2985 H 416.303 7.93295 -6.39407 0
M  V30 2986 H 416.113 6.26671 -8.0846 0
M  V30 2987 H 414.483 6.29101 -7.32804 0
M  V30 2988 H 415.325 3.58193 -5.14248 0
M  V30 2989 H 417.123 5.84223 -2.47279 0
M  V30 2990 P 418.981 7.39546 -4.75277 0
M  V30 2991 O 420.403 7.84798 -5.01039 0
M  V30 2992 O 418.621 5.9812 -5.08098 0
M  V30 2993 O 418.658 7.57503 -3.1866 0
M  V30 2994 C 418.498 8.97357 -2.74833 0
M  V30 2995 C 419.038 9.07548 -1.32709 0
M  V30 2996 O 417.982 8.62072 -0.606159 0
M  V30 2997 C 420.256 8.25383 -0.938334 0
M  V30 2998 O 420.994 8.74577 0.146954 0
M  V30 2999 C 419.587 6.8802 -0.712559 0
M  V30 3000 O 420.386 6.1189 0.194655 0
M  V30 3001 C 418.25 7.27966 -0.139777 0
M  V30 3002 H 418.282 7.25354 0.961601 0
M  V30 3003 H 419.465 6.32557 -1.65702 0
M  V30 3004 H 420.949 8.19355 -1.79097 0
M  V30 3005 H 419.255 10.1294 -1.10029 0
M  V30 3006 H 419.065 9.64276 -3.41316 0
M  V30 3007 H 417.435 9.25417 -2.76357 0
M  V30 3008 H 420.074 6.25267 1.07847 0
M  V30 3009 P 421.932 8.791 2.28317e-12 0
M  V30 3010 O 423.354 9.31096 0.027933 0
M  V30 3011 O 421.572 7.77869 -1.04071 0
M  V30 3012 O 421.609 8.09533 1.41463 0
M  V30 3013 C 421.449 9.0349 2.53943 0
M  V30 3014 C 421.989 8.35226 3.79016 0
M  V30 3015 O 420.933 7.57992 4.15078 0
M  V30 3016 C 423.207 7.45087 3.67298 0
M  V30 3017 O 423.945 7.27796 4.85194 0
M  V30 3018 C 422.538 6.17323 3.12027 0
M  V30 3019 O 423.337 5.04231 3.47188 0
M  V30 3020 C 421.201 6.19961 3.81809 0
M  V30 3021 H 421.233 5.58218 4.73051 0
M  V30 3022 H 422.416 6.21726 2.02589 0
M  V30 3023 H 423.9 7.86112 2.9231 0
M  V30 3024 H 422.206 9.11627 4.55076 0
M  V30 3025 H 422.016 9.9573 2.34194 0
M  V30 3026 H 420.386 9.2792 2.67832 0
M  V30 3027 H 423.025 4.67702 4.28772 0
M  V30 3028 P 424.882 7.39546 4.75277 0
M  V30 3029 O 426.304 7.81777 5.05738 0
M  V30 3030 O 424.522 7.1065 3.32998 0
M  V30 3031 O 424.559 6.04542 5.56673 0
M  V30 3032 C 424.399 6.22772 7.02095 0
M  V30 3033 C 424.939 4.97725 7.70406 0
M  V30 3034 O 423.883 4.13256 7.58987 0
M  V30 3035 C 426.157 4.28231 7.11815 0
M  V30 3036 O 426.895 3.49945 8.01648 0
M  V30 3037 C 425.488 3.5063 5.96244 0
M  V30 3038 O 426.287 2.36482 5.64681 0
M  V30 3039 C 424.151 3.15122 6.56374 0
M  V30 3040 H 424.183 2.13853 6.99751 0
M  V30 3041 H 425.366 4.13501 5.06559 0
M  V30 3042 H 426.85 5.03285 6.70911 0
M  V30 3043 H 425.156 5.20877 8.75697 0
M  V30 3044 H 424.966 7.11046 7.35349 0
M  V30 3045 H 423.336 6.35815 7.26986 0
M  V30 3046 H 425.975 1.61644 6.13565 0
M  V30 3047 P 427.833 3.65191 7.99657 0
M  V30 3048 O 429.255 3.84333 8.48297 0
M  V30 3049 O 427.473 4.17805 6.64342 0
M  V30 3050 O 427.51 2.07613 7.95143 0
M  V30 3051 C 427.35 1.44328 9.27336 0
M  V30 3052 C 427.89 0.0220012 9.17097 0
M  V30 3053 O 426.835 -0.626867 8.61923 0
M  V30 3054 C 429.108 -0.24586 8.30336 0
M  V30 3055 O 429.846 -1.39011 8.63583 0
M  V30 3056 C 428.44 -0.273849 6.91158 0
M  V30 3057 O 429.238 -1.06331 6.02794 0
M  V30 3058 C 427.102 -0.897649 7.22545 0
M  V30 3059 N 426.059 -0.292839 6.41732 0
M  V30 3060 C 426.121 1.00068 6.10757 0
M  V30 3061 N 425.076 1.36468 5.35794 0
M  V30 3062 C 424.342 0.258894 5.2366 0
M  V30 3063 C 423.036 0.0670682 4.65752 0
M  V30 3064 O 422.303 0.902443 4.10497 0
M  V30 3065 N 422.606 -1.2131 4.75881 0
M  V30 3066 C 423.355 -2.24934 5.37101 0
M  V30 3067 N 422.758 -3.48783 5.33984 0
M  V30 3068 N 424.508 -2.0844 5.95684 0
M  V30 3069 C 424.965 -0.81395 5.87791 0
M  V30 3070 H 427.134 -1.9841 7.04286 0
M  V30 3071 H 428.317 0.739815 6.49601 0
M  V30 3072 H 429.802 0.598315 8.36563 0
M  V30 3073 H 428.107 -0.352479 10.1829 0
M  V30 3074 H 427.917 2.00611 10.0304 0
M  V30 3075 H 426.286 1.41843 9.55327 0
M  V30 3076 H 421.71 -1.44434 4.37895 0
M  V30 3077 H 426.917 1.67697 6.42268 0
M  V30 3078 H 421.847 -3.60543 4.87699 0
M  V30 3079 H 423.223 -4.29232 5.7819 0
M  V30 3080 H 428.927 -1.95704 6.0346 0
M  V30 3081 P 430.783 -1.25109 8.70152 0
M  V30 3082 O 432.205 -1.35274 9.21221 0
M  V30 3083 O 430.423 -0.0769065 7.84762 0
M  V30 3084 O 430.46 -2.55232 7.81161 0
M  V30 3085 C 430.3 -3.79939 8.58154 0
M  V30 3086 C 430.84 -4.94023 7.72785 0
M  V30 3087 O 429.784 -5.18726 6.91205 0
M  V30 3088 C 432.058 -4.69597 6.85231 0
M  V30 3089 O 432.796 -5.83832 6.51337 0
M  V30 3090 C 431.389 -3.96706 5.66633 0
M  V30 3091 O 432.188 -4.15414 4.49689 0
M  V30 3092 C 430.052 -4.66153 5.59313 0
M  V30 3093 H 430.084 -5.47679 4.85214 0
M  V30 3094 H 431.267 -2.89008 5.86566 0
M  V30 3095 H 432.751 -4.0121 7.36511 0
M  V30 3096 H 431.057 -5.80182 8.37584 0
M  V30 3097 H 430.867 -3.73517 9.52265 0
M  V30 3098 H 429.237 -3.97163 8.80359 0
M  V30 3099 H 431.876 -4.90969 4.01921 0
M  V30 3100 P 433.734 -5.75688 6.64379 0
M  V30 3101 O 435.156 -6.11849 7.01846 0
M  V30 3102 O 433.374 -4.30744 6.56026 0
M  V30 3103 O 433.411 -6.37042 5.19165 0
M  V30 3104 C 433.251 -7.83578 5.16515 0
M  V30 3105 C 433.791 -8.33398 3.83019 0
M  V30 3106 O 432.735 -8.10074 3.01034 0
M  V30 3107 C 435.009 -7.65514 3.2257 0
M  V30 3108 O 435.747 -8.4329 2.32297 0
M  V30 3109 C 434.34 -6.40075 2.62207 0
M  V30 3110 O 435.139 -5.92589 1.53712 0
M  V30 3111 C 433.003 -6.9454 2.18503 0
M  V30 3112 H 433.035 -7.23063 1.12091 0
M  V30 3113 H 434.218 -5.6025 3.37201 0
M  V30 3114 H 435.702 -7.35707 4.02681 0
M  V30 3115 H 434.008 -9.40912 3.9095 0
M  V30 3116 H 433.818 -8.29056 5.99158 0
M  V30 3117 H 432.188 -8.10073 5.25882 0
M  V30 3118 H 434.827 -6.30324 0.726794 0
M  V30 3119 P 436.684 -8.4349 2.47671 0
M  V30 3120 O 438.106 -8.94167 2.5964 0
M  V30 3121 O 436.324 -7.1704 3.19006 0
M  V30 3122 O 436.361 -8.16596 0.923387 0
M  V30 3123 C 436.201 -9.38437 0.108857 0
M  V30 3124 C 436.741 -9.08175 -1.28353 0
M  V30 3125 O 435.685 -8.44229 -1.84713 0
M  V30 3126 C 437.959 -8.18386 -1.42505 0
M  V30 3127 O 438.697 -8.3501 -2.60497 0
M  V30 3128 C 437.29 -6.80225 -1.25468 0
M  V30 3129 O 438.089 -5.81621 -1.91066 0
M  V30 3130 C 435.953 -7.02416 -1.9168 0
M  V30 3131 H 435.985 -6.6888 -2.96621 0
M  V30 3132 H 437.168 -6.53617 -0.192223 0
M  V30 3133 H 438.652 -8.36622 -0.589963 0
M  V30 3134 H 436.958 -10.0291 -1.79807 0
M  V30 3135 H 436.768 -10.2138 0.558219 0
M  V30 3136 H 435.138 -9.6579 0.0444202 0
M  V30 3137 H 437.777 -5.69556 -2.79637 0
M  V30 3138 P 439.635 -8.4349 -2.47671 0
M  V30 3139 O 441.057 -8.92593 -2.65 0
M  V30 3140 O 439.275 -7.7568 -1.19296 0
M  V30 3141 O 439.312 -7.36886 -3.63805 0
M  V30 3142 C 439.152 -7.95349 -4.982 0
M  V30 3143 C 439.692 -6.94612 -5.98974 0
M  V30 3144 O 438.636 -6.10347 -6.11815 0
M  V30 3145 C 440.91 -6.11426 -5.62335 0
M  V30 3146 O 441.648 -5.6162 -6.70584 0
M  V30 3147 C 440.241 -5.04409 -4.73308 0
M  V30 3148 O 441.04 -3.85992 -4.75183 0
M  V30 3149 C 438.904 -4.8728 -5.41006 0
M  V30 3150 H 438.936 -4.02333 -6.11157 0
M  V30 3151 H 440.119 -5.39466 -3.69543 0
M  V30 3152 H 441.603 -6.71916 -5.01943 0
M  V30 3153 H 439.909 -7.4649 -6.93477 0
M  V30 3154 H 439.719 -8.89416 -5.05237 0
M  V30 3155 H 438.089 -8.14876 -5.18409 0
M  V30 3156 H 440.728 -3.27957 -5.4317 0
M  V30 3157 P 442.586 -5.75688 -6.64379 0
M  V30 3158 O 444.008 -6.07627 -7.05504 0
M  V30 3159 O 442.226 -5.88047 -5.19722 0
M  V30 3160 O 442.263 -4.2322 -7.04443 0
M  V30 3161 C 442.103 -3.99743 -8.4911 0
M  V30 3162 C 442.643 -2.60516 -8.79425 0
M  V30 3163 O 441.587 -1.82684 -8.4467 0
M  V30 3164 C 443.861 -2.10343 -8.03628 0
M  V30 3165 O 444.599 -1.09919 -8.67766 0
M  V30 3166 C 443.192 -1.68446 -6.70876 0
M  V30 3167 O 443.991 -0.678137 -6.08433 0
M  V30 3168 C 441.855 -1.17436 -7.18567 0
M  V30 3169 H 441.887 -0.0804732 -7.31656 0
M  V30 3170 H 443.07 -2.54037 -6.02537 0
M  V30 3171 H 444.554 -2.93881 -7.85526 0
M  V30 3172 H 442.86 -2.53065 -9.86973 0
M  V30 3173 H 442.67 -4.75072 -9.05887 0
M  V30 3174 H 441.04 -4.05244 -8.76668 0
M  V30 3175 H 443.679 0.177647 -6.34251 0
M  V30 3176 P 445.536 -1.25109 -8.70152 0
M  V30 3177 O 446.958 -1.29744 -9.22016 0
M  V30 3178 O 445.176 -2.13714 -7.55141 0
M  V30 3179 O 445.213 0.248149 -8.21425 0
M  V30 3180 C 445.053 1.22779 -9.30434 0
M  V30 3181 C 445.593 2.56293 -8.80664 0
M  V30 3182 O 444.537 3.02979 -8.09349 0
M  V30 3183 C 446.811 2.57523 -7.89775 0
M  V30 3184 O 447.549 3.7668 -7.89438 0
M  V30 3185 C 446.142 2.20997 -6.55446 0
M  V30 3186 O 446.941 2.71895 -5.48509 0
M  V30 3187 C 444.805 2.89693 -6.67988 0
M  V30 3188 H 444.837 3.88793 -6.19859 0
M  V30 3189 H 446.02 1.12046 -6.44229 0
M  V30 3190 H 447.504 1.7746 -8.19711 0
M  V30 3191 H 445.81 3.20706 -9.67112 0
M  V30 3192 H 445.62 0.901032 -10.1892 0
M  V30 3193 H 443.99 1.33049 -9.56592 0
M  V30 3194 H 446.629 3.57847 -5.23962 0
M  V30 3195 P 448.487 3.65191 -7.99657 0
M  V30 3196 O 449.909 3.89332 -8.45794 0
M  V30 3197 O 448.127 2.28472 -7.50807 0
M  V30 3198 O 448.164 4.64972 -6.77611 0
M  V30 3199 C 448.004 6.06319 -7.16352 0
M  V30 3200 C 448.544 6.91731 -6.02299 0
M  V30 3201 O 447.488 6.92449 -5.17064 0
M  V30 3202 C 449.762 6.43627 -5.25174 0
M  V30 3203 O 450.5 7.43686 -4.60469 0
M  V30 3204 C 449.093 5.40275 -4.31916 0
M  V30 3205 O 449.892 5.25279 -3.14438 0
M  V30 3206 C 447.756 6.04847 -4.05327 0
M  V30 3207 H 447.788 6.62195 -3.11261 0
M  V30 3208 H 448.971 4.42556 -4.81383 0
M  V30 3209 H 450.455 5.92458 -5.93643 0
M  V30 3210 H 448.761 7.92655 -6.402 0
M  V30 3211 H 448.571 6.26671 -8.0846 0
M  V30 3212 H 446.941 6.29101 -7.32804 0
M  V30 3213 H 449.58 5.84315 -2.47318 0
M  V30 3214 P 451.437 7.39546 -4.75277 0
M  V30 3215 O 452.859 7.84798 -5.01039 0
M  V30 3216 O 451.077 5.9812 -5.08098 0
M  V30 3217 O 451.114 7.57503 -3.1866 0
M  V30 3218 C 450.954 8.97357 -2.74833 0
M  V30 3219 C 451.494 9.07548 -1.32709 0
M  V30 3220 O 450.438 8.62072 -0.606159 0
M  V30 3221 C 452.712 8.25383 -0.938334 0
M  V30 3222 O 453.45 8.74577 0.146954 0
M  V30 3223 C 452.043 6.8802 -0.712559 0
M  V30 3224 O 452.842 6.1189 0.194655 0
M  V30 3225 C 450.706 7.27966 -0.139777 0
M  V30 3226 H 450.738 7.25354 0.961601 0
M  V30 3227 H 451.921 6.32557 -1.65702 0
M  V30 3228 H 453.405 8.19355 -1.79097 0
M  V30 3229 H 451.711 10.1294 -1.10029 0
M  V30 3230 H 451.521 9.64276 -3.41316 0
M  V30 3231 H 449.891 9.25417 -2.76357 0
M  V30 3232 H 452.53 6.25267 1.07847 0
M  V30 3233 P 454.388 8.791 2.59334e-12 0
M  V30 3234 O 455.81 9.31096 0.027933 0
M  V30 3235 O 454.028 7.77869 -1.04071 0
M  V30 3236 O 454.065 8.09533 1.41463 0
M  V30 3237 C 453.905 9.0349 2.53943 0
M  V30 3238 C 454.445 8.35226 3.79016 0
M  V30 3239 O 453.389 7.57992 4.15078 0
M  V30 3240 C 455.663 7.45087 3.67298 0
M  V30 3241 O 456.401 7.27796 4.85194 0
M  V30 3242 C 454.994 6.17323 3.12027 0
M  V30 3243 O 455.793 5.04231 3.47188 0
M  V30 3244 C 453.657 6.19961 3.81809 0
M  V30 3245 H 453.689 5.58218 4.73051 0
M  V30 3246 H 454.872 6.21726 2.02589 0
M  V30 3247 H 456.356 7.86112 2.9231 0
M  V30 3248 H 454.662 9.11627 4.55076 0
M  V30 3249 H 454.472 9.9573 2.34194 0
M  V30 3250 H 452.842 9.2792 2.67832 0
M  V30 3251 H 455.481 4.67702 4.28772 0
M  V30 3252 P 457.338 7.39546 4.75277 0
M  V30 3253 O 458.76 7.81777 5.05738 0
M  V30 3254 O 456.978 7.1065 3.32998 0
M  V30 3255 O 457.015 6.04542 5.56673 0
M  V30 3256 C 456.855 6.22772 7.02095 0
M  V30 3257 C 457.395 4.97725 7.70406 0
M  V30 3258 O 456.339 4.13256 7.58987 0
M  V30 3259 C 458.613 4.28231 7.11815 0
M  V30 3260 O 459.351 3.49945 8.01648 0
M  V30 3261 C 457.944 3.5063 5.96244 0
M  V30 3262 O 458.743 2.36482 5.64681 0
M  V30 3263 C 456.607 3.15122 6.56374 0
M  V30 3264 H 456.639 2.13853 6.99751 0
M  V30 3265 H 457.822 4.13501 5.06559 0
M  V30 3266 H 459.306 5.03285 6.70911 0
M  V30 3267 H 457.612 5.20877 8.75697 0
M  V30 3268 H 457.422 7.11046 7.35349 0
M  V30 3269 H 455.792 6.35815 7.26986 0
M  V30 3270 H 458.431 1.61644 6.13565 0
M  V30 3271 P 460.289 3.65191 7.99657 0
M  V30 3272 O 461.711 3.8425 8.48115 0
M  V30 3273 O 459.929 4.17805 6.64342 0
M  V30 3274 O 459.966 2.07613 7.95143 0
M  V30 3275 C 459.806 1.44328 9.27336 0
M  V30 3276 C 460.346 0.0220036 9.17197 0
M  V30 3277 O 459.29 -0.626867 8.61923 0
M  V30 3278 C 461.564 -0.24586 8.30336 0
M  V30 3279 O 462.302 -1.39011 8.63583 0
M  V30 3280 C 460.895 -0.273849 6.91158 0
M  V30 3281 O 461.694 -1.06348 6.02892 0
M  V30 3282 C 459.558 -0.897649 7.22545 0
M  V30 3283 H 459.59 -1.9841 7.04286 0
M  V30 3284 H 460.773 0.739928 6.497 0
M  V30 3285 H 462.257 0.60668 8.36503 0
M  V30 3286 H 460.563 -0.352479 10.1829 0
M  V30 3287 H 460.373 2.00611 10.0304 0
M  V30 3288 H 458.743 1.41843 9.55327 0
M  V30 3289 H 461.382 -1.95734 6.03555 0
M  V30 3290 P 463.239 -1.25109 8.70152 0
M  V30 3291 O 464.661 -1.35274 9.21221 0
M  V30 3292 O 462.879 -0.0769065 7.84762 0
M  V30 3293 O 462.916 -2.55232 7.81161 0
M  V30 3294 C 462.756 -3.79939 8.58154 0
M  V30 3295 C 463.296 -4.94023 7.72785 0
M  V30 3296 O 462.24 -5.18726 6.91205 0
M  V30 3297 C 464.514 -4.69597 6.85231 0
M  V30 3298 O 465.252 -5.83832 6.51337 0
M  V30 3299 C 463.845 -3.96706 5.66633 0
M  V30 3300 O 464.644 -4.15414 4.49689 0
M  V30 3301 C 462.508 -4.66153 5.59313 0
M  V30 3302 H 462.54 -5.47679 4.85214 0
M  V30 3303 H 463.723 -2.89008 5.86566 0
M  V30 3304 H 465.207 -4.0121 7.36511 0
M  V30 3305 H 463.513 -5.80182 8.37584 0
M  V30 3306 H 463.323 -3.73517 9.52265 0
M  V30 3307 H 461.693 -3.97163 8.80359 0
M  V30 3308 H 464.332 -4.90969 4.01921 0
M  V30 3309 P 466.19 -5.75688 6.64379 0
M  V30 3310 O 467.612 -6.11849 7.01846 0
M  V30 3311 O 465.83 -4.30744 6.56026 0
M  V30 3312 O 465.867 -6.37042 5.19165 0
M  V30 3313 C 465.707 -7.83578 5.16515 0
M  V30 3314 C 466.247 -8.33398 3.83019 0
M  V30 3315 O 465.191 -8.10074 3.01034 0
M  V30 3316 C 467.465 -7.65514 3.2257 0
M  V30 3317 O 468.203 -8.4329 2.32297 0
M  V30 3318 C 466.796 -6.40075 2.62207 0
M  V30 3319 O 467.595 -5.92589 1.53712 0
M  V30 3320 C 465.459 -6.9454 2.18503 0
M  V30 3321 H 465.491 -7.23063 1.12091 0
M  V30 3322 H 466.674 -5.6025 3.37201 0
M  V30 3323 H 468.158 -7.35707 4.02681 0
M  V30 3324 H 466.464 -9.40912 3.9095 0
M  V30 3325 H 466.274 -8.29056 5.99158 0
M  V30 3326 H 464.644 -8.10073 5.25882 0
M  V30 3327 H 467.283 -6.30324 0.726794 0
M  V30 3328 P 469.141 -8.4349 2.47671 0
M  V30 3329 O 470.563 -8.94167 2.5964 0
M  V30 3330 O 468.781 -7.1704 3.19006 0
M  V30 3331 O 468.818 -8.16596 0.923387 0
M  V30 3332 C 468.658 -9.38437 0.108857 0
M  V30 3333 C 469.198 -9.08175 -1.28353 0
M  V30 3334 O 468.142 -8.44229 -1.84713 0
M  V30 3335 C 470.416 -8.18386 -1.42505 0
M  V30 3336 O 471.154 -8.3501 -2.60497 0
M  V30 3337 C 469.747 -6.80225 -1.25468 0
M  V30 3338 O 470.546 -5.81621 -1.91066 0
M  V30 3339 C 468.41 -7.02416 -1.9168 0
M  V30 3340 H 468.442 -6.6888 -2.96621 0
M  V30 3341 H 469.625 -6.53617 -0.192223 0
M  V30 3342 H 471.109 -8.36622 -0.589963 0
M  V30 3343 H 469.415 -10.0291 -1.79807 0
M  V30 3344 H 469.225 -10.2138 0.558219 0
M  V30 3345 H 467.595 -9.6579 0.0444202 0
M  V30 3346 H 470.234 -5.69556 -2.79637 0
M  V30 3347 P 472.091 -8.4349 -2.47671 0
M  V30 3348 O 473.513 -8.92593 -2.65 0
M  V30 3349 O 471.731 -7.7568 -1.19296 0
M  V30 3350 O 471.768 -7.36886 -3.63805 0
M  V30 3351 C 471.608 -7.95349 -4.982 0
M  V30 3352 C 472.148 -6.94612 -5.98974 0
M  V30 3353 O 471.092 -6.10347 -6.11815 0
M  V30 3354 C 473.366 -6.11426 -5.62335 0
M  V30 3355 O 474.104 -5.6162 -6.70584 0
M  V30 3356 C 472.697 -5.04409 -4.73308 0
M  V30 3357 O 473.496 -3.85992 -4.75183 0
M  V30 3358 C 471.36 -4.8728 -5.41006 0
M  V30 3359 H 471.392 -4.02333 -6.11157 0
M  V30 3360 H 472.575 -5.39466 -3.69543 0
M  V30 3361 H 474.059 -6.71916 -5.01943 0
M  V30 3362 H 472.365 -7.4649 -6.93477 0
M  V30 3363 H 472.175 -8.89416 -5.05237 0
M  V30 3364 H 470.545 -8.14876 -5.18409 0
M  V30 3365 H 473.184 -3.27957 -5.4317 0
M  V30 3366 P 475.042 -5.75688 -6.64379 0
M  V30 3367 O 476.464 -6.07627 -7.05504 0
M  V30 3368 O 474.682 -5.88047 -5.19722 0
M  V30 3369 O 474.719 -4.2322 -7.04443 0
M  V30 3370 C 474.559 -3.99743 -8.4911 0
M  V30 3371 C 475.099 -2.60516 -8.79425 0
M  V30 3372 O 474.043 -1.82684 -8.4467 0
M  V30 3373 C 476.317 -2.10343 -8.03628 0
M  V30 3374 O 477.055 -1.09919 -8.67766 0
M  V30 3375 C 475.648 -1.68446 -6.70876 0
M  V30 3376 O 476.447 -0.678137 -6.08433 0
M  V30 3377 C 474.311 -1.17436 -7.18567 0
M  V30 3378 H 474.343 -0.0804732 -7.31656 0
M  V30 3379 H 475.526 -2.54037 -6.02537 0
M  V30 3380 H 477.01 -2.93881 -7.85526 0
M  V30 3381 H 475.316 -2.53065 -9.86973 0
M  V30 3382 H 475.126 -4.75072 -9.05887 0
M  V30 3383 H 473.496 -4.05244 -8.76668 0
M  V30 3384 H 476.135 0.177647 -6.34251 0
M  V30 3385 P 477.992 -1.25109 -8.70152 0
M  V30 3386 O 479.414 -1.29744 -9.22016 0
M  V30 3387 O 477.632 -2.13714 -7.55141 0
M  V30 3388 O 477.669 0.248149 -8.21425 0
M  V30 3389 C 477.509 1.22779 -9.30434 0
M  V30 3390 C 478.049 2.56293 -8.80664 0
M  V30 3391 O 476.993 3.02979 -8.09349 0
M  V30 3392 C 479.267 2.57523 -7.89775 0
M  V30 3393 O 480.005 3.7668 -7.89438 0
M  V30 3394 C 478.598 2.20997 -6.55446 0
M  V30 3395 O 479.397 2.71895 -5.48509 0
M  V30 3396 C 477.261 2.89693 -6.67988 0
M  V30 3397 H 477.293 3.88793 -6.19859 0
M  V30 3398 H 478.476 1.12046 -6.44229 0
M  V30 3399 H 479.96 1.7746 -8.19711 0
M  V30 3400 H 478.266 3.20706 -9.67112 0
M  V30 3401 H 478.076 0.901032 -10.1892 0
M  V30 3402 H 476.446 1.33049 -9.56592 0
M  V30 3403 H 479.085 3.57847 -5.23962 0
M  V30 3404 P 480.943 3.65191 -7.99657 0
M  V30 3405 O 482.365 3.89332 -8.45794 0
M  V30 3406 O 480.583 2.28472 -7.50807 0
M  V30 3407 O 480.62 4.64972 -6.77611 0
M  V30 3408 C 480.46 6.06319 -7.16352 0
M  V30 3409 C 481 6.91731 -6.02299 0
M  V30 3410 O 479.944 6.92449 -5.17064 0
M  V30 3411 C 482.218 6.43627 -5.25174 0
M  V30 3412 O 482.956 7.43686 -4.60469 0
M  V30 3413 C 481.549 5.40275 -4.31916 0
M  V30 3414 O 482.348 5.25279 -3.14438 0
M  V30 3415 C 480.212 6.04847 -4.05327 0
M  V30 3416 H 480.244 6.62195 -3.11261 0
M  V30 3417 H 481.427 4.42556 -4.81383 0
M  V30 3418 H 482.911 5.92458 -5.93643 0
M  V30 3419 H 481.217 7.92655 -6.402 0
M  V30 3420 H 481.027 6.26671 -8.0846 0
M  V30 3421 H 479.397 6.29101 -7.32804 0
M  V30 3422 H 482.036 5.84315 -2.47318 0
M  V30 3423 P 483.893 7.39546 -4.75277 0
M  V30 3424 O 485.315 7.84798 -5.01039 0
M  V30 3425 O 483.533 5.9812 -5.08098 0
M  V30 3426 O 483.57 7.57503 -3.1866 0
M  V30 3427 C 483.41 8.97357 -2.74833 0
M  V30 3428 C 483.95 9.07548 -1.32709 0
M  V30 3429 O 482.894 8.62072 -0.606159 0
M  V30 3430 C 485.168 8.25383 -0.938334 0
M  V30 3431 O 485.906 8.74577 0.146954 0
M  V30 3432 C 484.499 6.8802 -0.712559 0
M  V30 3433 O 485.298 6.1189 0.194655 0
M  V30 3434 C 483.162 7.27966 -0.139777 0
M  V30 3435 H 483.194 7.25354 0.961601 0
M  V30 3436 H 484.377 6.32557 -1.65702 0
M  V30 3437 H 485.861 8.19355 -1.79097 0
M  V30 3438 H 484.167 10.1294 -1.10029 0
M  V30 3439 H 483.977 9.64276 -3.41316 0
M  V30 3440 H 482.347 9.25417 -2.76357 0
M  V30 3441 H 484.986 6.25267 1.07847 0
M  V30 3442 P 486.844 8.791 2.9035e-12 0
M  V30 3443 O 488.266 9.31096 0.027933 0
M  V30 3444 O 486.484 7.77869 -1.04071 0
M  V30 3445 O 486.521 8.09533 1.41463 0
M  V30 3446 C 486.361 9.0349 2.53943 0
M  V30 3447 C 486.901 8.35226 3.79016 0
M  V30 3448 O 485.845 7.57992 4.15078 0
M  V30 3449 C 488.119 7.45087 3.67298 0
M  V30 3450 O 488.857 7.27796 4.85194 0
M  V30 3451 C 487.45 6.17323 3.12027 0
M  V30 3452 O 488.249 5.04231 3.47188 0
M  V30 3453 C 486.113 6.19961 3.81809 0
M  V30 3454 H 486.145 5.58218 4.73051 0
M  V30 3455 H 487.328 6.21726 2.02589 0
M  V30 3456 H 488.812 7.86112 2.9231 0
M  V30 3457 H 487.118 9.11627 4.55076 0
M  V30 3458 H 486.928 9.9573 2.34194 0
M  V30 3459 H 485.298 9.2792 2.67832 0
M  V30 3460 H 487.937 4.67702 4.28772 0
M  V30 3461 P 489.795 7.39546 4.75277 0
M  V30 3462 O 491.217 7.81777 5.05738 0
M  V30 3463 O 489.435 7.1065 3.32998 0
M  V30 3464 O 489.472 6.04542 5.56673 0
M  V30 3465 C 489.312 6.22772 7.02095 0
M  V30 3466 C 489.852 4.97725 7.70406 0
M  V30 3467 O 488.796 4.13256 7.58987 0
M  V30 3468 C 491.07 4.28231 7.11815 0
M  V30 3469 O 491.808 3.49945 8.01648 0
M  V30 3470 C 490.401 3.5063 5.96244 0
M  V30 3471 O 491.2 2.36482 5.64681 0
M  V30 3472 C 489.064 3.15122 6.56374 0
M  V30 3473 H 489.096 2.13853 6.99751 0
M  V30 3474 H 490.279 4.13501 5.06559 0
M  V30 3475 H 491.763 5.03285 6.70911 0
M  V30 3476 H 490.069 5.20877 8.75697 0
M  V30 3477 H 489.879 7.11046 7.35349 0
M  V30 3478 H 488.249 6.35815 7.26986 0
M  V30 3479 H 490.888 1.61644 6.13565 0
M  V30 3480 P 492.745 3.65191 7.99657 0
M  V30 3481 O 494.167 3.8425 8.48115 0
M  V30 3482 O 492.385 4.17805 6.64342 0
M  V30 3483 O 492.422 2.07613 7.95143 0
M  V30 3484 C 492.262 1.44328 9.27336 0
M  V30 3485 C 492.802 0.0220036 9.17197 0
M  V30 3486 O 491.746 -0.626867 8.61923 0
M  V30 3487 C 494.02 -0.24586 8.30336 0
M  V30 3488 O 494.758 -1.39011 8.63583 0
M  V30 3489 C 493.351 -0.273849 6.91158 0
M  V30 3490 O 494.15 -1.06348 6.02892 0
M  V30 3491 C 492.014 -0.897649 7.22545 0
M  V30 3492 H 492.046 -1.9841 7.04286 0
M  V30 3493 H 493.229 0.739928 6.497 0
M  V30 3494 H 494.713 0.60668 8.36503 0
M  V30 3495 H 493.019 -0.352479 10.1829 0
M  V30 3496 H 492.829 2.00611 10.0304 0
M  V30 3497 H 491.199 1.41843 9.55327 0
M  V30 3498 H 493.838 -1.95734 6.03555 0
M  V30 3499 P 495.696 -1.25109 8.70152 0
M  V30 3500 O 497.118 -1.35274 9.21221 0
M  V30 3501 O 495.336 -0.0769065 7.84762 0
M  V30 3502 O 495.373 -2.55232 7.81161 0
M  V30 3503 C 495.213 -3.79939 8.58154 0
M  V30 3504 C 495.753 -4.94023 7.72785 0
M  V30 3505 O 494.697 -5.18726 6.91205 0
M  V30 3506 C 496.971 -4.69597 6.85231 0
M  V30 3507 O 497.709 -5.83832 6.51337 0
M  V30 3508 C 496.302 -3.96706 5.66633 0
M  V30 3509 O 497.101 -4.15414 4.49689 0
M  V30 3510 C 494.965 -4.66153 5.59313 0
M  V30 3511 H 494.997 -5.47679 4.85214 0
M  V30 3512 H 496.18 -2.89008 5.86566 0
M  V30 3513 H 497.664 -4.0121 7.36511 0
M  V30 3514 H 495.97 -5.80182 8.37584 0
M  V30 3515 H 495.78 -3.73517 9.52265 0
M  V30 3516 H 494.15 -3.97163 8.80359 0
M  V30 3517 H 496.789 -4.90969 4.01921 0
M  V30 3518 P 498.646 -5.75688 6.64379 0
M  V30 3519 O 500.068 -6.11849 7.01846 0
M  V30 3520 O 498.286 -4.30744 6.56026 0
M  V30 3521 O 498.323 -6.37042 5.19165 0
M  V30 3522 C 498.163 -7.83578 5.16515 0
M  V30 3523 C 498.703 -8.33398 3.83019 0
M  V30 3524 O 497.647 -8.10074 3.01034 0
M  V30 3525 C 499.921 -7.65514 3.2257 0
M  V30 3526 O 500.659 -8.4329 2.32297 0
M  V30 3527 C 499.252 -6.40075 2.62207 0
M  V30 3528 O 500.051 -5.92589 1.53712 0
M  V30 3529 C 497.915 -6.9454 2.18503 0
M  V30 3530 H 497.947 -7.23063 1.12091 0
M  V30 3531 H 499.13 -5.6025 3.37201 0
M  V30 3532 H 500.614 -7.35707 4.02681 0
M  V30 3533 H 498.92 -9.40912 3.9095 0
M  V30 3534 H 498.73 -8.29056 5.99158 0
M  V30 3535 H 497.1 -8.10073 5.25882 0
M  V30 3536 H 499.739 -6.30324 0.726794 0
M  V30 3537 P 501.597 -8.4349 2.47671 0
M  V30 3538 O 503.019 -8.94167 2.5964 0
M  V30 3539 O 501.237 -7.1704 3.19006 0
M  V30 3540 O 501.274 -8.16596 0.923387 0
M  V30 3541 C 501.114 -9.38437 0.108857 0
M  V30 3542 C 501.654 -9.08175 -1.28353 0
M  V30 3543 O 500.598 -8.44229 -1.84713 0
M  V30 3544 C 502.872 -8.18386 -1.42505 0
M  V30 3545 O 503.61 -8.3501 -2.60497 0
M  V30 3546 C 502.203 -6.80225 -1.25468 0
M  V30 3547 O 503.002 -5.81621 -1.91066 0
M  V30 3548 C 500.866 -7.02416 -1.9168 0
M  V30 3549 H 500.898 -6.6888 -2.96621 0
M  V30 3550 H 502.081 -6.53617 -0.192223 0
M  V30 3551 H 503.565 -8.36622 -0.589963 0
M  V30 3552 H 501.871 -10.0291 -1.79807 0
M  V30 3553 H 501.681 -10.2138 0.558219 0
M  V30 3554 H 500.051 -9.6579 0.0444202 0
M  V30 3555 H 502.69 -5.69556 -2.79637 0
M  V30 3556 P 504.547 -8.4349 -2.47671 0
M  V30 3557 O 505.968 -8.92689 -2.65029 0
M  V30 3558 O 504.187 -7.7568 -1.19296 0
M  V30 3559 O 504.224 -7.36886 -3.63805 0
M  V30 3560 C 504.063 -7.95433 -4.98253 0
M  V30 3561 C 504.604 -6.94612 -5.98974 0
M  V30 3562 O 503.549 -6.10277 -6.11744 0
M  V30 3563 C 505.822 -6.11426 -5.62335 0
M  V30 3564 O 506.56 -5.6162 -6.70584 0
M  V30 3565 C 505.154 -5.04409 -4.73308 0
M  V30 3566 O 505.952 -3.86404 -4.74719 0
M  V30 3567 C 503.816 -4.8728 -5.41006 0
M  V30 3568 N 502.773 -4.65812 -4.42377 0
M  V30 3569 C 502.942 -5.09132 -3.15382 0
M  V30 3570 N 501.915 -4.84021 -2.3716 0
M  V30 3571 C 501.03 -4.18386 -3.20441 0
M  V30 3572 C 499.763 -3.6275 -2.94905 0
M  V30 3573 N 499.198 -3.05008 -4.05243 0
M  V30 3574 C 499.8 -2.98348 -5.28159 0
M  V30 3575 N 500.977 -3.48171 -5.56333 0
M  V30 3576 C 501.552 -4.06869 -4.47212 0
M  V30 3577 H 505.031 -5.39013 -3.70026 0
M  V30 3578 H 506.514 -6.71916 -5.01943 0
M  V30 3579 H 504.82 -7.45796 -6.94223 0
M  V30 3580 H 504.63 -8.89416 -5.05237 0
M  V30 3581 H 503 -8.14876 -5.18409 0
M  V30 3582 H 503.842 -5.59989 -2.81362 0
M  V30 3583 H 505.64 -3.27906 -5.43085 0
M  V30 3584 P 507.498 -5.75688 -6.64379 0
M  V30 3585 O 508.899 -6.14823 -7.06682 0
M  V30 3586 O 507.12 -5.93957 -5.20728 0
M  V30 3587 O 507.175 -4.23169 -7.04357 0
M  V30 3588 C 507.015 -3.99743 -8.4911 0
M  V30 3589 C 507.555 -2.60487 -8.79329 0
M  V30 3590 O 506.499 -1.82663 -8.44573 0
M  V30 3591 C 508.772 -2.10343 -8.03628 0
M  V30 3592 O 509.511 -1.09919 -8.67766 0
M  V30 3593 C 508.105 -1.68446 -6.70876 0
M  V30 3594 O 508.903 -0.678026 -6.08333 0
M  V30 3595 C 506.767 -1.17436 -7.18567 0
M  V30 3596 N 505.724 -1.52699 -6.23988 0
M  V30 3597 C 504.689 -0.643793 -6.05085 0
M  V30 3598 O 504.728 0.459118 -6.64315 0
M  V30 3599 N 503.677 -0.976931 -5.22038 0
M  V30 3600 C 503.725 -2.14429 -4.56662 0
M  V30 3601 C 504.821 -3.04203 -4.71481 0
M  V30 3602 C 505.787 -2.69669 -5.56838 0
M  V30 3603 H 506.799 -0.0804622 -7.31556 0
M  V30 3604 H 507.982 -2.53396 -6.02698 0
M  V30 3605 H 509.466 -2.9313 -7.85914 0
M  V30 3606 H 507.772 -2.52078 -9.87225 0
M  V30 3607 H 507.581 -4.75072 -9.05887 0
M  V30 3608 H 505.951 -4.05202 -8.76577 0
M  V30 3609 H 504.869 -3.97309 -4.15519 0
M  V30 3610 H 506.633 -3.36869 -5.72318 0
M  V30 3611 H 508.687 0.167718 -6.44882 0
M  V30 3612 P 510.449 -1.25109 -8.70152 0
M  V30 3613 O 511.871 -1.29744 -9.22016 0
M  V30 3614 O 510.089 -2.13714 -7.55141 0
M  V30 3615 O 510.126 0.248149 -8.21425 0
M  V30 3616 C 509.966 1.22779 -9.30434 0
M  V30 3617 C 510.506 2.56293 -8.80664 0
M  V30 3618 O 509.45 3.02979 -8.09349 0
M  V30 3619 C 511.724 2.57523 -7.89775 0
M  V30 3620 O 512.462 3.7668 -7.89438 0
M  V30 3621 C 511.055 2.20997 -6.55446 0
M  V30 3622 O 511.854 2.71895 -5.48509 0
M  V30 3623 C 509.718 2.89693 -6.67988 0
M  V30 3624 H 509.75 3.88793 -6.19859 0
M  V30 3625 H 510.933 1.12046 -6.44229 0
M  V30 3626 H 512.417 1.7746 -8.19711 0
M  V30 3627 H 510.723 3.20706 -9.67112 0
M  V30 3628 H 510.533 0.901032 -10.1892 0
M  V30 3629 H 508.903 1.33049 -9.56592 0
M  V30 3630 H 511.542 3.57847 -5.23962 0
M  V30 3631 P 513.399 3.65191 -7.99657 0
M  V30 3632 O 514.821 3.89332 -8.45794 0
M  V30 3633 O 513.039 2.28472 -7.50807 0
M  V30 3634 O 513.076 4.64972 -6.77611 0
M  V30 3635 C 512.916 6.06319 -7.16352 0
M  V30 3636 C 513.456 6.91731 -6.02299 0
M  V30 3637 O 512.4 6.92449 -5.17064 0
M  V30 3638 C 514.674 6.43627 -5.25174 0
M  V30 3639 O 515.412 7.43686 -4.60469 0
M  V30 3640 C 514.005 5.40275 -4.31916 0
M  V30 3641 O 514.804 5.25279 -3.14438 0
M  V30 3642 C 512.668 6.04847 -4.05327 0
M  V30 3643 H 512.7 6.62195 -3.11261 0
M  V30 3644 H 513.883 4.42556 -4.81383 0
M  V30 3645 H 515.367 5.92458 -5.93643 0
M  V30 3646 H 513.673 7.92655 -6.402 0
M  V30 3647 H 513.483 6.26671 -8.0846 0
M  V30 3648 H 511.853 6.29101 -7.32804 0
M  V30 3649 H 514.492 5.84315 -2.47318 0
M  V30 3650 P 516.35 7.39546 -4.75277 0
M  V30 3651 O 517.772 7.84798 -5.01039 0
M  V30 3652 O 515.99 5.9812 -5.08098 0
M  V30 3653 O 516.027 7.57503 -3.1866 0
M  V30 3654 C 515.867 8.97357 -2.74833 0
M  V30 3655 C 516.407 9.07548 -1.32709 0
M  V30 3656 O 515.351 8.62072 -0.606159 0
M  V30 3657 C 517.625 8.25383 -0.938334 0
M  V30 3658 O 518.363 8.74577 0.146954 0
M  V30 3659 C 516.956 6.8802 -0.712559 0
M  V30 3660 O 517.755 6.1189 0.194655 0
M  V30 3661 C 515.619 7.27966 -0.139777 0
M  V30 3662 H 515.651 7.25354 0.961601 0
M  V30 3663 H 516.834 6.32557 -1.65702 0
M  V30 3664 H 518.318 8.19355 -1.79097 0
M  V30 3665 H 516.624 10.1294 -1.10029 0
M  V30 3666 H 516.434 9.64276 -3.41316 0
M  V30 3667 H 514.804 9.25417 -2.76357 0
M  V30 3668 H 517.443 6.25267 1.07847 0
M  V30 3669 P 519.3 8.791 3.21367e-12 0
M  V30 3670 O 520.721 9.31196 0.027936 0
M  V30 3671 O 518.94 7.77869 -1.04071 0
M  V30 3672 O 518.977 8.09533 1.41463 0
M  V30 3673 C 518.816 9.03587 2.5397 0
M  V30 3674 C 519.357 8.35226 3.79016 0
M  V30 3675 O 518.302 7.57904 4.1503 0
M  V30 3676 C 520.575 7.45087 3.67298 0
M  V30 3677 O 521.313 7.27796 4.85194 0
M  V30 3678 C 519.907 6.17323 3.12027 0
M  V30 3679 O 520.705 5.04496 3.46627 0
M  V30 3680 C 518.569 6.19961 3.81809 0
M  V30 3681 N 517.526 5.71575 2.93223 0
M  V30 3682 C 517.695 5.77362 1.59168 0
M  V30 3683 N 516.668 5.3123 0.911893 0
M  V30 3684 C 515.783 4.91717 1.89588 0
M  V30 3685 C 514.516 4.3114 1.8076 0
M  V30 3686 N 513.917 3.99821 0.632928 0
M  V30 3687 N 513.951 4.06823 3.02898 0
M  V30 3688 C 514.553 4.35062 4.22711 0
M  V30 3689 N 515.73 4.90805 4.35707 0
M  V30 3690 C 516.305 5.16382 3.14469 0
M  V30 3691 H 518.601 5.58142 4.72986 0
M  V30 3692 H 519.784 6.21428 2.0318 0
M  V30 3693 H 521.267 7.86112 2.9231 0
M  V30 3694 H 519.573 9.11171 4.55987 0
M  V30 3695 H 519.383 9.9573 2.34194 0
M  V30 3696 H 517.753 9.2792 2.67832 0
M  V30 3697 H 514.017 4.09052 5.13359 0
M  V30 3698 H 518.595 6.16575 1.12198 0
M  V30 3699 H 512.987 3.55423 0.632085 0
M  V30 3700 H 514.391 4.20317 -0.256712 0
M  V30 3701 H 520.393 4.67628 4.28704 0
M  V30 3702 P 522.251 7.39546 4.75277 0
M  V30 3703 O 523.672 7.81861 5.05793 0
M  V30 3704 O 521.891 7.1065 3.32998 0
M  V30 3705 O 521.928 6.04542 5.56673 0
M  V30 3706 C 521.767 6.22839 7.02169 0
M  V30 3707 C 522.308 4.97725 7.70406 0
M  V30 3708 O 521.253 4.13208 7.58899 0
M  V30 3709 C 523.526 4.28231 7.11815 0
M  V30 3710 O 524.264 3.49945 8.01648 0
M  V30 3711 C 522.858 3.5063 5.96244 0
M  V30 3712 O 523.656 2.37008 5.64352 0
M  V30 3713 C 521.52 3.15122 6.56374 0
M  V30 3714 N 520.477 3.22311 5.55692 0
M  V30 3715 C 520.646 3.99655 4.46046 0
M  V30 3716 N 519.619 3.97599 3.63918 0
M  V30 3717 C 518.734 3.11159 4.25334 0
M  V30 3718 C 517.467 2.64972 3.85157 0
M  V30 3719 N 516.902 1.78482 4.74759 0
M  V30 3720 C 517.504 1.37463 5.90819 0
M  V30 3721 N 518.681 1.7733 6.31889 0
M  V30 3722 C 519.256 2.64393 5.43725 0
M  V30 3723 H 522.735 4.12931 5.06895 0
M  V30 3724 H 524.218 5.03285 6.70911 0
M  V30 3725 H 522.524 5.20001 8.76217 0
M  V30 3726 H 522.334 7.11046 7.35349 0
M  V30 3727 H 520.704 6.35815 7.26986 0
M  V30 3728 H 521.546 4.58037 4.27732 0
M  V30 3729 H 523.344 1.61619 6.13468 0
M  V30 3730 P 525.201 3.65191 7.99657 0
M  V30 3731 O 526.623 3.8425 8.48115 0
M  V30 3732 O 524.841 4.17805 6.64342 0
M  V30 3733 O 524.878 2.07613 7.95143 0
M  V30 3734 C 524.718 1.44328 9.27336 0
M  V30 3735 C 525.258 0.0220036 9.17197 0
M  V30 3736 O 524.202 -0.626867 8.61923 0
M  V30 3737 C 526.476 -0.24586 8.30336 0
M  V30 3738 O 527.214 -1.39011 8.63583 0
M  V30 3739 C 525.807 -0.273849 6.91158 0
M  V30 3740 O 526.606 -1.06348 6.02892 0
M  V30 3741 C 524.47 -0.897649 7.22545 0
M  V30 3742 H 524.502 -1.9841 7.04286 0
M  V30 3743 H 525.685 0.739928 6.497 0
M  V30 3744 H 527.169 0.60668 8.36503 0
M  V30 3745 H 525.475 -0.352479 10.1829 0
M  V30 3746 H 525.285 2.00611 10.0304 0
M  V30 3747 H 523.655 1.41843 9.55327 0
M  V30 3748 H 526.294 -1.95734 6.03555 0
M  V30 3749 P 528.152 -1.25109 8.70152 0
M  V30 3750 O 529.574 -1.35303 9.21419 0
M  V30 3751 O 527.792 -0.0769065 7.84762 0
M  V30 3752 O 527.829 -2.55232 7.81161 0
M  V30 3753 C 527.669 -3.79939 8.58154 0
M  V30 3754 C 528.209 -4.93969 7.72701 0
M  V30 3755 O 527.154 -5.18726 6.91205 0
M  V30 3756 C 529.427 -4.69597 6.85231 0
M  V30 3757 O 530.165 -5.83832 6.51337 0
M  V30 3758 C 528.759 -3.96706 5.66633 0
M  V30 3759 O 529.557 -4.15346 4.49615 0
M  V30 3760 C 527.421 -4.66153 5.59313 0
M  V30 3761 N 526.378 -3.71582 5.24027 0
M  V30 3762 C 526.44 -2.46018 5.67902 0
M  V30 3763 N 525.395 -1.74868 5.24518 0
M  V30 3764 C 524.661 -2.61333 4.54528 0
M  V30 3765 C 523.355 -2.46162 3.95441 0
M  V30 3766 O 522.622 -1.46013 3.94122 0
M  V30 3767 N 522.925 -3.59334 3.34752 0
M  V30 3768 C 523.674 -4.79605 3.3023 0
M  V30 3769 N 523.077 -5.82109 2.6065 0
M  V30 3770 N 524.827 -4.97402 3.8843 0
M  V30 3771 C 525.284 -3.86258 4.50476 0
M  V30 3772 H 527.453 -5.47679 4.85214 0
M  V30 3773 H 528.636 -2.88964 5.86476 0
M  V30 3774 H 530.121 -4.01947 7.36109 0
M  V30 3775 H 528.426 -5.80182 8.37584 0
M  V30 3776 H 528.236 -3.73517 9.52265 0
M  V30 3777 H 526.605 -3.97163 8.80359 0
M  V30 3778 H 522.029 -3.5825 2.90294 0
M  V30 3779 H 527.236 -2.06161 6.30974 0
M  V30 3780 H 522.166 -5.66979 2.15354 0
M  V30 3781 H 523.542 -6.73686 2.54344 0
M  V30 3782 H 529.246 -4.90891 4.01857 0
M  V30 3783 P 531.103 -5.75688 6.64379 0
M  V30 3784 O 532.525 -6.11849 7.01846 0
M  V30 3785 O 530.743 -4.30744 6.56026 0
M  V30 3786 O 530.78 -6.37042 5.19165 0
M  V30 3787 C 530.62 -7.83578 5.16515 0
M  V30 3788 C 531.16 -8.33398 3.83019 0
M  V30 3789 O 530.104 -8.10074 3.01034 0
M  V30 3790 C 532.378 -7.65514 3.2257 0
M  V30 3791 O 533.116 -8.4329 2.32297 0
M  V30 3792 C 531.709 -6.40075 2.62207 0
M  V30 3793 O 532.508 -5.92589 1.53712 0
M  V30 3794 C 530.372 -6.9454 2.18503 0
M  V30 3795 H 530.404 -7.23063 1.12091 0
M  V30 3796 H 531.587 -5.6025 3.37201 0
M  V30 3797 H 533.071 -7.35707 4.02681 0
M  V30 3798 H 531.377 -9.40912 3.9095 0
M  V30 3799 H 531.187 -8.29056 5.99158 0
M  V30 3800 H 529.557 -8.10073 5.25882 0
M  V30 3801 H 532.196 -6.30324 0.726794 0
M  V30 3802 P 534.053 -8.4349 2.47671 0
M  V30 3803 O 535.474 -8.94263 2.59668 0
M  V30 3804 O 533.693 -7.1704 3.19006 0
M  V30 3805 O 533.73 -8.16596 0.923387 0
M  V30 3806 C 533.569 -9.38537 0.108869 0
M  V30 3807 C 534.11 -9.08175 -1.28353 0
M  V30 3808 O 533.055 -8.44131 -1.84692 0
M  V30 3809 C 535.328 -8.18386 -1.42505 0
M  V30 3810 O 536.066 -8.3501 -2.60497 0
M  V30 3811 C 534.66 -6.80225 -1.25468 0
M  V30 3812 O 535.458 -5.81716 -1.90454 0
M  V30 3813 C 533.322 -7.02416 -1.9168 0
M  V30 3814 N 532.279 -6.31033 -1.20314 0
M  V30 3815 C 532.448 -5.98817 0.0994088 0
M  V30 3816 N 531.421 -5.35403 0.621694 0
M  V30 3817 C 530.536 -5.25212 -0.43376 0
M  V30 3818 C 529.269 -4.64602 -0.519722 0
M  V30 3819 N 528.67 -4.01457 0.519136 0
M  V30 3820 N 528.704 -4.7568 -1.76013 0
M  V30 3821 C 529.306 -5.3653 -2.83017 0
M  V30 3822 N 530.483 -5.93676 -2.79782 0
M  V30 3823 C 531.058 -5.84061 -1.56249 0
M  V30 3824 H 533.354 -6.68789 -2.9658 0
M  V30 3825 H 534.537 -6.53498 -0.198729 0
M  V30 3826 H 536.02 -8.36622 -0.589963 0
M  V30 3827 H 534.326 -10.0273 -1.8081 0
M  V30 3828 H 534.136 -10.2138 0.558219 0
M  V30 3829 H 532.506 -9.6579 0.0444202 0
M  V30 3830 H 528.77 -5.37113 -3.77321 0
M  V30 3831 H 533.348 -6.23209 0.660562 0
M  V30 3832 H 527.74 -3.58834 0.394862 0
M  V30 3833 H 529.144 -3.96059 1.43048 0
M  V30 3834 H 535.146 -5.69466 -2.79593 0
M  V30 3835 P 537.004 -8.4349 -2.47671 0
M  V30 3836 O 538.425 -8.92689 -2.65029 0
M  V30 3837 O 536.644 -7.7568 -1.19296 0
M  V30 3838 O 536.681 -7.36886 -3.63805 0
M  V30 3839 C 536.52 -7.95433 -4.98253 0
M  V30 3840 C 537.061 -6.94612 -5.98974 0
M  V30 3841 O 536.006 -6.10277 -6.11744 0
M  V30 3842 C 538.279 -6.11426 -5.62335 0
M  V30 3843 O 539.017 -5.6162 -6.70584 0
M  V30 3844 C 537.611 -5.04409 -4.73308 0
M  V30 3845 O 538.409 -3.86404 -4.74719 0
M  V30 3846 C 536.273 -4.8728 -5.41006 0
M  V30 3847 N 535.23 -4.65812 -4.42377 0
M  V30 3848 C 535.399 -5.09132 -3.15382 0
M  V30 3849 N 534.372 -4.84021 -2.3716 0
M  V30 3850 C 533.487 -4.18386 -3.20441 0
M  V30 3851 C 532.22 -3.6275 -2.94905 0
M  V30 3852 N 531.621 -3.65794 -1.73372 0
M  V30 3853 N 531.655 -3.05008 -4.05243 0
M  V30 3854 C 532.257 -2.98348 -5.28159 0
M  V30 3855 N 533.434 -3.48171 -5.56333 0
M  V30 3856 C 534.009 -4.06869 -4.47212 0
M  V30 3857 H 536.305 -4.02278 -6.11074 0
M  V30 3858 H 537.488 -5.39013 -3.70026 0
M  V30 3859 H 538.971 -6.71916 -5.01943 0
M  V30 3860 H 537.277 -7.45796 -6.94223 0
M  V30 3861 H 537.087 -8.89416 -5.05237 0
M  V30 3862 H 535.457 -8.14876 -5.18409 0
M  V30 3863 H 531.721 -2.47853 -6.07807 0
M  V30 3864 H 536.299 -5.59989 -2.81362 0
M  V30 3865 H 530.691 -3.23218 -1.60782 0
M  V30 3866 H 532.095 -4.10523 -0.937856 0
M  V30 3867 H 538.097 -3.27906 -5.43085 0
M  V30 3868 P 539.954 -5.75688 -6.64379 0
M  V30 3869 O 541.375 -6.07692 -7.0558 0
M  V30 3870 O 539.594 -5.88047 -5.19722 0
M  V30 3871 O 539.631 -4.2322 -7.04443 0
M  V30 3872 C 539.47 -3.99785 -8.49201 0
M  V30 3873 C 540.011 -2.60516 -8.79425 0
M  V30 3874 O 538.956 -1.82663 -8.44573 0
M  V30 3875 C 541.229 -2.10343 -8.03628 0
M  V30 3876 O 541.967 -1.09919 -8.67766 0
M  V30 3877 C 540.561 -1.68446 -6.70876 0
M  V30 3878 O 541.359 -0.684109 -6.08265 0
M  V30 3879 C 539.223 -1.17436 -7.18567 0
M  V30 3880 N 538.18 -1.52699 -6.23988 0
M  V30 3881 C 538.349 -2.578 -5.40574 0
M  V30 3882 N 537.322 -2.78966 -4.61193 0
M  V30 3883 C 536.437 -1.78725 -4.95769 0
M  V30 3884 C 535.17 -1.45727 -4.44207 0
M  V30 3885 N 534.605 -0.374977 -5.05812 0
M  V30 3886 C 535.207 0.345585 -6.05615 0
M  V30 3887 N 536.384 0.0787651 -6.56253 0
M  V30 3888 C 536.959 -1.00499 -5.96189 0
M  V30 3889 H 540.438 -2.53396 -6.02698 0
M  V30 3890 H 541.921 -2.93881 -7.85526 0
M  V30 3891 H 540.227 -2.52078 -9.87225 0
M  V30 3892 H 540.037 -4.75072 -9.05887 0
M  V30 3893 H 538.407 -4.05244 -8.76668 0
M  V30 3894 H 539.249 -3.18977 -5.3945 0
M  V30 3895 H 541.047 0.177619 -6.34151 0
M  V30 3896 P 542.905 -1.25109 -8.70152 0
M  V30 3897 O 544.327 -1.29744 -9.22016 0
M  V30 3898 O 542.545 -2.13714 -7.55141 0
M  V30 3899 O 542.582 0.248149 -8.21425 0
M  V30 3900 C 542.422 1.22779 -9.30434 0
M  V30 3901 C 542.962 2.56293 -8.80664 0
M  V30 3902 O 541.906 3.02979 -8.09349 0
M  V30 3903 C 544.18 2.57523 -7.89775 0
M  V30 3904 O 544.918 3.7668 -7.89438 0
M  V30 3905 C 543.511 2.20997 -6.55446 0
M  V30 3906 O 544.31 2.71895 -5.48509 0
M  V30 3907 C 542.174 2.89693 -6.67988 0
M  V30 3908 H 542.206 3.88793 -6.19859 0
M  V30 3909 H 543.389 1.12046 -6.44229 0
M  V30 3910 H 544.873 1.7746 -8.19711 0
M  V30 3911 H 543.179 3.20706 -9.67112 0
M  V30 3912 H 542.989 0.901032 -10.1892 0
M  V30 3913 H 541.359 1.33049 -9.56592 0
M  V30 3914 H 543.998 3.57847 -5.23962 0
M  V30 3915 P 545.855 3.65191 -7.99657 0
M  V30 3916 O 547.277 3.89332 -8.45794 0
M  V30 3917 O 545.495 2.28472 -7.50807 0
M  V30 3918 O 545.532 4.64972 -6.77611 0
M  V30 3919 C 545.372 6.06319 -7.16352 0
M  V30 3920 C 545.912 6.91731 -6.02299 0
M  V30 3921 O 544.856 6.92449 -5.17064 0
M  V30 3922 C 547.13 6.43627 -5.25174 0
M  V30 3923 O 547.868 7.43686 -4.60469 0
M  V30 3924 C 546.461 5.40275 -4.31916 0
M  V30 3925 O 547.26 5.25279 -3.14438 0
M  V30 3926 C 545.124 6.04847 -4.05327 0
M  V30 3927 H 545.156 6.62195 -3.11261 0
M  V30 3928 H 546.339 4.42556 -4.81383 0
M  V30 3929 H 547.823 5.92458 -5.93643 0
M  V30 3930 H 546.129 7.92655 -6.402 0
M  V30 3931 H 545.939 6.26671 -8.0846 0
M  V30 3932 H 544.309 6.29101 -7.32804 0
M  V30 3933 H 546.948 5.84315 -2.47318 0
M  V30 3934 P 548.806 7.39546 -4.75277 0
M  V30 3935 O 550.228 7.84798 -5.01039 0
M  V30 3936 O 548.446 5.9812 -5.08098 0
M  V30 3937 O 548.483 7.57503 -3.1866 0
M  V30 3938 C 548.323 8.97357 -2.74833 0
M  V30 3939 C 548.863 9.07548 -1.32709 0
M  V30 3940 O 547.807 8.62072 -0.606159 0
M  V30 3941 C 550.081 8.25383 -0.938334 0
M  V30 3942 O 550.819 8.74577 0.146954 0
M  V30 3943 C 549.412 6.8802 -0.712559 0
M  V30 3944 O 550.211 6.1189 0.194655 0
M  V30 3945 C 548.075 7.27966 -0.139777 0
M  V30 3946 H 548.107 7.25354 0.961601 0
M  V30 3947 H 549.29 6.32557 -1.65702 0
M  V30 3948 H 550.774 8.19355 -1.79097 0
M  V30 3949 H 549.08 10.1294 -1.10029 0
M  V30 3950 H 548.89 9.64276 -3.41316 0
M  V30 3951 H 547.26 9.25417 -2.76357 0
M  V30 3952 H 549.899 6.25267 1.07847 0
M  V30 3953 P 551.757 8.791 3.52383e-12 0
M  V30 3954 O 553.179 9.31096 0.027933 0
M  V30 3955 O 551.397 7.77869 -1.04071 0
M  V30 3956 O 551.434 8.09533 1.41463 0
M  V30 3957 C 551.274 9.0349 2.53943 0
M  V30 3958 C 551.814 8.35226 3.79016 0
M  V30 3959 O 550.758 7.57992 4.15078 0
M  V30 3960 C 553.032 7.45087 3.67298 0
M  V30 3961 O 553.77 7.27796 4.85194 0
M  V30 3962 C 552.363 6.17323 3.12027 0
M  V30 3963 O 553.162 5.04231 3.47188 0
M  V30 3964 C 551.026 6.19961 3.81809 0
M  V30 3965 H 551.058 5.58218 4.73051 0
M  V30 3966 H 552.241 6.21726 2.02589 0
M  V30 3967 H 553.725 7.86112 2.9231 0
M  V30 3968 H 552.031 9.11627 4.55076 0
M  V30 3969 H 551.841 9.9573 2.34194 0
M  V30 3970 H 550.211 9.2792 2.67832 0
M  V30 3971 H 552.85 4.67702 4.28772 0
M  V30 3972 P 554.707 7.39546 4.75277 0
M  V30 3973 O 556.129 7.81777 5.05738 0
M  V30 3974 O 554.347 7.1065 3.32998 0
M  V30 3975 O 554.384 6.04542 5.56673 0
M  V30 3976 C 554.224 6.22772 7.02095 0
M  V30 3977 C 554.764 4.97725 7.70406 0
M  V30 3978 O 553.708 4.13256 7.58987 0
M  V30 3979 C 555.982 4.28231 7.11815 0
M  V30 3980 O 556.72 3.49945 8.01648 0
M  V30 3981 C 555.313 3.5063 5.96244 0
M  V30 3982 O 556.112 2.36482 5.64681 0
M  V30 3983 C 553.976 3.15122 6.56374 0
M  V30 3984 H 554.008 2.13853 6.99751 0
M  V30 3985 H 555.191 4.13501 5.06559 0
M  V30 3986 H 556.675 5.03285 6.70911 0
M  V30 3987 H 554.981 5.20877 8.75697 0
M  V30 3988 H 554.791 7.11046 7.35349 0
M  V30 3989 H 553.161 6.35815 7.26986 0
M  V30 3990 H 555.8 1.61644 6.13565 0
M  V30 3991 P 557.658 3.65191 7.99657 0
M  V30 3992 O 559.079 3.84292 8.48206 0
M  V30 3993 O 557.298 4.17805 6.64342 0
M  V30 3994 O 557.335 2.07613 7.95143 0
M  V30 3995 C 557.174 1.44344 9.27435 0
M  V30 3996 C 557.715 0.0220036 9.17197 0
M  V30 3997 O 556.66 -0.626794 8.61824 0
M  V30 3998 C 558.933 -0.24586 8.30336 0
M  V30 3999 O 559.671 -1.39011 8.63583 0
M  V30 4000 C 558.265 -0.273849 6.91158 0
M  V30 4001 O 559.063 -1.05728 6.029 0
M  V30 4002 C 556.927 -0.897649 7.22545 0
M  V30 4003 N 555.884 -0.292839 6.41732 0
M  V30 4004 C 556.053 0.950603 5.91308 0
M  V30 4005 N 555.026 1.37732 5.21105 0
M  V30 4006 C 554.141 0.318109 5.26039 0
M  V30 4007 C 552.874 0.146766 4.6727 0
M  V30 4008 N 552.275 1.08519 3.89983 0
M  V30 4009 N 552.309 -1.06525 4.95887 0
M  V30 4010 C 552.911 -2.0378 5.71347 0
M  V30 4011 N 554.088 -1.92445 6.27451 0
M  V30 4012 C 554.663 -0.715382 6.00353 0
M  V30 4013 H 556.959 -1.98383 7.04189 0
M  V30 4014 H 558.142 0.733318 6.49674 0
M  V30 4015 H 559.625 0.60668 8.36503 0
M  V30 4016 H 557.931 -0.362662 10.1825 0
M  V30 4017 H 557.741 2.00611 10.0304 0
M  V30 4018 H 556.111 1.41843 9.55327 0
M  V30 4019 H 552.375 -2.97041 5.85344 0
M  V30 4020 H 556.953 1.54076 6.07465 0
M  V30 4021 H 551.345 0.901517 3.49562 0
M  V30 4022 H 552.749 1.97957 3.71669 0
M  V30 4023 H 558.751 -1.95704 6.0346 0
M  V30 4024 P 560.608 -1.25109 8.70152 0
M  V30 4025 O 562.03 -1.35274 9.21221 0
M  V30 4026 O 560.248 -0.0769065 7.84762 0
M  V30 4027 O 560.285 -2.55232 7.81161 0
M  V30 4028 C 560.125 -3.79939 8.58154 0
M  V30 4029 C 560.665 -4.94023 7.72785 0
M  V30 4030 O 559.609 -5.18726 6.91205 0
M  V30 4031 C 561.883 -4.69597 6.85231 0
M  V30 4032 O 562.621 -5.83832 6.51337 0
M  V30 4033 C 561.214 -3.96706 5.66633 0
M  V30 4034 O 562.013 -4.15414 4.49689 0
M  V30 4035 C 559.877 -4.66153 5.59313 0
M  V30 4036 H 559.909 -5.47679 4.85214 0
M  V30 4037 H 561.092 -2.89008 5.86566 0
M  V30 4038 H 562.576 -4.0121 7.36511 0
M  V30 4039 H 560.882 -5.80182 8.37584 0
M  V30 4040 H 560.692 -3.73517 9.52265 0
M  V30 4041 H 559.062 -3.97163 8.80359 0
M  V30 4042 H 561.701 -4.90969 4.01921 0
M  V30 4043 P 563.559 -5.75688 6.64379 0
M  V30 4044 O 564.981 -6.11849 7.01846 0
M  V30 4045 O 563.199 -4.30744 6.56026 0
M  V30 4046 O 563.236 -6.37042 5.19165 0
M  V30 4047 C 563.076 -7.83578 5.16515 0
M  V30 4048 C 563.616 -8.33398 3.83019 0
M  V30 4049 O 562.56 -8.10074 3.01034 0
M  V30 4050 C 564.834 -7.65514 3.2257 0
M  V30 4051 O 565.572 -8.4329 2.32297 0
M  V30 4052 C 564.165 -6.40075 2.62207 0
M  V30 4053 O 564.964 -5.92589 1.53712 0
M  V30 4054 C 562.828 -6.9454 2.18503 0
M  V30 4055 H 562.86 -7.23063 1.12091 0
M  V30 4056 H 564.043 -5.6025 3.37201 0
M  V30 4057 H 565.527 -7.35707 4.02681 0
M  V30 4058 H 563.833 -9.40912 3.9095 0
M  V30 4059 H 563.643 -8.29056 5.99158 0
M  V30 4060 H 562.013 -8.10073 5.25882 0
M  V30 4061 H 564.652 -6.30324 0.726794 0
M  V30 4062 P 566.509 -8.4349 2.47671 0
M  V30 4063 O 567.93 -8.94263 2.59668 0
M  V30 4064 O 566.149 -7.1704 3.19006 0
M  V30 4065 O 566.186 -8.16596 0.923387 0
M  V30 4066 C 566.025 -9.38537 0.108869 0
M  V30 4067 C 566.566 -9.08175 -1.28353 0
M  V30 4068 O 565.511 -8.44131 -1.84692 0
M  V30 4069 C 567.784 -8.18386 -1.42505 0
M  V30 4070 O 568.522 -8.3501 -2.60497 0
M  V30 4071 C 567.116 -6.80225 -1.25468 0
M  V30 4072 O 567.914 -5.81716 -1.90454 0
M  V30 4073 C 565.778 -7.02416 -1.9168 0
M  V30 4074 N 564.735 -6.31033 -1.20314 0
M  V30 4075 C 564.904 -5.98817 0.0994088 0
M  V30 4076 N 563.877 -5.35403 0.621694 0
M  V30 4077 C 562.992 -5.25212 -0.43376 0
M  V30 4078 C 561.725 -4.64602 -0.519722 0
M  V30 4079 N 561.16 -4.7568 -1.76013 0
M  V30 4080 C 561.762 -5.3653 -2.83017 0
M  V30 4081 N 562.939 -5.93676 -2.79782 0
M  V30 4082 C 563.514 -5.84061 -1.56249 0
M  V30 4083 H 566.993 -6.53498 -0.198729 0
M  V30 4084 H 568.476 -8.36622 -0.589963 0
M  V30 4085 H 566.782 -10.0273 -1.8081 0
M  V30 4086 H 566.592 -10.2138 0.558219 0
M  V30 4087 H 564.962 -9.6579 0.0444202 0
M  V30 4088 H 565.804 -6.23209 0.660562 0
M  V30 4089 H 567.602 -5.69466 -2.79593 0
M  V30 4090 P 569.46 -8.4349 -2.47671 0
M  V30 4091 O 570.882 -8.92593 -2.65 0
M  V30 4092 O 569.1 -7.7568 -1.19296 0
M  V30 4093 O 569.137 -7.36886 -3.63805 0
M  V30 4094 C 568.977 -7.95349 -4.982 0
M  V30 4095 C 569.517 -6.94612 -5.98974 0
M  V30 4096 O 568.461 -6.10347 -6.11815 0
M  V30 4097 C 570.735 -6.11426 -5.62335 0
M  V30 4098 O 571.473 -5.6162 -6.70584 0
M  V30 4099 C 570.066 -5.04409 -4.73308 0
M  V30 4100 O 570.865 -3.85992 -4.75183 0
M  V30 4101 C 568.729 -4.8728 -5.41006 0
M  V30 4102 H 568.761 -4.02333 -6.11157 0
M  V30 4103 H 569.944 -5.39466 -3.69543 0
M  V30 4104 H 571.428 -6.71916 -5.01943 0
M  V30 4105 H 569.734 -7.4649 -6.93477 0
M  V30 4106 H 569.544 -8.89416 -5.05237 0
M  V30 4107 H 567.914 -8.14876 -5.18409 0
M  V30 4108 H 570.553 -3.27957 -5.4317 0
M  V30 4109 P 572.411 -5.75688 -6.64379 0
M  V30 4110 O 573.833 -6.07627 -7.05504 0
M  V30 4111 O 572.051 -5.88047 -5.19722 0
M  V30 4112 O 572.088 -4.2322 -7.04443 0
M  V30 4113 C 571.928 -3.99743 -8.4911 0
M  V30 4114 C 572.468 -2.60516 -8.79425 0
M  V30 4115 O 571.412 -1.82684 -8.4467 0
M  V30 4116 C 573.686 -2.10343 -8.03628 0
M  V30 4117 O 574.424 -1.09919 -8.67766 0
M  V30 4118 C 573.017 -1.68446 -6.70876 0
M  V30 4119 O 573.816 -0.678137 -6.08433 0
M  V30 4120 C 571.68 -1.17436 -7.18567 0
M  V30 4121 H 571.712 -0.0804732 -7.31656 0
M  V30 4122 H 572.895 -2.54037 -6.02537 0
M  V30 4123 H 574.379 -2.93881 -7.85526 0
M  V30 4124 H 572.685 -2.53065 -9.86973 0
M  V30 4125 H 572.495 -4.75072 -9.05887 0
M  V30 4126 H 570.865 -4.05244 -8.76668 0
M  V30 4127 H 573.504 0.177647 -6.34251 0
M  V30 4128 P 575.361 -1.25109 -8.70152 0
M  V30 4129 O 576.783 -1.29744 -9.22016 0
M  V30 4130 O 575.001 -2.13714 -7.55141 0
M  V30 4131 O 575.038 0.248149 -8.21425 0
M  V30 4132 C 574.878 1.22779 -9.30434 0
M  V30 4133 C 575.418 2.56293 -8.80664 0
M  V30 4134 O 574.362 3.02979 -8.09349 0
M  V30 4135 C 576.636 2.57523 -7.89775 0
M  V30 4136 O 577.374 3.7668 -7.89438 0
M  V30 4137 C 575.967 2.20997 -6.55446 0
M  V30 4138 O 576.766 2.71895 -5.48509 0
M  V30 4139 C 574.63 2.89693 -6.67988 0
M  V30 4140 H 574.662 3.88793 -6.19859 0
M  V30 4141 H 575.845 1.12046 -6.44229 0
M  V30 4142 H 577.329 1.7746 -8.19711 0
M  V30 4143 H 575.635 3.20706 -9.67112 0
M  V30 4144 H 575.445 0.901032 -10.1892 0
M  V30 4145 H 573.815 1.33049 -9.56592 0
M  V30 4146 H 576.454 3.57847 -5.23962 0
M  V30 4147 P 578.312 3.65191 -7.99657 0
M  V30 4148 O 579.734 3.89332 -8.45794 0
M  V30 4149 O 577.952 2.28472 -7.50807 0
M  V30 4150 O 577.989 4.64972 -6.77611 0
M  V30 4151 C 577.829 6.06319 -7.16352 0
M  V30 4152 C 578.369 6.91731 -6.02299 0
M  V30 4153 O 577.313 6.92449 -5.17064 0
M  V30 4154 C 579.587 6.43627 -5.25174 0
M  V30 4155 O 580.325 7.43686 -4.60469 0
M  V30 4156 C 578.918 5.40275 -4.31916 0
M  V30 4157 O 579.717 5.25279 -3.14438 0
M  V30 4158 C 577.581 6.04847 -4.05327 0
M  V30 4159 H 577.613 6.62195 -3.11261 0
M  V30 4160 H 578.796 4.42556 -4.81383 0
M  V30 4161 H 580.28 5.92458 -5.93643 0
M  V30 4162 H 578.586 7.92655 -6.402 0
M  V30 4163 H 578.396 6.26671 -8.0846 0
M  V30 4164 H 576.766 6.29101 -7.32804 0
M  V30 4165 H 579.405 5.84315 -2.47318 0
M  V30 4166 P 581.262 7.39546 -4.75277 0
M  V30 4167 O 582.684 7.84798 -5.01039 0
M  V30 4168 O 580.902 5.9812 -5.08098 0
M  V30 4169 O 580.939 7.57503 -3.1866 0
M  V30 4170 C 580.779 8.97357 -2.74833 0
M  V30 4171 C 581.319 9.07548 -1.32709 0
M  V30 4172 O 580.263 8.62072 -0.606159 0
M  V30 4173 C 582.537 8.25383 -0.938334 0
M  V30 4174 O 583.275 8.74577 0.146954 0
M  V30 4175 C 581.868 6.8802 -0.712559 0
M  V30 4176 O 582.667 6.1189 0.194655 0
M  V30 4177 C 580.531 7.27966 -0.139777 0
M  V30 4178 H 580.563 7.25354 0.961601 0
M  V30 4179 H 581.746 6.32557 -1.65702 0
M  V30 4180 H 583.23 8.19355 -1.79097 0
M  V30 4181 H 581.536 10.1294 -1.10029 0
M  V30 4182 H 581.346 9.64276 -3.41316 0
M  V30 4183 H 579.716 9.25417 -2.76357 0
M  V30 4184 H 582.355 6.25267 1.07847 0
M  V30 4185 P 584.213 8.791 3.834e-12 0
M  V30 4186 O 585.634 9.31196 0.027936 0
M  V30 4187 O 583.853 7.77869 -1.04071 0
M  V30 4188 O 583.89 8.09533 1.41463 0
M  V30 4189 C 583.729 9.03587 2.5397 0
M  V30 4190 C 584.27 8.35226 3.79016 0
M  V30 4191 O 583.215 7.57904 4.1503 0
M  V30 4192 C 585.488 7.45087 3.67298 0
M  V30 4193 O 586.226 7.27796 4.85194 0
M  V30 4194 C 584.82 6.17323 3.12027 0
M  V30 4195 O 585.618 5.04496 3.46627 0
M  V30 4196 C 583.482 6.19961 3.81809 0
M  V30 4197 N 582.439 5.71575 2.93223 0
M  V30 4198 C 582.608 5.77362 1.59168 0
M  V30 4199 N 581.581 5.3123 0.911893 0
M  V30 4200 C 580.696 4.91717 1.89588 0
M  V30 4201 C 579.429 4.3114 1.8076 0
M  V30 4202 N 578.83 3.99821 0.632928 0
M  V30 4203 N 578.864 4.06823 3.02898 0
M  V30 4204 C 579.466 4.35062 4.22711 0
M  V30 4205 N 580.643 4.90805 4.35707 0
M  V30 4206 C 581.218 5.16382 3.14469 0
M  V30 4207 H 583.514 5.58142 4.72986 0
M  V30 4208 H 584.697 6.21428 2.0318 0
M  V30 4209 H 586.18 7.86112 2.9231 0
M  V30 4210 H 584.486 9.11171 4.55987 0
M  V30 4211 H 584.296 9.9573 2.34194 0
M  V30 4212 H 582.666 9.2792 2.67832 0
M  V30 4213 H 578.93 4.09052 5.13359 0
M  V30 4214 H 583.508 6.16575 1.12198 0
M  V30 4215 H 577.9 3.55423 0.632085 0
M  V30 4216 H 579.304 4.20317 -0.256712 0
M  V30 4217 H 585.306 4.67628 4.28704 0
M  V30 4218 P 587.163 7.39546 4.75277 0
M  V30 4219 O 588.585 7.81777 5.05738 0
M  V30 4220 O 586.803 7.1065 3.32998 0
M  V30 4221 O 586.84 6.04542 5.56673 0
M  V30 4222 C 586.68 6.22772 7.02095 0
M  V30 4223 C 587.22 4.97725 7.70406 0
M  V30 4224 O 586.164 4.13256 7.58987 0
M  V30 4225 C 588.438 4.28231 7.11815 0
M  V30 4226 O 589.176 3.49945 8.01648 0
M  V30 4227 C 587.769 3.5063 5.96244 0
M  V30 4228 O 588.568 2.36482 5.64681 0
M  V30 4229 C 586.432 3.15122 6.56374 0
M  V30 4230 H 586.464 2.13853 6.99751 0
M  V30 4231 H 587.647 4.13501 5.06559 0
M  V30 4232 H 589.131 5.03285 6.70911 0
M  V30 4233 H 587.437 5.20877 8.75697 0
M  V30 4234 H 587.247 7.11046 7.35349 0
M  V30 4235 H 585.617 6.35815 7.26986 0
M  V30 4236 H 588.256 1.61644 6.13565 0
M  V30 4237 P 590.114 3.65191 7.99657 0
M  V30 4238 O 591.536 3.8425 8.48115 0
M  V30 4239 O 589.754 4.17805 6.64342 0
M  V30 4240 O 589.791 2.07613 7.95143 0
M  V30 4241 C 589.631 1.44328 9.27336 0
M  V30 4242 C 590.171 0.0220036 9.17197 0
M  V30 4243 O 589.115 -0.626867 8.61923 0
M  V30 4244 C 591.389 -0.24586 8.30336 0
M  V30 4245 O 592.127 -1.39011 8.63583 0
M  V30 4246 C 590.72 -0.273849 6.91158 0
M  V30 4247 O 591.519 -1.06348 6.02892 0
M  V30 4248 C 589.383 -0.897649 7.22545 0
M  V30 4249 H 589.415 -1.9841 7.04286 0
M  V30 4250 H 590.598 0.739928 6.497 0
M  V30 4251 H 592.082 0.60668 8.36503 0
M  V30 4252 H 590.388 -0.352479 10.1829 0
M  V30 4253 H 590.198 2.00611 10.0304 0
M  V30 4254 H 588.568 1.41843 9.55327 0
M  V30 4255 H 591.207 -1.95734 6.03555 0
M  V30 4256 P 593.065 -1.25109 8.70152 0
M  V30 4257 O 594.466 -1.31452 9.27431 0
M  V30 4258 O 592.687 -0.0458113 7.89887 0
M  V30 4259 O 592.742 -2.55201 7.81066 0
M  V30 4260 C 592.582 -3.79939 8.58154 0
M  V30 4261 C 593.122 -4.93969 7.72701 0
M  V30 4262 O 592.066 -5.18666 6.91125 0
M  V30 4263 C 594.339 -4.69597 6.85231 0
M  V30 4264 O 595.078 -5.83832 6.51337 0
M  V30 4265 C 593.672 -3.96706 5.66633 0
M  V30 4266 O 594.47 -4.15346 4.49615 0
M  V30 4267 C 592.334 -4.66153 5.59313 0
M  V30 4268 N 591.291 -3.71582 5.24027 0
M  V30 4269 C 590.256 -4.15133 4.44901 0
M  V30 4270 O 590.295 -5.32122 4.00336 0
M  V30 4271 N 589.244 -3.30554 4.15693 0
M  V30 4272 C 589.292 -2.04701 4.61105 0
M  V30 4273 C 590.388 -1.57111 5.38655 0
M  V30 4274 C 591.354 -2.44234 5.68454 0
M  V30 4275 H 592.366 -5.47604 4.85148 0
M  V30 4276 H 593.549 -2.8955 5.86187 0
M  V30 4277 H 595.033 -4.01995 7.36197 0
M  V30 4278 H 593.339 -5.81019 8.37003 0
M  V30 4279 H 593.148 -3.73517 9.52265 0
M  V30 4280 H 591.518 -3.97122 8.80267 0
M  V30 4281 H 590.436 -0.538464 5.72373 0
M  V30 4282 H 592.2 -2.11927 6.29377 0
M  V30 4283 H 594.254 -4.98352 4.09633 0
M  V30 4284 P 596.015 -5.75688 6.64379 0
M  V30 4285 O 597.437 -6.11849 7.01846 0
M  V30 4286 O 595.655 -4.30744 6.56026 0
M  V30 4287 O 595.692 -6.37042 5.19165 0
M  V30 4288 C 595.532 -7.83578 5.16515 0
M  V30 4289 C 596.072 -8.33398 3.83019 0
M  V30 4290 O 595.016 -8.10074 3.01034 0
M  V30 4291 C 597.29 -7.65514 3.2257 0
M  V30 4292 O 598.028 -8.4329 2.32297 0
M  V30 4293 C 596.621 -6.40075 2.62207 0
M  V30 4294 O 597.42 -5.92589 1.53712 0
M  V30 4295 C 595.284 -6.9454 2.18503 0
M  V30 4296 H 595.316 -7.23063 1.12091 0
M  V30 4297 H 596.499 -5.6025 3.37201 0
M  V30 4298 H 597.983 -7.35707 4.02681 0
M  V30 4299 H 596.289 -9.40912 3.9095 0
M  V30 4300 H 596.099 -8.29056 5.99158 0
M  V30 4301 H 594.469 -8.10073 5.25882 0
M  V30 4302 H 597.108 -6.30324 0.726794 0
M  V30 4303 P 598.966 -8.4349 2.47671 0
M  V30 4304 O 600.388 -8.94359 2.59696 0
M  V30 4305 O 598.606 -7.1704 3.19006 0
M  V30 4306 O 598.643 -8.16596 0.923387 0
M  V30 4307 C 598.483 -9.38437 0.108857 0
M  V30 4308 C 599.023 -9.08076 -1.28339 0
M  V30 4309 O 597.968 -8.44229 -1.84713 0
M  V30 4310 C 600.241 -8.18386 -1.42505 0
M  V30 4311 O 600.979 -8.3501 -2.60497 0
M  V30 4312 C 599.573 -6.80225 -1.25468 0
M  V30 4313 O 600.371 -5.81526 -1.91035 0
M  V30 4314 C 598.235 -7.02416 -1.9168 0
M  V30 4315 N 597.192 -6.31033 -1.20314 0
M  V30 4316 C 597.254 -6.18781 0.121293 0
M  V30 4317 N 596.209 -5.49762 0.588272 0
M  V30 4318 C 595.475 -5.22015 -0.488988 0
M  V30 4319 C 594.169 -4.61966 -0.596448 0
M  V30 4320 O 593.436 -4.19162 0.309059 0
M  V30 4321 N 593.739 -4.53773 -1.878 0
M  V30 4322 C 594.488 -4.99623 -2.99082 0
M  V30 4323 N 593.891 -4.78912 -4.21227 0
M  V30 4324 N 595.641 -5.59957 -2.91093 0
M  V30 4325 C 596.098 -5.70225 -1.64218 0
M  V30 4326 H 598.267 -6.6888 -2.96621 0
M  V30 4327 H 599.45 -6.53517 -0.192194 0
M  V30 4328 H 600.935 -8.36563 -0.598329 0
M  V30 4329 H 599.24 -10.0291 -1.79807 0
M  V30 4330 H 599.05 -10.2138 0.558219 0
M  V30 4331 H 597.419 -9.6579 0.0444202 0
M  V30 4332 H 592.843 -4.12883 -2.05283 0
M  V30 4333 H 598.05 -6.59596 0.745856 0
M  V30 4334 H 592.98 -4.31425 -4.2628 0
M  V30 4335 H 594.356 -5.11219 -5.07148 0
M  V30 4336 H 600.06 -5.69466 -2.79593 0
M  V30 4337 P 601.916 -8.4349 -2.47671 0
M  V30 4338 O 603.337 -8.92689 -2.65029 0
M  V30 4339 O 601.556 -7.7568 -1.19296 0
M  V30 4340 O 601.593 -7.36886 -3.63805 0
M  V30 4341 C 601.432 -7.95433 -4.98253 0
M  V30 4342 C 601.973 -6.94612 -5.98974 0
M  V30 4343 O 600.918 -6.10277 -6.11744 0
M  V30 4344 C 603.191 -6.11426 -5.62335 0
M  V30 4345 O 603.929 -5.6162 -6.70584 0
M  V30 4346 C 602.523 -5.04409 -4.73308 0
M  V30 4347 O 603.321 -3.86404 -4.74719 0
M  V30 4348 C 601.185 -4.8728 -5.41006 0
M  V30 4349 N 600.142 -4.65812 -4.42377 0
M  V30 4350 C 600.311 -5.09132 -3.15382 0
M  V30 4351 N 599.284 -4.84021 -2.3716 0
M  V30 4352 C 598.399 -4.18386 -3.20441 0
M  V30 4353 C 597.132 -3.6275 -2.94905 0
M  V30 4354 N 596.567 -3.05008 -4.05243 0
M  V30 4355 C 597.169 -2.98348 -5.28159 0
M  V30 4356 N 598.346 -3.48171 -5.56333 0
M  V30 4357 C 598.921 -4.06869 -4.47212 0
M  V30 4358 H 602.4 -5.39013 -3.70026 0
M  V30 4359 H 603.883 -6.71916 -5.01943 0
M  V30 4360 H 602.189 -7.45796 -6.94223 0
M  V30 4361 H 601.999 -8.89416 -5.05237 0
M  V30 4362 H 600.369 -8.14876 -5.18409 0
M  V30 4363 H 601.211 -5.59989 -2.81362 0
M  V30 4364 H 603.009 -3.27906 -5.43085 0
M  V30 4365 P 604.867 -5.75688 -6.64379 0
M  V30 4366 O 606.289 -6.07758 -7.05656 0
M  V30 4367 O 604.507 -5.88047 -5.19722 0
M  V30 4368 O 604.544 -4.2322 -7.04443 0
M  V30 4369 C 604.384 -3.99743 -8.4911 0
M  V30 4370 C 604.924 -2.60487 -8.79329 0
M  V30 4371 O 603.869 -1.82684 -8.4467 0
M  V30 4372 C 606.142 -2.10343 -8.03628 0
M  V30 4373 O 606.88 -1.09919 -8.67766 0
M  V30 4374 C 605.474 -1.68446 -6.70876 0
M  V30 4375 O 606.272 -0.678026 -6.08333 0
M  V30 4376 C 604.136 -1.17436 -7.18567 0
M  V30 4377 N 603.093 -1.52699 -6.23988 0
M  V30 4378 C 603.155 -2.68084 -5.57824 0
M  V30 4379 N 602.11 -2.8189 -4.75643 0
M  V30 4380 C 601.376 -1.72373 -4.95155 0
M  V30 4381 C 600.07 -1.37653 -4.44996 0
M  V30 4382 O 599.337 -2.02239 -3.68445 0
M  V30 4383 N 599.64 -0.17675 -4.90782 0
M  V30 4384 C 600.389 0.645036 -5.78716 0
M  V30 4385 N 599.792 1.84214 -6.10618 0
M  V30 4386 N 601.542 0.321732 -6.30279 0
M  V30 4387 C 601.999 -0.87502 -5.86913 0
M  V30 4388 H 604.168 -0.0804732 -7.31656 0
M  V30 4389 H 605.351 -2.53998 -6.02444 0
M  V30 4390 H 606.836 -2.93095 -7.8582 0
M  V30 4391 H 605.141 -2.53065 -9.86973 0
M  V30 4392 H 604.951 -4.75072 -9.05887 0
M  V30 4393 H 603.32 -4.05244 -8.76668 0
M  V30 4394 H 598.744 0.152143 -4.60849 0
M  V30 4395 H 603.951 -3.41852 -5.69006 0
M  V30 4396 H 598.881 2.08538 -5.69521 0
M  V30 4397 H 600.257 2.4895 -6.75698 0
M  V30 4398 H 605.961 0.177619 -6.34151 0
M  V30 4399 P 607.817 -1.25109 -8.70152 0
M  V30 4400 O 609.239 -1.29744 -9.22016 0
M  V30 4401 O 607.457 -2.13714 -7.55141 0
M  V30 4402 O 607.494 0.248149 -8.21425 0
M  V30 4403 C 607.334 1.22779 -9.30434 0
M  V30 4404 C 607.874 2.56293 -8.80664 0
M  V30 4405 O 606.818 3.02979 -8.09349 0
M  V30 4406 C 609.092 2.57523 -7.89775 0
M  V30 4407 O 609.83 3.7668 -7.89438 0
M  V30 4408 C 608.423 2.20997 -6.55446 0
M  V30 4409 O 609.222 2.71895 -5.48509 0
M  V30 4410 C 607.086 2.89693 -6.67988 0
M  V30 4411 H 607.118 3.88793 -6.19859 0
M  V30 4412 H 608.301 1.12046 -6.44229 0
M  V30 4413 H 609.785 1.7746 -8.19711 0
M  V30 4414 H 608.091 3.20706 -9.67112 0
M  V30 4415 H 607.901 0.901032 -10.1892 0
M  V30 4416 H 606.271 1.33049 -9.56592 0
M  V30 4417 H 608.91 3.57847 -5.23962 0
M  V30 4418 P 610.768 3.65191 -7.99657 0
M  V30 4419 O 612.19 3.89332 -8.45794 0
M  V30 4420 O 610.408 2.28472 -7.50807 0
M  V30 4421 O 610.445 4.64972 -6.77611 0
M  V30 4422 C 610.285 6.06319 -7.16352 0
M  V30 4423 C 610.825 6.91731 -6.02299 0
M  V30 4424 O 609.769 6.92449 -5.17064 0
M  V30 4425 C 612.043 6.43627 -5.25174 0
M  V30 4426 O 612.781 7.43686 -4.60469 0
M  V30 4427 C 611.374 5.40275 -4.31916 0
M  V30 4428 O 612.173 5.25279 -3.14438 0
M  V30 4429 C 610.037 6.04847 -4.05327 0
M  V30 4430 H 610.069 6.62195 -3.11261 0
M  V30 4431 H 611.252 4.42556 -4.81383 0
M  V30 4432 H 612.736 5.92458 -5.93643 0
M  V30 4433 H 611.042 7.92655 -6.402 0
M  V30 4434 H 610.852 6.26671 -8.0846 0
M  V30 4435 H 609.222 6.29101 -7.32804 0
M  V30 4436 H 611.861 5.84315 -2.47318 0
M  V30 4437 P 613.719 7.39546 -4.75277 0
M  V30 4438 O 615.141 7.84798 -5.01039 0
M  V30 4439 O 613.359 5.9812 -5.08098 0
M  V30 4440 O 613.396 7.57503 -3.1866 0
M  V30 4441 C 613.236 8.97357 -2.74833 0
M  V30 4442 C 613.776 9.07548 -1.32709 0
M  V30 4443 O 612.72 8.62072 -0.606159 0
M  V30 4444 C 614.994 8.25383 -0.938334 0
M  V30 4445 O 615.732 8.74577 0.146954 0
M  V30 4446 C 614.325 6.8802 -0.712559 0
M  V30 4447 O 615.124 6.1189 0.194655 0
M  V30 4448 C 612.988 7.27966 -0.139777 0
M  V30 4449 H 613.02 7.25354 0.961601 0
M  V30 4450 H 614.203 6.32557 -1.65702 0
M  V30 4451 H 615.687 8.19355 -1.79097 0
M  V30 4452 H 613.993 10.1294 -1.10029 0
M  V30 4453 H 613.803 9.64276 -3.41316 0
M  V30 4454 H 612.173 9.25417 -2.76357 0
M  V30 4455 H 614.812 6.25267 1.07847 0
M  V30 4456 P 616.669 8.791 4.14417e-12 0
M  V30 4457 O 618.091 9.31096 0.027933 0
M  V30 4458 O 616.309 7.77869 -1.04071 0
M  V30 4459 O 616.346 8.09533 1.41463 0
M  V30 4460 C 616.186 9.0349 2.53943 0
M  V30 4461 C 616.726 8.35226 3.79016 0
M  V30 4462 O 615.67 7.57992 4.15078 0
M  V30 4463 C 617.944 7.45087 3.67298 0
M  V30 4464 O 618.682 7.27796 4.85194 0
M  V30 4465 C 617.275 6.17323 3.12027 0
M  V30 4466 O 618.074 5.04231 3.47188 0
M  V30 4467 C 615.938 6.19961 3.81809 0
M  V30 4468 H 615.97 5.58218 4.73051 0
M  V30 4469 H 617.153 6.21726 2.02589 0
M  V30 4470 H 618.637 7.86112 2.9231 0
M  V30 4471 H 616.943 9.11627 4.55076 0
M  V30 4472 H 616.753 9.9573 2.34194 0
M  V30 4473 H 615.123 9.2792 2.67832 0
M  V30 4474 H 617.762 4.67702 4.28772 0
M  V30 4475 P 619.62 7.39546 4.75277 0
M  V30 4476 O 621.042 7.81777 5.05738 0
M  V30 4477 O 619.26 7.1065 3.32998 0
M  V30 4478 O 619.297 6.04542 5.56673 0
M  V30 4479 C 619.137 6.22772 7.02095 0
M  V30 4480 C 619.677 4.97725 7.70406 0
M  V30 4481 O 618.621 4.13256 7.58987 0
M  V30 4482 C 620.895 4.28231 7.11815 0
M  V30 4483 O 621.633 3.49945 8.01648 0
M  V30 4484 C 620.226 3.5063 5.96244 0
M  V30 4485 O 621.025 2.36482 5.64681 0
M  V30 4486 C 618.889 3.15122 6.56374 0
M  V30 4487 H 618.921 2.13853 6.99751 0
M  V30 4488 H 620.104 4.13501 5.06559 0
M  V30 4489 H 621.588 5.03285 6.70911 0
M  V30 4490 H 619.894 5.20877 8.75697 0
M  V30 4491 H 619.704 7.11046 7.35349 0
M  V30 4492 H 618.074 6.35815 7.26986 0
M  V30 4493 H 620.713 1.61644 6.13565 0
M  V30 4494 P 622.57 3.65191 7.99657 0
M  V30 4495 O 623.992 3.8425 8.48115 0
M  V30 4496 O 622.21 4.17805 6.64342 0
M  V30 4497 O 622.247 2.07613 7.95143 0
M  V30 4498 C 622.087 1.44328 9.27336 0
M  V30 4499 C 622.627 0.0220036 9.17197 0
M  V30 4500 O 621.571 -0.626867 8.61923 0
M  V30 4501 C 623.845 -0.24586 8.30336 0
M  V30 4502 O 624.583 -1.39011 8.63583 0
M  V30 4503 C 623.176 -0.273849 6.91158 0
M  V30 4504 O 623.975 -1.06348 6.02892 0
M  V30 4505 C 621.839 -0.897649 7.22545 0
M  V30 4506 H 621.871 -1.9841 7.04286 0
M  V30 4507 H 623.054 0.739928 6.497 0
M  V30 4508 H 624.538 0.60668 8.36503 0
M  V30 4509 H 622.844 -0.352479 10.1829 0
M  V30 4510 H 622.654 2.00611 10.0304 0
M  V30 4511 H 621.024 1.41843 9.55327 0
M  V30 4512 H 623.663 -1.95734 6.03555 0
M  V30 4513 P 625.521 -1.25109 8.70152 0
M  V30 4514 O 626.943 -1.35274 9.21221 0
M  V30 4515 O 625.161 -0.0769065 7.84762 0
M  V30 4516 O 625.198 -2.55232 7.81161 0
M  V30 4517 C 625.038 -3.79939 8.58154 0
M  V30 4518 C 625.578 -4.94023 7.72785 0
M  V30 4519 O 624.522 -5.18726 6.91205 0
M  V30 4520 C 626.796 -4.69597 6.85231 0
M  V30 4521 O 627.534 -5.83832 6.51337 0
M  V30 4522 C 626.127 -3.96706 5.66633 0
M  V30 4523 O 626.926 -4.15414 4.49689 0
M  V30 4524 C 624.79 -4.66153 5.59313 0
M  V30 4525 H 624.822 -5.47679 4.85214 0
M  V30 4526 H 626.005 -2.89008 5.86566 0
M  V30 4527 H 627.489 -4.0121 7.36511 0
M  V30 4528 H 625.795 -5.80182 8.37584 0
M  V30 4529 H 625.605 -3.73517 9.52265 0
M  V30 4530 H 623.975 -3.97163 8.80359 0
M  V30 4531 H 626.614 -4.90969 4.01921 0
M  V30 4532 P 628.471 -5.75688 6.64379 0
M  V30 4533 O 629.893 -6.11849 7.01846 0
M  V30 4534 O 628.111 -4.30744 6.56026 0
M  V30 4535 O 628.148 -6.37042 5.19165 0
M  V30 4536 C 627.988 -7.83578 5.16515 0
M  V30 4537 C 628.528 -8.33398 3.83019 0
M  V30 4538 O 627.472 -8.10074 3.01034 0
M  V30 4539 C 629.746 -7.65514 3.2257 0
M  V30 4540 O 630.484 -8.4329 2.32297 0
M  V30 4541 C 629.077 -6.40075 2.62207 0
M  V30 4542 O 629.876 -5.92589 1.53712 0
M  V30 4543 C 627.74 -6.9454 2.18503 0
M  V30 4544 H 627.772 -7.23063 1.12091 0
M  V30 4545 H 628.955 -5.6025 3.37201 0
M  V30 4546 H 630.439 -7.35707 4.02681 0
M  V30 4547 H 628.745 -9.40912 3.9095 0
M  V30 4548 H 628.555 -8.29056 5.99158 0
M  V30 4549 H 626.925 -8.10073 5.25882 0
M  V30 4550 H 629.564 -6.30324 0.726794 0
M  V30 4551 P 631.422 -8.4349 2.47671 0
M  V30 4552 O 632.844 -8.94167 2.5964 0
M  V30 4553 O 631.062 -7.1704 3.19006 0
M  V30 4554 O 631.099 -8.16596 0.923387 0
M  V30 4555 C 630.939 -9.38437 0.108857 0
M  V30 4556 C 631.479 -9.08175 -1.28353 0
M  V30 4557 O 630.423 -8.44229 -1.84713 0
M  V30 4558 C 632.697 -8.18386 -1.42505 0
M  V30 4559 O 633.435 -8.3501 -2.60497 0
M  V30 4560 C 632.028 -6.80225 -1.25468 0
M  V30 4561 O 632.827 -5.81621 -1.91066 0
M  V30 4562 C 630.691 -7.02416 -1.9168 0
M  V30 4563 H 630.723 -6.6888 -2.96621 0
M  V30 4564 H 631.906 -6.53617 -0.192223 0
M  V30 4565 H 633.39 -8.36622 -0.589963 0
M  V30 4566 H 631.696 -10.0291 -1.79807 0
M  V30 4567 H 631.506 -10.2138 0.558219 0
M  V30 4568 H 629.876 -9.6579 0.0444202 0
M  V30 4569 H 632.515 -5.69556 -2.79637 0
M  V30 4570 P 634.373 -8.4349 -2.47671 0
M  V30 4571 O 635.795 -8.92785 -2.65057 0
M  V30 4572 O 634.013 -7.7568 -1.19296 0
M  V30 4573 O 634.05 -7.36886 -3.63805 0
M  V30 4574 C 633.89 -7.95349 -4.982 0
M  V30 4575 C 634.43 -6.94537 -5.98908 0
M  V30 4576 O 633.375 -6.10347 -6.11815 0
M  V30 4577 C 635.648 -6.11426 -5.62335 0
M  V30 4578 O 636.386 -5.6162 -6.70584 0
M  V30 4579 C 634.98 -5.04409 -4.73308 0
M  V30 4580 O 635.778 -3.85929 -4.75106 0
M  V30 4581 C 633.642 -4.8728 -5.41006 0
M  V30 4582 N 632.599 -4.65812 -4.42377 0
M  V30 4583 C 632.661 -5.27109 -3.24335 0
M  V30 4584 N 631.616 -4.94293 -2.47735 0
M  V30 4585 C 630.882 -4.1271 -3.23359 0
M  V30 4586 C 629.576 -3.56384 -2.99934 0
M  V30 4587 O 628.843 -3.69331 -2.00616 0
M  V30 4588 N 629.146 -2.80206 -4.03316 0
M  V30 4589 C 629.895 -2.58614 -5.2172 0
M  V30 4590 N 629.298 -1.75154 -6.13278 0
M  V30 4591 N 631.048 -3.13689 -5.47619 0
M  V30 4592 C 631.505 -3.90921 -4.46436 0
M  V30 4593 H 633.674 -4.02333 -6.11157 0
M  V30 4594 H 634.857 -5.39383 -3.69487 0
M  V30 4595 H 636.342 -6.71414 -5.02615 0
M  V30 4596 H 634.647 -7.4649 -6.93477 0
M  V30 4597 H 634.457 -8.89416 -5.05237 0
M  V30 4598 H 632.826 -8.14876 -5.18409 0
M  V30 4599 H 628.25 -2.36355 -3.95916 0
M  V30 4600 H 633.457 -5.95212 -2.93859 0
M  V30 4601 H 628.387 -1.32473 -5.91856 0
M  V30 4602 H 629.763 -1.5588 -7.03026 0
M  V30 4603 H 635.467 -3.27906 -5.43085 0
M  V30 4604 P 637.323 -5.75688 -6.64379 0
M  V30 4605 O 638.745 -6.07627 -7.05504 0
M  V30 4606 O 636.963 -5.88047 -5.19722 0
M  V30 4607 O 637 -4.2322 -7.04443 0
M  V30 4608 C 636.84 -3.99743 -8.4911 0
M  V30 4609 C 637.38 -2.60516 -8.79425 0
M  V30 4610 O 636.324 -1.82684 -8.4467 0
M  V30 4611 C 638.598 -2.10343 -8.03628 0
M  V30 4612 O 639.336 -1.09919 -8.67766 0
M  V30 4613 C 637.929 -1.68446 -6.70876 0
M  V30 4614 O 638.728 -0.678137 -6.08433 0
M  V30 4615 C 636.592 -1.17436 -7.18567 0
M  V30 4616 H 636.624 -0.0804732 -7.31656 0
M  V30 4617 H 637.807 -2.54037 -6.02537 0
M  V30 4618 H 639.291 -2.93881 -7.85526 0
M  V30 4619 H 637.597 -2.53065 -9.86973 0
M  V30 4620 H 637.407 -4.75072 -9.05887 0
M  V30 4621 H 635.777 -4.05244 -8.76668 0
M  V30 4622 H 638.416 0.177647 -6.34251 0
M  V30 4623 P 640.274 -1.25109 -8.70152 0
M  V30 4624 O 641.696 -1.29744 -9.22016 0
M  V30 4625 O 639.914 -2.13714 -7.55141 0
M  V30 4626 O 639.951 0.248149 -8.21425 0
M  V30 4627 C 639.791 1.22779 -9.30434 0
M  V30 4628 C 640.331 2.56293 -8.80664 0
M  V30 4629 O 639.275 3.02979 -8.09349 0
M  V30 4630 C 641.549 2.57523 -7.89775 0
M  V30 4631 O 642.287 3.7668 -7.89438 0
M  V30 4632 C 640.88 2.20997 -6.55446 0
M  V30 4633 O 641.679 2.71895 -5.48509 0
M  V30 4634 C 639.543 2.89693 -6.67988 0
M  V30 4635 H 639.575 3.88793 -6.19859 0
M  V30 4636 H 640.758 1.12046 -6.44229 0
M  V30 4637 H 642.242 1.7746 -8.19711 0
M  V30 4638 H 640.548 3.20706 -9.67112 0
M  V30 4639 H 640.358 0.901032 -10.1892 0
M  V30 4640 H 638.728 1.33049 -9.56592 0
M  V30 4641 H 641.367 3.57847 -5.23962 0
M  V30 4642 P 643.224 3.65191 -7.99657 0
M  V30 4643 O 644.646 3.89416 -8.45976 0
M  V30 4644 O 642.864 2.28472 -7.50807 0
M  V30 4645 O 642.901 4.64972 -6.77611 0
M  V30 4646 C 642.741 6.06319 -7.16352 0
M  V30 4647 C 643.281 6.91655 -6.02234 0
M  V30 4648 O 642.226 6.92449 -5.17064 0
M  V30 4649 C 644.499 6.43627 -5.25174 0
M  V30 4650 O 645.237 7.43686 -4.60469 0
M  V30 4651 C 643.831 5.40275 -4.31916 0
M  V30 4652 O 644.629 5.25193 -3.14386 0
M  V30 4653 C 642.493 6.04847 -4.05327 0
M  V30 4654 N 641.45 5.04166 -3.98114 0
M  V30 4655 C 641.512 3.96049 -4.75587 0
M  V30 4656 N 640.467 3.15559 -4.54006 0
M  V30 4657 C 639.733 3.78802 -3.62491 0
M  V30 4658 C 638.427 3.476 -3.10071 0
M  V30 4659 O 637.694 2.51136 -3.37021 0
M  V30 4660 N 637.997 4.39088 -2.19956 0
M  V30 4661 C 638.746 5.53215 -1.81733 0
M  V30 4662 N 638.149 6.31963 -0.860928 0
M  V30 4663 N 639.899 5.86688 -2.32562 0
M  V30 4664 C 640.356 4.97525 -3.23407 0
M  V30 4665 H 642.525 6.62195 -3.11261 0
M  V30 4666 H 643.708 4.42488 -4.8131 0
M  V30 4667 H 645.193 5.93051 -5.9305 0
M  V30 4668 H 643.498 7.92655 -6.402 0
M  V30 4669 H 643.308 6.26671 -8.0846 0
M  V30 4670 H 641.677 6.29101 -7.32804 0
M  V30 4671 H 637.101 4.25523 -1.77604 0
M  V30 4672 H 642.308 3.75576 -5.47333 0
M  V30 4673 H 637.238 6.04684 -0.468946 0
M  V30 4674 H 638.614 7.18054 -0.542422 0
M  V30 4675 H 644.318 5.84223 -2.47279 0
M  V30 4676 P 646.175 7.39546 -4.75277 0
M  V30 4677 O 647.597 7.84798 -5.01039 0
M  V30 4678 O 645.815 5.9812 -5.08098 0
M  V30 4679 O 645.852 7.57503 -3.1866 0
M  V30 4680 C 645.692 8.97357 -2.74833 0
M  V30 4681 C 646.232 9.07548 -1.32709 0
M  V30 4682 O 645.176 8.62072 -0.606159 0
M  V30 4683 C 647.45 8.25383 -0.938334 0
M  V30 4684 O 648.188 8.74577 0.146954 0
M  V30 4685 C 646.781 6.8802 -0.712559 0
M  V30 4686 O 647.58 6.1189 0.194655 0
M  V30 4687 C 645.444 7.27966 -0.139777 0
M  V30 4688 H 645.476 7.25354 0.961601 0
M  V30 4689 H 646.659 6.32557 -1.65702 0
M  V30 4690 H 648.143 8.19355 -1.79097 0
M  V30 4691 H 646.449 10.1294 -1.10029 0
M  V30 4692 H 646.259 9.64276 -3.41316 0
M  V30 4693 H 644.629 9.25417 -2.76357 0
M  V30 4694 H 647.268 6.25267 1.07847 0
M  V30 4695 P 649.125 8.791 4.45433e-12 0
M  V30 4696 O 650.547 9.31096 0.027933 0
M  V30 4697 O 648.765 7.77869 -1.04071 0
M  V30 4698 O 648.802 8.09533 1.41463 0
M  V30 4699 C 648.642 9.0349 2.53943 0
M  V30 4700 C 649.182 8.35226 3.79016 0
M  V30 4701 O 648.126 7.57992 4.15078 0
M  V30 4702 C 650.4 7.45087 3.67298 0
M  V30 4703 O 651.138 7.27796 4.85194 0
M  V30 4704 C 649.731 6.17323 3.12027 0
M  V30 4705 O 650.53 5.04231 3.47188 0
M  V30 4706 C 648.394 6.19961 3.81809 0
M  V30 4707 H 648.426 5.58218 4.73051 0
M  V30 4708 H 649.609 6.21726 2.02589 0
M  V30 4709 H 651.093 7.86112 2.9231 0
M  V30 4710 H 649.399 9.11627 4.55076 0
M  V30 4711 H 649.209 9.9573 2.34194 0
M  V30 4712 H 647.579 9.2792 2.67832 0
M  V30 4713 H 650.218 4.67702 4.28772 0
M  V30 4714 P 652.076 7.39546 4.75277 0
M  V30 4715 O 653.497 7.81861 5.05793 0
M  V30 4716 O 651.716 7.1065 3.32998 0
M  V30 4717 O 651.753 6.04542 5.56673 0
M  V30 4718 C 651.592 6.22839 7.02169 0
M  V30 4719 C 652.133 4.97725 7.70406 0
M  V30 4720 O 651.078 4.13208 7.58899 0
M  V30 4721 C 653.351 4.28231 7.11815 0
M  V30 4722 O 654.089 3.49945 8.01648 0
M  V30 4723 C 652.683 3.5063 5.96244 0
M  V30 4724 O 653.481 2.37008 5.64352 0
M  V30 4725 C 651.345 3.15122 6.56374 0
M  V30 4726 N 650.302 3.22311 5.55692 0
M  V30 4727 C 650.471 3.99655 4.46046 0
M  V30 4728 N 649.444 3.97599 3.63918 0
M  V30 4729 C 648.559 3.11159 4.25334 0
M  V30 4730 C 647.292 2.64972 3.85157 0
M  V30 4731 N 646.727 1.78482 4.74759 0
M  V30 4732 C 647.329 1.37463 5.90819 0
M  V30 4733 N 648.506 1.7733 6.31889 0
M  V30 4734 C 649.081 2.64393 5.43725 0
M  V30 4735 H 652.56 4.12931 5.06895 0
M  V30 4736 H 654.043 5.03285 6.70911 0
M  V30 4737 H 652.349 5.20001 8.76217 0
M  V30 4738 H 652.159 7.11046 7.35349 0
M  V30 4739 H 650.529 6.35815 7.26986 0
M  V30 4740 H 651.371 4.58037 4.27732 0
M  V30 4741 H 653.169 1.61619 6.13468 0
M  V30 4742 P 655.027 3.65191 7.99657 0
M  V30 4743 O 656.448 3.84292 8.48206 0
M  V30 4744 O 654.667 4.17805 6.64342 0
M  V30 4745 O 654.704 2.07613 7.95143 0
M  V30 4746 C 654.543 1.44344 9.27435 0
M  V30 4747 C 655.084 0.0220036 9.17197 0
M  V30 4748 O 654.029 -0.626794 8.61824 0
M  V30 4749 C 656.302 -0.24586 8.30336 0
M  V30 4750 O 657.04 -1.39011 8.63583 0
M  V30 4751 C 655.634 -0.273849 6.91158 0
M  V30 4752 O 656.432 -1.05728 6.029 0
M  V30 4753 C 654.296 -0.897649 7.22545 0
M  V30 4754 N 653.253 -0.292839 6.41732 0
M  V30 4755 C 653.422 0.950603 5.91308 0
M  V30 4756 N 652.395 1.37732 5.21105 0
M  V30 4757 C 651.51 0.318109 5.26039 0
M  V30 4758 C 650.243 0.146766 4.6727 0
M  V30 4759 N 649.644 1.08519 3.89983 0
M  V30 4760 N 649.678 -1.06525 4.95887 0
M  V30 4761 C 650.28 -2.0378 5.71347 0
M  V30 4762 N 651.457 -1.92445 6.27451 0
M  V30 4763 C 652.032 -0.715382 6.00353 0
M  V30 4764 H 654.328 -1.98383 7.04189 0
M  V30 4765 H 655.511 0.733318 6.49674 0
M  V30 4766 H 656.994 0.60668 8.36503 0
M  V30 4767 H 655.3 -0.362662 10.1825 0
M  V30 4768 H 655.11 2.00611 10.0304 0
M  V30 4769 H 653.48 1.41843 9.55327 0
M  V30 4770 H 649.744 -2.97041 5.85344 0
M  V30 4771 H 654.322 1.54076 6.07465 0
M  V30 4772 H 648.714 0.901517 3.49562 0
M  V30 4773 H 650.118 1.97957 3.71669 0
M  V30 4774 H 656.12 -1.95704 6.0346 0
M  V30 4775 P 657.977 -1.25109 8.70152 0
M  V30 4776 O 659.399 -1.35274 9.21221 0
M  V30 4777 O 657.617 -0.0769065 7.84762 0
M  V30 4778 O 657.654 -2.55232 7.81161 0
M  V30 4779 C 657.494 -3.79939 8.58154 0
M  V30 4780 C 658.034 -4.94023 7.72785 0
M  V30 4781 O 656.978 -5.18726 6.91205 0
M  V30 4782 C 659.252 -4.69597 6.85231 0
M  V30 4783 O 659.99 -5.83832 6.51337 0
M  V30 4784 C 658.583 -3.96706 5.66633 0
M  V30 4785 O 659.382 -4.15414 4.49689 0
M  V30 4786 C 657.246 -4.66153 5.59313 0
M  V30 4787 H 657.278 -5.47679 4.85214 0
M  V30 4788 H 658.461 -2.89008 5.86566 0
M  V30 4789 H 659.945 -4.0121 7.36511 0
M  V30 4790 H 658.251 -5.80182 8.37584 0
M  V30 4791 H 658.061 -3.73517 9.52265 0
M  V30 4792 H 656.431 -3.97163 8.80359 0
M  V30 4793 H 659.07 -4.90969 4.01921 0
M  V30 4794 P 660.928 -5.75688 6.64379 0
M  V30 4795 O 662.35 -6.11849 7.01846 0
M  V30 4796 O 660.568 -4.30744 6.56026 0
M  V30 4797 O 660.605 -6.37042 5.19165 0
M  V30 4798 C 660.445 -7.83578 5.16515 0
M  V30 4799 C 660.985 -8.33398 3.83019 0
M  V30 4800 O 659.929 -8.10074 3.01034 0
M  V30 4801 C 662.203 -7.65514 3.2257 0
M  V30 4802 O 662.941 -8.4329 2.32297 0
M  V30 4803 C 661.534 -6.40075 2.62207 0
M  V30 4804 O 662.333 -5.92589 1.53712 0
M  V30 4805 C 660.197 -6.9454 2.18503 0
M  V30 4806 H 660.229 -7.23063 1.12091 0
M  V30 4807 H 661.412 -5.6025 3.37201 0
M  V30 4808 H 662.896 -7.35707 4.02681 0
M  V30 4809 H 661.202 -9.40912 3.9095 0
M  V30 4810 H 661.012 -8.29056 5.99158 0
M  V30 4811 H 659.382 -8.10073 5.25882 0
M  V30 4812 H 662.021 -6.30324 0.726794 0
M  V30 4813 P 663.878 -8.4349 2.47671 0
M  V30 4814 O 665.3 -8.94167 2.5964 0
M  V30 4815 O 663.518 -7.1704 3.19006 0
M  V30 4816 O 663.555 -8.16596 0.923387 0
M  V30 4817 C 663.395 -9.38437 0.108857 0
M  V30 4818 C 663.935 -9.08175 -1.28353 0
M  V30 4819 O 662.879 -8.44229 -1.84713 0
M  V30 4820 C 665.153 -8.18386 -1.42505 0
M  V30 4821 O 665.891 -8.3501 -2.60497 0
M  V30 4822 C 664.484 -6.80225 -1.25468 0
M  V30 4823 O 665.283 -5.81621 -1.91066 0
M  V30 4824 C 663.147 -7.02416 -1.9168 0
M  V30 4825 H 663.179 -6.6888 -2.96621 0
M  V30 4826 H 664.362 -6.53617 -0.192223 0
M  V30 4827 H 665.846 -8.36622 -0.589963 0
M  V30 4828 H 664.152 -10.0291 -1.79807 0
M  V30 4829 H 663.962 -10.2138 0.558219 0
M  V30 4830 H 662.332 -9.6579 0.0444202 0
M  V30 4831 H 664.971 -5.69556 -2.79637 0
M  V30 4832 P 666.829 -8.4349 -2.47671 0
M  V30 4833 O 668.251 -8.92593 -2.65 0
M  V30 4834 O 666.469 -7.7568 -1.19296 0
M  V30 4835 O 666.506 -7.36886 -3.63805 0
M  V30 4836 C 666.346 -7.95349 -4.982 0
M  V30 4837 C 666.886 -6.94612 -5.98974 0
M  V30 4838 O 665.83 -6.10347 -6.11815 0
M  V30 4839 C 668.104 -6.11426 -5.62335 0
M  V30 4840 O 668.842 -5.6162 -6.70584 0
M  V30 4841 C 667.435 -5.04409 -4.73308 0
M  V30 4842 O 668.234 -3.85992 -4.75183 0
M  V30 4843 C 666.098 -4.8728 -5.41006 0
M  V30 4844 H 666.13 -4.02333 -6.11157 0
M  V30 4845 H 667.313 -5.39466 -3.69543 0
M  V30 4846 H 668.797 -6.71916 -5.01943 0
M  V30 4847 H 667.103 -7.4649 -6.93477 0
M  V30 4848 H 666.913 -8.89416 -5.05237 0
M  V30 4849 H 665.283 -8.14876 -5.18409 0
M  V30 4850 H 667.922 -3.27957 -5.4317 0
M  V30 4851 P 669.779 -5.75688 -6.64379 0
M  V30 4852 O 671.201 -6.07627 -7.05504 0
M  V30 4853 O 669.419 -5.88047 -5.19722 0
M  V30 4854 O 669.456 -4.2322 -7.04443 0
M  V30 4855 C 669.296 -3.99743 -8.4911 0
M  V30 4856 C 669.836 -2.60516 -8.79425 0
M  V30 4857 O 668.78 -1.82684 -8.4467 0
M  V30 4858 C 671.054 -2.10343 -8.03628 0
M  V30 4859 O 671.792 -1.09919 -8.67766 0
M  V30 4860 C 670.385 -1.68446 -6.70876 0
M  V30 4861 O 671.184 -0.678137 -6.08433 0
M  V30 4862 C 669.048 -1.17436 -7.18567 0
M  V30 4863 H 669.08 -0.0804732 -7.31656 0
M  V30 4864 H 670.263 -2.54037 -6.02537 0
M  V30 4865 H 671.747 -2.93881 -7.85526 0
M  V30 4866 H 670.053 -2.53065 -9.86973 0
M  V30 4867 H 669.863 -4.75072 -9.05887 0
M  V30 4868 H 668.233 -4.05244 -8.76668 0
M  V30 4869 H 670.872 0.177647 -6.34251 0
M  V30 4870 P 672.73 -1.25109 -8.70152 0
M  V30 4871 O 674.131 -1.3516 -9.26897 0
M  V30 4872 O 672.352 -2.18141 -7.59181 0
M  V30 4873 O 672.407 0.248118 -8.21325 0
M  V30 4874 C 672.247 1.22779 -9.30434 0
M  V30 4875 C 672.787 2.56265 -8.80568 0
M  V30 4876 O 671.731 3.02944 -8.09255 0
M  V30 4877 C 674.004 2.57523 -7.89775 0
M  V30 4878 O 674.743 3.7668 -7.89438 0
M  V30 4879 C 673.337 2.20997 -6.55446 0
M  V30 4880 O 674.135 2.71851 -5.48419 0
M  V30 4881 C 671.999 2.89693 -6.67988 0
M  V30 4882 N 670.956 2.08895 -6.07487 0
M  V30 4883 C 669.921 2.72974 -5.43836 0
M  V30 4884 O 669.96 3.97779 -5.34036 0
M  V30 4885 N 668.909 2.0005 -4.91983 0
M  V30 4886 C 668.957 0.66501 -5.00098 0
M  V30 4887 C 670.053 -0.0100979 -5.61099 0
M  V30 4888 C 671.019 0.74189 -6.14236 0
M  V30 4889 H 672.031 3.8874 -6.19774 0
M  V30 4890 H 673.214 1.12673 -6.44018 0
M  V30 4891 H 674.698 1.783 -8.19631 0
M  V30 4892 H 673.004 3.21673 -9.66791 0
M  V30 4893 H 672.813 0.901032 -10.1892 0
M  V30 4894 H 671.183 1.33036 -9.56493 0
M  V30 4895 H 670.101 -1.09591 -5.64358 0
M  V30 4896 H 671.865 0.260263 -6.6359 0
M  V30 4897 H 673.919 3.62759 -5.33442 0
M  V30 4898 P 675.681 3.65191 -7.99657 0
M  V30 4899 O 677.103 3.89332 -8.45794 0
M  V30 4900 O 675.321 2.28472 -7.50807 0
M  V30 4901 O 675.358 4.64972 -6.77611 0
M  V30 4902 C 675.198 6.06319 -7.16352 0
M  V30 4903 C 675.738 6.91731 -6.02299 0
M  V30 4904 O 674.682 6.92449 -5.17064 0
M  V30 4905 C 676.956 6.43627 -5.25174 0
M  V30 4906 O 677.694 7.43686 -4.60469 0
M  V30 4907 C 676.287 5.40275 -4.31916 0
M  V30 4908 O 677.086 5.25279 -3.14438 0
M  V30 4909 C 674.95 6.04847 -4.05327 0
M  V30 4910 H 674.982 6.62195 -3.11261 0
M  V30 4911 H 676.165 4.42556 -4.81383 0
M  V30 4912 H 677.649 5.92458 -5.93643 0
M  V30 4913 H 675.955 7.92655 -6.402 0
M  V30 4914 H 675.765 6.26671 -8.0846 0
M  V30 4915 H 674.135 6.29101 -7.32804 0
M  V30 4916 H 676.774 5.84315 -2.47318 0
M  V30 4917 P 678.631 7.39546 -4.75277 0
M  V30 4918 O 680.052 7.84882 -5.01092 0
M  V30 4919 O 678.271 5.9812 -5.08098 0
M  V30 4920 O 678.308 7.57503 -3.1866 0
M  V30 4921 C 678.147 8.97452 -2.74862 0
M  V30 4922 C 678.688 9.07548 -1.32709 0
M  V30 4923 O 677.633 8.61972 -0.606089 0
M  V30 4924 C 679.906 8.25383 -0.938334 0
M  V30 4925 O 680.644 8.74577 0.146954 0
M  V30 4926 C 679.238 6.8802 -0.712559 0
M  V30 4927 O 680.036 6.1181 0.188505 0
M  V30 4928 C 677.9 7.27966 -0.139777 0
M  V30 4929 N 676.857 6.39368 -0.623421 0
M  V30 4930 C 677.026 5.71761 -1.78245 0
M  V30 4931 N 675.999 4.962 -2.10491 0
M  V30 4932 C 675.114 5.16158 -1.0635 0
M  V30 4933 C 673.847 4.60425 -0.810266 0
M  V30 4934 N 673.282 5.06 0.348685 0
M  V30 4935 C 673.884 5.94532 1.20395 0
M  V30 4936 N 675.061 6.48452 1.01191 0
M  V30 4937 C 675.636 6.04423 -0.146291 0
M  V30 4938 H 679.115 6.32625 -1.65044 0
M  V30 4939 H 680.598 8.19355 -1.79097 0
M  V30 4940 H 678.904 10.1305 -1.09016 0
M  V30 4941 H 678.714 9.64276 -3.41316 0
M  V30 4942 H 677.084 9.25417 -2.76357 0
M  V30 4943 H 677.926 5.79354 -2.38959 0
M  V30 4944 H 679.724 6.25169 1.0783 0
M  V30 4945 P 681.582 8.791 4.7645e-12 0
M  V30 4946 O 683.003 9.31196 0.027936 0
M  V30 4947 O 681.222 7.77869 -1.04071 0
M  V30 4948 O 681.259 8.09533 1.41463 0
M  V30 4949 C 681.098 9.03587 2.5397 0
M  V30 4950 C 681.639 8.35226 3.79016 0
M  V30 4951 O 680.584 7.57904 4.1503 0
M  V30 4952 C 682.857 7.45087 3.67298 0
M  V30 4953 O 683.595 7.27796 4.85194 0
M  V30 4954 C 682.189 6.17323 3.12027 0
M  V30 4955 O 682.987 5.04496 3.46627 0
M  V30 4956 C 680.851 6.19961 3.81809 0
M  V30 4957 N 679.808 5.71575 2.93223 0
M  V30 4958 C 679.977 5.77362 1.59168 0
M  V30 4959 N 678.95 5.3123 0.911893 0
M  V30 4960 C 678.065 4.91717 1.89588 0
M  V30 4961 C 676.798 4.3114 1.8076 0
M  V30 4962 N 676.233 4.06823 3.02898 0
M  V30 4963 C 676.835 4.35062 4.22711 0
M  V30 4964 N 678.012 4.90805 4.35707 0
M  V30 4965 C 678.587 5.16382 3.14469 0
M  V30 4966 H 682.066 6.21428 2.0318 0
M  V30 4967 H 683.549 7.86112 2.9231 0
M  V30 4968 H 681.855 9.11171 4.55987 0
M  V30 4969 H 681.665 9.9573 2.34194 0
M  V30 4970 H 680.035 9.2792 2.67832 0
M  V30 4971 H 680.877 6.16575 1.12198 0
M  V30 4972 H 682.675 4.67628 4.28704 0
M  V30 4973 P 684.532 7.39546 4.75277 0
M  V30 4974 O 685.954 7.81777 5.05738 0
M  V30 4975 O 684.172 7.1065 3.32998 0
M  V30 4976 O 684.209 6.04542 5.56673 0
M  V30 4977 C 684.049 6.22772 7.02095 0
M  V30 4978 C 684.589 4.97725 7.70406 0
M  V30 4979 O 683.533 4.13256 7.58987 0
M  V30 4980 C 685.807 4.28231 7.11815 0
M  V30 4981 O 686.545 3.49945 8.01648 0
M  V30 4982 C 685.138 3.5063 5.96244 0
M  V30 4983 O 685.937 2.36482 5.64681 0
M  V30 4984 C 683.801 3.15122 6.56374 0
M  V30 4985 H 683.833 2.13853 6.99751 0
M  V30 4986 H 685.016 4.13501 5.06559 0
M  V30 4987 H 686.5 5.03285 6.70911 0
M  V30 4988 H 684.806 5.20877 8.75697 0
M  V30 4989 H 684.616 7.11046 7.35349 0
M  V30 4990 H 682.986 6.35815 7.26986 0
M  V30 4991 H 685.625 1.61644 6.13565 0
M  V30 4992 P 687.483 3.65191 7.99657 0
M  V30 4993 O 688.905 3.8425 8.48115 0
M  V30 4994 O 687.123 4.17805 6.64342 0
M  V30 4995 O 687.16 2.07613 7.95143 0
M  V30 4996 C 687 1.44328 9.27336 0
M  V30 4997 C 687.54 0.0220036 9.17197 0
M  V30 4998 O 686.484 -0.626867 8.61923 0
M  V30 4999 C 688.758 -0.24586 8.30336 0
M  V30 5000 O 689.496 -1.39011 8.63583 0
M  V30 5001 C 688.089 -0.273849 6.91158 0
M  V30 5002 O 688.888 -1.06348 6.02892 0
M  V30 5003 C 686.752 -0.897649 7.22545 0
M  V30 5004 H 686.784 -1.9841 7.04286 0
M  V30 5005 H 687.967 0.739928 6.497 0
M  V30 5006 H 689.451 0.60668 8.36503 0
M  V30 5007 H 687.757 -0.352479 10.1829 0
M  V30 5008 H 687.567 2.00611 10.0304 0
M  V30 5009 H 685.937 1.41843 9.55327 0
M  V30 5010 H 688.576 -1.95734 6.03555 0
M  V30 5011 P 690.433 -1.25109 8.70152 0
M  V30 5012 O 691.855 -1.35274 9.21221 0
M  V30 5013 O 690.073 -0.0769065 7.84762 0
M  V30 5014 O 690.11 -2.55232 7.81161 0
M  V30 5015 C 689.95 -3.79939 8.58154 0
M  V30 5016 C 690.49 -4.94023 7.72785 0
M  V30 5017 O 689.434 -5.18726 6.91205 0
M  V30 5018 C 691.708 -4.69597 6.85231 0
M  V30 5019 O 692.446 -5.83832 6.51337 0
M  V30 5020 C 691.039 -3.96706 5.66633 0
M  V30 5021 O 691.838 -4.15414 4.49689 0
M  V30 5022 C 689.702 -4.66153 5.59313 0
M  V30 5023 H 689.734 -5.47679 4.85214 0
M  V30 5024 H 690.917 -2.89008 5.86566 0
M  V30 5025 H 692.401 -4.0121 7.36511 0
M  V30 5026 H 690.707 -5.80182 8.37584 0
M  V30 5027 H 690.517 -3.73517 9.52265 0
M  V30 5028 H 688.887 -3.97163 8.80359 0
M  V30 5029 H 691.526 -4.90969 4.01921 0
M  V30 5030 P 693.384 -5.75688 6.64379 0
M  V30 5031 O 694.806 -6.11849 7.01846 0
M  V30 5032 O 693.024 -4.30744 6.56026 0
M  V30 5033 O 693.061 -6.37042 5.19165 0
M  V30 5034 C 692.901 -7.83578 5.16515 0
M  V30 5035 C 693.441 -8.33398 3.83019 0
M  V30 5036 O 692.385 -8.10074 3.01034 0
M  V30 5037 C 694.659 -7.65514 3.2257 0
M  V30 5038 O 695.397 -8.4329 2.32297 0
M  V30 5039 C 693.99 -6.40075 2.62207 0
M  V30 5040 O 694.789 -5.92589 1.53712 0
M  V30 5041 C 692.653 -6.9454 2.18503 0
M  V30 5042 H 692.685 -7.23063 1.12091 0
M  V30 5043 H 693.868 -5.6025 3.37201 0
M  V30 5044 H 695.352 -7.35707 4.02681 0
M  V30 5045 H 693.658 -9.40912 3.9095 0
M  V30 5046 H 693.468 -8.29056 5.99158 0
M  V30 5047 H 691.838 -8.10073 5.25882 0
M  V30 5048 H 694.477 -6.30324 0.726794 0
M  V30 5049 P 696.335 -8.4349 2.47671 0
M  V30 5050 O 697.757 -8.94167 2.5964 0
M  V30 5051 O 695.975 -7.1704 3.19006 0
M  V30 5052 O 696.012 -8.16596 0.923387 0
M  V30 5053 C 695.852 -9.38437 0.108857 0
M  V30 5054 C 696.392 -9.08175 -1.28353 0
M  V30 5055 O 695.336 -8.44229 -1.84713 0
M  V30 5056 C 697.61 -8.18386 -1.42505 0
M  V30 5057 O 698.348 -8.3501 -2.60497 0
M  V30 5058 C 696.941 -6.80225 -1.25468 0
M  V30 5059 O 697.74 -5.81621 -1.91066 0
M  V30 5060 C 695.604 -7.02416 -1.9168 0
M  V30 5061 H 695.636 -6.6888 -2.96621 0
M  V30 5062 H 696.819 -6.53617 -0.192223 0
M  V30 5063 H 698.303 -8.36622 -0.589963 0
M  V30 5064 H 696.609 -10.0291 -1.79807 0
M  V30 5065 H 696.419 -10.2138 0.558219 0
M  V30 5066 H 694.789 -9.6579 0.0444202 0
M  V30 5067 H 697.428 -5.69556 -2.79637 0
M  V30 5068 P 699.285 -8.4349 -2.47671 0
M  V30 5069 O 700.686 -8.99283 -2.62101 0
M  V30 5070 O 698.907 -7.81195 -1.16947 0
M  V30 5071 O 698.962 -7.36797 -3.63761 0
M  V30 5072 C 698.802 -7.95349 -4.982 0
M  V30 5073 C 699.342 -6.94537 -5.98908 0
M  V30 5074 O 698.286 -6.10277 -6.11744 0
M  V30 5075 C 700.559 -6.11426 -5.62335 0
M  V30 5076 O 701.298 -5.6162 -6.70584 0
M  V30 5077 C 699.892 -5.04409 -4.73308 0
M  V30 5078 O 700.69 -3.85929 -4.75106 0
M  V30 5079 C 698.554 -4.8728 -5.41006 0
M  V30 5080 N 697.511 -4.65812 -4.42377 0
M  V30 5081 C 696.476 -3.81293 -4.74224 0
M  V30 5082 O 696.515 -3.20533 -5.83679 0
M  V30 5083 N 695.464 -3.6442 -3.86349 0
M  V30 5084 C 695.512 -4.2728 -2.6824 0
M  V30 5085 C 696.608 -5.10813 -2.3217 0
M  V30 5086 C 697.574 -5.27909 -3.22647 0
M  V30 5087 H 698.586 -4.02278 -6.11074 0
M  V30 5088 H 699.769 -5.39013 -3.70026 0
M  V30 5089 H 701.253 -6.71494 -5.02675 0
M  V30 5090 H 699.559 -7.45796 -6.94223 0
M  V30 5091 H 699.368 -8.89416 -5.05237 0
M  V30 5092 H 697.738 -8.14791 -5.18355 0
M  V30 5093 H 696.656 -5.58884 -1.34755 0
M  V30 5094 H 698.42 -5.92811 -2.9934 0
M  V30 5095 H 700.474 -3.3454 -5.51577 0
M  V30 5096 P 702.236 -5.75688 -6.64379 0
M  V30 5097 O 703.657 -6.07692 -7.0558 0
M  V30 5098 O 701.876 -5.88047 -5.19722 0
M  V30 5099 O 701.913 -4.2322 -7.04443 0
M  V30 5100 C 701.752 -3.99785 -8.49201 0
M  V30 5101 C 702.293 -2.60516 -8.79425 0
M  V30 5102 O 701.238 -1.82663 -8.44573 0
M  V30 5103 C 703.511 -2.10343 -8.03628 0
M  V30 5104 O 704.249 -1.09919 -8.67766 0
M  V30 5105 C 702.843 -1.68446 -6.70876 0
M  V30 5106 O 703.641 -0.684109 -6.08265 0
M  V30 5107 C 701.505 -1.17436 -7.18567 0
M  V30 5108 N 700.462 -1.52699 -6.23988 0
M  V30 5109 C 700.631 -2.578 -5.40574 0
M  V30 5110 N 699.604 -2.78966 -4.61193 0
M  V30 5111 C 698.719 -1.78725 -4.95769 0
M  V30 5112 C 697.452 -1.45727 -4.44207 0
M  V30 5113 N 696.853 -2.13994 -3.43613 0
M  V30 5114 N 696.887 -0.374977 -5.05812 0
M  V30 5115 C 697.489 0.345585 -6.05615 0
M  V30 5116 N 698.666 0.0787651 -6.56253 0
M  V30 5117 C 699.241 -1.00499 -5.96189 0
M  V30 5118 H 701.537 -0.0804622 -7.31556 0
M  V30 5119 H 702.72 -2.53396 -6.02698 0
M  V30 5120 H 704.203 -2.93881 -7.85526 0
M  V30 5121 H 702.509 -2.52078 -9.87225 0
M  V30 5122 H 702.319 -4.75072 -9.05887 0
M  V30 5123 H 700.689 -4.05244 -8.76668 0
M  V30 5124 H 696.953 1.20098 -6.4532 0
M  V30 5125 H 701.531 -3.18977 -5.3945 0
M  V30 5126 H 695.923 -1.84983 -3.10004 0
M  V30 5127 H 697.327 -2.9465 -3.00843 0
M  V30 5128 H 703.329 0.177619 -6.34151 0
M  V30 5129 P 705.186 -1.25109 -8.70152 0
M  V30 5130 O 706.608 -1.29744 -9.22016 0
M  V30 5131 O 704.826 -2.13714 -7.55141 0
M  V30 5132 O 704.863 0.248149 -8.21425 0
M  V30 5133 C 704.703 1.22779 -9.30434 0
M  V30 5134 C 705.243 2.56293 -8.80664 0
M  V30 5135 O 704.187 3.02979 -8.09349 0
M  V30 5136 C 706.461 2.57523 -7.89775 0
M  V30 5137 O 707.199 3.7668 -7.89438 0
M  V30 5138 C 705.792 2.20997 -6.55446 0
M  V30 5139 O 706.591 2.71895 -5.48509 0
M  V30 5140 C 704.455 2.89693 -6.67988 0
M  V30 5141 H 704.487 3.88793 -6.19859 0
M  V30 5142 H 705.67 1.12046 -6.44229 0
M  V30 5143 H 707.154 1.7746 -8.19711 0
M  V30 5144 H 705.46 3.20706 -9.67112 0
M  V30 5145 H 705.27 0.901032 -10.1892 0
M  V30 5146 H 703.64 1.33049 -9.56592 0
M  V30 5147 H 706.279 3.57847 -5.23962 0
M  V30 5148 P 708.137 3.65191 -7.99657 0
M  V30 5149 O 709.559 3.89332 -8.45794 0
M  V30 5150 O 707.777 2.28472 -7.50807 0
M  V30 5151 O 707.814 4.64972 -6.77611 0
M  V30 5152 C 707.654 6.06319 -7.16352 0
M  V30 5153 C 708.194 6.91731 -6.02299 0
M  V30 5154 O 707.138 6.92449 -5.17064 0
M  V30 5155 C 709.412 6.43627 -5.25174 0
M  V30 5156 O 710.15 7.43686 -4.60469 0
M  V30 5157 C 708.743 5.40275 -4.31916 0
M  V30 5158 O 709.542 5.25279 -3.14438 0
M  V30 5159 C 707.406 6.04847 -4.05327 0
M  V30 5160 H 707.438 6.62195 -3.11261 0
M  V30 5161 H 708.621 4.42556 -4.81383 0
M  V30 5162 H 710.105 5.92458 -5.93643 0
M  V30 5163 H 708.411 7.92655 -6.402 0
M  V30 5164 H 708.221 6.26671 -8.0846 0
M  V30 5165 H 706.591 6.29101 -7.32804 0
M  V30 5166 H 709.23 5.84315 -2.47318 0
M  V30 5167 P 711.087 7.39546 -4.75277 0
M  V30 5168 O 712.509 7.84798 -5.01039 0
M  V30 5169 O 710.727 5.9812 -5.08098 0
M  V30 5170 O 710.764 7.57503 -3.1866 0
M  V30 5171 C 710.604 8.97357 -2.74833 0
M  V30 5172 C 711.144 9.07548 -1.32709 0
M  V30 5173 O 710.088 8.62072 -0.606159 0
M  V30 5174 C 712.362 8.25383 -0.938334 0
M  V30 5175 O 713.1 8.74577 0.146954 0
M  V30 5176 C 711.693 6.8802 -0.712559 0
M  V30 5177 O 712.492 6.1189 0.194655 0
M  V30 5178 C 710.356 7.27966 -0.139777 0
M  V30 5179 H 710.388 7.25354 0.961601 0
M  V30 5180 H 711.571 6.32557 -1.65702 0
M  V30 5181 H 713.055 8.19355 -1.79097 0
M  V30 5182 H 711.361 10.1294 -1.10029 0
M  V30 5183 H 711.171 9.64276 -3.41316 0
M  V30 5184 H 709.541 9.25417 -2.76357 0
M  V30 5185 H 712.18 6.25267 1.07847 0
M  V30 5186 P 714.038 8.791 5.07466e-12 0
M  V30 5187 O 715.46 9.31096 0.027933 0
M  V30 5188 O 713.678 7.77869 -1.04071 0
M  V30 5189 O 713.715 8.09533 1.41463 0
M  V30 5190 C 713.555 9.0349 2.53943 0
M  V30 5191 C 714.095 8.35226 3.79016 0
M  V30 5192 O 713.039 7.57992 4.15078 0
M  V30 5193 C 715.313 7.45087 3.67298 0
M  V30 5194 O 716.051 7.27796 4.85194 0
M  V30 5195 C 714.644 6.17323 3.12027 0
M  V30 5196 O 715.443 5.04231 3.47188 0
M  V30 5197 C 713.307 6.19961 3.81809 0
M  V30 5198 H 713.339 5.58218 4.73051 0
M  V30 5199 H 714.522 6.21726 2.02589 0
M  V30 5200 H 716.006 7.86112 2.9231 0
M  V30 5201 H 714.312 9.11627 4.55076 0
M  V30 5202 H 714.122 9.9573 2.34194 0
M  V30 5203 H 712.492 9.2792 2.67832 0
M  V30 5204 H 715.131 4.67702 4.28772 0
M  V30 5205 P 716.989 7.39546 4.75277 0
M  V30 5206 O 718.41 7.81861 5.05793 0
M  V30 5207 O 716.629 7.1065 3.32998 0
M  V30 5208 O 716.666 6.04542 5.56673 0
M  V30 5209 C 716.505 6.22839 7.02169 0
M  V30 5210 C 717.046 4.97725 7.70406 0
M  V30 5211 O 715.991 4.13208 7.58899 0
M  V30 5212 C 718.264 4.28231 7.11815 0
M  V30 5213 O 719.002 3.49945 8.01648 0
M  V30 5214 C 717.596 3.5063 5.96244 0
M  V30 5215 O 718.394 2.37008 5.64352 0
M  V30 5216 C 716.258 3.15122 6.56374 0
M  V30 5217 N 715.215 3.22311 5.55692 0
M  V30 5218 C 715.384 3.99655 4.46046 0
M  V30 5219 N 714.357 3.97599 3.63918 0
M  V30 5220 C 713.472 3.11159 4.25334 0
M  V30 5221 C 712.205 2.64972 3.85157 0
M  V30 5222 N 711.64 1.78482 4.74759 0
M  V30 5223 C 712.242 1.37463 5.90819 0
M  V30 5224 N 713.419 1.7733 6.31889 0
M  V30 5225 C 713.994 2.64393 5.43725 0
M  V30 5226 H 717.473 4.12931 5.06895 0
M  V30 5227 H 718.956 5.03285 6.70911 0
M  V30 5228 H 717.262 5.20001 8.76217 0
M  V30 5229 H 717.072 7.11046 7.35349 0
M  V30 5230 H 715.442 6.35815 7.26986 0
M  V30 5231 H 716.284 4.58037 4.27732 0
M  V30 5232 H 718.082 1.61619 6.13468 0
M  V30 5233 P 719.939 3.65191 7.99657 0
M  V30 5234 O 721.361 3.8425 8.48115 0
M  V30 5235 O 719.579 4.17805 6.64342 0
M  V30 5236 O 719.616 2.07613 7.95143 0
M  V30 5237 C 719.456 1.44328 9.27336 0
M  V30 5238 C 719.996 0.0220036 9.17197 0
M  V30 5239 O 718.94 -0.626867 8.61923 0
M  V30 5240 C 721.214 -0.24586 8.30336 0
M  V30 5241 O 721.952 -1.39011 8.63583 0
M  V30 5242 C 720.545 -0.273849 6.91158 0
M  V30 5243 O 721.344 -1.06348 6.02892 0
M  V30 5244 C 719.208 -0.897649 7.22545 0
M  V30 5245 H 719.24 -1.9841 7.04286 0
M  V30 5246 H 720.423 0.739928 6.497 0
M  V30 5247 H 721.907 0.60668 8.36503 0
M  V30 5248 H 720.213 -0.352479 10.1829 0
M  V30 5249 H 720.023 2.00611 10.0304 0
M  V30 5250 H 718.393 1.41843 9.55327 0
M  V30 5251 H 721.032 -1.95734 6.03555 0
M  V30 5252 P 722.89 -1.25109 8.70152 0
M  V30 5253 O 724.311 -1.35288 9.2132 0
M  V30 5254 O 722.53 -0.0769065 7.84762 0
M  V30 5255 O 722.567 -2.55232 7.81161 0
M  V30 5256 C 722.406 -3.79979 8.58246 0
M  V30 5257 C 722.947 -4.94023 7.72785 0
M  V30 5258 O 721.892 -5.18666 6.91125 0
M  V30 5259 C 724.165 -4.69597 6.85231 0
M  V30 5260 O 724.903 -5.83832 6.51337 0
M  V30 5261 C 723.497 -3.96706 5.66633 0
M  V30 5262 O 724.295 -4.14896 4.5003 0
M  V30 5263 C 722.159 -4.66153 5.59313 0
M  V30 5264 N 721.116 -3.71582 5.24027 0
M  V30 5265 C 721.285 -2.39715 5.48833 0
M  V30 5266 N 720.258 -1.65863 5.12845 0
M  V30 5267 C 719.373 -2.57637 4.5973 0
M  V30 5268 C 718.106 -2.40278 4.01027 0
M  V30 5269 N 717.507 -1.19549 3.86744 0
M  V30 5270 N 717.541 -3.57711 3.59575 0
M  V30 5271 C 718.143 -4.80324 3.70476 0
M  V30 5272 N 719.32 -5.01121 4.23801 0
M  V30 5273 C 719.895 -3.84757 4.66372 0
M  V30 5274 H 722.191 -5.47604 4.85148 0
M  V30 5275 H 723.374 -2.8955 5.86187 0
M  V30 5276 H 724.857 -4.0121 7.36511 0
M  V30 5277 H 723.163 -5.81019 8.37003 0
M  V30 5278 H 722.973 -3.73517 9.52265 0
M  V30 5279 H 721.343 -3.97163 8.80359 0
M  V30 5280 H 717.607 -5.66348 3.3183 0
M  V30 5281 H 722.185 -1.98804 5.94332 0
M  V30 5282 H 716.577 -1.13147 3.4281 0
M  V30 5283 H 717.981 -0.344074 4.19692 0
M  V30 5284 H 723.983 -4.90891 4.01857 0
M  V30 5285 P 725.84 -5.75688 6.64379 0
M  V30 5286 O 727.262 -6.11849 7.01846 0
M  V30 5287 O 725.48 -4.30744 6.56026 0
M  V30 5288 O 725.517 -6.37042 5.19165 0
M  V30 5289 C 725.357 -7.83578 5.16515 0
M  V30 5290 C 725.897 -8.33398 3.83019 0
M  V30 5291 O 724.841 -8.10074 3.01034 0
M  V30 5292 C 727.115 -7.65514 3.2257 0
M  V30 5293 O 727.853 -8.4329 2.32297 0
M  V30 5294 C 726.446 -6.40075 2.62207 0
M  V30 5295 O 727.245 -5.92589 1.53712 0
M  V30 5296 C 725.109 -6.9454 2.18503 0
M  V30 5297 H 725.141 -7.23063 1.12091 0
M  V30 5298 H 726.324 -5.6025 3.37201 0
M  V30 5299 H 727.808 -7.35707 4.02681 0
M  V30 5300 H 726.114 -9.40912 3.9095 0
M  V30 5301 H 725.924 -8.29056 5.99158 0
M  V30 5302 H 724.294 -8.10073 5.25882 0
M  V30 5303 H 726.933 -6.30324 0.726794 0
M  V30 5304 P 728.791 -8.4349 2.47671 0
M  V30 5305 O 730.213 -8.94167 2.5964 0
M  V30 5306 O 728.431 -7.1704 3.19006 0
M  V30 5307 O 728.468 -8.16596 0.923387 0
M  V30 5308 C 728.308 -9.38437 0.108857 0
M  V30 5309 C 728.848 -9.08175 -1.28353 0
M  V30 5310 O 727.792 -8.44229 -1.84713 0
M  V30 5311 C 730.066 -8.18386 -1.42505 0
M  V30 5312 O 730.804 -8.3501 -2.60497 0
M  V30 5313 C 729.397 -6.80225 -1.25468 0
M  V30 5314 O 730.196 -5.81621 -1.91066 0
M  V30 5315 C 728.06 -7.02416 -1.9168 0
M  V30 5316 H 728.092 -6.6888 -2.96621 0
M  V30 5317 H 729.275 -6.53617 -0.192223 0
M  V30 5318 H 730.759 -8.36622 -0.589963 0
M  V30 5319 H 729.065 -10.0291 -1.79807 0
M  V30 5320 H 728.875 -10.2138 0.558219 0
M  V30 5321 H 727.245 -9.6579 0.0444202 0
M  V30 5322 H 729.884 -5.69556 -2.79637 0
M  V30 5323 P 731.741 -8.4349 -2.47671 0
M  V30 5324 O 733.162 -8.92689 -2.65029 0
M  V30 5325 O 731.381 -7.7568 -1.19296 0
M  V30 5326 O 731.418 -7.36886 -3.63805 0
M  V30 5327 C 731.257 -7.95433 -4.98253 0
M  V30 5328 C 731.798 -6.94612 -5.98974 0
M  V30 5329 O 730.743 -6.10277 -6.11744 0
M  V30 5330 C 733.016 -6.11426 -5.62335 0
M  V30 5331 O 733.754 -5.6162 -6.70584 0
M  V30 5332 C 732.348 -5.04409 -4.73308 0
M  V30 5333 O 733.146 -3.86404 -4.74719 0
M  V30 5334 C 731.01 -4.8728 -5.41006 0
M  V30 5335 N 729.967 -4.65812 -4.42377 0
M  V30 5336 C 730.136 -5.09132 -3.15382 0
M  V30 5337 N 729.109 -4.84021 -2.3716 0
M  V30 5338 C 728.224 -4.18386 -3.20441 0
M  V30 5339 C 726.957 -3.6275 -2.94905 0
M  V30 5340 N 726.392 -3.05008 -4.05243 0
M  V30 5341 C 726.994 -2.98348 -5.28159 0
M  V30 5342 N 728.171 -3.48171 -5.56333 0
M  V30 5343 C 728.746 -4.06869 -4.47212 0
M  V30 5344 H 732.225 -5.39013 -3.70026 0
M  V30 5345 H 733.708 -6.71916 -5.01943 0
M  V30 5346 H 732.014 -7.45796 -6.94223 0
M  V30 5347 H 731.824 -8.89416 -5.05237 0
M  V30 5348 H 730.194 -8.14876 -5.18409 0
M  V30 5349 H 731.036 -5.59989 -2.81362 0
M  V30 5350 H 732.834 -3.27906 -5.43085 0
M  V30 5351 P 734.692 -5.75688 -6.64379 0
M  V30 5352 O 736.113 -6.07692 -7.0558 0
M  V30 5353 O 734.332 -5.88047 -5.19722 0
M  V30 5354 O 734.369 -4.2322 -7.04443 0
M  V30 5355 C 734.208 -3.99785 -8.49201 0
M  V30 5356 C 734.749 -2.60516 -8.79425 0
M  V30 5357 O 733.694 -1.82663 -8.44573 0
M  V30 5358 C 735.967 -2.10343 -8.03628 0
M  V30 5359 O 736.705 -1.09919 -8.67766 0
M  V30 5360 C 735.299 -1.68446 -6.70876 0
M  V30 5361 O 736.097 -0.684109 -6.08265 0
M  V30 5362 C 733.961 -1.17436 -7.18567 0
M  V30 5363 N 732.918 -1.52699 -6.23988 0
M  V30 5364 C 733.087 -2.578 -5.40574 0
M  V30 5365 N 732.06 -2.78966 -4.61193 0
M  V30 5366 C 731.175 -1.78725 -4.95769 0
M  V30 5367 C 729.908 -1.45727 -4.44207 0
M  V30 5368 N 729.309 -2.13994 -3.43613 0
M  V30 5369 N 729.343 -0.374977 -5.05812 0
M  V30 5370 C 729.945 0.345585 -6.05615 0
M  V30 5371 N 731.122 0.0787651 -6.56253 0
M  V30 5372 C 731.697 -1.00499 -5.96189 0
M  V30 5373 H 733.993 -0.0804622 -7.31556 0
M  V30 5374 H 735.176 -2.53396 -6.02698 0
M  V30 5375 H 736.659 -2.93881 -7.85526 0
M  V30 5376 H 734.965 -2.52078 -9.87225 0
M  V30 5377 H 734.775 -4.75072 -9.05887 0
M  V30 5378 H 733.145 -4.05244 -8.76668 0
M  V30 5379 H 729.409 1.20098 -6.4532 0
M  V30 5380 H 733.987 -3.18977 -5.3945 0
M  V30 5381 H 728.379 -1.84983 -3.10004 0
M  V30 5382 H 729.783 -2.9465 -3.00843 0
M  V30 5383 H 735.785 0.177619 -6.34151 0
M  V30 5384 P 737.643 -1.25109 -8.70152 0
M  V30 5385 O 739.065 -1.29744 -9.22016 0
M  V30 5386 O 737.283 -2.13714 -7.55141 0
M  V30 5387 O 737.32 0.248149 -8.21425 0
M  V30 5388 C 737.16 1.22779 -9.30434 0
M  V30 5389 C 737.7 2.56293 -8.80664 0
M  V30 5390 O 736.644 3.02979 -8.09349 0
M  V30 5391 C 738.918 2.57523 -7.89775 0
M  V30 5392 O 739.656 3.7668 -7.89438 0
M  V30 5393 C 738.249 2.20997 -6.55446 0
M  V30 5394 O 739.048 2.71895 -5.48509 0
M  V30 5395 C 736.912 2.89693 -6.67988 0
M  V30 5396 H 736.944 3.88793 -6.19859 0
M  V30 5397 H 738.127 1.12046 -6.44229 0
M  V30 5398 H 739.611 1.7746 -8.19711 0
M  V30 5399 H 737.917 3.20706 -9.67112 0
M  V30 5400 H 737.726 0.901032 -10.1892 0
M  V30 5401 H 736.096 1.33049 -9.56592 0
M  V30 5402 H 738.736 3.57847 -5.23962 0
M  V30 5403 P 740.593 3.65191 -7.99657 0
M  V30 5404 O 742.014 3.89374 -8.45885 0
M  V30 5405 O 740.233 2.28472 -7.50807 0
M  V30 5406 O 740.27 4.64972 -6.77611 0
M  V30 5407 C 740.109 6.06383 -7.16428 0
M  V30 5408 C 740.65 6.91731 -6.02299 0
M  V30 5409 O 739.595 6.92369 -5.17005 0
M  V30 5410 C 741.868 6.43627 -5.25174 0
M  V30 5411 O 742.606 7.43686 -4.60469 0
M  V30 5412 C 741.2 5.40275 -4.31916 0
M  V30 5413 O 741.998 5.24878 -3.14911 0
M  V30 5414 C 739.862 6.04847 -4.05327 0
M  V30 5415 N 738.819 5.04166 -3.98114 0
M  V30 5416 C 738.988 3.84629 -4.59066 0
M  V30 5417 N 737.961 3.0363 -4.45343 0
M  V30 5418 C 737.076 3.76722 -3.68523 0
M  V30 5419 C 735.809 3.43528 -3.17088 0
M  V30 5420 N 735.21 2.23665 -3.37397 0
M  V30 5421 N 735.244 4.44526 -2.44231 0
M  V30 5422 C 735.846 5.65243 -2.20146 0
M  V30 5423 N 737.023 6.00221 -2.65453 0
M  V30 5424 C 737.598 5.00564 -3.39083 0
M  V30 5425 H 739.894 6.62104 -3.11218 0
M  V30 5426 H 741.077 4.42969 -4.80867 0
M  V30 5427 H 742.56 5.92458 -5.93643 0
M  V30 5428 H 740.866 7.93295 -6.39407 0
M  V30 5429 H 740.676 6.26671 -8.0846 0
M  V30 5430 H 739.046 6.29101 -7.32804 0
M  V30 5431 H 735.31 6.36894 -1.5883 0
M  V30 5432 H 739.888 3.58193 -5.14248 0
M  V30 5433 H 734.28 2.05145 -2.97047 0
M  V30 5434 H 735.684 1.51255 -3.92998 0
M  V30 5435 H 741.686 5.84223 -2.47279 0
M  V30 5436 P 743.544 7.39546 -4.75277 0
M  V30 5437 O 744.966 7.84798 -5.01039 0
M  V30 5438 O 743.184 5.9812 -5.08098 0
M  V30 5439 O 743.221 7.57503 -3.1866 0
M  V30 5440 C 743.061 8.97357 -2.74833 0
M  V30 5441 C 743.601 9.07548 -1.32709 0
M  V30 5442 O 742.545 8.62072 -0.606159 0
M  V30 5443 C 744.819 8.25383 -0.938334 0
M  V30 5444 O 745.557 8.74577 0.146954 0
M  V30 5445 C 744.15 6.8802 -0.712559 0
M  V30 5446 O 744.949 6.1189 0.194655 0
M  V30 5447 C 742.813 7.27966 -0.139777 0
M  V30 5448 H 742.845 7.25354 0.961601 0
M  V30 5449 H 744.028 6.32557 -1.65702 0
M  V30 5450 H 745.512 8.19355 -1.79097 0
M  V30 5451 H 743.818 10.1294 -1.10029 0
M  V30 5452 H 743.628 9.64276 -3.41316 0
M  V30 5453 H 741.998 9.25417 -2.76357 0
M  V30 5454 H 744.637 6.25267 1.07847 0
M  V30 5455 P 746.494 8.791 5.38483e-12 0
M  V30 5456 O 747.916 9.31096 0.027933 0
M  V30 5457 O 746.134 7.77869 -1.04071 0
M  V30 5458 O 746.171 8.09533 1.41463 0
M  V30 5459 C 746.011 9.0349 2.53943 0
M  V30 5460 C 746.551 8.35226 3.79016 0
M  V30 5461 O 745.495 7.57992 4.15078 0
M  V30 5462 C 747.769 7.45087 3.67298 0
M  V30 5463 O 748.507 7.27796 4.85194 0
M  V30 5464 C 747.1 6.17323 3.12027 0
M  V30 5465 O 747.899 5.04231 3.47188 0
M  V30 5466 C 745.763 6.19961 3.81809 0
M  V30 5467 H 745.795 5.58218 4.73051 0
M  V30 5468 H 746.978 6.21726 2.02589 0
M  V30 5469 H 748.462 7.86112 2.9231 0
M  V30 5470 H 746.768 9.11627 4.55076 0
M  V30 5471 H 746.578 9.9573 2.34194 0
M  V30 5472 H 744.948 9.2792 2.67832 0
M  V30 5473 H 747.587 4.67702 4.28772 0
M  V30 5474 P 749.445 7.39546 4.75277 0
M  V30 5475 O 750.866 7.81861 5.05793 0
M  V30 5476 O 749.085 7.1065 3.32998 0
M  V30 5477 O 749.122 6.04542 5.56673 0
M  V30 5478 C 748.961 6.22839 7.02169 0
M  V30 5479 C 749.502 4.97725 7.70406 0
M  V30 5480 O 748.447 4.13208 7.58899 0
M  V30 5481 C 750.72 4.28231 7.11815 0
M  V30 5482 O 751.458 3.49945 8.01648 0
M  V30 5483 C 750.052 3.5063 5.96244 0
M  V30 5484 O 750.85 2.37008 5.64352 0
M  V30 5485 C 748.714 3.15122 6.56374 0
M  V30 5486 N 747.671 3.22311 5.55692 0
M  V30 5487 C 747.84 3.99655 4.46046 0
M  V30 5488 N 746.813 3.97599 3.63918 0
M  V30 5489 C 745.928 3.11159 4.25334 0
M  V30 5490 C 744.661 2.64972 3.85157 0
M  V30 5491 N 744.062 3.02132 2.69405 0
M  V30 5492 N 744.096 1.78482 4.74759 0
M  V30 5493 C 744.698 1.37463 5.90819 0
M  V30 5494 N 745.875 1.7733 6.31889 0
M  V30 5495 C 746.45 2.64393 5.43725 0
M  V30 5496 H 748.746 2.13823 6.99656 0
M  V30 5497 H 749.929 4.12931 5.06895 0
M  V30 5498 H 751.412 5.03285 6.70911 0
M  V30 5499 H 749.718 5.20001 8.76217 0
M  V30 5500 H 749.528 7.11046 7.35349 0
M  V30 5501 H 747.898 6.35815 7.26986 0
M  V30 5502 H 744.162 0.66574 6.53015 0
M  V30 5503 H 748.74 4.58037 4.27732 0
M  V30 5504 H 743.132 2.64828 2.45331 0
M  V30 5505 H 744.536 3.67472 2.05644 0
M  V30 5506 H 750.538 1.61619 6.13468 0
M  V30 5507 P 752.395 3.65191 7.99657 0
M  V30 5508 O 753.816 3.84292 8.48206 0
M  V30 5509 O 752.035 4.17805 6.64342 0
M  V30 5510 O 752.072 2.07613 7.95143 0
M  V30 5511 C 751.911 1.44344 9.27435 0
M  V30 5512 C 752.452 0.0220036 9.17197 0
M  V30 5513 O 751.397 -0.626794 8.61824 0
M  V30 5514 C 753.67 -0.24586 8.30336 0
M  V30 5515 O 754.408 -1.39011 8.63583 0
M  V30 5516 C 753.002 -0.273849 6.91158 0
M  V30 5517 O 753.8 -1.05728 6.029 0
M  V30 5518 C 751.664 -0.897649 7.22545 0
M  V30 5519 N 750.621 -0.292839 6.41732 0
M  V30 5520 C 750.79 0.950603 5.91308 0
M  V30 5521 N 749.763 1.37732 5.21105 0
M  V30 5522 C 748.878 0.318109 5.26039 0
M  V30 5523 C 747.611 0.146766 4.6727 0
M  V30 5524 N 747.046 -1.06525 4.95887 0
M  V30 5525 C 747.648 -2.0378 5.71347 0
M  V30 5526 N 748.825 -1.92445 6.27451 0
M  V30 5527 C 749.4 -0.715382 6.00353 0
M  V30 5528 H 752.879 0.733318 6.49674 0
M  V30 5529 H 754.362 0.60668 8.36503 0
M  V30 5530 H 752.668 -0.362662 10.1825 0
M  V30 5531 H 752.478 2.00611 10.0304 0
M  V30 5532 H 750.848 1.41843 9.55327 0
M  V30 5533 H 751.69 1.54076 6.07465 0
M  V30 5534 H 753.488 -1.95704 6.0346 0
M  V30 5535 P 755.346 -1.25109 8.70152 0
M  V30 5536 O 756.768 -1.35274 9.21221 0
M  V30 5537 O 754.986 -0.0769065 7.84762 0
M  V30 5538 O 755.023 -2.55232 7.81161 0
M  V30 5539 C 754.863 -3.79939 8.58154 0
M  V30 5540 C 755.403 -4.94023 7.72785 0
M  V30 5541 O 754.347 -5.18726 6.91205 0
M  V30 5542 C 756.621 -4.69597 6.85231 0
M  V30 5543 O 757.359 -5.83832 6.51337 0
M  V30 5544 C 755.952 -3.96706 5.66633 0
M  V30 5545 O 756.751 -4.15414 4.49689 0
M  V30 5546 C 754.615 -4.66153 5.59313 0
M  V30 5547 H 754.647 -5.47679 4.85214 0
M  V30 5548 H 755.83 -2.89008 5.86566 0
M  V30 5549 H 757.314 -4.0121 7.36511 0
M  V30 5550 H 755.62 -5.80182 8.37584 0
M  V30 5551 H 755.43 -3.73517 9.52265 0
M  V30 5552 H 753.8 -3.97163 8.80359 0
M  V30 5553 H 756.439 -4.90969 4.01921 0
M  V30 5554 P 758.296 -5.75688 6.64379 0
M  V30 5555 O 759.718 -6.11849 7.01846 0
M  V30 5556 O 757.936 -4.30744 6.56026 0
M  V30 5557 O 757.973 -6.37042 5.19165 0
M  V30 5558 C 757.813 -7.83578 5.16515 0
M  V30 5559 C 758.353 -8.33398 3.83019 0
M  V30 5560 O 757.297 -8.10074 3.01034 0
M  V30 5561 C 759.571 -7.65514 3.2257 0
M  V30 5562 O 760.309 -8.4329 2.32297 0
M  V30 5563 C 758.902 -6.40075 2.62207 0
M  V30 5564 O 759.701 -5.92589 1.53712 0
M  V30 5565 C 757.565 -6.9454 2.18503 0
M  V30 5566 H 757.597 -7.23063 1.12091 0
M  V30 5567 H 758.78 -5.6025 3.37201 0
M  V30 5568 H 760.264 -7.35707 4.02681 0
M  V30 5569 H 758.57 -9.40912 3.9095 0
M  V30 5570 H 758.38 -8.29056 5.99158 0
M  V30 5571 H 756.75 -8.10073 5.25882 0
M  V30 5572 H 759.389 -6.30324 0.726794 0
M  V30 5573 P 761.247 -8.4349 2.47671 0
M  V30 5574 O 762.668 -8.94263 2.59668 0
M  V30 5575 O 760.887 -7.1704 3.19006 0
M  V30 5576 O 760.924 -8.16596 0.923387 0
M  V30 5577 C 760.763 -9.38537 0.108869 0
M  V30 5578 C 761.304 -9.08175 -1.28353 0
M  V30 5579 O 760.249 -8.44131 -1.84692 0
M  V30 5580 C 762.522 -8.18386 -1.42505 0
M  V30 5581 O 763.26 -8.3501 -2.60497 0
M  V30 5582 C 761.854 -6.80225 -1.25468 0
M  V30 5583 O 762.652 -5.81716 -1.90454 0
M  V30 5584 C 760.516 -7.02416 -1.9168 0
M  V30 5585 N 759.473 -6.31033 -1.20314 0
M  V30 5586 C 759.642 -5.98817 0.0994088 0
M  V30 5587 N 758.615 -5.35403 0.621694 0
M  V30 5588 C 757.73 -5.25212 -0.43376 0
M  V30 5589 C 756.463 -4.64602 -0.519722 0
M  V30 5590 N 755.898 -4.7568 -1.76013 0
M  V30 5591 C 756.5 -5.3653 -2.83017 0
M  V30 5592 N 757.677 -5.93676 -2.79782 0
M  V30 5593 C 758.252 -5.84061 -1.56249 0
M  V30 5594 H 761.731 -6.53498 -0.198729 0
M  V30 5595 H 763.214 -8.36622 -0.589963 0
M  V30 5596 H 761.52 -10.0273 -1.8081 0
M  V30 5597 H 761.33 -10.2138 0.558219 0
M  V30 5598 H 759.7 -9.6579 0.0444202 0
M  V30 5599 H 760.542 -6.23209 0.660562 0
M  V30 5600 H 762.34 -5.69466 -2.79593 0
M  V30 5601 P 764.198 -8.4349 -2.47671 0
M  V30 5602 O 765.62 -8.92593 -2.65 0
M  V30 5603 O 763.838 -7.7568 -1.19296 0
M  V30 5604 O 763.875 -7.36886 -3.63805 0
M  V30 5605 C 763.715 -7.95349 -4.982 0
M  V30 5606 C 764.255 -6.94612 -5.98974 0
M  V30 5607 O 763.199 -6.10347 -6.11815 0
M  V30 5608 C 765.473 -6.11426 -5.62335 0
M  V30 5609 O 766.211 -5.6162 -6.70584 0
M  V30 5610 C 764.804 -5.04409 -4.73308 0
M  V30 5611 O 765.603 -3.85992 -4.75183 0
M  V30 5612 C 763.467 -4.8728 -5.41006 0
M  V30 5613 H 763.499 -4.02333 -6.11157 0
M  V30 5614 H 764.682 -5.39466 -3.69543 0
M  V30 5615 H 766.166 -6.71916 -5.01943 0
M  V30 5616 H 764.472 -7.4649 -6.93477 0
M  V30 5617 H 764.282 -8.89416 -5.05237 0
M  V30 5618 H 762.652 -8.14876 -5.18409 0
M  V30 5619 H 765.291 -3.27957 -5.4317 0
M  V30 5620 P 767.148 -5.75688 -6.64379 0
M  V30 5621 O 768.57 -6.07627 -7.05504 0
M  V30 5622 O 766.788 -5.88047 -5.19722 0
M  V30 5623 O 766.825 -4.2322 -7.04443 0
M  V30 5624 C 766.665 -3.99743 -8.4911 0
M  V30 5625 C 767.205 -2.60516 -8.79425 0
M  V30 5626 O 766.149 -1.82684 -8.4467 0
M  V30 5627 C 768.423 -2.10343 -8.03628 0
M  V30 5628 O 769.161 -1.09919 -8.67766 0
M  V30 5629 C 767.754 -1.68446 -6.70876 0
M  V30 5630 O 768.553 -0.678137 -6.08433 0
M  V30 5631 C 766.417 -1.17436 -7.18567 0
M  V30 5632 H 766.449 -0.0804732 -7.31656 0
M  V30 5633 H 767.632 -2.54037 -6.02537 0
M  V30 5634 H 769.116 -2.93881 -7.85526 0
M  V30 5635 H 767.422 -2.53065 -9.86973 0
M  V30 5636 H 767.232 -4.75072 -9.05887 0
M  V30 5637 H 765.602 -4.05244 -8.76668 0
M  V30 5638 H 768.241 0.177647 -6.34251 0
M  V30 5639 P 770.099 -1.25109 -8.70152 0
M  V30 5640 O 771.521 -1.29744 -9.22016 0
M  V30 5641 O 769.739 -2.13714 -7.55141 0
M  V30 5642 O 769.776 0.248149 -8.21425 0
M  V30 5643 C 769.616 1.22779 -9.30434 0
M  V30 5644 C 770.156 2.56293 -8.80664 0
M  V30 5645 O 769.1 3.02979 -8.09349 0
M  V30 5646 C 771.374 2.57523 -7.89775 0
M  V30 5647 O 772.112 3.7668 -7.89438 0
M  V30 5648 C 770.705 2.20997 -6.55446 0
M  V30 5649 O 771.504 2.71895 -5.48509 0
M  V30 5650 C 769.368 2.89693 -6.67988 0
M  V30 5651 H 769.4 3.88793 -6.19859 0
M  V30 5652 H 770.583 1.12046 -6.44229 0
M  V30 5653 H 772.067 1.7746 -8.19711 0
M  V30 5654 H 770.373 3.20706 -9.67112 0
M  V30 5655 H 770.183 0.901032 -10.1892 0
M  V30 5656 H 768.553 1.33049 -9.56592 0
M  V30 5657 H 771.192 3.57847 -5.23962 0
M  V30 5658 P 773.049 3.65191 -7.99657 0
M  V30 5659 O 774.471 3.89332 -8.45794 0
M  V30 5660 O 772.689 2.28472 -7.50807 0
M  V30 5661 O 772.726 4.64972 -6.77611 0
M  V30 5662 C 772.566 6.06319 -7.16352 0
M  V30 5663 C 773.106 6.91731 -6.02299 0
M  V30 5664 O 772.05 6.92449 -5.17064 0
M  V30 5665 C 774.324 6.43627 -5.25174 0
M  V30 5666 O 775.062 7.43686 -4.60469 0
M  V30 5667 C 773.655 5.40275 -4.31916 0
M  V30 5668 O 774.454 5.25279 -3.14438 0
M  V30 5669 C 772.318 6.04847 -4.05327 0
M  V30 5670 H 772.35 6.62195 -3.11261 0
M  V30 5671 H 773.533 4.42556 -4.81383 0
M  V30 5672 H 775.017 5.92458 -5.93643 0
M  V30 5673 H 773.323 7.92655 -6.402 0
M  V30 5674 H 773.133 6.26671 -8.0846 0
M  V30 5675 H 771.503 6.29101 -7.32804 0
M  V30 5676 H 774.142 5.84315 -2.47318 0
M  V30 5677 P 776 7.39546 -4.75277 0
M  V30 5678 O 777.422 7.84798 -5.01039 0
M  V30 5679 O 775.64 5.9812 -5.08098 0
M  V30 5680 O 775.677 7.57503 -3.1866 0
M  V30 5681 C 775.517 8.97357 -2.74833 0
M  V30 5682 C 776.057 9.07548 -1.32709 0
M  V30 5683 O 775.001 8.62072 -0.606159 0
M  V30 5684 C 777.275 8.25383 -0.938334 0
M  V30 5685 O 778.013 8.74577 0.146954 0
M  V30 5686 C 776.606 6.8802 -0.712559 0
M  V30 5687 O 777.405 6.1189 0.194655 0
M  V30 5688 C 775.269 7.27966 -0.139777 0
M  V30 5689 H 775.301 7.25354 0.961601 0
M  V30 5690 H 776.484 6.32557 -1.65702 0
M  V30 5691 H 777.968 8.19355 -1.79097 0
M  V30 5692 H 776.274 10.1294 -1.10029 0
M  V30 5693 H 776.084 9.64276 -3.41316 0
M  V30 5694 H 774.454 9.25417 -2.76357 0
M  V30 5695 H 777.093 6.25267 1.07847 0
M  V30 5696 P 778.95 8.791 5.69499e-12 0
M  V30 5697 O 780.372 9.31096 0.027933 0
M  V30 5698 O 778.59 7.77869 -1.04071 0
M  V30 5699 O 778.627 8.09533 1.41463 0
M  V30 5700 C 778.467 9.0349 2.53943 0
M  V30 5701 C 779.007 8.35226 3.79016 0
M  V30 5702 O 777.951 7.57992 4.15078 0
M  V30 5703 C 780.225 7.45087 3.67298 0
M  V30 5704 O 780.963 7.27796 4.85194 0
M  V30 5705 C 779.556 6.17323 3.12027 0
M  V30 5706 O 780.355 5.04231 3.47188 0
M  V30 5707 C 778.219 6.19961 3.81809 0
M  V30 5708 H 778.251 5.58218 4.73051 0
M  V30 5709 H 779.434 6.21726 2.02589 0
M  V30 5710 H 780.918 7.86112 2.9231 0
M  V30 5711 H 779.224 9.11627 4.55076 0
M  V30 5712 H 779.034 9.9573 2.34194 0
M  V30 5713 H 777.404 9.2792 2.67832 0
M  V30 5714 H 780.043 4.67702 4.28772 0
M  V30 5715 P 781.901 7.39546 4.75277 0
M  V30 5716 O 783.323 7.81777 5.05738 0
M  V30 5717 O 781.541 7.1065 3.32998 0
M  V30 5718 O 781.578 6.04542 5.56673 0
M  V30 5719 C 781.418 6.22772 7.02095 0
M  V30 5720 C 781.958 4.97725 7.70406 0
M  V30 5721 O 780.902 4.13256 7.58987 0
M  V30 5722 C 783.176 4.28231 7.11815 0
M  V30 5723 O 783.914 3.49945 8.01648 0
M  V30 5724 C 782.507 3.5063 5.96244 0
M  V30 5725 O 783.306 2.36482 5.64681 0
M  V30 5726 C 781.17 3.15122 6.56374 0
M  V30 5727 H 781.202 2.13853 6.99751 0
M  V30 5728 H 782.385 4.13501 5.06559 0
M  V30 5729 H 783.869 5.03285 6.70911 0
M  V30 5730 H 782.175 5.20877 8.75697 0
M  V30 5731 H 781.985 7.11046 7.35349 0
M  V30 5732 H 780.355 6.35815 7.26986 0
M  V30 5733 H 782.994 1.61644 6.13565 0
M  V30 5734 P 784.852 3.65191 7.99657 0
M  V30 5735 O 786.274 3.8425 8.48115 0
M  V30 5736 O 784.492 4.17805 6.64342 0
M  V30 5737 O 784.529 2.07613 7.95143 0
M  V30 5738 C 784.369 1.44328 9.27336 0
M  V30 5739 C 784.909 0.0220036 9.17197 0
M  V30 5740 O 783.853 -0.626867 8.61923 0
M  V30 5741 C 786.127 -0.24586 8.30336 0
M  V30 5742 O 786.865 -1.39011 8.63583 0
M  V30 5743 C 785.458 -0.273849 6.91158 0
M  V30 5744 O 786.257 -1.06348 6.02892 0
M  V30 5745 C 784.121 -0.897649 7.22545 0
M  V30 5746 H 784.153 -1.9841 7.04286 0
M  V30 5747 H 785.336 0.739928 6.497 0
M  V30 5748 H 786.82 0.60668 8.36503 0
M  V30 5749 H 785.126 -0.352479 10.1829 0
M  V30 5750 H 784.936 2.00611 10.0304 0
M  V30 5751 H 783.306 1.41843 9.55327 0
M  V30 5752 H 785.945 -1.95734 6.03555 0
M  V30 5753 P 787.802 -1.25109 8.70152 0
M  V30 5754 O 789.224 -1.35274 9.21221 0
M  V30 5755 O 787.442 -0.0769065 7.84762 0
M  V30 5756 O 787.479 -2.55232 7.81161 0
M  V30 5757 C 787.319 -3.79939 8.58154 0
M  V30 5758 C 787.859 -4.94023 7.72785 0
M  V30 5759 O 786.803 -5.18726 6.91205 0
M  V30 5760 C 789.077 -4.69597 6.85231 0
M  V30 5761 O 789.815 -5.83832 6.51337 0
M  V30 5762 C 788.408 -3.96706 5.66633 0
M  V30 5763 O 789.207 -4.15414 4.49689 0
M  V30 5764 C 787.071 -4.66153 5.59313 0
M  V30 5765 H 787.103 -5.47679 4.85214 0
M  V30 5766 H 788.286 -2.89008 5.86566 0
M  V30 5767 H 789.77 -4.0121 7.36511 0
M  V30 5768 H 788.076 -5.80182 8.37584 0
M  V30 5769 H 787.886 -3.73517 9.52265 0
M  V30 5770 H 786.256 -3.97163 8.80359 0
M  V30 5771 H 788.895 -4.90969 4.01921 0
M  V30 5772 P 790.753 -5.75688 6.64379 0
M  V30 5773 O 792.175 -6.11849 7.01846 0
M  V30 5774 O 790.393 -4.30744 6.56026 0
M  V30 5775 O 790.43 -6.37042 5.19165 0
M  V30 5776 C 790.27 -7.83578 5.16515 0
M  V30 5777 C 790.81 -8.33398 3.83019 0
M  V30 5778 O 789.754 -8.10074 3.01034 0
M  V30 5779 C 792.028 -7.65514 3.2257 0
M  V30 5780 O 792.766 -8.4329 2.32297 0
M  V30 5781 C 791.359 -6.40075 2.62207 0
M  V30 5782 O 792.158 -5.92589 1.53712 0
M  V30 5783 C 790.022 -6.9454 2.18503 0
M  V30 5784 H 790.054 -7.23063 1.12091 0
M  V30 5785 H 791.237 -5.6025 3.37201 0
M  V30 5786 H 792.721 -7.35707 4.02681 0
M  V30 5787 H 791.027 -9.40912 3.9095 0
M  V30 5788 H 790.837 -8.29056 5.99158 0
M  V30 5789 H 789.207 -8.10073 5.25882 0
M  V30 5790 H 791.846 -6.30324 0.726794 0
M  V30 5791 P 793.703 -8.4349 2.47671 0
M  V30 5792 O 795.125 -8.94167 2.5964 0
M  V30 5793 O 793.343 -7.1704 3.19006 0
M  V30 5794 O 793.38 -8.16596 0.923387 0
M  V30 5795 C 793.22 -9.38437 0.108857 0
M  V30 5796 C 793.76 -9.08175 -1.28353 0
M  V30 5797 O 792.704 -8.44229 -1.84713 0
M  V30 5798 C 794.978 -8.18386 -1.42505 0
M  V30 5799 O 795.716 -8.3501 -2.60497 0
M  V30 5800 C 794.309 -6.80225 -1.25468 0
M  V30 5801 O 795.108 -5.81621 -1.91066 0
M  V30 5802 C 792.972 -7.02416 -1.9168 0
M  V30 5803 H 793.004 -6.6888 -2.96621 0
M  V30 5804 H 794.187 -6.53617 -0.192223 0
M  V30 5805 H 795.671 -8.36622 -0.589963 0
M  V30 5806 H 793.977 -10.0291 -1.79807 0
M  V30 5807 H 793.787 -10.2138 0.558219 0
M  V30 5808 H 792.157 -9.6579 0.0444202 0
M  V30 5809 H 794.796 -5.69556 -2.79637 0
M  V30 5810 P 796.654 -8.4349 -2.47671 0
M  V30 5811 O 798.076 -8.92593 -2.65 0
M  V30 5812 O 796.294 -7.7568 -1.19296 0
M  V30 5813 O 796.331 -7.36886 -3.63805 0
M  V30 5814 C 796.171 -7.95349 -4.982 0
M  V30 5815 C 796.711 -6.94612 -5.98974 0
M  V30 5816 O 795.655 -6.10347 -6.11815 0
M  V30 5817 C 797.929 -6.11426 -5.62335 0
M  V30 5818 O 798.667 -5.6162 -6.70584 0
M  V30 5819 C 797.26 -5.04409 -4.73308 0
M  V30 5820 O 798.059 -3.85992 -4.75183 0
M  V30 5821 C 795.923 -4.8728 -5.41006 0
M  V30 5822 H 795.955 -4.02333 -6.11157 0
M  V30 5823 H 797.138 -5.39466 -3.69543 0
M  V30 5824 H 798.622 -6.71916 -5.01943 0
M  V30 5825 H 796.928 -7.4649 -6.93477 0
M  V30 5826 H 796.738 -8.89416 -5.05237 0
M  V30 5827 H 795.108 -8.14876 -5.18409 0
M  V30 5828 H 797.747 -3.27957 -5.4317 0
M  V30 5829 P 799.604 -5.75688 -6.64379 0
M  V30 5830 O 801.026 -6.07627 -7.05504 0
M  V30 5831 O 799.244 -5.88047 -5.19722 0
M  V30 5832 O 799.281 -4.2322 -7.04443 0
M  V30 5833 C 799.121 -3.99743 -8.4911 0
M  V30 5834 C 799.661 -2.60516 -8.79425 0
M  V30 5835 O 798.605 -1.82684 -8.4467 0
M  V30 5836 C 800.879 -2.10343 -8.03628 0
M  V30 5837 O 801.617 -1.09919 -8.67766 0
M  V30 5838 C 800.21 -1.68446 -6.70876 0
M  V30 5839 O 801.009 -0.678137 -6.08433 0
M  V30 5840 C 798.873 -1.17436 -7.18567 0
M  V30 5841 H 798.905 -0.0804732 -7.31656 0
M  V30 5842 H 800.088 -2.54037 -6.02537 0
M  V30 5843 H 801.572 -2.93881 -7.85526 0
M  V30 5844 H 799.878 -2.53065 -9.86973 0
M  V30 5845 H 799.688 -4.75072 -9.05887 0
M  V30 5846 H 798.058 -4.05244 -8.76668 0
M  V30 5847 H 800.697 0.177647 -6.34251 0
M  V30 5848 P 802.555 -1.25109 -8.70152 0
M  V30 5849 O 803.976 -1.29758 -9.22115 0
M  V30 5850 O 802.195 -2.13714 -7.55141 0
M  V30 5851 O 802.232 0.248149 -8.21425 0
M  V30 5852 C 802.071 1.22792 -9.30533 0
M  V30 5853 C 802.612 2.56293 -8.80664 0
M  V30 5854 O 801.557 3.02944 -8.09255 0
M  V30 5855 C 803.83 2.57523 -7.89775 0
M  V30 5856 O 804.568 3.7668 -7.89438 0
M  V30 5857 C 803.162 2.20997 -6.55446 0
M  V30 5858 O 803.96 2.71302 -5.48691 0
M  V30 5859 C 801.824 2.89693 -6.67988 0
M  V30 5860 N 800.781 2.08895 -6.07487 0
M  V30 5861 C 800.95 0.753809 -5.94137 0
M  V30 5862 N 799.923 0.146592 -5.38801 0
M  V30 5863 C 799.038 1.1768 -5.13693 0
M  V30 5864 C 797.771 1.17563 -4.52477 0
M  V30 5865 N 797.206 2.41918 -4.45789 0
M  V30 5866 C 797.808 3.56493 -4.90792 0
M  V30 5867 N 798.985 3.61423 -5.47817 0
M  V30 5868 C 799.56 2.37779 -5.5588 0
M  V30 5869 H 803.039 1.12673 -6.44018 0
M  V30 5870 H 804.522 1.7746 -8.19711 0
M  V30 5871 H 802.828 3.21673 -9.66791 0
M  V30 5872 H 802.638 0.901032 -10.1892 0
M  V30 5873 H 801.008 1.33049 -9.56592 0
M  V30 5874 H 801.85 0.233081 -6.26266 0
M  V30 5875 H 803.648 3.5779 -5.23879 0
M  V30 5876 P 805.506 3.65191 -7.99657 0
M  V30 5877 O 806.928 3.89332 -8.45794 0
M  V30 5878 O 805.146 2.28472 -7.50807 0
M  V30 5879 O 805.183 4.64972 -6.77611 0
M  V30 5880 C 805.023 6.06319 -7.16352 0
M  V30 5881 C 805.563 6.91731 -6.02299 0
M  V30 5882 O 804.507 6.92449 -5.17064 0
M  V30 5883 C 806.781 6.43627 -5.25174 0
M  V30 5884 O 807.519 7.43686 -4.60469 0
M  V30 5885 C 806.112 5.40275 -4.31916 0
M  V30 5886 O 806.911 5.25279 -3.14438 0
M  V30 5887 C 804.775 6.04847 -4.05327 0
M  V30 5888 H 804.807 6.62195 -3.11261 0
M  V30 5889 H 805.99 4.42556 -4.81383 0
M  V30 5890 H 807.474 5.92458 -5.93643 0
M  V30 5891 H 805.78 7.92655 -6.402 0
M  V30 5892 H 805.59 6.26671 -8.0846 0
M  V30 5893 H 803.96 6.29101 -7.32804 0
M  V30 5894 H 806.599 5.84315 -2.47318 0
M  V30 5895 P 808.456 7.39546 -4.75277 0
M  V30 5896 O 809.877 7.84882 -5.01092 0
M  V30 5897 O 808.096 5.9812 -5.08098 0
M  V30 5898 O 808.133 7.57503 -3.1866 0
M  V30 5899 C 807.972 8.97452 -2.74862 0
M  V30 5900 C 808.513 9.07548 -1.32709 0
M  V30 5901 O 807.458 8.61972 -0.606089 0
M  V30 5902 C 809.731 8.25383 -0.938334 0
M  V30 5903 O 810.469 8.74577 0.146954 0
M  V30 5904 C 809.063 6.8802 -0.712559 0
M  V30 5905 O 809.861 6.1181 0.188505 0
M  V30 5906 C 807.725 7.27966 -0.139777 0
M  V30 5907 N 806.682 6.39368 -0.623421 0
M  V30 5908 C 806.851 5.71761 -1.78245 0
M  V30 5909 N 805.824 4.962 -2.10491 0
M  V30 5910 C 804.939 5.16158 -1.0635 0
M  V30 5911 C 803.672 4.60425 -0.810266 0
M  V30 5912 N 803.073 3.7057 -1.62914 0
M  V30 5913 N 803.107 5.06 0.348685 0
M  V30 5914 C 803.709 5.94532 1.20395 0
M  V30 5915 N 804.886 6.48452 1.01191 0
M  V30 5916 C 805.461 6.04423 -0.146291 0
M  V30 5917 H 807.757 7.25255 0.961469 0
M  V30 5918 H 808.94 6.32625 -1.65044 0
M  V30 5919 H 810.423 8.19355 -1.79097 0
M  V30 5920 H 808.729 10.1305 -1.09016 0
M  V30 5921 H 808.539 9.64276 -3.41316 0
M  V30 5922 H 806.909 9.25417 -2.76357 0
M  V30 5923 H 803.173 6.21659 2.10714 0
M  V30 5924 H 807.751 5.79354 -2.38959 0
M  V30 5925 H 802.143 3.33174 -1.38982 0
M  V30 5926 H 803.547 3.39714 -2.48836 0
M  V30 5927 H 809.549 6.25169 1.0783 0
M  V30 5928 P 811.407 8.791 6.00516e-12 0
M  V30 5929 O 812.828 9.31196 0.027936 0
M  V30 5930 O 811.047 7.77869 -1.04071 0
M  V30 5931 O 811.084 8.09533 1.41463 0
M  V30 5932 C 810.923 9.03587 2.5397 0
M  V30 5933 C 811.464 8.35226 3.79016 0
M  V30 5934 O 810.409 7.57904 4.1503 0
M  V30 5935 C 812.682 7.45087 3.67298 0
M  V30 5936 O 813.42 7.27796 4.85194 0
M  V30 5937 C 812.014 6.17323 3.12027 0
M  V30 5938 O 812.812 5.04496 3.46627 0
M  V30 5939 C 810.676 6.19961 3.81809 0
M  V30 5940 N 809.633 5.71575 2.93223 0
M  V30 5941 C 809.802 5.77362 1.59168 0
M  V30 5942 N 808.775 5.3123 0.911893 0
M  V30 5943 C 807.89 4.91717 1.89588 0
M  V30 5944 C 806.623 4.3114 1.8076 0
M  V30 5945 N 806.058 4.06823 3.02898 0
M  V30 5946 C 806.66 4.35062 4.22711 0
M  V30 5947 N 807.837 4.90805 4.35707 0
M  V30 5948 C 808.412 5.16382 3.14469 0
M  V30 5949 H 811.891 6.21428 2.0318 0
M  V30 5950 H 813.374 7.86112 2.9231 0
M  V30 5951 H 811.68 9.11171 4.55987 0
M  V30 5952 H 811.49 9.9573 2.34194 0
M  V30 5953 H 809.86 9.2792 2.67832 0
M  V30 5954 H 810.702 6.16575 1.12198 0
M  V30 5955 H 812.5 4.67628 4.28704 0
M  V30 5956 P 814.357 7.39546 4.75277 0
M  V30 5957 O 815.779 7.81777 5.05738 0
M  V30 5958 O 813.997 7.1065 3.32998 0
M  V30 5959 O 814.034 6.04542 5.56673 0
M  V30 5960 C 813.874 6.22772 7.02095 0
M  V30 5961 C 814.414 4.97725 7.70406 0
M  V30 5962 O 813.358 4.13256 7.58987 0
M  V30 5963 C 815.632 4.28231 7.11815 0
M  V30 5964 O 816.37 3.49945 8.01648 0
M  V30 5965 C 814.963 3.5063 5.96244 0
M  V30 5966 O 815.762 2.36482 5.64681 0
M  V30 5967 C 813.626 3.15122 6.56374 0
M  V30 5968 H 813.658 2.13853 6.99751 0
M  V30 5969 H 814.841 4.13501 5.06559 0
M  V30 5970 H 816.325 5.03285 6.70911 0
M  V30 5971 H 814.631 5.20877 8.75697 0
M  V30 5972 H 814.441 7.11046 7.35349 0
M  V30 5973 H 812.811 6.35815 7.26986 0
M  V30 5974 H 815.45 1.61644 6.13565 0
M  V30 5975 P 817.308 3.65191 7.99657 0
M  V30 5976 O 818.73 3.8425 8.48115 0
M  V30 5977 O 816.948 4.17805 6.64342 0
M  V30 5978 O 816.985 2.07613 7.95143 0
M  V30 5979 C 816.825 1.44328 9.27336 0
M  V30 5980 C 817.365 0.0220036 9.17197 0
M  V30 5981 O 816.309 -0.626867 8.61923 0
M  V30 5982 C 818.583 -0.24586 8.30336 0
M  V30 5983 O 819.321 -1.39011 8.63583 0
M  V30 5984 C 817.914 -0.273849 6.91158 0
M  V30 5985 O 818.713 -1.06348 6.02892 0
M  V30 5986 C 816.577 -0.897649 7.22545 0
M  V30 5987 H 816.609 -1.9841 7.04286 0
M  V30 5988 H 817.792 0.739928 6.497 0
M  V30 5989 H 819.276 0.60668 8.36503 0
M  V30 5990 H 817.582 -0.352479 10.1829 0
M  V30 5991 H 817.392 2.00611 10.0304 0
M  V30 5992 H 815.762 1.41843 9.55327 0
M  V30 5993 H 818.401 -1.95734 6.03555 0
M  V30 5994 P 820.258 -1.25109 8.70152 0
M  V30 5995 O 821.68 -1.35274 9.21221 0
M  V30 5996 O 819.898 -0.0769065 7.84762 0
M  V30 5997 O 819.935 -2.55232 7.81161 0
M  V30 5998 C 819.775 -3.79939 8.58154 0
M  V30 5999 C 820.315 -4.94023 7.72785 0
M  V30 6000 O 819.259 -5.18726 6.91205 0
M  V30 6001 C 821.533 -4.69597 6.85231 0
M  V30 6002 O 822.271 -5.83832 6.51337 0
M  V30 6003 C 820.864 -3.96706 5.66633 0
M  V30 6004 O 821.663 -4.15414 4.49689 0
M  V30 6005 C 819.527 -4.66153 5.59313 0
M  V30 6006 H 819.559 -5.47679 4.85214 0
M  V30 6007 H 820.742 -2.89008 5.86566 0
M  V30 6008 H 822.226 -4.0121 7.36511 0
M  V30 6009 H 820.532 -5.80182 8.37584 0
M  V30 6010 H 820.342 -3.73517 9.52265 0
M  V30 6011 H 818.712 -3.97163 8.80359 0
M  V30 6012 H 821.351 -4.90969 4.01921 0
M  V30 6013 P 823.209 -5.75688 6.64379 0
M  V30 6014 O 824.631 -6.11849 7.01846 0
M  V30 6015 O 822.849 -4.30744 6.56026 0
M  V30 6016 O 822.886 -6.37042 5.19165 0
M  V30 6017 C 822.726 -7.83578 5.16515 0
M  V30 6018 C 823.266 -8.33398 3.83019 0
M  V30 6019 O 822.21 -8.10074 3.01034 0
M  V30 6020 C 824.484 -7.65514 3.2257 0
M  V30 6021 O 825.222 -8.4329 2.32297 0
M  V30 6022 C 823.815 -6.40075 2.62207 0
M  V30 6023 O 824.614 -5.92589 1.53712 0
M  V30 6024 C 822.478 -6.9454 2.18503 0
M  V30 6025 H 822.51 -7.23063 1.12091 0
M  V30 6026 H 823.693 -5.6025 3.37201 0
M  V30 6027 H 825.177 -7.35707 4.02681 0
M  V30 6028 H 823.483 -9.40912 3.9095 0
M  V30 6029 H 823.293 -8.29056 5.99158 0
M  V30 6030 H 821.663 -8.10073 5.25882 0
M  V30 6031 H 824.302 -6.30324 0.726794 0
M  V30 6032 P 826.16 -8.4349 2.47671 0
M  V30 6033 O 827.582 -8.94167 2.5964 0
M  V30 6034 O 825.8 -7.1704 3.19006 0
M  V30 6035 O 825.837 -8.16596 0.923387 0
M  V30 6036 C 825.677 -9.38437 0.108857 0
M  V30 6037 C 826.217 -9.08175 -1.28353 0
M  V30 6038 O 825.161 -8.44229 -1.84713 0
M  V30 6039 C 827.435 -8.18386 -1.42505 0
M  V30 6040 O 828.173 -8.3501 -2.60497 0
M  V30 6041 C 826.766 -6.80225 -1.25468 0
M  V30 6042 O 827.565 -5.81621 -1.91066 0
M  V30 6043 C 825.429 -7.02416 -1.9168 0
M  V30 6044 H 825.461 -6.6888 -2.96621 0
M  V30 6045 H 826.644 -6.53617 -0.192223 0
M  V30 6046 H 828.128 -8.36622 -0.589963 0
M  V30 6047 H 826.434 -10.0291 -1.79807 0
M  V30 6048 H 826.244 -10.2138 0.558219 0
M  V30 6049 H 824.614 -9.6579 0.0444202 0
M  V30 6050 H 827.253 -5.69556 -2.79637 0
M  V30 6051 P 829.11 -8.4349 -2.47671 0
M  V30 6052 O 830.532 -8.92593 -2.65 0
M  V30 6053 O 828.75 -7.7568 -1.19296 0
M  V30 6054 O 828.787 -7.36886 -3.63805 0
M  V30 6055 C 828.627 -7.95349 -4.982 0
M  V30 6056 C 829.167 -6.94612 -5.98974 0
M  V30 6057 O 828.111 -6.10347 -6.11815 0
M  V30 6058 C 830.385 -6.11426 -5.62335 0
M  V30 6059 O 831.123 -5.6162 -6.70584 0
M  V30 6060 C 829.716 -5.04409 -4.73308 0
M  V30 6061 O 830.515 -3.85992 -4.75183 0
M  V30 6062 C 828.379 -4.8728 -5.41006 0
M  V30 6063 H 828.411 -4.02333 -6.11157 0
M  V30 6064 H 829.594 -5.39466 -3.69543 0
M  V30 6065 H 831.078 -6.71916 -5.01943 0
M  V30 6066 H 829.384 -7.4649 -6.93477 0
M  V30 6067 H 829.194 -8.89416 -5.05237 0
M  V30 6068 H 827.564 -8.14876 -5.18409 0
M  V30 6069 H 830.203 -3.27957 -5.4317 0
M  V30 6070 P 832.061 -5.75688 -6.64379 0
M  V30 6071 O 833.483 -6.07758 -7.05656 0
M  V30 6072 O 831.701 -5.88047 -5.19722 0
M  V30 6073 O 831.738 -4.2322 -7.04443 0
M  V30 6074 C 831.578 -3.99743 -8.4911 0
M  V30 6075 C 832.118 -2.60487 -8.79329 0
M  V30 6076 O 831.063 -1.82684 -8.4467 0
M  V30 6077 C 833.336 -2.10343 -8.03628 0
M  V30 6078 O 834.074 -1.09919 -8.67766 0
M  V30 6079 C 832.668 -1.68446 -6.70876 0
M  V30 6080 O 833.466 -0.678026 -6.08333 0
M  V30 6081 C 831.33 -1.17436 -7.18567 0
M  V30 6082 N 830.287 -1.52699 -6.23988 0
M  V30 6083 C 830.349 -2.68084 -5.57824 0
M  V30 6084 N 829.304 -2.8189 -4.75643 0
M  V30 6085 C 828.57 -1.72373 -4.95155 0
M  V30 6086 C 827.264 -1.37653 -4.44996 0
M  V30 6087 O 826.531 -2.02239 -3.68445 0
M  V30 6088 N 826.834 -0.17675 -4.90782 0
M  V30 6089 C 827.583 0.645036 -5.78716 0
M  V30 6090 N 826.986 1.84214 -6.10618 0
M  V30 6091 N 828.736 0.321732 -6.30279 0
M  V30 6092 C 829.193 -0.87502 -5.86913 0
M  V30 6093 H 831.362 -0.0804732 -7.31656 0
M  V30 6094 H 832.545 -2.53998 -6.02444 0
M  V30 6095 H 834.03 -2.93095 -7.8582 0
M  V30 6096 H 832.335 -2.53065 -9.86973 0
M  V30 6097 H 832.145 -4.75072 -9.05887 0
M  V30 6098 H 830.514 -4.05244 -8.76668 0
M  V30 6099 H 825.938 0.152143 -4.60849 0
M  V30 6100 H 831.145 -3.41852 -5.69006 0
M  V30 6101 H 826.075 2.08538 -5.69521 0
M  V30 6102 H 827.451 2.4895 -6.75698 0
M  V30 6103 H 833.155 0.177619 -6.34151 0
M  V30 6104 P 835.011 -1.25109 -8.70152 0
M  V30 6105 O 836.432 -1.29758 -9.22115 0
M  V30 6106 O 834.651 -2.13714 -7.55141 0
M  V30 6107 O 834.688 0.248149 -8.21425 0
M  V30 6108 C 834.527 1.22792 -9.30533 0
M  V30 6109 C 835.068 2.56293 -8.80664 0
M  V30 6110 O 834.013 3.02944 -8.09255 0
M  V30 6111 C 836.286 2.57523 -7.89775 0
M  V30 6112 O 837.024 3.7668 -7.89438 0
M  V30 6113 C 835.618 2.20997 -6.55446 0
M  V30 6114 O 836.416 2.71302 -5.48691 0
M  V30 6115 C 834.28 2.89693 -6.67988 0
M  V30 6116 N 833.237 2.08895 -6.07487 0
M  V30 6117 C 833.406 0.753809 -5.94137 0
M  V30 6118 N 832.379 0.146592 -5.38801 0
M  V30 6119 C 831.494 1.1768 -5.13693 0
M  V30 6120 C 830.227 1.17563 -4.52477 0
M  V30 6121 N 829.662 2.41918 -4.45789 0
M  V30 6122 C 830.264 3.56493 -4.90792 0
M  V30 6123 N 831.441 3.61423 -5.47817 0
M  V30 6124 C 832.016 2.37779 -5.5588 0
M  V30 6125 H 835.495 1.12673 -6.44018 0
M  V30 6126 H 836.978 1.7746 -8.19711 0
M  V30 6127 H 835.284 3.21673 -9.66791 0
M  V30 6128 H 835.094 0.901032 -10.1892 0
M  V30 6129 H 833.464 1.33049 -9.56592 0
M  V30 6130 H 834.306 0.233081 -6.26266 0
M  V30 6131 H 836.104 3.5779 -5.23879 0
M  V30 6132 P 837.962 3.65191 -7.99657 0
M  V30 6133 O 839.384 3.89332 -8.45794 0
M  V30 6134 O 837.602 2.28472 -7.50807 0
M  V30 6135 O 837.639 4.64972 -6.77611 0
M  V30 6136 C 837.479 6.06319 -7.16352 0
M  V30 6137 C 838.019 6.91731 -6.02299 0
M  V30 6138 O 836.963 6.92449 -5.17064 0
M  V30 6139 C 839.237 6.43627 -5.25174 0
M  V30 6140 O 839.975 7.43686 -4.60469 0
M  V30 6141 C 838.568 5.40275 -4.31916 0
M  V30 6142 O 839.367 5.25279 -3.14438 0
M  V30 6143 C 837.231 6.04847 -4.05327 0
M  V30 6144 H 837.263 6.62195 -3.11261 0
M  V30 6145 H 838.446 4.42556 -4.81383 0
M  V30 6146 H 839.93 5.92458 -5.93643 0
M  V30 6147 H 838.236 7.92655 -6.402 0
M  V30 6148 H 838.046 6.26671 -8.0846 0
M  V30 6149 H 836.416 6.29101 -7.32804 0
M  V30 6150 H 839.055 5.84315 -2.47318 0
M  V30 6151 P 840.912 7.39546 -4.75277 0
M  V30 6152 O 842.334 7.84798 -5.01039 0
M  V30 6153 O 840.552 5.9812 -5.08098 0
M  V30 6154 O 840.589 7.57503 -3.1866 0
M  V30 6155 C 840.429 8.97357 -2.74833 0
M  V30 6156 C 840.969 9.07548 -1.32709 0
M  V30 6157 O 839.913 8.62072 -0.606159 0
M  V30 6158 C 842.187 8.25383 -0.938334 0
M  V30 6159 O 842.925 8.74577 0.146954 0
M  V30 6160 C 841.518 6.8802 -0.712559 0
M  V30 6161 O 842.317 6.1189 0.194655 0
M  V30 6162 C 840.181 7.27966 -0.139777 0
M  V30 6163 H 840.213 7.25354 0.961601 0
M  V30 6164 H 841.396 6.32557 -1.65702 0
M  V30 6165 H 842.88 8.19355 -1.79097 0
M  V30 6166 H 841.186 10.1294 -1.10029 0
M  V30 6167 H 840.996 9.64276 -3.41316 0
M  V30 6168 H 839.366 9.25417 -2.76357 0
M  V30 6169 H 842.005 6.25267 1.07847 0
M  V30 6170 P 843.863 8.791 6.31533e-12 0
M  V30 6171 O 845.285 9.31096 0.027933 0
M  V30 6172 O 843.503 7.77869 -1.04071 0
M  V30 6173 O 843.54 8.09533 1.41463 0
M  V30 6174 C 843.38 9.0349 2.53943 0
M  V30 6175 C 843.92 8.35226 3.79016 0
M  V30 6176 O 842.864 7.57992 4.15078 0
M  V30 6177 C 845.138 7.45087 3.67298 0
M  V30 6178 O 845.876 7.27796 4.85194 0
M  V30 6179 C 844.469 6.17323 3.12027 0
M  V30 6180 O 845.268 5.04231 3.47188 0
M  V30 6181 C 843.132 6.19961 3.81809 0
M  V30 6182 H 843.164 5.58218 4.73051 0
M  V30 6183 H 844.347 6.21726 2.02589 0
M  V30 6184 H 845.831 7.86112 2.9231 0
M  V30 6185 H 844.137 9.11627 4.55076 0
M  V30 6186 H 843.947 9.9573 2.34194 0
M  V30 6187 H 842.317 9.2792 2.67832 0
M  V30 6188 H 844.956 4.67702 4.28772 0
M  V30 6189 P 846.814 7.39546 4.75277 0
M  V30 6190 O 848.215 7.89013 5.04841 0
M  V30 6191 O 846.436 7.16603 3.32298 0
M  V30 6192 O 846.491 6.04468 5.56605 0
M  V30 6193 C 846.331 6.22772 7.02095 0
M  V30 6194 C 846.871 4.97671 7.70322 0
M  V30 6195 O 845.815 4.13208 7.58899 0
M  V30 6196 C 848.088 4.28231 7.11815 0
M  V30 6197 O 848.827 3.49945 8.01648 0
M  V30 6198 C 847.421 3.5063 5.96244 0
M  V30 6199 O 848.219 2.36443 5.64589 0
M  V30 6200 C 846.083 3.15122 6.56374 0
M  V30 6201 N 845.04 3.22311 5.55692 0
M  V30 6202 C 844.005 2.32244 5.62437 0
M  V30 6203 O 844.044 1.43107 6.50341 0
M  V30 6204 N 842.993 2.40811 4.73368 0
M  V30 6205 C 843.041 3.344 3.77753 0
M  V30 6206 C 844.137 4.24712 3.66679 0
M  V30 6207 C 845.103 4.15625 4.58307 0
M  V30 6208 H 846.115 2.13823 6.99656 0
M  V30 6209 H 847.298 4.12931 5.06895 0
M  V30 6210 H 848.782 5.02674 6.71494 0
M  V30 6211 H 847.088 5.20001 8.76217 0
M  V30 6212 H 846.897 7.11046 7.35349 0
M  V30 6213 H 845.267 6.35749 7.26911 0
M  V30 6214 H 844.185 4.9828 2.86753 0
M  V30 6215 H 845.949 4.84464 4.54228 0
M  V30 6216 H 848.003 1.65592 6.23485 0
M  V30 6217 P 849.764 3.65191 7.99657 0
M  V30 6218 O 851.186 3.8425 8.48115 0
M  V30 6219 O 849.404 4.17805 6.64342 0
M  V30 6220 O 849.441 2.07613 7.95143 0
M  V30 6221 C 849.281 1.44328 9.27336 0
M  V30 6222 C 849.821 0.0220036 9.17197 0
M  V30 6223 O 848.765 -0.626867 8.61923 0
M  V30 6224 C 851.039 -0.24586 8.30336 0
M  V30 6225 O 851.777 -1.39011 8.63583 0
M  V30 6226 C 850.37 -0.273849 6.91158 0
M  V30 6227 O 851.169 -1.06348 6.02892 0
M  V30 6228 C 849.033 -0.897649 7.22545 0
M  V30 6229 H 849.065 -1.9841 7.04286 0
M  V30 6230 H 850.248 0.739928 6.497 0
M  V30 6231 H 851.732 0.60668 8.36503 0
M  V30 6232 H 850.038 -0.352479 10.1829 0
M  V30 6233 H 849.848 2.00611 10.0304 0
M  V30 6234 H 848.218 1.41843 9.55327 0
M  V30 6235 H 850.857 -1.95734 6.03555 0
M  V30 6236 P 852.715 -1.25109 8.70152 0
M  V30 6237 O 854.137 -1.35274 9.21221 0
M  V30 6238 O 852.355 -0.0769065 7.84762 0
M  V30 6239 O 852.392 -2.55232 7.81161 0
M  V30 6240 C 852.232 -3.79939 8.58154 0
M  V30 6241 C 852.772 -4.94023 7.72785 0
M  V30 6242 O 851.716 -5.18726 6.91205 0
M  V30 6243 C 853.99 -4.69597 6.85231 0
M  V30 6244 O 854.728 -5.83832 6.51337 0
M  V30 6245 C 853.321 -3.96706 5.66633 0
M  V30 6246 O 854.12 -4.15414 4.49689 0
M  V30 6247 C 851.984 -4.66153 5.59313 0
M  V30 6248 H 852.016 -5.47679 4.85214 0
M  V30 6249 H 853.199 -2.89008 5.86566 0
M  V30 6250 H 854.683 -4.0121 7.36511 0
M  V30 6251 H 852.989 -5.80182 8.37584 0
M  V30 6252 H 852.799 -3.73517 9.52265 0
M  V30 6253 H 851.169 -3.97163 8.80359 0
M  V30 6254 H 853.808 -4.90969 4.01921 0
M  V30 6255 P 855.665 -5.75688 6.64379 0
M  V30 6256 O 857.087 -6.11849 7.01846 0
M  V30 6257 O 855.305 -4.30744 6.56026 0
M  V30 6258 O 855.342 -6.37042 5.19165 0
M  V30 6259 C 855.182 -7.83578 5.16515 0
M  V30 6260 C 855.722 -8.33398 3.83019 0
M  V30 6261 O 854.666 -8.10074 3.01034 0
M  V30 6262 C 856.94 -7.65514 3.2257 0
M  V30 6263 O 857.678 -8.4329 2.32297 0
M  V30 6264 C 856.271 -6.40075 2.62207 0
M  V30 6265 O 857.07 -5.92589 1.53712 0
M  V30 6266 C 854.934 -6.9454 2.18503 0
M  V30 6267 H 854.966 -7.23063 1.12091 0
M  V30 6268 H 856.149 -5.6025 3.37201 0
M  V30 6269 H 857.633 -7.35707 4.02681 0
M  V30 6270 H 855.939 -9.40912 3.9095 0
M  V30 6271 H 855.749 -8.29056 5.99158 0
M  V30 6272 H 854.119 -8.10073 5.25882 0
M  V30 6273 H 856.758 -6.30324 0.726794 0
M  V30 6274 P 858.616 -8.4349 2.47671 0
M  V30 6275 O 860.037 -8.94263 2.59668 0
M  V30 6276 O 858.256 -7.1704 3.19006 0
M  V30 6277 O 858.293 -8.16596 0.923387 0
M  V30 6278 C 858.132 -9.38537 0.108869 0
M  V30 6279 C 858.673 -9.08175 -1.28353 0
M  V30 6280 O 857.618 -8.44131 -1.84692 0
M  V30 6281 C 859.891 -8.18386 -1.42505 0
M  V30 6282 O 860.629 -8.3501 -2.60497 0
M  V30 6283 C 859.223 -6.80225 -1.25468 0
M  V30 6284 O 860.021 -5.81716 -1.90454 0
M  V30 6285 C 857.885 -7.02416 -1.9168 0
M  V30 6286 N 856.842 -6.31033 -1.20314 0
M  V30 6287 C 857.011 -5.98817 0.0994088 0
M  V30 6288 N 855.984 -5.35403 0.621694 0
M  V30 6289 C 855.099 -5.25212 -0.43376 0
M  V30 6290 C 853.832 -4.64602 -0.519722 0
M  V30 6291 N 853.233 -4.01457 0.519136 0
M  V30 6292 N 853.267 -4.7568 -1.76013 0
M  V30 6293 C 853.869 -5.3653 -2.83017 0
M  V30 6294 N 855.046 -5.93676 -2.79782 0
M  V30 6295 C 855.621 -5.84061 -1.56249 0
M  V30 6296 H 857.917 -6.68789 -2.9658 0
M  V30 6297 H 859.1 -6.53498 -0.198729 0
M  V30 6298 H 860.583 -8.36622 -0.589963 0
M  V30 6299 H 858.889 -10.0273 -1.8081 0
M  V30 6300 H 858.699 -10.2138 0.558219 0
M  V30 6301 H 857.069 -9.6579 0.0444202 0
M  V30 6302 H 853.333 -5.37113 -3.77321 0
M  V30 6303 H 857.911 -6.23209 0.660562 0
M  V30 6304 H 852.303 -3.58834 0.394862 0
M  V30 6305 H 853.707 -3.96059 1.43048 0
M  V30 6306 H 859.709 -5.69466 -2.79593 0
M  V30 6307 P 861.566 -8.4349 -2.47671 0
M  V30 6308 O 862.988 -8.92593 -2.65 0
M  V30 6309 O 861.206 -7.7568 -1.19296 0
M  V30 6310 O 861.243 -7.36886 -3.63805 0
M  V30 6311 C 861.083 -7.95349 -4.982 0
M  V30 6312 C 861.623 -6.94612 -5.98974 0
M  V30 6313 O 860.567 -6.10347 -6.11815 0
M  V30 6314 C 862.841 -6.11426 -5.62335 0
M  V30 6315 O 863.579 -5.6162 -6.70584 0
M  V30 6316 C 862.172 -5.04409 -4.73308 0
M  V30 6317 O 862.971 -3.85992 -4.75183 0
M  V30 6318 C 860.835 -4.8728 -5.41006 0
M  V30 6319 H 860.867 -4.02333 -6.11157 0
M  V30 6320 H 862.05 -5.39466 -3.69543 0
M  V30 6321 H 863.534 -6.71916 -5.01943 0
M  V30 6322 H 861.84 -7.4649 -6.93477 0
M  V30 6323 H 861.65 -8.89416 -5.05237 0
M  V30 6324 H 860.02 -8.14876 -5.18409 0
M  V30 6325 H 862.659 -3.27957 -5.4317 0
M  V30 6326 P 864.517 -5.75688 -6.64379 0
M  V30 6327 O 865.938 -6.07692 -7.0558 0
M  V30 6328 O 864.157 -5.88047 -5.19722 0
M  V30 6329 O 864.194 -4.2322 -7.04443 0
M  V30 6330 C 864.033 -3.99785 -8.49201 0
M  V30 6331 C 864.574 -2.60516 -8.79425 0
M  V30 6332 O 863.519 -1.82663 -8.44573 0
M  V30 6333 C 865.792 -2.10343 -8.03628 0
M  V30 6334 O 866.53 -1.09919 -8.67766 0
M  V30 6335 C 865.124 -1.68446 -6.70876 0
M  V30 6336 O 865.922 -0.684109 -6.08265 0
M  V30 6337 C 863.786 -1.17436 -7.18567 0
M  V30 6338 N 862.743 -1.52699 -6.23988 0
M  V30 6339 C 862.912 -2.578 -5.40574 0
M  V30 6340 N 861.885 -2.78966 -4.61193 0
M  V30 6341 C 861 -1.78725 -4.95769 0
M  V30 6342 C 859.733 -1.45727 -4.44207 0
M  V30 6343 N 859.134 -2.13994 -3.43613 0
M  V30 6344 N 859.168 -0.374977 -5.05812 0
M  V30 6345 C 859.77 0.345585 -6.05615 0
M  V30 6346 N 860.947 0.0787651 -6.56253 0
M  V30 6347 C 861.522 -1.00499 -5.96189 0
M  V30 6348 H 863.818 -0.0804622 -7.31556 0
M  V30 6349 H 865.001 -2.53396 -6.02698 0
M  V30 6350 H 866.484 -2.93881 -7.85526 0
M  V30 6351 H 864.79 -2.52078 -9.87225 0
M  V30 6352 H 864.6 -4.75072 -9.05887 0
M  V30 6353 H 862.97 -4.05244 -8.76668 0
M  V30 6354 H 859.234 1.20098 -6.4532 0
M  V30 6355 H 863.812 -3.18977 -5.3945 0
M  V30 6356 H 858.204 -1.84983 -3.10004 0
M  V30 6357 H 859.608 -2.9465 -3.00843 0
M  V30 6358 H 865.61 0.177619 -6.34151 0
M  V30 6359 P 867.468 -1.25109 -8.70152 0
M  V30 6360 O 868.89 -1.29744 -9.22016 0
M  V30 6361 O 867.108 -2.13714 -7.55141 0
M  V30 6362 O 867.145 0.248149 -8.21425 0
M  V30 6363 C 866.985 1.22779 -9.30434 0
M  V30 6364 C 867.525 2.56293 -8.80664 0
M  V30 6365 O 866.469 3.02979 -8.09349 0
M  V30 6366 C 868.743 2.57523 -7.89775 0
M  V30 6367 O 869.481 3.7668 -7.89438 0
M  V30 6368 C 868.074 2.20997 -6.55446 0
M  V30 6369 O 868.873 2.71895 -5.48509 0
M  V30 6370 C 866.737 2.89693 -6.67988 0
M  V30 6371 H 866.769 3.88793 -6.19859 0
M  V30 6372 H 867.952 1.12046 -6.44229 0
M  V30 6373 H 869.436 1.7746 -8.19711 0
M  V30 6374 H 867.742 3.20706 -9.67112 0
M  V30 6375 H 867.552 0.901032 -10.1892 0
M  V30 6376 H 865.922 1.33049 -9.56592 0
M  V30 6377 H 868.561 3.57847 -5.23962 0
M  V30 6378 P 870.418 3.65191 -7.99657 0
M  V30 6379 O 871.84 3.89416 -8.45976 0
M  V30 6380 O 870.058 2.28472 -7.50807 0
M  V30 6381 O 870.095 4.64972 -6.77611 0
M  V30 6382 C 869.935 6.06319 -7.16352 0
M  V30 6383 C 870.475 6.91655 -6.02234 0
M  V30 6384 O 869.42 6.92449 -5.17064 0
M  V30 6385 C 871.693 6.43627 -5.25174 0
M  V30 6386 O 872.431 7.43686 -4.60469 0
M  V30 6387 C 871.025 5.40275 -4.31916 0
M  V30 6388 O 871.823 5.25193 -3.14386 0
M  V30 6389 C 869.687 6.04847 -4.05327 0
M  V30 6390 N 868.644 5.04166 -3.98114 0
M  V30 6391 C 868.706 3.96049 -4.75587 0
M  V30 6392 N 867.661 3.15559 -4.54006 0
M  V30 6393 C 866.927 3.78802 -3.62491 0
M  V30 6394 C 865.621 3.476 -3.10071 0
M  V30 6395 O 864.888 2.51136 -3.37021 0
M  V30 6396 N 865.191 4.39088 -2.19956 0
M  V30 6397 C 865.94 5.53215 -1.81733 0
M  V30 6398 N 865.343 6.31963 -0.860928 0
M  V30 6399 N 867.093 5.86688 -2.32562 0
M  V30 6400 C 867.55 4.97525 -3.23407 0
M  V30 6401 H 869.719 6.62195 -3.11261 0
M  V30 6402 H 870.902 4.42488 -4.8131 0
M  V30 6403 H 872.387 5.93051 -5.9305 0
M  V30 6404 H 870.692 7.92655 -6.402 0
M  V30 6405 H 870.502 6.26671 -8.0846 0
M  V30 6406 H 868.871 6.29101 -7.32804 0
M  V30 6407 H 864.295 4.25523 -1.77604 0
M  V30 6408 H 869.502 3.75576 -5.47333 0
M  V30 6409 H 864.432 6.04684 -0.468946 0
M  V30 6410 H 865.808 7.18054 -0.542422 0
M  V30 6411 H 871.512 5.84223 -2.47279 0
M  V30 6412 P 873.369 7.39546 -4.75277 0
M  V30 6413 O 874.791 7.84798 -5.01039 0
M  V30 6414 O 873.009 5.9812 -5.08098 0
M  V30 6415 O 873.046 7.57503 -3.1866 0
M  V30 6416 C 872.886 8.97357 -2.74833 0
M  V30 6417 C 873.426 9.07548 -1.32709 0
M  V30 6418 O 872.37 8.62072 -0.606159 0
M  V30 6419 C 874.644 8.25383 -0.938334 0
M  V30 6420 O 875.382 8.74577 0.146954 0
M  V30 6421 C 873.975 6.8802 -0.712559 0
M  V30 6422 O 874.774 6.1189 0.194655 0
M  V30 6423 C 872.638 7.27966 -0.139777 0
M  V30 6424 H 872.67 7.25354 0.961601 0
M  V30 6425 H 873.853 6.32557 -1.65702 0
M  V30 6426 H 875.337 8.19355 -1.79097 0
M  V30 6427 H 873.643 10.1294 -1.10029 0
M  V30 6428 H 873.453 9.64276 -3.41316 0
M  V30 6429 H 871.823 9.25417 -2.76357 0
M  V30 6430 H 874.462 6.25267 1.07847 0
M  V30 6431 P 876.319 8.791 6.62549e-12 0
M  V30 6432 O 877.741 9.31296 0.027939 0
M  V30 6433 O 875.959 7.77869 -1.04071 0
M  V30 6434 O 875.996 8.09533 1.41463 0
M  V30 6435 C 875.836 9.0349 2.53943 0
M  V30 6436 C 876.376 8.35135 3.78975 0
M  V30 6437 O 875.321 7.57992 4.15078 0
M  V30 6438 C 877.594 7.45087 3.67298 0
M  V30 6439 O 878.332 7.27796 4.85194 0
M  V30 6440 C 876.926 6.17323 3.12027 0
M  V30 6441 O 877.724 5.04149 3.47132 0
M  V30 6442 C 875.588 6.19961 3.81809 0
M  V30 6443 N 874.545 5.71575 2.93223 0
M  V30 6444 C 874.607 5.97133 1.62693 0
M  V30 6445 N 873.562 5.44066 0.984414 0
M  V30 6446 C 872.828 4.87093 1.93987 0
M  V30 6447 C 871.522 4.26449 1.8738 0
M  V30 6448 O 870.789 4.1089 0.884377 0
M  V30 6449 N 871.092 3.82483 3.08036 0
M  V30 6450 C 871.841 3.95124 4.27727 0
M  V30 6451 N 871.244 3.4084 5.39089 0
M  V30 6452 N 872.994 4.55264 4.3706 0
M  V30 6453 C 873.451 5.00861 3.18217 0
M  V30 6454 H 875.62 5.58218 4.73051 0
M  V30 6455 H 876.803 6.21631 2.02558 0
M  V30 6456 H 878.288 7.85819 2.93096 0
M  V30 6457 H 876.593 9.11627 4.55076 0
M  V30 6458 H 876.403 9.9573 2.34194 0
M  V30 6459 H 874.772 9.2792 2.67832 0
M  V30 6460 H 870.196 3.38323 3.1329 0
M  V30 6461 H 875.403 6.53891 1.14265 0
M  V30 6462 H 870.333 2.93852 5.30559 0
M  V30 6463 H 871.709 3.47631 6.30632 0
M  V30 6464 H 877.413 4.67628 4.28704 0
M  V30 6465 P 879.27 7.39546 4.75277 0
M  V30 6466 O 880.692 7.81777 5.05738 0
M  V30 6467 O 878.91 7.1065 3.32998 0
M  V30 6468 O 878.947 6.04542 5.56673 0
M  V30 6469 C 878.787 6.22772 7.02095 0
M  V30 6470 C 879.327 4.97725 7.70406 0
M  V30 6471 O 878.271 4.13256 7.58987 0
M  V30 6472 C 880.545 4.28231 7.11815 0
M  V30 6473 O 881.283 3.49945 8.01648 0
M  V30 6474 C 879.876 3.5063 5.96244 0
M  V30 6475 O 880.675 2.36482 5.64681 0
M  V30 6476 C 878.539 3.15122 6.56374 0
M  V30 6477 H 878.571 2.13853 6.99751 0
M  V30 6478 H 879.754 4.13501 5.06559 0
M  V30 6479 H 881.238 5.03285 6.70911 0
M  V30 6480 H 879.544 5.20877 8.75697 0
M  V30 6481 H 879.354 7.11046 7.35349 0
M  V30 6482 H 877.724 6.35815 7.26986 0
M  V30 6483 H 880.363 1.61644 6.13565 0
M  V30 6484 P 882.22 3.65191 7.99657 0
M  V30 6485 O 883.642 3.8425 8.48115 0
M  V30 6486 O 881.86 4.17805 6.64342 0
M  V30 6487 O 881.897 2.07613 7.95143 0
M  V30 6488 C 881.737 1.44328 9.27336 0
M  V30 6489 C 882.277 0.0220036 9.17197 0
M  V30 6490 O 881.221 -0.626867 8.61923 0
M  V30 6491 C 883.495 -0.24586 8.30336 0
M  V30 6492 O 884.233 -1.39011 8.63583 0
M  V30 6493 C 882.826 -0.273849 6.91158 0
M  V30 6494 O 883.625 -1.06348 6.02892 0
M  V30 6495 C 881.489 -0.897649 7.22545 0
M  V30 6496 H 881.521 -1.9841 7.04286 0
M  V30 6497 H 882.704 0.739928 6.497 0
M  V30 6498 H 884.188 0.60668 8.36503 0
M  V30 6499 H 882.494 -0.352479 10.1829 0
M  V30 6500 H 882.304 2.00611 10.0304 0
M  V30 6501 H 880.674 1.41843 9.55327 0
M  V30 6502 H 883.313 -1.95734 6.03555 0
M  V30 6503 P 885.171 -1.25109 8.70152 0
M  V30 6504 O 886.592 -1.35288 9.2132 0
M  V30 6505 O 884.811 -0.0769065 7.84762 0
M  V30 6506 O 884.848 -2.55232 7.81161 0
M  V30 6507 C 884.687 -3.79979 8.58246 0
M  V30 6508 C 885.228 -4.94023 7.72785 0
M  V30 6509 O 884.173 -5.18666 6.91125 0
M  V30 6510 C 886.446 -4.69597 6.85231 0
M  V30 6511 O 887.184 -5.83832 6.51337 0
M  V30 6512 C 885.778 -3.96706 5.66633 0
M  V30 6513 O 886.576 -4.14896 4.5003 0
M  V30 6514 C 884.44 -4.66153 5.59313 0
M  V30 6515 N 883.397 -3.71582 5.24027 0
M  V30 6516 C 883.566 -2.39715 5.48833 0
M  V30 6517 N 882.539 -1.65863 5.12845 0
M  V30 6518 C 881.654 -2.57637 4.5973 0
M  V30 6519 C 880.387 -2.40278 4.01027 0
M  V30 6520 N 879.788 -1.19549 3.86744 0
M  V30 6521 N 879.822 -3.57711 3.59575 0
M  V30 6522 C 880.424 -4.80324 3.70476 0
M  V30 6523 N 881.601 -5.01121 4.23801 0
M  V30 6524 C 882.176 -3.84757 4.66372 0
M  V30 6525 H 884.472 -5.47604 4.85148 0
M  V30 6526 H 885.655 -2.8955 5.86187 0
M  V30 6527 H 887.138 -4.0121 7.36511 0
M  V30 6528 H 885.444 -5.81019 8.37003 0
M  V30 6529 H 885.254 -3.73517 9.52265 0
M  V30 6530 H 883.624 -3.97163 8.80359 0
M  V30 6531 H 879.888 -5.66348 3.3183 0
M  V30 6532 H 884.466 -1.98804 5.94332 0
M  V30 6533 H 878.858 -1.13147 3.4281 0
M  V30 6534 H 880.262 -0.344074 4.19692 0
M  V30 6535 H 886.264 -4.90891 4.01857 0
M  V30 6536 P 888.122 -5.75688 6.64379 0
M  V30 6537 O 889.544 -6.11849 7.01846 0
M  V30 6538 O 887.762 -4.30744 6.56026 0
M  V30 6539 O 887.799 -6.37042 5.19165 0
M  V30 6540 C 887.639 -7.83578 5.16515 0
M  V30 6541 C 888.179 -8.33398 3.83019 0
M  V30 6542 O 887.123 -8.10074 3.01034 0
M  V30 6543 C 889.397 -7.65514 3.2257 0
M  V30 6544 O 890.135 -8.4329 2.32297 0
M  V30 6545 C 888.728 -6.40075 2.62207 0
M  V30 6546 O 889.527 -5.92589 1.53712 0
M  V30 6547 C 887.391 -6.9454 2.18503 0
M  V30 6548 H 887.423 -7.23063 1.12091 0
M  V30 6549 H 888.606 -5.6025 3.37201 0
M  V30 6550 H 890.09 -7.35707 4.02681 0
M  V30 6551 H 888.396 -9.40912 3.9095 0
M  V30 6552 H 888.206 -8.29056 5.99158 0
M  V30 6553 H 886.576 -8.10073 5.25882 0
M  V30 6554 H 889.215 -6.30324 0.726794 0
M  V30 6555 P 891.072 -8.4349 2.47671 0
M  V30 6556 O 892.493 -8.94263 2.59668 0
M  V30 6557 O 890.712 -7.1704 3.19006 0
M  V30 6558 O 890.749 -8.16596 0.923387 0
M  V30 6559 C 890.588 -9.38537 0.108869 0
M  V30 6560 C 891.129 -9.08175 -1.28353 0
M  V30 6561 O 890.074 -8.44131 -1.84692 0
M  V30 6562 C 892.347 -8.18386 -1.42505 0
M  V30 6563 O 893.085 -8.3501 -2.60497 0
M  V30 6564 C 891.679 -6.80225 -1.25468 0
M  V30 6565 O 892.477 -5.81716 -1.90454 0
M  V30 6566 C 890.341 -7.02416 -1.9168 0
M  V30 6567 N 889.298 -6.31033 -1.20314 0
M  V30 6568 C 889.467 -5.98817 0.0994088 0
M  V30 6569 N 888.44 -5.35403 0.621694 0
M  V30 6570 C 887.555 -5.25212 -0.43376 0
M  V30 6571 C 886.288 -4.64602 -0.519722 0
M  V30 6572 N 885.723 -4.7568 -1.76013 0
M  V30 6573 C 886.325 -5.3653 -2.83017 0
M  V30 6574 N 887.502 -5.93676 -2.79782 0
M  V30 6575 C 888.077 -5.84061 -1.56249 0
M  V30 6576 H 891.556 -6.53498 -0.198729 0
M  V30 6577 H 893.039 -8.36622 -0.589963 0
M  V30 6578 H 891.345 -10.0273 -1.8081 0
M  V30 6579 H 891.155 -10.2138 0.558219 0
M  V30 6580 H 889.525 -9.6579 0.0444202 0
M  V30 6581 H 890.367 -6.23209 0.660562 0
M  V30 6582 H 892.165 -5.69466 -2.79593 0
M  V30 6583 P 894.023 -8.4349 -2.47671 0
M  V30 6584 O 895.445 -8.92593 -2.65 0
M  V30 6585 O 893.663 -7.7568 -1.19296 0
M  V30 6586 O 893.7 -7.36886 -3.63805 0
M  V30 6587 C 893.54 -7.95349 -4.982 0
M  V30 6588 C 894.08 -6.94612 -5.98974 0
M  V30 6589 O 893.024 -6.10347 -6.11815 0
M  V30 6590 C 895.298 -6.11426 -5.62335 0
M  V30 6591 O 896.036 -5.6162 -6.70584 0
M  V30 6592 C 894.629 -5.04409 -4.73308 0
M  V30 6593 O 895.428 -3.85992 -4.75183 0
M  V30 6594 C 893.292 -4.8728 -5.41006 0
M  V30 6595 H 893.324 -4.02333 -6.11157 0
M  V30 6596 H 894.507 -5.39466 -3.69543 0
M  V30 6597 H 895.991 -6.71916 -5.01943 0
M  V30 6598 H 894.297 -7.4649 -6.93477 0
M  V30 6599 H 894.107 -8.89416 -5.05237 0
M  V30 6600 H 892.477 -8.14876 -5.18409 0
M  V30 6601 H 895.116 -3.27957 -5.4317 0
M  V30 6602 P 896.973 -5.75688 -6.64379 0
M  V30 6603 O 898.395 -6.07627 -7.05504 0
M  V30 6604 O 896.613 -5.88047 -5.19722 0
M  V30 6605 O 896.65 -4.2322 -7.04443 0
M  V30 6606 C 896.49 -3.99743 -8.4911 0
M  V30 6607 C 897.03 -2.60516 -8.79425 0
M  V30 6608 O 895.974 -1.82684 -8.4467 0
M  V30 6609 C 898.248 -2.10343 -8.03628 0
M  V30 6610 O 898.986 -1.09919 -8.67766 0
M  V30 6611 C 897.579 -1.68446 -6.70876 0
M  V30 6612 O 898.378 -0.678137 -6.08433 0
M  V30 6613 C 896.242 -1.17436 -7.18567 0
M  V30 6614 H 896.274 -0.0804732 -7.31656 0
M  V30 6615 H 897.457 -2.54037 -6.02537 0
M  V30 6616 H 898.941 -2.93881 -7.85526 0
M  V30 6617 H 897.247 -2.53065 -9.86973 0
M  V30 6618 H 897.057 -4.75072 -9.05887 0
M  V30 6619 H 895.427 -4.05244 -8.76668 0
M  V30 6620 H 898.066 0.177647 -6.34251 0
M  V30 6621 P 899.924 -1.25109 -8.70152 0
M  V30 6622 O 901.346 -1.29744 -9.22016 0
M  V30 6623 O 899.564 -2.13714 -7.55141 0
M  V30 6624 O 899.601 0.248149 -8.21425 0
M  V30 6625 C 899.441 1.22779 -9.30434 0
M  V30 6626 C 899.981 2.56293 -8.80664 0
M  V30 6627 O 898.925 3.02979 -8.09349 0
M  V30 6628 C 901.199 2.57523 -7.89775 0
M  V30 6629 O 901.937 3.7668 -7.89438 0
M  V30 6630 C 900.53 2.20997 -6.55446 0
M  V30 6631 O 901.329 2.71895 -5.48509 0
M  V30 6632 C 899.193 2.89693 -6.67988 0
M  V30 6633 H 899.225 3.88793 -6.19859 0
M  V30 6634 H 900.408 1.12046 -6.44229 0
M  V30 6635 H 901.892 1.7746 -8.19711 0
M  V30 6636 H 900.198 3.20706 -9.67112 0
M  V30 6637 H 900.008 0.901032 -10.1892 0
M  V30 6638 H 898.378 1.33049 -9.56592 0
M  V30 6639 H 901.017 3.57847 -5.23962 0
M  V30 6640 P 902.874 3.65191 -7.99657 0
M  V30 6641 O 904.296 3.89332 -8.45794 0
M  V30 6642 O 902.514 2.28472 -7.50807 0
M  V30 6643 O 902.551 4.64972 -6.77611 0
M  V30 6644 C 902.391 6.06319 -7.16352 0
M  V30 6645 C 902.931 6.91731 -6.02299 0
M  V30 6646 O 901.875 6.92449 -5.17064 0
M  V30 6647 C 904.149 6.43627 -5.25174 0
M  V30 6648 O 904.887 7.43686 -4.60469 0
M  V30 6649 C 903.48 5.40275 -4.31916 0
M  V30 6650 O 904.279 5.25279 -3.14438 0
M  V30 6651 C 902.143 6.04847 -4.05327 0
M  V30 6652 H 902.175 6.62195 -3.11261 0
M  V30 6653 H 903.358 4.42556 -4.81383 0
M  V30 6654 H 904.842 5.92458 -5.93643 0
M  V30 6655 H 903.148 7.92655 -6.402 0
M  V30 6656 H 902.958 6.26671 -8.0846 0
M  V30 6657 H 901.328 6.29101 -7.32804 0
M  V30 6658 H 903.967 5.84315 -2.47318 0
M  V30 6659 P 905.825 7.39546 -4.75277 0
M  V30 6660 O 907.247 7.84798 -5.01039 0
M  V30 6661 O 905.465 5.9812 -5.08098 0
M  V30 6662 O 905.502 7.57503 -3.1866 0
M  V30 6663 C 905.342 8.97357 -2.74833 0
M  V30 6664 C 905.882 9.07548 -1.32709 0
M  V30 6665 O 904.826 8.62072 -0.606159 0
M  V30 6666 C 907.1 8.25383 -0.938334 0
M  V30 6667 O 907.838 8.74577 0.146954 0
M  V30 6668 C 906.431 6.8802 -0.712559 0
M  V30 6669 O 907.23 6.1189 0.194655 0
M  V30 6670 C 905.094 7.27966 -0.139777 0
M  V30 6671 H 905.126 7.25354 0.961601 0
M  V30 6672 H 906.309 6.32557 -1.65702 0
M  V30 6673 H 907.793 8.19355 -1.79097 0
M  V30 6674 H 906.099 10.1294 -1.10029 0
M  V30 6675 H 905.909 9.64276 -3.41316 0
M  V30 6676 H 904.279 9.25417 -2.76357 0
M  V30 6677 H 906.918 6.25267 1.07847 0
M  V30 6678 P 908.776 8.791 6.93566e-12 0
M  V30 6679 O 910.198 9.31096 0.027933 0
M  V30 6680 O 908.416 7.77869 -1.04071 0
M  V30 6681 O 908.453 8.09533 1.41463 0
M  V30 6682 C 908.293 9.0349 2.53943 0
M  V30 6683 C 908.833 8.35226 3.79016 0
M  V30 6684 O 907.777 7.57992 4.15078 0
M  V30 6685 C 910.051 7.45087 3.67298 0
M  V30 6686 O 910.789 7.27796 4.85194 0
M  V30 6687 C 909.382 6.17323 3.12027 0
M  V30 6688 O 910.181 5.04231 3.47188 0
M  V30 6689 C 908.045 6.19961 3.81809 0
M  V30 6690 H 908.077 5.58218 4.73051 0
M  V30 6691 H 909.26 6.21726 2.02589 0
M  V30 6692 H 910.744 7.86112 2.9231 0
M  V30 6693 H 909.05 9.11627 4.55076 0
M  V30 6694 H 908.86 9.9573 2.34194 0
M  V30 6695 H 907.23 9.2792 2.67832 0
M  V30 6696 H 909.869 4.67702 4.28772 0
M  V30 6697 P 911.726 7.39546 4.75277 0
M  V30 6698 O 913.148 7.81777 5.05738 0
M  V30 6699 O 911.366 7.1065 3.32998 0
M  V30 6700 O 911.403 6.04542 5.56673 0
M  V30 6701 C 911.243 6.22772 7.02095 0
M  V30 6702 C 911.783 4.97725 7.70406 0
M  V30 6703 O 910.727 4.13256 7.58987 0
M  V30 6704 C 913.001 4.28231 7.11815 0
M  V30 6705 O 913.739 3.49945 8.01648 0
M  V30 6706 C 912.332 3.5063 5.96244 0
M  V30 6707 O 913.131 2.36482 5.64681 0
M  V30 6708 C 910.995 3.15122 6.56374 0
M  V30 6709 H 911.027 2.13853 6.99751 0
M  V30 6710 H 912.21 4.13501 5.06559 0
M  V30 6711 H 913.694 5.03285 6.70911 0
M  V30 6712 H 912 5.20877 8.75697 0
M  V30 6713 H 911.81 7.11046 7.35349 0
M  V30 6714 H 910.18 6.35815 7.26986 0
M  V30 6715 H 912.819 1.61644 6.13565 0
M  V30 6716 P 914.677 3.65191 7.99657 0
M  V30 6717 O 916.098 3.84292 8.48206 0
M  V30 6718 O 914.317 4.17805 6.64342 0
M  V30 6719 O 914.354 2.07613 7.95143 0
M  V30 6720 C 914.193 1.44344 9.27435 0
M  V30 6721 C 914.734 0.0220036 9.17197 0
M  V30 6722 O 913.679 -0.626794 8.61824 0
M  V30 6723 C 915.952 -0.24586 8.30336 0
M  V30 6724 O 916.69 -1.39011 8.63583 0
M  V30 6725 C 915.284 -0.273849 6.91158 0
M  V30 6726 O 916.082 -1.05728 6.029 0
M  V30 6727 C 913.946 -0.897649 7.22545 0
M  V30 6728 N 912.903 -0.292839 6.41732 0
M  V30 6729 C 913.072 0.950603 5.91308 0
M  V30 6730 N 912.045 1.37732 5.21105 0
M  V30 6731 C 911.16 0.318109 5.26039 0
M  V30 6732 C 909.893 0.146766 4.6727 0
M  V30 6733 N 909.294 1.08519 3.89983 0
M  V30 6734 N 909.328 -1.06525 4.95887 0
M  V30 6735 C 909.93 -2.0378 5.71347 0
M  V30 6736 N 911.107 -1.92445 6.27451 0
M  V30 6737 C 911.682 -0.715382 6.00353 0
M  V30 6738 H 913.978 -1.98383 7.04189 0
M  V30 6739 H 915.161 0.733318 6.49674 0
M  V30 6740 H 916.644 0.60668 8.36503 0
M  V30 6741 H 914.95 -0.362662 10.1825 0
M  V30 6742 H 914.76 2.00611 10.0304 0
M  V30 6743 H 913.13 1.41843 9.55327 0
M  V30 6744 H 909.394 -2.97041 5.85344 0
M  V30 6745 H 913.972 1.54076 6.07465 0
M  V30 6746 H 908.364 0.901517 3.49562 0
M  V30 6747 H 909.768 1.97957 3.71669 0
M  V30 6748 H 915.77 -1.95704 6.0346 0
M  V30 6749 P 917.627 -1.25109 8.70152 0
M  V30 6750 O 919.049 -1.35274 9.21221 0
M  V30 6751 O 917.267 -0.0769065 7.84762 0
M  V30 6752 O 917.304 -2.55232 7.81161 0
M  V30 6753 C 917.144 -3.79939 8.58154 0
M  V30 6754 C 917.684 -4.94023 7.72785 0
M  V30 6755 O 916.628 -5.18726 6.91205 0
M  V30 6756 C 918.902 -4.69597 6.85231 0
M  V30 6757 O 919.64 -5.83832 6.51337 0
M  V30 6758 C 918.233 -3.96706 5.66633 0
M  V30 6759 O 919.032 -4.15414 4.49689 0
M  V30 6760 C 916.896 -4.66153 5.59313 0
M  V30 6761 H 916.928 -5.47679 4.85214 0
M  V30 6762 H 918.111 -2.89008 5.86566 0
M  V30 6763 H 919.595 -4.0121 7.36511 0
M  V30 6764 H 917.901 -5.80182 8.37584 0
M  V30 6765 H 917.711 -3.73517 9.52265 0
M  V30 6766 H 916.081 -3.97163 8.80359 0
M  V30 6767 H 918.72 -4.90969 4.01921 0
M  V30 6768 P 920.578 -5.75688 6.64379 0
M  V30 6769 O 922 -6.11849 7.01846 0
M  V30 6770 O 920.218 -4.30744 6.56026 0
M  V30 6771 O 920.255 -6.37042 5.19165 0
M  V30 6772 C 920.095 -7.83578 5.16515 0
M  V30 6773 C 920.635 -8.33398 3.83019 0
M  V30 6774 O 919.579 -8.10074 3.01034 0
M  V30 6775 C 921.853 -7.65514 3.2257 0
M  V30 6776 O 922.591 -8.4329 2.32297 0
M  V30 6777 C 921.184 -6.40075 2.62207 0
M  V30 6778 O 921.983 -5.92589 1.53712 0
M  V30 6779 C 919.847 -6.9454 2.18503 0
M  V30 6780 H 919.879 -7.23063 1.12091 0
M  V30 6781 H 921.062 -5.6025 3.37201 0
M  V30 6782 H 922.546 -7.35707 4.02681 0
M  V30 6783 H 920.852 -9.40912 3.9095 0
M  V30 6784 H 920.662 -8.29056 5.99158 0
M  V30 6785 H 919.032 -8.10073 5.25882 0
M  V30 6786 H 921.671 -6.30324 0.726794 0
M  V30 6787 P 923.528 -8.4349 2.47671 0
M  V30 6788 O 924.95 -8.94167 2.5964 0
M  V30 6789 O 923.168 -7.1704 3.19006 0
M  V30 6790 O 923.205 -8.16596 0.923387 0
M  V30 6791 C 923.045 -9.38437 0.108857 0
M  V30 6792 C 923.585 -9.08175 -1.28353 0
M  V30 6793 O 922.529 -8.44229 -1.84713 0
M  V30 6794 C 924.803 -8.18386 -1.42505 0
M  V30 6795 O 925.541 -8.3501 -2.60497 0
M  V30 6796 C 924.134 -6.80225 -1.25468 0
M  V30 6797 O 924.933 -5.81621 -1.91066 0
M  V30 6798 C 922.797 -7.02416 -1.9168 0
M  V30 6799 H 922.829 -6.6888 -2.96621 0
M  V30 6800 H 924.012 -6.53617 -0.192223 0
M  V30 6801 H 925.496 -8.36622 -0.589963 0
M  V30 6802 H 923.802 -10.0291 -1.79807 0
M  V30 6803 H 923.612 -10.2138 0.558219 0
M  V30 6804 H 921.982 -9.6579 0.0444202 0
M  V30 6805 H 924.621 -5.69556 -2.79637 0
M  V30 6806 P 926.479 -8.4349 -2.47671 0
M  V30 6807 O 927.901 -8.92593 -2.65 0
M  V30 6808 O 926.119 -7.7568 -1.19296 0
M  V30 6809 O 926.156 -7.36886 -3.63805 0
M  V30 6810 C 925.996 -7.95349 -4.982 0
M  V30 6811 C 926.536 -6.94612 -5.98974 0
M  V30 6812 O 925.48 -6.10347 -6.11815 0
M  V30 6813 C 927.754 -6.11426 -5.62335 0
M  V30 6814 O 928.492 -5.6162 -6.70584 0
M  V30 6815 C 927.085 -5.04409 -4.73308 0
M  V30 6816 O 927.884 -3.85992 -4.75183 0
M  V30 6817 C 925.748 -4.8728 -5.41006 0
M  V30 6818 H 925.78 -4.02333 -6.11157 0
M  V30 6819 H 926.963 -5.39466 -3.69543 0
M  V30 6820 H 928.447 -6.71916 -5.01943 0
M  V30 6821 H 926.753 -7.4649 -6.93477 0
M  V30 6822 H 926.563 -8.89416 -5.05237 0
M  V30 6823 H 924.933 -8.14876 -5.18409 0
M  V30 6824 H 927.572 -3.27957 -5.4317 0
M  V30 6825 P 929.43 -5.75688 -6.64379 0
M  V30 6826 O 930.852 -6.07627 -7.05504 0
M  V30 6827 O 929.07 -5.88047 -5.19722 0
M  V30 6828 O 929.107 -4.2322 -7.04443 0
M  V30 6829 C 928.947 -3.99743 -8.4911 0
M  V30 6830 C 929.487 -2.60516 -8.79425 0
M  V30 6831 O 928.431 -1.82684 -8.4467 0
M  V30 6832 C 930.705 -2.10343 -8.03628 0
M  V30 6833 O 931.443 -1.09919 -8.67766 0
M  V30 6834 C 930.036 -1.68446 -6.70876 0
M  V30 6835 O 930.835 -0.678137 -6.08433 0
M  V30 6836 C 928.699 -1.17436 -7.18567 0
M  V30 6837 H 928.731 -0.0804732 -7.31656 0
M  V30 6838 H 929.914 -2.54037 -6.02537 0
M  V30 6839 H 931.398 -2.93881 -7.85526 0
M  V30 6840 H 929.704 -2.53065 -9.86973 0
M  V30 6841 H 929.514 -4.75072 -9.05887 0
M  V30 6842 H 927.884 -4.05244 -8.76668 0
M  V30 6843 H 930.523 0.177647 -6.34251 0
M  V30 6844 P 932.38 -1.25109 -8.70152 0
M  V30 6845 O 933.802 -1.29744 -9.22016 0
M  V30 6846 O 932.02 -2.13714 -7.55141 0
M  V30 6847 O 932.057 0.248149 -8.21425 0
M  V30 6848 C 931.897 1.22779 -9.30434 0
M  V30 6849 C 932.437 2.56293 -8.80664 0
M  V30 6850 O 931.381 3.02979 -8.09349 0
M  V30 6851 C 933.655 2.57523 -7.89775 0
M  V30 6852 O 934.393 3.7668 -7.89438 0
M  V30 6853 C 932.986 2.20997 -6.55446 0
M  V30 6854 O 933.785 2.71895 -5.48509 0
M  V30 6855 C 931.649 2.89693 -6.67988 0
M  V30 6856 H 931.681 3.88793 -6.19859 0
M  V30 6857 H 932.864 1.12046 -6.44229 0
M  V30 6858 H 934.348 1.7746 -8.19711 0
M  V30 6859 H 932.654 3.20706 -9.67112 0
M  V30 6860 H 932.464 0.901032 -10.1892 0
M  V30 6861 H 930.834 1.33049 -9.56592 0
M  V30 6862 H 933.473 3.57847 -5.23962 0
M  V30 6863 P 935.331 3.65191 -7.99657 0
M  V30 6864 O 936.753 3.89332 -8.45794 0
M  V30 6865 O 934.971 2.28472 -7.50807 0
M  V30 6866 O 935.008 4.64972 -6.77611 0
M  V30 6867 C 934.848 6.06319 -7.16352 0
M  V30 6868 C 935.388 6.91731 -6.02299 0
M  V30 6869 O 934.332 6.92449 -5.17064 0
M  V30 6870 C 936.606 6.43627 -5.25174 0
M  V30 6871 O 937.344 7.43686 -4.60469 0
M  V30 6872 C 935.937 5.40275 -4.31916 0
M  V30 6873 O 936.736 5.25279 -3.14438 0
M  V30 6874 C 934.6 6.04847 -4.05327 0
M  V30 6875 H 934.632 6.62195 -3.11261 0
M  V30 6876 H 935.815 4.42556 -4.81383 0
M  V30 6877 H 937.299 5.92458 -5.93643 0
M  V30 6878 H 935.605 7.92655 -6.402 0
M  V30 6879 H 935.415 6.26671 -8.0846 0
M  V30 6880 H 933.785 6.29101 -7.32804 0
M  V30 6881 H 936.424 5.84315 -2.47318 0
M  V30 6882 P 938.281 7.39546 -4.75277 0
M  V30 6883 O 939.703 7.84798 -5.01039 0
M  V30 6884 O 937.921 5.9812 -5.08098 0
M  V30 6885 O 937.958 7.57503 -3.1866 0
M  V30 6886 C 937.798 8.97357 -2.74833 0
M  V30 6887 C 938.338 9.07548 -1.32709 0
M  V30 6888 O 937.282 8.62072 -0.606159 0
M  V30 6889 C 939.556 8.25383 -0.938334 0
M  V30 6890 O 940.294 8.74577 0.146954 0
M  V30 6891 C 938.887 6.8802 -0.712559 0
M  V30 6892 O 939.686 6.1189 0.194655 0
M  V30 6893 C 937.55 7.27966 -0.139777 0
M  V30 6894 H 937.582 7.25354 0.961601 0
M  V30 6895 H 938.765 6.32557 -1.65702 0
M  V30 6896 H 940.249 8.19355 -1.79097 0
M  V30 6897 H 938.555 10.1294 -1.10029 0
M  V30 6898 H 938.365 9.64276 -3.41316 0
M  V30 6899 H 936.735 9.25417 -2.76357 0
M  V30 6900 H 939.374 6.25267 1.07847 0
M  V30 6901 P 941.232 8.791 7.24582e-12 0
M  V30 6902 O 942.654 9.31096 0.027933 0
M  V30 6903 O 940.872 7.77869 -1.04071 0
M  V30 6904 O 940.909 8.09533 1.41463 0
M  V30 6905 C 940.749 9.0349 2.53943 0
M  V30 6906 C 941.289 8.35226 3.79016 0
M  V30 6907 O 940.233 7.57992 4.15078 0
M  V30 6908 C 942.507 7.45087 3.67298 0
M  V30 6909 O 943.245 7.27796 4.85194 0
M  V30 6910 C 941.838 6.17323 3.12027 0
M  V30 6911 O 942.637 5.04231 3.47188 0
M  V30 6912 C 940.501 6.19961 3.81809 0
M  V30 6913 H 940.533 5.58218 4.73051 0
M  V30 6914 H 941.716 6.21726 2.02589 0
M  V30 6915 H 943.2 7.86112 2.9231 0
M  V30 6916 H 941.506 9.11627 4.55076 0
M  V30 6917 H 941.316 9.9573 2.34194 0
M  V30 6918 H 939.686 9.2792 2.67832 0
M  V30 6919 H 942.325 4.67702 4.28772 0
M  V30 6920 P 944.182 7.39546 4.75277 0
M  V30 6921 O 945.604 7.81777 5.05738 0
M  V30 6922 O 943.822 7.1065 3.32998 0
M  V30 6923 O 943.859 6.04542 5.56673 0
M  V30 6924 C 943.699 6.22772 7.02095 0
M  V30 6925 C 944.239 4.97725 7.70406 0
M  V30 6926 O 943.183 4.13256 7.58987 0
M  V30 6927 C 945.457 4.28231 7.11815 0
M  V30 6928 O 946.195 3.49945 8.01648 0
M  V30 6929 C 944.788 3.5063 5.96244 0
M  V30 6930 O 945.587 2.36482 5.64681 0
M  V30 6931 C 943.451 3.15122 6.56374 0
M  V30 6932 H 943.483 2.13853 6.99751 0
M  V30 6933 H 944.666 4.13501 5.06559 0
M  V30 6934 H 946.15 5.03285 6.70911 0
M  V30 6935 H 944.456 5.20877 8.75697 0
M  V30 6936 H 944.266 7.11046 7.35349 0
M  V30 6937 H 942.636 6.35815 7.26986 0
M  V30 6938 H 945.275 1.61644 6.13565 0
M  V30 6939 P 947.133 3.65191 7.99657 0
M  V30 6940 O 948.555 3.84333 8.48297 0
M  V30 6941 O 946.773 4.17805 6.64342 0
M  V30 6942 O 946.81 2.07613 7.95143 0
M  V30 6943 C 946.65 1.44328 9.27336 0
M  V30 6944 C 947.19 0.0220012 9.17097 0
M  V30 6945 O 946.135 -0.626867 8.61923 0
M  V30 6946 C 948.408 -0.24586 8.30336 0
M  V30 6947 O 949.146 -1.39011 8.63583 0
M  V30 6948 C 947.74 -0.273849 6.91158 0
M  V30 6949 O 948.538 -1.06331 6.02794 0
M  V30 6950 C 946.402 -0.897649 7.22545 0
M  V30 6951 N 945.359 -0.292839 6.41732 0
M  V30 6952 C 945.421 1.00068 6.10757 0
M  V30 6953 N 944.376 1.36468 5.35794 0
M  V30 6954 C 943.642 0.258894 5.2366 0
M  V30 6955 C 942.336 0.0670682 4.65752 0
M  V30 6956 O 941.603 0.902443 4.10497 0
M  V30 6957 N 941.906 -1.2131 4.75881 0
M  V30 6958 C 942.655 -2.24934 5.37101 0
M  V30 6959 N 942.058 -3.48783 5.33984 0
M  V30 6960 N 943.808 -2.0844 5.95684 0
M  V30 6961 C 944.265 -0.81395 5.87791 0
M  V30 6962 H 946.434 -1.9841 7.04286 0
M  V30 6963 H 947.617 0.739815 6.49601 0
M  V30 6964 H 949.102 0.598315 8.36563 0
M  V30 6965 H 947.407 -0.352479 10.1829 0
M  V30 6966 H 947.217 2.00611 10.0304 0
M  V30 6967 H 945.586 1.41843 9.55327 0
M  V30 6968 H 941.01 -1.44434 4.37895 0
M  V30 6969 H 946.217 1.67697 6.42268 0
M  V30 6970 H 941.147 -3.60543 4.87699 0
M  V30 6971 H 942.523 -4.29232 5.7819 0
M  V30 6972 H 948.227 -1.95704 6.0346 0
M  V30 6973 P 950.084 -1.25109 8.70152 0
M  V30 6974 O 951.506 -1.35274 9.21221 0
M  V30 6975 O 949.724 -0.0769065 7.84762 0
M  V30 6976 O 949.761 -2.55232 7.81161 0
M  V30 6977 C 949.601 -3.79939 8.58154 0
M  V30 6978 C 950.141 -4.94023 7.72785 0
M  V30 6979 O 949.085 -5.18726 6.91205 0
M  V30 6980 C 951.359 -4.69597 6.85231 0
M  V30 6981 O 952.097 -5.83832 6.51337 0
M  V30 6982 C 950.69 -3.96706 5.66633 0
M  V30 6983 O 951.489 -4.15414 4.49689 0
M  V30 6984 C 949.353 -4.66153 5.59313 0
M  V30 6985 H 949.385 -5.47679 4.85214 0
M  V30 6986 H 950.568 -2.89008 5.86566 0
M  V30 6987 H 952.052 -4.0121 7.36511 0
M  V30 6988 H 950.358 -5.80182 8.37584 0
M  V30 6989 H 950.168 -3.73517 9.52265 0
M  V30 6990 H 948.538 -3.97163 8.80359 0
M  V30 6991 H 951.177 -4.90969 4.01921 0
M  V30 6992 P 953.034 -5.75688 6.64379 0
M  V30 6993 O 954.456 -6.11849 7.01846 0
M  V30 6994 O 952.674 -4.30744 6.56026 0
M  V30 6995 O 952.711 -6.37042 5.19165 0
M  V30 6996 C 952.551 -7.83578 5.16515 0
M  V30 6997 C 953.091 -8.33398 3.83019 0
M  V30 6998 O 952.035 -8.10074 3.01034 0
M  V30 6999 C 954.309 -7.65514 3.2257 0
M  V30 7000 O 955.047 -8.4329 2.32297 0
M  V30 7001 C 953.64 -6.40075 2.62207 0
M  V30 7002 O 954.439 -5.92589 1.53712 0
M  V30 7003 C 952.303 -6.9454 2.18503 0
M  V30 7004 H 952.335 -7.23063 1.12091 0
M  V30 7005 H 953.518 -5.6025 3.37201 0
M  V30 7006 H 955.002 -7.35707 4.02681 0
M  V30 7007 H 953.308 -9.40912 3.9095 0
M  V30 7008 H 953.118 -8.29056 5.99158 0
M  V30 7009 H 951.488 -8.10073 5.25882 0
M  V30 7010 H 954.127 -6.30324 0.726794 0
M  V30 7011 P 955.985 -8.4349 2.47671 0
M  V30 7012 O 957.407 -8.94167 2.5964 0
M  V30 7013 O 955.625 -7.1704 3.19006 0
M  V30 7014 O 955.662 -8.16596 0.923387 0
M  V30 7015 C 955.502 -9.38437 0.108857 0
M  V30 7016 C 956.042 -9.08175 -1.28353 0
M  V30 7017 O 954.986 -8.44229 -1.84713 0
M  V30 7018 C 957.26 -8.18386 -1.42505 0
M  V30 7019 O 957.998 -8.3501 -2.60497 0
M  V30 7020 C 956.591 -6.80225 -1.25468 0
M  V30 7021 O 957.39 -5.81621 -1.91066 0
M  V30 7022 C 955.254 -7.02416 -1.9168 0
M  V30 7023 H 955.286 -6.6888 -2.96621 0
M  V30 7024 H 956.469 -6.53617 -0.192223 0
M  V30 7025 H 957.953 -8.36622 -0.589963 0
M  V30 7026 H 956.259 -10.0291 -1.79807 0
M  V30 7027 H 956.069 -10.2138 0.558219 0
M  V30 7028 H 954.439 -9.6579 0.0444202 0
M  V30 7029 H 957.078 -5.69556 -2.79637 0
M  V30 7030 P 958.935 -8.4349 -2.47671 0
M  V30 7031 O 960.357 -8.92593 -2.65 0
M  V30 7032 O 958.575 -7.7568 -1.19296 0
M  V30 7033 O 958.612 -7.36886 -3.63805 0
M  V30 7034 C 958.452 -7.95349 -4.982 0
M  V30 7035 C 958.992 -6.94612 -5.98974 0
M  V30 7036 O 957.936 -6.10347 -6.11815 0
M  V30 7037 C 960.21 -6.11426 -5.62335 0
M  V30 7038 O 960.948 -5.6162 -6.70584 0
M  V30 7039 C 959.541 -5.04409 -4.73308 0
M  V30 7040 O 960.34 -3.85992 -4.75183 0
M  V30 7041 C 958.204 -4.8728 -5.41006 0
M  V30 7042 H 958.236 -4.02333 -6.11157 0
M  V30 7043 H 959.419 -5.39466 -3.69543 0
M  V30 7044 H 960.903 -6.71916 -5.01943 0
M  V30 7045 H 959.209 -7.4649 -6.93477 0
M  V30 7046 H 959.019 -8.89416 -5.05237 0
M  V30 7047 H 957.389 -8.14876 -5.18409 0
M  V30 7048 H 960.028 -3.27957 -5.4317 0
M  V30 7049 P 961.886 -5.75688 -6.64379 0
M  V30 7050 O 963.308 -6.07627 -7.05504 0
M  V30 7051 O 961.526 -5.88047 -5.19722 0
M  V30 7052 O 961.563 -4.2322 -7.04443 0
M  V30 7053 C 961.403 -3.99743 -8.4911 0
M  V30 7054 C 961.943 -2.60516 -8.79425 0
M  V30 7055 O 960.887 -1.82684 -8.4467 0
M  V30 7056 C 963.161 -2.10343 -8.03628 0
M  V30 7057 O 963.899 -1.09919 -8.67766 0
M  V30 7058 C 962.492 -1.68446 -6.70876 0
M  V30 7059 O 963.291 -0.678137 -6.08433 0
M  V30 7060 C 961.155 -1.17436 -7.18567 0
M  V30 7061 H 961.187 -0.0804732 -7.31656 0
M  V30 7062 H 962.37 -2.54037 -6.02537 0
M  V30 7063 H 963.854 -2.93881 -7.85526 0
M  V30 7064 H 962.16 -2.53065 -9.86973 0
M  V30 7065 H 961.97 -4.75072 -9.05887 0
M  V30 7066 H 960.34 -4.05244 -8.76668 0
M  V30 7067 H 962.979 0.177647 -6.34251 0
M  V30 7068 P 964.836 -1.25109 -8.70152 0
M  V30 7069 O 966.258 -1.29744 -9.22016 0
M  V30 7070 O 964.476 -2.13714 -7.55141 0
M  V30 7071 O 964.513 0.248149 -8.21425 0
M  V30 7072 C 964.353 1.22779 -9.30434 0
M  V30 7073 C 964.893 2.56293 -8.80664 0
M  V30 7074 O 963.837 3.02979 -8.09349 0
M  V30 7075 C 966.111 2.57523 -7.89775 0
M  V30 7076 O 966.849 3.7668 -7.89438 0
M  V30 7077 C 965.442 2.20997 -6.55446 0
M  V30 7078 O 966.241 2.71895 -5.48509 0
M  V30 7079 C 964.105 2.89693 -6.67988 0
M  V30 7080 H 964.137 3.88793 -6.19859 0
M  V30 7081 H 965.32 1.12046 -6.44229 0
M  V30 7082 H 966.804 1.7746 -8.19711 0
M  V30 7083 H 965.11 3.20706 -9.67112 0
M  V30 7084 H 964.92 0.901032 -10.1892 0
M  V30 7085 H 963.29 1.33049 -9.56592 0
M  V30 7086 H 965.929 3.57847 -5.23962 0
M  V30 7087 P 967.787 3.65191 -7.99657 0
M  V30 7088 O 969.188 3.87414 -8.52829 0
M  V30 7089 O 967.409 2.26932 -7.566 0
M  V30 7090 O 967.464 4.64915 -6.77529 0
M  V30 7091 C 967.304 6.06319 -7.16352 0
M  V30 7092 C 967.844 6.91655 -6.02234 0
M  V30 7093 O 966.788 6.92369 -5.17005 0
M  V30 7094 C 969.061 6.43627 -5.25174 0
M  V30 7095 O 969.8 7.43686 -4.60469 0
M  V30 7096 C 968.394 5.40275 -4.31916 0
M  V30 7097 O 969.192 5.25193 -3.14386 0
M  V30 7098 C 967.056 6.04847 -4.05327 0
M  V30 7099 N 966.013 5.04166 -3.98114 0
M  V30 7100 C 964.978 5.2366 -3.09923 0
M  V30 7101 O 965.017 6.23355 -2.34204 0
M  V30 7102 N 963.966 4.34279 -3.05727 0
M  V30 7103 C 964.014 3.26317 -3.84756 0
M  V30 7104 C 965.11 3.02504 -4.72573 0
M  V30 7105 C 966.076 3.94493 -4.76618 0
M  V30 7106 H 967.088 6.62104 -3.11218 0
M  V30 7107 H 968.271 4.42969 -4.80867 0
M  V30 7108 H 969.755 5.93122 -5.93121 0
M  V30 7109 H 968.061 7.93295 -6.39407 0
M  V30 7110 H 967.87 6.26671 -8.0846 0
M  V30 7111 H 966.24 6.29036 -7.32728 0
M  V30 7112 H 965.158 2.12921 -5.34017 0
M  V30 7113 H 966.922 3.80658 -5.44176 0
M  V30 7114 H 968.976 5.93572 -2.52637 0
M  V30 7115 P 970.738 7.39546 -4.75277 0
M  V30 7116 O 972.16 7.84966 -5.01146 0
M  V30 7117 O 970.378 5.9812 -5.08098 0
M  V30 7118 O 970.415 7.57503 -3.1866 0
M  V30 7119 C 970.255 8.97357 -2.74833 0
M  V30 7120 C 970.795 9.0745 -1.32694 0
M  V30 7121 O 969.74 8.62072 -0.606159 0
M  V30 7122 C 972.013 8.25383 -0.938334 0
M  V30 7123 O 972.751 8.74577 0.146954 0
M  V30 7124 C 971.345 6.8802 -0.712559 0
M  V30 7125 O 972.143 6.11791 0.194623 0
M  V30 7126 C 970.007 7.27966 -0.139777 0
M  V30 7127 N 968.964 6.39368 -0.623421 0
M  V30 7128 C 969.026 5.90299 -1.85969 0
M  V30 7129 N 967.981 5.10919 -2.1133 0
M  V30 7130 C 967.247 5.14646 -1.0015 0
M  V30 7131 C 965.941 4.60057 -0.729219 0
M  V30 7132 O 965.208 3.93476 -1.47746 0
M  V30 7133 N 965.511 4.88302 0.523505 0
M  V30 7134 C 966.26 5.63646 1.46207 0
M  V30 7135 N 965.663 5.78186 2.69239 0
M  V30 7136 N 967.413 6.19285 1.21544 0
M  V30 7137 C 967.87 5.93392 -0.0308487 0
M  V30 7138 H 970.039 7.25354 0.961601 0
M  V30 7139 H 971.222 6.3246 -1.65676 0
M  V30 7140 H 972.707 8.19533 -1.78278 0
M  V30 7141 H 971.012 10.1294 -1.10029 0
M  V30 7142 H 970.822 9.64276 -3.41316 0
M  V30 7143 H 969.191 9.25417 -2.76357 0
M  V30 7144 H 964.615 4.53993 0.806451 0
M  V30 7145 H 969.822 6.11865 -2.57394 0
M  V30 7146 H 964.752 5.34046 2.87467 0
M  V30 7147 H 966.128 6.33391 3.42578 0
M  V30 7148 H 971.832 6.25169 1.0783 0
M  V30 7149 P 973.688 8.791 7.55599e-12 0
M  V30 7150 O 975.11 9.31096 0.027933 0
M  V30 7151 O 973.328 7.77869 -1.04071 0
M  V30 7152 O 973.365 8.09533 1.41463 0
M  V30 7153 C 973.205 9.0349 2.53943 0
M  V30 7154 C 973.745 8.35226 3.79016 0
M  V30 7155 O 972.689 7.57992 4.15078 0
M  V30 7156 C 974.963 7.45087 3.67298 0
M  V30 7157 O 975.701 7.27796 4.85194 0
M  V30 7158 C 974.294 6.17323 3.12027 0
M  V30 7159 O 975.093 5.04231 3.47188 0
M  V30 7160 C 972.957 6.19961 3.81809 0
M  V30 7161 H 972.989 5.58218 4.73051 0
M  V30 7162 H 974.172 6.21726 2.02589 0
M  V30 7163 H 975.656 7.86112 2.9231 0
M  V30 7164 H 973.962 9.11627 4.55076 0
M  V30 7165 H 973.772 9.9573 2.34194 0
M  V30 7166 H 972.142 9.2792 2.67832 0
M  V30 7167 H 974.781 4.67702 4.28772 0
M  V30 7168 P 976.639 7.39546 4.75277 0
M  V30 7169 O 978.061 7.81777 5.05738 0
M  V30 7170 O 976.279 7.1065 3.32998 0
M  V30 7171 O 976.316 6.04542 5.56673 0
M  V30 7172 C 976.156 6.22772 7.02095 0
M  V30 7173 C 976.696 4.97725 7.70406 0
M  V30 7174 O 975.64 4.13256 7.58987 0
M  V30 7175 C 977.914 4.28231 7.11815 0
M  V30 7176 O 978.652 3.49945 8.01648 0
M  V30 7177 C 977.245 3.5063 5.96244 0
M  V30 7178 O 978.044 2.36482 5.64681 0
M  V30 7179 C 975.908 3.15122 6.56374 0
M  V30 7180 H 975.94 2.13853 6.99751 0
M  V30 7181 H 977.123 4.13501 5.06559 0
M  V30 7182 H 978.607 5.03285 6.70911 0
M  V30 7183 H 976.913 5.20877 8.75697 0
M  V30 7184 H 976.723 7.11046 7.35349 0
M  V30 7185 H 975.093 6.35815 7.26986 0
M  V30 7186 H 977.732 1.61644 6.13565 0
M  V30 7187 P 979.589 3.65191 7.99657 0
M  V30 7188 O 981.011 3.8425 8.48115 0
M  V30 7189 O 979.229 4.17805 6.64342 0
M  V30 7190 O 979.266 2.07613 7.95143 0
M  V30 7191 C 979.106 1.44328 9.27336 0
M  V30 7192 C 979.646 0.0220036 9.17197 0
M  V30 7193 O 978.59 -0.626867 8.61923 0
M  V30 7194 C 980.864 -0.24586 8.30336 0
M  V30 7195 O 981.602 -1.39011 8.63583 0
M  V30 7196 C 980.195 -0.273849 6.91158 0
M  V30 7197 O 980.994 -1.06348 6.02892 0
M  V30 7198 C 978.858 -0.897649 7.22545 0
M  V30 7199 H 978.89 -1.9841 7.04286 0
M  V30 7200 H 980.073 0.739928 6.497 0
M  V30 7201 H 981.557 0.60668 8.36503 0
M  V30 7202 H 979.863 -0.352479 10.1829 0
M  V30 7203 H 979.673 2.00611 10.0304 0
M  V30 7204 H 978.043 1.41843 9.55327 0
M  V30 7205 H 980.682 -1.95734 6.03555 0
M  V30 7206 P 982.54 -1.25109 8.70152 0
M  V30 7207 O 983.962 -1.35274 9.21221 0
M  V30 7208 O 982.18 -0.0769065 7.84762 0
M  V30 7209 O 982.217 -2.55232 7.81161 0
M  V30 7210 C 982.057 -3.79939 8.58154 0
M  V30 7211 C 982.597 -4.94023 7.72785 0
M  V30 7212 O 981.541 -5.18726 6.91205 0
M  V30 7213 C 983.815 -4.69597 6.85231 0
M  V30 7214 O 984.553 -5.83832 6.51337 0
M  V30 7215 C 983.146 -3.96706 5.66633 0
M  V30 7216 O 983.945 -4.15414 4.49689 0
M  V30 7217 C 981.809 -4.66153 5.59313 0
M  V30 7218 H 981.841 -5.47679 4.85214 0
M  V30 7219 H 983.024 -2.89008 5.86566 0
M  V30 7220 H 984.508 -4.0121 7.36511 0
M  V30 7221 H 982.814 -5.80182 8.37584 0
M  V30 7222 H 982.624 -3.73517 9.52265 0
M  V30 7223 H 980.994 -3.97163 8.80359 0
M  V30 7224 H 983.633 -4.90969 4.01921 0
M  V30 7225 P 985.49 -5.75688 6.64379 0
M  V30 7226 O 986.912 -6.11849 7.01846 0
M  V30 7227 O 985.13 -4.30744 6.56026 0
M  V30 7228 O 985.167 -6.37042 5.19165 0
M  V30 7229 C 985.007 -7.83578 5.16515 0
M  V30 7230 C 985.547 -8.33398 3.83019 0
M  V30 7231 O 984.491 -8.10074 3.01034 0
M  V30 7232 C 986.765 -7.65514 3.2257 0
M  V30 7233 O 987.503 -8.4329 2.32297 0
M  V30 7234 C 986.096 -6.40075 2.62207 0
M  V30 7235 O 986.895 -5.92589 1.53712 0
M  V30 7236 C 984.759 -6.9454 2.18503 0
M  V30 7237 H 984.791 -7.23063 1.12091 0
M  V30 7238 H 985.974 -5.6025 3.37201 0
M  V30 7239 H 987.458 -7.35707 4.02681 0
M  V30 7240 H 985.764 -9.40912 3.9095 0
M  V30 7241 H 985.574 -8.29056 5.99158 0
M  V30 7242 H 983.944 -8.10073 5.25882 0
M  V30 7243 H 986.583 -6.30324 0.726794 0
M  V30 7244 P 988.441 -8.4349 2.47671 0
M  V30 7245 O 989.863 -8.94167 2.5964 0
M  V30 7246 O 988.081 -7.1704 3.19006 0
M  V30 7247 O 988.118 -8.16596 0.923387 0
M  V30 7248 C 987.958 -9.38437 0.108857 0
M  V30 7249 C 988.498 -9.08175 -1.28353 0
M  V30 7250 O 987.442 -8.44229 -1.84713 0
M  V30 7251 C 989.716 -8.18386 -1.42505 0
M  V30 7252 O 990.454 -8.3501 -2.60497 0
M  V30 7253 C 989.047 -6.80225 -1.25468 0
M  V30 7254 O 989.846 -5.81621 -1.91066 0
M  V30 7255 C 987.71 -7.02416 -1.9168 0
M  V30 7256 H 987.742 -6.6888 -2.96621 0
M  V30 7257 H 988.925 -6.53617 -0.192223 0
M  V30 7258 H 990.409 -8.36622 -0.589963 0
M  V30 7259 H 988.715 -10.0291 -1.79807 0
M  V30 7260 H 988.525 -10.2138 0.558219 0
M  V30 7261 H 986.895 -9.6579 0.0444202 0
M  V30 7262 H 989.534 -5.69556 -2.79637 0
M  V30 7263 P 991.392 -8.4349 -2.47671 0
M  V30 7264 O 992.814 -8.92593 -2.65 0
M  V30 7265 O 991.032 -7.7568 -1.19296 0
M  V30 7266 O 991.069 -7.36886 -3.63805 0
M  V30 7267 C 990.909 -7.95349 -4.982 0
M  V30 7268 C 991.449 -6.94612 -5.98974 0
M  V30 7269 O 990.393 -6.10347 -6.11815 0
M  V30 7270 C 992.667 -6.11426 -5.62335 0
M  V30 7271 O 993.405 -5.6162 -6.70584 0
M  V30 7272 C 991.998 -5.04409 -4.73308 0
M  V30 7273 O 992.797 -3.85992 -4.75183 0
M  V30 7274 C 990.661 -4.8728 -5.41006 0
M  V30 7275 H 990.693 -4.02333 -6.11157 0
M  V30 7276 H 991.876 -5.39466 -3.69543 0
M  V30 7277 H 993.36 -6.71916 -5.01943 0
M  V30 7278 H 991.666 -7.4649 -6.93477 0
M  V30 7279 H 991.476 -8.89416 -5.05237 0
M  V30 7280 H 989.846 -8.14876 -5.18409 0
M  V30 7281 H 992.485 -3.27957 -5.4317 0
M  V30 7282 P 994.342 -5.75688 -6.64379 0
M  V30 7283 O 995.764 -6.07627 -7.05504 0
M  V30 7284 O 993.982 -5.88047 -5.19722 0
M  V30 7285 O 994.019 -4.2322 -7.04443 0
M  V30 7286 C 993.859 -3.99743 -8.4911 0
M  V30 7287 C 994.399 -2.60516 -8.79425 0
M  V30 7288 O 993.343 -1.82684 -8.4467 0
M  V30 7289 C 995.617 -2.10343 -8.03628 0
M  V30 7290 O 996.355 -1.09919 -8.67766 0
M  V30 7291 C 994.948 -1.68446 -6.70876 0
M  V30 7292 O 995.747 -0.678137 -6.08433 0
M  V30 7293 C 993.611 -1.17436 -7.18567 0
M  V30 7294 H 993.643 -0.0804732 -7.31656 0
M  V30 7295 H 994.826 -2.54037 -6.02537 0
M  V30 7296 H 996.31 -2.93881 -7.85526 0
M  V30 7297 H 994.616 -2.53065 -9.86973 0
M  V30 7298 H 994.426 -4.75072 -9.05887 0
M  V30 7299 H 992.796 -4.05244 -8.76668 0
M  V30 7300 H 995.435 0.177647 -6.34251 0
M  V30 7301 P 997.293 -1.25109 -8.70152 0
M  V30 7302 O 998.715 -1.29744 -9.22016 0
M  V30 7303 O 996.933 -2.13714 -7.55141 0
M  V30 7304 O 996.97 0.248149 -8.21425 0
M  V30 7305 C 996.81 1.22779 -9.30434 0
M  V30 7306 C 997.35 2.56293 -8.80664 0
M  V30 7307 O 996.294 3.02979 -8.09349 0
M  V30 7308 C 998.568 2.57523 -7.89775 0
M  V30 7309 O 999.306 3.7668 -7.89438 0
M  V30 7310 C 997.899 2.20997 -6.55446 0
M  V30 7311 O 998.698 2.71895 -5.48509 0
M  V30 7312 C 996.562 2.89693 -6.67988 0
M  V30 7313 H 996.594 3.88793 -6.19859 0
M  V30 7314 H 997.777 1.12046 -6.44229 0
M  V30 7315 H 999.261 1.7746 -8.19711 0
M  V30 7316 H 997.567 3.20706 -9.67112 0
M  V30 7317 H 997.377 0.901032 -10.1892 0
M  V30 7318 H 995.747 1.33049 -9.56592 0
M  V30 7319 H 998.386 3.57847 -5.23962 0
M  V30 7320 P 1000.24 3.65191 -7.99657 0
M  V30 7321 O 1001.67 3.89332 -8.45794 0
M  V30 7322 O 999.883 2.28472 -7.50807 0
M  V30 7323 O 999.92 4.64972 -6.77611 0
M  V30 7324 C 999.76 6.06319 -7.16352 0
M  V30 7325 C 1000.3 6.91731 -6.02299 0
M  V30 7326 O 999.244 6.92449 -5.17064 0
M  V30 7327 C 1001.52 6.43627 -5.25174 0
M  V30 7328 O 1002.26 7.43686 -4.60469 0
M  V30 7329 C 1000.85 5.40275 -4.31916 0
M  V30 7330 O 1001.65 5.25279 -3.14438 0
M  V30 7331 C 999.512 6.04847 -4.05327 0
M  V30 7332 H 999.544 6.62195 -3.11261 0
M  V30 7333 H 1000.73 4.42556 -4.81383 0
M  V30 7334 H 1002.21 5.92458 -5.93643 0
M  V30 7335 H 1000.52 7.92655 -6.402 0
M  V30 7336 H 1000.33 6.26671 -8.0846 0
M  V30 7337 H 998.697 6.29101 -7.32804 0
M  V30 7338 H 1001.34 5.84315 -2.47318 0
M  V30 7339 P 1003.19 7.39546 -4.75277 0
M  V30 7340 O 1004.62 7.84798 -5.01039 0
M  V30 7341 O 1002.83 5.9812 -5.08098 0
M  V30 7342 O 1002.87 7.57503 -3.1866 0
M  V30 7343 C 1002.71 8.97357 -2.74833 0
M  V30 7344 C 1003.25 9.07548 -1.32709 0
M  V30 7345 O 1002.19 8.62072 -0.606159 0
M  V30 7346 C 1004.47 8.25383 -0.938334 0
M  V30 7347 O 1005.21 8.74577 0.146954 0
M  V30 7348 C 1003.8 6.8802 -0.712559 0
M  V30 7349 O 1004.6 6.1189 0.194655 0
M  V30 7350 C 1002.46 7.27966 -0.139777 0
M  V30 7351 H 1002.49 7.25354 0.961601 0
M  V30 7352 H 1003.68 6.32557 -1.65702 0
M  V30 7353 H 1005.16 8.19355 -1.79097 0
M  V30 7354 H 1003.47 10.1294 -1.10029 0
M  V30 7355 H 1003.28 9.64276 -3.41316 0
M  V30 7356 H 1001.65 9.25417 -2.76357 0
M  V30 7357 H 1004.29 6.25267 1.07847 0
M  V30 7358 P 1006.14 8.791 7.86616e-12 0
M  V30 7359 O 1007.57 9.31096 0.027933 0
M  V30 7360 O 1005.78 7.77869 -1.04071 0
M  V30 7361 O 1005.82 8.09533 1.41463 0
M  V30 7362 C 1005.66 9.0349 2.53943 0
M  V30 7363 C 1006.2 8.35226 3.79016 0
M  V30 7364 O 1005.15 7.57992 4.15078 0
M  V30 7365 C 1007.42 7.45087 3.67298 0
M  V30 7366 O 1008.16 7.27796 4.85194 0
M  V30 7367 C 1006.75 6.17323 3.12027 0
M  V30 7368 O 1007.55 5.04231 3.47188 0
M  V30 7369 C 1005.41 6.19961 3.81809 0
M  V30 7370 H 1005.45 5.58218 4.73051 0
M  V30 7371 H 1006.63 6.21726 2.02589 0
M  V30 7372 H 1008.11 7.86112 2.9231 0
M  V30 7373 H 1006.42 9.11627 4.55076 0
M  V30 7374 H 1006.23 9.9573 2.34194 0
M  V30 7375 H 1004.6 9.2792 2.67832 0
M  V30 7376 H 1007.24 4.67702 4.28772 0
M  V30 7377 P 1009.09 7.39546 4.75277 0
M  V30 7378 O 1010.52 7.81777 5.05738 0
M  V30 7379 O 1008.73 7.1065 3.32998 0
M  V30 7380 O 1008.77 6.04542 5.56673 0
M  V30 7381 C 1008.61 6.22772 7.02095 0
M  V30 7382 C 1009.15 4.97725 7.70406 0
M  V30 7383 O 1008.1 4.13256 7.58987 0
M  V30 7384 C 1010.37 4.28231 7.11815 0
M  V30 7385 O 1011.11 3.49945 8.01648 0
M  V30 7386 C 1009.7 3.5063 5.96244 0
M  V30 7387 O 1010.5 2.36482 5.64681 0
M  V30 7388 C 1008.36 3.15122 6.56374 0
M  V30 7389 H 1008.4 2.13853 6.99751 0
M  V30 7390 H 1009.58 4.13501 5.06559 0
M  V30 7391 H 1011.06 5.03285 6.70911 0
M  V30 7392 H 1009.37 5.20877 8.75697 0
M  V30 7393 H 1009.18 7.11046 7.35349 0
M  V30 7394 H 1007.55 6.35815 7.26986 0
M  V30 7395 H 1010.19 1.61644 6.13565 0
M  V30 7396 P 1012.05 3.65191 7.99657 0
M  V30 7397 O 1013.47 3.84292 8.48206 0
M  V30 7398 O 1011.69 4.17805 6.64342 0
M  V30 7399 O 1011.72 2.07613 7.95143 0
M  V30 7400 C 1011.56 1.44344 9.27435 0
M  V30 7401 C 1012.1 0.0220036 9.17197 0
M  V30 7402 O 1011.05 -0.626794 8.61824 0
M  V30 7403 C 1013.32 -0.24586 8.30336 0
M  V30 7404 O 1014.06 -1.39011 8.63583 0
M  V30 7405 C 1012.65 -0.273849 6.91158 0
M  V30 7406 O 1013.45 -1.05728 6.029 0
M  V30 7407 C 1011.31 -0.897649 7.22545 0
M  V30 7408 N 1010.27 -0.292839 6.41732 0
M  V30 7409 C 1010.44 0.950603 5.91308 0
M  V30 7410 N 1009.41 1.37732 5.21105 0
M  V30 7411 C 1008.53 0.318109 5.26039 0
M  V30 7412 C 1007.26 0.146766 4.6727 0
M  V30 7413 N 1006.66 1.08519 3.89983 0
M  V30 7414 N 1006.7 -1.06525 4.95887 0
M  V30 7415 C 1007.3 -2.0378 5.71347 0
M  V30 7416 N 1008.48 -1.92445 6.27451 0
M  V30 7417 C 1009.05 -0.715382 6.00353 0
M  V30 7418 H 1011.35 -1.98383 7.04189 0
M  V30 7419 H 1012.53 0.733318 6.49674 0
M  V30 7420 H 1014.01 0.60668 8.36503 0
M  V30 7421 H 1012.32 -0.362662 10.1825 0
M  V30 7422 H 1012.13 2.00611 10.0304 0
M  V30 7423 H 1010.5 1.41843 9.55327 0
M  V30 7424 H 1006.76 -2.97041 5.85344 0
M  V30 7425 H 1011.34 1.54076 6.07465 0
M  V30 7426 H 1005.73 0.901517 3.49562 0
M  V30 7427 H 1007.14 1.97957 3.71669 0
M  V30 7428 H 1013.14 -1.95704 6.0346 0
M  V30 7429 P 1015 -1.25109 8.70152 0
M  V30 7430 O 1016.42 -1.35288 9.2132 0
M  V30 7431 O 1014.64 -0.0769065 7.84762 0
M  V30 7432 O 1014.67 -2.55232 7.81161 0
M  V30 7433 C 1014.51 -3.79979 8.58246 0
M  V30 7434 C 1015.05 -4.94023 7.72785 0
M  V30 7435 O 1014 -5.18666 6.91125 0
M  V30 7436 C 1016.27 -4.69597 6.85231 0
M  V30 7437 O 1017.01 -5.83832 6.51337 0
M  V30 7438 C 1015.6 -3.96706 5.66633 0
M  V30 7439 O 1016.4 -4.14896 4.5003 0
M  V30 7440 C 1014.27 -4.66153 5.59313 0
M  V30 7441 N 1013.22 -3.71582 5.24027 0
M  V30 7442 C 1013.39 -2.39715 5.48833 0
M  V30 7443 N 1012.36 -1.65863 5.12845 0
M  V30 7444 C 1011.48 -2.57637 4.5973 0
M  V30 7445 C 1010.21 -2.40278 4.01027 0
M  V30 7446 N 1009.61 -1.19549 3.86744 0
M  V30 7447 N 1009.65 -3.57711 3.59575 0
M  V30 7448 C 1010.25 -4.80324 3.70476 0
M  V30 7449 N 1011.43 -5.01121 4.23801 0
M  V30 7450 C 1012 -3.84757 4.66372 0
M  V30 7451 H 1014.3 -5.47604 4.85148 0
M  V30 7452 H 1015.48 -2.8955 5.86187 0
M  V30 7453 H 1016.96 -4.0121 7.36511 0
M  V30 7454 H 1015.27 -5.81019 8.37003 0
M  V30 7455 H 1015.08 -3.73517 9.52265 0
M  V30 7456 H 1013.45 -3.97163 8.80359 0
M  V30 7457 H 1009.71 -5.66348 3.3183 0
M  V30 7458 H 1014.29 -1.98804 5.94332 0
M  V30 7459 H 1008.68 -1.13147 3.4281 0
M  V30 7460 H 1010.09 -0.344074 4.19692 0
M  V30 7461 H 1016.09 -4.90891 4.01857 0
M  V30 7462 P 1017.95 -5.75688 6.64379 0
M  V30 7463 O 1019.37 -6.11849 7.01846 0
M  V30 7464 O 1017.59 -4.30744 6.56026 0
M  V30 7465 O 1017.62 -6.37042 5.19165 0
M  V30 7466 C 1017.46 -7.83578 5.16515 0
M  V30 7467 C 1018 -8.33398 3.83019 0
M  V30 7468 O 1016.95 -8.10074 3.01034 0
M  V30 7469 C 1019.22 -7.65514 3.2257 0
M  V30 7470 O 1019.96 -8.4329 2.32297 0
M  V30 7471 C 1018.55 -6.40075 2.62207 0
M  V30 7472 O 1019.35 -5.92589 1.53712 0
M  V30 7473 C 1017.22 -6.9454 2.18503 0
M  V30 7474 H 1017.25 -7.23063 1.12091 0
M  V30 7475 H 1018.43 -5.6025 3.37201 0
M  V30 7476 H 1019.91 -7.35707 4.02681 0
M  V30 7477 H 1018.22 -9.40912 3.9095 0
M  V30 7478 H 1018.03 -8.29056 5.99158 0
M  V30 7479 H 1016.4 -8.10073 5.25882 0
M  V30 7480 H 1019.04 -6.30324 0.726794 0
M  V30 7481 P 1020.9 -8.4349 2.47671 0
M  V30 7482 O 1022.32 -8.94167 2.5964 0
M  V30 7483 O 1020.54 -7.1704 3.19006 0
M  V30 7484 O 1020.57 -8.16596 0.923387 0
M  V30 7485 C 1020.41 -9.38437 0.108857 0
M  V30 7486 C 1020.95 -9.08175 -1.28353 0
M  V30 7487 O 1019.9 -8.44229 -1.84713 0
M  V30 7488 C 1022.17 -8.18386 -1.42505 0
M  V30 7489 O 1022.91 -8.3501 -2.60497 0
M  V30 7490 C 1021.5 -6.80225 -1.25468 0
M  V30 7491 O 1022.3 -5.81621 -1.91066 0
M  V30 7492 C 1020.17 -7.02416 -1.9168 0
M  V30 7493 H 1020.2 -6.6888 -2.96621 0
M  V30 7494 H 1021.38 -6.53617 -0.192223 0
M  V30 7495 H 1022.87 -8.36622 -0.589963 0
M  V30 7496 H 1021.17 -10.0291 -1.79807 0
M  V30 7497 H 1020.98 -10.2138 0.558219 0
M  V30 7498 H 1019.35 -9.6579 0.0444202 0
M  V30 7499 H 1021.99 -5.69556 -2.79637 0
M  V30 7500 P 1023.85 -8.4349 -2.47671 0
M  V30 7501 O 1025.27 -8.92593 -2.65 0
M  V30 7502 O 1023.49 -7.7568 -1.19296 0
M  V30 7503 O 1023.52 -7.36886 -3.63805 0
M  V30 7504 C 1023.36 -7.95349 -4.982 0
M  V30 7505 C 1023.9 -6.94612 -5.98974 0
M  V30 7506 O 1022.85 -6.10347 -6.11815 0
M  V30 7507 C 1025.12 -6.11426 -5.62335 0
M  V30 7508 O 1025.86 -5.6162 -6.70584 0
M  V30 7509 C 1024.45 -5.04409 -4.73308 0
M  V30 7510 O 1025.25 -3.85992 -4.75183 0
M  V30 7511 C 1023.12 -4.8728 -5.41006 0
M  V30 7512 H 1023.15 -4.02333 -6.11157 0
M  V30 7513 H 1024.33 -5.39466 -3.69543 0
M  V30 7514 H 1025.82 -6.71916 -5.01943 0
M  V30 7515 H 1024.12 -7.4649 -6.93477 0
M  V30 7516 H 1023.93 -8.89416 -5.05237 0
M  V30 7517 H 1022.3 -8.14876 -5.18409 0
M  V30 7518 H 1024.94 -3.27957 -5.4317 0
M  V30 7519 P 1026.8 -5.75688 -6.64379 0
M  V30 7520 O 1028.22 -6.07627 -7.05504 0
M  V30 7521 O 1026.44 -5.88047 -5.19722 0
M  V30 7522 O 1026.48 -4.2322 -7.04443 0
M  V30 7523 C 1026.32 -3.99743 -8.4911 0
M  V30 7524 C 1026.86 -2.60516 -8.79425 0
M  V30 7525 O 1025.8 -1.82684 -8.4467 0
M  V30 7526 C 1028.07 -2.10343 -8.03628 0
M  V30 7527 O 1028.81 -1.09919 -8.67766 0
M  V30 7528 C 1027.4 -1.68446 -6.70876 0
M  V30 7529 O 1028.2 -0.678137 -6.08433 0
M  V30 7530 C 1026.07 -1.17436 -7.18567 0
M  V30 7531 H 1026.1 -0.0804732 -7.31656 0
M  V30 7532 H 1027.28 -2.54037 -6.02537 0
M  V30 7533 H 1028.77 -2.93881 -7.85526 0
M  V30 7534 H 1027.07 -2.53065 -9.86973 0
M  V30 7535 H 1026.88 -4.75072 -9.05887 0
M  V30 7536 H 1025.25 -4.05244 -8.76668 0
M  V30 7537 H 1027.89 0.177647 -6.34251 0
M  V30 7538 P 1029.75 -1.25109 -8.70152 0
M  V30 7539 O 1031.17 -1.29744 -9.22016 0
M  V30 7540 O 1029.39 -2.13714 -7.55141 0
M  V30 7541 O 1029.43 0.248149 -8.21425 0
M  V30 7542 C 1029.27 1.22779 -9.30434 0
M  V30 7543 C 1029.81 2.56293 -8.80664 0
M  V30 7544 O 1028.75 3.02979 -8.09349 0
M  V30 7545 C 1031.02 2.57523 -7.89775 0
M  V30 7546 O 1031.76 3.7668 -7.89438 0
M  V30 7547 C 1030.35 2.20997 -6.55446 0
M  V30 7548 O 1031.15 2.71895 -5.48509 0
M  V30 7549 C 1029.02 2.89693 -6.67988 0
M  V30 7550 H 1029.05 3.88793 -6.19859 0
M  V30 7551 H 1030.23 1.12046 -6.44229 0
M  V30 7552 H 1031.72 1.7746 -8.19711 0
M  V30 7553 H 1030.02 3.20706 -9.67112 0
M  V30 7554 H 1029.83 0.901032 -10.1892 0
M  V30 7555 H 1028.2 1.33049 -9.56592 0
M  V30 7556 H 1030.84 3.57847 -5.23962 0
M  V30 7557 P 1032.7 3.65191 -7.99657 0
M  V30 7558 O 1034.12 3.89332 -8.45794 0
M  V30 7559 O 1032.34 2.28472 -7.50807 0
M  V30 7560 O 1032.38 4.64972 -6.77611 0
M  V30 7561 C 1032.22 6.06319 -7.16352 0
M  V30 7562 C 1032.76 6.91731 -6.02299 0
M  V30 7563 O 1031.7 6.92449 -5.17064 0
M  V30 7564 C 1033.97 6.43627 -5.25174 0
M  V30 7565 O 1034.71 7.43686 -4.60469 0
M  V30 7566 C 1033.31 5.40275 -4.31916 0
M  V30 7567 O 1034.1 5.25279 -3.14438 0
M  V30 7568 C 1031.97 6.04847 -4.05327 0
M  V30 7569 H 1032 6.62195 -3.11261 0
M  V30 7570 H 1033.18 4.42556 -4.81383 0
M  V30 7571 H 1034.67 5.92458 -5.93643 0
M  V30 7572 H 1032.97 7.92655 -6.402 0
M  V30 7573 H 1032.78 6.26671 -8.0846 0
M  V30 7574 H 1031.15 6.29101 -7.32804 0
M  V30 7575 H 1033.79 5.84315 -2.47318 0
M  V30 7576 P 1035.65 7.39546 -4.75277 0
M  V30 7577 O 1037.07 7.84798 -5.01039 0
M  V30 7578 O 1035.29 5.9812 -5.08098 0
M  V30 7579 O 1035.33 7.57503 -3.1866 0
M  V30 7580 C 1035.17 8.97357 -2.74833 0
M  V30 7581 C 1035.71 9.07548 -1.32709 0
M  V30 7582 O 1034.65 8.62072 -0.606159 0
M  V30 7583 C 1036.93 8.25383 -0.938334 0
M  V30 7584 O 1037.66 8.74577 0.146954 0
M  V30 7585 C 1036.26 6.8802 -0.712559 0
M  V30 7586 O 1037.06 6.1189 0.194655 0
M  V30 7587 C 1034.92 7.27966 -0.139777 0
M  V30 7588 H 1034.95 7.25354 0.961601 0
M  V30 7589 H 1036.13 6.32557 -1.65702 0
M  V30 7590 H 1037.62 8.19355 -1.79097 0
M  V30 7591 H 1035.92 10.1294 -1.10029 0
M  V30 7592 H 1035.73 9.64276 -3.41316 0
M  V30 7593 H 1034.1 9.25417 -2.76357 0
M  V30 7594 H 1036.74 6.25267 1.07847 0
M  V30 7595 P 1038.6 8.791 8.17632e-12 0
M  V30 7596 O 1040.02 9.31096 0.027933 0
M  V30 7597 O 1038.24 7.77869 -1.04071 0
M  V30 7598 O 1038.28 8.09533 1.41463 0
M  V30 7599 C 1038.12 9.0349 2.53943 0
M  V30 7600 C 1038.66 8.35226 3.79016 0
M  V30 7601 O 1037.6 7.57992 4.15078 0
M  V30 7602 C 1039.88 7.45087 3.67298 0
M  V30 7603 O 1040.61 7.27796 4.85194 0
M  V30 7604 C 1039.21 6.17323 3.12027 0
M  V30 7605 O 1040.01 5.04231 3.47188 0
M  V30 7606 C 1037.87 6.19961 3.81809 0
M  V30 7607 H 1037.9 5.58218 4.73051 0
M  V30 7608 H 1039.08 6.21726 2.02589 0
M  V30 7609 H 1040.57 7.86112 2.9231 0
M  V30 7610 H 1038.87 9.11627 4.55076 0
M  V30 7611 H 1038.68 9.9573 2.34194 0
M  V30 7612 H 1037.05 9.2792 2.67832 0
M  V30 7613 H 1039.69 4.67702 4.28772 0
M  V30 7614 P 1041.55 7.39546 4.75277 0
M  V30 7615 O 1042.97 7.81777 5.05738 0
M  V30 7616 O 1041.19 7.1065 3.32998 0
M  V30 7617 O 1041.23 6.04542 5.56673 0
M  V30 7618 C 1041.07 6.22772 7.02095 0
M  V30 7619 C 1041.61 4.97725 7.70406 0
M  V30 7620 O 1040.55 4.13256 7.58987 0
M  V30 7621 C 1042.83 4.28231 7.11815 0
M  V30 7622 O 1043.56 3.49945 8.01648 0
M  V30 7623 C 1042.16 3.5063 5.96244 0
M  V30 7624 O 1042.96 2.36482 5.64681 0
M  V30 7625 C 1040.82 3.15122 6.56374 0
M  V30 7626 H 1040.85 2.13853 6.99751 0
M  V30 7627 H 1042.04 4.13501 5.06559 0
M  V30 7628 H 1043.52 5.03285 6.70911 0
M  V30 7629 H 1041.83 5.20877 8.75697 0
M  V30 7630 H 1041.64 7.11046 7.35349 0
M  V30 7631 H 1040.01 6.35815 7.26986 0
M  V30 7632 H 1042.64 1.61644 6.13565 0
M  V30 7633 P 1044.5 3.65191 7.99657 0
M  V30 7634 O 1045.92 3.8425 8.48115 0
M  V30 7635 O 1044.14 4.17805 6.64342 0
M  V30 7636 O 1044.18 2.07613 7.95143 0
M  V30 7637 C 1044.02 1.44328 9.27336 0
M  V30 7638 C 1044.56 0.0220036 9.17197 0
M  V30 7639 O 1043.5 -0.626867 8.61923 0
M  V30 7640 C 1045.78 -0.24586 8.30336 0
M  V30 7641 O 1046.51 -1.39011 8.63583 0
M  V30 7642 C 1045.11 -0.273849 6.91158 0
M  V30 7643 O 1045.91 -1.06348 6.02892 0
M  V30 7644 C 1043.77 -0.897649 7.22545 0
M  V30 7645 H 1043.8 -1.9841 7.04286 0
M  V30 7646 H 1044.99 0.739928 6.497 0
M  V30 7647 H 1046.47 0.60668 8.36503 0
M  V30 7648 H 1044.78 -0.352479 10.1829 0
M  V30 7649 H 1044.59 2.00611 10.0304 0
M  V30 7650 H 1042.96 1.41843 9.55327 0
M  V30 7651 H 1045.59 -1.95734 6.03555 0
M  V30 7652 P 1047.45 -1.25109 8.70152 0
M  V30 7653 O 1048.87 -1.35274 9.21221 0
M  V30 7654 O 1047.09 -0.0769065 7.84762 0
M  V30 7655 O 1047.13 -2.55232 7.81161 0
M  V30 7656 C 1046.97 -3.79939 8.58154 0
M  V30 7657 C 1047.51 -4.94023 7.72785 0
M  V30 7658 O 1046.45 -5.18726 6.91205 0
M  V30 7659 C 1048.73 -4.69597 6.85231 0
M  V30 7660 O 1049.47 -5.83832 6.51337 0
M  V30 7661 C 1048.06 -3.96706 5.66633 0
M  V30 7662 O 1048.86 -4.15414 4.49689 0
M  V30 7663 C 1046.72 -4.66153 5.59313 0
M  V30 7664 H 1046.75 -5.47679 4.85214 0
M  V30 7665 H 1047.94 -2.89008 5.86566 0
M  V30 7666 H 1049.42 -4.0121 7.36511 0
M  V30 7667 H 1047.73 -5.80182 8.37584 0
M  V30 7668 H 1047.54 -3.73517 9.52265 0
M  V30 7669 H 1045.91 -3.97163 8.80359 0
M  V30 7670 H 1048.55 -4.90969 4.01921 0
M  V30 7671 P 1050.4 -5.75688 6.64379 0
M  V30 7672 O 1051.82 -6.11915 7.01921 0
M  V30 7673 O 1050.04 -4.30744 6.56026 0
M  V30 7674 O 1050.08 -6.37042 5.19165 0
M  V30 7675 C 1049.92 -7.83662 5.1657 0
M  V30 7676 C 1050.46 -8.33398 3.83019 0
M  V30 7677 O 1049.4 -8.0998 3.00999 0
M  V30 7678 C 1051.68 -7.65514 3.2257 0
M  V30 7679 O 1052.42 -8.4329 2.32297 0
M  V30 7680 C 1051.01 -6.40075 2.62207 0
M  V30 7681 O 1051.81 -5.92338 1.5428 0
M  V30 7682 C 1049.67 -6.9454 2.18503 0
M  V30 7683 N 1048.63 -5.95905 2.39948 0
M  V30 7684 C 1048.8 -4.98383 3.32108 0
M  V30 7685 N 1047.77 -4.16798 3.41761 0
M  V30 7686 C 1046.89 -4.65287 2.47461 0
M  V30 7687 C 1045.62 -4.18946 2.07461 0
M  V30 7688 N 1045.02 -3.09661 2.60717 0
M  V30 7689 N 1045.05 -4.95327 1.09101 0
M  V30 7690 C 1045.66 -6.04369 0.519812 0
M  V30 7691 N 1046.83 -6.50694 0.855982 0
M  V30 7692 C 1047.41 -5.75818 1.84322 0
M  V30 7693 H 1049.7 -7.22964 1.12076 0
M  V30 7694 H 1050.89 -5.60502 3.36589 0
M  V30 7695 H 1052.37 -7.35707 4.02681 0
M  V30 7696 H 1050.68 -9.41302 3.90009 0
M  V30 7697 H 1050.49 -8.29056 5.99158 0
M  V30 7698 H 1048.86 -8.10073 5.25882 0
M  V30 7699 H 1045.12 -6.55843 -0.270373 0
M  V30 7700 H 1049.7 -4.88564 3.92502 0
M  V30 7701 H 1044.09 -2.80523 2.27218 0
M  V30 7702 H 1045.49 -2.55848 3.34465 0
M  V30 7703 H 1051.5 -6.30224 0.72668 0
M  V30 7704 P 1053.35 -8.4349 2.47671 0
M  V30 7705 O 1054.78 -8.94167 2.5964 0
M  V30 7706 O 1052.99 -7.1704 3.19006 0
M  V30 7707 O 1053.03 -8.16596 0.923387 0
M  V30 7708 C 1052.87 -9.38437 0.108857 0
M  V30 7709 C 1053.41 -9.08175 -1.28353 0
M  V30 7710 O 1052.35 -8.44229 -1.84713 0
M  V30 7711 C 1054.63 -8.18386 -1.42505 0
M  V30 7712 O 1055.37 -8.3501 -2.60497 0
M  V30 7713 C 1053.96 -6.80225 -1.25468 0
M  V30 7714 O 1054.76 -5.81621 -1.91066 0
M  V30 7715 C 1052.62 -7.02416 -1.9168 0
M  V30 7716 H 1052.65 -6.6888 -2.96621 0
M  V30 7717 H 1053.84 -6.53617 -0.192223 0
M  V30 7718 H 1055.32 -8.36622 -0.589963 0
M  V30 7719 H 1053.63 -10.0291 -1.79807 0
M  V30 7720 H 1053.44 -10.2138 0.558219 0
M  V30 7721 H 1051.81 -9.6579 0.0444202 0
M  V30 7722 H 1054.45 -5.69556 -2.79637 0
M  V30 7723 P 1056.3 -8.4349 -2.47671 0
M  V30 7724 O 1057.73 -8.92593 -2.65 0
M  V30 7725 O 1055.94 -7.7568 -1.19296 0
M  V30 7726 O 1055.98 -7.36886 -3.63805 0
M  V30 7727 C 1055.82 -7.95349 -4.982 0
M  V30 7728 C 1056.36 -6.94612 -5.98974 0
M  V30 7729 O 1055.31 -6.10347 -6.11815 0
M  V30 7730 C 1057.58 -6.11426 -5.62335 0
M  V30 7731 O 1058.32 -5.6162 -6.70584 0
M  V30 7732 C 1056.91 -5.04409 -4.73308 0
M  V30 7733 O 1057.71 -3.85992 -4.75183 0
M  V30 7734 C 1055.57 -4.8728 -5.41006 0
M  V30 7735 H 1055.61 -4.02333 -6.11157 0
M  V30 7736 H 1056.79 -5.39466 -3.69543 0
M  V30 7737 H 1058.27 -6.71916 -5.01943 0
M  V30 7738 H 1056.58 -7.4649 -6.93477 0
M  V30 7739 H 1056.39 -8.89416 -5.05237 0
M  V30 7740 H 1054.76 -8.14876 -5.18409 0
M  V30 7741 H 1057.4 -3.27957 -5.4317 0
M  V30 7742 P 1059.25 -5.75688 -6.64379 0
M  V30 7743 O 1060.68 -6.07627 -7.05504 0
M  V30 7744 O 1058.89 -5.88047 -5.19722 0
M  V30 7745 O 1058.93 -4.2322 -7.04443 0
M  V30 7746 C 1058.77 -3.99743 -8.4911 0
M  V30 7747 C 1059.31 -2.60516 -8.79425 0
M  V30 7748 O 1058.26 -1.82684 -8.4467 0
M  V30 7749 C 1060.53 -2.10343 -8.03628 0
M  V30 7750 O 1061.27 -1.09919 -8.67766 0
M  V30 7751 C 1059.86 -1.68446 -6.70876 0
M  V30 7752 O 1060.66 -0.678137 -6.08433 0
M  V30 7753 C 1058.52 -1.17436 -7.18567 0
M  V30 7754 H 1058.56 -0.0804732 -7.31656 0
M  V30 7755 H 1059.74 -2.54037 -6.02537 0
M  V30 7756 H 1061.22 -2.93881 -7.85526 0
M  V30 7757 H 1059.53 -2.53065 -9.86973 0
M  V30 7758 H 1059.34 -4.75072 -9.05887 0
M  V30 7759 H 1057.71 -4.05244 -8.76668 0
M  V30 7760 H 1060.35 0.177647 -6.34251 0
M  V30 7761 P 1062.21 -1.25109 -8.70152 0
M  V30 7762 O 1063.63 -1.29744 -9.22016 0
M  V30 7763 O 1061.85 -2.13714 -7.55141 0
M  V30 7764 O 1061.88 0.248149 -8.21425 0
M  V30 7765 C 1061.72 1.22779 -9.30434 0
M  V30 7766 C 1062.26 2.56293 -8.80664 0
M  V30 7767 O 1061.21 3.02979 -8.09349 0
M  V30 7768 C 1063.48 2.57523 -7.89775 0
M  V30 7769 O 1064.22 3.7668 -7.89438 0
M  V30 7770 C 1062.81 2.20997 -6.55446 0
M  V30 7771 O 1063.61 2.71895 -5.48509 0
M  V30 7772 C 1061.47 2.89693 -6.67988 0
M  V30 7773 H 1061.51 3.88793 -6.19859 0
M  V30 7774 H 1062.69 1.12046 -6.44229 0
M  V30 7775 H 1064.17 1.7746 -8.19711 0
M  V30 7776 H 1062.48 3.20706 -9.67112 0
M  V30 7777 H 1062.29 0.901032 -10.1892 0
M  V30 7778 H 1060.66 1.33049 -9.56592 0
M  V30 7779 H 1063.3 3.57847 -5.23962 0
M  V30 7780 P 1065.16 3.65191 -7.99657 0
M  V30 7781 O 1066.58 3.89332 -8.45794 0
M  V30 7782 O 1064.8 2.28472 -7.50807 0
M  V30 7783 O 1064.83 4.64972 -6.77611 0
M  V30 7784 C 1064.67 6.06319 -7.16352 0
M  V30 7785 C 1065.21 6.91731 -6.02299 0
M  V30 7786 O 1064.16 6.92449 -5.17064 0
M  V30 7787 C 1066.43 6.43627 -5.25174 0
M  V30 7788 O 1067.17 7.43686 -4.60469 0
M  V30 7789 C 1065.76 5.40275 -4.31916 0
M  V30 7790 O 1066.56 5.25279 -3.14438 0
M  V30 7791 C 1064.42 6.04847 -4.05327 0
M  V30 7792 H 1064.46 6.62195 -3.11261 0
M  V30 7793 H 1065.64 4.42556 -4.81383 0
M  V30 7794 H 1067.12 5.92458 -5.93643 0
M  V30 7795 H 1065.43 7.92655 -6.402 0
M  V30 7796 H 1065.24 6.26671 -8.0846 0
M  V30 7797 H 1063.61 6.29101 -7.32804 0
M  V30 7798 H 1066.25 5.84315 -2.47318 0
M  V30 7799 P 1068.11 7.39546 -4.75277 0
M  V30 7800 O 1069.53 7.84798 -5.01039 0
M  V30 7801 O 1067.75 5.9812 -5.08098 0
M  V30 7802 O 1067.78 7.57503 -3.1866 0
M  V30 7803 C 1067.62 8.97357 -2.74833 0
M  V30 7804 C 1068.16 9.07548 -1.32709 0
M  V30 7805 O 1067.11 8.62072 -0.606159 0
M  V30 7806 C 1069.38 8.25383 -0.938334 0
M  V30 7807 O 1070.12 8.74577 0.146954 0
M  V30 7808 C 1068.71 6.8802 -0.712559 0
M  V30 7809 O 1069.51 6.1189 0.194655 0
M  V30 7810 C 1067.38 7.27966 -0.139777 0
M  V30 7811 H 1067.41 7.25354 0.961601 0
M  V30 7812 H 1068.59 6.32557 -1.65702 0
M  V30 7813 H 1070.07 8.19355 -1.79097 0
M  V30 7814 H 1068.38 10.1294 -1.10029 0
M  V30 7815 H 1068.19 9.64276 -3.41316 0
M  V30 7816 H 1066.56 9.25417 -2.76357 0
M  V30 7817 H 1069.2 6.25267 1.07847 0
M  V30 7818 P 1071.06 8.791 8.48649e-12 0
M  V30 7819 O 1072.48 9.31196 0.027936 0
M  V30 7820 O 1070.7 7.77869 -1.04071 0
M  V30 7821 O 1070.73 8.09533 1.41463 0
M  V30 7822 C 1070.57 9.03587 2.5397 0
M  V30 7823 C 1071.11 8.35226 3.79016 0
M  V30 7824 O 1070.06 7.57904 4.1503 0
M  V30 7825 C 1072.33 7.45087 3.67298 0
M  V30 7826 O 1073.07 7.27796 4.85194 0
M  V30 7827 C 1071.66 6.17323 3.12027 0
M  V30 7828 O 1072.46 5.04496 3.46627 0
M  V30 7829 C 1070.33 6.19961 3.81809 0
M  V30 7830 N 1069.28 5.71575 2.93223 0
M  V30 7831 C 1069.45 5.77362 1.59168 0
M  V30 7832 N 1068.42 5.3123 0.911893 0
M  V30 7833 C 1067.54 4.91717 1.89588 0
M  V30 7834 C 1066.27 4.3114 1.8076 0
M  V30 7835 N 1065.71 4.06823 3.02898 0
M  V30 7836 C 1066.31 4.35062 4.22711 0
M  V30 7837 N 1067.49 4.90805 4.35707 0
M  V30 7838 C 1068.06 5.16382 3.14469 0
M  V30 7839 H 1071.54 6.21428 2.0318 0
M  V30 7840 H 1073.02 7.86112 2.9231 0
M  V30 7841 H 1071.33 9.11171 4.55987 0
M  V30 7842 H 1071.14 9.9573 2.34194 0
M  V30 7843 H 1069.51 9.2792 2.67832 0
M  V30 7844 H 1070.35 6.16575 1.12198 0
M  V30 7845 H 1072.15 4.67628 4.28704 0
M  V30 7846 P 1074.01 7.39546 4.75277 0
M  V30 7847 O 1075.43 7.81777 5.05738 0
M  V30 7848 O 1073.65 7.1065 3.32998 0
M  V30 7849 O 1073.68 6.04542 5.56673 0
M  V30 7850 C 1073.52 6.22772 7.02095 0
M  V30 7851 C 1074.06 4.97725 7.70406 0
M  V30 7852 O 1073.01 4.13256 7.58987 0
M  V30 7853 C 1075.28 4.28231 7.11815 0
M  V30 7854 O 1076.02 3.49945 8.01648 0
M  V30 7855 C 1074.61 3.5063 5.96244 0
M  V30 7856 O 1075.41 2.36482 5.64681 0
M  V30 7857 C 1073.28 3.15122 6.56374 0
M  V30 7858 H 1073.31 2.13853 6.99751 0
M  V30 7859 H 1074.49 4.13501 5.06559 0
M  V30 7860 H 1075.98 5.03285 6.70911 0
M  V30 7861 H 1074.28 5.20877 8.75697 0
M  V30 7862 H 1074.09 7.11046 7.35349 0
M  V30 7863 H 1072.46 6.35815 7.26986 0
M  V30 7864 H 1075.1 1.61644 6.13565 0
M  V30 7865 P 1076.96 3.65191 7.99657 0
M  V30 7866 O 1078.38 3.84292 8.48206 0
M  V30 7867 O 1076.6 4.17805 6.64342 0
M  V30 7868 O 1076.64 2.07613 7.95143 0
M  V30 7869 C 1076.47 1.44344 9.27435 0
M  V30 7870 C 1077.02 0.0220036 9.17197 0
M  V30 7871 O 1075.96 -0.626794 8.61824 0
M  V30 7872 C 1078.23 -0.24586 8.30336 0
M  V30 7873 O 1078.97 -1.39011 8.63583 0
M  V30 7874 C 1077.57 -0.273849 6.91158 0
M  V30 7875 O 1078.36 -1.05728 6.029 0
M  V30 7876 C 1076.23 -0.897649 7.22545 0
M  V30 7877 N 1075.18 -0.292839 6.41732 0
M  V30 7878 C 1075.35 0.950603 5.91308 0
M  V30 7879 N 1074.33 1.37732 5.21105 0
M  V30 7880 C 1073.44 0.318109 5.26039 0
M  V30 7881 C 1072.17 0.146766 4.6727 0
M  V30 7882 N 1071.58 1.08519 3.89983 0
M  V30 7883 N 1071.61 -1.06525 4.95887 0
M  V30 7884 C 1072.21 -2.0378 5.71347 0
M  V30 7885 N 1073.39 -1.92445 6.27451 0
M  V30 7886 C 1073.96 -0.715382 6.00353 0
M  V30 7887 H 1076.26 -1.98383 7.04189 0
M  V30 7888 H 1077.44 0.733318 6.49674 0
M  V30 7889 H 1078.93 0.60668 8.36503 0
M  V30 7890 H 1077.23 -0.362662 10.1825 0
M  V30 7891 H 1077.04 2.00611 10.0304 0
M  V30 7892 H 1075.41 1.41843 9.55327 0
M  V30 7893 H 1071.68 -2.97041 5.85344 0
M  V30 7894 H 1076.25 1.54076 6.07465 0
M  V30 7895 H 1070.65 0.901517 3.49562 0
M  V30 7896 H 1072.05 1.97957 3.71669 0
M  V30 7897 H 1078.05 -1.95704 6.0346 0
M  V30 7898 P 1079.91 -1.25109 8.70152 0
M  V30 7899 O 1081.33 -1.35274 9.21221 0
M  V30 7900 O 1079.55 -0.0769065 7.84762 0
M  V30 7901 O 1079.59 -2.55232 7.81161 0
M  V30 7902 C 1079.43 -3.79939 8.58154 0
M  V30 7903 C 1079.97 -4.94023 7.72785 0
M  V30 7904 O 1078.91 -5.18726 6.91205 0
M  V30 7905 C 1081.18 -4.69597 6.85231 0
M  V30 7906 O 1081.92 -5.83832 6.51337 0
M  V30 7907 C 1080.51 -3.96706 5.66633 0
M  V30 7908 O 1081.31 -4.15414 4.49689 0
M  V30 7909 C 1079.18 -4.66153 5.59313 0
M  V30 7910 H 1079.21 -5.47679 4.85214 0
M  V30 7911 H 1080.39 -2.89008 5.86566 0
M  V30 7912 H 1081.88 -4.0121 7.36511 0
M  V30 7913 H 1080.18 -5.80182 8.37584 0
M  V30 7914 H 1079.99 -3.73517 9.52265 0
M  V30 7915 H 1078.36 -3.97163 8.80359 0
M  V30 7916 H 1081 -4.90969 4.01921 0
M  V30 7917 P 1082.86 -5.75688 6.64379 0
M  V30 7918 O 1084.28 -6.11849 7.01846 0
M  V30 7919 O 1082.5 -4.30744 6.56026 0
M  V30 7920 O 1082.54 -6.37042 5.19165 0
M  V30 7921 C 1082.38 -7.83578 5.16515 0
M  V30 7922 C 1082.92 -8.33398 3.83019 0
M  V30 7923 O 1081.86 -8.10074 3.01034 0
M  V30 7924 C 1084.13 -7.65514 3.2257 0
M  V30 7925 O 1084.87 -8.4329 2.32297 0
M  V30 7926 C 1083.47 -6.40075 2.62207 0
M  V30 7927 O 1084.26 -5.92589 1.53712 0
M  V30 7928 C 1082.13 -6.9454 2.18503 0
M  V30 7929 H 1082.16 -7.23063 1.12091 0
M  V30 7930 H 1083.34 -5.6025 3.37201 0
M  V30 7931 H 1084.83 -7.35707 4.02681 0
M  V30 7932 H 1083.13 -9.40912 3.9095 0
M  V30 7933 H 1082.94 -8.29056 5.99158 0
M  V30 7934 H 1081.31 -8.10073 5.25882 0
M  V30 7935 H 1083.95 -6.30324 0.726794 0
M  V30 7936 P 1085.81 -8.4349 2.47671 0
M  V30 7937 O 1087.23 -8.94167 2.5964 0
M  V30 7938 O 1085.45 -7.1704 3.19006 0
M  V30 7939 O 1085.49 -8.16596 0.923387 0
M  V30 7940 C 1085.33 -9.38437 0.108857 0
M  V30 7941 C 1085.87 -9.08175 -1.28353 0
M  V30 7942 O 1084.81 -8.44229 -1.84713 0
M  V30 7943 C 1087.08 -8.18386 -1.42505 0
M  V30 7944 O 1087.82 -8.3501 -2.60497 0
M  V30 7945 C 1086.42 -6.80225 -1.25468 0
M  V30 7946 O 1087.21 -5.81621 -1.91066 0
M  V30 7947 C 1085.08 -7.02416 -1.9168 0
M  V30 7948 H 1085.11 -6.6888 -2.96621 0
M  V30 7949 H 1086.29 -6.53617 -0.192223 0
M  V30 7950 H 1087.78 -8.36622 -0.589963 0
M  V30 7951 H 1086.08 -10.0291 -1.79807 0
M  V30 7952 H 1085.89 -10.2138 0.558219 0
M  V30 7953 H 1084.26 -9.6579 0.0444202 0
M  V30 7954 H 1086.9 -5.69556 -2.79637 0
M  V30 7955 P 1088.76 -8.4349 -2.47671 0
M  V30 7956 O 1090.18 -8.92593 -2.65 0
M  V30 7957 O 1088.4 -7.7568 -1.19296 0
M  V30 7958 O 1088.44 -7.36886 -3.63805 0
M  V30 7959 C 1088.28 -7.95349 -4.982 0
M  V30 7960 C 1088.82 -6.94612 -5.98974 0
M  V30 7961 O 1087.76 -6.10347 -6.11815 0
M  V30 7962 C 1090.04 -6.11426 -5.62335 0
M  V30 7963 O 1090.77 -5.6162 -6.70584 0
M  V30 7964 C 1089.37 -5.04409 -4.73308 0
M  V30 7965 O 1090.17 -3.85992 -4.75183 0
M  V30 7966 C 1088.03 -4.8728 -5.41006 0
M  V30 7967 H 1088.06 -4.02333 -6.11157 0
M  V30 7968 H 1089.24 -5.39466 -3.69543 0
M  V30 7969 H 1090.73 -6.71916 -5.01943 0
M  V30 7970 H 1089.03 -7.4649 -6.93477 0
M  V30 7971 H 1088.84 -8.89416 -5.05237 0
M  V30 7972 H 1087.21 -8.14876 -5.18409 0
M  V30 7973 H 1089.85 -3.27957 -5.4317 0
M  V30 7974 P 1091.71 -5.75688 -6.64379 0
M  V30 7975 O 1093.13 -6.07627 -7.05504 0
M  V30 7976 O 1091.35 -5.88047 -5.19722 0
M  V30 7977 O 1091.39 -4.2322 -7.04443 0
M  V30 7978 C 1091.23 -3.99743 -8.4911 0
M  V30 7979 C 1091.77 -2.60516 -8.79425 0
M  V30 7980 O 1090.71 -1.82684 -8.4467 0
M  V30 7981 C 1092.99 -2.10343 -8.03628 0
M  V30 7982 O 1093.72 -1.09919 -8.67766 0
M  V30 7983 C 1092.32 -1.68446 -6.70876 0
M  V30 7984 O 1093.12 -0.678137 -6.08433 0
M  V30 7985 C 1090.98 -1.17436 -7.18567 0
M  V30 7986 H 1091.01 -0.0804732 -7.31656 0
M  V30 7987 H 1092.19 -2.54037 -6.02537 0
M  V30 7988 H 1093.68 -2.93881 -7.85526 0
M  V30 7989 H 1091.98 -2.53065 -9.86973 0
M  V30 7990 H 1091.79 -4.75072 -9.05887 0
M  V30 7991 H 1090.16 -4.05244 -8.76668 0
M  V30 7992 H 1092.8 0.177647 -6.34251 0
M  V30 7993 P 1094.66 -1.25109 -8.70152 0
M  V30 7994 O 1096.08 -1.29758 -9.22115 0
M  V30 7995 O 1094.3 -2.13714 -7.55141 0
M  V30 7996 O 1094.34 0.248149 -8.21425 0
M  V30 7997 C 1094.18 1.22792 -9.30533 0
M  V30 7998 C 1094.72 2.56293 -8.80664 0
M  V30 7999 O 1093.66 3.02944 -8.09255 0
M  V30 8000 C 1095.94 2.57523 -7.89775 0
M  V30 8001 O 1096.67 3.7668 -7.89438 0
M  V30 8002 C 1095.27 2.20997 -6.55446 0
M  V30 8003 O 1096.07 2.71302 -5.48691 0
M  V30 8004 C 1093.93 2.89693 -6.67988 0
M  V30 8005 N 1092.89 2.08895 -6.07487 0
M  V30 8006 C 1093.06 0.753809 -5.94137 0
M  V30 8007 N 1092.03 0.146592 -5.38801 0
M  V30 8008 C 1091.14 1.1768 -5.13693 0
M  V30 8009 C 1089.88 1.17563 -4.52477 0
M  V30 8010 N 1089.31 2.41918 -4.45789 0
M  V30 8011 C 1089.91 3.56493 -4.90792 0
M  V30 8012 N 1091.09 3.61423 -5.47817 0
M  V30 8013 C 1091.67 2.37779 -5.5588 0
M  V30 8014 H 1095.15 1.12673 -6.44018 0
M  V30 8015 H 1096.63 1.7746 -8.19711 0
M  V30 8016 H 1094.93 3.21673 -9.66791 0
M  V30 8017 H 1094.74 0.901032 -10.1892 0
M  V30 8018 H 1093.11 1.33049 -9.56592 0
M  V30 8019 H 1093.96 0.233081 -6.26266 0
M  V30 8020 H 1095.75 3.5779 -5.23879 0
M  V30 8021 P 1097.61 3.65191 -7.99657 0
M  V30 8022 O 1099.03 3.89332 -8.45794 0
M  V30 8023 O 1097.25 2.28472 -7.50807 0
M  V30 8024 O 1097.29 4.64972 -6.77611 0
M  V30 8025 C 1097.13 6.06319 -7.16352 0
M  V30 8026 C 1097.67 6.91731 -6.02299 0
M  V30 8027 O 1096.61 6.92449 -5.17064 0
M  V30 8028 C 1098.89 6.43627 -5.25174 0
M  V30 8029 O 1099.63 7.43686 -4.60469 0
M  V30 8030 C 1098.22 5.40275 -4.31916 0
M  V30 8031 O 1099.02 5.25279 -3.14438 0
M  V30 8032 C 1096.88 6.04847 -4.05327 0
M  V30 8033 H 1096.91 6.62195 -3.11261 0
M  V30 8034 H 1098.1 4.42556 -4.81383 0
M  V30 8035 H 1099.58 5.92458 -5.93643 0
M  V30 8036 H 1097.89 7.92655 -6.402 0
M  V30 8037 H 1097.7 6.26671 -8.0846 0
M  V30 8038 H 1096.07 6.29101 -7.32804 0
M  V30 8039 H 1098.71 5.84315 -2.47318 0
M  V30 8040 P 1100.56 7.39546 -4.75277 0
M  V30 8041 O 1101.98 7.84966 -5.01146 0
M  V30 8042 O 1100.2 5.9812 -5.08098 0
M  V30 8043 O 1100.24 7.57503 -3.1866 0
M  V30 8044 C 1100.08 8.97357 -2.74833 0
M  V30 8045 C 1100.62 9.0745 -1.32694 0
M  V30 8046 O 1099.56 8.62072 -0.606159 0
M  V30 8047 C 1101.84 8.25383 -0.938334 0
M  V30 8048 O 1102.58 8.74577 0.146954 0
M  V30 8049 C 1101.17 6.8802 -0.712559 0
M  V30 8050 O 1101.97 6.11791 0.194623 0
M  V30 8051 C 1099.83 7.27966 -0.139777 0
M  V30 8052 N 1098.79 6.39368 -0.623421 0
M  V30 8053 C 1098.85 5.90299 -1.85969 0
M  V30 8054 N 1097.81 5.10919 -2.1133 0
M  V30 8055 C 1097.07 5.14646 -1.0015 0
M  V30 8056 C 1095.77 4.60057 -0.729219 0
M  V30 8057 O 1095.03 3.93476 -1.47746 0
M  V30 8058 N 1095.34 4.88302 0.523505 0
M  V30 8059 C 1096.08 5.63646 1.46207 0
M  V30 8060 N 1095.49 5.78186 2.69239 0
M  V30 8061 N 1097.24 6.19285 1.21544 0
M  V30 8062 C 1097.69 5.93392 -0.0308487 0
M  V30 8063 H 1099.86 7.25354 0.961601 0
M  V30 8064 H 1101.05 6.3246 -1.65676 0
M  V30 8065 H 1102.53 8.19533 -1.78278 0
M  V30 8066 H 1100.84 10.1294 -1.10029 0
M  V30 8067 H 1100.65 9.64276 -3.41316 0
M  V30 8068 H 1099.02 9.25417 -2.76357 0
M  V30 8069 H 1094.44 4.53993 0.806451 0
M  V30 8070 H 1099.65 6.11865 -2.57394 0
M  V30 8071 H 1094.58 5.34046 2.87467 0
M  V30 8072 H 1095.95 6.33391 3.42578 0
M  V30 8073 H 1101.66 6.25169 1.0783 0
M  V30 8074 P 1103.51 8.791 8.79665e-12 0
M  V30 8075 O 1104.94 9.31096 0.027933 0
M  V30 8076 O 1103.15 7.77869 -1.04071 0
M  V30 8077 O 1103.19 8.09533 1.41463 0
M  V30 8078 C 1103.03 9.0349 2.53943 0
M  V30 8079 C 1103.57 8.35226 3.79016 0
M  V30 8080 O 1102.51 7.57992 4.15078 0
M  V30 8081 C 1104.79 7.45087 3.67298 0
M  V30 8082 O 1105.53 7.27796 4.85194 0
M  V30 8083 C 1104.12 6.17323 3.12027 0
M  V30 8084 O 1104.92 5.04231 3.47188 0
M  V30 8085 C 1102.78 6.19961 3.81809 0
M  V30 8086 H 1102.81 5.58218 4.73051 0
M  V30 8087 H 1104 6.21726 2.02589 0
M  V30 8088 H 1105.48 7.86112 2.9231 0
M  V30 8089 H 1103.79 9.11627 4.55076 0
M  V30 8090 H 1103.6 9.9573 2.34194 0
M  V30 8091 H 1101.97 9.2792 2.67832 0
M  V30 8092 H 1104.61 4.67702 4.28772 0
M  V30 8093 P 1106.46 7.39546 4.75277 0
M  V30 8094 O 1107.89 7.81777 5.05738 0
M  V30 8095 O 1106.1 7.1065 3.32998 0
M  V30 8096 O 1106.14 6.04542 5.56673 0
M  V30 8097 C 1105.98 6.22772 7.02095 0
M  V30 8098 C 1106.52 4.97725 7.70406 0
M  V30 8099 O 1105.46 4.13256 7.58987 0
M  V30 8100 C 1107.74 4.28231 7.11815 0
M  V30 8101 O 1108.48 3.49945 8.01648 0
M  V30 8102 C 1107.07 3.5063 5.96244 0
M  V30 8103 O 1107.87 2.36482 5.64681 0
M  V30 8104 C 1105.73 3.15122 6.56374 0
M  V30 8105 H 1105.76 2.13853 6.99751 0
M  V30 8106 H 1106.95 4.13501 5.06559 0
M  V30 8107 H 1108.43 5.03285 6.70911 0
M  V30 8108 H 1106.74 5.20877 8.75697 0
M  V30 8109 H 1106.55 7.11046 7.35349 0
M  V30 8110 H 1104.92 6.35815 7.26986 0
M  V30 8111 H 1107.56 1.61644 6.13565 0
M  V30 8112 P 1109.41 3.65191 7.99657 0
M  V30 8113 O 1110.84 3.8425 8.48115 0
M  V30 8114 O 1109.05 4.17805 6.64342 0
M  V30 8115 O 1109.09 2.07613 7.95143 0
M  V30 8116 C 1108.93 1.44328 9.27336 0
M  V30 8117 C 1109.47 0.0220036 9.17197 0
M  V30 8118 O 1108.42 -0.626867 8.61923 0
M  V30 8119 C 1110.69 -0.24586 8.30336 0
M  V30 8120 O 1111.43 -1.39011 8.63583 0
M  V30 8121 C 1110.02 -0.273849 6.91158 0
M  V30 8122 O 1110.82 -1.06348 6.02892 0
M  V30 8123 C 1108.68 -0.897649 7.22545 0
M  V30 8124 H 1108.72 -1.9841 7.04286 0
M  V30 8125 H 1109.9 0.739928 6.497 0
M  V30 8126 H 1111.38 0.60668 8.36503 0
M  V30 8127 H 1109.69 -0.352479 10.1829 0
M  V30 8128 H 1109.5 2.00611 10.0304 0
M  V30 8129 H 1107.87 1.41843 9.55327 0
M  V30 8130 H 1110.51 -1.95734 6.03555 0
M  V30 8131 P 1112.36 -1.25109 8.70152 0
M  V30 8132 O 1113.79 -1.35303 9.21419 0
M  V30 8133 O 1112 -0.0769065 7.84762 0
M  V30 8134 O 1112.04 -2.55232 7.81161 0
M  V30 8135 C 1111.88 -3.79939 8.58154 0
M  V30 8136 C 1112.42 -4.93969 7.72701 0
M  V30 8137 O 1111.37 -5.18726 6.91205 0
M  V30 8138 C 1113.64 -4.69597 6.85231 0
M  V30 8139 O 1114.38 -5.83832 6.51337 0
M  V30 8140 C 1112.97 -3.96706 5.66633 0
M  V30 8141 O 1113.77 -4.15346 4.49615 0
M  V30 8142 C 1111.63 -4.66153 5.59313 0
M  V30 8143 N 1110.59 -3.71582 5.24027 0
M  V30 8144 C 1110.65 -2.46018 5.67902 0
M  V30 8145 N 1109.61 -1.74868 5.24518 0
M  V30 8146 C 1108.87 -2.61333 4.54528 0
M  V30 8147 C 1107.57 -2.46162 3.95441 0
M  V30 8148 O 1106.83 -1.46013 3.94122 0
M  V30 8149 N 1107.14 -3.59334 3.34752 0
M  V30 8150 C 1107.89 -4.79605 3.3023 0
M  V30 8151 N 1107.29 -5.82109 2.6065 0
M  V30 8152 N 1109.04 -4.97402 3.8843 0
M  V30 8153 C 1109.5 -3.86258 4.50476 0
M  V30 8154 H 1111.67 -5.47679 4.85214 0
M  V30 8155 H 1112.85 -2.88964 5.86476 0
M  V30 8156 H 1114.33 -4.01947 7.36109 0
M  V30 8157 H 1112.64 -5.80182 8.37584 0
M  V30 8158 H 1112.45 -3.73517 9.52265 0
M  V30 8159 H 1110.82 -3.97163 8.80359 0
M  V30 8160 H 1106.24 -3.5825 2.90294 0
M  V30 8161 H 1111.45 -2.06161 6.30974 0
M  V30 8162 H 1106.38 -5.66979 2.15354 0
M  V30 8163 H 1107.75 -6.73686 2.54344 0
M  V30 8164 H 1113.46 -4.90891 4.01857 0
M  V30 8165 P 1115.32 -5.75688 6.64379 0
M  V30 8166 O 1116.74 -6.11915 7.01921 0
M  V30 8167 O 1114.96 -4.30744 6.56026 0
M  V30 8168 O 1114.99 -6.37042 5.19165 0
M  V30 8169 C 1114.83 -7.83662 5.1657 0
M  V30 8170 C 1115.37 -8.33398 3.83019 0
M  V30 8171 O 1114.32 -8.0998 3.00999 0
M  V30 8172 C 1116.59 -7.65514 3.2257 0
M  V30 8173 O 1117.33 -8.4329 2.32297 0
M  V30 8174 C 1115.92 -6.40075 2.62207 0
M  V30 8175 O 1116.72 -5.92338 1.5428 0
M  V30 8176 C 1114.58 -6.9454 2.18503 0
M  V30 8177 N 1113.54 -5.95905 2.39948 0
M  V30 8178 C 1113.71 -4.98383 3.32108 0
M  V30 8179 N 1112.68 -4.16798 3.41761 0
M  V30 8180 C 1111.8 -4.65287 2.47461 0
M  V30 8181 C 1110.53 -4.18946 2.07461 0
M  V30 8182 N 1109.97 -4.95327 1.09101 0
M  V30 8183 C 1110.57 -6.04369 0.519812 0
M  V30 8184 N 1111.75 -6.50694 0.855982 0
M  V30 8185 C 1112.32 -5.75818 1.84322 0
M  V30 8186 H 1115.8 -5.60502 3.36589 0
M  V30 8187 H 1117.28 -7.35707 4.02681 0
M  V30 8188 H 1115.59 -9.41302 3.90009 0
M  V30 8189 H 1115.4 -8.29056 5.99158 0
M  V30 8190 H 1113.77 -8.10073 5.25882 0
M  V30 8191 H 1114.61 -4.88564 3.92502 0
M  V30 8192 H 1116.41 -6.30224 0.72668 0
M  V30 8193 P 1118.27 -8.4349 2.47671 0
M  V30 8194 O 1119.69 -8.94167 2.5964 0
M  V30 8195 O 1117.91 -7.1704 3.19006 0
M  V30 8196 O 1117.94 -8.16596 0.923387 0
M  V30 8197 C 1117.78 -9.38437 0.108857 0
M  V30 8198 C 1118.32 -9.08175 -1.28353 0
M  V30 8199 O 1117.27 -8.44229 -1.84713 0
M  V30 8200 C 1119.54 -8.18386 -1.42505 0
M  V30 8201 O 1120.28 -8.3501 -2.60497 0
M  V30 8202 C 1118.87 -6.80225 -1.25468 0
M  V30 8203 O 1119.67 -5.81621 -1.91066 0
M  V30 8204 C 1117.54 -7.02416 -1.9168 0
M  V30 8205 H 1117.57 -6.6888 -2.96621 0
M  V30 8206 H 1118.75 -6.53617 -0.192223 0
M  V30 8207 H 1120.23 -8.36622 -0.589963 0
M  V30 8208 H 1118.54 -10.0291 -1.79807 0
M  V30 8209 H 1118.35 -10.2138 0.558219 0
M  V30 8210 H 1116.72 -9.6579 0.0444202 0
M  V30 8211 H 1119.36 -5.69556 -2.79637 0
M  V30 8212 P 1121.22 -8.4349 -2.47671 0
M  V30 8213 O 1122.64 -8.92593 -2.65 0
M  V30 8214 O 1120.86 -7.7568 -1.19296 0
M  V30 8215 O 1120.89 -7.36886 -3.63805 0
M  V30 8216 C 1120.73 -7.95349 -4.982 0
M  V30 8217 C 1121.27 -6.94612 -5.98974 0
M  V30 8218 O 1120.22 -6.10347 -6.11815 0
M  V30 8219 C 1122.49 -6.11426 -5.62335 0
M  V30 8220 O 1123.23 -5.6162 -6.70584 0
M  V30 8221 C 1121.82 -5.04409 -4.73308 0
M  V30 8222 O 1122.62 -3.85992 -4.75183 0
M  V30 8223 C 1120.49 -4.8728 -5.41006 0
M  V30 8224 H 1120.52 -4.02333 -6.11157 0
M  V30 8225 H 1121.7 -5.39466 -3.69543 0
M  V30 8226 H 1123.18 -6.71916 -5.01943 0
M  V30 8227 H 1121.49 -7.4649 -6.93477 0
M  V30 8228 H 1121.3 -8.89416 -5.05237 0
M  V30 8229 H 1119.67 -8.14876 -5.18409 0
M  V30 8230 H 1122.31 -3.27957 -5.4317 0
M  V30 8231 P 1124.17 -5.75688 -6.64379 0
M  V30 8232 O 1125.59 -6.07627 -7.05504 0
M  V30 8233 O 1123.81 -5.88047 -5.19722 0
M  V30 8234 O 1123.84 -4.2322 -7.04443 0
M  V30 8235 C 1123.68 -3.99743 -8.4911 0
M  V30 8236 C 1124.22 -2.60516 -8.79425 0
M  V30 8237 O 1123.17 -1.82684 -8.4467 0
M  V30 8238 C 1125.44 -2.10343 -8.03628 0
M  V30 8239 O 1126.18 -1.09919 -8.67766 0
M  V30 8240 C 1124.77 -1.68446 -6.70876 0
M  V30 8241 O 1125.57 -0.678137 -6.08433 0
M  V30 8242 C 1123.44 -1.17436 -7.18567 0
M  V30 8243 H 1123.47 -0.0804732 -7.31656 0
M  V30 8244 H 1124.65 -2.54037 -6.02537 0
M  V30 8245 H 1126.14 -2.93881 -7.85526 0
M  V30 8246 H 1124.44 -2.53065 -9.86973 0
M  V30 8247 H 1124.25 -4.75072 -9.05887 0
M  V30 8248 H 1122.62 -4.05244 -8.76668 0
M  V30 8249 H 1125.26 0.177647 -6.34251 0
M  V30 8250 P 1127.12 -1.25109 -8.70152 0
M  V30 8251 O 1128.54 -1.29744 -9.22016 0
M  V30 8252 O 1126.76 -2.13714 -7.55141 0
M  V30 8253 O 1126.79 0.248149 -8.21425 0
M  V30 8254 C 1126.63 1.22779 -9.30434 0
M  V30 8255 C 1127.17 2.56293 -8.80664 0
M  V30 8256 O 1126.12 3.02979 -8.09349 0
M  V30 8257 C 1128.39 2.57523 -7.89775 0
M  V30 8258 O 1129.13 3.7668 -7.89438 0
M  V30 8259 C 1127.72 2.20997 -6.55446 0
M  V30 8260 O 1128.52 2.71895 -5.48509 0
M  V30 8261 C 1126.39 2.89693 -6.67988 0
M  V30 8262 H 1126.42 3.88793 -6.19859 0
M  V30 8263 H 1127.6 1.12046 -6.44229 0
M  V30 8264 H 1129.09 1.7746 -8.19711 0
M  V30 8265 H 1127.39 3.20706 -9.67112 0
M  V30 8266 H 1127.2 0.901032 -10.1892 0
M  V30 8267 H 1125.57 1.33049 -9.56592 0
M  V30 8268 H 1128.21 3.57847 -5.23962 0
M  V30 8269 P 1130.07 3.65191 -7.99657 0
M  V30 8270 O 1131.49 3.89332 -8.45794 0
M  V30 8271 O 1129.71 2.28472 -7.50807 0
M  V30 8272 O 1129.75 4.64972 -6.77611 0
M  V30 8273 C 1129.59 6.06319 -7.16352 0
M  V30 8274 C 1130.13 6.91731 -6.02299 0
M  V30 8275 O 1129.07 6.92449 -5.17064 0
M  V30 8276 C 1131.34 6.43627 -5.25174 0
M  V30 8277 O 1132.08 7.43686 -4.60469 0
M  V30 8278 C 1130.67 5.40275 -4.31916 0
M  V30 8279 O 1131.47 5.25279 -3.14438 0
M  V30 8280 C 1129.34 6.04847 -4.05327 0
M  V30 8281 H 1129.37 6.62195 -3.11261 0
M  V30 8282 H 1130.55 4.42556 -4.81383 0
M  V30 8283 H 1132.04 5.92458 -5.93643 0
M  V30 8284 H 1130.34 7.92655 -6.402 0
M  V30 8285 H 1130.15 6.26671 -8.0846 0
M  V30 8286 H 1128.52 6.29101 -7.32804 0
M  V30 8287 H 1131.16 5.84315 -2.47318 0
M  V30 8288 P 1133.02 7.39546 -4.75277 0
M  V30 8289 O 1134.44 7.84798 -5.01039 0
M  V30 8290 O 1132.66 5.9812 -5.08098 0
M  V30 8291 O 1132.7 7.57503 -3.1866 0
M  V30 8292 C 1132.54 8.97357 -2.74833 0
M  V30 8293 C 1133.08 9.07548 -1.32709 0
M  V30 8294 O 1132.02 8.62072 -0.606159 0
M  V30 8295 C 1134.29 8.25383 -0.938334 0
M  V30 8296 O 1135.03 8.74577 0.146954 0
M  V30 8297 C 1133.62 6.8802 -0.712559 0
M  V30 8298 O 1134.42 6.1189 0.194655 0
M  V30 8299 C 1132.29 7.27966 -0.139777 0
M  V30 8300 H 1132.32 7.25354 0.961601 0
M  V30 8301 H 1133.5 6.32557 -1.65702 0
M  V30 8302 H 1134.99 8.19355 -1.79097 0
M  V30 8303 H 1133.29 10.1294 -1.10029 0
M  V30 8304 H 1133.1 9.64276 -3.41316 0
M  V30 8305 H 1131.47 9.25417 -2.76357 0
M  V30 8306 H 1134.11 6.25267 1.07847 0
M  V30 8307 P 1135.97 8.791 9.10682e-12 0
M  V30 8308 O 1137.39 9.31096 0.027933 0
M  V30 8309 O 1135.61 7.77869 -1.04071 0
M  V30 8310 O 1135.65 8.09533 1.41463 0
M  V30 8311 C 1135.49 9.0349 2.53943 0
M  V30 8312 C 1136.03 8.35226 3.79016 0
M  V30 8313 O 1134.97 7.57992 4.15078 0
M  V30 8314 C 1137.24 7.45087 3.67298 0
M  V30 8315 O 1137.98 7.27796 4.85194 0
M  V30 8316 C 1136.58 6.17323 3.12027 0
M  V30 8317 O 1137.37 5.04231 3.47188 0
M  V30 8318 C 1135.24 6.19961 3.81809 0
M  V30 8319 H 1135.27 5.58218 4.73051 0
M  V30 8320 H 1136.45 6.21726 2.02589 0
M  V30 8321 H 1137.94 7.86112 2.9231 0
M  V30 8322 H 1136.24 9.11627 4.55076 0
M  V30 8323 H 1136.05 9.9573 2.34194 0
M  V30 8324 H 1134.42 9.2792 2.67832 0
M  V30 8325 H 1137.06 4.67702 4.28772 0
M  V30 8326 P 1138.92 7.39546 4.75277 0
M  V30 8327 O 1140.34 7.81945 5.05847 0
M  V30 8328 O 1138.56 7.1065 3.32998 0
M  V30 8329 O 1138.6 6.04542 5.56673 0
M  V30 8330 C 1138.44 6.22772 7.02095 0
M  V30 8331 C 1138.98 4.97671 7.70322 0
M  V30 8332 O 1137.92 4.13256 7.58987 0
M  V30 8333 C 1140.2 4.28231 7.11815 0
M  V30 8334 O 1140.93 3.49945 8.01648 0
M  V30 8335 C 1139.53 3.5063 5.96244 0
M  V30 8336 O 1140.33 2.36443 5.64589 0
M  V30 8337 C 1138.19 3.15122 6.56374 0
M  V30 8338 N 1137.15 3.22311 5.55692 0
M  V30 8339 C 1137.21 4.14382 4.59701 0
M  V30 8340 N 1136.16 4.04476 3.76958 0
M  V30 8341 C 1135.43 3.04892 4.26534 0
M  V30 8342 C 1134.12 2.57447 3.88189 0
M  V30 8343 O 1133.39 2.9785 2.96543 0
M  V30 8344 N 1133.69 1.55228 4.65922 0
M  V30 8345 C 1134.44 1.01152 5.73447 0
M  V30 8346 N 1133.85 -0.0472117 6.37783 0
M  V30 8347 N 1135.6 1.467 6.13813 0
M  V30 8348 C 1136.05 2.4931 5.38487 0
M  V30 8349 H 1138.22 2.13853 6.99751 0
M  V30 8350 H 1139.4 4.13438 5.06482 0
M  V30 8351 H 1140.89 5.02614 6.71414 0
M  V30 8352 H 1139.19 5.20877 8.75697 0
M  V30 8353 H 1139 7.11046 7.35349 0
M  V30 8354 H 1137.37 6.35815 7.26986 0
M  V30 8355 H 1132.8 1.15238 4.46468 0
M  V30 8356 H 1138 4.88312 4.49647 0
M  V30 8357 H 1132.93 -0.396382 6.05203 0
M  V30 8358 H 1134.31 -0.484997 7.18465 0
M  V30 8359 H 1140.01 1.61619 6.13468 0
M  V30 8360 P 1141.87 3.65191 7.99657 0
M  V30 8361 O 1143.29 3.84292 8.48206 0
M  V30 8362 O 1141.51 4.17805 6.64342 0
M  V30 8363 O 1141.55 2.07613 7.95143 0
M  V30 8364 C 1141.39 1.44344 9.27435 0
M  V30 8365 C 1141.93 0.0220036 9.17197 0
M  V30 8366 O 1140.87 -0.626794 8.61824 0
M  V30 8367 C 1143.15 -0.24586 8.30336 0
M  V30 8368 O 1143.88 -1.39011 8.63583 0
M  V30 8369 C 1142.48 -0.273849 6.91158 0
M  V30 8370 O 1143.28 -1.05728 6.029 0
M  V30 8371 C 1141.14 -0.897649 7.22545 0
M  V30 8372 N 1140.1 -0.292839 6.41732 0
M  V30 8373 C 1140.27 0.950603 5.91308 0
M  V30 8374 N 1139.24 1.37732 5.21105 0
M  V30 8375 C 1138.35 0.318109 5.26039 0
M  V30 8376 C 1137.09 0.146766 4.6727 0
M  V30 8377 N 1136.49 1.08519 3.89983 0
M  V30 8378 N 1136.52 -1.06525 4.95887 0
M  V30 8379 C 1137.12 -2.0378 5.71347 0
M  V30 8380 N 1138.3 -1.92445 6.27451 0
M  V30 8381 C 1138.88 -0.715382 6.00353 0
M  V30 8382 H 1141.17 -1.98383 7.04189 0
M  V30 8383 H 1142.35 0.733318 6.49674 0
M  V30 8384 H 1143.84 0.60668 8.36503 0
M  V30 8385 H 1142.14 -0.362662 10.1825 0
M  V30 8386 H 1141.95 2.00611 10.0304 0
M  V30 8387 H 1140.32 1.41843 9.55327 0
M  V30 8388 H 1136.59 -2.97041 5.85344 0
M  V30 8389 H 1141.17 1.54076 6.07465 0
M  V30 8390 H 1135.56 0.901517 3.49562 0
M  V30 8391 H 1136.96 1.97957 3.71669 0
M  V30 8392 H 1142.96 -1.95704 6.0346 0
M  V30 8393 P 1144.82 -1.25109 8.70152 0
M  V30 8394 O 1146.24 -1.35274 9.21221 0
M  V30 8395 O 1144.46 -0.0769065 7.84762 0
M  V30 8396 O 1144.5 -2.55232 7.81161 0
M  V30 8397 C 1144.34 -3.79939 8.58154 0
M  V30 8398 C 1144.88 -4.94023 7.72785 0
M  V30 8399 O 1143.82 -5.18726 6.91205 0
M  V30 8400 C 1146.1 -4.69597 6.85231 0
M  V30 8401 O 1146.83 -5.83832 6.51337 0
M  V30 8402 C 1145.43 -3.96706 5.66633 0
M  V30 8403 O 1146.23 -4.15414 4.49689 0
M  V30 8404 C 1144.09 -4.66153 5.59313 0
M  V30 8405 H 1144.12 -5.47679 4.85214 0
M  V30 8406 H 1145.31 -2.89008 5.86566 0
M  V30 8407 H 1146.79 -4.0121 7.36511 0
M  V30 8408 H 1145.1 -5.80182 8.37584 0
M  V30 8409 H 1144.91 -3.73517 9.52265 0
M  V30 8410 H 1143.28 -3.97163 8.80359 0
M  V30 8411 H 1145.91 -4.90969 4.01921 0
M  V30 8412 P 1147.77 -5.75688 6.64379 0
M  V30 8413 O 1149.19 -6.11849 7.01846 0
M  V30 8414 O 1147.41 -4.30744 6.56026 0
M  V30 8415 O 1147.45 -6.37042 5.19165 0
M  V30 8416 C 1147.29 -7.83578 5.16515 0
M  V30 8417 C 1147.83 -8.33398 3.83019 0
M  V30 8418 O 1146.77 -8.10074 3.01034 0
M  V30 8419 C 1149.05 -7.65514 3.2257 0
M  V30 8420 O 1149.78 -8.4329 2.32297 0
M  V30 8421 C 1148.38 -6.40075 2.62207 0
M  V30 8422 O 1149.18 -5.92589 1.53712 0
M  V30 8423 C 1147.04 -6.9454 2.18503 0
M  V30 8424 H 1147.07 -7.23063 1.12091 0
M  V30 8425 H 1148.26 -5.6025 3.37201 0
M  V30 8426 H 1149.74 -7.35707 4.02681 0
M  V30 8427 H 1148.05 -9.40912 3.9095 0
M  V30 8428 H 1147.86 -8.29056 5.99158 0
M  V30 8429 H 1146.23 -8.10073 5.25882 0
M  V30 8430 H 1148.86 -6.30324 0.726794 0
M  V30 8431 P 1150.72 -8.4349 2.47671 0
M  V30 8432 O 1152.14 -8.94359 2.59696 0
M  V30 8433 O 1150.36 -7.1704 3.19006 0
M  V30 8434 O 1150.4 -8.16596 0.923387 0
M  V30 8435 C 1150.24 -9.38437 0.108857 0
M  V30 8436 C 1150.78 -9.08076 -1.28339 0
M  V30 8437 O 1149.72 -8.44229 -1.84713 0
M  V30 8438 C 1152 -8.18386 -1.42505 0
M  V30 8439 O 1152.74 -8.3501 -2.60497 0
M  V30 8440 C 1151.33 -6.80225 -1.25468 0
M  V30 8441 O 1152.13 -5.81526 -1.91035 0
M  V30 8442 C 1149.99 -7.02416 -1.9168 0
M  V30 8443 N 1148.95 -6.31033 -1.20314 0
M  V30 8444 C 1149.01 -6.18781 0.121293 0
M  V30 8445 N 1147.97 -5.49762 0.588272 0
M  V30 8446 C 1147.23 -5.22015 -0.488988 0
M  V30 8447 C 1145.93 -4.61966 -0.596448 0
M  V30 8448 O 1145.19 -4.19162 0.309059 0
M  V30 8449 N 1145.5 -4.53773 -1.878 0
M  V30 8450 C 1146.24 -4.99623 -2.99082 0
M  V30 8451 N 1145.65 -4.78912 -4.21227 0
M  V30 8452 N 1147.4 -5.59957 -2.91093 0
M  V30 8453 C 1147.85 -5.70225 -1.64218 0
M  V30 8454 H 1150.02 -6.6888 -2.96621 0
M  V30 8455 H 1151.21 -6.53517 -0.192194 0
M  V30 8456 H 1152.69 -8.36563 -0.598329 0
M  V30 8457 H 1151 -10.0291 -1.79807 0
M  V30 8458 H 1150.81 -10.2138 0.558219 0
M  V30 8459 H 1149.18 -9.6579 0.0444202 0
M  V30 8460 H 1144.6 -4.12883 -2.05283 0
M  V30 8461 H 1149.81 -6.59596 0.745856 0
M  V30 8462 H 1144.74 -4.31425 -4.2628 0
M  V30 8463 H 1146.11 -5.11219 -5.07148 0
M  V30 8464 H 1151.82 -5.69466 -2.79593 0
M  V30 8465 P 1153.67 -8.4349 -2.47671 0
M  V30 8466 O 1155.09 -8.92593 -2.65 0
M  V30 8467 O 1153.31 -7.7568 -1.19296 0
M  V30 8468 O 1153.35 -7.36886 -3.63805 0
M  V30 8469 C 1153.19 -7.95349 -4.982 0
M  V30 8470 C 1153.73 -6.94612 -5.98974 0
M  V30 8471 O 1152.67 -6.10347 -6.11815 0
M  V30 8472 C 1154.95 -6.11426 -5.62335 0
M  V30 8473 O 1155.69 -5.6162 -6.70584 0
M  V30 8474 C 1154.28 -5.04409 -4.73308 0
M  V30 8475 O 1155.08 -3.85992 -4.75183 0
M  V30 8476 C 1152.94 -4.8728 -5.41006 0
M  V30 8477 H 1152.97 -4.02333 -6.11157 0
M  V30 8478 H 1154.16 -5.39466 -3.69543 0
M  V30 8479 H 1155.64 -6.71916 -5.01943 0
M  V30 8480 H 1153.95 -7.4649 -6.93477 0
M  V30 8481 H 1153.76 -8.89416 -5.05237 0
M  V30 8482 H 1152.13 -8.14876 -5.18409 0
M  V30 8483 H 1154.77 -3.27957 -5.4317 0
M  V30 8484 P 1156.62 -5.75688 -6.64379 0
M  V30 8485 O 1158.05 -6.07627 -7.05504 0
M  V30 8486 O 1156.26 -5.88047 -5.19722 0
M  V30 8487 O 1156.3 -4.2322 -7.04443 0
M  V30 8488 C 1156.14 -3.99743 -8.4911 0
M  V30 8489 C 1156.68 -2.60516 -8.79425 0
M  V30 8490 O 1155.62 -1.82684 -8.4467 0
M  V30 8491 C 1157.9 -2.10343 -8.03628 0
M  V30 8492 O 1158.64 -1.09919 -8.67766 0
M  V30 8493 C 1157.23 -1.68446 -6.70876 0
M  V30 8494 O 1158.03 -0.678137 -6.08433 0
M  V30 8495 C 1155.89 -1.17436 -7.18567 0
M  V30 8496 H 1155.92 -0.0804732 -7.31656 0
M  V30 8497 H 1157.11 -2.54037 -6.02537 0
M  V30 8498 H 1158.59 -2.93881 -7.85526 0
M  V30 8499 H 1156.9 -2.53065 -9.86973 0
M  V30 8500 H 1156.71 -4.75072 -9.05887 0
M  V30 8501 H 1155.08 -4.05244 -8.76668 0
M  V30 8502 H 1157.72 0.177647 -6.34251 0
M  V30 8503 P 1159.57 -1.25109 -8.70152 0
M  V30 8504 O 1161 -1.29758 -9.22115 0
M  V30 8505 O 1159.21 -2.13714 -7.55141 0
M  V30 8506 O 1159.25 0.248149 -8.21425 0
M  V30 8507 C 1159.09 1.22792 -9.30533 0
M  V30 8508 C 1159.63 2.56293 -8.80664 0
M  V30 8509 O 1158.58 3.02944 -8.09255 0
M  V30 8510 C 1160.85 2.57523 -7.89775 0
M  V30 8511 O 1161.59 3.7668 -7.89438 0
M  V30 8512 C 1160.18 2.20997 -6.55446 0
M  V30 8513 O 1160.98 2.71302 -5.48691 0
M  V30 8514 C 1158.84 2.89693 -6.67988 0
M  V30 8515 N 1157.8 2.08895 -6.07487 0
M  V30 8516 C 1157.97 0.753809 -5.94137 0
M  V30 8517 N 1156.94 0.146592 -5.38801 0
M  V30 8518 C 1156.06 1.1768 -5.13693 0
M  V30 8519 C 1154.79 1.17563 -4.52477 0
M  V30 8520 N 1154.23 2.41918 -4.45789 0
M  V30 8521 C 1154.83 3.56493 -4.90792 0
M  V30 8522 N 1156 3.61423 -5.47817 0
M  V30 8523 C 1156.58 2.37779 -5.5588 0
M  V30 8524 H 1160.06 1.12673 -6.44018 0
M  V30 8525 H 1161.54 1.7746 -8.19711 0
M  V30 8526 H 1159.85 3.21673 -9.66791 0
M  V30 8527 H 1159.66 0.901032 -10.1892 0
M  V30 8528 H 1158.03 1.33049 -9.56592 0
M  V30 8529 H 1158.87 0.233081 -6.26266 0
M  V30 8530 H 1160.67 3.5779 -5.23879 0
M  V30 8531 P 1162.52 3.65191 -7.99657 0
M  V30 8532 O 1163.95 3.89332 -8.45794 0
M  V30 8533 O 1162.16 2.28472 -7.50807 0
M  V30 8534 O 1162.2 4.64972 -6.77611 0
M  V30 8535 C 1162.04 6.06319 -7.16352 0
M  V30 8536 C 1162.58 6.91731 -6.02299 0
M  V30 8537 O 1161.53 6.92449 -5.17064 0
M  V30 8538 C 1163.8 6.43627 -5.25174 0
M  V30 8539 O 1164.54 7.43686 -4.60469 0
M  V30 8540 C 1163.13 5.40275 -4.31916 0
M  V30 8541 O 1163.93 5.25279 -3.14438 0
M  V30 8542 C 1161.79 6.04847 -4.05327 0
M  V30 8543 H 1161.83 6.62195 -3.11261 0
M  V30 8544 H 1163.01 4.42556 -4.81383 0
M  V30 8545 H 1164.49 5.92458 -5.93643 0
M  V30 8546 H 1162.8 7.92655 -6.402 0
M  V30 8547 H 1162.61 6.26671 -8.0846 0
M  V30 8548 H 1160.98 6.29101 -7.32804 0
M  V30 8549 H 1163.62 5.84315 -2.47318 0
M  V30 8550 P 1165.48 7.39546 -4.75277 0
M  V30 8551 O 1166.9 7.84882 -5.01092 0
M  V30 8552 O 1165.12 5.9812 -5.08098 0
M  V30 8553 O 1165.15 7.57503 -3.1866 0
M  V30 8554 C 1164.99 8.97452 -2.74862 0
M  V30 8555 C 1165.53 9.07548 -1.32709 0
M  V30 8556 O 1164.48 8.61972 -0.606089 0
M  V30 8557 C 1166.75 8.25383 -0.938334 0
M  V30 8558 O 1167.49 8.74577 0.146954 0
M  V30 8559 C 1166.08 6.8802 -0.712559 0
M  V30 8560 O 1166.88 6.1181 0.188505 0
M  V30 8561 C 1164.74 7.27966 -0.139777 0
M  V30 8562 N 1163.7 6.39368 -0.623421 0
M  V30 8563 C 1163.87 5.71761 -1.78245 0
M  V30 8564 N 1162.84 4.962 -2.10491 0
M  V30 8565 C 1161.96 5.16158 -1.0635 0
M  V30 8566 C 1160.69 4.60425 -0.810266 0
M  V30 8567 N 1160.13 5.06 0.348685 0
M  V30 8568 C 1160.73 5.94532 1.20395 0
M  V30 8569 N 1161.91 6.48452 1.01191 0
M  V30 8570 C 1162.48 6.04423 -0.146291 0
M  V30 8571 H 1165.96 6.32625 -1.65044 0
M  V30 8572 H 1167.44 8.19355 -1.79097 0
M  V30 8573 H 1165.75 10.1305 -1.09016 0
M  V30 8574 H 1165.56 9.64276 -3.41316 0
M  V30 8575 H 1163.93 9.25417 -2.76357 0
M  V30 8576 H 1164.77 5.79354 -2.38959 0
M  V30 8577 H 1166.57 6.25169 1.0783 0
M  V30 8578 P 1168.43 8.791 9.41699e-12 0
M  V30 8579 O 1169.85 9.31096 0.027933 0
M  V30 8580 O 1168.07 7.77869 -1.04071 0
M  V30 8581 O 1168.1 8.09533 1.41463 0
M  V30 8582 C 1167.94 9.0349 2.53943 0
M  V30 8583 C 1168.48 8.35226 3.79016 0
M  V30 8584 O 1167.43 7.57992 4.15078 0
M  V30 8585 C 1169.7 7.45087 3.67298 0
M  V30 8586 O 1170.44 7.27796 4.85194 0
M  V30 8587 C 1169.03 6.17323 3.12027 0
M  V30 8588 O 1169.83 5.04231 3.47188 0
M  V30 8589 C 1167.69 6.19961 3.81809 0
M  V30 8590 H 1167.73 5.58218 4.73051 0
M  V30 8591 H 1168.91 6.21726 2.02589 0
M  V30 8592 H 1170.39 7.86112 2.9231 0
M  V30 8593 H 1168.7 9.11627 4.55076 0
M  V30 8594 H 1168.51 9.9573 2.34194 0
M  V30 8595 H 1166.88 9.2792 2.67832 0
M  V30 8596 H 1169.52 4.67702 4.28772 0
M  V30 8597 P 1171.38 7.39546 4.75277 0
M  V30 8598 O 1172.8 7.81861 5.05793 0
M  V30 8599 O 1171.02 7.1065 3.32998 0
M  V30 8600 O 1171.05 6.04542 5.56673 0
M  V30 8601 C 1170.89 6.22839 7.02169 0
M  V30 8602 C 1171.43 4.97725 7.70406 0
M  V30 8603 O 1170.38 4.13208 7.58899 0
M  V30 8604 C 1172.65 4.28231 7.11815 0
M  V30 8605 O 1173.39 3.49945 8.01648 0
M  V30 8606 C 1171.98 3.5063 5.96244 0
M  V30 8607 O 1172.78 2.37008 5.64352 0
M  V30 8608 C 1170.65 3.15122 6.56374 0
M  V30 8609 N 1169.6 3.22311 5.55692 0
M  V30 8610 C 1169.77 3.99655 4.46046 0
M  V30 8611 N 1168.74 3.97599 3.63918 0
M  V30 8612 C 1167.86 3.11159 4.25334 0
M  V30 8613 C 1166.59 2.64972 3.85157 0
M  V30 8614 N 1166.03 1.78482 4.74759 0
M  V30 8615 C 1166.63 1.37463 5.90819 0
M  V30 8616 N 1167.81 1.7733 6.31889 0
M  V30 8617 C 1168.38 2.64393 5.43725 0
M  V30 8618 H 1171.86 4.12931 5.06895 0
M  V30 8619 H 1173.34 5.03285 6.70911 0
M  V30 8620 H 1171.65 5.20001 8.76217 0
M  V30 8621 H 1171.46 7.11046 7.35349 0
M  V30 8622 H 1169.83 6.35815 7.26986 0
M  V30 8623 H 1170.67 4.58037 4.27732 0
M  V30 8624 H 1172.47 1.61619 6.13468 0
M  V30 8625 P 1174.33 3.65191 7.99657 0
M  V30 8626 O 1175.75 3.8425 8.48115 0
M  V30 8627 O 1173.97 4.17805 6.64342 0
M  V30 8628 O 1174 2.07613 7.95143 0
M  V30 8629 C 1173.84 1.44328 9.27336 0
M  V30 8630 C 1174.38 0.0220036 9.17197 0
M  V30 8631 O 1173.33 -0.626867 8.61923 0
M  V30 8632 C 1175.6 -0.24586 8.30336 0
M  V30 8633 O 1176.34 -1.39011 8.63583 0
M  V30 8634 C 1174.93 -0.273849 6.91158 0
M  V30 8635 O 1175.73 -1.06348 6.02892 0
M  V30 8636 C 1173.6 -0.897649 7.22545 0
M  V30 8637 H 1173.63 -1.9841 7.04286 0
M  V30 8638 H 1174.81 0.739928 6.497 0
M  V30 8639 H 1176.29 0.60668 8.36503 0
M  V30 8640 H 1174.6 -0.352479 10.1829 0
M  V30 8641 H 1174.41 2.00611 10.0304 0
M  V30 8642 H 1172.78 1.41843 9.55327 0
M  V30 8643 H 1175.42 -1.95734 6.03555 0
M  V30 8644 P 1177.28 -1.25109 8.70152 0
M  V30 8645 O 1178.7 -1.35274 9.21221 0
M  V30 8646 O 1176.92 -0.0769065 7.84762 0
M  V30 8647 O 1176.95 -2.55232 7.81161 0
M  V30 8648 C 1176.79 -3.79939 8.58154 0
M  V30 8649 C 1177.33 -4.94023 7.72785 0
M  V30 8650 O 1176.28 -5.18726 6.91205 0
M  V30 8651 C 1178.55 -4.69597 6.85231 0
M  V30 8652 O 1179.29 -5.83832 6.51337 0
M  V30 8653 C 1177.88 -3.96706 5.66633 0
M  V30 8654 O 1178.68 -4.15414 4.49689 0
M  V30 8655 C 1176.55 -4.66153 5.59313 0
M  V30 8656 H 1176.58 -5.47679 4.85214 0
M  V30 8657 H 1177.76 -2.89008 5.86566 0
M  V30 8658 H 1179.25 -4.0121 7.36511 0
M  V30 8659 H 1177.55 -5.80182 8.37584 0
M  V30 8660 H 1177.36 -3.73517 9.52265 0
M  V30 8661 H 1175.73 -3.97163 8.80359 0
M  V30 8662 H 1178.37 -4.90969 4.01921 0
M  V30 8663 P 1180.23 -5.75688 6.64379 0
M  V30 8664 O 1181.65 -6.11849 7.01846 0
M  V30 8665 O 1179.87 -4.30744 6.56026 0
M  V30 8666 O 1179.9 -6.37042 5.19165 0
M  V30 8667 C 1179.74 -7.83578 5.16515 0
M  V30 8668 C 1180.28 -8.33398 3.83019 0
M  V30 8669 O 1179.23 -8.10074 3.01034 0
M  V30 8670 C 1181.5 -7.65514 3.2257 0
M  V30 8671 O 1182.24 -8.4329 2.32297 0
M  V30 8672 C 1180.83 -6.40075 2.62207 0
M  V30 8673 O 1181.63 -5.92589 1.53712 0
M  V30 8674 C 1179.5 -6.9454 2.18503 0
M  V30 8675 H 1179.53 -7.23063 1.12091 0
M  V30 8676 H 1180.71 -5.6025 3.37201 0
M  V30 8677 H 1182.2 -7.35707 4.02681 0
M  V30 8678 H 1180.5 -9.40912 3.9095 0
M  V30 8679 H 1180.31 -8.29056 5.99158 0
M  V30 8680 H 1178.68 -8.10073 5.25882 0
M  V30 8681 H 1181.32 -6.30324 0.726794 0
M  V30 8682 P 1183.18 -8.4349 2.47671 0
M  V30 8683 O 1184.6 -8.94167 2.5964 0
M  V30 8684 O 1182.82 -7.1704 3.19006 0
M  V30 8685 O 1182.86 -8.16596 0.923387 0
M  V30 8686 C 1182.7 -9.38437 0.108857 0
M  V30 8687 C 1183.24 -9.08175 -1.28353 0
M  V30 8688 O 1182.18 -8.44229 -1.84713 0
M  V30 8689 C 1184.45 -8.18386 -1.42505 0
M  V30 8690 O 1185.19 -8.3501 -2.60497 0
M  V30 8691 C 1183.78 -6.80225 -1.25468 0
M  V30 8692 O 1184.58 -5.81621 -1.91066 0
M  V30 8693 C 1182.45 -7.02416 -1.9168 0
M  V30 8694 H 1182.48 -6.6888 -2.96621 0
M  V30 8695 H 1183.66 -6.53617 -0.192223 0
M  V30 8696 H 1185.15 -8.36622 -0.589963 0
M  V30 8697 H 1183.45 -10.0291 -1.79807 0
M  V30 8698 H 1183.26 -10.2138 0.558219 0
M  V30 8699 H 1181.63 -9.6579 0.0444202 0
M  V30 8700 H 1184.27 -5.69556 -2.79637 0
M  V30 8701 P 1186.13 -8.4349 -2.47671 0
M  V30 8702 O 1187.55 -8.92593 -2.65 0
M  V30 8703 O 1185.77 -7.7568 -1.19296 0
M  V30 8704 O 1185.81 -7.36886 -3.63805 0
M  V30 8705 C 1185.65 -7.95349 -4.982 0
M  V30 8706 C 1186.19 -6.94612 -5.98974 0
M  V30 8707 O 1185.13 -6.10347 -6.11815 0
M  V30 8708 C 1187.4 -6.11426 -5.62335 0
M  V30 8709 O 1188.14 -5.6162 -6.70584 0
M  V30 8710 C 1186.74 -5.04409 -4.73308 0
M  V30 8711 O 1187.53 -3.85992 -4.75183 0
M  V30 8712 C 1185.4 -4.8728 -5.41006 0
M  V30 8713 H 1185.43 -4.02333 -6.11157 0
M  V30 8714 H 1186.61 -5.39466 -3.69543 0
M  V30 8715 H 1188.1 -6.71916 -5.01943 0
M  V30 8716 H 1186.4 -7.4649 -6.93477 0
M  V30 8717 H 1186.21 -8.89416 -5.05237 0
M  V30 8718 H 1184.58 -8.14876 -5.18409 0
M  V30 8719 H 1187.22 -3.27957 -5.4317 0
M  V30 8720 P 1189.08 -5.75688 -6.64379 0
M  V30 8721 O 1190.5 -6.07692 -7.0558 0
M  V30 8722 O 1188.72 -5.88047 -5.19722 0
M  V30 8723 O 1188.76 -4.2322 -7.04443 0
M  V30 8724 C 1188.6 -3.99785 -8.49201 0
M  V30 8725 C 1189.14 -2.60516 -8.79425 0
M  V30 8726 O 1188.08 -1.82663 -8.44573 0
M  V30 8727 C 1190.35 -2.10343 -8.03628 0
M  V30 8728 O 1191.09 -1.09919 -8.67766 0
M  V30 8729 C 1189.69 -1.68446 -6.70876 0
M  V30 8730 O 1190.48 -0.684109 -6.08265 0
M  V30 8731 C 1188.35 -1.17436 -7.18567 0
M  V30 8732 N 1187.31 -1.52699 -6.23988 0
M  V30 8733 C 1187.47 -2.578 -5.40574 0
M  V30 8734 N 1186.45 -2.78966 -4.61193 0
M  V30 8735 C 1185.56 -1.78725 -4.95769 0
M  V30 8736 C 1184.3 -1.45727 -4.44207 0
M  V30 8737 N 1183.7 -2.13994 -3.43613 0
M  V30 8738 N 1183.73 -0.374977 -5.05812 0
M  V30 8739 C 1184.33 0.345585 -6.05615 0
M  V30 8740 N 1185.51 0.0787651 -6.56253 0
M  V30 8741 C 1186.08 -1.00499 -5.96189 0
M  V30 8742 H 1188.38 -0.0804622 -7.31556 0
M  V30 8743 H 1189.56 -2.53396 -6.02698 0
M  V30 8744 H 1191.05 -2.93881 -7.85526 0
M  V30 8745 H 1189.35 -2.52078 -9.87225 0
M  V30 8746 H 1189.16 -4.75072 -9.05887 0
M  V30 8747 H 1187.53 -4.05244 -8.76668 0
M  V30 8748 H 1183.8 1.20098 -6.4532 0
M  V30 8749 H 1188.37 -3.18977 -5.3945 0
M  V30 8750 H 1182.77 -1.84983 -3.10004 0
M  V30 8751 H 1184.17 -2.9465 -3.00843 0
M  V30 8752 H 1190.17 0.177619 -6.34151 0
M  V30 8753 P 1192.03 -1.25109 -8.70152 0
M  V30 8754 O 1193.45 -1.29744 -9.22016 0
M  V30 8755 O 1191.67 -2.13714 -7.55141 0
M  V30 8756 O 1191.71 0.248149 -8.21425 0
M  V30 8757 C 1191.55 1.22779 -9.30434 0
M  V30 8758 C 1192.09 2.56293 -8.80664 0
M  V30 8759 O 1191.03 3.02979 -8.09349 0
M  V30 8760 C 1193.31 2.57523 -7.89775 0
M  V30 8761 O 1194.04 3.7668 -7.89438 0
M  V30 8762 C 1192.64 2.20997 -6.55446 0
M  V30 8763 O 1193.44 2.71895 -5.48509 0
M  V30 8764 C 1191.3 2.89693 -6.67988 0
M  V30 8765 H 1191.33 3.88793 -6.19859 0
M  V30 8766 H 1192.51 1.12046 -6.44229 0
M  V30 8767 H 1194 1.7746 -8.19711 0
M  V30 8768 H 1192.3 3.20706 -9.67112 0
M  V30 8769 H 1192.11 0.901032 -10.1892 0
M  V30 8770 H 1190.48 1.33049 -9.56592 0
M  V30 8771 H 1193.12 3.57847 -5.23962 0
M  V30 8772 P 1194.98 3.65191 -7.99657 0
M  V30 8773 O 1196.4 3.89374 -8.45885 0
M  V30 8774 O 1194.62 2.28472 -7.50807 0
M  V30 8775 O 1194.66 4.64972 -6.77611 0
M  V30 8776 C 1194.5 6.06383 -7.16428 0
M  V30 8777 C 1195.04 6.91731 -6.02299 0
M  V30 8778 O 1193.98 6.92369 -5.17005 0
M  V30 8779 C 1196.26 6.43627 -5.25174 0
M  V30 8780 O 1196.99 7.43686 -4.60469 0
M  V30 8781 C 1195.59 5.40275 -4.31916 0
M  V30 8782 O 1196.39 5.24878 -3.14911 0
M  V30 8783 C 1194.25 6.04847 -4.05327 0
M  V30 8784 N 1193.21 5.04166 -3.98114 0
M  V30 8785 C 1193.38 3.84629 -4.59066 0
M  V30 8786 N 1192.35 3.0363 -4.45343 0
M  V30 8787 C 1191.46 3.76722 -3.68523 0
M  V30 8788 C 1190.2 3.43528 -3.17088 0
M  V30 8789 N 1189.63 4.44526 -2.44231 0
M  V30 8790 C 1190.23 5.65243 -2.20146 0
M  V30 8791 N 1191.41 6.00221 -2.65453 0
M  V30 8792 C 1191.99 5.00564 -3.39083 0
M  V30 8793 H 1195.46 4.42969 -4.80867 0
M  V30 8794 H 1196.95 5.92458 -5.93643 0
M  V30 8795 H 1195.25 7.93295 -6.39407 0
M  V30 8796 H 1195.06 6.26671 -8.0846 0
M  V30 8797 H 1193.43 6.29101 -7.32804 0
M  V30 8798 H 1194.28 3.58193 -5.14248 0
M  V30 8799 H 1196.07 5.84223 -2.47279 0
M  V30 8800 P 1197.93 7.39546 -4.75277 0
M  V30 8801 O 1199.35 7.84798 -5.01039 0
M  V30 8802 O 1197.57 5.9812 -5.08098 0
M  V30 8803 O 1197.61 7.57503 -3.1866 0
M  V30 8804 C 1197.45 8.97357 -2.74833 0
M  V30 8805 C 1197.99 9.07548 -1.32709 0
M  V30 8806 O 1196.93 8.62072 -0.606159 0
M  V30 8807 C 1199.21 8.25383 -0.938334 0
M  V30 8808 O 1199.94 8.74577 0.146954 0
M  V30 8809 C 1198.54 6.8802 -0.712559 0
M  V30 8810 O 1199.34 6.1189 0.194655 0
M  V30 8811 C 1197.2 7.27966 -0.139777 0
M  V30 8812 H 1197.23 7.25354 0.961601 0
M  V30 8813 H 1198.42 6.32557 -1.65702 0
M  V30 8814 H 1199.9 8.19355 -1.79097 0
M  V30 8815 H 1198.21 10.1294 -1.10029 0
M  V30 8816 H 1198.02 9.64276 -3.41316 0
M  V30 8817 H 1196.39 9.25417 -2.76357 0
M  V30 8818 H 1199.02 6.25267 1.07847 0
M  V30 8819 P 1200.88 8.791 9.72715e-12 0
M  V30 8820 O 1202.3 9.31096 0.027933 0
M  V30 8821 O 1200.52 7.77869 -1.04071 0
M  V30 8822 O 1200.56 8.09533 1.41463 0
M  V30 8823 C 1200.4 9.0349 2.53943 0
M  V30 8824 C 1200.94 8.35226 3.79016 0
M  V30 8825 O 1199.88 7.57992 4.15078 0
M  V30 8826 C 1202.16 7.45087 3.67298 0
M  V30 8827 O 1202.89 7.27796 4.85194 0
M  V30 8828 C 1201.49 6.17323 3.12027 0
M  V30 8829 O 1202.29 5.04231 3.47188 0
M  V30 8830 C 1200.15 6.19961 3.81809 0
M  V30 8831 H 1200.18 5.58218 4.73051 0
M  V30 8832 H 1201.37 6.21726 2.02589 0
M  V30 8833 H 1202.85 7.86112 2.9231 0
M  V30 8834 H 1201.16 9.11627 4.55076 0
M  V30 8835 H 1200.97 9.9573 2.34194 0
M  V30 8836 H 1199.34 9.2792 2.67832 0
M  V30 8837 H 1201.97 4.67702 4.28772 0
M  V30 8838 P 1203.83 7.39546 4.75277 0
M  V30 8839 O 1205.25 7.81777 5.05738 0
M  V30 8840 O 1203.47 7.1065 3.32998 0
M  V30 8841 O 1203.51 6.04542 5.56673 0
M  V30 8842 C 1203.35 6.22772 7.02095 0
M  V30 8843 C 1203.89 4.97725 7.70406 0
M  V30 8844 O 1202.83 4.13256 7.58987 0
M  V30 8845 C 1205.11 4.28231 7.11815 0
M  V30 8846 O 1205.85 3.49945 8.01648 0
M  V30 8847 C 1204.44 3.5063 5.96244 0
M  V30 8848 O 1205.24 2.36482 5.64681 0
M  V30 8849 C 1203.1 3.15122 6.56374 0
M  V30 8850 H 1203.13 2.13853 6.99751 0
M  V30 8851 H 1204.32 4.13501 5.06559 0
M  V30 8852 H 1205.8 5.03285 6.70911 0
M  V30 8853 H 1204.11 5.20877 8.75697 0
M  V30 8854 H 1203.92 7.11046 7.35349 0
M  V30 8855 H 1202.29 6.35815 7.26986 0
M  V30 8856 H 1204.93 1.61644 6.13565 0
M  V30 8857 P 1206.78 3.65191 7.99657 0
M  V30 8858 O 1208.18 3.90823 8.51272 0
M  V30 8859 O 1206.41 4.23191 6.66972 0
M  V30 8860 O 1206.46 2.07587 7.95046 0
M  V30 8861 C 1206.3 1.44328 9.27336 0
M  V30 8862 C 1206.84 0.0220012 9.17097 0
M  V30 8863 O 1205.78 -0.626794 8.61824 0
M  V30 8864 C 1208.06 -0.24586 8.30336 0
M  V30 8865 O 1208.8 -1.39011 8.63583 0
M  V30 8866 C 1207.39 -0.273849 6.91158 0
M  V30 8867 O 1208.19 -1.06331 6.02794 0
M  V30 8868 C 1206.05 -0.897649 7.22545 0
M  V30 8869 N 1205.01 -0.292839 6.41732 0
M  V30 8870 C 1203.97 -1.08701 5.98712 0
M  V30 8871 O 1204.01 -2.31211 6.24471 0
M  V30 8872 N 1202.96 -0.533391 5.28415 0
M  V30 8873 C 1203.01 0.770866 4.98576 0
M  V30 8874 C 1204.11 1.59049 5.38086 0
M  V30 8875 C 1205.07 1.01866 6.10256 0
M  V30 8876 H 1206.08 -1.98383 7.04189 0
M  V30 8877 H 1207.27 0.733318 6.49674 0
M  V30 8878 H 1208.75 0.598386 8.36663 0
M  V30 8879 H 1207.06 -0.362662 10.1825 0
M  V30 8880 H 1206.87 2.00611 10.0304 0
M  V30 8881 H 1205.24 1.41828 9.55228 0
M  V30 8882 H 1204.15 2.6415 5.10622 0
M  V30 8883 H 1205.92 1.61983 6.44042 0
M  V30 8884 H 1207.97 -1.97777 6.14035 0
M  V30 8885 P 1209.73 -1.25109 8.70152 0
M  V30 8886 O 1211.16 -1.35274 9.21221 0
M  V30 8887 O 1209.37 -0.0769065 7.84762 0
M  V30 8888 O 1209.41 -2.55232 7.81161 0
M  V30 8889 C 1209.25 -3.79939 8.58154 0
M  V30 8890 C 1209.79 -4.94023 7.72785 0
M  V30 8891 O 1208.73 -5.18726 6.91205 0
M  V30 8892 C 1211.01 -4.69597 6.85231 0
M  V30 8893 O 1211.75 -5.83832 6.51337 0
M  V30 8894 C 1210.34 -3.96706 5.66633 0
M  V30 8895 O 1211.14 -4.15414 4.49689 0
M  V30 8896 C 1209 -4.66153 5.59313 0
M  V30 8897 H 1209.03 -5.47679 4.85214 0
M  V30 8898 H 1210.22 -2.89008 5.86566 0
M  V30 8899 H 1211.7 -4.0121 7.36511 0
M  V30 8900 H 1210.01 -5.80182 8.37584 0
M  V30 8901 H 1209.82 -3.73517 9.52265 0
M  V30 8902 H 1208.19 -3.97163 8.80359 0
M  V30 8903 H 1210.83 -4.90969 4.01921 0
M  V30 8904 P 1212.68 -5.75688 6.64379 0
M  V30 8905 O 1214.11 -6.11849 7.01846 0
M  V30 8906 O 1212.32 -4.30744 6.56026 0
M  V30 8907 O 1212.36 -6.37042 5.19165 0
M  V30 8908 C 1212.2 -7.83578 5.16515 0
M  V30 8909 C 1212.74 -8.33398 3.83019 0
M  V30 8910 O 1211.69 -8.10074 3.01034 0
M  V30 8911 C 1213.96 -7.65514 3.2257 0
M  V30 8912 O 1214.7 -8.4329 2.32297 0
M  V30 8913 C 1213.29 -6.40075 2.62207 0
M  V30 8914 O 1214.09 -5.92589 1.53712 0
M  V30 8915 C 1211.95 -6.9454 2.18503 0
M  V30 8916 H 1211.99 -7.23063 1.12091 0
M  V30 8917 H 1213.17 -5.6025 3.37201 0
M  V30 8918 H 1214.65 -7.35707 4.02681 0
M  V30 8919 H 1212.96 -9.40912 3.9095 0
M  V30 8920 H 1212.77 -8.29056 5.99158 0
M  V30 8921 H 1211.14 -8.10073 5.25882 0
M  V30 8922 H 1213.78 -6.30324 0.726794 0
M  V30 8923 P 1215.63 -8.4349 2.47671 0
M  V30 8924 O 1217.06 -8.94167 2.5964 0
M  V30 8925 O 1215.27 -7.1704 3.19006 0
M  V30 8926 O 1215.31 -8.16596 0.923387 0
M  V30 8927 C 1215.15 -9.38437 0.108857 0
M  V30 8928 C 1215.69 -9.08175 -1.28353 0
M  V30 8929 O 1214.64 -8.44229 -1.84713 0
M  V30 8930 C 1216.91 -8.18386 -1.42505 0
M  V30 8931 O 1217.65 -8.3501 -2.60497 0
M  V30 8932 C 1216.24 -6.80225 -1.25468 0
M  V30 8933 O 1217.04 -5.81621 -1.91066 0
M  V30 8934 C 1214.9 -7.02416 -1.9168 0
M  V30 8935 H 1214.94 -6.6888 -2.96621 0
M  V30 8936 H 1216.12 -6.53617 -0.192223 0
M  V30 8937 H 1217.6 -8.36622 -0.589963 0
M  V30 8938 H 1215.91 -10.0291 -1.79807 0
M  V30 8939 H 1215.72 -10.2138 0.558219 0
M  V30 8940 H 1214.09 -9.6579 0.0444202 0
M  V30 8941 H 1216.73 -5.69556 -2.79637 0
M  V30 8942 P 1218.59 -8.4349 -2.47671 0
M  V30 8943 O 1220.01 -8.92689 -2.65029 0
M  V30 8944 O 1218.23 -7.7568 -1.19296 0
M  V30 8945 O 1218.26 -7.36886 -3.63805 0
M  V30 8946 C 1218.1 -7.95433 -4.98253 0
M  V30 8947 C 1218.64 -6.94612 -5.98974 0
M  V30 8948 O 1217.59 -6.10277 -6.11744 0
M  V30 8949 C 1219.86 -6.11426 -5.62335 0
M  V30 8950 O 1220.6 -5.6162 -6.70584 0
M  V30 8951 C 1219.19 -5.04409 -4.73308 0
M  V30 8952 O 1219.99 -3.86404 -4.74719 0
M  V30 8953 C 1217.85 -4.8728 -5.41006 0
M  V30 8954 N 1216.81 -4.65812 -4.42377 0
M  V30 8955 C 1216.98 -5.09132 -3.15382 0
M  V30 8956 N 1215.95 -4.84021 -2.3716 0
M  V30 8957 C 1215.07 -4.18386 -3.20441 0
M  V30 8958 C 1213.8 -3.6275 -2.94905 0
M  V30 8959 N 1213.24 -3.05008 -4.05243 0
M  V30 8960 C 1213.84 -2.98348 -5.28159 0
M  V30 8961 N 1215.02 -3.48171 -5.56333 0
M  V30 8962 C 1215.59 -4.06869 -4.47212 0
M  V30 8963 H 1219.07 -5.39013 -3.70026 0
M  V30 8964 H 1220.55 -6.71916 -5.01943 0
M  V30 8965 H 1218.86 -7.45796 -6.94223 0
M  V30 8966 H 1218.67 -8.89416 -5.05237 0
M  V30 8967 H 1217.04 -8.14876 -5.18409 0
M  V30 8968 H 1217.88 -5.59989 -2.81362 0
M  V30 8969 H 1219.68 -3.27906 -5.43085 0
M  V30 8970 P 1221.54 -5.75688 -6.64379 0
M  V30 8971 O 1222.96 -6.07627 -7.05504 0
M  V30 8972 O 1221.18 -5.88047 -5.19722 0
M  V30 8973 O 1221.21 -4.2322 -7.04443 0
M  V30 8974 C 1221.05 -3.99743 -8.4911 0
M  V30 8975 C 1221.59 -2.60516 -8.79425 0
M  V30 8976 O 1220.54 -1.82684 -8.4467 0
M  V30 8977 C 1222.81 -2.10343 -8.03628 0
M  V30 8978 O 1223.55 -1.09919 -8.67766 0
M  V30 8979 C 1222.14 -1.68446 -6.70876 0
M  V30 8980 O 1222.94 -0.678137 -6.08433 0
M  V30 8981 C 1220.8 -1.17436 -7.18567 0
M  V30 8982 H 1220.84 -0.0804732 -7.31656 0
M  V30 8983 H 1222.02 -2.54037 -6.02537 0
M  V30 8984 H 1223.5 -2.93881 -7.85526 0
M  V30 8985 H 1221.81 -2.53065 -9.86973 0
M  V30 8986 H 1221.62 -4.75072 -9.05887 0
M  V30 8987 H 1219.99 -4.05244 -8.76668 0
M  V30 8988 H 1222.63 0.177647 -6.34251 0
M  V30 8989 P 1224.49 -1.25109 -8.70152 0
M  V30 8990 O 1225.91 -1.29758 -9.22115 0
M  V30 8991 O 1224.13 -2.13714 -7.55141 0
M  V30 8992 O 1224.16 0.248149 -8.21425 0
M  V30 8993 C 1224 1.22792 -9.30533 0
M  V30 8994 C 1224.54 2.56293 -8.80664 0
M  V30 8995 O 1223.49 3.02944 -8.09255 0
M  V30 8996 C 1225.76 2.57523 -7.89775 0
M  V30 8997 O 1226.5 3.7668 -7.89438 0
M  V30 8998 C 1225.09 2.20997 -6.55446 0
M  V30 8999 O 1225.89 2.71302 -5.48691 0
M  V30 9000 C 1223.76 2.89693 -6.67988 0
M  V30 9001 N 1222.71 2.08895 -6.07487 0
M  V30 9002 C 1222.88 0.753809 -5.94137 0
M  V30 9003 N 1221.85 0.146592 -5.38801 0
M  V30 9004 C 1220.97 1.1768 -5.13693 0
M  V30 9005 C 1219.7 1.17563 -4.52477 0
M  V30 9006 N 1219.14 2.41918 -4.45789 0
M  V30 9007 C 1219.74 3.56493 -4.90792 0
M  V30 9008 N 1220.92 3.61423 -5.47817 0
M  V30 9009 C 1221.49 2.37779 -5.5588 0
M  V30 9010 H 1224.97 1.12673 -6.44018 0
M  V30 9011 H 1226.45 1.7746 -8.19711 0
M  V30 9012 H 1224.76 3.21673 -9.66791 0
M  V30 9013 H 1224.57 0.901032 -10.1892 0
M  V30 9014 H 1222.94 1.33049 -9.56592 0
M  V30 9015 H 1223.78 0.233081 -6.26266 0
M  V30 9016 H 1225.58 3.5779 -5.23879 0
M  V30 9017 P 1227.44 3.65191 -7.99657 0
M  V30 9018 O 1228.86 3.89332 -8.45794 0
M  V30 9019 O 1227.08 2.28472 -7.50807 0
M  V30 9020 O 1227.11 4.64972 -6.77611 0
M  V30 9021 C 1226.95 6.06319 -7.16352 0
M  V30 9022 C 1227.49 6.91731 -6.02299 0
M  V30 9023 O 1226.44 6.92449 -5.17064 0
M  V30 9024 C 1228.71 6.43627 -5.25174 0
M  V30 9025 O 1229.45 7.43686 -4.60469 0
M  V30 9026 C 1228.04 5.40275 -4.31916 0
M  V30 9027 O 1228.84 5.25279 -3.14438 0
M  V30 9028 C 1226.71 6.04847 -4.05327 0
M  V30 9029 H 1226.74 6.62195 -3.11261 0
M  V30 9030 H 1227.92 4.42556 -4.81383 0
M  V30 9031 H 1229.41 5.92458 -5.93643 0
M  V30 9032 H 1227.71 7.92655 -6.402 0
M  V30 9033 H 1227.52 6.26671 -8.0846 0
M  V30 9034 H 1225.89 6.29101 -7.32804 0
M  V30 9035 H 1228.53 5.84315 -2.47318 0
M  V30 9036 P 1230.39 7.39546 -4.75277 0
M  V30 9037 O 1231.81 7.84798 -5.01039 0
M  V30 9038 O 1230.03 5.9812 -5.08098 0
M  V30 9039 O 1230.06 7.57503 -3.1866 0
M  V30 9040 C 1229.9 8.97357 -2.74833 0
M  V30 9041 C 1230.44 9.07548 -1.32709 0
M  V30 9042 O 1229.39 8.62072 -0.606159 0
M  V30 9043 C 1231.66 8.25383 -0.938334 0
M  V30 9044 O 1232.4 8.74577 0.146954 0
M  V30 9045 C 1230.99 6.8802 -0.712559 0
M  V30 9046 O 1231.79 6.1189 0.194655 0
M  V30 9047 C 1229.66 7.27966 -0.139777 0
M  V30 9048 H 1229.69 7.25354 0.961601 0
M  V30 9049 H 1230.87 6.32557 -1.65702 0
M  V30 9050 H 1232.36 8.19355 -1.79097 0
M  V30 9051 H 1230.66 10.1294 -1.10029 0
M  V30 9052 H 1230.47 9.64276 -3.41316 0
M  V30 9053 H 1228.84 9.25417 -2.76357 0
M  V30 9054 H 1231.48 6.25267 1.07847 0
M  V30 9055 P 1233.34 8.791 1.00373e-11 0
M  V30 9056 O 1234.76 9.31196 0.027936 0
M  V30 9057 O 1232.98 7.77869 -1.04071 0
M  V30 9058 O 1233.02 8.09533 1.41463 0
M  V30 9059 C 1232.85 9.03587 2.5397 0
M  V30 9060 C 1233.4 8.35226 3.79016 0
M  V30 9061 O 1232.34 7.57904 4.1503 0
M  V30 9062 C 1234.61 7.45087 3.67298 0
M  V30 9063 O 1235.35 7.27796 4.85194 0
M  V30 9064 C 1233.95 6.17323 3.12027 0
M  V30 9065 O 1234.74 5.04496 3.46627 0
M  V30 9066 C 1232.61 6.19961 3.81809 0
M  V30 9067 N 1231.56 5.71575 2.93223 0
M  V30 9068 C 1231.73 5.77362 1.59168 0
M  V30 9069 N 1230.71 5.3123 0.911893 0
M  V30 9070 C 1229.82 4.91717 1.89588 0
M  V30 9071 C 1228.55 4.3114 1.8076 0
M  V30 9072 N 1227.99 4.06823 3.02898 0
M  V30 9073 C 1228.59 4.35062 4.22711 0
M  V30 9074 N 1229.77 4.90805 4.35707 0
M  V30 9075 C 1230.34 5.16382 3.14469 0
M  V30 9076 H 1233.82 6.21428 2.0318 0
M  V30 9077 H 1235.31 7.86112 2.9231 0
M  V30 9078 H 1233.61 9.11171 4.55987 0
M  V30 9079 H 1233.42 9.9573 2.34194 0
M  V30 9080 H 1231.79 9.2792 2.67832 0
M  V30 9081 H 1232.63 6.16575 1.12198 0
M  V30 9082 H 1234.43 4.67628 4.28704 0
M  V30 9083 P 1236.29 7.39546 4.75277 0
M  V30 9084 O 1237.71 7.81777 5.05738 0
M  V30 9085 O 1235.93 7.1065 3.32998 0
M  V30 9086 O 1235.97 6.04542 5.56673 0
M  V30 9087 C 1235.81 6.22772 7.02095 0
M  V30 9088 C 1236.35 4.97725 7.70406 0
M  V30 9089 O 1235.29 4.13256 7.58987 0
M  V30 9090 C 1237.56 4.28231 7.11815 0
M  V30 9091 O 1238.3 3.49945 8.01648 0
M  V30 9092 C 1236.89 3.5063 5.96244 0
M  V30 9093 O 1237.69 2.36482 5.64681 0
M  V30 9094 C 1235.56 3.15122 6.56374 0
M  V30 9095 H 1235.59 2.13853 6.99751 0
M  V30 9096 H 1236.77 4.13501 5.06559 0
M  V30 9097 H 1238.26 5.03285 6.70911 0
M  V30 9098 H 1236.56 5.20877 8.75697 0
M  V30 9099 H 1236.37 7.11046 7.35349 0
M  V30 9100 H 1234.74 6.35815 7.26986 0
M  V30 9101 H 1237.38 1.61644 6.13565 0
M  V30 9102 P 1239.24 3.65191 7.99657 0
M  V30 9103 O 1240.66 3.8425 8.48115 0
M  V30 9104 O 1238.88 4.17805 6.64342 0
M  V30 9105 O 1238.92 2.07613 7.95143 0
M  V30 9106 C 1238.76 1.44328 9.27336 0
M  V30 9107 C 1239.3 0.0220036 9.17197 0
M  V30 9108 O 1238.24 -0.626867 8.61923 0
M  V30 9109 C 1240.51 -0.24586 8.30336 0
M  V30 9110 O 1241.25 -1.39011 8.63583 0
M  V30 9111 C 1239.85 -0.273849 6.91158 0
M  V30 9112 O 1240.64 -1.06348 6.02892 0
M  V30 9113 C 1238.51 -0.897649 7.22545 0
M  V30 9114 H 1238.54 -1.9841 7.04286 0
M  V30 9115 H 1239.72 0.739928 6.497 0
M  V30 9116 H 1241.21 0.60668 8.36503 0
M  V30 9117 H 1239.51 -0.352479 10.1829 0
M  V30 9118 H 1239.32 2.00611 10.0304 0
M  V30 9119 H 1237.69 1.41843 9.55327 0
M  V30 9120 H 1240.33 -1.95734 6.03555 0
M  V30 9121 P 1242.19 -1.25109 8.70152 0
M  V30 9122 O 1243.61 -1.35274 9.21221 0
M  V30 9123 O 1241.83 -0.0769065 7.84762 0
M  V30 9124 O 1241.87 -2.55232 7.81161 0
M  V30 9125 C 1241.71 -3.79939 8.58154 0
M  V30 9126 C 1242.25 -4.94023 7.72785 0
M  V30 9127 O 1241.19 -5.18726 6.91205 0
M  V30 9128 C 1243.46 -4.69597 6.85231 0
M  V30 9129 O 1244.2 -5.83832 6.51337 0
M  V30 9130 C 1242.8 -3.96706 5.66633 0
M  V30 9131 O 1243.59 -4.15414 4.49689 0
M  V30 9132 C 1241.46 -4.66153 5.59313 0
M  V30 9133 H 1241.49 -5.47679 4.85214 0
M  V30 9134 H 1242.67 -2.89008 5.86566 0
M  V30 9135 H 1244.16 -4.0121 7.36511 0
M  V30 9136 H 1242.46 -5.80182 8.37584 0
M  V30 9137 H 1242.27 -3.73517 9.52265 0
M  V30 9138 H 1240.64 -3.97163 8.80359 0
M  V30 9139 H 1243.28 -4.90969 4.01921 0
M  V30 9140 P 1245.14 -5.75688 6.64379 0
M  V30 9141 O 1246.56 -6.11849 7.01846 0
M  V30 9142 O 1244.78 -4.30744 6.56026 0
M  V30 9143 O 1244.82 -6.37042 5.19165 0
M  V30 9144 C 1244.66 -7.83578 5.16515 0
M  V30 9145 C 1245.2 -8.33398 3.83019 0
M  V30 9146 O 1244.14 -8.10074 3.01034 0
M  V30 9147 C 1246.42 -7.65514 3.2257 0
M  V30 9148 O 1247.15 -8.4329 2.32297 0
M  V30 9149 C 1245.75 -6.40075 2.62207 0
M  V30 9150 O 1246.55 -5.92589 1.53712 0
M  V30 9151 C 1244.41 -6.9454 2.18503 0
M  V30 9152 H 1244.44 -7.23063 1.12091 0
M  V30 9153 H 1245.62 -5.6025 3.37201 0
M  V30 9154 H 1247.11 -7.35707 4.02681 0
M  V30 9155 H 1245.41 -9.40912 3.9095 0
M  V30 9156 H 1245.22 -8.29056 5.99158 0
M  V30 9157 H 1243.59 -8.10073 5.25882 0
M  V30 9158 H 1246.23 -6.30324 0.726794 0
M  V30 9159 H 1248.79 -7.89832 2.35522 0
M  V30 END ATOM
M  V30 BEGIN BOND
M  V30 END BOND
M  V30 END CTAB
M  END
$$$$
