drugbank_target|Q5SKH7 ATP sulfurylase (Sulfate adenylyltransferase) (DB03708)
 OpenBabel12092120283D

  0  0  0     0  0            999 V3000
M  V30 BEGIN CTAB
M  V30 COUNTS 5535 5605 0 0 0
M  V30 BEGIN ATOM
M  V30 1 H -0.908 1.98254 -0.117106 0
M  V30 2 N 0 1.576 0 0
M  V30 3 C 0.933 2.03868 1.02534 0
M  V30 4 C 1.911 0.928543 1.3348 0
M  V30 5 O 3.095 1.19667 1.45644 0
M  V30 6 C 0.222 2.43627 2.35294 0
M  V30 7 C -0.732 3.65373 2.2001 0
M  V30 8 S 0.101 5.13292 1.52614 0
M  V30 9 C 1.257 5.56322 2.86805 0
M  V30 10 H 1.49 2.90518 0.631377 0
M  V30 11 H -0.977 1.52953 0.210867 0
M  V30 12 H 0.981 2.67203 3.11629 0
M  V30 13 H -0.358 1.57376 2.7183 0
M  V30 14 H -1.165 3.90944 3.18086 0
M  V30 15 H -1.563 3.418 1.51819 0
M  V30 16 H 0.729 5.58782 3.83104 0
M  V30 17 H 1.672 6.56266 2.65933 0
M  V30 18 H 2.08 4.83886 2.90714 0
M  V30 19 N 1.4781 -0.272755 1.55222 0
M  V30 20 C 2.7241 -1.00581 1.761 0
M  V30 21 C 3.0571 -1.85932 0.560625 0
M  V30 22 O 2.3321 -1.89416 -0.441801 0
M  V30 23 C 2.6151 -1.88816 3.06628 0
M  V30 24 C 2.4681 -1.06457 4.37021 0
M  V30 25 C 3.7871 -2.8752 3.33197 0
M  V30 26 H 0.9061 -0.364244 0.640699 0
M  V30 27 H 3.5481 -0.278189 1.87952 0
M  V30 28 H 1.6981 -2.50856 2.96654 0
M  V30 29 H 3.3701 -0.464863 4.58952 0
M  V30 30 H 1.6131 -0.368043 4.32236 0
M  V30 31 H 2.2841 -1.71514 5.24678 0
M  V30 32 H 4.7601 -2.35615 3.42965 0
M  V30 33 H 3.6361 -3.46399 4.25792 0
M  V30 34 H 3.8971 -3.62657 2.52849 0
M  V30 35 N 2.9562 -1.48159 -0.537278 0
M  V30 36 C 3.8662 -1.64807 -1.6696 0
M  V30 37 C 4.8822 -0.530651 -1.65711 0
M  V30 38 O 6.0582 -0.800784 -1.84796 0
M  V30 39 C 3.1232 -1.67708 -3.03438 0
M  V30 40 C 2.1842 -2.91025 -3.156 0
M  V30 41 C 1.4172 -2.93778 -4.45567 0
M  V30 42 O 1.6402 -2.05153 -5.3223 0
M  V30 43 O 0.5742 -3.85868 -4.61941 0
M  V30 44 H 4.4002 -2.6066 -1.55853 0
M  V30 45 H 1.9852 -1.31475 -0.709549 0
M  V30 46 H 3.8672 -1.7218 -3.84619 0
M  V30 47 H 2.5422 -0.750278 -3.14885 0
M  V30 48 H 1.4492 -2.92089 -2.33741 0
M  V30 49 H 2.7822 -3.83065 -3.09066 0
M  V30 50 N 4.4343 0.785586 -1.36625 0
M  V30 51 C 5.6623 1.57448 -1.3423 0
M  V30 52 C 6.0773 1.88649 0.0755653 0
M  V30 53 O 5.4343 1.50414 1.03354 0
M  V30 54 C 5.4853 2.89316 -2.16745 0
M  V30 55 O 5.2063 2.59459 -3.53005 0
M  V30 56 C 6.7073 3.83606 -2.22174 0
M  V30 57 H 3.9273 0.488226 -0.4603 0
M  V30 58 H 6.4713 0.974733 -1.79775 0
M  V30 59 H 4.6263 3.4575 -1.74745 0
M  V30 60 H 5.0403 3.43804 -3.96105 0
M  V30 61 H 6.5143 4.73181 -2.8426 0
M  V30 62 H 6.9913 4.21734 -1.22627 0
M  V30 63 H 7.5973 3.33104 -2.64427 0
M  V30 64 N 5.9124 1.20967 1.01018 0
M  V30 65 C 6.8424 0.988272 2.11555 0
M  V30 66 C 7.8234 -0.0849778 1.69888 0
M  V30 67 O 9.0084 0.0738202 1.9406 0
M  V30 68 C 6.1384 0.546528 3.42973 0
M  V30 69 C 5.0924 1.56375 3.9841 0
M  V30 70 C 4.4184 0.97842 5.25672 0
M  V30 71 C 5.7184 2.94922 4.31066 0
M  V30 72 H 7.4124 1.91276 2.30334 0
M  V30 73 H 4.9584 0.921073 1.1069 0
M  V30 74 H 6.9114 0.378839 4.19694 0
M  V30 75 H 5.6354 -0.413598 3.23971 0
M  V30 76 H 4.2944 1.71891 3.23804 0
M  V30 77 H 3.9424 0.0101688 5.02999 0
M  V30 78 H 3.6424 1.65784 5.63728 0
M  V30 79 H 5.1664 0.821939 6.05043 0
M  V30 80 H 6.5804 2.8288 4.9865 0
M  V30 81 H 4.9774 3.5983 4.80253 0
M  V30 82 H 6.0474 3.4616 3.39561 0
M  V30 83 N 7.3905 -1.2043 1.01659 0
M  V30 84 C 8.8015 -1.71517 0.737482 0
M  V30 85 C 9.1525 -1.81547 -0.743973 0
M  V30 86 O 8.2775 -1.47803 -1.58061 0
M  V30 87 C 8.8725 -3.11515 1.33206 0
M  V30 88 C 7.4315 -3.59912 1.10183 0
M  V30 89 C 6.5785 -2.37116 1.43776 0
M  V30 90 H 9.5295 -1.05444 1.18606 0
M  V30 91 H 9.5505 -3.73575 0.722636 0
M  V30 92 H 9.0625 -3.04182 2.41028 0
M  V30 93 H 7.1635 -3.72577 0.0412756 0
M  V30 94 H 7.2765 -4.44731 1.78188 0
M  V30 95 H 5.6405 -2.39857 0.856778 0
M  V30 96 H 6.4235 -2.32424 2.52654 0
M  V30 97 N 8.8686 -0.792821 -1.36206 0
M  V30 98 C 9.8316 -0.199459 -2.2833 0
M  V30 99 C 10.8316 0.605189 -1.48977 0
M  V30 100 O 12.0216 0.425685 -1.68919 0
M  V30 101 C 9.1536 0.723523 -3.33134 0
M  V30 102 H 10.3466 -1.01181 -2.82316 0
M  V30 103 H 7.8996 -0.562485 -1.45828 0
M  V30 104 H 8.6346 1.56008 -2.84309 0
M  V30 105 H 8.4196 0.148436 -3.91819 0
M  V30 106 H 9.9096 1.13344 -4.01924 0
M  V30 107 N 10.3467 1.47872 -0.545128 0
M  V30 108 C 11.2767 2.32661 0.197793 0
M  V30 109 C 12.2577 1.43041 0.920504 0
M  V30 110 O 13.4427 1.71912 0.90333 0
M  V30 111 C 10.5727 3.24569 1.23582 0
M  V30 112 C 9.5267 4.23333 0.630323 0
M  V30 113 C 8.8527 5.0448 1.77211 0
M  V30 114 C 10.1527 5.20704 -0.407974 0
M  V30 115 H 11.8467 2.95024 -0.510045 0
M  V30 116 H 9.3927 1.4187 -0.246731 0
M  V30 117 H 11.3457 3.8272 1.76362 0
M  V30 118 H 10.0697 2.60236 1.97344 0
M  V30 119 H 8.7287 3.6639 0.123922 0
M  V30 120 H 8.3767 4.36561 2.49847 0
M  V30 121 H 8.0767 5.71339 1.37281 0
M  V30 122 H 9.6007 5.65487 2.3034 0
M  V30 123 H 11.0147 5.7329 0.033305 0
M  V30 124 H 9.4117 5.95699 -0.725486 0
M  V30 125 H 10.4817 4.66917 -1.30828 0
M  V30 126 N 11.8248 0.280983 1.55075 0
M  V30 127 C 12.7348 -0.61388 2.26426 0
M  V30 128 C 13.7508 -1.16521 1.29224 0
M  V30 129 O 14.9268 -1.19426 1.62171 0
M  V30 130 C 11.9918 -1.7788 2.9759 0
M  V30 131 C 11.0528 -1.26355 4.10284 0
M  V30 132 C 10.2858 -2.37295 4.78045 0
M  V30 133 O 10.5088 -3.56777 4.45047 0
M  V30 134 O 9.4428 -2.05119 5.65871 0
M  V30 135 H 13.2688 -0.0356932 3.03679 0
M  V30 136 H 10.8538 0.0481686 1.49322 0
M  V30 137 H 12.7358 -2.45791 3.42293 0
M  V30 138 H 11.4108 -2.34397 2.23249 0
M  V30 139 H 10.3178 -0.550735 3.70024 0
M  V30 140 H 11.6508 -0.744065 4.86543 0
M  V30 141 N 13.3029 -1.57598 0.00835791 0
M  V30 142 C 14.5519 -1.90107 -0.673968 0
M  V30 143 C 14.8649 -0.884275 -1.7447 0
M  V30 144 O 16.0709 -1.09987 -2.48224 0
M  V30 145 C 14.5269 -3.37497 -1.24995 0
M  V30 146 C 14.1349 -4.47491 -0.2136 0
M  V30 147 C 15.8789 -3.79104 -1.90999 0
M  V30 148 C 13.7859 -5.85963 -0.80005 0
M  V30 149 H 12.7159 -0.709393 -0.255495 0
M  V30 150 H 15.3669 -1.83365 0.0702693 0
M  V30 151 H 13.7489 -3.39102 -2.04513 0
M  V30 152 H 14.9229 -4.57414 0.557596 0
M  V30 153 H 13.2379 -4.14956 0.346474 0
M  V30 154 H 15.8349 -4.79901 -2.35795 0
M  V30 155 H 16.1779 -3.1306 -2.74407 0
M  V30 156 H 16.7109 -3.79833 -1.18203 0
M  V30 157 H 13.4499 -6.555 -0.00456708 0
M  V30 158 H 12.9699 -5.79687 -1.54021 0
M  V30 159 H 14.6489 -6.33884 -1.29615 0
M  V30 160 N 14.781 0.264519 -1.55364 0
M  V30 161 C 16.029 0.993021 -1.76021 0
M  V30 162 C 16.35 1.86511 -0.569099 0
M  V30 163 O 15.62 1.91438 0.415735 0
M  V30 164 H 14.2 0.369639 -0.649135 0
M  V30 165 H 16.862 0.286707 -1.9278 0
M  V30 166 H 15.958 1.62502 -2.66457 0
M  V30 167 N 16.2591 1.48442 0.529413 0
M  V30 168 C 17.1691 1.6569 1.66084 0
M  V30 169 C 18.1851 0.539432 1.65427 0
M  V30 170 O 19.3611 0.810572 1.84368 0
M  V30 171 C 16.4261 1.69315 3.02545 0
M  V30 172 C 15.4871 2.92694 3.14052 0
M  V30 173 C 14.7201 2.96137 4.44003 0
M  V30 174 O 14.9431 2.07973 5.31134 0
M  V30 175 O 13.8771 3.88312 4.59888 0
M  V30 176 H 17.7031 2.61483 1.54469 0
M  V30 177 H 15.2881 1.3185 0.702567 0
M  V30 178 H 17.1701 1.74217 3.83701 0
M  V30 179 H 15.8451 0.766966 3.14483 0
M  V30 180 H 14.7521 2.93324 2.32189 0
M  V30 181 H 16.0851 3.84699 3.0703 0
M  V30 182 N 17.7372 -0.778329 1.37039 0
M  V30 183 C 19.0142 -1.52551 1.22424 0
M  V30 184 C 19.3942 -2.10288 -0.184964 0
M  V30 185 O 18.7422 -1.94953 -1.19187 0
M  V30 186 C 18.9522 -2.61164 2.31504 0
M  V30 187 C 20.3002 -3.28746 2.68721 0
M  V30 188 O 21.3242 -2.71455 2.30631 0
M  V30 189 O 20.1832 -4.3231 3.3432 0
M  V30 190 H 17.2772 -0.675343 0.477326 0
M  V30 191 H 19.8232 -0.815859 1.48801 0
M  V30 192 H 18.5952 -2.16574 3.25901 0
M  V30 193 H 18.2182 -3.39737 2.06554 0
M  V30 194 N 19.2153 -1.21501 -1.00376 0
M  V30 195 C 20.1253 -0.991447 -2.12621 0
M  V30 196 C 21.1413 0.0568446 -1.73907 0
M  V30 197 O 22.3173 -0.13348 -2.00957 0
M  V30 198 C 19.3823 -0.560312 -3.42142 0
M  V30 199 C 18.4433 -1.68096 -3.95022 0
M  V30 200 C 17.6763 -1.2703 -5.18362 0
M  V30 201 O 17.8993 -0.144438 -5.70217 0
M  V30 202 O 16.8333 -2.08269 -5.64719 0
M  V30 203 H 20.6593 -1.93158 -2.34358 0
M  V30 204 H 18.2443 -0.999999 -1.10997 0
M  V30 205 H 20.1263 -0.329724 -4.20108 0
M  V30 206 H 18.8013 0.351089 -3.2179 0
M  V30 207 H 17.7083 -1.96597 -3.18278 0
M  V30 208 H 19.0413 -2.56983 -4.19786 0
M  V30 209 N 20.6934 1.19889 -1.02296 0
M  V30 210 C 22.1094 1.41462 -0.738954 0
M  V30 211 C 22.3094 1.89721 0.678846 0
M  V30 212 O 21.3654 2.07016 1.4457 0
M  V30 213 C 22.6784 2.43083 -1.77005 0
M  V30 214 C 24.2264 2.5684 -1.78892 0
M  V30 215 C 24.7014 3.61709 -2.80945 0
M  V30 216 N 26.1924 3.69199 -2.79725 0
M  V30 217 C 26.9274 4.50019 -3.55345 0
M  V30 218 N 26.4234 5.34592 -4.40662 0
M  V30 219 N 28.2164 4.44612 -3.43914 0
M  V30 220 H 20.3674 0.868827 -1.93817 0
M  V30 221 H 22.6304 0.44399 -0.837602 0
M  V30 222 H 22.3364 2.14636 -2.78612 0
M  V30 223 H 22.2104 3.4217 -1.58744 0
M  V30 224 H 24.5974 2.84614 -0.779674 0
M  V30 225 H 24.6784 1.57927 -2.01228 0
M  V30 226 H 24.3224 3.34678 -3.82038 0
M  V30 227 H 24.2524 4.60259 -2.5587 0
M  V30 228 H 26.7434 3.08794 -2.17842 0
M  V30 229 H 27.0564 5.93363 -4.95116 0
M  V30 230 H 25.4014 5.34073 -4.44737 0
M  V30 231 H 28.5924 3.7758 -2.76679 0
M  V30 232 H 28.7654 5.0736 -4.031 0
M  V30 233 N 22.1715 0.800033 1.35784 0
M  V30 234 C 23.1015 0.220184 2.3246 0
M  V30 235 C 24.0825 -0.65073 1.57161 0
M  V30 236 O 25.2675 -0.582359 1.85263 0
M  V30 237 C 22.3975 -0.637353 3.41402 0
M  V30 238 C 21.3515 0.134531 4.27789 0
M  V30 239 C 20.6775 -0.844285 5.27992 0
M  V30 240 C 21.9775 1.32979 5.05088 0
M  V30 241 H 23.6715 1.02787 2.81203 0
M  V30 242 H 21.2175 0.495717 1.35199 0
M  V30 243 H 23.1705 -1.05302 4.08031 0
M  V30 244 H 21.8945 -1.47785 2.91251 0
M  V30 245 H 20.5535 0.531296 3.6273 0
M  V30 246 H 20.2015 -1.68011 4.74111 0
M  V30 247 H 19.9015 -0.332184 5.8666 0
M  V30 248 H 21.4255 -1.2583 5.97494 0
M  V30 249 H 22.8395 0.98934 5.64699 0
M  V30 250 H 21.2365 1.77593 5.7322 0
M  V30 251 H 22.3065 2.11978 4.36111 0
M  V30 252 N 23.6496 -1.47581 0.552962 0
M  V30 253 C 24.9266 -1.95563 -0.0381515 0
M  V30 254 C 25.3066 -1.49552 -1.48988 0
M  V30 255 O 24.6546 -0.732414 -2.16444 0
M  V30 256 C 24.8646 -3.48848 0.102919 0
M  V30 257 C 26.2126 -4.24577 -0.0446082 0
M  V30 258 O 27.2366 -3.56187 0.0302548 0
M  V30 259 O 26.0956 -5.46116 -0.204923 0
M  V30 260 H 23.1896 -0.824321 -0.0665067 0
M  V30 261 H 25.7356 -1.58001 0.619186 0
M  V30 262 H 24.5076 -3.75129 1.11328 0
M  V30 263 H 24.1306 -3.93165 -0.592224 0
M  V30 264 N 25.1277 -0.289203 -1.54924 0
M  V30 265 C 26.0577 0.58549 -2.2604 0
M  V30 266 C 27.0387 1.14753 -1.25562 0
M  V30 267 O 28.2237 1.17906 -1.54311 0
M  V30 268 C 25.3537 1.76305 -2.99222 0
M  V30 269 C 24.3077 1.33191 -4.06748 0
M  V30 270 C 23.6337 2.5937 -4.6758 0
M  V30 271 C 24.9337 0.471775 -5.20165 0
M  V30 272 H 26.6277 -0.00763532 -2.99399 0
M  V30 273 H 24.1737 -0.00511229 -1.43999 0
M  V30 274 H 26.1267 2.38097 -3.47689 0
M  V30 275 H 24.8507 2.38223 -2.23422 0
M  V30 276 H 23.5097 0.737121 -3.59113 0
M  V30 277 H 23.1577 3.19576 -3.88433 0
M  V30 278 H 22.8577 2.31228 -5.40192 0
M  V30 279 H 24.3817 3.21985 -5.18804 0
M  V30 280 H 25.7957 0.995056 -5.64599 0
M  V30 281 H 24.1927 0.284639 -5.99425 0
M  V30 282 H 25.2627 -0.506041 -4.82252 0
M  V30 283 N 26.6058 1.57591 -0.0167156 0
M  V30 284 C 27.5158 2.1291 0.98521 0
M  V30 285 C 28.5318 1.07834 1.36557 0
M  V30 286 O 29.7078 1.39826 1.44951 0
M  V30 287 C 26.7728 2.63512 2.25305 0
M  V30 288 C 25.8338 3.83256 1.93426 0
M  V30 289 C 25.0668 4.31435 3.14165 0
M  V30 290 O 25.2898 3.78851 4.26413 0
M  V30 291 O 24.2238 5.23416 2.97186 0
M  V30 292 H 28.0498 2.98772 0.544888 0
M  V30 293 H 25.6348 1.48012 0.203141 0
M  V30 294 H 27.5168 2.96183 2.99756 0
M  V30 295 H 26.1918 1.8074 2.68542 0
M  V30 296 H 25.0988 3.55531 1.16398 0
M  V30 297 H 26.4318 4.67153 1.55013 0
M  V30 298 N 28.0839 -0.256276 1.55502 0
M  V30 299 C 29.0319 -1.33694 1.90338 0
M  V30 300 C 30.0259 -1.50299 0.781441 0
M  V30 301 O 31.2319 -1.51885 0.965966 0
M  V30 302 H 27.6069 -0.447483 0.60437 0
M  V30 303 H 29.5779 -1.01574 2.8058 0
M  V30 304 C 28.3269 -2.68724 2.20642 0
M  V30 305 H 27.6499 -2.56743 3.06469 0
M  V30 306 H 29.0899 -3.43237 2.48926 0
M  V30 307 C 27.5489 -3.21101 1.01959 0
M  V30 308 O 28.0789 -4.0084 0.262762 0
M  V30 309 N 26.2849 -2.79003 0.812746 0
M  V30 310 H 25.8319 -2.14271 1.42989 0
M  V30 311 H 25.7899 -3.14393 0.0203076 0
M  V30 312 N 29.562 -1.4872 -0.521534 0
M  V30 313 C 30.492 -1.66771 -1.63431 0
M  V30 314 C 31.473 -0.516499 -1.62069 0
M  V30 315 O 32.658 -0.750013 -1.79132 0
M  V30 316 C 29.788 -1.71515 -3.01993 0
M  V30 317 C 28.742 -2.86222 -3.18216 0
M  V30 318 C 28.068 -2.76061 -4.57924 0
M  V30 319 C 29.368 -4.27419 -3.00184 0
M  V30 320 H 31.062 -2.59932 -1.48579 0
M  V30 321 H 28.608 -1.25089 -0.713358 0
M  V30 322 H 30.561 -1.82731 -3.7972 0
M  V30 323 H 29.285 -0.749393 -3.17886 0
M  V30 324 H 27.944 -2.74575 -2.42908 0
M  V30 325 H 27.592 -1.77437 -4.70665 0
M  V30 326 H 27.292 -3.53037 -4.69722 0
M  V30 327 H 28.816 -2.89256 -5.37739 0
M  V30 328 H 30.23 -4.39855 -3.67697 0
M  V30 329 H 28.627 -5.05458 -3.2347 0
M  V30 330 H 29.697 -4.43293 -1.96518 0
M  V30 331 N 31.0401 0.771051 -1.3745 0
M  V30 332 C 32.0031 1.86598 -1.33093 0
M  V30 333 C 33.0031 1.59076 -0.234845 0
M  V30 334 O 34.1931 1.67145 -0.490732 0
M  V30 335 C 31.3251 3.23747 -1.06773 0
M  V30 336 H 32.5181 1.91873 -2.30488 0
M  V30 337 H 30.0711 0.970876 -1.2249 0
M  V30 338 H 30.8061 3.24148 -0.099129 0
M  V30 339 H 30.5911 3.45115 -1.86112 0
M  V30 340 H 32.0811 4.03824 -1.06377 0
M  V30 341 N 32.5182 1.22032 0.997298 0
M  V30 342 C 33.7462 1.06841 1.7718 0
M  V30 343 C 34.1612 -0.381325 1.84909 0
M  V30 344 O 33.5182 -1.26437 1.31605 0
M  V30 345 C 33.5692 1.66814 3.20711 0
M  V30 346 O 33.2902 3.06116 3.13408 0
M  V30 347 C 34.7912 1.56838 4.14628 0
M  V30 348 H 32.0112 0.374782 0.556578 0
M  V30 349 H 34.5552 1.61532 1.2541 0
M  V30 350 H 32.7102 1.16196 3.69564 0
M  V30 351 H 33.1242 3.34926 4.0364 0
M  V30 352 H 34.5982 2.03532 5.13107 0
M  V30 353 H 35.0752 0.524155 4.36061 0
M  V30 354 H 35.6812 2.06741 3.7167 0
M  V30 355 N 33.9963 -1.19345 1.0293 0
M  V30 356 C 35.2443 -1.88665 0.724574 0
M  V30 357 C 35.5653 -1.80036 -0.749144 0
M  V30 358 O 34.8353 -1.2111 -1.53978 0
M  V30 359 H 33.4153 -0.698406 0.265025 0
M  V30 360 H 36.0773 -1.44885 1.30362 0
M  V30 361 H 35.1733 -2.94987 1.01926 0
M  V30 362 N 35.4744 -0.807222 -1.35358 0
M  V30 363 C 36.4374 -0.223665 -2.28106 0
M  V30 364 C 37.4374 0.589354 -1.4961 0
M  V30 365 O 38.6274 0.407745 -1.69361 0
M  V30 366 C 35.7594 0.688149 -3.33882 0
M  V30 367 H 36.9524 -1.04169 -2.81227 0
M  V30 368 H 34.5054 -0.577921 -1.45223 0
M  V30 369 H 35.2404 1.52984 -2.85948 0
M  V30 370 H 35.0254 0.10687 -3.91954 0
M  V30 371 H 36.5154 1.09075 -4.03104 0
M  V30 372 N 36.9525 1.47285 -0.560781 0
M  V30 373 C 38.1995 2.02464 -0.038062 0
M  V30 374 C 38.5275 1.43474 1.31322 0
M  V30 375 O 37.7825 0.581311 1.86867 0
M  V30 376 C 38.0815 3.57258 0.100784 0
M  V30 377 C 37.7475 4.35184 -1.18007 0
M  V30 378 C 36.4095 4.56194 -1.53103 0
M  V30 379 C 38.7615 4.80098 -2.02867 0
M  V30 380 C 36.0895 5.19367 -2.729 0
M  V30 381 C 38.4415 5.44593 -3.21871 0
M  V30 382 C 37.1055 5.63835 -3.57276 0
M  V30 383 H 36.3755 0.740869 -0.0139279 0
M  V30 384 H 39.0225 1.76916 -0.733012 0
M  V30 385 H 37.3275 3.81819 0.878724 0
M  V30 386 H 39.0245 3.97606 0.520639 0
M  V30 387 H 35.6145 4.19113 -0.8968 0
M  V30 388 H 39.7985 4.63642 -1.7706 0
M  V30 389 H 35.0545 5.32459 -3.00496 0
M  V30 390 H 39.2285 5.78358 -3.87911 0
M  V30 391 H 36.8555 6.12557 -4.50197 0
M  V30 392 N 38.4306 0.297415 1.54768 0
M  V30 393 C 39.6776 -0.312913 2.00068 0
M  V30 394 C 40.0056 -1.54171 1.18582 0
M  V30 395 O 39.2606 -1.94108 0.249133 0
M  V30 396 C 39.5596 -0.717561 3.50123 0
M  V30 397 C 39.2256 0.409095 4.4904 0
M  V30 398 C 37.8876 0.718399 4.75807 0
M  V30 399 C 40.2396 1.16717 5.07963 0
M  V30 400 C 37.5676 1.78896 5.5876 0
M  V30 401 C 39.9196 2.22762 5.92081 0
M  V30 402 C 38.5836 2.54303 6.1716 0
M  V30 403 H 37.8536 -0.114503 0.7321 0
M  V30 404 H 40.5006 0.415767 1.86932 0
M  V30 405 H 38.8056 -1.52627 3.60849 0
M  V30 406 H 40.5026 -1.20091 3.82595 0
M  V30 407 H 37.0926 0.157918 4.28309 0
M  V30 408 H 41.2766 0.941466 4.87289 0
M  V30 409 H 36.5326 2.0381 5.7643 0
M  V30 410 H 40.7066 2.81962 6.36765 0
M  V30 411 H 38.3336 3.3739 6.81229 0
M  V30 412 N 39.9087 -1.5758 0.0250728 0
M  V30 413 C 41.3197 -1.79476 -0.514323 0
M  V30 414 C 41.6707 -0.934956 -1.72491 0
M  V30 415 O 40.7957 -0.144245 -2.15919 0
M  V30 416 C 41.3907 -3.25503 -0.939842 0
M  V30 417 C 39.9497 -3.48408 -1.42438 0
M  V30 418 C 39.0967 -2.74583 -0.387201 0
M  V30 419 H 42.0477 -1.567 0.25113 0
M  V30 420 H 42.0687 -3.34992 -1.80445 0
M  V30 421 H 41.5807 -3.88056 -0.0585628 0
M  V30 422 H 39.6817 -2.91103 -2.32572 0
M  V30 423 H 39.7947 -4.57119 -1.43455 0
M  V30 424 H 38.1587 -2.39942 -0.854409 0
M  V30 425 H 38.9417 -3.39849 0.485543 0
M  V30 426 N 41.3868 0.248026 -1.55636 0
M  V30 427 C 42.6328 0.97767 -1.77678 0
M  V30 428 C 42.9658 1.85016 -0.590135 0
M  V30 429 O 42.2408 1.90095 0.411611 0
M  V30 430 C 42.5238 1.83914 -3.09593 0
M  V30 431 C 42.3768 0.99491 -4.38659 0
M  V30 432 C 43.6958 2.82183 -3.37729 0
M  V30 433 H 40.8148 0.354005 -0.646413 0
M  V30 434 H 43.4568 0.248253 -1.88371 0
M  V30 435 H 41.6068 2.46104 -3.00608 0
M  V30 436 H 43.2788 0.391789 -4.59633 0
M  V30 437 H 41.5218 0.299231 -4.32767 0
M  V30 438 H 42.1928 1.63145 -5.2734 0
M  V30 439 H 44.6688 2.30129 -3.4667 0
M  V30 440 H 43.5448 3.39582 -4.31249 0
M  V30 441 H 43.8058 3.58588 -2.58586 0
M  V30 442 N 42.8649 1.48995 0.513639 0
M  V30 443 C 43.8119 1.6473 1.61656 0
M  V30 444 C 44.7819 0.488984 1.58739 0
M  V30 445 O 45.9669 0.714478 1.76918 0
M  V30 446 C 43.1069 1.7082 2.99858 0
M  V30 447 C 42.2199 2.9787 3.12885 0
M  V30 448 C 41.3549 2.95017 4.41744 0
M  V30 449 C 40.3939 4.16702 4.48359 0
M  V30 450 N 39.5309 4.11832 5.68629 0
M  V30 451 H 44.3709 2.58909 1.47547 0
M  V30 452 H 41.9079 1.28382 0.71808 0
M  V30 453 H 43.8659 1.72331 3.79944 0
M  V30 454 H 42.4959 0.801181 3.12699 0
M  V30 455 H 41.5479 3.06029 2.25944 0
M  V30 456 H 42.8599 3.8786 3.13633 0
M  V30 457 H 42.0139 2.95021 5.30139 0
M  V30 458 H 40.7529 2.02784 4.43542 0
M  V30 459 H 39.7579 4.16955 3.58369 0
M  V30 460 H 40.9829 5.10113 4.48287 0
M  V30 461 H 38.9289 3.22428 5.71293 0
M  V30 462 H 38.8459 4.95543 5.7094 0
M  V30 463 H 40.1139 4.1592 6.59266 0
M  V30 464 N 44.343 -0.763751 1.37857 0
M  V30 465 C 45.591 -1.51957 1.33243 0
M  V30 466 C 45.912 -1.94835 -0.0801709 0
M  V30 467 O 45.182 -1.66894 -1.02582 0
M  V30 468 H 43.762 -0.563626 0.49024 0
M  V30 469 H 46.424 -0.908504 1.7243 0
M  V30 470 H 45.52 -2.41523 1.97669 0
M  V30 471 N 45.8211 -1.22559 -0.990812 0
M  V30 472 C 47.0681 -1.05141 -1.73065 0
M  V30 473 C 47.3961 0.413191 -1.9006 0
M  V30 474 O 46.6511 1.32257 -1.44245 0
M  V30 475 C 46.9501 -1.71011 -3.13831 0
M  V30 476 C 46.6161 -3.20911 -3.16745 0
M  V30 477 C 45.2781 -3.61812 -3.17247 0
M  V30 478 C 47.6301 -4.16846 -3.12872 0
M  V30 479 C 44.9581 -4.97127 -3.1158 0
M  V30 480 C 47.3101 -5.5214 -3.08746 0
M  V30 481 C 45.9741 -5.92419 -3.07565 0
M  V30 482 H 45.2441 -0.384738 -0.633291 0
M  V30 483 H 47.8911 -1.5235 -1.16025 0
M  V30 484 H 46.1961 -1.16133 -3.74193 0
M  V30 485 H 47.8931 -1.55023 -3.69823 0
M  V30 486 H 44.4831 -2.88344 -3.17105 0
M  V30 487 H 48.6671 -3.86263 -3.11632 0
M  V30 488 H 43.9231 -5.27562 -3.09012 0
M  V30 489 H 48.0971 -6.26201 -3.04705 0
M  V30 490 H 45.7241 -6.97236 -3.02929 0
M  V30 491 N 47.2992 1.18797 -1.03562 0
M  V30 492 C 48.2322 2.2105 -0.56676 0
M  V30 493 C 49.2102 1.57704 0.395993 0
M  V30 494 O 50.3942 1.85908 0.311498 0
M  V30 495 C 47.5212 3.38259 0.172704 0
M  V30 496 C 46.5672 4.19987 -0.74252 0
M  V30 497 S 47.4002 4.87199 -2.22254 0
M  V30 498 C 48.5562 6.07813 -1.49379 0
M  V30 499 H 48.7892 2.60478 -1.43312 0
M  V30 500 H 46.3222 1.29151 -0.846133 0
M  V30 501 H 48.2802 4.06191 0.593191 0
M  V30 502 H 46.9412 2.97252 1.01488 0
M  V30 503 H 46.1342 5.03709 -0.171265 0
M  V30 504 H 45.7362 3.57408 -1.10163 0
M  V30 505 H 48.0282 6.72948 -0.784056 0
M  V30 506 H 48.9712 6.69435 -2.30786 0
M  V30 507 H 49.3792 5.55781 -0.988331 0
M  V30 508 N 48.7773 0.814389 1.34928 0
M  V30 509 C 50.0053 0.411136 2.02774 0
M  V30 510 C 50.4203 -0.980316 1.61354 0
M  V30 511 O 49.7773 -1.63299 0.814847 0
M  V30 512 C 49.8283 0.493865 3.58111 0
M  V30 513 O 49.5493 1.83047 3.98027 0
M  V30 514 C 51.0503 0.0844174 4.4322 0
M  V30 515 H 48.2703 0.166037 0.650133 0
M  V30 516 H 50.8143 1.10018 1.72384 0
M  V30 517 H 48.9693 -0.147006 3.87121 0
M  V30 518 H 49.3833 1.79872 4.92693 0
M  V30 519 H 50.8573 0.193404 5.51661 0
M  V30 520 H 51.3343 -0.97113 4.28329 0
M  V30 521 H 51.9403 0.69875 4.19521 0
M  V30 522 N 50.2554 -1.46986 0.568584 0
M  V30 523 C 51.6714 -1.57946 0.229189 0
M  V30 524 C 51.8714 -1.56567 -1.26843 0
M  V30 525 O 50.9274 -1.47511 -2.04931 0
M  V30 526 C 52.2404 -2.87963 0.865909 0
M  V30 527 C 53.7884 -3.01568 0.838188 0
M  V30 528 C 54.2634 -4.34301 1.45419 0
M  V30 529 N 55.7544 -4.40965 1.41788 0
M  V30 530 C 56.4894 -5.42256 1.86403 0
M  V30 531 N 55.9854 -6.50297 2.38926 0
M  V30 532 N 57.7784 -5.3337 1.77405 0
M  V30 533 H 49.9294 -1.46126 1.54146 0
M  V30 534 H 52.1924 -0.696156 0.643484 0
M  V30 535 H 51.8984 -2.94742 1.91886 0
M  V30 536 H 51.7724 -3.75423 0.365687 0
M  V30 537 H 54.1594 -2.94379 -0.206106 0
M  V30 538 H 54.2404 -2.1562 1.37629 0
M  V30 539 H 53.8844 -4.42247 2.49761 0
M  V30 540 H 53.8144 -5.19 0.891435 0
M  V30 541 H 56.3054 -3.63484 1.03381 0
M  V30 542 H 56.6184 -7.23777 2.70863 0
M  V30 543 H 54.9634 -6.51155 2.42944 0
M  V30 544 H 58.1544 -4.47865 1.3614 0
M  V30 545 H 58.3274 -6.12169 2.12492 0
M  V30 546 N 51.7335 -0.305618 -1.54608 0
M  V30 547 C 52.6435 0.57778 -2.27374 0
M  V30 548 C 53.6595 1.14451 -1.31061 0
M  V30 549 O 54.8355 1.16831 -1.6405 0
M  V30 550 C 51.9005 1.73123 -3.00382 0
M  V30 551 C 50.9615 1.19812 -4.12242 0
M  V30 552 C 50.1945 2.2966 -4.81759 0
M  V30 553 O 50.4175 3.49651 -4.50666 0
M  V30 554 O 49.3515 1.96091 -5.69062 0
M  V30 555 H 53.1775 -0.012624 -3.03697 0
M  V30 556 H 50.7625 -0.0719184 -1.49227 0
M  V30 557 H 52.6445 2.40315 -3.4616 0
M  V30 558 H 51.3195 2.30815 -2.26949 0
M  V30 559 H 50.2265 0.491798 -3.70853 0
M  V30 560 H 51.5595 0.666566 -4.87666 0
M  V30 561 N 53.2116 1.57565 -0.0334293 0
M  V30 562 C 54.1216 2.13943 0.962572 0
M  V30 563 C 55.1376 1.09276 1.35406 0
M  V30 564 O 56.3136 1.41355 1.4346 0
M  V30 565 C 53.3786 2.65887 2.22497 0
M  V30 566 C 52.4396 3.85286 1.8935 0
M  V30 567 C 51.6726 4.34743 3.09571 0
M  V30 568 O 51.8956 3.83352 4.22371 0
M  V30 569 O 50.8296 5.26538 2.91618 0
M  V30 570 H 54.6556 2.99333 0.513169 0
M  V30 571 H 52.2406 1.4822 0.18743 0
M  V30 572 H 54.1226 2.99346 2.96598 0
M  V30 573 H 52.7976 1.83578 2.6661 0
M  V30 574 H 51.7046 3.56746 1.1262 0
M  V30 575 H 53.0376 4.68771 1.5005 0
M  V30 576 N 54.6897 -0.239769 1.55765 0
M  V30 577 C 55.6527 -1.28038 1.90103 0
M  V30 578 C 56.6527 -1.40723 0.778055 0
M  V30 579 O 57.8427 -1.39301 1.04599 0
M  V30 580 C 54.9747 -2.65702 2.13577 0
M  V30 581 H 56.1677 -0.988048 2.83157 0
M  V30 582 H 53.7207 -0.479382 1.48767 0
M  V30 583 H 54.4557 -3.00063 1.23015 0
M  V30 584 H 54.2407 -2.57875 2.95369 0
M  V30 585 H 55.7307 -3.40828 2.41301 0
M  V30 586 N 56.1678 -1.49265 -0.50573 0
M  V30 587 C 57.0978 -1.68495 -1.61653 0
M  V30 588 C 58.0788 -0.53366 -1.61512 0
M  V30 589 O 59.2638 -0.76897 -1.78327 0
M  V30 590 C 56.3938 -1.74709 -3.00157 0
M  V30 591 C 55.3478 -2.89581 -3.15162 0
M  V30 592 C 54.6738 -2.80903 -4.5497 0
M  V30 593 C 55.9738 -4.30578 -2.95634 0
M  V30 594 H 57.6678 -2.61493 -1.45814 0
M  V30 595 H 55.2138 -1.25838 -0.70005 0
M  V30 596 H 57.1668 -1.86748 -3.77761 0
M  V30 597 H 55.8908 -0.783067 -3.17074 0
M  V30 598 H 54.5498 -2.77136 -2.39982 0
M  V30 599 H 54.1978 -1.82419 -4.68756 0
M  V30 600 H 53.8978 -3.57999 -4.65951 0
M  V30 601 H 55.4218 -2.94944 -5.34641 0
M  V30 602 H 56.8358 -4.4373 -3.63011 0
M  V30 603 H 55.2328 -5.0886 -3.18091 0
M  V30 604 H 56.3028 -4.45352 -1.91806 0
M  V30 605 N 57.6459 0.756429 -1.3826 0
M  V30 606 C 58.8709 1.55077 -1.37717 0
M  V30 607 C 59.2959 1.88073 0.03164 0
M  V30 608 O 58.6539 1.50364 1.01293 0
M  V30 609 C 58.7019 2.8283 -2.23695 0
M  V30 610 O 57.8059 3.77862 -1.6521 0
M  V30 611 H 57.1469 0.469152 -0.469885 0
M  V30 612 H 59.6769 0.935019 -1.81985 0
M  V30 613 H 59.6869 3.31783 -2.37453 0
M  V30 614 H 58.3619 2.58144 -3.2609 0
M  V30 615 H 56.9389 3.36555 -1.60578 0
M  V30 616 N 59.124 1.23083 0.984299 0
M  V30 617 C 60.37 1.06214 1.72761 0
M  V30 618 C 60.703 -0.400584 1.90024 0
M  V30 619 O 59.978 -1.29672 1.44967 0
M  V30 620 C 60.261 1.78375 3.12817 0
M  V30 621 C 60.114 3.32296 3.03149 0
M  V30 622 C 61.433 1.54309 4.12161 0
M  V30 623 H 58.552 0.387251 0.627061 0
M  V30 624 H 61.194 1.51536 1.14616 0
M  V30 625 H 59.344 1.39848 3.62457 0
M  V30 626 H 61.016 3.8032 2.61064 0
M  V30 627 H 59.259 3.6153 2.39747 0
M  V30 628 H 59.93 3.77972 4.02295 0
M  V30 629 H 62.406 1.87791 3.71314 0
M  V30 630 H 61.282 2.07281 5.08258 0
M  V30 631 H 61.543 0.477572 4.39513 0
M  V30 632 N 60.6021 -1.18246 1.0419 0
M  V30 633 C 61.5651 -2.20128 0.638452 0
M  V30 634 C 62.5651 -1.57885 -0.304805 0
M  V30 635 O 63.7551 -1.73967 -0.0900369 0
M  V30 636 C 60.8871 -3.4084 -0.0637751 0
M  V30 637 H 62.0801 -2.57336 1.54007 0
M  V30 638 H 59.6331 -1.32152 0.834598 0
M  V30 639 H 60.3681 -3.09166 -0.979136 0
M  V30 640 H 60.1531 -3.8726 0.614198 0
M  V30 641 H 61.6431 -4.16274 -0.332512 0
M  V30 642 N 62.0802 -0.821533 -1.34494 0
M  V30 643 C 63.0302 -0.214793 -2.26986 0
M  V30 644 C 64.0142 0.620125 -1.4847 0
M  V30 645 O 65.2062 0.474933 -1.70509 0
M  V30 646 C 62.3352 0.623566 -3.37589 0
M  V30 647 C 61.4212 -0.221904 -4.23519 0
M  V30 648 N 61.8122 -1.29223 -4.89014 0
M  V30 649 C 60.1102 -0.00600922 -4.46 0
M  V30 650 C 60.8112 -1.80965 -5.52835 0
M  V30 651 N 59.7872 -1.11376 -5.32068 0
M  V30 652 H 63.5892 -1.03354 -2.75128 0
M  V30 653 H 61.1032 -0.6642 -1.48196 0
M  V30 654 H 63.1002 1.0744 -4.02818 0
M  V30 655 H 61.7602 1.44049 -2.90998 0
M  V30 656 H 62.7712 -1.67502 -4.90065 0
M  V30 657 H 59.4482 0.77886 -4.10171 0
M  V30 658 H 60.8382 -2.70502 -6.15043 0
M  V30 659 N 63.5583 1.46682 -0.576371 0
M  V30 660 C 64.4683 2.34032 0.163141 0
M  V30 661 C 65.4843 1.49367 0.892501 0
M  V30 662 O 66.6603 1.82252 0.857106 0
M  V30 663 C 63.7253 3.26435 1.16795 0
M  V30 664 C 62.7863 4.26998 0.443944 0
M  V30 665 C 62.0193 5.14986 1.40088 0
M  V30 666 O 62.2423 5.05785 2.637 0
M  V30 667 O 61.1763 5.94906 0.914917 0
M  V30 668 H 65.0023 2.98607 -0.55388 0
M  V30 669 H 62.5873 1.45554 -0.336821 0
M  V30 670 H 64.4693 3.83459 1.74748 0
M  V30 671 H 63.1443 2.64465 1.86655 0
M  V30 672 H 62.0513 3.7368 -0.177271 0
M  V30 673 H 63.3843 4.91736 -0.213566 0
M  V30 674 N 65.0364 0.313813 1.54444 0
M  V30 675 C 65.9694 -0.598866 2.20202 0
M  V30 676 C 66.9474 -1.12318 1.17573 0
M  V30 677 O 68.1314 -1.18899 1.46271 0
M  V30 678 C 65.2584 -1.82071 2.85601 0
M  V30 679 C 64.3044 -1.42851 4.01865 0
M  V30 680 S 65.1374 -0.473512 5.33402 0
M  V30 681 C 66.2934 -1.70286 6.0229 0
M  V30 682 H 66.5264 -0.0402532 2.97273 0
M  V30 683 H 64.0594 0.0979165 1.54089 0
M  V30 684 H 66.0174 -2.52184 3.23904 0
M  V30 685 H 64.6784 -2.3505 2.08351 0
M  V30 686 H 63.8714 -2.33871 4.46453 0
M  V30 687 H 63.4734 -0.807198 3.65185 0
M  V30 688 H 65.7654 -2.64168 6.23876 0
M  V30 689 H 66.7084 -1.29932 6.96077 0
M  V30 690 H 67.1164 -1.88541 5.32083 0
M  V30 691 N 66.5145 -1.57545 0.0417849 0
M  V30 692 C 67.9305 -1.56467 -0.314704 0
M  V30 693 C 68.1305 -1.04859 -1.72066 0
M  V30 694 O 67.1865 -0.700983 -2.42575 0
M  V30 695 C 68.4995 -3.00317 -0.15174 0
M  V30 696 C 70.0475 -3.12201 -0.223553 0
M  V30 697 C 70.5225 -4.57913 -0.0892295 0
M  V30 698 N 72.0135 -4.6297 -0.145808 0
M  V30 699 C 72.7485 -5.73362 -0.0658459 0
M  V30 700 N 72.2445 -6.92769 0.0659282 0
M  V30 701 N 74.0375 -5.6197 -0.12075 0
M  V30 702 H 66.1885 -1.89416 0.961014 0
M  V30 703 H 68.4515 -0.871862 0.372237 0
M  V30 704 H 68.1575 -3.42073 0.817254 0
M  V30 705 H 68.0315 -3.65892 -0.916692 0
M  V30 706 H 70.4185 -2.70349 -1.18301 0
M  V30 707 H 70.4995 -2.49323 0.571994 0
M  V30 708 H 70.1435 -5.00448 0.866867 0
M  V30 709 H 70.0735 -5.18786 -0.903802 0
M  V30 710 H 72.5645 -3.7709 -0.247286 0
M  V30 711 H 72.8775 -7.72707 0.119905 0
M  V30 712 H 71.2225 -6.94927 0.100885 0
M  V30 713 H 74.4135 -4.67572 -0.222187 0
M  V30 714 H 74.5865 -6.47977 -0.0549735 0
M  V30 715 N 67.9926 0.231505 -1.5589 0
M  V30 716 C 68.9226 1.29022 -1.94617 0
M  V30 717 C 69.9036 1.4941 -0.813067 0
M  V30 718 O 71.0886 1.6176 -1.07459 0
M  V30 719 C 68.2186 2.64199 -2.25424 0
M  V30 720 C 67.1726 2.58484 -3.41131 0
M  V30 721 C 66.4986 3.97599 -3.57518 0
M  V30 722 C 67.7986 2.1413 -4.76388 0
M  V30 723 H 69.4926 0.968563 -2.83301 0
M  V30 724 H 67.0386 0.464479 -1.36303 0
M  V30 725 H 68.9916 3.38413 -2.51107 0
M  V30 726 H 67.7156 2.98032 -1.33583 0
M  V30 727 H 66.3746 1.86727 -3.15481 0
M  V30 728 H 66.0226 4.28723 -2.6307 0
M  V30 729 H 65.7226 3.94659 -4.35337 0
M  V30 730 H 67.2466 4.7349 -3.85538 0
M  V30 731 H 68.6606 2.78083 -5.01341 0
M  V30 732 H 67.0576 2.2227 -5.57419 0
M  V30 733 H 68.1276 1.09331 -4.72414 0
M  V30 734 N 69.4707 1.49531 0.497807 0
M  V30 735 C 70.8817 1.52344 1.07927 0
M  V30 736 C 71.2327 0.311469 1.93712 0
M  V30 737 O 70.3577 -0.578405 2.08527 0
M  V30 738 C 70.9527 2.76062 1.96405 0
M  V30 739 C 69.5117 2.81643 2.49709 0
M  V30 740 C 68.6587 2.46299 1.27404 0
M  V30 741 H 71.6097 1.56182 0.281576 0
M  V30 742 H 71.6307 2.56405 2.81135 0
M  V30 743 H 71.1427 3.64254 1.33943 0
M  V30 744 H 69.2437 1.97739 3.15801 0
M  V30 745 H 69.3567 3.83891 2.86643 0
M  V30 746 H 67.7207 1.98148 1.60029 0
M  V30 747 H 68.5037 3.36769 0.66645 0
M  V30 748 N 70.9488 -0.749086 1.3866 0
M  V30 749 C 72.1768 -1.53834 1.38358 0
M  V30 750 C 72.5918 -1.88783 -0.0255219 0
M  V30 751 O 71.9488 -1.53101 -0.993292 0
M  V30 752 C 71.9998 -2.83468 2.2434 0
M  V30 753 O 71.7208 -2.50008 3.5976 0
M  V30 754 C 73.2218 -3.7758 2.32267 0
M  V30 755 H 70.4418 -0.47585 0.473083 0
M  V30 756 H 72.9858 -0.926726 1.82297 0
M  V30 757 H 71.1408 -3.40995 1.83851 0
M  V30 758 H 71.5548 -3.33182 4.05081 0
M  V30 759 H 73.0288 -4.65478 2.96706 0
M  V30 760 H 73.5058 -4.18334 1.33765 0
M  V30 761 H 74.1118 -3.25976 2.73166 0
M  V30 762 N 72.4269 -1.23603 -0.977757 0
M  V30 763 C 73.6749 -1.06759 -1.71601 0
M  V30 764 C 73.9959 0.395929 -1.90938 0
M  V30 765 O 73.2659 1.28356 -1.47992 0
M  V30 766 H 71.8459 -0.392062 -0.635843 0
M  V30 767 H 74.5079 -1.55362 -1.1768 0
M  V30 768 H 73.6039 -1.55763 -2.70452 0
M  V30 769 N 73.905 1.17692 -1.04816 0
M  V30 770 C 74.815 2.25229 -0.65643 0
M  V30 771 C 75.831 1.71018 0.320761 0
M  V30 772 O 77.007 2.00649 0.173805 0
M  V30 773 C 74.072 3.46684 -0.0332629 0
M  V30 774 C 73.133 4.15997 -1.06042 0
M  V30 775 C 72.366 5.31654 -0.466893 0
M  V30 776 O 72.589 5.65777 0.724758 0
M  V30 777 O 71.523 5.89831 -1.1993 0
M  V30 778 H 75.349 2.61016 -1.55255 0
M  V30 779 H 72.934 1.24919 -0.81949 0
M  V30 780 H 74.816 4.20234 0.313256 0
M  V30 781 H 73.491 3.12703 0.836566 0
M  V30 782 H 72.398 3.44482 -1.45886 0
M  V30 783 H 73.731 4.53996 -1.90127 0
M  V30 784 N 75.3831 0.828654 1.34056 0
M  V30 785 C 76.6291 0.42008 1.98402 0
M  V30 786 C 76.9621 -1.01564 1.65525 0
M  V30 787 O 76.2371 -1.70834 0.929831 0
M  V30 788 C 76.5201 0.62927 3.54559 0
M  V30 789 C 76.3731 2.11152 3.97159 0
M  V30 790 C 77.6921 0.0688756 4.40046 0
M  V30 791 H 74.8111 0.154104 0.720709 0
M  V30 792 H 77.4531 1.04228 1.5886 0
M  V30 793 H 75.6031 0.0996418 3.88372 0
M  V30 794 H 77.2751 2.70522 3.73651 0
M  V30 795 H 75.5181 2.59985 3.47261 0
M  V30 796 H 76.1891 2.20868 5.05887 0
M  V30 797 H 78.6651 0.521458 4.1282 0
M  V30 798 H 77.5411 0.245006 5.48353 0
M  V30 799 H 77.8021 -1.0266 4.30015 0
M  V30 800 N 76.8612 -1.46375 0.584142 0
M  V30 801 C 78.1072 -2.03248 0.0787103 0
M  V30 802 C 78.4622 -1.44737 -1.26763 0
M  V30 803 O 77.7552 -0.603625 -1.81843 0
M  V30 804 C 77.9492 -3.57373 -0.0439342 0
M  V30 805 C 77.7782 -4.30831 1.28897 0
M  V30 806 C 76.5482 -4.69683 1.8635 0
M  V30 807 C 78.7462 -4.64278 2.21248 0
M  V30 808 N 76.7282 -5.27898 3.13365 0
M  V30 809 C 78.0992 -5.23078 3.32851 0
M  V30 810 C 80.1542 -4.46209 2.20911 0
M  V30 811 C 78.8572 -5.65715 4.44251 0
M  V30 812 C 80.8832 -4.89864 3.31341 0
M  V30 813 C 80.2452 -5.48736 4.41665 0
M  V30 814 H 76.3442 -0.778714 0.0716144 0
M  V30 815 H 78.9282 -1.78509 0.777355 0
M  V30 816 H 77.0992 -3.81823 -0.711749 0
M  V30 817 H 78.8312 -4.00892 -0.553881 0
M  V30 818 H 75.5862 -4.52488 1.39826 0
M  V30 819 H 76.0102 -5.61525 3.78178 0
M  V30 820 H 80.6522 -4.00027 1.36888 0
M  V30 821 H 78.3702 -6.10875 5.29015 0
M  V30 822 H 81.9562 -4.77634 3.322 0
M  V30 823 H 80.8362 -5.81898 5.25704 0
M  V30 824 N 78.3393 -0.321999 -1.54275 0
M  V30 825 C 79.5673 0.283052 -2.04955 0
M  V30 826 C 79.9823 1.45904 -1.19823 0
M  V30 827 O 79.3393 1.81063 -0.228545 0
M  V30 828 C 79.3903 0.719028 -3.54277 0
M  V30 829 O 79.1113 -0.410175 -4.36176 0
M  V30 830 C 80.6123 1.38705 -4.21041 0
M  V30 831 H 77.8323 0.0584616 -0.668448 0
M  V30 832 H 80.3763 -0.467734 -1.99079 0
M  V30 833 H 78.5313 1.41979 -3.60445 0
M  V30 834 H 78.9453 -0.0669416 -5.24457 0
M  V30 835 H 80.4193 1.64306 -5.2698 0
M  V30 836 H 80.8963 2.33385 -3.72059 0
M  V30 837 H 81.5023 0.728906 -4.19007 0
M  V30 838 N 79.8174 1.5752 -0.0501392 0
M  V30 839 C 81.0664 1.91827 0.623328 0
M  V30 840 C 81.3794 0.930222 1.72065 0
M  V30 841 O 82.5854 1.1653 2.4522 0
M  V30 842 C 81.0414 3.40692 1.16003 0
M  V30 843 C 80.6494 4.479 0.0948811 0
M  V30 844 C 82.3934 3.84034 1.80881 0
M  V30 845 C 80.3004 5.87879 0.644411 0
M  V30 846 H 79.2304 0.715918 0.236596 0
M  V30 847 H 81.8814 1.83115 -0.118861 0
M  V30 848 H 80.2634 3.44405 1.9545 0
M  V30 849 H 81.4374 4.55775 -0.678675 0
M  V30 850 H 79.7524 4.13892 -0.45637 0
M  V30 851 H 82.3494 4.85984 2.22988 0
M  V30 852 H 82.6924 3.20225 2.6601 0
M  V30 853 H 83.2254 3.82833 1.0809 0
M  V30 854 H 79.9644 6.55282 -0.169229 0
M  V30 855 H 79.4844 5.83567 1.38598 0
M  V30 856 H 81.1634 6.37098 1.12763 0
M  V30 857 N 81.2955 -0.223234 1.56011 0
M  V30 858 C 82.7065 -0.790368 1.69145 0
M  V30 859 C 83.0575 -1.85055 0.651845 0
M  V30 860 O 82.1825 -2.15498 -0.197359 0
M  V30 861 C 82.7775 -1.4404 3.06656 0
M  V30 862 C 81.3365 -1.95494 3.2165 0
M  V30 863 C 80.4835 -0.814506 2.65068 0
M  V30 864 H 83.4345 0.00139011 1.587 0
M  V30 865 H 83.4555 -2.30916 3.0242 0
M  V30 866 H 82.9675 -0.668543 3.82298 0
M  V30 867 H 81.0685 -2.75487 2.50874 0
M  V30 868 H 81.1815 -2.13607 4.28846 0
M  V30 869 H 79.5455 -1.22137 2.23505 0
M  V30 870 H 80.3285 -0.0553515 3.43255 0
M  V30 871 N 82.7736 -1.49793 -0.48987 0
M  V30 872 C 84.0226 -1.59085 -1.23995 0
M  V30 873 C 84.3356 -0.287907 -1.9347 0
M  V30 874 O 85.5416 -0.259506 -2.70257 0
M  V30 875 C 83.9976 -2.80736 -2.252 0
M  V30 876 C 83.6056 -4.17833 -1.61614 0
M  V30 877 C 85.3496 -2.99364 -3.00967 0
M  V30 878 C 83.2566 -5.30693 -2.60996 0
M  V30 879 H 82.1866 -0.592372 -0.466488 0
M  V30 880 H 84.8376 -1.76197 -0.51252 0
M  V30 881 H 83.2196 -2.57142 -3.01154 0
M  V30 882 H 84.3936 -4.51608 -0.915774 0
M  V30 883 H 82.7086 -4.04656 -0.981977 0
M  V30 884 H 85.3056 -3.80851 -3.75308 0
M  V30 885 H 85.6486 -2.10356 -3.59244 0
M  V30 886 H 86.1816 -3.2305 -2.32128 0
M  V30 887 H 82.9206 -6.21796 -2.07485 0
M  V30 888 H 82.4406 -5.01359 -3.2924 0
M  V30 889 H 84.1196 -5.6049 -3.23202 0
M  V30 890 N 84.2517 0.741722 -1.39055 0
M  V30 891 C 85.1817 1.869 -1.39966 0
M  V30 892 C 86.1627 1.6804 -0.26392 0
M  V30 893 O 87.3477 1.88458 -0.468755 0
M  V30 894 C 84.4777 3.24572 -1.23574 0
M  V30 895 C 83.4317 3.58056 -2.34477 0
M  V30 896 C 82.7577 4.94593 -2.0318 0
M  V30 897 C 84.0577 3.61716 -3.76774 0
M  V30 898 H 85.7517 1.86395 -2.34302 0
M  V30 899 H 83.2977 0.895361 -1.1278 0
M  V30 900 H 85.2507 4.031 -1.22834 0
M  V30 901 H 83.9747 3.25587 -0.257045 0
M  V30 902 H 82.6337 2.81854 -2.34423 0
M  V30 903 H 82.2817 4.92181 -1.03765 0
M  V30 904 H 81.9817 5.17964 -2.77465 0
M  V30 905 H 83.5057 5.75486 -2.04079 0
M  V30 906 H 84.9197 4.30335 -3.78794 0
M  V30 907 H 83.3167 3.96603 -4.50362 0
M  V30 908 H 84.3867 2.61672 -4.08235 0
M  V30 909 N 85.7298 1.2412 0.971189 0
M  V30 910 C 86.6598 1.05508 2.08304 0
M  V30 911 C 87.6408 -0.0308864 1.70072 0
M  V30 912 O 88.8258 0.135521 1.93727 0
M  V30 913 C 85.9558 0.655365 3.4106 0
M  V30 914 C 84.9098 1.68971 3.93234 0
M  V30 915 C 84.2358 1.14516 5.22293 0
M  V30 916 C 85.5358 3.08487 4.21465 0
M  V30 917 H 87.2298 1.98507 2.24132 0
M  V30 918 H 84.7758 0.955821 1.07704 0
M  V30 919 H 86.7288 0.51217 4.18276 0
M  V30 920 H 85.4528 -0.31032 3.25122 0
M  V30 921 H 84.1118 1.82106 3.18171 0
M  V30 922 H 83.7598 0.170189 5.02712 0
M  V30 923 H 83.4598 1.83635 5.58168 0
M  V30 924 H 84.9838 1.01401 6.02121 0
M  V30 925 H 86.3978 2.98601 4.89398 0
M  V30 926 H 84.7948 3.74926 4.68562 0
M  V30 927 H 85.8648 3.56787 3.28376 0
M  V30 928 N 87.2079 -1.17134 1.05439 0
M  V30 929 C 88.1399 -2.2078 0.615539 0
M  V30 930 C 89.1529 -1.59584 -0.322001 0
M  V30 931 O 90.3419 -1.78133 -0.114344 0
M  V30 932 C 87.4419 -3.38691 -0.118938 0
M  V30 933 C 86.6149 -4.29454 0.829924 0
M  V30 934 C 85.6739 -5.26024 0.136258 0
M  V30 935 O 84.6999 -5.63952 0.77115 0
M  V30 936 N 85.9019 -5.69487 -1.1254 0
M  V30 937 H 88.6669 -2.59052 1.50705 0
M  V30 938 H 86.2279 -1.32058 0.936603 0
M  V30 939 H 88.2199 -4.00329 -0.593179 0
M  V30 940 H 86.7899 -2.98996 -0.91215 0
M  V30 941 H 86.0099 -3.65211 1.48373 0
M  V30 942 H 87.2979 -4.86984 1.47392 0
M  V30 943 H 86.6959 -5.4075 -1.6615 0
M  V30 944 H 85.2529 -6.33257 -1.54366 0
M  V30 945 N 88.686 -0.835752 -1.33615 0
M  V30 946 C 89.933 -0.429959 -1.97883 0
M  V30 947 C 90.261 1.01006 -1.66217 0
M  V30 948 O 89.516 1.72047 -0.93265 0
M  V30 949 C 89.815 -0.593925 -3.52431 0
M  V30 950 C 89.481 -2.00158 -4.04039 0
M  V30 951 C 88.143 -2.38662 -4.17844 0
M  V30 952 C 90.495 -2.92117 -4.31644 0
M  V30 953 C 87.823 -3.68435 -4.56588 0
M  V30 954 C 90.175 -4.21368 -4.71838 0
M  V30 955 C 88.839 -4.59833 -4.83849 0
M  V30 956 H 88.109 -0.157333 -0.724104 0
M  V30 957 H 90.756 -1.06217 -1.59343 0
M  V30 958 H 89.061 0.121619 -3.91611 0
M  V30 959 H 90.758 -0.260282 -4.00154 0
M  V30 960 H 87.348 -1.69252 -3.93766 0
M  V30 961 H 91.532 -2.63608 -4.20505 0
M  V30 962 H 86.788 -3.98046 -4.64079 0
M  V30 963 H 90.962 -4.92703 -4.92155 0
M  V30 964 H 88.589 -5.60438 -5.13627 0
M  V30 965 N 90.1641 1.46063 -0.591896 0
M  V30 966 C 91.5801 1.57561 -0.254288 0
M  V30 967 C 91.7801 1.58565 1.24336 0
M  V30 968 O 90.8361 1.50753 2.02558 0
M  V30 969 C 92.1491 2.86549 -0.911611 0
M  V30 970 C 93.6971 3.00197 -0.886059 0
M  V30 971 C 94.1721 4.31933 -1.5231 0
M  V30 972 N 95.6631 4.38654 -1.48786 0
M  V30 973 C 96.3981 5.39222 -1.95006 0
M  V30 974 N 95.8941 6.46414 -2.49241 0
M  V30 975 N 97.6871 5.3048 -1.85868 0
M  V30 976 H 89.8381 1.43655 -1.56451 0
M  V30 977 H 92.1011 0.68583 -0.654478 0
M  V30 978 H 91.8071 2.91651 -1.96551 0
M  V30 979 H 91.6811 3.74794 -0.425368 0
M  V30 980 H 94.0681 2.9467 0.159246 0
M  V30 981 H 94.1491 2.13403 -1.41041 0
M  V30 982 H 93.7931 4.38217 -2.56765 0
M  V30 983 H 93.7231 5.17516 -0.973891 0
M  V30 984 H 96.2141 3.61793 -1.09151 0
M  V30 985 H 96.5271 7.19376 -2.82344 0
M  V30 986 H 94.8721 6.47208 -2.53272 0
M  V30 987 H 98.0631 4.45643 -1.43248 0
M  V30 988 H 98.2361 6.08711 -2.22204 0
M  V30 989 N 91.6422 0.330177 1.54103 0
M  V30 990 C 92.5522 -0.541534 2.28264 0
M  V30 991 C 93.5682 -1.12351 1.32866 0
M  V30 992 O 94.7442 -1.14206 1.65888 0
M  V30 993 C 91.8092 -1.68322 3.03098 0
M  V30 994 C 90.8702 -1.13238 4.14096 0
M  V30 995 C 90.1032 -2.21966 4.85352 0
M  V30 996 O 90.3262 -3.42437 4.56172 0
M  V30 997 O 89.2602 -1.87013 5.7211 0
M  V30 998 H 93.0862 0.060938 3.03639 0
M  V30 999 H 90.6712 0.09565 1.49093 0
M  V30 1000 H 92.5532 -2.34777 3.49939 0
M  V30 1001 H 91.2282 -2.27176 2.30593 0
M  V30 1002 H 90.1352 -0.432736 3.71589 0
M  V30 1003 H 91.4682 -0.588898 4.88664 0
M  V30 1004 N 93.1203 -1.57491 0.0584922 0
M  V30 1005 C 94.0673 -2.11958 -0.913376 0
M  V30 1006 C 95.0373 -1.02875 -1.30407 0
M  V30 1007 O 96.2223 -1.30464 -1.39226 0
M  V30 1008 C 93.3623 -2.67497 -2.18035 0
M  V30 1009 C 92.4753 -3.90691 -1.84349 0
M  V30 1010 C 91.6103 -4.3452 -3.05559 0
M  V30 1011 C 90.6493 -5.50395 -2.67827 0
M  V30 1012 N 89.7863 -5.89244 -3.81754 0
M  V30 1013 H 94.6263 -2.94704 -0.442017 0
M  V30 1014 H 92.1633 -1.45643 -0.206545 0
M  V30 1015 H 94.1213 -2.978 -2.92183 0
M  V30 1016 H 92.7513 -1.87537 -2.62735 0
M  V30 1017 H 91.8033 -3.66934 -1.00319 0
M  V30 1018 H 93.1153 -4.7489 -1.5258 0
M  V30 1019 H 92.2693 -4.66414 -3.87998 0
M  V30 1020 H 91.0083 -3.49147 -3.40511 0
M  V30 1021 H 90.0133 -5.18165 -1.83806 0
M  V30 1022 H 91.2383 -6.3749 -2.34059 0
M  V30 1023 H 89.1843 -5.06823 -4.16493 0
M  V30 1024 H 89.1013 -6.68151 -3.53708 0
M  V30 1025 H 90.3693 -6.25756 -4.64811 0
M  V30 1026 N 94.5984 0.214957 -1.56127 0
M  V30 1027 C 96.0094 0.781386 -1.69562 0
M  V30 1028 C 96.3604 1.84707 -0.66165 0
M  V30 1029 O 95.4854 2.156 0.185927 0
M  V30 1030 C 96.0804 1.42411 -3.07416 0
M  V30 1031 C 94.6394 1.93786 -3.22683 0
M  V30 1032 C 93.7864 0.800438 -2.65496 0
M  V30 1033 H 96.7374 -0.00980633 -1.58697 0
M  V30 1034 H 96.7584 2.29309 -3.0364 0
M  V30 1035 H 96.2704 0.64826 -3.82648 0
M  V30 1036 H 94.3714 2.74152 -2.52332 0
M  V30 1037 H 94.4844 2.1133 -4.29973 0
M  V30 1038 H 92.8484 1.2095 -2.2415 0
M  V30 1039 H 93.6314 0.0371471 -3.4328 0
M  V30 1040 N 96.0765 1.50051 0.48192 0
M  V30 1041 C 97.4925 1.37237 0.814756 0
M  V30 1042 C 97.6925 0.420109 1.97072 0
M  V30 1043 O 96.7485 -0.141246 2.52105 0
M  V30 1044 C 98.0615 2.78375 1.13701 0
M  V30 1045 C 99.6095 2.87213 1.2441 0
M  V30 1046 C 100.084 4.29161 1.59954 0
M  V30 1047 N 101.575 4.32061 1.66967 0
M  V30 1048 C 102.31 5.38879 1.95952 0
M  V30 1049 N 101.806 6.55918 2.23031 0
M  V30 1050 N 103.599 5.26312 1.97363 0
M  V30 1051 H 95.7505 2.10546 -0.28005 0
M  V30 1052 H 98.0135 0.945921 -0.0627454 0
M  V30 1053 H 97.7195 3.49845 0.360787 0
M  V30 1054 H 97.5935 3.14941 2.07586 0
M  V30 1055 H 99.9805 2.15969 2.01101 0
M  V30 1056 H 100.061 2.54204 0.285299 0
M  V30 1057 H 99.7055 5.00938 0.838067 0
M  V30 1058 H 99.6355 4.59648 2.56966 0
M  V30 1059 H 102.126 3.47661 1.48123 0
M  V30 1060 H 102.439 7.33139 2.44391 0
M  V30 1061 H 100.784 6.59112 2.20447 0
M  V30 1062 H 103.975 4.33876 1.75697 0
M  V30 1063 H 104.148 6.09649 2.19618 0
M  V30 1064 N 97.5546 -0.734337 1.39446 0
M  V30 1065 C 98.8006 -1.49613 1.36908 0
M  V30 1066 C 99.1336 -1.94169 -0.0347829 0
M  V30 1067 O 98.4086 -1.66833 -0.999847 0
M  V30 1068 C 98.6916 -2.73534 2.34203 0
M  V30 1069 C 98.5446 -2.34993 3.83534 0
M  V30 1070 C 99.8636 -3.75635 2.29317 0
M  V30 1071 H 96.9826 -0.542714 0.498629 0
M  V30 1072 H 99.6246 -0.839597 1.70443 0
M  V30 1073 H 97.7746 -3.29553 2.05736 0
M  V30 1074 H 99.4466 -1.84601 4.22753 0
M  V30 1075 H 97.6896 -1.67213 4.00278 0
M  V30 1076 H 98.3606 -3.23738 4.47099 0
M  V30 1077 H 100.837 -3.29203 2.54489 0
M  V30 1078 H 99.7126 -4.60008 2.99472 0
M  V30 1079 H 99.9736 -4.22603 1.29842 0
M  V30 1080 N 99.0327 -1.24633 -0.964593 0
M  V30 1081 C 100.281 -1.08573 -1.70459 0
M  V30 1082 C 100.602 0.375655 -1.91347 0
M  V30 1083 O 99.8717 1.26779 -1.49345 0
M  V30 1084 H 98.4517 -0.398784 -0.631649 0
M  V30 1085 H 101.114 -1.56601 -1.16026 0
M  V30 1086 H 100.21 -1.58623 -2.68785 0
M  V30 1087 N 100.511 1.16574 -1.06058 0
M  V30 1088 C 101.922 1.68662 -0.800632 0
M  V30 1089 C 102.273 1.84184 0.67608 0
M  V30 1090 O 101.398 1.53568 1.52466 0
M  V30 1091 C 101.993 3.06356 -1.44676 0
M  V30 1092 C 100.552 3.55575 -1.23465 0
M  V30 1093 C 99.6988 2.31616 -1.52477 0
M  V30 1094 H 102.65 1.00969 -1.22438 0
M  V30 1095 H 102.671 3.70636 -0.860788 0
M  V30 1096 H 102.183 2.95027 -2.52152 0
M  V30 1097 H 100.284 3.72167 -0.179527 0
M  V30 1098 H 100.397 4.37812 -1.94571 0
M  V30 1099 H 98.7608 2.36512 -0.945209 0
M  V30 1100 H 99.5438 2.22887 -2.61106 0
M  V30 1101 N 101.989 0.842826 1.3317 0
M  V30 1102 C 103.237 0.439577 1.97262 0
M  V30 1103 C 103.558 -1.00548 1.67078 0
M  V30 1104 O 102.828 -1.70098 0.971779 0
M  V30 1105 H 101.408 0.159558 0.72976 0
M  V30 1106 H 104.07 1.07665 1.62463 0
M  V30 1107 H 103.166 0.574886 3.0676 0
M  V30 1108 N 103.467 -1.45747 0.599634 0
M  V30 1109 C 104.415 -2.322 -0.136426 0
M  V30 1110 C 105.409 -1.45497 -0.867583 0
M  V30 1111 O 106.615 -1.62027 -0.78405 0
M  V30 1112 H 102.99 -0.749368 -0.0628588 0
M  V30 1113 H 104.961 -2.92072 0.611281 0
M  V30 1114 C 103.71 -3.28974 -1.12567 0
M  V30 1115 H 103.033 -3.9568 -0.572484 0
M  V30 1116 H 104.473 -3.92212 -1.61077 0
M  V30 1117 C 102.932 -2.55561 -2.19523 0
M  V30 1118 O 103.462 -2.33111 -3.27143 0
M  V30 1119 N 101.668 -2.15832 -1.94589 0
M  V30 1120 H 101.215 -2.3429 -1.07078 0
M  V30 1121 H 101.173 -1.67034 -2.66359 0
M  V30 1122 N 104.945 -0.338344 -1.53925 0
M  V30 1123 C 106.173 0.261298 -2.05243 0
M  V30 1124 C 106.588 1.44625 -1.21363 0
M  V30 1125 O 105.945 1.80811 -0.247736 0
M  V30 1126 C 105.996 0.681412 -3.5502 0
M  V30 1127 O 105.717 -0.456414 -4.35716 0
M  V30 1128 C 107.218 1.34232 -4.22489 0
M  V30 1129 H 104.438 0.0513685 -0.669031 0
M  V30 1130 H 106.982 -0.488822 -1.98572 0
M  V30 1131 H 105.137 1.38148 -3.61931 0
M  V30 1132 H 105.551 -0.122564 -5.24357 0
M  V30 1133 H 107.025 1.58708 -5.28693 0
M  V30 1134 H 107.502 2.29426 -3.74514 0
M  V30 1135 H 108.108 0.684424 -4.19757 0
M  V30 1136 N 106.423 1.57458 -0.0668435 0
M  V30 1137 C 107.669 1.93587 0.6043 0
M  V30 1138 C 108.002 0.946722 1.69561 0
M  V30 1139 O 107.277 -0.0248516 1.94484 0
M  V30 1140 C 107.56 3.40014 1.18585 0
M  V30 1141 C 107.413 4.49685 0.101529 0
M  V30 1142 C 108.732 3.87154 2.09284 0
M  V30 1143 H 105.851 0.703958 0.218202 0
M  V30 1144 H 108.493 1.89542 -0.131804 0
M  V30 1145 H 106.643 3.43592 1.81319 0
M  V30 1146 H 108.315 4.5823 -0.531279 0
M  V30 1147 H 106.558 4.30059 -0.568487 0
M  V30 1148 H 107.229 5.49266 0.54874 0
M  V30 1149 H 109.705 3.85551 1.56491 0
M  V30 1150 H 108.581 4.90231 2.46911 0
M  V30 1151 H 108.842 3.2481 2.99918 0
M  V30 1152 N 107.901 -0.206675 1.56239 0
M  V30 1153 C 108.864 -1.23976 1.92776 0
M  V30 1154 C 109.864 -1.39041 0.807729 0
M  V30 1155 O 111.054 -1.37051 1.0753 0
M  V30 1156 C 108.186 -2.61112 2.19165 0
M  V30 1157 H 109.379 -0.927764 2.85189 0
M  V30 1158 H 106.932 -0.447718 1.4975 0
M  V30 1159 H 107.667 -2.97386 1.29352 0
M  V30 1160 H 107.452 -2.51552 3.00772 0
M  V30 1161 H 108.942 -3.35633 2.48476 0
M  V30 1162 N 109.379 -1.50304 -0.473955 0
M  V30 1163 C 110.309 -1.71886 -1.58042 0
M  V30 1164 C 111.29 -0.567799 -1.60344 0
M  V30 1165 O 112.475 -0.806623 -1.76656 0
M  V30 1166 C 109.605 -1.81036 -2.96384 0
M  V30 1167 C 108.559 -2.962 -3.08949 0
M  V30 1168 C 107.885 -2.9049 -4.48909 0
M  V30 1169 C 109.185 -4.36752 -2.86434 0
M  V30 1170 H 110.879 -2.64527 -1.40234 0
M  V30 1171 H 108.425 -1.27295 -0.673201 0
M  V30 1172 H 110.378 -1.94719 -3.73714 0
M  V30 1173 H 109.102 -0.850147 -3.15341 0
M  V30 1174 H 107.761 -2.82164 -2.3405 0
M  V30 1175 H 107.409 -1.92321 -4.64781 0
M  V30 1176 H 107.109 -3.67802 -4.58253 0
M  V30 1177 H 108.633 -3.06218 -5.28264 0
M  V30 1178 H 110.047 -4.5133 -3.53517 0
M  V30 1179 H 108.444 -5.15493 -3.07225 0
M  V30 1180 H 109.514 -4.49321 -1.82316 0
M  V30 1181 N 110.857 0.726932 -1.39834 0
M  V30 1182 C 111.787 1.85405 -1.41941 0
M  V30 1183 C 112.768 1.67751 -0.281728 0
M  V30 1184 O 113.953 1.8795 -0.488717 0
M  V30 1185 C 111.083 3.23243 -1.2701 0
M  V30 1186 C 110.037 3.55549 -2.38262 0
M  V30 1187 C 109.363 4.9241 -2.08415 0
M  V30 1188 C 110.663 3.577 -3.80589 0
M  V30 1189 H 112.357 1.83899 -2.36266 0
M  V30 1190 H 109.903 0.883349 -1.13723 0
M  V30 1191 H 111.856 4.01775 -1.27103 0
M  V30 1192 H 110.58 3.25296 -0.291564 0
M  V30 1193 H 109.239 2.79351 -2.37399 0
M  V30 1194 H 108.887 4.91052 -1.0898 0
M  V30 1195 H 108.587 5.14992 -2.82943 0
M  V30 1196 H 110.111 5.73289 -2.10171 0
M  V30 1197 H 111.525 4.26293 -3.83337 0
M  V30 1198 H 109.922 3.91804 -4.54543 0
M  V30 1199 H 110.992 2.57328 -4.10987 0
M  V30 1200 N 112.336 1.25143 0.95797 0
M  V30 1201 C 113.286 1.01924 2.0395 0
M  V30 1202 C 114.27 -0.0427175 1.60843 0
M  V30 1203 O 115.462 0.17221 1.7616 0
M  V30 1204 C 112.591 0.636373 3.3735 0
M  V30 1205 C 111.677 1.73492 3.8699 0
M  V30 1206 N 112.068 2.96945 4.0946 0
M  V30 1207 C 110.366 1.61467 4.15746 0
M  V30 1208 C 111.067 3.68228 4.50315 0
M  V30 1209 N 110.043 2.95833 4.56053 0
M  V30 1210 H 113.845 1.95653 2.19311 0
M  V30 1211 H 111.359 1.15413 1.14253 0
M  V30 1212 H 113.356 0.451233 4.14451 0
M  V30 1213 H 112.016 -0.293621 3.2337 0
M  V30 1214 H 113.027 3.33025 3.96629 0
M  V30 1215 H 109.704 0.753394 4.10646 0
M  V30 1216 H 111.094 4.74178 4.76031 0
M  V30 1217 N 113.814 -1.1601 1.06675 0
M  V30 1218 C 115.062 -1.86264 0.784229 0
M  V30 1219 C 115.383 -1.82328 -0.691488 0
M  V30 1220 O 114.653 -1.25947 -1.50047 0
M  V30 1221 H 113.233 -0.689621 0.28711 0
M  V30 1222 H 115.895 -1.40664 1.34906 0
M  V30 1223 H 114.991 -2.91595 1.11259 0
M  V30 1224 N 115.292 -0.849877 -1.32721 0
M  V30 1225 C 116.54 -0.450032 -1.97026 0
M  V30 1226 C 116.861 0.996604 -1.67609 0
M  V30 1227 O 116.131 1.6958 -0.980786 0
M  V30 1228 H 114.711 -0.163426 -0.728904 0
M  V30 1229 H 117.373 -1.08526 -1.6189 0
M  V30 1230 H 116.469 -0.591146 -3.0645 0
M  V30 1231 N 116.77 1.45427 -0.607355 0
M  V30 1232 C 117.68 2.34325 0.113463 0
M  V30 1233 C 118.696 1.51226 0.860617 0
M  V30 1234 O 119.872 1.84029 0.818255 0
M  V30 1235 C 116.937 3.28839 1.09844 0
M  V30 1236 C 115.998 4.27844 0.353271 0
M  V30 1237 C 115.231 5.17842 1.29133 0
M  V30 1238 O 115.454 5.11264 2.52913 0
M  V30 1239 O 114.388 5.96713 0.788523 0
M  V30 1240 H 118.214 2.97364 -0.617094 0
M  V30 1241 H 115.799 1.44807 -0.367619 0
M  V30 1242 H 117.681 3.8708 1.66575 0
M  V30 1243 H 116.356 2.68365 1.81003 0
M  V30 1244 H 115.263 3.7322 -0.256494 0
M  V30 1245 H 116.596 4.91173 -0.317822 0
M  V30 1246 N 118.248 0.346503 1.53744 0
M  V30 1247 C 119.664 -0.00530975 1.59599 0
M  V30 1248 C 119.864 -1.48465 1.36236 0
M  V30 1249 O 118.92 -2.24376 1.15808 0
M  V30 1250 C 120.233 0.433516 2.97559 0
M  V30 1251 C 121.781 0.386111 3.10609 0
M  V30 1252 C 122.256 0.800451 4.50951 0
M  V30 1253 N 123.747 0.754753 4.5701 0
M  V30 1254 C 124.482 1.04727 5.63755 0
M  V30 1255 N 123.978 1.4081 6.7834 0
M  V30 1256 N 125.771 0.971316 5.53644 0
M  V30 1257 H 117.922 1.31009 1.67184 0
M  V30 1258 H 120.185 0.534242 0.783128 0
M  V30 1259 H 119.891 1.46509 3.19731 0
M  V30 1260 H 119.765 -0.189753 3.76722 0
M  V30 1261 H 122.152 -0.636295 2.88158 0
M  V30 1262 H 122.233 1.04462 2.33498 0
M  V30 1263 H 121.877 1.82088 4.74137 0
M  V30 1264 H 121.807 0.119386 5.26465 0
M  V30 1265 H 124.298 0.488662 3.74727 0
M  V30 1266 H 124.611 1.61607 7.55714 0
M  V30 1267 H 122.956 1.44657 6.79779 0
M  V30 1268 H 126.147 0.688748 4.63005 0
M  V30 1269 H 126.32 1.20263 6.36742 0
M  V30 1270 N 119.726 -1.57421 0.075193 0
M  V30 1271 C 120.972 -1.93905 -0.594025 0
M  V30 1272 C 121.305 -0.955701 -1.69056 0
M  V30 1273 O 120.58 0.0145373 -1.94495 0
M  V30 1274 C 120.863 -3.40638 -1.1678 0
M  V30 1275 C 120.716 -4.49733 -0.0776792 0
M  V30 1276 C 122.035 -3.88259 -2.07228 0
M  V30 1277 H 119.154 -0.705105 -0.214466 0
M  V30 1278 H 121.796 -1.8947 0.141854 0
M  V30 1279 H 119.946 -3.44549 -1.79494 0
M  V30 1280 H 121.618 -4.57942 0.555573 0
M  V30 1281 H 119.861 -4.29751 0.591286 0
M  V30 1282 H 120.532 -5.49549 -0.519603 0
M  V30 1283 H 123.008 -3.86376 -1.54445 0
M  V30 1284 H 121.884 -4.91533 -2.44308 0
M  V30 1285 H 122.145 -3.26396 -2.98191 0
M  V30 1286 N 121.204 0.198386 -1.56346 0
M  V30 1287 C 122.167 1.22952 -1.93431 0
M  V30 1288 C 123.167 1.38611 -0.815092 0
M  V30 1289 O 124.357 1.36479 -1.08255 0
M  V30 1290 C 121.489 2.59946 -2.20546 0
M  V30 1291 H 122.682 0.912626 -2.85677 0
M  V30 1292 H 120.235 0.43977 -1.49986 0
M  V30 1293 H 120.97 2.96696 -1.30927 0
M  V30 1294 H 120.755 2.49953 -3.02102 0
M  V30 1295 H 122.245 3.3431 -2.50253 0
M  V30 1296 N 122.682 1.50554 0.465978 0
M  V30 1297 C 123.612 1.72722 1.57128 0
M  V30 1298 C 124.593 0.576294 1.6004 0
M  V30 1299 O 125.778 0.81598 1.76225 0
M  V30 1300 C 122.908 1.82605 2.95419 0
M  V30 1301 C 121.862 2.97835 3.07373 0
M  V30 1302 C 121.188 2.92867 4.47363 0
M  V30 1303 C 122.488 4.38265 2.84114 0
M  V30 1304 H 124.182 2.65267 1.38829 0
M  V30 1305 H 121.728 1.2765 0.666441 0
M  V30 1306 H 123.681 1.96698 3.72677 0
M  V30 1307 H 122.405 0.866858 3.14886 0
M  V30 1308 H 121.064 2.83401 2.3255 0
M  V30 1309 H 120.712 1.94783 4.63755 0
M  V30 1310 H 120.412 3.70227 4.56296 0
M  V30 1311 H 121.936 3.09015 5.26633 0
M  V30 1312 H 123.35 4.53198 3.51118 0
M  V30 1313 H 121.747 5.17115 3.04487 0
M  V30 1314 H 122.817 4.50281 1.7993 0
M  V30 1315 N 124.16 -0.719506 1.40217 0
M  V30 1316 C 125.09 -1.8465 1.42922 0
M  V30 1317 C 126.071 -1.67599 0.29062 0
M  V30 1318 O 127.256 -1.87688 0.498677 0
M  V30 1319 C 124.386 -3.22565 1.28722 0
M  V30 1320 C 123.34 -3.54281 2.40144 0
M  V30 1321 C 122.666 -4.91298 2.11023 0
M  V30 1322 C 123.966 -3.55676 3.82481 0
M  V30 1323 H 125.66 -1.82644 2.37237 0
M  V30 1324 H 123.206 -0.877305 1.1419 0
M  V30 1325 H 125.159 -4.01095 1.29232 0
M  V30 1326 H 123.883 -3.25137 0.308811 0
M  V30 1327 H 122.542 -2.78088 2.38877 0
M  V30 1328 H 122.19 -4.90468 1.11582 0
M  V30 1329 H 121.89 -5.13485 2.8567 0
M  V30 1330 H 123.414 -5.72166 2.13209 0
M  V30 1331 H 124.828 -4.24254 3.85592 0
M  V30 1332 H 123.225 -3.89388 4.56614 0
M  V30 1333 H 124.295 -2.55144 4.12346 0
M  V30 1334 N 125.638 -1.25649 -0.95132 0
M  V30 1335 C 126.588 -1.03004 -2.03406 0
M  V30 1336 C 127.572 0.034187 -1.60864 0
M  V30 1337 O 128.764 -0.181549 -1.76066 0
M  V30 1338 C 125.893 -0.654255 -3.37008 0
M  V30 1339 C 124.979 -1.75542 -3.86065 0
M  V30 1340 N 125.37 -2.99113 -4.07879 0
M  V30 1341 C 123.668 -1.63669 -4.14884 0
M  V30 1342 C 124.369 -3.70611 -4.48356 0
M  V30 1343 N 123.345 -2.98247 -4.54477 0
M  V30 1344 H 127.147 -1.96813 -2.1827 0
M  V30 1345 H 124.661 -1.16017 -1.13639 0
M  V30 1346 H 126.658 -0.473206 -4.14206 0
M  V30 1347 H 125.318 0.276468 -3.23521 0
M  V30 1348 H 126.329 -3.35124 -3.94857 0
M  V30 1349 H 123.006 -0.775161 -4.10241 0
M  V30 1350 H 124.396 -4.76695 -4.73509 0
M  V30 1351 N 127.117 1.15442 -1.07289 0
M  V30 1352 C 128.363 1.86489 -0.796846 0
M  V30 1353 C 128.696 1.82078 0.675371 0
M  V30 1354 O 127.971 1.24346 1.4956 0
M  V30 1355 C 128.254 3.35626 -1.30489 0
M  V30 1356 C 128.107 3.48673 -2.84161 0
M  V30 1357 C 129.426 4.30357 -0.920907 0
M  V30 1358 H 126.545 0.677144 -0.290939 0
M  V30 1359 H 129.187 1.35633 -1.33056 0
M  V30 1360 H 127.337 3.79068 -0.850883 0
M  V30 1361 H 129.009 3.14099 -3.37846 0
M  V30 1362 H 127.252 2.90253 -3.22391 0
M  V30 1363 H 127.923 4.53453 -3.14777 0
M  V30 1364 H 130.399 3.94871 -1.3121 0
M  V30 1365 H 129.275 5.33193 -1.30372 0
M  V30 1366 H 129.536 4.4176 0.173226 0
M  V30 1367 N 128.595 0.856903 1.32268 0
M  V30 1368 C 129.558 0.308171 2.27119 0
M  V30 1369 C 130.558 -0.533421 1.51695 0
M  V30 1370 O 131.748 -0.344607 1.70757 0
M  V30 1371 C 128.88 -0.563757 3.36206 0
M  V30 1372 H 130.073 1.14535 2.77167 0
M  V30 1373 H 127.626 0.631421 1.42978 0
M  V30 1374 H 128.361 -1.42266 2.91429 0
M  V30 1375 H 128.146 0.0386749 3.92081 0
M  V30 1376 H 129.636 -0.940386 4.06874 0
M  V30 1377 N 130.073 -1.45103 0.615059 0
M  V30 1378 C 130.983 -2.34382 -0.101034 0
M  V30 1379 C 131.999 -1.51681 -0.852585 0
M  V30 1380 O 133.175 -1.8446 -0.808484 0
M  V30 1381 C 130.24 -3.29417 -1.08099 0
M  V30 1382 C 129.301 -4.28025 -0.330577 0
M  V30 1383 C 128.534 -5.1852 -1.26385 0
M  V30 1384 O 128.757 -5.12598 -2.50198 0
M  V30 1385 O 127.691 -5.97122 -0.756866 0
M  V30 1386 H 131.517 -2.97033 0.632855 0
M  V30 1387 H 129.102 -1.4461 0.375293 0
M  V30 1388 H 130.984 -3.87958 -1.6452 0
M  V30 1389 H 129.659 -2.69321 -1.79577 0
M  V30 1390 H 128.566 -3.73078 0.276283 0
M  V30 1391 H 129.899 -4.90997 0.343866 0
M  V30 1392 N 131.551 -0.354651 -1.53558 0
M  V30 1393 C 132.514 0.484566 -2.24019 0
M  V30 1394 C 133.514 1.01861 -1.24422 0
M  V30 1395 O 134.704 0.906097 -1.4878 0
M  V30 1396 C 131.836 1.67615 -2.96847 0
M  V30 1397 H 133.029 -0.131843 -2.9961 0
M  V30 1398 H 130.582 -0.106165 -1.55939 0
M  V30 1399 H 131.317 2.33095 -2.25471 0
M  V30 1400 H 131.102 1.30029 -3.69912 0
M  V30 1401 H 132.592 2.27114 -3.50441 0
M  V30 1402 N 133.029 1.57378 -0.0835403 0
M  V30 1403 C 134.259 1.97975 0.590713 0
M  V30 1404 C 134.667 0.961083 1.62972 0
M  V30 1405 O 134.01 -0.0590879 1.83605 0
M  V30 1406 C 134.072 3.34915 1.3066 0
M  V30 1407 C 133.736 4.55069 0.419698 0
M  V30 1408 C 134.733 5.18868 -0.32749 0
M  V30 1409 C 132.418 5.0114 0.341137 0
M  V30 1410 C 134.412 6.27098 -1.14134 0
M  V30 1411 C 132.099 6.0924 -0.476374 0
M  V30 1412 C 133.097 6.72083 -1.21627 0
M  V30 1413 O 132.785 7.781 -2.02028 0
M  V30 1414 H 132.517 0.655818 0.163947 0
M  V30 1415 H 135.071 2.04807 -0.156021 0
M  V30 1416 H 133.301 3.24733 2.09966 0
M  V30 1417 H 134.99 3.60037 1.87424 0
M  V30 1418 H 135.756 4.84211 -0.276459 0
M  V30 1419 H 131.635 4.51996 0.90668 0
M  V30 1420 H 135.179 6.7608 -1.71935 0
M  V30 1421 H 131.076 6.43329 -0.528927 0
M  V30 1422 H 131.844 7.95034 -1.94586 0
M  V30 1423 N 134.507 -0.190092 1.56449 0
M  V30 1424 C 135.417 -1.25591 1.98152 0
M  V30 1425 C 136.433 -1.49519 0.889944 0
M  V30 1426 O 137.609 -1.62036 1.19609 0
M  V30 1427 C 134.674 -2.57916 2.3169 0
M  V30 1428 C 133.735 -2.42015 3.5458 0
M  V30 1429 C 132.968 -3.6803 3.8651 0
M  V30 1430 O 133.191 -4.72413 3.1966 0
M  V30 1431 O 132.125 -3.6326 4.79923 0
M  V30 1432 H 135.951 -0.931988 2.89046 0
M  V30 1433 H 133.536 -0.395488 1.4407 0
M  V30 1434 H 135.418 -3.36008 2.54316 0
M  V30 1435 H 134.093 -2.89925 1.43963 0
M  V30 1436 H 133 -1.62017 3.37196 0
M  V30 1437 H 134.333 -2.14937 4.4279 0
M  V30 1438 N 135.985 -1.50799 -0.457987 0
M  V30 1439 C 136.915 -1.73553 -1.5621 0
M  V30 1440 C 137.896 -0.584774 -1.59732 0
M  V30 1441 O 139.081 -0.825314 -1.7579 0
M  V30 1442 C 136.211 -1.84169 -2.94447 0
M  V30 1443 C 135.165 -2.99461 -3.0579 0
M  V30 1444 C 134.491 -2.95235 -4.45803 0
M  V30 1445 C 135.791 -4.39766 -2.81786 0
M  V30 1446 H 137.485 -2.66 -1.37421 0
M  V30 1447 H 135.031 -1.28002 -0.659662 0
M  V30 1448 H 136.984 -1.98672 -3.71628 0
M  V30 1449 H 135.708 -0.883545 -3.14422 0
M  V30 1450 H 134.367 -2.8463 -2.31044 0
M  V30 1451 H 134.015 -1.97239 -4.62715 0
M  V30 1452 H 133.715 -3.72642 -4.54326 0
M  V30 1453 H 135.239 -3.11803 -5.24987 0
M  V30 1454 H 136.653 -4.55054 -3.4871 0
M  V30 1455 H 135.05 -5.18722 -3.0174 0
M  V30 1456 H 136.12 -4.51229 -1.7754 0
M  V30 1457 N 137.463 0.71206 -1.40597 0
M  V30 1458 C 138.74 1.46536 -1.29563 0
M  V30 1459 C 139.12 2.10931 0.0844217 0
M  V30 1460 O 138.468 2.00418 1.0975 0
M  V30 1461 C 138.678 2.49821 -2.43701 0
M  V30 1462 C 140.026 3.15551 -2.841 0
M  V30 1463 O 141.05 2.60142 -2.4332 0
M  V30 1464 O 139.909 4.15867 -3.54566 0
M  V30 1465 H 137.003 0.651801 -0.509004 0
M  V30 1466 H 139.549 0.743935 -1.52524 0
M  V30 1467 H 138.321 2.00778 -3.35863 0
M  V30 1468 H 137.944 3.29495 -2.22528 0
M  V30 1469 N 138.941 1.26152 0.944643 0
M  V30 1470 C 139.871 1.09902 2.06019 0
M  V30 1471 C 140.852 0.00519538 1.70099 0
M  V30 1472 O 142.037 0.176583 1.93396 0
M  V30 1473 C 139.167 0.727562 3.39594 0
M  V30 1474 C 138.121 1.77274 3.89561 0
M  V30 1475 C 137.447 1.25569 5.19747 0
M  V30 1476 C 138.747 3.17357 4.14827 0
M  V30 1477 H 140.441 2.03217 2.19871 0
M  V30 1478 H 137.987 0.978452 1.05652 0
M  V30 1479 H 139.94 0.600777 4.17095 0
M  V30 1480 H 138.664 -0.241287 3.25707 0
M  V30 1481 H 137.323 1.88814 3.14237 0
M  V30 1482 H 136.971 0.276783 5.02238 0
M  V30 1483 H 136.671 1.95433 5.54148 0
M  V30 1484 H 138.195 1.1415 5.99835 0
M  V30 1485 H 139.609 3.08914 4.82954 0
M  V30 1486 H 138.006 3.84781 4.60504 0
M  V30 1487 H 139.076 3.63673 3.20734 0
M  V30 1488 N 140.419 -1.14872 1.07899 0
M  V30 1489 C 141.329 -2.2341 0.715915 0
M  V30 1490 C 142.345 -1.71808 -0.275306 0
M  V30 1491 O 143.521 -2.01039 -0.120545 0
M  V30 1492 C 140.586 -3.46474 0.125168 0
M  V30 1493 C 139.647 -4.13039 1.17034 0
M  V30 1494 C 138.88 -5.30229 0.607688 0
M  V30 1495 O 139.103 -5.675 -0.574497 0
M  V30 1496 O 138.037 -5.86444 1.35526 0
M  V30 1497 H 141.863 -2.56808 1.62121 0
M  V30 1498 H 139.448 -1.22702 0.852322 0
M  V30 1499 H 141.33 -4.20917 -0.201729 0
M  V30 1500 H 140.005 -3.14811 -0.753364 0
M  V30 1501 H 138.912 -3.40493 1.54968 0
M  V30 1502 H 140.245 -4.48796 2.02097 0
M  V30 1503 N 141.898 -0.863906 -1.31812 0
M  V30 1504 C 142.861 -0.320212 -2.26952 0
M  V30 1505 C 143.861 0.525369 -1.51975 0
M  V30 1506 O 145.051 0.335547 -1.70938 0
M  V30 1507 C 142.183 0.545919 -3.365 0
M  V30 1508 H 143.376 -1.16004 -2.76556 0
M  V30 1509 H 140.929 -0.638995 -1.42641 0
M  V30 1510 H 141.664 1.40718 -2.92179 0
M  V30 1511 H 141.449 -0.0594674 -3.92055 0
M  V30 1512 H 142.939 0.918796 -4.07367 0
M  V30 1513 N 143.376 1.44774 -0.622745 0
M  V30 1514 C 144.306 2.33382 0.0741861 0
M  V30 1515 C 145.287 1.47719 0.843387 0
M  V30 1516 O 146.472 1.76458 0.810934 0
M  V30 1517 C 143.602 3.30663 1.06204 0
M  V30 1518 C 142.556 4.26079 0.405037 0
M  V30 1519 C 141.882 5.13165 1.5022 0
M  V30 1520 C 143.182 5.1781 -0.683414 0
M  V30 1521 H 144.876 2.91905 -0.665713 0
M  V30 1522 H 142.422 1.40363 -0.321587 0
M  V30 1523 H 144.375 3.9153 1.55827 0
M  V30 1524 H 143.099 2.70331 1.83272 0
M  V30 1525 H 141.758 3.66532 -0.0704683 0
M  V30 1526 H 141.406 4.49191 2.26355 0
M  V30 1527 H 141.106 5.77812 1.06803 0
M  V30 1528 H 142.63 5.76902 2.00041 0
M  V30 1529 H 144.044 5.72661 -0.270631 0
M  V30 1530 H 142.441 5.91015 -1.04023 0
M  V30 1531 H 143.511 4.59326 -1.55395 0
M  V30 1532 N 144.854 0.36279 1.53368 0
M  V30 1533 C 145.817 -0.472679 2.24273 0
M  V30 1534 C 146.817 -1.012 1.24961 0
M  V30 1535 O 148.007 -0.898194 1.49259 0
M  V30 1536 C 145.139 -1.66039 2.97731 0
M  V30 1537 H 146.332 0.14773 2.99536 0
M  V30 1538 H 143.885 0.114434 1.55881 0
M  V30 1539 H 144.62 -2.31896 2.26704 0
M  V30 1540 H 144.405 -1.28066 3.70596 0
M  V30 1541 H 145.895 -2.25252 3.51641 0
M  V30 1542 N 146.332 -1.57332 0.0918853 0
M  V30 1543 C 147.748 -1.57389 -0.264766 0
M  V30 1544 C 147.948 -1.10281 -1.68643 0
M  V30 1545 O 147.004 -0.777801 -2.40222 0
M  V30 1546 C 148.317 -3.00648 -0.0561195 0
M  V30 1547 C 149.865 -3.12754 -0.124116 0
M  V30 1548 C 150.34 -4.57965 0.0564972 0
M  V30 1549 N 151.831 -4.632 0.00155611 0
M  V30 1550 C 152.566 -5.73281 0.116598 0
M  V30 1551 N 152.062 -6.92208 0.286294 0
M  V30 1552 N 153.855 -5.6207 0.0580973 0
M  V30 1553 H 146.006 -1.86262 1.02079 0
M  V30 1554 H 148.269 -0.859579 0.399786 0
M  V30 1555 H 147.975 -3.393 0.925669 0
M  V30 1556 H 147.849 -3.68623 -0.799823 0
M  V30 1557 H 150.236 -2.73976 -1.09641 0
M  V30 1558 H 150.317 -2.47377 0.651024 0
M  V30 1559 H 149.961 -4.97436 1.02564 0
M  V30 1560 H 149.891 -5.21399 -0.738297 0
M  V30 1561 H 152.382 -3.77686 -0.127192 0
M  V30 1562 H 152.695 -7.71934 0.365676 0
M  V30 1563 H 151.04 -6.94254 0.32192 0
M  V30 1564 H 154.231 -4.68043 -0.0733204 0
M  V30 1565 H 154.404 -6.47824 0.151203 0
M  V30 1566 N 147.81 0.181792 -1.56548 0
M  V30 1567 C 148.773 1.20894 -1.94724 0
M  V30 1568 C 149.773 1.37738 -0.829747 0
M  V30 1569 O 150.963 1.35323 -1.09697 0
M  V30 1570 C 148.095 2.57593 -2.23291 0
M  V30 1571 H 149.288 0.882275 -2.86629 0
M  V30 1572 H 146.841 0.423838 -1.50444 0
M  V30 1573 H 147.576 2.95291 -1.34067 0
M  V30 1574 H 147.361 2.46735 -3.04736 0
M  V30 1575 H 148.851 3.31637 -2.53785 0
M  V30 1576 N 149.288 1.51039 0.449983 0
M  V30 1577 C 150.534 1.63322 1.20223 0
M  V30 1578 C 150.867 0.34241 1.91158 0
M  V30 1579 O 150.142 -0.657344 1.83055 0
M  V30 1580 C 150.425 2.82801 2.22925 0
M  V30 1581 C 150.278 4.21823 1.56157 0
M  V30 1582 C 151.597 2.97807 3.24035 0
M  V30 1583 H 148.716 0.594407 0.435718 0
M  V30 1584 H 151.358 1.83489 0.493136 0
M  V30 1585 H 149.508 2.65738 2.834 0
M  V30 1586 H 151.18 4.50526 0.991162 0
M  V30 1587 H 149.423 4.25105 0.864172 0
M  V30 1588 H 150.094 5.01391 2.30891 0
M  V30 1589 H 152.57 3.13497 2.73603 0
M  V30 1590 H 151.446 3.82992 3.93202 0
M  V30 1591 H 151.707 2.09328 3.89402 0
M  V30 1592 N 150.766 -0.704594 1.40972 0
M  V30 1593 C 152.013 -1.46458 1.39844 0
M  V30 1594 C 152.341 -1.94499 0.00447594 0
M  V30 1595 O 151.596 -1.69275 -0.982057 0
M  V30 1596 C 151.895 -2.698 2.34399 0
M  V30 1597 C 151.561 -2.40464 3.81429 0
M  V30 1598 C 150.223 -2.32174 4.21484 0
M  V30 1599 C 152.575 -2.16086 4.74296 0
M  V30 1600 C 149.903 -1.97589 5.52427 0
M  V30 1601 C 152.255 -1.83011 6.05549 0
M  V30 1602 C 150.919 -1.7321 6.44635 0
M  V30 1603 H 150.189 -0.535927 0.511725 0
M  V30 1604 H 152.836 -0.806124 1.73706 0
M  V30 1605 H 151.141 -3.40536 1.93759 0
M  V30 1606 H 152.838 -3.27919 2.30804 0
M  V30 1607 H 149.428 -2.47808 3.49699 0
M  V30 1608 H 153.612 -2.2144 4.4416 0
M  V30 1609 H 148.868 -1.88547 5.81601 0
M  V30 1610 H 153.042 -1.63164 6.77016 0
M  V30 1611 H 150.669 -1.46179 7.46013 0
M  V30 1612 N 152.244 -1.26651 -0.937939 0
M  V30 1613 C 153.492 -1.12165 -1.68118 0
M  V30 1614 C 153.813 0.334983 -1.92101 0
M  V30 1615 O 153.083 1.23583 -1.52 0
M  V30 1616 H 151.663 -0.412093 -0.623048 0
M  V30 1617 H 154.325 -1.59027 -1.12678 0
M  V30 1618 H 153.421 -1.64289 -2.6536 0
M  V30 1619 N 153.722 1.14298 -1.08507 0
M  V30 1620 C 154.95 1.89219 -0.836876 0
M  V30 1621 C 155.365 1.78638 0.611054 0
M  V30 1622 O 154.722 1.14643 1.41998 0
M  V30 1623 C 154.773 3.39158 -1.25116 0
M  V30 1624 O 154.494 3.49449 -2.64229 0
M  V30 1625 C 155.995 4.31073 -1.03398 0
M  V30 1626 H 153.215 0.599328 -0.301739 0
M  V30 1627 H 155.759 1.44746 -1.44461 0
M  V30 1628 H 153.914 3.81251 -0.687514 0
M  V30 1629 H 154.328 4.42589 -2.81452 0
M  V30 1630 H 155.802 5.34646 -1.37323 0
M  V30 1631 H 156.279 4.3919 0.0289259 0
M  V30 1632 H 156.885 3.94738 -1.58311 0
M  V30 1633 N 155.201 0.870884 1.31352 0
M  V30 1634 C 156.478 0.402907 1.91405 0
M  V30 1635 C 156.858 -1.11512 1.79244 0
M  V30 1636 O 156.206 -1.94411 1.2007 0
M  V30 1637 C 156.416 0.885301 3.37585 0
M  V30 1638 C 157.764 0.911971 4.14691 0
M  V30 1639 O 158.788 0.831016 3.46371 0
M  V30 1640 O 157.647 1.02927 5.3672 0
M  V30 1641 H 154.741 0.120698 0.818145 0
M  V30 1642 H 157.287 0.958857 1.40014 0
M  V30 1643 H 156.059 1.92889 3.40455 0
M  V30 1644 H 155.682 0.307714 3.96407 0
M  V30 1645 N 156.679 -1.44442 0.630414 0
M  V30 1646 C 157.904 -2.06927 0.139944 0
M  V30 1647 C 158.329 -1.46795 -1.17613 0
M  V30 1648 O 157.687 -0.569144 -1.72135 0
M  V30 1649 C 157.735 -3.6058 0.0379581 0
M  V30 1650 O 156.839 -3.99937 -1.0062 0
M  V30 1651 H 156.18 -0.658608 0.0844483 0
M  V30 1652 H 158.71 -1.85327 0.866891 0
M  V30 1653 H 158.72 -4.07714 -0.152856 0
M  V30 1654 H 157.395 -4.03728 0.998809 0
M  V30 1655 H 155.972 -3.64436 -0.79001 0
M  V30 1656 N 158.157 -0.370918 -1.53173 0
M  V30 1657 C 159.067 0.480823 -2.2962 0
M  V30 1658 C 160.083 1.08789 -1.35798 0
M  V30 1659 O 161.259 1.09768 -1.68858 0
M  V30 1660 C 158.324 1.60227 -3.07454 0
M  V30 1661 C 157.385 1.0222 -4.16953 0
M  V30 1662 C 156.618 2.0902 -4.91066 0
M  V30 1663 O 156.841 3.30222 -4.65091 0
M  V30 1664 O 155.775 1.71778 -5.76867 0
M  V30 1665 H 159.601 -0.141421 -3.03371 0
M  V30 1666 H 157.186 -0.135146 -1.48787 0
M  V30 1667 H 159.068 2.25417 -3.56041 0
M  V30 1668 H 157.743 2.20982 -2.36535 0
M  V30 1669 H 156.65 0.334064 -3.72605 0
M  V30 1670 H 157.983 0.459131 -4.90054 0
M  V30 1671 N 159.635 1.57281 -0.100228 0
M  V30 1672 C 160.863 1.98879 0.570509 0
M  V30 1673 C 161.278 0.979476 1.61405 0
M  V30 1674 O 160.635 -0.0302288 1.82475 0
M  V30 1675 C 160.686 3.4052 1.2136 0
M  V30 1676 O 160.407 4.37588 0.211786 0
M  V30 1677 C 161.908 3.97149 1.96945 0
M  V30 1678 H 159.128 0.653428 0.152555 0
M  V30 1679 H 161.672 2.03697 -0.18103 0
M  V30 1680 H 159.827 3.367 1.91603 0
M  V30 1681 H 160.241 5.20118 0.676607 0
M  V30 1682 H 161.715 4.98393 2.37294 0
M  V30 1683 H 162.192 3.3525 2.83733 0
M  V30 1684 H 162.798 4.04458 1.31506 0
M  V30 1685 N 161.113 -0.173488 1.56642 0
M  V30 1686 C 162.063 -1.21941 1.92651 0
M  V30 1687 C 163.047 -1.39912 0.794577 0
M  V30 1688 O 164.239 -1.41919 1.05773 0
M  V30 1689 C 161.368 -2.55935 2.28806 0
M  V30 1690 C 160.454 -2.41667 3.48508 0
M  V30 1691 N 160.845 -1.9711 4.65813 0
M  V30 1692 C 159.143 -2.72499 3.53072 0
M  V30 1693 C 159.844 -1.95253 5.47952 0
M  V30 1694 N 158.82 -2.37575 4.88937 0
M  V30 1695 H 162.622 -0.866581 2.80834 0
M  V30 1696 H 160.136 -0.381776 1.57849 0
M  V30 1697 H 162.133 -3.31511 2.52797 0
M  V30 1698 H 160.793 -2.92022 1.41961 0
M  V30 1699 H 161.804 -1.67481 4.90072 0
M  V30 1700 H 158.481 -3.12639 2.767 0
M  V30 1701 H 159.871 -1.6252 6.51948 0
M  V30 1702 N 162.591 -1.51276 -0.441967 0
M  V30 1703 C 164.002 -1.56244 -1.02199 0
M  V30 1704 C 164.353 -0.383149 -1.92422 0
M  V30 1705 O 163.478 0.500613 -2.1053 0
M  V30 1706 C 164.073 -2.83162 -1.86024 0
M  V30 1707 C 162.632 -2.90716 -2.39084 0
M  V30 1708 C 161.779 -2.50858 -1.18175 0
M  V30 1709 H 164.73 -1.5712 -0.223416 0
M  V30 1710 H 164.751 -2.66663 -2.71425 0
M  V30 1711 H 164.263 -3.68974 -1.20331 0
M  V30 1712 H 162.364 -2.09323 -3.08244 0
M  V30 1713 H 162.477 -3.94266 -2.72198 0
M  V30 1714 H 160.841 -2.03951 -1.52565 0
M  V30 1715 H 161.624 -3.3901 -0.541001 0
M  V30 1716 N 164.069 0.697108 -1.41344 0
M  V30 1717 C 165.317 1.45426 -1.40341 0
M  V30 1718 C 165.638 1.94996 -0.0128787 0
M  V30 1719 O 164.908 1.71599 0.945027 0
M  V30 1720 H 163.488 0.539594 -0.516573 0
M  V30 1721 H 166.15 0.825201 -1.76569 0
M  V30 1722 H 165.246 2.31817 -2.08967 0
M  V30 1723 N 165.547 1.27147 0.931209 0
M  V30 1724 C 166.793 1.13446 1.68101 0
M  V30 1725 C 167.126 -0.319628 1.91552 0
M  V30 1726 O 166.401 -1.23407 1.50336 0
M  V30 1727 C 166.684 1.91482 3.0497 0
M  V30 1728 C 166.537 3.44855 2.88782 0
M  V30 1729 C 167.856 1.71651 4.05246 0
M  V30 1730 H 164.975 0.413498 0.610072 0
M  V30 1731 H 167.617 1.56261 1.08086 0
M  V30 1732 H 165.767 1.55095 3.56199 0
M  V30 1733 H 167.439 3.9105 2.44698 0
M  V30 1734 H 165.682 3.71373 2.24198 0
M  V30 1735 H 166.353 3.94694 3.85902 0
M  V30 1736 H 168.829 2.0337 3.63015 0
M  V30 1737 H 167.705 2.28651 4.99009 0
M  V30 1738 H 167.966 0.663555 4.37092 0
M  V30 1739 N 167.025 -1.13721 1.09112 0
M  V30 1740 C 167.988 -2.17222 0.731241 0
M  V30 1741 C 168.988 -1.59035 -0.237566 0
M  V30 1742 O 170.178 -1.74192 -0.0161704 0
M  V30 1743 C 167.31 -3.40804 0.0808443 0
M  V30 1744 H 168.503 -2.50573 1.64783 0
M  V30 1745 H 166.056 -1.28493 0.889897 0
M  V30 1746 H 166.791 -3.1304 -0.847127 0
M  V30 1747 H 166.576 -3.84306 0.777896 0
M  V30 1748 H 168.066 -4.1731 -0.155657 0
M  V30 1749 N 168.503 -0.877838 -1.30888 0
M  V30 1750 C 169.919 -0.570844 -1.49042 0
M  V30 1751 C 170.119 0.893159 -1.80624 0
M  V30 1752 O 169.175 1.67485 -1.88958 0
M  V30 1753 C 170.488 -1.47784 -2.61878 0
M  V30 1754 C 172.036 -1.48071 -2.75761 0
M  V30 1755 C 172.511 -2.37347 -3.91702 0
M  V30 1756 N 174.002 -2.35271 -3.99001 0
M  V30 1757 C 174.737 -3.01063 -4.88004 0
M  V30 1758 N 174.233 -3.76055 -5.81854 0
M  V30 1759 N 176.026 -2.90332 -4.81315 0
M  V30 1760 H 168.177 -1.82502 -1.0866 0
M  V30 1761 H 170.44 -0.780797 -0.537644 0
M  V30 1762 H 170.146 -2.51993 -2.45341 0
M  V30 1763 H 170.02 -1.18215 -3.58197 0
M  V30 1764 H 172.407 -0.446166 -2.91708 0
M  V30 1765 H 172.488 -1.81668 -1.80085 0
M  V30 1766 H 172.132 -3.40883 -3.76512 0
M  V30 1767 H 172.062 -2.01071 -4.86701 0
M  V30 1768 H 174.553 -1.80768 -3.3186 0
M  V30 1769 H 174.866 -4.23366 -6.46514 0
M  V30 1770 H 173.211 -3.80163 -5.81808 0
M  V30 1771 H 176.402 -2.31278 -4.06974 0
M  V30 1772 H 176.575 -3.41885 -5.50471 0
M  V30 1773 N 169.982 1.44106 -0.638065 0
M  V30 1774 C 170.912 2.33448 0.0494287 0
M  V30 1775 C 171.893 1.48606 0.827672 0
M  V30 1776 O 173.078 1.77308 0.792173 0
M  V30 1777 C 170.208 3.31771 1.02691 0
M  V30 1778 C 169.162 4.26485 0.359823 0
M  V30 1779 C 168.488 5.14729 1.44769 0
M  V30 1780 C 169.788 5.17056 -0.738296 0
M  V30 1781 H 171.482 2.91183 -0.696636 0
M  V30 1782 H 169.028 1.40014 -0.336456 0
M  V30 1783 H 170.981 3.93161 1.51666 0
M  V30 1784 H 169.705 2.7226 1.80395 0
M  V30 1785 H 168.364 3.66437 -0.10934 0
M  V30 1786 H 168.012 4.51566 2.21578 0
M  V30 1787 H 167.712 5.78913 1.00668 0
M  V30 1788 H 169.236 5.78991 1.93911 0
M  V30 1789 H 170.65 5.72342 -0.331354 0
M  V30 1790 H 169.047 5.89879 -1.10286 0
M  V30 1791 H 170.117 4.57652 -1.60258 0
M  V30 1792 N 171.46 0.379036 1.52974 0
M  V30 1793 C 172.69 -0.20649 2.05566 0
M  V30 1794 C 173.098 -1.41906 1.25137 0
M  V30 1795 O 172.441 -1.81421 0.288464 0
M  V30 1796 C 172.503 -0.651086 3.53555 0
M  V30 1797 C 172.167 0.446626 4.54812 0
M  V30 1798 C 173.164 1.30079 5.03364 0
M  V30 1799 C 170.849 0.610719 4.98573 0
M  V30 1800 C 172.843 2.30426 5.94292 0
M  V30 1801 C 170.53 1.61754 5.89304 0
M  V30 1802 C 171.528 2.46274 6.37054 0
M  V30 1803 O 171.216 3.45237 7.25994 0
M  V30 1804 H 170.948 -0.0372381 0.674974 0
M  V30 1805 H 173.502 0.539718 1.98182 0
M  V30 1806 H 171.732 -1.44911 3.58522 0
M  V30 1807 H 173.421 -1.16112 3.88938 0
M  V30 1808 H 174.187 1.18527 4.70294 0
M  V30 1809 H 170.066 -0.0374044 4.60985 0
M  V30 1810 H 173.61 2.96432 6.31485 0
M  V30 1811 H 169.507 1.73348 6.21788 0
M  V30 1812 H 170.275 3.41124 7.44027 0
M  V30 1813 N 172.938 -1.57226 0.108567 0
M  V30 1814 C 174.186 -1.94448 -0.550853 0
M  V30 1815 C 174.507 -0.992074 -1.67878 0
M  V30 1816 O 173.777 -0.0465 -1.95845 0
M  V30 1817 H 172.357 -0.717897 -0.206479 0
M  V30 1818 H 175.019 -1.94112 0.175062 0
M  V30 1819 H 174.115 -2.97218 -0.952259 0
M  V30 1820 N 174.416 0.165178 -1.56732 0
M  V30 1821 C 175.363 1.2044 -1.96883 0
M  V30 1822 C 176.333 1.43664 -0.833657 0
M  V30 1823 O 177.518 1.56302 -1.09427 0
M  V30 1824 C 174.658 2.53727 -2.33916 0
M  V30 1825 C 173.771 2.3783 -3.6064 0
M  V30 1826 C 172.906 3.64026 -3.86857 0
M  V30 1827 C 171.945 3.43088 -5.06909 0
M  V30 1828 N 171.082 4.61369 -5.29229 0
M  V30 1829 H 175.922 0.854996 -2.85471 0
M  V30 1830 H 173.459 0.41076 -1.41249 0
M  V30 1831 H 175.417 3.31419 -2.53411 0
M  V30 1832 H 174.047 2.8665 -1.48431 0
M  V30 1833 H 173.099 1.51282 -3.49024 0
M  V30 1834 H 174.411 2.18308 -4.4849 0
M  V30 1835 H 173.565 4.50152 -4.06753 0
M  V30 1836 H 172.304 3.86533 -2.97394 0
M  V30 1837 H 171.309 2.55349 -4.86906 0
M  V30 1838 H 172.534 3.21997 -5.97909 0
M  V30 1839 H 170.48 4.84084 -4.42718 0
M  V30 1840 H 170.397 4.44783 -6.11313 0
M  V30 1841 H 171.665 5.48761 -5.53608 0
M  V30 1842 N 175.894 1.51508 0.433938 0
M  V30 1843 C 177.142 1.6402 1.18075 0
M  V30 1844 C 177.463 0.360328 1.91642 0
M  V30 1845 O 176.733 -0.623945 1.85698 0
M  V30 1846 H 175.313 0.6045 0.43885 0
M  V30 1847 H 177.975 1.88452 0.497178 0
M  V30 1848 H 177.071 2.46949 1.90847 0
M  V30 1849 N 177.372 -0.689602 1.41712 0
M  V30 1850 C 178.783 -1.26973 1.36875 0
M  V30 1851 C 179.134 -1.96124 0.054748 0
M  V30 1852 O 178.259 -1.99141 -0.84687 0
M  V30 1853 C 178.854 -2.30912 2.47922 0
M  V30 1854 C 177.413 -2.84486 2.46464 0
M  V30 1855 C 176.56 -1.58603 2.27465 0
M  V30 1856 H 179.511 -0.48396 1.51141 0
M  V30 1857 H 179.532 -3.12331 2.17323 0
M  V30 1858 H 179.044 -1.80554 3.43543 0
M  V30 1859 H 177.145 -3.39005 1.54617 0
M  V30 1860 H 177.258 -3.34511 3.42986 0
M  V30 1861 H 175.622 -1.84632 1.75451 0
M  V30 1862 H 176.405 -1.10233 3.25121 0
M  V30 1863 N 178.85 -1.27639 -0.924453 0
M  V30 1864 C 180.08 -1.16819 -1.70402 0
M  V30 1865 C 180.488 0.277191 -1.87158 0
M  V30 1866 O 179.831 1.20025 -1.39067 0
M  V30 1867 C 179.893 -1.78305 -3.12166 0
M  V30 1868 C 179.557 -3.27502 -3.18734 0
M  V30 1869 C 180.554 -4.2409 -3.00738 0
M  V30 1870 C 178.239 -3.68269 -3.4159 0
M  V30 1871 C 180.233 -5.59422 -3.05492 0
M  V30 1872 C 177.92 -5.0373 -3.45977 0
M  V30 1873 C 178.918 -5.99116 -3.27946 0
M  V30 1874 O 178.606 -7.32108 -3.32074 0
M  V30 1875 H 178.338 -0.406931 -0.539799 0
M  V30 1876 H 180.892 -1.69078 -1.16626 0
M  V30 1877 H 179.122 -1.20528 -3.67437 0
M  V30 1878 H 180.811 -1.62154 -3.72103 0
M  V30 1879 H 181.577 -3.93931 -2.82919 0
M  V30 1880 H 177.456 -2.94496 -3.54673 0
M  V30 1881 H 181 -6.33852 -2.91337 0
M  V30 1882 H 176.897 -5.33543 -3.63321 0
M  V30 1883 H 177.665 -7.40598 -3.48507 0
M  V30 1884 N 180.328 1.1314 -1.09713 0
M  V30 1885 C 181.291 2.16831 -0.742751 0
M  V30 1886 C 182.291 1.59159 0.229129 0
M  V30 1887 O 183.481 1.74199 0.00693237 0
M  V30 1888 C 180.613 3.40756 -0.0989168 0
M  V30 1889 H 181.806 2.49695 -1.66109 0
M  V30 1890 H 179.359 1.2802 -0.896699 0
M  V30 1891 H 180.094 3.13485 0.830514 0
M  V30 1892 H 179.879 3.83888 -0.798265 0
M  V30 1893 H 181.369 4.17386 0.133524 0
M  V30 1894 N 181.806 0.884767 1.30421 0
M  V30 1895 C 182.736 0.367574 2.30589 0
M  V30 1896 C 183.717 -0.549464 1.60981 0
M  V30 1897 O 184.902 -0.46336 1.88591 0
M  V30 1898 C 182.032 -0.418944 3.44764 0
M  V30 1899 C 180.986 0.406316 4.26067 0
M  V30 1900 C 180.312 -0.506793 5.32293 0
M  V30 1901 C 181.612 1.64832 4.95608 0
M  V30 1902 H 183.306 1.20462 2.74097 0
M  V30 1903 H 180.852 0.580695 1.31772 0
M  V30 1904 H 182.805 -0.791395 4.13902 0
M  V30 1905 H 181.529 -1.28964 3.0006 0
M  V30 1906 H 180.188 0.760903 3.58617 0
M  V30 1907 H 179.836 -1.37519 4.83836 0
M  V30 1908 H 179.536 0.0415828 5.87585 0
M  V30 1909 H 181.06 -0.875764 6.04287 0
M  V30 1910 H 182.474 1.34646 5.57264 0
M  V30 1911 H 180.871 2.13688 5.60765 0
M  V30 1912 H 181.941 2.39284 4.21748 0
M  V30 1913 N 183.284 -1.43765 0.645699 0
M  V30 1914 C 184.247 -2.29163 -0.0409488 0
M  V30 1915 C 185.247 -1.41813 -0.757996 0
M  V30 1916 O 186.437 -1.63527 -0.600382 0
M  V30 1917 C 183.569 -3.23716 -1.06869 0
M  V30 1918 H 184.762 -2.91366 0.710345 0
M  V30 1919 H 182.315 -1.5092 0.406547 0
M  V30 1920 H 183.05 -2.66393 -1.84947 0
M  V30 1921 H 182.835 -3.88105 -0.558277 0
M  V30 1922 H 184.325 -3.87831 -1.54845 0
M  V30 1923 N 184.763 -0.387143 -1.52771 0
M  V30 1924 C 186.011 0.195349 -2.01154 0
M  V30 1925 C 186.332 1.475 -1.27549 0
M  V30 1926 O 185.602 1.91878 -0.394924 0
M  V30 1927 H 184.182 0.075178 -0.743207 0
M  V30 1928 H 186.844 -0.518337 -1.87881 0
M  V30 1929 H 185.94 0.407096 -3.09434 0
M  V30 1930 N 186.241 1.57166 -0.116904 0
M  V30 1931 C 187.657 1.5779 0.239693 0
M  V30 1932 C 187.857 1.1295 1.66867 0
M  V30 1933 O 186.913 0.81592 2.38954 0
M  V30 1934 C 188.226 3.00699 0.00828202 0
M  V30 1935 C 189.774 3.12912 0.0743438 0
M  V30 1936 C 190.249 4.57817 -0.129348 0
M  V30 1937 N 191.74 4.63139 -0.075247 0
M  V30 1938 C 192.475 5.73023 -0.207788 0
M  V30 1939 N 191.971 6.91665 -0.396382 0
M  V30 1940 N 193.764 5.61906 -0.14751 0
M  V30 1941 H 185.915 1.84615 -1.05029 0
M  V30 1942 H 188.178 0.85311 -0.41341 0
M  V30 1943 H 187.884 3.37784 -0.979531 0
M  V30 1944 H 187.758 3.69848 0.741077 0
M  V30 1945 H 190.145 2.75686 1.05268 0
M  V30 1946 H 190.226 2.4631 -0.690297 0
M  V30 1947 H 189.87 4.95742 -1.10465 0
M  V30 1948 H 189.8 5.22507 0.655253 0
M  V30 1949 H 192.291 3.7784 0.0670898 0
M  V30 1950 H 192.604 7.71255 -0.488437 0
M  V30 1951 H 190.949 6.93654 -0.432329 0
M  V30 1952 H 194.14 4.681 -0.00115036 0
M  V30 1953 H 194.313 6.47501 -0.254247 0
M  V30 1954 N 187.719 -0.156864 1.56817 0
M  V30 1955 C 188.965 -0.872416 1.83076 0
M  V30 1956 C 189.298 -1.81261 0.697001 0
M  V30 1957 O 188.573 -1.92171 -0.30008 0
M  V30 1958 C 188.856 -1.65551 3.19789 0
M  V30 1959 C 188.709 -0.737467 4.43713 0
M  V30 1960 C 190.028 -2.62012 3.53606 0
M  V30 1961 H 187.147 -0.315715 0.665953 0
M  V30 1962 H 189.789 -0.138004 1.89498 0
M  V30 1963 H 187.939 -2.28159 3.14445 0
M  V30 1964 H 189.611 -0.123143 4.61136 0
M  V30 1965 H 187.854 -0.0464067 4.33775 0
M  V30 1966 H 188.525 -1.32122 5.35955 0
M  V30 1967 H 191.001 -2.09525 3.59497 0
M  V30 1968 H 189.877 -3.13861 4.50314 0
M  V30 1969 H 190.138 -3.42902 2.79053 0
M  V30 1970 N 189.197 -1.51736 -0.425897 0
M  V30 1971 C 190.107 -1.76738 -1.54275 0
M  V30 1972 C 191.123 -0.65211 -1.61318 0
M  V30 1973 O 192.299 -0.935654 -1.78346 0
M  V30 1974 C 189.364 -1.89755 -2.90162 0
M  V30 1975 C 188.425 -3.13633 -2.93143 0
M  V30 1976 C 187.658 -3.2602 -4.22548 0
M  V30 1977 O 187.881 -2.44067 -5.15546 0
M  V30 1978 O 186.815 -4.19071 -4.32046 0
M  V30 1979 H 190.641 -2.71502 -1.36089 0
M  V30 1980 H 188.226 -1.36376 -0.610069 0
M  V30 1981 H 190.108 -2.00236 -3.70788 0
M  V30 1982 H 188.783 -0.981785 -3.08452 0
M  V30 1983 H 187.69 -3.08622 -2.11431 0
M  V30 1984 H 189.023 -4.04936 -2.798 0
M  V30 1985 N 190.675 0.682077 -1.42076 0
M  V30 1986 C 191.921 1.44428 -1.42367 0
M  V30 1987 C 192.254 1.94164 -0.0373056 0
M  V30 1988 O 191.529 1.70429 0.937239 0
M  V30 1989 C 191.812 2.64654 -2.44194 0
M  V30 1990 C 191.665 2.20596 -3.91991 0
M  V30 1991 C 192.984 3.66865 -2.431 0
M  V30 1992 H 190.103 0.523834 -0.518428 0
M  V30 1993 H 192.745 0.77576 -1.73442 0
M  V30 1994 H 190.895 3.2169 -2.17826 0
M  V30 1995 H 192.567 1.68783 -4.29313 0
M  V30 1996 H 190.81 1.52242 -4.06208 0
M  V30 1997 H 191.481 3.06921 -4.58807 0
M  V30 1998 H 193.957 3.19531 -2.66532 0
M  V30 1999 H 192.833 4.48577 -3.16339 0
M  V30 2000 H 193.094 4.17493 -1.45437 0
M  V30 2001 N 192.153 1.28127 0.917671 0
M  V30 2002 C 193.083 1.14248 2.03641 0
M  V30 2003 C 194.064 0.0412748 1.7005 0
M  V30 2004 O 195.249 0.217566 1.92977 0
M  V30 2005 C 192.379 0.799431 3.37974 0
M  V30 2006 C 191.333 1.85497 3.85713 0
M  V30 2007 C 190.659 1.36565 5.16966 0
M  V30 2008 C 191.959 3.26085 4.08002 0
M  V30 2009 H 193.653 2.07835 2.15511 0
M  V30 2010 H 191.199 1.00064 1.03553 0
M  V30 2011 H 193.152 0.689114 4.15727 0
M  V30 2012 H 191.876 -0.172145 3.26146 0
M  V30 2013 H 190.535 1.95437 3.10161 0
M  V30 2014 H 190.183 0.383253 5.01538 0
M  V30 2015 H 189.883 2.07143 5.49878 0
M  V30 2016 H 191.407 1.26848 5.97279 0
M  V30 2017 H 192.821 3.19089 4.76293 0
M  V30 2018 H 191.218 3.94462 4.52238 0
M  V30 2019 H 192.288 3.70394 3.12948 0
M  V30 2020 N 193.631 -1.12557 1.10312 0
M  V30 2021 C 194.578 -2.18247 0.750781 0
M  V30 2022 C 195.548 -1.63853 -0.272293 0
M  V30 2023 O 196.733 -1.90195 -0.151862 0
M  V30 2024 C 193.873 -3.44591 0.187379 0
M  V30 2025 C 192.986 -4.13046 1.2656 0
M  V30 2026 C 192.121 -5.27034 0.663978 0
M  V30 2027 C 191.16 -5.87353 1.72287 0
M  V30 2028 N 190.297 -6.92757 1.1416 0
M  V30 2029 H 195.137 -2.47732 1.65628 0
M  V30 2030 H 192.674 -1.21629 0.827337 0
M  V30 2031 H 194.632 -4.16904 -0.157148 0
M  V30 2032 H 193.262 -3.15527 -0.681355 0
M  V30 2033 H 192.314 -3.38924 1.72727 0
M  V30 2034 H 193.626 -4.53947 2.06721 0
M  V30 2035 H 192.78 -6.06104 0.268824 0
M  V30 2036 H 191.519 -4.87407 -0.169082 0
M  V30 2037 H 190.524 -5.06971 2.12746 0
M  V30 2038 H 191.749 -6.29051 2.55875 0
M  V30 2039 H 189.695 -6.5517 0.329984 0
M  V30 2040 H 189.612 -7.3225 1.88007 0
M  V30 2041 H 190.88 -7.75658 0.772956 0
M  V30 2042 N 195.109 -0.891671 -1.2995 0
M  V30 2043 C 196.52 -0.563104 -1.78006 0
M  V30 2044 C 196.871 0.920978 -1.73241 0
M  V30 2045 O 195.996 1.71987 -1.31337 0
M  V30 2046 C 196.591 -1.01539 -3.23226 0
M  V30 2047 C 195.15 -0.738124 -3.69092 0
M  V30 2048 C 194.297 -1.19461 -2.50249 0
M  V30 2049 H 197.248 -1.07522 -1.16725 0
M  V30 2050 H 197.269 -0.347217 -3.78912 0
M  V30 2051 H 196.781 -2.09555 -3.26662 0
M  V30 2052 H 194.882 0.329766 -3.71138 0
M  V30 2053 H 194.995 -1.33037 -4.60259 0
M  V30 2054 H 193.359 -0.613787 -2.47194 0
M  V30 2055 H 194.142 -2.28265 -2.56417 0
M  V30 2056 N 196.587 1.43421 -0.653314 0
M  V30 2057 C 198.003 1.56341 -0.320886 0
M  V30 2058 C 198.203 1.63696 1.17499 0
M  V30 2059 O 197.259 1.59208 1.95982 0
M  V30 2060 C 198.572 2.82424 -1.03233 0
M  V30 2061 C 200.12 2.96168 -1.01259 0
M  V30 2062 C 200.595 4.25084 -1.70492 0
M  V30 2063 N 202.086 4.31948 -1.67257 0
M  V30 2064 C 202.821 5.30466 -2.17701 0
M  V30 2065 N 202.317 6.35261 -2.76434 0
M  V30 2066 N 204.11 5.2212 -2.082 0
M  V30 2067 H 196.261 1.3689 -1.62403 0
M  V30 2068 H 198.524 0.657455 -0.682977 0
M  V30 2069 H 198.23 2.83053 -2.08744 0
M  V30 2070 H 198.104 3.72653 -0.583948 0
M  V30 2071 H 200.491 2.9508 0.0341235 0
M  V30 2072 H 200.572 2.07229 -1.49966 0
M  V30 2073 H 200.216 4.26932 -2.7512 0
M  V30 2074 H 200.146 5.1292 -1.19251 0
M  V30 2075 H 202.637 3.56838 -1.24398 0
M  V30 2076 H 202.95 7.06754 -3.12601 0
M  V30 2077 H 201.295 6.35884 -2.80495 0
M  V30 2078 H 204.486 4.39166 -1.62021 0
M  V30 2079 H 204.659 5.98739 -2.47822 0
M  V30 2080 N 198.065 0.39524 1.52563 0
M  V30 2081 C 199.476 -0.0774719 1.86539 0
M  V30 2082 C 199.827 -1.45641 1.31466 0
M  V30 2083 O 198.952 -2.06459 0.648367 0
M  V30 2084 C 199.547 -0.147356 3.38479 0
M  V30 2085 C 198.106 -0.564373 3.72145 0
M  V30 2086 C 197.253 0.269919 2.75983 0
M  V30 2087 H 200.204 0.612876 1.46388 0
M  V30 2088 H 200.225 -0.965343 3.68051 0
M  V30 2089 H 199.737 0.856387 3.78534 0
M  V30 2090 H 197.838 -1.57527 3.37663 0
M  V30 2091 H 197.951 -0.318402 4.78041 0
M  V30 2092 H 196.315 -0.265696 2.5331 0
M  V30 2093 H 197.098 1.27175 3.18875 0
M  V30 2094 N 199.544 -1.57102 0.125237 0
M  V30 2095 C 200.96 -1.57915 -0.231322 0
M  V30 2096 C 201.16 -1.13833 -1.66266 0
M  V30 2097 O 200.216 -0.828581 -2.38518 0
M  V30 2098 C 201.529 -3.00699 0.00766489 0
M  V30 2099 C 203.077 -3.12947 -0.0577483 0
M  V30 2100 C 203.552 -4.57742 0.153626 0
M  V30 2101 N 205.043 -4.63092 0.0998073 0
M  V30 2102 C 205.778 -5.72905 0.238174 0
M  V30 2103 N 205.274 -6.91445 0.433057 0
M  V30 2104 N 207.067 -5.6182 0.177308 0
M  V30 2105 H 199.218 -1.84055 1.06007 0
M  V30 2106 H 201.481 -0.850905 0.417929 0
M  V30 2107 H 201.187 -3.3726 0.997431 0
M  V30 2108 H 201.061 -3.70236 -0.721452 0
M  V30 2109 H 203.448 -2.7624 -1.03804 0
M  V30 2110 H 203.529 -2.4594 0.70335 0
M  V30 2111 H 203.173 -4.95149 1.13092 0
M  V30 2112 H 203.103 -5.22848 -0.627534 0
M  V30 2113 H 205.594 -3.77871 -0.047051 0
M  V30 2114 H 205.907 -7.70985 0.529332 0
M  V30 2115 H 204.252 -6.93415 0.469109 0
M  V30 2116 H 207.443 -4.68093 0.0259748 0
M  V30 2117 H 207.616 -6.47357 0.288582 0
M  V30 2118 N 201.022 0.148545 -1.56898 0
M  V30 2119 C 202.25 0.876389 -1.87422 0
M  V30 2120 C 202.665 1.74809 -0.713256 0
M  V30 2121 O 202.022 1.79725 0.317025 0
M  V30 2122 C 202.073 1.73438 -3.17178 0
M  V30 2123 O 201.794 0.897809 -4.28802 0
M  V30 2124 C 203.295 2.56993 -3.61205 0
M  V30 2125 H 200.515 0.253489 -0.621277 0
M  V30 2126 H 203.059 0.141798 -2.04008 0
M  V30 2127 H 201.214 2.42205 -3.0235 0
M  V30 2128 H 201.628 1.48672 -5.02988 0
M  V30 2129 H 203.102 3.12773 -4.54838 0
M  V30 2130 H 203.579 3.32958 -2.86419 0
M  V30 2131 H 204.185 1.9352 -3.78722 0
M  V30 2132 N 202.5 1.5196 0.417844 0
M  V30 2133 C 203.911 1.57851 0.997 0
M  V30 2134 C 204.262 0.413714 1.91789 0
M  V30 2135 O 203.387 -0.467057 2.113 0
M  V30 2136 C 203.982 2.86085 1.81496 0
M  V30 2137 C 202.541 2.94483 2.34428 0
M  V30 2138 C 201.688 2.52707 1.14169 0
M  V30 2139 H 204.639 1.57455 0.198392 0
M  V30 2140 H 204.66 2.70947 2.67148 0
M  V30 2141 H 204.172 3.70842 1.14446 0
M  V30 2142 H 202.273 2.142 3.04875 0
M  V30 2143 H 202.386 3.98546 2.65891 0
M  V30 2144 H 200.75 2.06353 1.49301 0
M  V30 2145 H 201.533 3.39828 0.486999 0
M  V30 2146 N 203.978 -0.674533 1.42435 0
M  V30 2147 C 204.908 -1.80009 1.48724 0
M  V30 2148 C 205.889 -1.6659 0.343793 0
M  V30 2149 O 207.074 -1.86007 0.558137 0
M  V30 2150 C 204.204 -3.18306 1.38919 0
M  V30 2151 C 203.158 -3.46461 2.51294 0
M  V30 2152 C 202.484 -4.84335 2.26547 0
M  V30 2153 C 203.784 -3.43328 3.93603 0
M  V30 2154 H 205.478 -1.75004 2.42928 0
M  V30 2155 H 203.024 -0.840533 1.16923 0
M  V30 2156 H 204.977 -3.9678 1.41927 0
M  V30 2157 H 203.701 -3.2399 0.412094 0
M  V30 2158 H 202.36 -2.70348 2.47604 0
M  V30 2159 H 202.008 -4.86669 1.2713 0
M  V30 2160 H 201.708 -5.04136 3.01861 0
M  V30 2161 H 203.232 -5.65094 2.31304 0
M  V30 2162 H 204.646 -4.11772 3.98894 0
M  V30 2163 H 203.043 -3.74664 4.68771 0
M  V30 2164 H 204.113 -2.41897 4.20255 0
M  V30 2165 N 205.456 -1.28612 -0.910864 0
M  V30 2166 C 206.366 -1.14643 -2.0468 0
M  V30 2167 C 207.382 -0.0723121 -1.7385 0
M  V30 2168 O 208.558 -0.282178 -1.99413 0
M  V30 2169 C 205.623 -0.812561 -3.37044 0
M  V30 2170 C 204.684 -1.96935 -3.81465 0
M  V30 2171 C 203.917 -1.65131 -5.07511 0
M  V30 2172 O 204.14 -0.567013 -5.67575 0
M  V30 2173 O 203.074 -2.49585 -5.47714 0
M  V30 2174 H 206.9 -2.1001 -2.19384 0
M  V30 2175 H 204.485 -1.07958 -1.03274 0
M  V30 2176 H 206.367 -0.640441 -4.16505 0
M  V30 2177 H 205.042 0.111426 -3.23508 0
M  V30 2178 H 203.949 -2.19664 -3.02818 0
M  V30 2179 H 205.282 -2.87414 -3.99567 0
M  V30 2180 N 206.934 1.1197 -1.10907 0
M  V30 2181 C 207.881 2.17846 -0.762345 0
M  V30 2182 C 208.851 1.63995 0.263599 0
M  V30 2183 O 210.036 1.90273 0.141773 0
M  V30 2184 C 207.176 3.44487 -0.205651 0
M  V30 2185 C 206.289 4.12369 -1.28748 0
M  V30 2186 C 205.424 5.26674 -0.691919 0
M  V30 2187 C 204.463 5.86431 -1.75399 0
M  V30 2188 N 203.6 6.92142 -1.17833 0
M  V30 2189 H 208.44 2.46851 -1.6694 0
M  V30 2190 H 205.977 1.21188 -0.833776 0
M  V30 2191 H 207.935 4.16981 0.135037 0
M  V30 2192 H 206.565 3.15884 0.664613 0
M  V30 2193 H 205.617 3.38003 -1.74522 0
M  V30 2194 H 206.929 4.52844 -2.09125 0
M  V30 2195 H 206.083 6.05953 -0.300963 0
M  V30 2196 H 204.822 4.8749 0.143232 0
M  V30 2197 H 203.827 5.05835 -2.15432 0
M  V30 2198 H 205.052 6.27685 -2.59208 0
M  V30 2199 H 202.998 6.54985 -0.364725 0
M  V30 2200 H 202.915 7.31242 -1.91887 0
M  V30 2201 H 204.183 7.75237 -0.81408 0
M  V30 2202 N 208.412 0.89855 1.29475 0
M  V30 2203 C 209.64 0.539261 1.99749 0
M  V30 2204 C 210.055 -0.875716 1.67262 0
M  V30 2205 O 209.412 -1.57786 0.917049 0
M  V30 2206 C 209.463 0.72061 3.54245 0
M  V30 2207 O 209.184 2.07989 3.8558 0
M  V30 2208 C 210.685 0.366118 4.41786 0
M  V30 2209 H 207.905 0.207047 0.638258 0
M  V30 2210 H 210.449 1.20758 1.65039 0
M  V30 2211 H 208.604 0.0994862 3.87272 0
M  V30 2212 H 209.018 2.10841 4.80257 0
M  V30 2213 H 210.492 0.543848 5.49314 0
M  V30 2214 H 210.969 -0.696763 4.33638 0
M  V30 2215 H 211.575 0.964135 4.14228 0
M  V30 2216 N 209.89 -1.43072 0.660911 0
M  V30 2217 C 211.301 -1.84932 0.256348 0
M  V30 2218 C 211.652 -1.55325 -1.19868 0
M  V30 2219 O 210.777 -1.00607 -1.91591 0
M  V30 2220 C 211.372 -3.35684 0.458475 0
M  V30 2221 C 209.931 -3.76245 0.108161 0
M  V30 2222 C 209.078 -2.66749 0.757641 0
M  V30 2223 H 212.029 -1.33116 0.864051 0
M  V30 2224 H 212.05 -3.79365 -0.293683 0
M  V30 2225 H 211.562 -3.572 1.51755 0
M  V30 2226 H 209.663 -3.60338 -0.948014 0
M  V30 2227 H 209.776 -4.76058 0.538992 0
M  V30 2228 H 208.14 -2.53989 0.190185 0
M  V30 2229 H 208.923 -2.91092 1.81989 0
M  V30 2230 N 211.368 -0.403325 -1.52352 0
M  V30 2231 C 212.278 0.432009 -2.30588 0
M  V30 2232 C 213.294 1.05884 -1.38075 0
M  V30 2233 O 214.47 1.06161 -1.71148 0
M  V30 2234 C 211.535 1.53669 -3.10784 0
M  V30 2235 C 210.596 0.933525 -4.19027 0
M  V30 2236 C 209.829 1.98557 -4.9539 0
M  V30 2237 O 210.052 3.20283 -4.71991 0
M  V30 2238 O 208.986 1.59504 -5.80381 0
M  V30 2239 H 212.812 -0.205739 -3.03002 0
M  V30 2240 H 210.397 -0.166675 -1.48467 0
M  V30 2241 H 212.279 2.17814 -3.60742 0
M  V30 2242 H 210.954 2.15915 -2.41169 0
M  V30 2243 H 209.861 0.254954 -3.7323 0
M  V30 2244 H 211.194 0.35508 -4.90918 0
M  V30 2245 N 212.846 1.57033 -0.133567 0
M  V30 2246 C 213.756 2.19632 0.824564 0
M  V30 2247 C 214.772 1.17666 1.28182 0
M  V30 2248 O 215.948 1.50193 1.3418 0
M  V30 2249 C 213.013 2.79499 2.05137 0
M  V30 2250 C 212.074 3.96548 1.64464 0
M  V30 2251 C 211.307 4.5355 2.81297 0
M  V30 2252 O 211.53 4.09438 3.97136 0
M  V30 2253 O 210.464 5.44018 2.57542 0
M  V30 2254 H 214.29 3.01991 0.321766 0
M  V30 2255 H 211.875 1.49112 0.0927889 0
M  V30 2256 H 213.757 3.17602 2.7696 0
M  V30 2257 H 212.432 2.00162 2.54395 0
M  V30 2258 H 211.339 3.63186 0.897048 0
M  V30 2259 H 212.672 4.77364 1.19934 0
M  V30 2260 N 214.325 -0.140222 1.56975 0
M  V30 2261 C 215.571 -0.852949 1.83991 0
M  V30 2262 C 215.904 -1.80512 0.716187 0
M  V30 2263 O 215.179 -1.92479 -0.279681 0
M  V30 2264 C 215.462 -1.6215 3.21527 0
M  V30 2265 C 215.315 -0.690363 4.4447 0
M  V30 2266 C 216.634 -2.58247 3.56366 0
M  V30 2267 H 213.753 -0.308634 0.669264 0
M  V30 2268 H 216.395 -0.117898 1.89634 0
M  V30 2269 H 214.545 -2.24812 3.16847 0
M  V30 2270 H 216.217 -0.0742264 4.6124 0
M  V30 2271 H 214.46 -0.000396433 4.338 0
M  V30 2272 H 215.131 -1.2643 5.37326 0
M  V30 2273 H 217.607 -2.05701 3.61699 0
M  V30 2274 H 216.483 -3.09067 4.53617 0
M  V30 2275 H 216.744 -3.39923 2.82674 0
M  V30 2276 N 215.803 -1.52179 -0.40978 0
M  V30 2277 C 217.219 -1.40968 -0.74835 0
M  V30 2278 C 217.419 -0.513657 -1.94843 0
M  V30 2279 O 216.475 0.0208026 -2.52491 0
M  V30 2280 C 217.788 -2.83483 -1.0029 0
M  V30 2281 C 219.336 -2.92821 -1.10565 0
M  V30 2282 C 219.811 -4.36303 -1.39296 0
M  V30 2283 N 221.302 -4.39535 -1.46162 0
M  V30 2284 C 222.037 -5.47614 -1.70018 0
M  V30 2285 N 221.533 -6.65812 -1.91483 0
M  V30 2286 N 223.326 -5.35129 -1.72027 0
M  V30 2287 H 215.477 -2.0897 0.380186 0
M  V30 2288 H 217.74 -0.94185 0.107805 0
M  V30 2289 H 217.446 -3.51168 -0.193461 0
M  V30 2290 H 217.32 -3.24487 -1.92323 0
M  V30 2291 H 219.707 -2.25318 -1.90568 0
M  V30 2292 H 219.788 -2.55276 -0.16369 0
M  V30 2293 H 219.432 -5.04366 -0.598109 0
M  V30 2294 H 219.362 -4.71385 -2.34743 0
M  V30 2295 H 221.853 -3.54332 -1.31367 0
M  V30 2296 H 222.166 -7.43964 -2.09134 0
M  V30 2297 H 220.511 -6.68879 -1.88749 0
M  V30 2298 H 223.702 -4.41764 -1.54796 0
M  V30 2299 H 223.875 -6.19433 -1.9028 0
M  V30 2300 N 217.281 0.66697 -1.42791 0
M  V30 2301 C 218.244 1.76211 -1.46568 0
M  V30 2302 C 219.244 1.56896 -0.352196 0
M  V30 2303 O 220.434 1.63044 -0.613364 0
M  V30 2304 C 217.566 3.14935 -1.30494 0
M  V30 2305 H 218.759 1.74247 -2.44086 0
M  V30 2306 H 216.312 0.877342 -1.29354 0
M  V30 2307 H 217.047 3.2252 -0.339301 0
M  V30 2308 H 216.832 3.30359 -2.11199 0
M  V30 2309 H 218.322 3.94821 -1.36038 0
M  V30 2310 N 218.759 1.29093 0.90403 0
M  V30 2311 C 220.006 1.16813 1.65411 0
M  V30 2312 C 220.334 -0.28128 1.92455 0
M  V30 2313 O 219.589 -1.22006 1.53013 0
M  V30 2314 C 219.888 1.92224 3.01305 0
M  V30 2315 C 219.554 3.41968 2.93885 0
M  V30 2316 C 218.216 3.82807 2.91569 0
M  V30 2317 C 220.568 4.37409 2.83413 0
M  V30 2318 C 217.896 5.1741 2.76594 0
M  V30 2319 C 220.248 5.72097 2.69977 0
M  V30 2320 C 218.912 6.12199 2.66024 0
M  V30 2321 H 218.182 0.42745 0.605283 0
M  V30 2322 H 220.829 1.59981 1.05254 0
M  V30 2323 H 219.134 1.41635 3.65304 0
M  V30 2324 H 220.831 1.80131 3.58265 0
M  V30 2325 H 217.421 3.09504 2.96488 0
M  V30 2326 H 221.605 4.06813 2.84283 0
M  V30 2327 H 216.861 5.47596 2.71935 0
M  V30 2328 H 221.035 6.45704 2.60844 0
M  V30 2329 H 218.662 7.16448 2.54178 0
M  V30 2330 N 220.237 -1.11381 1.11499 0
M  V30 2331 C 221.484 -1.83132 0.864231 0
M  V30 2332 C 221.812 -1.84683 -0.610114 0
M  V30 2333 O 221.067 -1.29589 -1.46646 0
M  V30 2334 C 221.366 -3.30026 1.37177 0
M  V30 2335 C 221.032 -3.48634 2.85946 0
M  V30 2336 C 219.694 -3.53421 3.26569 0
M  V30 2337 C 222.046 -3.54837 3.81759 0
M  V30 2338 C 219.374 -3.61967 4.61733 0
M  V30 2339 C 221.726 -3.64915 5.1674 0
M  V30 2340 C 220.39 -3.67962 5.5692 0
M  V30 2341 H 219.66 -0.670127 0.316245 0
M  V30 2342 H 222.307 -1.31354 1.3935 0
M  V30 2343 H 220.612 -3.84304 0.762753 0
M  V30 2344 H 222.309 -3.84034 1.15408 0
M  V30 2345 H 218.899 -3.45579 2.53521 0
M  V30 2346 H 223.083 -3.50399 3.51474 0
M  V30 2347 H 218.339 -3.62603 4.92269 0
M  V30 2348 H 222.513 -3.68658 5.90816 0
M  V30 2349 H 220.14 -3.74336 6.61647 0
M  V30 2350 N 221.715 -0.905404 -1.28997 0
M  V30 2351 C 223.131 -0.60233 -1.47798 0
M  V30 2352 C 223.331 0.854645 -1.82478 0
M  V30 2353 O 222.387 1.63439 -1.92468 0
M  V30 2354 C 223.7 -1.53306 -2.58685 0
M  V30 2355 C 225.248 -1.53887 -2.72558 0
M  V30 2356 C 225.723 -2.45602 -3.86579 0
M  V30 2357 N 227.214 -2.43681 -3.93921 0
M  V30 2358 C 227.949 -3.11347 -4.81509 0
M  V30 2359 N 227.445 -3.88313 -5.73746 0
M  V30 2360 N 229.238 -3.00476 -4.75048 0
M  V30 2361 H 221.389 -1.84765 -1.04764 0
M  V30 2362 H 223.652 -0.792025 -0.520961 0
M  V30 2363 H 223.358 -2.57141 -2.39941 0
M  V30 2364 H 223.232 -1.25787 -3.55609 0
M  V30 2365 H 225.619 -0.507941 -2.90696 0
M  V30 2366 H 225.7 -1.85447 -1.76191 0
M  V30 2367 H 225.344 -3.48792 -3.69197 0
M  V30 2368 H 225.274 -2.11349 -4.82327 0
M  V30 2369 H 227.765 -1.87767 -3.27951 0
M  V30 2370 H 228.078 -4.36985 -6.37389 0
M  V30 2371 H 226.423 -3.92419 -5.73614 0
M  V30 2372 H 229.614 -2.39858 -4.01977 0
M  V30 2373 H 229.787 -3.53485 -5.43095 0
M  V30 2374 N 223.193 1.4272 -0.668489 0
M  V30 2375 C 224.125 2.2914 0.052613 0
M  V30 2376 C 225.138 1.43339 0.771857 0
M  V30 2377 O 226.327 1.67123 0.627067 0
M  V30 2378 C 223.427 3.20618 1.09804 0
M  V30 2379 C 222.6 4.35039 0.45389 0
M  V30 2380 C 221.659 5.07282 1.39825 0
M  V30 2381 O 220.685 5.62024 0.900978 0
M  V30 2382 N 221.887 5.12206 2.73176 0
M  V30 2383 H 224.652 2.91668 -0.689209 0
M  V30 2384 H 222.213 1.53577 -0.512422 0
M  V30 2385 H 224.205 3.65815 1.73094 0
M  V30 2386 H 222.775 2.59585 1.74167 0
M  V30 2387 H 221.995 3.92567 -0.358396 0
M  V30 2388 H 223.283 5.088 0.00486972 0
M  V30 2389 H 222.681 4.6913 3.16122 0
M  V30 2390 H 221.238 5.61069 3.31729 0
M  V30 2391 N 224.671 0.411399 1.52136 0
M  V30 2392 C 226.087 0.0623865 1.59478 0
M  V30 2393 C 226.287 -1.42554 1.4241 0
M  V30 2394 O 225.343 -2.19263 1.2522 0
M  V30 2395 C 226.656 0.559331 2.95452 0
M  V30 2396 C 228.204 0.517503 3.08692 0
M  V30 2397 C 228.679 0.990994 4.4715 0
M  V30 2398 N 230.17 0.947908 4.53397 0
M  V30 2399 C 230.905 1.28544 5.58806 0
M  V30 2400 N 230.401 1.69454 6.71757 0
M  V30 2401 N 232.194 1.20526 5.49026 0
M  V30 2402 H 224.345 1.37982 1.61477 0
M  V30 2403 H 226.608 0.566977 0.759764 0
M  V30 2404 H 226.314 1.59938 3.1323 0
M  V30 2405 H 226.188 -0.0298014 3.77188 0
M  V30 2406 H 228.575 -0.513505 2.90598 0
M  V30 2407 H 228.656 1.14272 2.28857 0
M  V30 2408 H 228.3 2.02034 4.65988 0
M  V30 2409 H 228.23 0.34257 5.25485 0
M  V30 2410 H 230.721 0.647157 3.72317 0
M  V30 2411 H 231.034 1.93513 7.48179 0
M  V30 2412 H 229.379 1.73359 6.73032 0
M  V30 2413 H 232.57 0.884505 4.59667 0
M  V30 2414 H 232.743 1.47161 6.31069 0
M  V30 2415 N 226.149 -1.5696 0.141893 0
M  V30 2416 C 227.397 -1.95573 -0.509484 0
M  V30 2417 C 227.718 -1.02746 -1.65736 0
M  V30 2418 O 226.988 -0.0880311 -1.95702 0
M  V30 2419 H 225.568 -0.722115 -0.191205 0
M  V30 2420 H 228.23 -1.93697 0.216196 0
M  V30 2421 H 227.326 -2.99171 -0.889 0
M  V30 2422 N 227.627 0.131896 -1.57047 0
M  V30 2423 C 228.873 0.838268 -1.85323 0
M  V30 2424 C 229.228 1.78098 -0.727937 0
M  V30 2425 O 228.521 1.89645 0.27304 0
M  V30 2426 C 228.715 1.63703 -3.17704 0
M  V30 2427 C 228.544 0.773167 -4.43004 0
M  V30 2428 C 227.314 0.432956 -5.03442 0
M  V30 2429 C 229.512 0.0966216 -5.14209 0
M  V30 2430 N 227.494 -0.442924 -6.123 0
M  V30 2431 C 228.865 -0.638778 -6.16701 0
M  V30 2432 C 230.92 0.018861 -4.97896 0
M  V30 2433 C 229.623 -1.44462 -7.04644 0
M  V30 2434 C 231.649 -0.773762 -5.86316 0
M  V30 2435 C 231.011 -1.4974 -6.883 0
M  V30 2436 H 227.11 0.284086 -0.728573 0
M  V30 2437 H 229.694 0.102731 -1.94429 0
M  V30 2438 H 227.865 2.3437 -3.09718 0
M  V30 2439 H 229.597 2.28774 -3.33833 0
M  V30 2440 H 226.352 0.772237 -4.67262 0
M  V30 2441 H 226.776 -0.872332 -6.71356 0
M  V30 2442 H 231.418 0.56397 -4.19022 0
M  V30 2443 H 229.136 -2.00093 -7.82936 0
M  V30 2444 H 232.722 -0.83612 -5.75761 0
M  V30 2445 H 231.602 -2.10087 -7.55535 0
M  V30 2446 N 229.106 1.52395 0.401703 0
M  V30 2447 C 230.522 1.41363 0.740864 0
M  V30 2448 C 230.722 0.523982 1.94568 0
M  V30 2449 O 229.778 -0.00741204 2.52499 0
M  V30 2450 C 231.091 2.84011 0.987847 0
M  V30 2451 C 232.639 2.93404 1.09011 0
M  V30 2452 C 233.114 4.37036 1.3698 0
M  V30 2453 N 234.605 4.40304 1.43829 0
M  V30 2454 C 235.34 5.48508 1.67112 0
M  V30 2455 N 234.836 6.66819 1.87949 0
M  V30 2456 N 236.629 5.36034 1.69187 0
M  V30 2457 H 228.78 2.08765 -0.391262 0
M  V30 2458 H 231.043 0.941265 -0.112798 0
M  V30 2459 H 230.749 3.51265 0.174835 0
M  V30 2460 H 230.623 3.25502 1.906 0
M  V30 2461 H 233.01 2.26325 1.8937 0
M  V30 2462 H 233.091 2.55359 0.15015 0
M  V30 2463 H 232.735 5.04676 0.571353 0
M  V30 2464 H 232.665 4.72623 2.3224 0
M  V30 2465 H 235.156 3.55024 1.29486 0
M  V30 2466 H 235.469 7.45063 2.05185 0
M  V30 2467 H 233.814 6.6987 1.85199 0
M  V30 2468 H 237.005 4.42579 1.52451 0
M  V30 2469 H 237.178 6.20434 1.86993 0
M  V30 2470 N 230.584 -0.659388 1.43143 0
M  V30 2471 C 231.531 -1.77249 1.47822 0
M  V30 2472 C 232.501 -1.62818 0.328558 0
M  V30 2473 O 233.686 -1.83151 0.534838 0
M  V30 2474 C 230.826 -3.15371 1.40126 0
M  V30 2475 C 229.939 -3.4098 2.65249 0
M  V30 2476 C 229.074 -4.68915 2.49584 0
M  V30 2477 C 228.113 -4.87608 3.70006 0
M  V30 2478 N 227.25 -6.06796 3.53189 0
M  V30 2479 H 232.09 -1.72584 2.42938 0
M  V30 2480 H 229.627 -0.842297 1.20598 0
M  V30 2481 H 231.585 -3.9521 1.33659 0
M  V30 2482 H 230.215 -3.19121 0.485964 0
M  V30 2483 H 229.267 -2.55282 2.8202 0
M  V30 2484 H 230.579 -3.50681 3.54717 0
M  V30 2485 H 229.733 -5.56871 2.4079 0
M  V30 2486 H 228.472 -4.61524 1.5763 0
M  V30 2487 H 227.477 -3.9809 3.79215 0
M  V30 2488 H 228.702 -4.96834 4.62961 0
M  V30 2489 H 226.648 -6.00549 2.63965 0
M  V30 2490 H 226.565 -6.17428 4.36255 0
M  V30 2491 H 227.833 -6.9739 3.48236 0
M  V30 2492 N 232.062 -1.29571 -0.897171 0
M  V30 2493 C 233.308 -1.17863 -1.65034 0
M  V30 2494 C 233.641 0.268729 -1.92332 0
M  V30 2495 O 232.916 1.19378 -1.53555 0
M  V30 2496 C 233.199 -1.995 -2.99786 0
M  V30 2497 C 233.052 -3.5239 -2.79538 0
M  V30 2498 C 234.371 -1.82335 -4.00552 0
M  V30 2499 H 231.49 -0.429528 -0.598895 0
M  V30 2500 H 234.132 -1.59072 -1.03905 0
M  V30 2501 H 232.282 -1.64485 -3.51962 0
M  V30 2502 H 233.954 -3.97401 -2.34244 0
M  V30 2503 H 232.197 -3.77187 -2.14273 0
M  V30 2504 H 232.868 -4.04787 -3.75302 0
M  V30 2505 H 235.344 -2.12924 -3.57495 0
M  V30 2506 H 234.22 -2.41801 -4.92771 0
M  V30 2507 H 234.481 -0.779209 -4.35179 0
M  V30 2508 N 233.54 1.10788 -1.12088 0
M  V30 2509 C 234.786 1.82942 -0.875226 0
M  V30 2510 C 235.119 1.84779 0.597538 0
M  V30 2511 O 234.394 1.30578 1.44152 0
M  V30 2512 C 234.677 3.29789 -1.44606 0
M  V30 2513 C 234.53 3.36307 -2.98693 0
M  V30 2514 C 235.849 4.26064 -1.10261 0
M  V30 2515 H 232.968 0.664195 -0.319397 0
M  V30 2516 H 235.61 1.29867 -1.38689 0
M  V30 2517 H 233.76 3.75118 -1.01089 0
M  V30 2518 H 235.432 2.99487 -3.50864 0
M  V30 2519 H 233.675 2.76318 -3.34411 0
M  V30 2520 H 234.346 4.39694 -3.33726 0
M  V30 2521 H 236.822 3.88951 -1.4784 0
M  V30 2522 H 235.698 5.27183 -1.52869 0
M  V30 2523 H 235.959 4.42098 -0.0142953 0
M  V30 2524 N 235.018 0.912232 1.28515 0
M  V30 2525 C 235.981 0.404223 2.25607 0
M  V30 2526 C 236.981 -0.468602 1.53821 0
M  V30 2527 O 238.171 -0.271873 1.72065 0
M  V30 2528 C 235.303 -0.420653 3.38295 0
M  V30 2529 H 236.496 1.26188 2.7206 0
M  V30 2530 H 234.049 0.691495 1.40171 0
M  V30 2531 H 234.784 -1.29777 2.97201 0
M  V30 2532 H 234.569 0.204935 3.91564 0
M  V30 2533 H 236.059 -0.766971 4.10496 0
M  V30 2534 N 236.496 -1.42363 0.676048 0
M  V30 2535 C 237.743 -2.01522 0.19883 0
M  V30 2536 C 238.071 -1.53456 -1.19505 0
M  V30 2537 O 237.326 -0.727967 -1.81657 0
M  V30 2538 C 237.625 -3.56929 0.183431 0
M  V30 2539 C 237.291 -4.24431 1.52215 0
M  V30 2540 C 235.953 -4.42585 1.8887 0
M  V30 2541 C 238.305 -4.62459 2.40377 0
M  V30 2542 C 235.633 -4.96039 3.13309 0
M  V30 2543 C 237.985 -5.17294 3.64129 0
M  V30 2544 C 236.649 -5.33661 4.00951 0
M  V30 2545 H 235.919 -0.737419 0.0727571 0
M  V30 2546 H 238.566 -1.70531 0.871281 0
M  V30 2547 H 236.871 -3.87594 -0.572532 0
M  V30 2548 H 238.568 -4.00486 -0.203035 0
M  V30 2549 H 235.158 -4.10661 1.22701 0
M  V30 2550 H 239.342 -4.48105 2.13343 0
M  V30 2551 H 234.598 -5.06896 3.41857 0
M  V30 2552 H 238.772 -5.45704 4.32644 0
M  V30 2553 H 236.399 -5.74845 4.9745 0
M  V30 2554 N 237.974 -0.419461 -1.51915 0
M  V30 2555 C 238.906 0.43646 -2.25006 0
M  V30 2556 C 239.919 1.00149 -1.28351 0
M  V30 2557 O 241.108 0.898674 -1.54227 0
M  V30 2558 C 238.208 1.6206 -2.9764 0
M  V30 2559 C 237.381 1.17763 -4.21249 0
M  V30 2560 C 236.44 2.22985 -4.76617 0
M  V30 2561 O 235.466 1.83151 -5.38929 0
M  V30 2562 N 236.668 3.55271 -4.59089 0
M  V30 2563 H 239.433 -0.18989 -2.99098 0
M  V30 2564 H 236.994 -0.247386 -1.59999 0
M  V30 2565 H 238.986 2.32038 -3.31573 0
M  V30 2566 H 237.556 2.15266 -2.2667 0
M  V30 2567 H 236.776 0.305582 -3.93014 0
M  V30 2568 H 238.064 0.858781 -5.015 0
M  V30 2569 H 237.462 3.90377 -4.09417 0
M  V30 2570 H 236.019 4.21195 -4.97432 0
M  V30 2571 N 239.452 1.56882 -0.150215 0
M  V30 2572 C 240.68 2.00593 0.506948 0
M  V30 2573 C 241.095 1.03033 1.58208 0
M  V30 2574 O 240.452 0.0278396 1.82479 0
M  V30 2575 C 240.503 3.44209 1.10465 0
M  V30 2576 O 240.224 4.3804 0.0724636 0
M  V30 2577 C 241.725 4.03214 1.84211 0
M  V30 2578 H 238.945 0.65795 0.13169 0
M  V30 2579 H 241.489 2.03018 -0.245743 0
M  V30 2580 H 239.644 3.42625 1.80795 0
M  V30 2581 H 240.058 5.22007 0.510793 0
M  V30 2582 H 241.532 5.0569 2.21318 0
M  V30 2583 H 242.009 3.44107 2.72923 0
M  V30 2584 H 242.615 4.08437 1.18572 0
M  V30 2585 N 240.93 -0.123565 1.57115 0
M  V30 2586 C 242.346 -0.476961 1.52306 0
M  V30 2587 C 242.546 -1.82109 0.86248 0
M  V30 2588 O 241.602 -2.48586 0.442884 0
M  V30 2589 C 242.915 -0.465661 2.97073 0
M  V30 2590 C 244.463 -0.549534 3.08138 0
M  V30 2591 C 244.938 -0.568669 4.54456 0
M  V30 2592 N 246.429 -0.630237 4.58892 0
M  V30 2593 C 247.164 -0.666415 5.69514 0
M  V30 2594 N 246.66 -0.660514 6.89644 0
M  V30 2595 N 248.453 -0.709077 5.5761 0
M  V30 2596 H 240.604 0.757198 1.98445 0
M  V30 2597 H 242.867 0.278808 0.906074 0
M  V30 2598 H 242.573 0.454232 3.48754 0
M  V30 2599 H 242.447 -1.29513 3.54269 0
M  V30 2600 H 244.834 -1.45985 2.56461 0
M  V30 2601 H 244.915 0.307532 2.53945 0
M  V30 2602 H 244.559 0.337581 5.06777 0
M  V30 2603 H 244.489 -1.44256 5.06456 0
M  V30 2604 H 246.98 -0.641146 3.72421 0
M  V30 2605 H 247.293 -0.690616 7.69708 0
M  V30 2606 H 245.638 -0.628012 6.92157 0
M  V30 2607 H 248.829 -0.711019 4.62668 0
M  V30 2608 H 249.002 -0.733804 6.43832 0
M  V30 2609 N 242.408 -1.52605 -0.393616 0
M  V30 2610 C 243.356 -1.77688 -1.50099 0
M  V30 2611 C 244.35 -0.644615 -1.56656 0
M  V30 2612 O 245.556 -0.826997 -1.59877 0
M  V30 2613 H 241.931 -0.562159 -0.499481 0
M  V30 2614 H 243.902 -2.7043 -1.26135 0
M  V30 2615 C 242.651 -1.95858 -2.87289 0
M  V30 2616 H 241.974 -2.8241 -2.82992 0
M  V30 2617 H 243.414 -2.174 -3.64024 0
M  V30 2618 C 241.873 -0.729848 -3.28899 0
M  V30 2619 O 242.403 0.0949217 -4.01588 0
M  V30 2620 N 240.609 -0.561283 -2.85128 0
M  V30 2621 H 240.156 -1.23357 -2.26143 0
M  V30 2622 H 240.114 0.2595 -3.13327 0
M  V30 2623 N 243.887 0.651787 -1.4349 0
M  V30 2624 C 244.85 1.74647 -1.48429 0
M  V30 2625 C 245.85 1.56513 -0.368817 0
M  V30 2626 O 247.04 1.62385 -0.630623 0
M  V30 2627 C 244.172 3.13533 -1.33827 0
M  V30 2628 H 245.365 1.71649 -2.4592 0
M  V30 2629 H 242.918 0.863573 -1.30277 0
M  V30 2630 H 243.653 3.22142 -0.37349 0
M  V30 2631 H 243.438 3.28101 -2.14691 0
M  V30 2632 H 244.928 3.93356 -1.40218 0
M  V30 2633 N 245.365 1.30045 0.890287 0
M  V30 2634 C 246.776 1.16738 1.45702 0
M  V30 2635 C 247.127 -0.233939 1.948 0
M  V30 2636 O 246.252 -1.13021 1.84541 0
M  V30 2637 C 246.847 2.11313 2.64825 0
M  V30 2638 C 245.406 2.02001 3.17604 0
M  V30 2639 C 244.553 2.01699 1.90296 0
M  V30 2640 H 247.504 1.42392 0.700726 0
M  V30 2641 H 247.525 1.69086 3.40867 0
M  V30 2642 H 247.037 3.13294 2.2906 0
M  V30 2643 H 245.138 1.03142 3.5804 0
M  V30 2644 H 245.251 2.90128 3.81264 0
M  V30 2645 H 243.615 1.46427 2.08402 0
M  V30 2646 H 244.398 3.05402 1.56795 0
M  V30 2647 N 246.843 -1.10192 1.12674 0
M  V30 2648 C 247.793 -2.14754 0.765801 0
M  V30 2649 C 248.777 -1.59154 -0.236409 0
M  V30 2650 O 249.969 -1.76951 -0.0415261 0
M  V30 2651 C 247.098 -3.42563 0.224827 0
M  V30 2652 C 246.184 -4.05091 1.25548 0
M  V30 2653 N 246.575 -4.42287 2.4539 0
M  V30 2654 C 244.873 -4.32186 1.10142 0
M  V30 2655 C 245.574 -4.91441 3.11224 0
M  V30 2656 N 244.55 -4.88405 2.38666 0
M  V30 2657 H 248.352 -2.41309 1.67772 0
M  V30 2658 H 245.866 -1.27339 1.00789 0
M  V30 2659 H 247.863 -4.16868 -0.0519578 0
M  V30 2660 H 246.523 -3.17467 -0.681515 0
M  V30 2661 H 247.534 -4.33902 2.82754 0
M  V30 2662 H 244.211 -4.16735 0.252587 0
M  V30 2663 H 245.601 -5.29749 4.13298 0
M  V30 2664 N 248.321 -0.919034 -1.28029 0
M  V30 2665 C 249.737 -0.617972 -1.4715 0
M  V30 2666 C 249.937 0.835242 -1.83374 0
M  V30 2667 O 248.993 1.61388 -1.94191 0
M  V30 2668 C 250.306 -1.56041 -2.57044 0
M  V30 2669 C 251.854 -1.56769 -2.7091 0
M  V30 2670 C 252.329 -2.49688 -3.83953 0
M  V30 2671 N 253.82 -2.47845 -3.91314 0
M  V30 2672 C 254.555 -3.16437 -4.78179 0
M  V30 2673 N 254.051 -3.94376 -5.69596 0
M  V30 2674 N 255.844 -3.05498 -4.71834 0
M  V30 2675 H 247.995 -1.85866 -1.02798 0
M  V30 2676 H 250.258 -0.797506 -0.512531 0
M  V30 2677 H 249.964 -2.59671 -2.372 0
M  V30 2678 H 249.838 -1.29551 -3.54255 0
M  V30 2679 H 252.225 -0.538745 -2.90141 0
M  V30 2680 H 252.306 -1.87305 -1.74214 0
M  V30 2681 H 251.95 -3.52688 -3.65477 0
M  V30 2682 H 251.88 -2.16453 -4.80058 0
M  V30 2683 H 254.371 -1.91234 -3.25941 0
M  V30 2684 H 254.684 -4.43721 -6.32718 0
M  V30 2685 H 253.029 -3.98481 -5.69419 0
M  V30 2686 H 256.22 -2.44108 -3.99411 0
M  V30 2687 H 256.393 -3.59225 -5.39316 0
M  V30 2688 N 249.799 1.42003 -0.683588 0
M  V30 2689 C 250.762 2.29191 -0.0198243 0
M  V30 2690 C 251.762 1.43773 0.72013 0
M  V30 2691 O 252.952 1.65061 0.556815 0
M  V30 2692 C 250.084 3.26435 0.982487 0
M  V30 2693 H 251.277 2.8938 -0.787345 0
M  V30 2694 H 248.83 1.49789 -0.446418 0
M  V30 2695 H 249.565 2.71203 1.77819 0
M  V30 2696 H 249.35 3.89449 0.455182 0
M  V30 2697 H 250.84 3.918 1.44508 0
M  V30 2698 N 251.277 0.427512 1.51691 0
M  V30 2699 C 252.227 -0.406604 2.24345 0
M  V30 2700 C 253.211 -0.998276 1.26187 0
M  V30 2701 O 254.403 -0.918045 1.51331 0
M  V30 2702 C 251.532 -1.51266 3.08177 0
M  V30 2703 C 250.618 -0.930868 4.13758 0
M  V30 2704 N 251.009 -0.0773552 5.05741 0
M  V30 2705 C 249.307 -1.19948 4.29568 0
M  V30 2706 C 250.008 0.248344 5.8117 0
M  V30 2707 N 248.984 -0.365535 5.4237 0
M  V30 2708 H 252.786 0.251581 2.92821 0
M  V30 2709 H 250.3 0.239003 1.60632 0
M  V30 2710 H 252.297 -2.123 3.58796 0
M  V30 2711 H 250.957 -2.17328 2.41244 0
M  V30 2712 H 251.968 0.288351 5.17097 0
M  V30 2713 H 248.645 -1.85832 3.73862 0
M  V30 2714 H 250.035 0.942286 6.6526 0
M  V30 2715 N 252.755 -1.56801 0.158532 0
M  V30 2716 C 253.665 -2.20916 -0.789518 0
M  V30 2717 C 254.681 -1.1969 -1.26294 0
M  V30 2718 O 255.857 -1.52308 -1.31773 0
M  V30 2719 C 252.922 -2.82727 -2.00665 0
M  V30 2720 C 251.983 -3.99114 -1.58134 0
M  V30 2721 C 251.216 -4.57968 -2.74045 0
M  V30 2722 O 251.439 -4.15704 -3.90572 0
M  V30 2723 O 250.373 -5.48047 -2.48855 0
M  V30 2724 H 254.199 -3.02464 -0.273681 0
M  V30 2725 H 251.784 -1.4924 -0.0690548 0
M  V30 2726 H 253.666 -3.21968 -2.71872 0
M  V30 2727 H 252.341 -2.04184 -2.51179 0
M  V30 2728 H 251.248 -3.64567 -0.839155 0
M  V30 2729 H 252.581 -4.79212 -1.12325 0
M  V30 2730 N 254.233 0.115231 -1.57178 0
M  V30 2731 C 255.463 0.835224 -1.88964 0
M  V30 2732 C 255.871 1.73774 -0.74829 0
M  V30 2733 O 255.214 1.81401 0.289739 0
M  V30 2734 C 255.276 1.7178 -3.15804 0
M  V30 2735 C 254.94 0.989198 -4.46166 0
M  V30 2736 C 255.937 0.328263 -5.18863 0
M  V30 2737 C 253.622 0.969256 -4.9286 0
M  V30 2738 C 255.616 -0.342873 -6.36477 0
M  V30 2739 C 253.303 0.294324 -6.10391 0
M  V30 2740 C 254.301 -0.360582 -6.82048 0
M  V30 2741 O 253.989 -1.02474 -7.97342 0
M  V30 2742 H 253.721 0.245197 -0.629964 0
M  V30 2743 H 256.275 0.10303 -2.05141 0
M  V30 2744 H 254.505 2.49173 -2.95719 0
M  V30 2745 H 256.194 2.31255 -3.33581 0
M  V30 2746 H 256.96 0.335263 -4.8384 0
M  V30 2747 H 252.839 1.46844 -4.36987 0
M  V30 2748 H 256.383 -0.854629 -6.92345 0
M  V30 2749 H 252.28 0.285099 -6.4487 0
M  V30 2750 H 253.048 -0.929594 -8.13204 0
M  V30 2751 N 255.711 1.52812 0.385517 0
M  V30 2752 C 256.641 1.80808 1.47752 0
M  V30 2753 C 257.622 0.660318 1.5676 0
M  V30 2754 O 258.807 0.908246 1.71652 0
M  V30 2755 C 255.937 1.98008 2.85324 0
M  V30 2756 C 254.891 3.13709 2.91154 0
M  V30 2757 C 254.217 3.16169 4.31209 0
M  V30 2758 C 255.517 4.52709 2.60483 0
M  V30 2759 H 257.211 2.72253 1.24573 0
M  V30 2760 H 254.757 1.31003 0.597839 0
M  V30 2761 H 256.71 2.16176 3.61726 0
M  V30 2762 H 255.434 1.03255 3.09848 0
M  V30 2763 H 254.093 2.95329 2.17201 0
M  V30 2764 H 253.741 2.19092 4.52778 0
M  V30 2765 H 253.441 3.93894 4.36029 0
M  V30 2766 H 254.965 3.36496 5.09512 0
M  V30 2767 H 256.379 4.71173 3.26602 0
M  V30 2768 H 254.776 5.32528 2.76648 0
M  V30 2769 H 255.846 4.59186 1.55809 0
M  V30 2770 N 257.189 -0.644168 1.43834 0
M  V30 2771 C 258.438 -1.39985 1.45214 0
M  V30 2772 C 258.751 -1.95421 0.0835494 0
M  V30 2773 O 259.957 -2.71488 -0.0251748 0
M  V30 2774 C 258.413 -2.53384 2.55587 0
M  V30 2775 C 258.021 -2.04517 3.98594 0
M  V30 2776 C 259.765 -3.30685 2.66172 0
M  V30 2777 C 257.672 -3.1518 5.00416 0
M  V30 2778 H 256.602 -0.526005 0.540218 0
M  V30 2779 H 259.253 -0.694367 1.69855 0
M  V30 2780 H 257.635 -3.26446 2.24163 0
M  V30 2781 H 258.809 -1.38405 4.39523 0
M  V30 2782 H 257.124 -1.40068 3.92135 0
M  V30 2783 H 259.721 -4.13158 3.39418 0
M  V30 2784 H 260.064 -3.79312 1.71546 0
M  V30 2785 H 260.597 -2.64708 2.96942 0
M  V30 2786 H 257.336 -2.71511 5.96625 0
M  V30 2787 H 256.856 -3.79974 4.64091 0
M  V30 2788 H 258.535 -3.80166 5.23529 0
M  V30 2789 N 258.668 -1.30515 -0.883378 0
M  V30 2790 C 260.084 -1.08881 -1.16692 0
M  V30 2791 C 260.284 0.149409 -2.00945 0
M  V30 2792 O 259.34 0.84257 -2.38027 0
M  V30 2793 C 260.653 -2.35319 -1.87204 0
M  V30 2794 C 262.201 -2.40799 -1.99962 0
M  V30 2795 C 262.676 -3.67083 -2.73887 0
M  V30 2796 N 264.167 -3.679 -2.81432 0
M  V30 2797 C 264.902 -4.62303 -3.3921 0
M  V30 2798 N 264.398 -5.67052 -3.98025 0
M  V30 2799 N 266.191 -4.49845 -3.3704 0
M  V30 2800 H 258.342 -2.09951 -0.321633 0
M  V30 2801 H 260.605 -0.92556 -0.205043 0
M  V30 2802 H 260.311 -3.25689 -1.3274 0
M  V30 2803 H 260.185 -2.44089 -2.87577 0
M  V30 2804 H 262.572 -1.50907 -2.53597 0
M  V30 2805 H 262.653 -2.36003 -0.98673 0
M  V30 2806 H 262.297 -4.57334 -2.20925 0
M  V30 2807 H 262.227 -3.69141 -3.75556 0
M  V30 2808 H 264.718 -2.92171 -2.39676 0
M  V30 2809 H 265.031 -6.35184 -4.40183 0
M  V30 2810 H 263.376 -5.70842 -3.96439 0
M  V30 2811 H 266.567 -3.67194 -2.90321 0
M  V30 2812 H 266.74 -5.23597 -3.81772 0
M  V30 2813 N 260.146 1.09593 -1.13257 0
M  V30 2814 C 261.076 2.18214 -0.830946 0
M  V30 2815 C 262.057 1.68812 0.208966 0
M  V30 2816 O 263.242 1.9408 0.0682666 0
M  V30 2817 C 260.372 3.46051 -0.294296 0
M  V30 2818 C 259.326 4.08778 -1.26826 0
M  V30 2819 C 258.652 5.31419 -0.591449 0
M  V30 2820 C 259.952 4.51476 -2.62615 0
M  V30 2821 H 261.646 2.43703 -1.73923 0
M  V30 2822 H 259.192 1.17128 -0.837675 0
M  V30 2823 H 261.145 4.2134 -0.0709606 0
M  V30 2824 H 259.869 3.20079 0.649366 0
M  V30 2825 H 258.528 3.35505 -1.47756 0
M  V30 2826 H 258.176 5.01727 0.357633 0
M  V30 2827 H 257.876 5.74341 -1.24123 0
M  V30 2828 H 259.4 6.09433 -0.377355 0
M  V30 2829 H 260.814 5.17999 -2.45663 0
M  V30 2830 H 259.211 5.05277 -3.23752 0
M  V30 2831 H 260.281 3.63962 -3.20406 0
M  V30 2832 N 261.624 0.925811 1.2754 0
M  V30 2833 C 262.872 0.564138 1.94067 0
M  V30 2834 C 263.193 -0.897188 1.73134 0
M  V30 2835 O 262.463 -1.63573 1.07799 0
M  V30 2836 H 261.043 0.205645 0.718136 0
M  V30 2837 H 263.705 1.1778 1.55287 0
M  V30 2838 H 262.801 0.76881 3.02483 0
M  V30 2839 N 263.102 -1.41638 0.69111 0
M  V30 2840 C 264.032 -2.3347 0.037248 0
M  V30 2841 C 265.013 -1.51575 -0.771947 0
M  V30 2842 O 266.198 -1.80126 -0.72582 0
M  V30 2843 C 263.328 -3.35354 -0.903064 0
M  V30 2844 C 262.282 -4.27526 -0.201288 0
M  V30 2845 C 261.608 -5.19747 -1.25565 0
M  V30 2846 C 262.908 -5.13959 0.929689 0
M  V30 2847 H 264.602 -2.88397 0.804227 0
M  V30 2848 H 262.148 -1.38669 0.388189 0
M  V30 2849 H 264.101 -3.98519 -1.36969 0
M  V30 2850 H 262.825 -2.78767 -1.70166 0
M  V30 2851 H 261.484 -3.65779 0.245265 0
M  V30 2852 H 261.132 -4.59479 -2.04666 0
M  V30 2853 H 260.832 -5.8225 -0.791128 0
M  V30 2854 H 262.356 -5.85789 -1.72288 0
M  V30 2855 H 263.77 -5.70718 0.543546 0
M  V30 2856 H 262.167 -5.85379 1.32103 0
M  V30 2857 H 263.237 -4.51389 1.77133 0
M  V30 2858 N 264.58 -0.43555 -1.51462 0
M  V30 2859 C 265.49 0.383001 -2.31453 0
M  V30 2860 C 266.506 1.02931 -1.4029 0
M  V30 2861 O 267.682 1.02507 -1.73362 0
M  V30 2862 C 264.747 1.47043 -3.13973 0
M  V30 2863 C 263.808 0.844433 -4.20913 0
M  V30 2864 C 263.041 1.88004 -4.9949 0
M  V30 2865 O 263.264 3.10199 -4.78678 0
M  V30 2866 O 262.198 1.47157 -5.83634 0
M  V30 2867 H 266.024 -0.269964 -3.02498 0
M  V30 2868 H 263.609 -0.19813 -1.4808 0
M  V30 2869 H 265.491 2.10113 -3.65281 0
M  V30 2870 H 264.166 2.10751 -2.45695 0
M  V30 2871 H 263.073 0.175729 -3.73687 0
M  V30 2872 H 264.406 0.250869 -4.9156 0
M  V30 2873 N 266.058 1.56714 -0.166846 0
M  V30 2874 C 266.988 2.20754 0.760913 0
M  V30 2875 C 267.969 1.16178 1.24244 0
M  V30 2876 O 269.154 1.44592 1.29641 0
M  V30 2877 C 266.284 2.84478 1.99223 0
M  V30 2878 C 265.238 3.95053 1.64672 0
M  V30 2879 C 264.564 4.45805 2.95232 0
M  V30 2880 C 265.864 5.14865 0.878155 0
M  V30 2881 H 267.558 2.98537 0.22713 0
M  V30 2882 H 265.104 1.43596 0.107805 0
M  V30 2883 H 267.057 3.27951 2.64624 0
M  V30 2884 H 265.781 2.04056 2.55007 0
M  V30 2885 H 264.44 3.52228 1.01641 0
M  V30 2886 H 264.088 3.62181 3.49047 0
M  V30 2887 H 263.788 5.204 2.7287 0
M  V30 2888 H 265.312 4.91962 3.6167 0
M  V30 2889 H 266.726 5.55059 1.43466 0
M  V30 2890 H 265.123 5.95348 0.753738 0
M  V30 2891 H 266.193 4.84735 -0.126377 0
M  V30 2892 N 267.536 -0.106894 1.57237 0
M  V30 2893 C 268.499 -1.11466 2.0027 0
M  V30 2894 C 269.499 -1.33623 0.894519 0
M  V30 2895 O 270.689 -1.29935 1.16028 0
M  V30 2896 C 267.821 -2.46646 2.35327 0
M  V30 2897 H 269.014 -0.744516 2.90512 0
M  V30 2898 H 266.567 -0.351576 1.52295 0
M  V30 2899 H 267.302 -2.88558 1.48003 0
M  V30 2900 H 267.087 -2.31915 3.16161 0
M  V30 2901 H 268.577 -3.19151 2.69318 0
M  V30 2902 N 269.014 -1.53014 -0.377408 0
M  V30 2903 C 270.291 -1.59215 -1.13622 0
M  V30 2904 C 270.671 -0.392407 -2.07421 0
M  V30 2905 O 270.019 0.618342 -2.19975 0
M  V30 2906 C 270.229 -2.93669 -1.88573 0
M  V30 2907 C 271.577 -3.47822 -2.43526 0
M  V30 2908 O 272.601 -2.9562 -1.98715 0
M  V30 2909 O 271.46 -4.39055 -3.25412 0
M  V30 2910 H 268.554 -0.642625 -0.52054 0
M  V30 2911 H 271.1 -1.65353 -0.381625 0
M  V30 2912 H 269.872 -3.7243 -1.20048 0
M  V30 2913 H 269.495 -2.90968 -2.70968 0
M  V30 2914 N 270.492 0.636531 -1.44174 0
M  V30 2915 C 271.74 1.39343 -1.46383 0
M  V30 2916 C 272.061 1.94766 -0.0955715 0
M  V30 2917 O 271.331 1.75452 0.871395 0
M  V30 2918 H 269.911 0.517199 -0.538994 0
M  V30 2919 H 272.573 0.74957 -1.7991 0
M  V30 2920 H 271.669 2.22746 -2.18611 0
M  V30 2921 N 271.97 1.30982 0.876444 0
M  V30 2922 C 273.216 1.20474 1.63138 0
M  V30 2923 C 273.549 -0.238096 1.92735 0
M  V30 2924 O 272.824 -1.1692 1.55435 0
M  V30 2925 C 273.107 2.04244 2.96574 0
M  V30 2926 C 272.96 3.56793 2.73896 0
M  V30 2927 C 274.279 1.88684 3.97601 0
M  V30 2928 H 271.398 0.439001 0.591985 0
M  V30 2929 H 274.04 1.60704 1.01361 0
M  V30 2930 H 272.19 1.70063 3.493 0
M  V30 2931 H 273.862 4.01077 2.27892 0
M  V30 2932 H 272.105 3.80548 2.08245 0
M  V30 2933 H 272.776 4.10706 3.68815 0
M  V30 2934 H 275.252 2.18584 3.54062 0
M  V30 2935 H 274.128 2.4961 4.88862 0
M  V30 2936 H 274.389 0.848343 4.33884 0
M  V30 2937 N 273.449 -1.08991 1.13837 0
M  V30 2938 C 274.379 -2.17771 0.842507 0
M  V30 2939 C 275.36 -1.6892 -0.20001 0
M  V30 2940 O 276.545 -1.94113 -0.0579731 0
M  V30 2941 C 273.675 -3.4589 0.312644 0
M  V30 2942 C 272.629 -4.08099 1.28992 0
M  V30 2943 C 271.955 -5.31098 0.619623 0
M  V30 2944 C 273.255 -4.50077 2.65005 0
M  V30 2945 H 274.949 -2.42777 1.75213 0
M  V30 2946 H 272.495 -1.16682 0.843875 0
M  V30 2947 H 274.448 -4.21297 0.0933043 0
M  V30 2948 H 273.172 -3.20419 -0.632382 0
M  V30 2949 H 271.831 -3.34717 1.49533 0
M  V30 2950 H 271.479 -5.0191 -0.33102 0
M  V30 2951 H 271.179 -5.73674 1.27167 0
M  V30 2952 H 272.703 -6.09224 0.409669 0
M  V30 2953 H 274.117 -5.16688 2.48407 0
M  V30 2954 H 272.514 -5.03553 3.26427 0
M  V30 2955 H 273.584 -3.62257 3.22332 0
M  V30 2956 N 274.927 -0.932562 -1.27047 0
M  V30 2957 C 276.173 -0.576412 -1.94436 0
M  V30 2958 C 276.506 0.880891 -1.73072 0
M  V30 2959 O 275.781 1.62905 -1.06264 0
M  V30 2960 C 276.064 -0.909031 -3.48437 0
M  V30 2961 C 275.917 -2.42044 -3.79123 0
M  V30 2962 C 277.236 -0.418341 -4.38107 0
M  V30 2963 H 274.355 -0.210888 -0.706184 0
M  V30 2964 H 276.997 -1.16522 -1.50075 0
M  V30 2965 H 275.147 -0.407947 -3.86352 0
M  V30 2966 H 276.819 -2.99359 -3.50973 0
M  V30 2967 H 275.062 -2.86758 -3.25503 0
M  V30 2968 H 275.733 -2.6037 -4.86736 0
M  V30 2969 H 278.209 -0.847856 -4.0737 0
M  V30 2970 H 277.085 -0.679981 -5.44672 0
M  V30 2971 H 277.346 0.681642 -4.36814 0
M  V30 2972 N 276.405 1.4127 -0.698611 0
M  V30 2973 C 277.355 2.27997 -0.0119836 0
M  V30 2974 C 278.339 1.42363 0.749765 0
M  V30 2975 O 279.531 1.65607 0.624758 0
M  V30 2976 C 276.66 3.30702 0.921458 0
M  V30 2977 C 275.746 4.23814 0.155796 0
M  V30 2978 N 276.137 4.98572 -0.852015 0
M  V30 2979 C 274.435 4.44284 0.390836 0
M  V30 2980 C 275.136 5.66744 -1.3106 0
M  V30 2981 N 274.112 5.39867 -0.635944 0
M  V30 2982 H 277.914 2.83232 -0.784649 0
M  V30 2983 H 275.428 1.53518 -0.529711 0
M  V30 2984 H 277.425 3.91661 1.42854 0
M  V30 2985 H 276.085 2.77028 1.69369 0
M  V30 2986 H 277.096 5.03024 -1.23235 0
M  V30 2987 H 273.773 4.01614 1.14071 0
M  V30 2988 H 275.163 6.36672 -2.14707 0
M  V30 2989 N 277.883 0.443576 1.51229 0
M  V30 2990 C 279.294 -0.0180867 1.86691 0
M  V30 2991 C 279.645 -1.41384 1.36033 0
M  V30 2992 O 278.77 -2.04291 0.713722 0
M  V30 2993 C 279.365 -0.039597 3.38777 0
M  V30 2994 C 277.924 -0.445692 3.73752 0
M  V30 2995 C 277.071 0.357584 2.74985 0
M  V30 2996 H 280.022 0.659138 1.44364 0
M  V30 2997 H 280.043 -0.847761 3.70936 0
M  V30 2998 H 279.555 0.976382 3.75617 0
M  V30 2999 H 277.656 -1.46704 3.42503 0
M  V30 3000 H 277.769 -0.166155 4.78812 0
M  V30 3001 H 276.133 -0.184973 2.54027 0
M  V30 3002 H 276.916 1.37256 3.14668 0
M  V30 3003 N 279.361 -1.56624 0.175154 0
M  V30 3004 C 280.61 -1.96173 -0.468921 0
M  V30 3005 C 280.923 -1.06401 -1.64128 0
M  V30 3006 O 282.129 -1.35648 -2.35185 0
M  V30 3007 C 280.585 -3.48833 -0.885633 0
M  V30 3008 C 280.193 -4.47237 0.261343 0
M  V30 3009 C 281.937 -3.97194 -1.49791 0
M  V30 3010 C 279.844 -5.9114 -0.175214 0
M  V30 3011 H 278.774 -0.732455 -0.178958 0
M  V30 3012 H 281.425 -1.81591 0.263997 0
M  V30 3013 H 279.807 -3.58848 -1.67464 0
M  V30 3014 H 280.981 -4.4894 1.03871 0
M  V30 3015 H 279.296 -4.08956 0.783827 0
M  V30 3016 H 281.893 -5.02167 -1.83665 0
M  V30 3017 H 282.236 -3.40351 -2.39722 0
M  V30 3018 H 282.769 -3.90212 -0.773267 0
M  V30 3019 H 279.508 -6.51865 0.689414 0
M  V30 3020 H 279.028 -5.92735 -0.91786 0
M  V30 3021 H 280.707 -6.44044 -0.617792 0
M  V30 3022 N 280.839 0.0985539 -1.57292 0
M  V30 3023 C 281.769 1.12064 -2.04851 0
M  V30 3024 C 282.75 1.41981 -0.936767 0
M  V30 3025 O 283.935 1.52071 -1.20781 0
M  V30 3026 C 281.065 2.44144 -2.47004 0
M  V30 3027 C 280.019 2.28643 -3.6181 0
M  V30 3028 C 279.345 3.65869 -3.89929 0
M  V30 3029 C 280.645 1.72986 -4.92822 0
M  V30 3030 H 282.339 0.724979 -2.9049 0
M  V30 3031 H 279.885 0.34729 -1.39749 0
M  V30 3032 H 281.838 3.15914 -2.78884 0
M  V30 3033 H 280.562 2.85639 -1.5836 0
M  V30 3034 H 279.221 1.59318 -3.30172 0
M  V30 3035 H 278.869 4.04885 -2.98458 0
M  V30 3036 H 278.569 3.56344 -4.67218 0
M  V30 3037 H 280.093 4.39112 -4.2428 0
M  V30 3038 H 281.507 2.34593 -5.23105 0
M  V30 3039 H 279.904 1.74229 -5.74251 0
M  V30 3040 H 280.974 0.689007 -4.7998 0
M  V30 3041 N 282.317 1.53212 0.369288 0
M  V30 3042 C 283.565 1.68881 1.11012 0
M  V30 3043 C 283.886 0.441285 1.89941 0
M  V30 3044 O 283.156 -0.544623 1.88177 0
M  V30 3045 H 281.736 0.622569 0.412816 0
M  V30 3046 H 284.398 1.90391 0.416802 0
M  V30 3047 H 283.494 2.54822 1.80201 0
M  V30 3048 N 283.795 -0.628877 1.44509 0
M  V30 3049 C 284.758 -1.72263 1.51188 0
M  V30 3050 C 285.758 -1.55907 0.39367 0
M  V30 3051 O 286.948 -1.61361 0.656377 0
M  V30 3052 C 284.08 -3.11365 1.38798 0
M  V30 3053 H 285.273 -1.67714 2.4862 0
M  V30 3054 H 282.826 -0.842737 1.31634 0
M  V30 3055 H 283.561 -3.21507 0.424693 0
M  V30 3056 H 283.346 -3.24644 2.19884 0
M  V30 3057 H 284.836 -3.91075 1.46458 0
M  V30 3058 N 285.273 -1.31445 -0.869486 0
M  V30 3059 C 286.22 -1.19135 -1.97675 0
M  V30 3060 C 287.19 -0.0770266 -1.65921 0
M  V30 3061 O 288.375 -0.249972 -1.89155 0
M  V30 3062 C 285.515 -0.905149 -3.33018 0
M  V30 3063 C 284.628 -2.10285 -3.77365 0
M  V30 3064 C 283.763 -1.75339 -5.01427 0
M  V30 3065 C 282.802 -2.91515 -5.38224 0
M  V30 3066 N 281.939 -2.56762 -6.53466 0
M  V30 3067 H 286.779 -2.13853 -2.07535 0
M  V30 3068 H 284.316 -1.06379 -1.01597 0
M  V30 3069 H 286.274 -0.719765 -4.10944 0
M  V30 3070 H 284.904 0.00519624 -3.228 0
M  V30 3071 H 283.956 -2.39899 -2.95216 0
M  V30 3072 H 285.268 -2.97237 -4.00564 0
M  V30 3073 H 284.422 -1.53266 -5.87022 0
M  V30 3074 H 283.161 -0.855801 -4.80133 0
M  V30 3075 H 282.166 -3.14237 -4.51149 0
M  V30 3076 H 283.391 -3.81985 -5.61484 0
M  V30 3077 H 281.337 -1.69526 -6.33717 0
M  V30 3078 H 281.254 -3.37243 -6.76612 0
M  V30 3079 H 282.522 -2.38083 -7.42251 0
M  V30 3080 N 286.751 1.08385 -1.14413 0
M  V30 3081 C 287.698 2.15311 -0.831265 0
M  V30 3082 C 288.668 1.64751 0.211292 0
M  V30 3083 O 289.853 1.90627 0.0811674 0
M  V30 3084 C 286.993 3.43658 -0.315143 0
M  V30 3085 C 286.106 4.08064 -1.41802 0
M  V30 3086 C 285.241 5.24207 -0.859126 0
M  V30 3087 C 284.28 5.80554 -1.93967 0
M  V30 3088 N 283.417 6.88042 -1.39793 0
M  V30 3089 H 288.257 2.41415 -1.74708 0
M  V30 3090 H 285.794 1.18474 -0.871909 0
M  V30 3091 H 287.752 4.172 0.00230884 0
M  V30 3092 H 286.382 3.17839 0.56378 0
M  V30 3093 H 285.434 3.3228 -1.85187 0
M  V30 3094 H 286.746 4.45962 -2.23427 0
M  V30 3095 H 285.9 6.04689 -0.49359 0
M  V30 3096 H 284.639 4.87699 -0.011932 0
M  V30 3097 H 283.644 4.98725 -2.31415 0
M  V30 3098 H 284.869 6.19121 -2.79046 0
M  V30 3099 H 282.815 6.53493 -0.572919 0
M  V30 3100 H 282.732 7.24767 -2.15054 0
M  V30 3101 H 284 7.72255 -1.0603 0
M  V30 3102 N 288.23 0.939286 1.26551 0
M  V30 3103 C 289.641 0.628782 1.75793 0
M  V30 3104 C 289.992 -0.856046 1.7654 0
M  V30 3105 O 289.117 -1.66994 1.3763 0
M  V30 3106 C 289.712 1.13465 3.19235 0
M  V30 3107 C 288.271 0.874601 3.66098 0
M  V30 3108 C 287.418 1.28667 2.45642 0
M  V30 3109 H 290.369 1.1178 1.12654 0
M  V30 3110 H 290.39 0.487609 3.77363 0
M  V30 3111 H 289.902 2.21535 3.1866 0
M  V30 3112 H 288.003 -0.191793 3.72106 0
M  V30 3113 H 288.116 1.50028 4.55004 0
M  V30 3114 H 286.48 0.705109 2.44745 0
M  V30 3115 H 287.263 2.37625 2.47769 0
M  V30 3116 N 289.708 -1.40897 0.706093 0
M  V30 3117 C 290.985 -1.94868 0.169099 0
M  V30 3118 C 291.365 -1.64485 -1.32318 0
M  V30 3119 O 290.713 -0.95744 -2.07474 0
M  V30 3120 C 290.923 -3.45798 0.471654 0
M  V30 3121 C 292.271 -4.22663 0.405127 0
M  V30 3122 O 293.295 -3.53865 0.407168 0
M  V30 3123 O 292.154 -5.45216 0.374383 0
M  V30 3124 H 289.248 -0.82673 0.0211352 0
M  V30 3125 H 291.794 -1.50558 0.782976 0
M  V30 3126 H 290.566 -3.61235 1.50416 0
M  V30 3127 H 290.189 -3.97225 -0.172666 0
M  V30 3128 N 291.186 -0.45159 -1.50991 0
M  V30 3129 C 292.463 0.170707 -1.94854 0
M  V30 3130 C 292.843 1.58788 -1.39103 0
M  V30 3131 O 292.191 2.20913 -0.583921 0
M  V30 3132 C 292.401 0.133929 -3.48743 0
M  V30 3133 C 293.749 0.33248 -4.23296 0
M  V30 3134 O 294.773 0.211403 -3.55572 0
M  V30 3135 O 293.632 0.57486 -5.43468 0
M  V30 3136 H 290.726 0.122264 -0.817912 0
M  V30 3137 H 293.272 -0.510594 -1.61836 0
M  V30 3138 H 292.044 -0.856283 -3.81816 0
M  V30 3139 H 291.667 0.857529 -3.88242 0
M  V30 3140 N 292.664 1.56529 -0.183458 0
M  V30 3141 C 293.911 1.97244 0.458357 0
M  V30 3142 C 294.239 1.06992 1.62428 0
M  V30 3143 O 293.494 0.106542 1.9541 0
M  V30 3144 C 293.793 3.43939 0.971637 0
M  V30 3145 C 293.459 4.5083 -0.0796784 0
M  V30 3146 C 292.121 4.79786 -0.368584 0
M  V30 3147 C 294.473 5.15138 -0.792638 0
M  V30 3148 C 291.801 5.70345 -1.37563 0
M  V30 3149 C 294.153 6.06784 -1.78875 0
M  V30 3150 C 292.817 6.34102 -2.08497 0
M  V30 3151 H 292.087 0.721768 0.167725 0
M  V30 3152 H 294.734 1.89472 -0.277976 0
M  V30 3153 H 293.039 3.48724 1.78602 0
M  V30 3154 H 294.736 3.72791 1.47744 0
M  V30 3155 H 291.326 4.28317 0.155668 0
M  V30 3156 H 295.51 4.92868 -0.582659 0
M  V30 3157 H 290.766 5.89789 -1.61118 0
M  V30 3158 H 294.94 6.55677 -2.3465 0
M  V30 3159 H 292.567 7.04074 -2.86678 0
M  V30 3160 N 294.142 -0.090211 1.57342 0
M  V30 3161 C 295.553 -0.644173 1.75235 0
M  V30 3162 C 295.904 -1.78865 0.806335 0
M  V30 3163 O 295.029 -2.16395 -0.0140128 0
M  V30 3164 C 295.624 -1.17532 3.1776 0
M  V30 3165 C 294.183 -1.67531 3.37061 0
M  V30 3166 C 293.33 -0.58693 2.71017 0
M  V30 3167 H 296.281 0.135884 1.58117 0
M  V30 3168 H 296.302 -2.04455 3.20902 0
M  V30 3169 H 295.814 -0.342138 3.86589 0
M  V30 3170 H 293.915 -2.53234 2.73319 0
M  V30 3171 H 294.028 -1.76493 4.45406 0
M  V30 3172 H 292.392 -1.02756 2.33052 0
M  V30 3173 H 293.175 0.235758 3.4249 0
M  V30 3174 N 295.62 -1.53406 -0.361157 0
M  V30 3175 C 296.848 -1.73717 -1.12383 0
M  V30 3176 C 297.263 -0.468161 -1.82904 0
M  V30 3177 O 296.62 0.559198 -1.73722 0
M  V30 3178 C 296.671 -2.90558 -2.15078 0
M  V30 3179 O 296.392 -4.12549 -1.47428 0
M  V30 3180 C 297.893 -3.22777 -3.03858 0
M  V30 3181 H 295.113 -0.580896 -0.335858 0
M  V30 3182 H 297.657 -2.00167 -0.418728 0
M  V30 3183 H 295.812 -2.66489 -2.8118 0
M  V30 3184 H 296.226 -4.78009 -2.15887 0
M  V30 3185 H 297.7 -4.07927 -3.71887 0
M  V30 3186 H 298.177 -2.38329 -3.68912 0
M  V30 3187 H 298.783 -3.48787 -2.43367 0
M  V30 3188 N 297.098 0.621204 -1.44841 0
M  V30 3189 C 298.008 1.7612 -1.5498 0
M  V30 3190 C 299.024 1.68477 -0.434927 0
M  V30 3191 O 300.2 1.89076 -0.693693 0
M  V30 3192 C 297.265 3.1254 -1.50065 0
M  V30 3193 C 296.326 3.31741 -2.72482 0
M  V30 3194 C 295.559 4.61653 -2.67792 0
M  V30 3195 O 295.782 5.431 -1.74352 0
M  V30 3196 O 294.716 4.83271 -3.58794 0
M  V30 3197 H 298.542 1.70518 -2.51311 0
M  V30 3198 H 296.127 0.783643 -1.27198 0
M  V30 3199 H 298.009 3.93844 -1.49882 0
M  V30 3200 H 296.684 3.18663 -0.568806 0
M  V30 3201 H 295.591 2.50077 -2.7823 0
M  V30 3202 H 296.924 3.30486 -3.64746 0
M  V30 3203 N 298.576 1.31904 0.862503 0
M  V30 3204 C 299.822 1.22197 1.61851 0
M  V30 3205 C 300.155 -0.217641 1.92977 0
M  V30 3206 O 299.43 -1.15264 1.56666 0
M  V30 3207 C 299.713 2.07378 2.94391 0
M  V30 3208 C 299.566 3.59678 2.70096 0
M  V30 3209 C 300.885 1.92891 3.95577 0
M  V30 3210 H 298.004 0.445255 0.587296 0
M  V30 3211 H 300.646 1.6177 0.99651 0
M  V30 3212 H 298.796 1.73758 3.47477 0
M  V30 3213 H 300.468 4.03472 2.23625 0
M  V30 3214 H 298.711 3.82735 2.04197 0
M  V30 3215 H 299.382 4.14595 3.64438 0
M  V30 3216 H 301.858 2.22327 3.51724 0
M  V30 3217 H 300.734 2.54781 4.86187 0
M  V30 3218 H 300.995 0.894315 4.3296 0
M  V30 3219 N 300.054 -1.07777 1.14986 0
M  V30 3220 C 301.303 -1.79669 0.916617 0
M  V30 3221 C 301.616 -1.87474 -0.557917 0
M  V30 3222 O 302.822 -2.55845 -0.908617 0
M  V30 3223 C 301.278 -3.22848 1.59051 0
M  V30 3224 C 300.886 -3.23257 3.10176 0
M  V30 3225 C 302.63 -3.99379 1.43864 0
M  V30 3226 C 300.537 -4.61063 3.70372 0
M  V30 3227 H 299.467 -0.673349 0.33929 0
M  V30 3228 H 302.118 -1.21003 1.37951 0
M  V30 3229 H 300.5 -3.8168 1.0553 0
M  V30 3230 H 301.674 -2.74095 3.70417 0
M  V30 3231 H 299.989 -2.60222 3.25074 0
M  V30 3232 H 302.586 -5.0122 1.86232 0
M  V30 3233 H 302.929 -4.14511 0.385564 0
M  V30 3234 H 303.462 -3.47032 1.94457 0
M  V30 3235 H 300.201 -4.51135 4.7556 0
M  V30 3236 H 299.721 -5.1048 3.14913 0
M  V30 3237 H 301.4 -5.30034 3.71043 0
M  V30 3238 N 301.532 -0.945985 -1.26051 0
M  V30 3239 C 302.778 -0.597002 -1.93814 0
M  V30 3240 C 303.111 0.862484 -1.73997 0
M  V30 3241 O 302.386 1.61769 -1.07986 0
M  V30 3242 C 302.669 -0.945937 -3.47454 0
M  V30 3243 C 302.522 -2.46052 -3.76535 0
M  V30 3244 C 303.841 -0.464785 -4.37639 0
M  V30 3245 H 300.96 -0.218366 -0.703907 0
M  V30 3246 H 303.602 -1.18107 -1.48831 0
M  V30 3247 H 301.752 -0.448902 -3.85898 0
M  V30 3248 H 303.424 -3.03065 -3.47778 0
M  V30 3249 H 301.667 -2.90194 -3.22444 0
M  V30 3250 H 302.338 -2.65517 -4.83947 0
M  V30 3251 H 304.814 -0.891016 -4.06448 0
M  V30 3252 H 303.69 -0.737712 -5.4392 0
M  V30 3253 H 303.951 0.635274 -4.37512 0
M  V30 3254 N 303.011 1.40521 -0.713556 0
M  V30 3255 C 303.921 2.34522 -0.0606667 0
M  V30 3256 C 304.937 1.57193 0.74607 0
M  V30 3257 O 306.113 1.89591 0.679493 0
M  V30 3258 C 303.178 3.36081 0.851491 0
M  V30 3259 C 302.239 4.29286 0.0349339 0
M  V30 3260 C 301.472 5.25994 0.903649 0
M  V30 3261 O 301.695 5.28616 2.14292 0
M  V30 3262 O 300.629 6.00918 0.343723 0
M  V30 3263 H 304.455 2.91968 -0.835972 0
M  V30 3264 H 302.04 1.41681 -0.47402 0
M  V30 3265 H 303.922 3.98369 1.37404 0
M  V30 3266 H 302.597 2.81052 1.60598 0
M  V30 3267 H 301.504 3.70289 -0.532633 0
M  V30 3268 H 302.837 4.87462 -0.681287 0
M  V30 3269 N 304.489 0.459591 1.5075 0
M  V30 3270 C 305.452 -0.329093 2.26825 0
M  V30 3271 C 306.452 -0.930481 1.31144 0
M  V30 3272 O 307.642 -0.801453 1.54669 0
M  V30 3273 C 304.774 -1.46768 3.07688 0
M  V30 3274 H 305.967 0.337924 2.9799 0
M  V30 3275 H 303.52 0.213336 1.54837 0
M  V30 3276 H 304.255 -2.17009 2.40993 0
M  V30 3277 H 304.04 -1.04238 3.77991 0
M  V30 3278 H 305.53 -2.02433 3.65254 0
M  V30 3279 N 305.967 -1.56429 0.191757 0
M  V30 3280 C 307.197 -2.01574 -0.452928 0
M  V30 3281 C 307.605 -1.07107 -1.55964 0
M  V30 3282 O 306.948 -0.067534 -1.83576 0
M  V30 3283 C 307.01 -3.43121 -1.07278 0
M  V30 3284 C 306.674 -4.56879 -0.105214 0
M  V30 3285 C 307.671 -5.15379 0.684149 0
M  V30 3286 C 305.356 -5.023 0.00489824 0
M  V30 3287 C 307.35 -6.17746 1.57062 0
M  V30 3288 C 305.037 -6.04511 0.894935 0
M  V30 3289 C 306.035 -6.62108 1.67637 0
M  V30 3290 O 305.723 -7.62335 2.55149 0
M  V30 3291 H 305.455 -0.665554 -0.118379 0
M  V30 3292 H 308.009 -2.03245 0.296737 0
M  V30 3293 H 306.239 -3.38425 -1.87097 0
M  V30 3294 H 307.928 -3.72093 -1.62177 0
M  V30 3295 H 308.694 -4.81157 0.609365 0
M  V30 3296 H 304.573 -4.57168 -0.593156 0
M  V30 3297 H 308.117 -6.6263 2.181 0
M  V30 3298 H 304.014 -6.38157 0.970847 0
M  V30 3299 H 304.782 -7.79741 2.48892 0
M  V30 3300 N 307.445 0.0818655 -1.57387 0
M  V30 3301 C 308.377 1.12484 -1.997 0
M  V30 3302 C 309.39 1.35564 -0.90146 0
M  V30 3303 O 310.579 1.33982 -1.17945 0
M  V30 3304 C 307.679 2.47778 -2.31213 0
M  V30 3305 C 306.852 2.44793 -3.62485 0
M  V30 3306 C 305.911 3.62117 -3.81782 0
M  V30 3307 O 304.937 3.44005 -4.53486 0
M  V30 3308 N 306.139 4.82094 -3.23367 0
M  V30 3309 H 308.904 0.764585 -2.89783 0
M  V30 3310 H 306.465 0.270664 -1.59621 0
M  V30 3311 H 308.457 3.24891 -2.41304 0
M  V30 3312 H 307.027 2.75843 -1.4707 0
M  V30 3313 H 306.247 1.53134 -3.6324 0
M  V30 3314 H 307.535 2.39889 -4.48699 0
M  V30 3315 H 306.933 4.99713 -2.65148 0
M  V30 3316 H 305.49 5.56753 -3.38923 0
M  V30 3317 N 308.923 1.53595 0.353017 0
M  V30 3318 C 309.886 1.80232 1.41594 0
M  V30 3319 C 310.886 0.673081 1.46035 0
M  V30 3320 O 312.076 0.941335 1.46576 0
M  V30 3321 C 309.208 1.93578 2.80607 0
M  V30 3322 H 310.401 2.75174 1.19244 0
M  V30 3323 H 307.954 1.44864 0.586872 0
M  V30 3324 H 308.689 1.00746 3.08254 0
M  V30 3325 H 308.474 2.75724 2.78781 0
M  V30 3326 H 309.964 2.15735 3.57558 0
M  V30 3327 N 310.401 -0.613514 1.45168 0
M  V30 3328 C 311.331 -1.7354 1.56225 0
M  V30 3329 C 312.312 -1.64981 0.41414 0
M  V30 3330 O 313.497 -1.83472 0.636526 0
M  V30 3331 C 310.627 -3.12128 1.52295 0
M  V30 3332 C 309.581 -3.35491 2.65762 0
M  V30 3333 C 308.907 -4.74291 2.46885 0
M  V30 3334 C 310.207 -3.26325 4.0781 0
M  V30 3335 H 311.901 -1.64543 2.50132 0
M  V30 3336 H 309.447 -0.790185 1.20383 0
M  V30 3337 H 311.4 -3.90404 1.58628 0
M  V30 3338 H 310.124 -3.2195 0.549139 0
M  V30 3339 H 308.783 -2.59603 2.58847 0
M  V30 3340 H 308.431 -4.80839 1.47657 0
M  V30 3341 H 308.131 -4.9088 3.22972 0
M  V30 3342 H 309.655 -5.54775 2.55063 0
M  V30 3343 H 311.069 -3.94483 4.16 0
M  V30 3344 H 309.466 -3.54445 4.8424 0
M  V30 3345 H 310.536 -2.23855 4.30136 0
M  V30 3346 N 311.879 -1.3236 -0.855495 0
M  V30 3347 C 313.128 -1.22226 -1.60448 0
M  V30 3348 C 313.441 0.214733 -1.94418 0
M  V30 3349 O 314.647 0.437917 -2.67945 0
M  V30 3350 C 313.103 -2.14063 -2.89318 0
M  V30 3351 C 312.711 -3.62839 -2.62777 0
M  V30 3352 C 314.455 -2.12764 -3.67331 0
M  V30 3353 C 312.362 -4.4664 -3.87643 0
M  V30 3354 H 311.292 -0.453904 -0.602069 0
M  V30 3355 H 313.943 -1.57314 -0.944698 0
M  V30 3356 H 312.325 -1.71889 -3.5675 0
M  V30 3357 H 313.499 -4.1335 -2.03662 0
M  V30 3358 H 311.814 -3.66261 -1.98096 0
M  V30 3359 H 314.411 -2.72611 -4.59987 0
M  V30 3360 H 314.754 -1.11841 -4.00995 0
M  V30 3361 H 315.287 -2.53214 -3.06802 0
M  V30 3362 H 312.026 -5.48373 -3.5912 0
M  V30 3363 H 311.546 -4.0088 -4.46156 0
M  V30 3364 H 313.225 -4.59597 -4.55389 0
M  V30 3365 N 313.357 1.07166 -1.15556 0
M  V30 3366 C 314.773 1.31899 -0.898603 0
M  V30 3367 C 314.973 1.96333 0.453383 0
M  V30 3368 O 314.029 2.22438 1.19489 0
M  V30 3369 C 315.342 2.20826 -2.04099 0
M  V30 3370 C 316.89 2.34269 -2.07574 0
M  V30 3371 C 317.365 3.26546 -3.21141 0
M  V30 3372 N 318.856 3.34127 -3.20801 0
M  V30 3373 C 319.591 4.05595 -4.05315 0
M  V30 3374 N 319.087 4.79661 -4.99897 0
M  V30 3375 N 320.88 4.01555 -3.93332 0
M  V30 3376 H 313.031 0.637302 -2.02613 0
M  V30 3377 H 315.294 0.343468 -0.883591 0
M  V30 3378 H 315 1.80744 -3.01703 0
M  V30 3379 H 314.874 3.21364 -1.97496 0
M  V30 3380 H 317.261 2.73603 -1.10568 0
M  V30 3381 H 317.342 1.33429 -2.18244 0
M  V30 3382 H 316.986 2.87931 -4.184 0
M  V30 3383 H 316.916 4.27345 -3.07708 0
M  V30 3384 H 319.407 2.81336 -2.52306 0
M  V30 3385 H 319.72 5.31694 -5.60822 0
M  V30 3386 H 318.065 4.78671 -5.03884 0
M  V30 3387 H 321.256 3.42806 -3.18751 0
M  V30 3388 H 321.429 4.56987 -4.5942 0
M  V30 3389 N 314.835 0.952656 1.25548 0
M  V30 3390 C 316.112 0.523818 1.88456 0
M  V30 3391 C 316.492 -0.998871 1.85973 0
M  V30 3392 O 315.84 -1.86381 1.3219 0
M  V30 3393 C 316.05 1.0982 3.31271 0
M  V30 3394 C 317.398 1.17385 4.08051 0
M  V30 3395 O 318.422 1.04961 3.40384 0
M  V30 3396 O 317.281 1.36852 5.29088 0
M  V30 3397 H 314.375 0.172485 0.808813 0
M  V30 3398 H 316.921 1.04596 1.33633 0
M  V30 3399 H 315.693 2.1415 3.27499 0
M  V30 3400 H 315.316 0.559191 3.93648 0
M  V30 3401 N 316.313 -1.40141 0.720998 0
M  V30 3402 C 317.56 -2.00787 0.262842 0
M  V30 3403 C 317.888 -1.5718 -1.14563 0
M  V30 3404 O 317.143 -0.785391 -1.79249 0
M  V30 3405 C 317.442 -3.56165 0.296892 0
M  V30 3406 C 317.108 -4.19373 1.65641 0
M  V30 3407 C 315.77 -4.36352 2.02855 0
M  V30 3408 C 318.122 -4.54578 2.54968 0
M  V30 3409 C 315.45 -4.8582 3.28931 0
M  V30 3410 C 317.802 -5.05447 3.80402 0
M  V30 3411 C 316.466 -5.20635 4.17726 0
M  V30 3412 H 315.736 -0.734731 0.0961807 0
M  V30 3413 H 318.383 -1.67673 0.925093 0
M  V30 3414 H 316.688 -3.8922 -0.448932 0
M  V30 3415 H 318.385 -4.00929 -0.0755208 0
M  V30 3416 H 314.975 -4.06549 1.35704 0
M  V30 3417 H 319.159 -4.41091 2.27491 0
M  V30 3418 H 314.415 -4.95764 3.57811 0
M  V30 3419 H 318.589 -5.31663 4.49786 0
M  V30 3420 H 316.216 -5.58728 5.15487 0
M  V30 3421 N 317.792 -0.46758 -1.50504 0
M  V30 3422 C 318.722 0.318381 -2.31319 0
M  V30 3423 C 319.703 0.993564 -1.38066 0
M  V30 3424 O 320.888 0.991411 -1.66987 0
M  V30 3425 C 318.018 1.40275 -3.17711 0
M  V30 3426 C 316.972 0.849373 -4.19487 0
M  V30 3427 C 316.298 2.03177 -4.94594 0
M  V30 3428 C 317.598 -0.136942 -5.2212 0
M  V30 3429 H 319.292 -0.356106 -2.97275 0
M  V30 3430 H 316.838 -0.172703 -1.42961 0
M  V30 3431 H 318.791 1.96004 -3.73042 0
M  V30 3432 H 317.515 2.10596 -2.49634 0
M  V30 3433 H 316.174 0.314076 -3.65252 0
M  V30 3434 H 315.822 2.72187 -4.22993 0
M  V30 3435 H 315.522 1.66774 -5.63436 0
M  V30 3436 H 317.046 2.59403 -5.52759 0
M  V30 3437 H 318.46 0.331056 -5.72343 0
M  V30 3438 H 316.857 -0.41507 -5.98663 0
M  V30 3439 H 317.927 -1.06398 -4.73083 0
M  V30 3440 N 319.27 1.56325 -0.20005 0
M  V30 3441 C 320.681 1.8408 0.31167 0
M  V30 3442 C 321.032 1.12087 1.61031 0
M  V30 3443 O 320.157 0.38332 2.12978 0
M  V30 3444 C 320.752 3.33932 0.57226 0
M  V30 3445 C 319.311 3.6208 1.02834 0
M  V30 3446 C 318.458 2.77186 0.079634 0
M  V30 3447 H 321.409 1.52939 -0.423729 0
M  V30 3448 H 321.43 3.52971 1.42096 0
M  V30 3449 H 320.942 3.86303 -0.37308 0
M  V30 3450 H 319.043 3.15147 1.98778 0
M  V30 3451 H 319.156 4.7023 0.917624 0
M  V30 3452 H 317.52 2.47951 0.582448 0
M  V30 3453 H 318.303 3.32347 -0.860238 0
M  V30 3454 N 320.748 -0.0735177 1.57428 0
M  V30 3455 C 321.68 -1.11423 2.00294 0
M  V30 3456 C 322.693 -1.35084 0.908637 0
M  V30 3457 O 323.882 -1.33355 1.18654 0
M  V30 3458 C 320.982 -2.46548 2.32523 0
M  V30 3459 C 320.155 -2.42867 3.63778 0
M  V30 3460 C 319.214 -3.60087 3.83697 0
M  V30 3461 O 318.24 -3.41595 4.55304 0
M  V30 3462 N 319.442 -4.80372 3.25919 0
M  V30 3463 H 322.207 -0.749206 2.90184 0
M  V30 3464 H 319.768 -0.262195 1.59763 0
M  V30 3465 H 321.76 -3.23607 2.43024 0
M  V30 3466 H 320.33 -2.75059 1.48531 0
M  V30 3467 H 319.55 -1.51206 3.64047 0
M  V30 3468 H 320.838 -2.37506 4.49965 0
M  V30 3469 H 320.236 -4.983 2.67795 0
M  V30 3470 H 318.793 -5.54948 3.41871 0
M  V30 3471 N 322.226 -1.5378 -0.344866 0
M  V30 3472 C 323.136 -1.84667 -1.4469 0
M  V30 3473 C 324.152 -0.736704 -1.57635 0
M  V30 3474 O 325.328 -1.02888 -1.73136 0
M  V30 3475 C 322.393 -2.04869 -2.79696 0
M  V30 3476 C 321.454 -3.28731 -2.76106 0
M  V30 3477 C 320.687 -3.4796 -4.04673 0
M  V30 3478 O 320.91 -2.71052 -5.01883 0
M  V30 3479 O 319.844 -4.41383 -4.09224 0
M  V30 3480 H 323.67 -2.78334 -1.21506 0
M  V30 3481 H 321.255 -1.39418 -0.536921 0
M  V30 3482 H 323.137 -2.19609 -3.59652 0
M  V30 3483 H 321.812 -1.14391 -3.02814 0
M  V30 3484 H 320.719 -3.19396 -1.94774 0
M  V30 3485 H 322.052 -4.19198 -2.57941 0
M  V30 3486 N 323.704 0.605807 -1.45491 0
M  V30 3487 C 325.12 0.926751 -1.29936 0
M  V30 3488 C 325.32 1.99896 -0.253706 0
M  V30 3489 O 324.376 2.50038 0.351737 0
M  V30 3490 C 325.689 1.36599 -2.67883 0
M  V30 3491 C 327.237 1.4801 -2.75793 0
M  V30 3492 C 327.712 1.95309 -4.14268 0
M  V30 3493 N 329.203 2.0254 -4.16571 0
M  V30 3494 C 329.938 2.40363 -5.20589 0
M  V30 3495 N 329.434 2.77143 -6.34952 0
M  V30 3496 N 331.227 2.40718 -5.07948 0
M  V30 3497 H 323.378 -0.102862 -2.12151 0
M  V30 3498 H 325.641 0.016639 -0.947854 0
M  V30 3499 H 325.347 0.652306 -3.45598 0
M  V30 3500 H 325.221 2.33215 -2.96463 0
M  V30 3501 H 327.608 2.1847 -1.98381 0
M  V30 3502 H 327.689 0.497041 -2.50925 0
M  V30 3503 H 327.333 1.25436 -4.92167 0
M  V30 3504 H 327.263 2.94532 -4.3653 0
M  V30 3505 H 329.754 1.76699 -3.34045 0
M  V30 3506 H 330.067 3.0489 -7.10114 0
M  V30 3507 H 328.412 2.74834 -6.3835 0
M  V30 3508 H 331.603 2.11392 -4.1765 0
M  V30 3509 H 331.776 2.69869 -5.89131 0
M  V30 3510 N 325.182 1.32811 0.848464 0
M  V30 3511 C 326.428 1.23907 1.60546 0
M  V30 3512 C 326.761 -0.197161 1.93197 0
M  V30 3513 O 326.036 -1.13596 1.5788 0
M  V30 3514 C 326.319 2.10489 2.92175 0
M  V30 3515 C 326.172 3.62522 2.66266 0
M  V30 3516 C 327.491 1.97075 3.93509 0
M  V30 3517 H 324.61 0.451459 0.58254 0
M  V30 3518 H 327.252 1.62818 0.979296 0
M  V30 3519 H 325.402 1.77434 3.45614 0
M  V30 3520 H 327.074 4.05821 2.19334 0
M  V30 3521 H 325.317 3.84879 2.00126 0
M  V30 3522 H 325.988 4.18437 3.6002 0
M  V30 3523 H 328.464 2.26045 3.49346 0
M  V30 3524 H 327.34 2.59923 4.83457 0
M  V30 3525 H 327.601 0.940186 4.31987 0
M  V30 3526 N 326.66 -1.06551 1.16123 0
M  V30 3527 C 327.623 -2.12132 0.867906 0
M  V30 3528 C 328.623 -1.60224 -0.135944 0
M  V30 3529 O 329.813 -1.73943 0.0946422 0
M  V30 3530 C 326.945 -3.396 0.297419 0
M  V30 3531 H 328.138 -2.39586 1.80385 0
M  V30 3532 H 325.691 -1.22574 0.969812 0
M  V30 3533 H 326.426 -3.17794 -0.64633 0
M  V30 3534 H 326.211 -3.78581 1.02073 0
M  V30 3535 H 327.701 -4.17455 0.110052 0
M  V30 3536 N 328.138 -0.959301 -1.25041 0
M  V30 3537 C 329.385 -0.616611 -1.92884 0
M  V30 3538 C 329.713 0.847036 -1.75087 0
M  V30 3539 O 328.968 1.62374 -1.09239 0
M  V30 3540 C 329.267 -0.927136 -3.45165 0
M  V30 3541 C 328.933 -2.37757 -3.83122 0
M  V30 3542 C 327.595 -2.77402 -3.93194 0
M  V30 3543 C 329.947 -3.31929 -4.01836 0
M  V30 3544 C 327.275 -4.10277 -4.19392 0
M  V30 3545 C 329.627 -4.64423 -4.29528 0
M  V30 3546 C 328.291 -5.03857 -4.37818 0
M  V30 3547 H 327.561 -0.225634 -0.705812 0
M  V30 3548 H 330.208 -1.20921 -1.48493 0
M  V30 3549 H 328.513 -0.252195 -3.90987 0
M  V30 3550 H 330.21 -0.6405 -3.95852 0
M  V30 3551 H 326.8 -2.06013 -3.75841 0
M  V30 3552 H 330.984 -3.02488 -3.93465 0
M  V30 3553 H 326.24 -4.40467 -4.24027 0
M  V30 3554 H 330.414 -5.37369 -4.42953 0
M  V30 3555 H 328.041 -6.06843 -4.57871 0
M  V30 3556 N 329.616 1.39756 -0.72842 0
M  V30 3557 C 330.863 2.00645 -0.273487 0
M  V30 3558 C 331.191 1.57786 1.13727 0
M  V30 3559 O 330.446 0.794886 1.7883 0
M  V30 3560 C 330.745 3.56002 -0.315776 0
M  V30 3561 C 330.411 4.18489 -1.67863 0
M  V30 3562 C 329.073 4.3527 -2.05166 0
M  V30 3563 C 331.425 4.53219 -2.57375 0
M  V30 3564 C 328.753 4.84069 -3.31503 0
M  V30 3565 C 331.105 5.03423 -3.83077 0
M  V30 3566 C 329.769 5.18413 -4.20481 0
M  V30 3567 H 329.039 0.734211 -0.100076 0
M  V30 3568 H 331.686 1.6718 -0.933972 0
M  V30 3569 H 329.991 3.89452 0.428285 0
M  V30 3570 H 331.688 4.00963 0.0542575 0
M  V30 3571 H 328.278 4.05824 -1.37858 0
M  V30 3572 H 332.462 4.39878 -2.29827 0
M  V30 3573 H 327.718 4.93859 -3.60435 0
M  V30 3574 H 331.892 5.2927 -4.52599 0
M  V30 3575 H 329.519 5.55987 -5.18443 0
M  V30 3576 N 331.094 0.475555 1.50254 0
M  V30 3577 C 332.342 -0.077738 2.0195 0
M  V30 3578 C 332.663 -1.39813 1.35931 0
M  V30 3579 O 331.933 -1.89249 0.506123 0
M  V30 3580 H 330.513 -0.031719 0.746326 0
M  V30 3581 H 333.175 0.626995 1.84539 0
M  V30 3582 H 332.271 -0.225995 3.11281 0
M  V30 3583 N 332.573 -1.56217 0.208337 0
M  V30 3584 C 333.503 -2.22694 -0.702116 0
M  V30 3585 C 334.484 -1.19432 -1.2112 0
M  V30 3586 O 335.669 -1.47978 -1.25762 0
M  V30 3587 C 332.799 -2.8966 -1.9161 0
M  V30 3588 C 331.753 -3.9928 -1.5414 0
M  V30 3589 C 331.079 -4.53476 -2.83308 0
M  V30 3590 C 332.379 -5.17012 -0.741339 0
M  V30 3591 H 334.073 -2.99034 -0.147898 0
M  V30 3592 H 331.619 -1.43831 -0.0696951 0
M  V30 3593 H 333.572 -3.34852 -2.55836 0
M  V30 3594 H 332.296 -2.10746 -2.49507 0
M  V30 3595 H 330.955 -3.54799 -0.922668 0
M  V30 3596 H 330.603 -3.71308 -3.39322 0
M  V30 3597 H 330.303 -5.27451 -2.58976 0
M  V30 3598 H 331.827 -5.01378 -3.485 0
M  V30 3599 H 333.241 -5.58667 -1.28699 0
M  V30 3600 H 331.638 -5.97137 -0.595627 0
M  V30 3601 H 332.708 -4.8423 0.254851 0
M  V30 3602 N 334.051 0.0651679 -1.57465 0
M  V30 3603 C 335.014 1.06117 -2.03155 0
M  V30 3604 C 336.014 1.31204 -0.929632 0
M  V30 3605 O 337.204 1.26813 -1.19432 0
M  V30 3606 C 334.336 2.4032 -2.41783 0
M  V30 3607 H 335.529 0.667231 -2.92383 0
M  V30 3608 H 333.082 0.311075 -1.53173 0
M  V30 3609 H 333.817 2.84532 -1.55601 0
M  V30 3610 H 333.602 2.23451 -3.22199 0
M  V30 3611 H 335.092 3.11898 -2.77685 0
M  V30 3612 N 335.529 1.53961 0.336706 0
M  V30 3613 C 336.757 1.75483 1.09605 0
M  V30 3614 C 337.172 0.4972 1.82136 0
M  V30 3615 O 336.529 -0.53149 1.74589 0
M  V30 3616 C 336.58 2.93943 2.10428 0
M  V30 3617 O 336.301 4.14842 1.40846 0
M  V30 3618 C 337.802 3.27571 2.98684 0
M  V30 3619 H 335.022 0.586166 0.326574 0
M  V30 3620 H 337.566 2.00808 0.38683 0
M  V30 3621 H 335.721 2.70929 2.76905 0
M  V30 3622 H 336.135 4.81383 2.08255 0
M  V30 3623 H 337.609 4.13791 3.6535 0
M  V30 3624 H 338.086 2.44168 3.65074 0
M  V30 3625 H 338.692 3.52615 2.37787 0
M  V30 3626 N 337.007 -0.598083 1.45811 0
M  V30 3627 C 338.418 -1.18011 1.44673 0
M  V30 3628 C 338.769 -1.95378 0.179364 0
M  V30 3629 O 337.894 -2.04124 -0.718509 0
M  V30 3630 C 338.489 -2.14677 2.62105 0
M  V30 3631 C 337.048 -2.68236 2.64057 0
M  V30 3632 C 336.195 -1.43816 2.37091 0
M  V30 3633 H 339.146 -0.38686 1.53913 0
M  V30 3634 H 339.167 -2.97878 2.36746 0
M  V30 3635 H 338.679 -1.5834 3.5433 0
M  V30 3636 H 336.78 -3.28486 1.75864 0
M  V30 3637 H 336.893 -3.12021 3.63566 0
M  V30 3638 H 335.257 -1.731 1.86838 0
M  V30 3639 H 336.04 -0.893333 3.31473 0
M  V30 3640 N 338.485 -1.33259 -0.841409 0
M  V30 3641 C 339.418 -1.1764 -1.95541 0
M  V30 3642 C 340.396 -0.072501 -1.62438 0
M  V30 3643 O 341.58 -0.23427 -1.87039 0
M  V30 3644 C 338.707 -0.803794 -3.29024 0
M  V30 3645 C 337.753 -1.91482 -3.81099 0
M  V30 3646 S 338.586 -3.52538 -4.03085 0
M  V30 3647 C 339.742 -3.17279 -5.39523 0
M  V30 3648 H 339.975 -2.11941 -2.08491 0
M  V30 3649 H 337.508 -1.18072 -0.9949 0
M  V30 3650 H 339.466 -0.595592 -4.06156 0
M  V30 3651 H 338.127 0.120574 -3.13868 0
M  V30 3652 H 337.32 -1.60742 -4.7768 0
M  V30 3653 H 336.922 -2.07956 -3.10854 0
M  V30 3654 H 339.214 -2.67946 -6.22263 0
M  V30 3655 H 340.157 -4.1293 -5.75234 0
M  V30 3656 H 340.565 -2.53943 -5.04156 0
M  V30 3657 N 339.963 1.05934 -1.16686 0
M  V30 3658 C 341.379 1.30938 -0.912542 0
M  V30 3659 C 341.579 1.96803 0.432533 0
M  V30 3660 O 340.635 2.23693 1.17123 0
M  V30 3661 C 341.948 2.18649 -2.06429 0
M  V30 3662 C 343.496 2.32055 -2.10047 0
M  V30 3663 C 343.971 3.23122 -3.24586 0
M  V30 3664 N 345.462 3.30706 -3.24327 0
M  V30 3665 C 346.197 4.01273 -4.09594 0
M  V30 3666 N 345.693 4.74332 -5.04956 0
M  V30 3667 N 347.486 3.97361 -3.97569 0
M  V30 3668 H 339.637 0.615777 -2.03278 0
M  V30 3669 H 341.9 0.334077 -0.887185 0
M  V30 3670 H 341.606 1.77534 -3.03603 0
M  V30 3671 H 341.48 3.19252 -2.00894 0
M  V30 3672 H 343.867 2.72415 -1.13464 0
M  V30 3673 H 343.948 1.31107 -2.19647 0
M  V30 3674 H 343.592 2.83477 -4.2143 0
M  V30 3675 H 343.522 4.24057 -3.12223 0
M  V30 3676 H 346.013 2.78644 -2.55276 0
M  V30 3677 H 346.326 5.25716 -5.6643 0
M  V30 3678 H 344.671 4.733 -5.08933 0
M  V30 3679 H 347.862 3.39405 -3.22369 0
M  V30 3680 H 348.035 4.52089 -4.64241 0
M  V30 3681 N 341.441 0.965919 1.2453 0
M  V30 3682 C 342.671 0.643451 1.96324 0
M  V30 3683 C 343.079 -0.790927 1.71875 0
M  V30 3684 O 342.422 -1.54208 0.998273 0
M  V30 3685 C 342.484 0.836078 3.49643 0
M  V30 3686 C 342.148 2.24975 3.97788 0
M  V30 3687 C 343.145 3.22735 4.07601 0
M  V30 3688 C 340.83 2.57697 4.31158 0
M  V30 3689 C 342.824 4.51303 4.50116 0
M  V30 3690 C 340.511 3.86492 4.73357 0
M  V30 3691 C 341.509 4.83107 4.828 0
M  V30 3692 O 341.197 6.09605 5.24058 0
M  V30 3693 H 340.929 0.239223 0.632257 0
M  V30 3694 H 343.483 1.29587 1.59362 0
M  V30 3695 H 341.713 0.12649 3.86493 0
M  V30 3696 H 343.402 0.512965 4.02646 0
M  V30 3697 H 344.168 2.98783 3.82039 0
M  V30 3698 H 340.047 1.83216 4.23028 0
M  V30 3699 H 343.591 5.26716 4.57401 0
M  V30 3700 H 339.488 4.10245 4.98366 0
M  V30 3701 H 340.256 6.13146 5.42213 0
M  V30 3702 N 342.919 -1.39368 0.735821 0
M  V30 3703 C 343.882 -2.2896 0.104874 0
M  V30 3704 C 344.882 -1.46347 -0.666274 0
M  V30 3705 O 346.072 -1.67014 -0.49517 0
M  V30 3706 C 343.204 -3.29857 -0.860656 0
M  V30 3707 H 344.397 -2.86259 0.894205 0
M  V30 3708 H 341.95 -1.48029 0.501704 0
M  V30 3709 H 342.685 -2.77615 -1.67631 0
M  V30 3710 H 342.47 -3.9087 -0.310327 0
M  V30 3711 H 343.96 -3.96893 -1.29867 0
M  V30 3712 N 344.397 -0.483516 -1.5 0
M  V30 3713 C 345.645 0.067027 -2.01989 0
M  V30 3714 C 345.966 1.3909 -1.36671 0
M  V30 3715 O 345.236 1.88978 -0.516152 0
M  V30 3716 H 343.816 0.0277606 -0.746484 0
M  V30 3717 H 346.478 -0.636773 -1.84204 0
M  V30 3718 H 345.574 0.209484 -3.11396 0
M  V30 3719 N 345.875 1.56104 -0.216619 0
M  V30 3720 C 347.286 1.844 0.292128 0
M  V30 3721 C 347.637 1.13788 1.59833 0
M  V30 3722 O 346.762 0.405888 2.12559 0
M  V30 3723 C 347.357 3.3452 0.53681 0
M  V30 3724 C 345.916 3.63151 0.989876 0
M  V30 3725 C 345.063 2.77255 0.0502302 0
M  V30 3726 H 348.014 1.52481 -0.439926 0
M  V30 3727 H 348.035 3.54459 1.38345 0
M  V30 3728 H 347.547 3.85885 -0.414031 0
M  V30 3729 H 345.648 3.17238 1.95425 0
M  V30 3730 H 345.761 4.71177 0.867698 0
M  V30 3731 H 344.125 2.48555 0.556117 0
M  V30 3732 H 344.908 3.31416 -0.89544 0
M  V30 3733 N 347.353 -0.0568162 1.57498 0
M  V30 3734 C 348.3 -1.06591 2.04712 0
M  V30 3735 C 349.27 -1.3758 0.930644 0
M  V30 3736 O 350.455 -1.48392 1.19935 0
M  V30 3737 C 347.595 -2.3701 2.50839 0
M  V30 3738 C 346.708 -2.12421 3.76167 0
M  V30 3739 C 345.843 -3.36511 4.11015 0
M  V30 3740 C 344.882 -3.07353 5.2934 0
M  V30 3741 N 344.019 -4.23816 5.59754 0
M  V30 3742 H 348.859 -0.65631 2.90683 0
M  V30 3743 H 346.396 -0.312481 1.43743 0
M  V30 3744 H 348.354 -3.13175 2.7564 0
M  V30 3745 H 346.984 -2.75744 1.67825 0
M  V30 3746 H 346.036 -1.2688 3.58616 0
M  V30 3747 H 347.348 -1.86894 4.62463 0
M  V30 3748 H 346.502 -4.21062 4.36797 0
M  V30 3749 H 345.241 -3.65128 3.23315 0
M  V30 3750 H 344.246 -2.212 5.03339 0
M  V30 3751 H 345.471 -2.80043 6.1867 0
M  V30 3752 H 343.417 -4.52436 4.75014 0
M  V30 3753 H 343.334 -4.01614 6.40501 0
M  V30 3754 H 344.602 -5.0932 5.90096 0
M  V30 3755 N 348.832 -1.54138 -0.328536 0
M  V30 3756 C 349.742 -1.86192 -1.42723 0
M  V30 3757 C 350.758 -0.753382 -1.56844 0
M  V30 3758 O 351.934 -1.04718 -1.72035 0
M  V30 3759 C 348.999 -2.07824 -2.77507 0
M  V30 3760 C 348.06 -3.31641 -2.72603 0
M  V30 3761 C 347.293 -3.52232 -4.00959 0
M  V30 3762 O 347.516 -2.7636 -4.9898 0
M  V30 3763 O 346.45 -4.45699 -4.0452 0
M  V30 3764 H 350.276 -2.79608 -1.18547 0
M  V30 3765 H 347.861 -1.3998 -0.522104 0
M  V30 3766 H 349.743 -2.23411 -3.57303 0
M  V30 3767 H 348.418 -1.17596 -3.01584 0
M  V30 3768 H 347.325 -3.21444 -1.91376 0
M  V30 3769 H 348.658 -4.2191 -2.53481 0
M  V30 3770 N 350.31 0.590341 -1.46126 0
M  V30 3771 C 351.273 1.68194 -1.55703 0
M  V30 3772 C 352.273 1.54808 -0.434868 0
M  V30 3773 O 353.463 1.59564 -0.698928 0
M  V30 3774 C 350.595 3.07575 -1.47005 0
M  V30 3775 H 351.788 1.61064 -2.52979 0
M  V30 3776 H 349.341 0.807541 -1.33823 0
M  V30 3777 H 350.076 3.20268 -0.509785 0
M  V30 3778 H 349.861 3.187 -2.28414 0
M  V30 3779 H 351.351 3.87055 -1.56776 0
M  V30 3780 N 351.788 1.33704 0.83433 0
M  V30 3781 C 353.034 1.25603 1.59222 0
M  V30 3782 C 353.367 -0.176659 1.93395 0
M  V30 3783 O 352.642 -1.11915 1.59076 0
M  V30 3784 C 352.925 2.13576 2.89926 0
M  V30 3785 C 352.778 3.65326 2.62406 0
M  V30 3786 C 354.097 2.01238 3.91397 0
M  V30 3787 H 351.216 0.457613 0.577719 0
M  V30 3788 H 353.858 1.63848 0.961972 0
M  V30 3789 H 352.008 1.8109 3.43713 0
M  V30 3790 H 353.68 4.08124 2.15017 0
M  V30 3791 H 351.923 3.8698 1.96033 0
M  V30 3792 H 352.594 4.22232 3.55562 0
M  V30 3793 H 355.07 2.29738 3.46929 0
M  V30 3794 H 353.946 2.65036 4.80673 0
M  V30 3795 H 354.207 0.985951 4.30966 0
M  V30 3796 N 353.266 -1.05314 1.17247 0
M  V30 3797 C 354.513 -1.78293 0.960091 0
M  V30 3798 C 354.841 -1.87658 -0.51136 0
M  V30 3799 O 354.096 -1.3718 -1.39571 0
M  V30 3800 C 354.395 -3.2229 1.54479 0
M  V30 3801 C 354.061 -3.32987 3.04024 0
M  V30 3802 C 352.723 -3.35613 3.44844 0
M  V30 3803 C 355.075 -3.34102 4.00031 0
M  V30 3804 C 352.403 -3.36982 4.8027 0
M  V30 3805 C 354.755 -3.3701 5.35357 0
M  V30 3806 C 353.419 -3.37923 5.75642 0
M  V30 3807 H 352.689 -0.652422 0.351322 0
M  V30 3808 H 355.336 -1.23782 1.46117 0
M  V30 3809 H 353.641 -3.7972 0.965391 0
M  V30 3810 H 355.338 -3.77376 1.35603 0
M  V30 3811 H 351.928 -3.31655 2.71483 0
M  V30 3812 H 356.112 -3.31276 3.69554 0
M  V30 3813 H 351.368 -3.35999 5.10798 0
M  V30 3814 H 355.542 -3.36822 6.09528 0
M  V30 3815 H 353.169 -3.38738 6.80559 0
M  V30 3816 N 354.744 -0.972509 -1.24016 0
M  V30 3817 C 355.694 -0.477561 -2.22942 0
M  V30 3818 C 356.678 0.44308 -1.54679 0
M  V30 3819 O 357.87 0.273219 -1.74879 0
M  V30 3820 C 354.999 0.226348 -3.42553 0
M  V30 3821 C 354.085 -0.713403 -4.18057 0
M  V30 3822 N 354.476 -1.8527 -4.70647 0
M  V30 3823 C 352.774 -0.525145 -4.42898 0
M  V30 3824 C 353.475 -2.44089 -5.28011 0
M  V30 3825 N 352.451 -1.72556 -5.15486 0
M  V30 3826 H 356.253 -1.34678 -2.61226 0
M  V30 3827 H 353.767 -0.832196 -1.39457 0
M  V30 3828 H 355.764 0.598184 -4.12586 0
M  V30 3829 H 354.424 1.09195 -3.05788 0
M  V30 3830 H 355.435 -2.2341 -4.67235 0
M  V30 3831 H 352.112 0.296096 -4.16449 0
M  V30 3832 H 353.502 -3.40259 -5.79374 0
M  V30 3833 N 356.222 1.38976 -0.743202 0
M  V30 3834 C 357.185 2.28901 -0.117014 0
M  V30 3835 C 358.185 1.46698 0.658503 0
M  V30 3836 O 359.375 1.67274 0.486305 0
M  V30 3837 C 356.507 3.30309 0.84315 0
M  V30 3838 H 357.7 2.8578 -0.909373 0
M  V30 3839 H 355.253 1.47761 -0.509547 0
M  V30 3840 H 355.988 2.785 1.66157 0
M  V30 3841 H 355.773 3.91029 0.289594 0
M  V30 3842 H 357.263 3.97577 1.2776 0
M  V30 3843 N 357.7 0.491464 1.49741 0
M  V30 3844 C 358.63 -0.28154 2.31796 0
M  V30 3845 C 359.611 -0.971473 1.3963 0
M  V30 3846 O 360.796 -0.964719 1.68543 0
M  V30 3847 C 357.926 -1.35203 3.19902 0
M  V30 3848 C 356.88 -0.782529 4.20786 0
M  V30 3849 C 356.206 -1.95283 4.97764 0
M  V30 3850 C 357.506 0.21999 5.21837 0
M  V30 3851 H 359.2 0.403355 2.96671 0
M  V30 3852 H 356.746 0.195425 1.42668 0
M  V30 3853 H 358.699 -1.90045 3.76113 0
M  V30 3854 H 357.423 -2.06598 2.52953 0
M  V30 3855 H 356.082 -0.255928 3.65706 0
M  V30 3856 H 355.73 -2.65423 4.2727 0
M  V30 3857 H 355.43 -1.57789 5.66018 0
M  V30 3858 H 356.954 -2.50577 5.56816 0
M  V30 3859 H 358.368 -0.23996 5.72798 0
M  V30 3860 H 356.765 0.51026 5.97927 0
M  V30 3861 H 357.835 1.13911 4.7133 0
M  V30 3862 N 359.178 -1.55987 0.224894 0
M  V30 3863 C 360.424 -1.98684 -0.406502 0
M  V30 3864 C 360.757 -1.11248 -1.59177 0
M  V30 3865 O 360.032 -0.170909 -1.93748 0
M  V30 3866 C 360.315 -3.50218 -0.837808 0
M  V30 3867 C 360.168 -4.48426 0.351332 0
M  V30 3868 C 361.487 -4.06243 -1.69278 0
M  V30 3869 H 358.606 -0.722337 -0.146283 0
M  V30 3870 H 361.248 -1.87255 0.321799 0
M  V30 3871 H 359.398 -3.60089 -1.45837 0
M  V30 3872 H 361.07 -4.50562 0.989526 0
M  V30 3873 H 359.313 -4.22159 0.998207 0
M  V30 3874 H 359.984 -5.52 0.00655905 0
M  V30 3875 H 362.46 -3.99337 -1.16914 0
M  V30 3876 H 361.336 -5.12581 -1.96346 0
M  V30 3877 H 361.597 -3.53332 -2.65723 0
M  V30 3878 N 360.656 0.0484629 -1.57525 0
M  V30 3879 C 362.072 0.40375 -1.54409 0
M  V30 3880 C 362.272 1.77786 -0.948384 0
M  V30 3881 O 361.328 2.46189 -0.560983 0
M  V30 3882 C 362.641 0.323394 -2.98956 0
M  V30 3883 C 364.189 0.401892 -3.10409 0
M  V30 3884 C 364.664 0.351195 -4.56652 0
M  V30 3885 N 366.155 0.410576 -4.61377 0
M  V30 3886 C 366.89 0.393933 -5.72045 0
M  V30 3887 N 366.386 0.330724 -6.9201 0
M  V30 3888 N 368.179 0.442227 -5.60358 0
M  V30 3889 H 360.33 -0.851016 -1.94606 0
M  V30 3890 H 362.593 -0.321721 -0.89174 0
M  V30 3891 H 362.299 -0.62011 -3.4619 0
M  V30 3892 H 362.173 1.12463 -3.60044 0
M  V30 3893 H 364.56 1.33582 -2.63134 0
M  V30 3894 H 364.641 -0.428342 -2.52188 0
M  V30 3895 H 364.285 -0.578987 -5.04589 0
M  V30 3896 H 364.215 1.19928 -5.12762 0
M  V30 3897 H 366.706 0.462729 -3.75056 0
M  V30 3898 H 367.019 0.322592 -7.72126 0
M  V30 3899 H 365.364 0.29706 -6.94365 0
M  V30 3900 H 368.555 0.489464 -4.65534 0
M  V30 3901 H 368.728 0.425788 -6.466 0
M  V30 3902 N 362.134 1.5431 0.320358 0
M  V30 3903 C 363.081 1.83918 1.39438 0
M  V30 3904 C 364.051 0.686525 1.51248 0
M  V30 3905 O 365.236 0.933269 1.66417 0
M  V30 3906 C 362.376 2.075 2.75749 0
M  V30 3907 C 361.489 3.35177 2.72544 0
M  V30 3908 C 360.624 3.48704 4.00723 0
M  V30 3909 C 359.663 4.70244 3.91838 0
M  V30 3910 N 358.8 4.80679 5.11754 0
M  V30 3911 H 363.64 2.75544 1.13489 0
M  V30 3912 H 361.177 1.36459 0.549309 0
M  V30 3913 H 363.135 2.19166 3.54996 0
M  V30 3914 H 361.765 1.19163 3 0
M  V30 3915 H 360.817 3.32233 1.85271 0
M  V30 3916 H 362.129 4.24534 2.61863 0
M  V30 3917 H 361.283 3.59928 4.88402 0
M  V30 3918 H 360.022 2.57445 4.14214 0
M  V30 3919 H 359.027 4.59072 3.02544 0
M  V30 3920 H 360.252 5.6289 3.7991 0
M  V30 3921 H 358.198 3.92337 5.25745 0
M  V30 3922 H 358.115 5.64007 5.0342 0
M  V30 3923 H 359.383 4.96239 6.01138 0
M  V30 3924 N 363.613 -0.582584 1.46437 0
M  V30 3925 C 364.561 -1.71272 1.5738 0
M  V30 3926 C 365.555 -1.63524 0.44229 0
M  V30 3927 O 366.761 -1.69016 0.619166 0
M  V30 3928 H 363.136 -0.566273 0.494813 0
M  V30 3929 H 365.107 -1.59174 2.52401 0
M  V30 3930 C 363.856 -3.09658 1.58136 0
M  V30 3931 H 363.179 -3.16291 2.44541 0
M  V30 3932 H 364.619 -3.88494 1.69847 0
M  V30 3933 C 363.078 -3.3547 0.310026 0
M  V30 3934 O 363.608 -3.97199 -0.599683 0
M  V30 3935 N 361.814 -2.89925 0.197901 0
M  V30 3936 H 361.361 -2.39873 0.93909 0
M  V30 3937 H 361.319 -3.07568 -0.65185 0
M  V30 3938 N 365.091 -1.34144 -0.827227 0
M  V30 3939 C 366.338 -1.26258 -1.58319 0
M  V30 3940 C 366.666 0.168595 -1.93768 0
M  V30 3941 O 365.921 1.12877 -1.59866 0
M  V30 3942 C 366.22 -2.09464 -2.89585 0
M  V30 3943 C 365.886 -3.58521 -2.73448 0
M  V30 3944 C 364.548 -3.99155 -2.68754 0
M  V30 3945 C 366.9 -4.53189 -2.57428 0
M  V30 3946 C 364.228 -5.32656 -2.45957 0
M  V30 3947 C 366.58 -5.86864 -2.36163 0
M  V30 3948 C 365.244 -6.26667 -2.29879 0
M  V30 3949 H 364.514 -0.462013 -0.579332 0
M  V30 3950 H 367.161 -1.65845 -0.95748 0
M  V30 3951 H 365.466 -1.62692 -3.56425 0
M  V30 3952 H 367.163 -2.00712 -3.47154 0
M  V30 3953 H 363.753 -3.26264 -2.77939 0
M  V30 3954 H 367.937 -4.22696 -2.60081 0
M  V30 3955 H 363.193 -5.62519 -2.39546 0
M  V30 3956 H 367.367 -6.59813 -2.22754 0
M  V30 3957 H 364.994 -7.30049 -2.11975 0
M  V30 3958 N 366.569 1.04691 -1.17803 0
M  V30 3959 C 367.817 1.7743 -0.967617 0
M  V30 3960 C 368.138 1.88359 0.504574 0
M  V30 3961 O 367.408 1.40402 1.36617 0
M  V30 3962 H 365.988 0.657242 -0.355024 0
M  V30 3963 H 368.65 1.2638 -1.48371 0
M  V30 3964 H 367.746 2.78924 -1.40027 0
M  V30 3965 N 368.047 0.979072 1.23499 0
M  V30 3966 C 369.01 0.523244 2.23147 0
M  V30 3967 C 370.01 -0.386406 1.56088 0
M  V30 3968 O 371.2 -0.180283 1.73265 0
M  V30 3969 C 368.332 -0.240739 3.40049 0
M  V30 3970 H 369.525 1.40432 2.64989 0
M  V30 3971 H 367.078 0.764824 1.36309 0
M  V30 3972 H 367.813 -1.13841 3.03662 0
M  V30 3973 H 367.598 0.412207 3.89927 0
M  V30 3974 H 369.088 -0.548297 4.13985 0
M  V30 3975 N 369.525 -1.3858 0.750561 0
M  V30 3976 C 370.753 -2.04471 0.316098 0
M  V30 3977 C 371.168 -1.56606 -1.05452 0
M  V30 3978 O 370.525 -0.737784 -1.66922 0
M  V30 3979 C 370.576 -3.60025 0.326275 0
M  V30 3980 O 370.297 -4.06133 1.6428 0
M  V30 3981 C 371.798 -4.43131 -0.122429 0
M  V30 3982 H 369.018 -0.65717 0.135528 0
M  V30 3983 H 371.562 -1.77329 1.01857 0
M  V30 3984 H 369.717 -3.86014 -0.327431 0
M  V30 3985 H 370.131 -5.00547 1.56693 0
M  V30 3986 H 371.605 -5.51963 -0.0641473 0
M  V30 3987 H 372.082 -4.23333 -1.16988 0
M  V30 3988 H 372.688 -4.22323 0.50229 0
M  V30 3989 N 371.003 -0.499398 -1.49478 0
M  V30 3990 C 371.953 0.299103 -2.2603 0
M  V30 3991 C 372.937 0.936934 -1.30807 0
M  V30 3992 O 374.129 0.844798 -1.55538 0
M  V30 3993 C 371.258 1.36391 -3.15044 0
M  V30 3994 C 370.344 0.732398 -4.17728 0
M  V30 3995 N 370.735 -0.164028 -5.05534 0
M  V30 3996 C 369.033 0.993162 -4.34801 0
M  V30 3997 C 369.734 -0.525345 -5.79323 0
M  V30 3998 N 368.71 0.106348 -5.43496 0
M  V30 3999 H 372.512 -0.391003 -2.91287 0
M  V30 4000 H 370.026 -0.31537 -1.59308 0
M  V30 4001 H 372.023 1.94939 -3.68516 0
M  V30 4002 H 370.683 2.05571 -2.51338 0
M  V30 4003 H 371.694 -0.534736 -5.15132 0
M  V30 4004 H 368.371 1.67783 -3.82302 0
M  V30 4005 H 369.761 -1.25862 -6.60006 0
M  V30 4006 N 372.481 1.55866 -0.233164 0
M  V30 4007 C 373.728 1.98603 0.395374 0
M  V30 4008 C 374.056 1.12105 1.58942 0
M  V30 4009 O 373.311 0.168656 1.94972 0
M  V30 4010 C 373.61 3.46856 0.861724 0
M  V30 4011 C 373.276 4.50348 -0.223066 0
M  V30 4012 C 371.938 4.78371 -0.521038 0
M  V30 4013 C 374.29 5.12355 -0.956124 0
M  V30 4014 C 371.618 5.6568 -1.55638 0
M  V30 4015 C 373.97 6.00786 -1.98089 0
M  V30 4016 C 372.634 6.27148 -2.28565 0
M  V30 4017 H 371.904 0.726739 0.144677 0
M  V30 4018 H 374.551 1.88491 -0.338114 0
M  V30 4019 H 372.856 3.5423 1.67418 0
M  V30 4020 H 374.553 3.77302 1.35809 0
M  V30 4021 H 371.143 4.28596 0.0193234 0
M  V30 4022 H 375.327 4.90765 -0.739166 0
M  V30 4023 H 370.583 5.84365 -1.798 0
M  V30 4024 H 374.757 6.4788 -2.55391 0
M  V30 4025 H 372.384 6.94597 -3.08932 0
M  V30 4026 N 373.959 -0.0401083 1.57549 0
M  V30 4027 C 374.889 -1.04384 2.08869 0
M  V30 4028 C 375.87 -1.38407 0.988817 0
M  V30 4029 O 377.055 -1.47483 1.26342 0
M  V30 4030 C 374.185 -2.34808 2.55895 0
M  V30 4031 C 373.139 -2.15057 3.70047 0
M  V30 4032 C 372.465 -3.51145 4.03239 0
M  V30 4033 C 373.765 -1.54576 4.98902 0
M  V30 4034 H 375.459 -0.616666 2.92981 0
M  V30 4035 H 373.005 -0.295184 1.40942 0
M  V30 4036 H 374.958 -3.05346 2.90417 0
M  V30 4037 H 373.682 -2.79565 1.68853 0
M  V30 4038 H 372.341 -1.46954 3.35857 0
M  V30 4039 H 371.989 -3.93529 3.13279 0
M  V30 4040 H 371.689 -3.38758 4.80122 0
M  V30 4041 H 373.213 -4.23062 4.40285 0
M  V30 4042 H 374.627 -2.15017 5.31451 0
M  V30 4043 H 373.024 -1.52796 5.80322 0
M  V30 4044 H 374.094 -0.51039 4.82206 0
M  V30 4045 N 375.437 -1.54477 -0.31217 0
M  V30 4046 C 376.683 -1.73483 -1.0503 0
M  V30 4047 C 377.016 -0.513125 -1.87298 0
M  V30 4048 O 376.291 0.489864 -1.8823 0
M  V30 4049 C 376.574 -3.01723 -1.96558 0
M  V30 4050 C 376.427 -4.3417 -1.17545 0
M  V30 4051 C 377.746 -3.25772 -2.95907 0
M  V30 4052 H 374.865 -0.631222 -0.380432 0
M  V30 4053 H 377.507 -1.87184 -0.325932 0
M  V30 4054 H 375.657 -2.90174 -2.58324 0
M  V30 4055 H 377.329 -4.5762 -0.581513 0
M  V30 4056 H 375.572 -4.31159 -0.477925 0
M  V30 4057 H 376.243 -5.20143 -1.84811 0
M  V30 4058 H 378.719 -3.36857 -2.44267 0
M  V30 4059 H 377.595 -4.16838 -3.57123 0
M  V30 4060 H 377.856 -2.43537 -3.68974 0
M  V30 4061 N 376.915 0.57481 -1.46744 0
M  V30 4062 C 378.163 1.33009 -1.52161 0
M  V30 4063 C 378.484 1.94185 -0.178092 0
M  V30 4064 O 377.754 1.7899 0.796196 0
M  V30 4065 H 376.334 0.493873 -0.560445 0
M  V30 4066 H 378.996 0.672589 -1.82927 0
M  V30 4067 H 378.092 2.13273 -2.27862 0
M  V30 4068 N 378.394 1.34581 0.820102 0
M  V30 4069 C 379.81 1.14325 1.11364 0
M  V30 4070 C 380.01 -0.0533648 2.01429 0
M  V30 4071 O 379.066 -0.728044 2.41776 0
M  V30 4072 C 380.379 2.43983 1.75764 0
M  V30 4073 C 381.927 2.50065 1.88246 0
M  V30 4074 C 382.402 3.79732 2.56061 0
M  V30 4075 N 383.893 3.80908 2.63558 0
M  V30 4076 C 384.628 4.77961 3.16766 0
M  V30 4077 N 384.124 5.85397 3.70517 0
M  V30 4078 N 385.917 4.65413 3.15194 0
M  V30 4079 H 378.068 2.11246 0.221096 0
M  V30 4080 H 380.331 0.934289 0.160649 0
M  V30 4081 H 380.037 3.31651 1.1705 0
M  V30 4082 H 379.911 2.57531 2.75604 0
M  V30 4083 H 382.298 1.62834 2.46108 0
M  V30 4084 H 382.379 2.40442 0.873006 0
M  V30 4085 H 382.023 4.67354 1.98853 0
M  V30 4086 H 381.953 3.86639 3.57516 0
M  V30 4087 H 384.444 3.03274 2.25463 0
M  V30 4088 H 384.757 6.55463 4.09376 0
M  V30 4089 H 383.102 5.89107 3.68752 0
M  V30 4090 H 386.293 3.80627 2.72471 0
M  V30 4091 H 386.466 5.41216 3.56356 0
M  V30 4092 N 379.872 -1.04064 1.18357 0
M  V30 4093 C 381.149 -1.74252 0.888581 0
M  V30 4094 C 381.529 -2.02138 -0.60856 0
M  V30 4095 O 380.877 -1.66656 -1.56327 0
M  V30 4096 C 381.087 -3.0277 1.73584 0
M  V30 4097 C 382.435 -3.76506 1.96286 0
M  V30 4098 O 383.459 -3.12668 1.70637 0
M  V30 4099 O 382.318 -4.91243 2.39464 0
M  V30 4100 H 379.412 -0.758271 0.330082 0
M  V30 4101 H 381.958 -1.1013 1.2911 0
M  V30 4102 H 380.73 -2.78299 2.75073 0
M  V30 4103 H 380.353 -3.74631 1.33183 0
M  V30 4104 N 381.35 -0.985608 -1.22978 0
M  V30 4105 C 382.3 -0.50118 -2.22423 0
M  V30 4106 C 383.284 0.426649 -1.5514 0
M  V30 4107 O 384.476 0.254656 -1.75159 0
M  V30 4108 C 381.605 0.190003 -3.42774 0
M  V30 4109 C 380.691 -0.757703 -4.17276 0
M  V30 4110 N 381.082 -1.90251 -4.68656 0
M  V30 4111 C 379.38 -0.57209 -4.42316 0
M  V30 4112 C 380.081 -2.49676 -5.25392 0
M  V30 4113 N 379.057 -1.78013 -5.13627 0
M  V30 4114 H 382.859 -1.37441 -2.59783 0
M  V30 4115 H 380.373 -0.846941 -1.38567 0
M  V30 4116 H 382.37 0.55439 -4.13197 0
M  V30 4117 H 381.03 1.05946 -3.06929 0
M  V30 4118 H 382.041 -2.28354 -4.64839 0
M  V30 4119 H 378.718 0.251909 -4.16739 0
M  V30 4120 H 380.108 -3.46384 -5.75732 0
M  V30 4121 N 382.828 1.3818 -0.7579 0
M  V30 4122 C 383.791 2.28764 -0.141286 0
M  V30 4123 C 384.791 1.47388 0.642907 0
M  V30 4124 O 385.981 1.67781 0.468536 0
M  V30 4125 C 383.113 3.31184 0.808069 0
M  V30 4126 H 384.306 2.848 -0.939633 0
M  V30 4127 H 381.859 1.47212 -0.525191 0
M  V30 4128 H 382.594 2.80247 1.63193 0
M  V30 4129 H 382.379 3.91314 0.248104 0
M  V30 4130 H 383.869 3.98909 1.23536 0
M  V30 4131 N 384.306 0.507319 1.49211 0
M  V30 4132 C 385.554 -0.0348839 2.0207 0
M  V30 4133 C 385.875 -1.36898 1.38866 0
M  V30 4134 O 385.145 -1.88133 0.546151 0
M  V30 4135 H 383.725 -0.0158812 0.746831 0
M  V30 4136 H 386.387 0.665998 1.83168 0
M  V30 4137 H 385.483 -0.159917 3.1169 0
M  V30 4138 N 385.784 -1.5574 0.241426 0
M  V30 4139 C 387.03 -1.99104 -0.385406 0
M  V30 4140 C 387.363 -1.1293 -1.57988 0
M  V30 4141 O 386.638 -0.191449 -1.93555 0
M  V30 4142 C 386.921 -3.51087 -0.800616 0
M  V30 4143 C 386.774 -4.48028 0.398874 0
M  V30 4144 C 388.093 -4.08015 -1.64959 0
M  V30 4145 H 385.212 -0.723848 -0.138614 0
M  V30 4146 H 387.854 -1.86903 0.341642 0
M  V30 4147 H 386.004 -3.61615 -1.4201 0
M  V30 4148 H 387.676 -4.49487 1.03726 0
M  V30 4149 H 385.919 -4.21077 1.04293 0
M  V30 4150 H 386.59 -5.51962 0.0651056 0
M  V30 4151 H 389.066 -4.00555 -1.12672 0
M  V30 4152 H 387.942 -5.14635 -1.90898 0
M  V30 4153 H 388.203 -3.56131 -2.61961 0
M  V30 4154 N 387.262 0.0317525 -1.57568 0
M  V30 4155 C 388.51 0.721676 -1.88776 0
M  V30 4156 C 388.831 1.76039 -0.838772 0
M  V30 4157 O 388.101 1.95482 0.127935 0
M  V30 4158 H 386.681 0.269534 -0.696678 0
M  V30 4159 H 389.343 -0.00165879 -1.949 0
M  V30 4160 H 388.439 1.21293 -2.87566 0
M  V30 4161 N 388.74 1.54641 0.303973 0
M  V30 4162 C 390.017 1.64455 1.05896 0
M  V30 4163 C 390.397 0.490923 2.05312 0
M  V30 4164 O 389.745 -0.512685 2.22674 0
M  V30 4165 C 389.955 3.02331 1.74347 0
M  V30 4166 C 391.303 3.59045 2.26653 0
M  V30 4167 O 392.327 3.04764 1.84384 0
M  V30 4168 O 391.186 4.54081 3.04093 0
M  V30 4169 H 388.28 0.666729 0.489287 0
M  V30 4170 H 390.826 1.66986 0.302298 0
M  V30 4171 H 389.598 3.77734 1.02142 0
M  V30 4172 H 389.221 3.03565 2.56777 0
M  V30 4173 N 390.218 -0.567019 1.47046 0
M  V30 4174 C 391.465 -1.32462 1.53167 0
M  V30 4175 C 391.793 -1.93571 0.189841 0
M  V30 4176 O 391.048 -1.77865 -0.816243 0
M  V30 4177 C 391.347 -2.4623 2.59047 0
M  V30 4178 C 391.013 -2.03014 4.02612 0
M  V30 4179 C 389.675 -1.90944 4.41694 0
M  V30 4180 C 392.027 -1.69895 4.92732 0
M  V30 4181 C 389.355 -1.44035 5.68745 0
M  V30 4182 C 391.707 -1.2446 6.20236 0
M  V30 4183 C 390.371 -1.10979 6.5821 0
M  V30 4184 H 389.641 -0.484713 0.560477 0
M  V30 4185 H 392.288 -0.636888 1.80599 0
M  V30 4186 H 390.593 -3.20517 2.25335 0
M  V30 4187 H 392.29 -3.04427 2.61008 0
M  V30 4188 H 388.88 -2.13348 3.71726 0
M  V30 4189 H 393.064 -1.78098 4.63244 0
M  V30 4190 H 388.32 -1.32254 5.96925 0
M  V30 4191 H 392.494 -0.978924 6.89485 0
M  V30 4192 H 390.121 -0.744078 7.5655 0
M  V30 4193 N 391.696 -1.35014 -0.812953 0
M  V30 4194 C 392.926 -1.30841 -1.59888 0
M  V30 4195 C 393.334 0.117576 -1.88834 0
M  V30 4196 O 392.677 1.07807 -1.48739 0
M  V30 4197 C 392.739 -2.0412 -2.95931 0
M  V30 4198 C 392.403 -3.53336 -2.89832 0
M  V30 4199 C 393.4 -4.48052 -2.63714 0
M  V30 4200 C 391.085 -3.95894 -3.0915 0
M  V30 4201 C 393.079 -5.833 -2.56982 0
M  V30 4202 C 390.766 -5.31239 -3.0204 0
M  V30 4203 C 391.764 -6.24754 -2.75991 0
M  V30 4204 O 391.452 -7.57617 -2.68833 0
M  V30 4205 H 391.184 -0.451215 -0.50337 0
M  V30 4206 H 393.738 -1.78354 -1.01877 0
M  V30 4207 H 391.968 -1.51235 -3.559 0
M  V30 4208 H 393.657 -1.93107 -3.57022 0
M  V30 4209 H 394.423 -4.16492 -2.48515 0
M  V30 4210 H 390.302 -3.23495 -3.28438 0
M  V30 4211 H 393.846 -6.56263 -2.36569 0
M  V30 4212 H 389.743 -5.62415 -3.16796 0
M  V30 4213 H 390.511 -7.67469 -2.84487 0
M  V30 4214 N 393.175 1.03435 -1.18907 0
M  V30 4215 C 394.452 1.73778 -0.89781 0
M  V30 4216 C 394.832 2.02458 0.597832 0
M  V30 4217 O 394.18 1.67482 1.55441 0
M  V30 4218 C 394.39 3.01845 -1.75187 0
M  V30 4219 C 395.738 3.7546 -1.9828 0
M  V30 4220 O 396.762 3.11759 -1.72293 0
M  V30 4221 O 395.621 4.89966 -2.42065 0
M  V30 4222 H 392.715 0.75651 -0.334098 0
M  V30 4223 H 395.261 1.09444 -1.29693 0
M  V30 4224 H 394.033 2.76836 -2.76545 0
M  V30 4225 H 393.656 3.73919 -1.35167 0
M  V30 4226 N 394.653 0.992116 1.22453 0
M  V30 4227 C 396.064 0.702776 1.72968 0
M  V30 4228 C 396.415 -0.780399 1.80012 0
M  V30 4229 O 395.54 -1.61007 1.44589 0
M  V30 4230 C 396.135 1.26903 3.14135 0
M  V30 4231 C 394.694 1.02909 3.62059 0
M  V30 4232 C 393.841 1.38969 2.39964 0
M  V30 4233 H 396.792 1.16457 1.07812 0
M  V30 4234 H 396.813 0.647223 3.74955 0
M  V30 4235 H 396.325 2.34851 3.08977 0
M  V30 4236 H 394.426 -0.0337979 3.72585 0
M  V30 4237 H 394.539 1.69191 4.48231 0
M  V30 4238 H 392.903 0.808279 2.41535 0
M  V30 4239 H 393.686 2.4792 2.37467 0
M  V30 4240 N 396.131 -1.37776 0.765217 0
M  V30 4241 C 397.361 -2.03828 0.337277 0
M  V30 4242 C 397.769 -1.57841 -1.04321 0
M  V30 4243 O 397.112 -0.752043 -1.67601 0
M  V30 4244 C 397.174 -3.58292 0.294407 0
M  V30 4245 C 396.838 -4.27384 1.61838 0
M  V30 4246 C 397.835 -4.51956 2.56967 0
M  V30 4247 C 395.52 -4.65345 1.89102 0
M  V30 4248 C 397.514 -5.13536 3.77571 0
M  V30 4249 C 395.201 -5.26647 3.09978 0
M  V30 4250 C 396.199 -5.50679 4.04032 0
M  V30 4251 O 395.887 -6.10702 5.2278 0
M  V30 4252 H 395.619 -0.661292 0.140248 0
M  V30 4253 H 398.173 -1.77222 1.03834 0
M  V30 4254 H 396.403 -3.83918 -0.462983 0
M  V30 4255 H 398.092 -4.05763 -0.105581 0
M  V30 4256 H 398.858 -4.23048 2.37183 0
M  V30 4257 H 394.737 -4.45978 1.16725 0
M  V30 4258 H 398.281 -5.3221 4.50997 0
M  V30 4259 H 394.178 -5.54979 3.29649 0
M  V30 4260 H 394.946 -6.29183 5.23517 0
M  V30 4261 N 397.609 -0.515225 -1.4894 0
M  V30 4262 C 398.572 0.244681 -2.2789 0
M  V30 4263 C 399.572 0.881166 -1.34507 0
M  V30 4264 O 400.762 0.743497 -1.57537 0
M  V30 4265 C 397.894 1.35247 -3.12923 0
M  V30 4266 H 399.087 -0.448289 -2.96531 0
M  V30 4267 H 396.64 -0.270656 -1.53939 0
M  V30 4268 H 397.375 2.07916 -2.48881 0
M  V30 4269 H 397.16 0.901374 -3.81599 0
M  V30 4270 H 398.65 1.88737 -3.72516 0
M  V30 4271 N 399.087 1.5561 -0.249682 0
M  V30 4272 C 400.05 2.20217 0.635394 0
M  V30 4273 C 401.05 1.17227 1.10066 0
M  V30 4274 O 402.24 1.42292 1.00492 0
M  V30 4275 C 399.372 2.84794 1.87363 0
M  V30 4276 H 400.565 2.99814 0.0716752 0
M  V30 4277 H 398.118 1.563 -0.000153234 0
M  V30 4278 H 398.853 2.09142 2.47851 0
M  V30 4279 H 398.638 3.60241 1.5482 0
M  V30 4280 H 400.128 3.3423 2.5036 0
M  V30 4281 N 400.565 -0.0233959 1.57583 0
M  V30 4282 C 401.515 -1.03023 2.03397 0
M  V30 4283 C 402.499 -1.31701 0.924315 0
M  V30 4284 O 403.691 -1.31191 1.18819 0
M  V30 4285 C 400.82 -2.32961 2.52159 0
M  V30 4286 C 399.906 -2.07349 3.69956 0
M  V30 4287 N 400.297 -1.51814 4.82479 0
M  V30 4288 C 398.595 -2.37606 3.77438 0
M  V30 4289 C 399.296 -1.42136 5.64068 0
M  V30 4290 N 398.272 -1.89891 5.09355 0
M  V30 4291 H 402.074 -0.594962 2.87815 0
M  V30 4292 H 399.588 -0.229586 1.60769 0
M  V30 4293 H 401.585 -3.05906 2.83244 0
M  V30 4294 H 400.245 -2.77162 1.69149 0
M  V30 4295 H 401.256 -1.20008 5.03804 0
M  V30 4296 H 397.933 -2.84842 3.05239 0
M  V30 4297 H 399.323 -0.996405 6.64471 0
M  V30 4298 N 402.043 -1.548 -0.295768 0
M  V30 4299 C 403.459 -1.4613 -0.641722 0
M  V30 4300 C 403.659 -0.656771 -1.90496 0
M  V30 4301 O 402.715 -0.166547 -2.5195 0
M  V30 4302 C 404.028 -2.90141 -0.789852 0
M  V30 4303 C 405.576 -3.00216 -0.885396 0
M  V30 4304 C 406.051 -4.45434 -1.06548 0
M  V30 4305 N 407.542 -4.49166 -1.13156 0
M  V30 4306 C 408.277 -5.58717 -1.28929 0
M  V30 4307 N 407.773 -6.78182 -1.41567 0
M  V30 4308 N 409.566 -5.46415 -1.31859 0
M  V30 4309 H 401.717 -2.05574 0.534147 0
M  V30 4310 H 403.98 -0.931259 0.177372 0
M  V30 4311 H 403.686 -3.51635 0.0675598 0
M  V30 4312 H 403.56 -3.37859 -1.67724 0
M  V30 4313 H 405.947 -2.38833 -1.73329 0
M  V30 4314 H 406.028 -2.55787 0.0261185 0
M  V30 4315 H 405.672 -5.07413 -0.222335 0
M  V30 4316 H 405.602 -4.87499 -1.9913 0
M  V30 4317 H 408.093 -3.631 -1.04721 0
M  V30 4318 H 408.406 -7.57428 -1.53372 0
M  V30 4319 H 406.751 -6.81037 -1.38613 0
M  V30 4320 H 409.942 -4.5203 -1.21601 0
M  V30 4321 H 410.115 -6.31841 -1.43808 0
M  V30 4322 N 403.521 0.559213 -1.47345 0
M  V30 4323 C 404.77 1.31281 -1.53128 0
M  V30 4324 C 405.083 1.94602 -0.197344 0
M  V30 4325 O 406.289 2.71173 -0.133154 0
M  V30 4326 C 404.745 2.38051 -2.69925 0
M  V30 4327 C 404.353 1.8093 -4.0984 0
M  V30 4328 C 406.097 3.14604 -2.84999 0
M  V30 4329 C 404.004 2.85468 -5.1794 0
M  V30 4330 H 402.934 0.493614 -0.569966 0
M  V30 4331 H 405.585 0.594155 -1.73615 0
M  V30 4332 H 403.967 3.12822 -2.42814 0
M  V30 4333 H 405.141 1.12544 -4.46845 0
M  V30 4334 H 403.456 1.16967 -3.99634 0
M  V30 4335 H 406.053 3.92666 -3.62929 0
M  V30 4336 H 406.396 3.68665 -1.93369 0
M  V30 4337 H 406.929 2.46945 -3.1187 0
M  V30 4338 H 403.668 2.36264 -6.1144 0
M  V30 4339 H 403.188 3.52269 -4.85455 0
M  V30 4340 H 404.867 3.48996 -5.44803 0
M  V30 4341 N 404.999 1.35443 0.805782 0
M  V30 4342 C 406.246 1.28761 1.56291 0
M  V30 4343 C 406.574 -0.137747 1.94012 0
M  V30 4344 O 405.829 -1.1032 1.61642 0
M  V30 4345 C 406.128 2.14045 2.86216 0
M  V30 4346 C 405.794 3.62826 2.67709 0
M  V30 4347 C 404.456 4.0338 2.6237 0
M  V30 4348 C 406.808 4.57227 2.50186 0
M  V30 4349 C 404.136 5.36501 2.37451 0
M  V30 4350 C 406.488 5.90547 2.26797 0
M  V30 4351 C 405.152 6.30245 2.1988 0
M  V30 4352 H 404.422 0.471171 0.571908 0
M  V30 4353 H 407.069 1.67347 0.930974 0
M  V30 4354 H 405.374 1.68342 3.53791 0
M  V30 4355 H 407.071 2.0621 3.43917 0
M  V30 4356 H 403.661 3.30644 2.72713 0
M  V30 4357 H 407.845 4.2678 2.53323 0
M  V30 4358 H 403.101 5.66259 2.30567 0
M  V30 4359 H 407.275 6.63274 2.12228 0
M  V30 4360 H 404.902 7.33328 2.00333 0
M  V30 4361 N 406.477 -1.02803 1.19454 0
M  V30 4362 C 407.754 -1.73299 0.907013 0
M  V30 4363 C 408.134 -2.02772 -0.587086 0
M  V30 4364 O 407.482 -1.68304 -1.54551 0
M  V30 4365 C 407.692 -3.00912 1.76785 0
M  V30 4366 C 409.04 -3.74403 2.00268 0
M  V30 4367 O 410.064 -3.10841 1.73943 0
M  V30 4368 O 408.923 -4.88675 2.4466 0
M  V30 4369 H 406.017 -0.754727 0.338106 0
M  V30 4370 H 408.563 -1.08754 1.30271 0
M  V30 4371 H 407.335 -2.75366 2.7801 0
M  V30 4372 H 406.958 -3.73197 1.37149 0
M  V30 4373 N 407.956 -0.998596 -1.21925 0
M  V30 4374 C 409.372 -0.710303 -1.42923 0
M  V30 4375 C 409.572 0.716933 -1.88314 0
M  V30 4376 O 408.628 1.48712 -2.04062 0
M  V30 4377 C 409.941 -1.72072 -2.466 0
M  V30 4378 C 411.489 -1.73681 -2.60392 0
M  V30 4379 C 411.964 -2.73601 -3.67296 0
M  V30 4380 N 413.455 -2.7223 -3.7476 0
M  V30 4381 C 414.19 -3.46206 -4.57087 0
M  V30 4382 N 413.686 -4.29802 -5.43362 0
M  V30 4383 N 415.479 -3.34886 -4.51451 0
M  V30 4384 H 407.63 -1.92028 -0.9077 0
M  V30 4385 H 409.893 -0.828487 -0.460775 0
M  V30 4386 H 409.599 -2.74231 -2.20206 0
M  V30 4387 H 409.473 -1.51818 -3.45299 0
M  V30 4388 H 411.86 -0.722173 -2.86127 0
M  V30 4389 H 411.941 -1.98005 -1.61949 0
M  V30 4390 H 411.585 -3.75217 -3.42307 0
M  V30 4391 H 411.515 -2.46545 -4.65321 0
M  V30 4392 H 414.006 -2.11576 -3.1312 0
M  V30 4393 H 414.319 -4.83061 -6.03218 0
M  V30 4394 H 412.664 -4.33887 -5.42925 0
M  V30 4395 H 415.855 -2.69015 -3.83078 0
M  V30 4396 H 416.028 -3.92796 -5.15379 0
M  V30 4397 N 409.434 1.37368 -0.772513 0
M  V30 4398 C 410.364 2.32856 -0.173304 0
M  V30 4399 C 411.345 1.55818 0.682262 0
M  V30 4400 O 412.53 1.84052 0.619566 0
M  V30 4401 C 409.66 3.40048 0.706007 0
M  V30 4402 C 408.614 4.27973 -0.0483144 0
M  V30 4403 C 407.94 5.26184 0.950491 0
M  V30 4404 C 409.24 5.07665 -1.22776 0
M  V30 4405 H 410.934 2.83217 -0.971002 0
M  V30 4406 H 408.48 1.3617 -0.468377 0
M  V30 4407 H 410.433 4.05827 1.13501 0
M  V30 4408 H 409.157 2.88214 1.53623 0
M  V30 4409 H 407.816 3.63726 -0.458107 0
M  V30 4410 H 407.464 4.7063 1.77529 0
M  V30 4411 H 407.164 5.85872 0.450314 0
M  V30 4412 H 408.688 5.94838 1.37842 0
M  V30 4413 H 410.102 5.66578 -0.875366 0
M  V30 4414 H 408.499 5.76681 -1.66007 0
M  V30 4415 H 409.569 4.40294 -2.03149 0
M  V30 4416 N 410.912 0.523116 1.48665 0
M  V30 4417 C 412.323 0.0808997 1.86525 0
M  V30 4418 C 412.674 -1.33975 1.43336 0
M  V30 4419 O 411.799 -2.00221 0.821009 0
M  V30 4420 C 412.394 0.140037 3.3851 0
M  V30 4421 C 410.953 -0.246948 3.75589 0
M  V30 4422 C 410.1 0.502845 2.72703 0
M  V30 4423 H 413.051 0.734736 1.40667 0
M  V30 4424 H 413.072 -0.649945 3.74908 0
M  V30 4425 H 412.584 1.17412 3.69914 0
M  V30 4426 H 410.685 -1.28343 3.49798 0
M  V30 4427 H 410.798 0.0878859 4.79019 0
M  V30 4428 H 409.162 -0.0500581 2.54651 0
M  V30 4429 H 409.945 1.53743 3.0695 0
M  V30 4430 N 412.39 -1.55475 0.257931 0
M  V30 4431 C 413.801 -1.8511 -0.243135 0
M  V30 4432 C 414.152 -1.17986 -1.5676 0
M  V30 4433 O 413.277 -0.462102 -2.11409 0
M  V30 4434 C 413.872 -3.35826 -0.447929 0
M  V30 4435 C 412.431 -3.65647 -0.893245 0
M  V30 4436 C 411.578 -2.7729 0.0232965 0
M  V30 4437 H 414.529 -1.51261 0.480199 0
M  V30 4438 H 414.55 -3.58002 -1.28898 0
M  V30 4439 H 414.062 -3.84652 0.516196 0
M  V30 4440 H 412.163 -3.22308 -1.86945 0
M  V30 4441 H 412.276 -4.73312 -0.742469 0
M  V30 4442 H 410.64 -2.49942 -0.490021 0
M  V30 4443 H 411.423 -3.28926 0.982994 0
M  V30 4444 N 413.868 0.0150385 -1.57593 0
M  V30 4445 C 414.798 1.01047 -2.10503 0
M  V30 4446 C 415.779 1.36816 -1.01071 0
M  V30 4447 O 416.964 1.45455 -1.28672 0
M  V30 4448 C 414.094 2.30708 -2.59598 0
M  V30 4449 C 413.048 2.09142 -3.73421 0
M  V30 4450 C 412.374 3.44685 -4.08774 0
M  V30 4451 C 413.674 1.46619 -5.01298 0
M  V30 4452 H 415.368 0.569978 -2.93925 0
M  V30 4453 H 412.914 0.272724 -1.41394 0
M  V30 4454 H 414.867 3.00687 -2.95238 0
M  V30 4455 H 413.591 2.76843 -1.73279 0
M  V30 4456 H 412.25 1.41592 -3.38153 0
M  V30 4457 H 411.898 3.88495 -3.195 0
M  V30 4458 H 411.598 3.31077 -4.8545 0
M  V30 4459 H 413.122 4.16004 -4.4696 0
M  V30 4460 H 414.536 2.06535 -5.34805 0
M  V30 4461 H 412.933 1.43544 -5.82679 0
M  V30 4462 H 414.003 0.433611 -4.82957 0
M  V30 4463 N 415.346 1.54954 0.287554 0
M  V30 4464 C 416.594 1.74528 1.01904 0
M  V30 4465 C 416.915 0.541349 1.87335 0
M  V30 4466 O 416.185 -0.444108 1.908 0
M  V30 4467 H 414.765 0.643576 0.379235 0
M  V30 4468 H 417.427 1.92333 0.315294 0
M  V30 4469 H 416.523 2.64015 1.6644 0
M  V30 4470 N 416.824 -0.551391 1.4764 0
M  V30 4471 C 418.073 -1.30467 1.53822 0
M  V30 4472 C 418.386 -1.94495 0.207661 0
M  V30 4473 O 419.592 -2.71099 0.147533 0
M  V30 4474 C 418.048 -2.36616 2.71184 0
M  V30 4475 C 417.656 -1.78754 4.10793 0
M  V30 4476 C 419.4 -3.13088 2.86663 0
M  V30 4477 C 417.307 -2.82717 5.19447 0
M  V30 4478 H 416.237 -0.490584 0.572576 0
M  V30 4479 H 418.888 -0.58494 1.73927 0
M  V30 4480 H 417.27 -3.11529 2.4447 0
M  V30 4481 H 418.444 -1.10173 4.47435 0
M  V30 4482 H 416.759 -1.14846 4.00249 0
M  V30 4483 H 419.356 -3.90736 3.65007 0
M  V30 4484 H 419.699 -3.67635 1.95321 0
M  V30 4485 H 420.232 -2.45288 3.13175 0
M  V30 4486 H 416.971 -2.33018 6.12685 0
M  V30 4487 H 416.491 -3.4969 4.87316 0
M  V30 4488 H 418.17 -3.46102 5.46646 0
M  V30 4489 N 418.302 -1.35869 -0.798587 0
M  V30 4490 C 419.212 -1.31578 -1.94228 0
M  V30 4491 C 420.228 -0.21939 -1.72611 0
M  V30 4492 O 421.404 -0.450167 -1.96305 0
M  V30 4493 C 418.469 -1.09528 -3.28944 0
M  V30 4494 C 417.53 -2.28556 -3.63402 0
M  V30 4495 C 416.763 -2.07549 -4.9169 0
M  V30 4496 O 416.986 -1.046 -5.60727 0
M  V30 4497 O 415.92 -2.95106 -5.24591 0
M  V30 4498 H 419.746 -2.27847 -2.00796 0
M  V30 4499 H 417.331 -1.16322 -0.937526 0
M  V30 4500 H 419.213 -0.991127 -4.09579 0
M  V30 4501 H 417.888 -0.16315 -3.23289 0
M  V30 4502 H 416.795 -2.44538 -2.83112 0
M  V30 4503 H 418.128 -3.20244 -3.73771 0
M  V30 4504 N 419.78 1.02168 -1.19998 0
M  V30 4505 C 421.029 1.75091 -1.0013 0
M  V30 4506 C 421.342 1.89923 0.467835 0
M  V30 4507 O 422.548 2.59888 0.785515 0
M  V30 4508 C 421.004 3.14892 -1.74273 0
M  V30 4509 C 420.612 3.0809 -3.25245 0
M  V30 4510 C 422.356 3.9206 -1.62755 0
M  V30 4511 C 420.263 4.42867 -3.91948 0
M  V30 4512 H 419.193 0.656394 -0.37103 0
M  V30 4513 H 421.844 1.14284 -1.43567 0
M  V30 4514 H 420.226 3.7621 -1.2362 0
M  V30 4515 H 421.4 2.5611 -3.83072 0
M  V30 4516 H 419.715 2.44416 -3.3712 0
M  V30 4517 H 422.312 4.91764 -2.09934 0
M  V30 4518 H 422.655 4.12199 -0.582894 0
M  V30 4519 H 423.188 3.37359 -2.10793 0
M  V30 4520 H 419.927 4.27931 -4.96543 0
M  V30 4521 H 419.447 4.94874 -3.3891 0
M  V30 4522 H 421.126 5.11728 -3.95909 0
M  V30 4523 N 421.258 1.00505 1.21394 0
M  V30 4524 C 422.504 0.688793 1.90745 0
M  V30 4525 C 422.837 -0.778486 1.77914 0
M  V30 4526 O 422.112 -1.56433 1.15581 0
M  V30 4527 C 422.395 1.11063 3.42545 0
M  V30 4528 C 422.248 2.63737 3.64367 0
M  V30 4529 C 423.567 0.673059 4.34923 0
M  V30 4530 H 420.686 0.251702 0.692687 0
M  V30 4531 H 423.328 1.25074 1.43026 0
M  V30 4532 H 421.478 0.632508 3.83317 0
M  V30 4533 H 423.15 3.19313 3.32922 0
M  V30 4534 H 421.393 3.05248 3.08231 0
M  V30 4535 H 422.064 2.88305 4.70727 0
M  V30 4536 H 424.54 1.08392 4.01734 0
M  V30 4537 H 423.416 0.996383 5.39781 0
M  V30 4538 H 423.677 -0.425808 4.40045 0
M  V30 4539 N 422.737 -1.36956 0.779787 0
M  V30 4540 C 423.684 -2.30175 0.169697 0
M  V30 4541 C 424.654 -1.51501 -0.68094 0
M  V30 4542 O 425.839 -1.80042 -0.631629 0
M  V30 4543 C 422.979 -3.37985 -0.697131 0
M  V30 4544 C 422.092 -4.31661 0.170992 0
M  V30 4545 C 421.227 -5.2655 -0.701298 0
M  V30 4546 C 420.266 -6.11867 0.168869 0
M  V30 4547 N 419.403 -6.98973 -0.661855 0
M  V30 4548 H 424.243 -2.81767 0.970135 0
M  V30 4549 H 421.78 -1.38699 0.489994 0
M  V30 4550 H 423.738 -3.99128 -1.2146 0
M  V30 4551 H 422.368 -2.87739 -1.46309 0
M  V30 4552 H 421.42 -3.71756 0.80634 0
M  V30 4553 H 422.732 -4.91644 0.841875 0
M  V30 4554 H 421.886 -5.92937 -1.28494 0
M  V30 4555 H 420.625 -4.66998 -1.40584 0
M  V30 4556 H 419.63 -5.44452 0.764986 0
M  V30 4557 H 420.855 -6.73493 0.870863 0
M  V30 4558 H 418.801 -6.41941 -1.35086 0
M  V30 4559 H 418.718 -7.55984 -0.0484447 0
M  V30 4560 H 419.986 -7.6974 -1.22963 0
M  V30 4561 N 424.215 -0.530993 -1.48385 0
M  V30 4562 C 425.461 0.00274135 -2.028 0
M  V30 4563 C 425.794 1.33838 -1.40716 0
M  V30 4564 O 425.069 1.86465 -0.553277 0
M  V30 4565 C 425.352 0.123676 -3.59888 0
M  V30 4566 C 425.205 -1.2372 -4.3245 0
M  V30 4567 C 426.524 0.849967 -4.31814 0
M  V30 4568 H 423.643 -0.000477758 -0.737 0
M  V30 4569 H 426.285 -0.688217 -1.77098 0
M  V30 4570 H 424.435 0.712157 -3.81917 0
M  V30 4571 H 426.107 -1.86687 -4.21836 0
M  V30 4572 H 424.35 -1.81882 -3.93829 0
M  V30 4573 H 425.021 -1.10557 -5.40815 0
M  V30 4574 H 427.497 0.350572 -4.14621 0
M  V30 4575 H 426.373 0.903486 -5.41413 0
M  V30 4576 H 426.634 1.90047 -3.99167 0
M  V30 4577 N 425.693 1.55336 -0.266172 0
M  V30 4578 C 426.941 1.99003 0.35246 0
M  V30 4579 C 427.262 1.15591 1.57047 0
M  V30 4580 O 426.532 0.243268 1.94384 0
M  V30 4581 H 425.112 0.735025 0.133217 0
M  V30 4582 H 427.774 1.91367 -0.369434 0
M  V30 4583 H 426.87 3.05289 0.648453 0
M  V30 4584 N 427.171 -0.0066808 1.57599 0
M  V30 4585 C 428.134 -0.985035 2.06953 0
M  V30 4586 C 429.134 -1.27663 0.977687 0
M  V30 4587 O 430.324 -1.22293 1.24057 0
M  V30 4588 C 427.456 -2.3118 2.50536 0
M  V30 4589 H 428.649 -0.558255 2.94658 0
M  V30 4590 H 426.202 -0.254011 1.54222 0
M  V30 4591 H 426.937 -2.78561 1.66054 0
M  V30 4592 H 426.722 -2.11338 3.3027 0
M  V30 4593 H 428.212 -3.01377 2.8907 0
M  V30 4594 N 428.649 -1.55105 -0.279332 0
M  V30 4595 C 429.895 -1.75672 -1.01327 0
M  V30 4596 C 430.228 -0.552739 -1.86168 0
M  V30 4597 O 429.503 0.449827 -1.89227 0
M  V30 4598 C 429.786 -3.05825 -1.90114 0
M  V30 4599 C 429.639 -4.36565 -1.08309 0
M  V30 4600 C 430.958 -3.31975 -2.8893 0
M  V30 4601 H 428.077 -0.639149 -0.366957 0
M  V30 4602 H 430.719 -1.87833 -0.286154 0
M  V30 4603 H 428.869 -2.95588 -2.52111 0
M  V30 4604 H 430.541 -4.58751 -0.484314 0
M  V30 4605 H 428.784 -4.32076 -0.386362 0
M  V30 4606 H 429.455 -5.23946 -1.73737 0
M  V30 4607 H 431.931 -3.41963 -2.37067 0
M  V30 4608 H 430.807 -4.2432 -3.48201 0
M  V30 4609 H 431.068 -2.51309 -3.63725 0
M  V30 4610 N 430.127 0.543554 -1.4793 0
M  V30 4611 C 431.374 1.30008 -1.55255 0
M  V30 4612 C 431.702 1.93245 -0.220612 0
M  V30 4613 O 430.957 1.79141 0.787843 0
M  V30 4614 C 431.256 2.42078 -2.62932 0
M  V30 4615 C 430.922 1.96583 -4.0579 0
M  V30 4616 C 429.584 1.83893 -4.44676 0
M  V30 4617 C 431.936 1.62034 -4.95373 0
M  V30 4618 C 429.264 1.34969 -5.70964 0
M  V30 4619 C 431.616 1.14577 -6.22137 0
M  V30 4620 C 430.28 1.00493 -6.59892 0
M  V30 4621 H 429.55 0.475735 -0.568117 0
M  V30 4622 H 432.197 0.608075 -1.81589 0
M  V30 4623 H 430.502 3.16892 -2.30406 0
M  V30 4624 H 432.199 3.00236 -2.65818 0
M  V30 4625 H 428.789 2.07407 -3.75074 0
M  V30 4626 H 432.973 1.70705 -4.66019 0
M  V30 4627 H 428.229 1.2274 -5.98953 0
M  V30 4628 H 432.403 0.869109 -6.90955 0
M  V30 4629 H 430.03 0.623624 -7.57638 0
M  V30 4630 N 431.605 1.3629 0.791371 0
M  V30 4631 C 432.555 1.26988 1.89362 0
M  V30 4632 C 433.539 0.161795 1.60084 0
M  V30 4633 O 434.731 0.394426 1.72549 0
M  V30 4634 C 431.86 1.05944 3.26544 0
M  V30 4635 C 430.946 2.21211 3.61838 0
M  V30 4636 N 431.337 3.46518 3.68455 0
M  V30 4637 C 429.635 2.12933 3.91887 0
M  V30 4638 C 430.336 4.2241 3.99931 0
M  V30 4639 N 429.312 3.51329 4.14812 0
M  V30 4640 H 433.114 2.21908 1.92702 0
M  V30 4641 H 430.628 1.28982 0.986787 0
M  V30 4642 H 432.625 0.973666 4.05371 0
M  V30 4643 H 431.285 0.119223 3.24481 0
M  V30 4644 H 432.296 3.80677 3.51148 0
M  V30 4645 H 428.973 1.26855 3.97761 0
M  V30 4646 H 430.363 5.30767 4.1199 0
M  V30 4647 N 433.083 -1.0153 1.20538 0
M  V30 4648 C 434.323 -1.76689 1.02763 0
M  V30 4649 C 434.687 -1.87065 -0.432513 0
M  V30 4650 O 435.888 -2.58684 -0.730481 0
M  V30 4651 C 434.159 -3.14707 1.69393 0
M  V30 4652 S 435.718 -4.05886 1.66738 0
M  V30 4653 H 432.536 -0.608076 0.368463 0
M  V30 4654 H 435.138 -1.21558 1.53114 0
M  V30 4655 H 433.842 -3.04782 2.74838 0
M  V30 4656 H 433.373 -3.74913 1.19179 0
M  V30 4657 H 435.388 -4.91221 0.70117 0
M  V30 4658 N 434.561 -1.01147 -1.20859 0
M  V30 4659 C 435.972 -0.730205 -1.71828 0
M  V30 4660 C 436.323 0.751662 -1.8123 0
M  V30 4661 O 435.448 1.58686 -1.47132 0
M  V30 4662 C 436.043 -1.31885 -3.12077 0
M  V30 4663 C 434.602 -1.08656 -3.60376 0
M  V30 4664 C 433.749 -1.42769 -2.37723 0
M  V30 4665 H 436.7 -1.18158 -1.05945 0
M  V30 4666 H 436.721 -0.706793 -3.73878 0
M  V30 4667 H 436.233 -2.39737 -3.05201 0
M  V30 4668 H 434.334 -0.0254814 -3.72591 0
M  V30 4669 H 434.447 -1.76301 -4.45483 0
M  V30 4670 H 432.811 -0.846603 -2.40218 0
M  V30 4671 H 433.594 -2.51666 -2.33493 0
M  V30 4672 N 436.039 1.36541 -0.78704 0
M  V30 4673 C 436.969 2.32659 -0.197992 0
M  V30 4674 C 437.95 1.56533 0.665697 0
M  V30 4675 O 439.135 1.84698 0.60001 0
M  V30 4676 C 436.265 3.40778 0.669901 0
M  V30 4677 C 435.219 4.27897 -0.0937039 0
M  V30 4678 C 434.545 5.27163 0.894629 0
M  V30 4679 C 435.845 5.06334 -1.28154 0
M  V30 4680 H 437.539 2.82171 -1.00099 0
M  V30 4681 H 435.085 1.35665 -0.482793 0
M  V30 4682 H 437.038 4.07008 1.09191 0
M  V30 4683 H 435.762 2.89827 1.50558 0
M  V30 4684 H 434.421 3.6322 -0.49666 0
M  V30 4685 H 434.069 4.72486 1.72527 0
M  V30 4686 H 433.769 5.86317 0.388149 0
M  V30 4687 H 435.293 5.96266 1.31525 0
M  V30 4688 H 436.707 5.65617 -0.93541 0
M  V30 4689 H 435.104 5.74888 -1.72115 0
M  V30 4690 H 436.174 4.38114 -2.07807 0
M  V30 4691 N 437.518 0.538854 1.48102 0
M  V30 4692 C 438.758 0.0101209 2.04397 0
M  V30 4693 C 439.122 -1.30741 1.40609 0
M  V30 4694 O 440.323 -1.92272 1.87843 0
M  V30 4695 C 438.594 -0.100232 3.57259 0
M  V30 4696 S 440.153 -0.577746 4.3498 0
M  V30 4697 H 436.971 0.0163171 0.710813 0
M  V30 4698 H 439.573 0.721429 1.81702 0
M  V30 4699 H 438.277 0.863351 4.01216 0
M  V30 4700 H 437.808 -0.835651 3.84422 0
M  V30 4701 H 439.823 -1.84073 4.60794 0
M  V30 4702 N 438.996 -1.55193 0.274407 0
M  V30 4703 C 440.244 -1.99187 -0.341902 0
M  V30 4704 C 440.565 -1.16422 -1.56431 0
M  V30 4705 O 439.835 -0.253573 -1.94252 0
M  V30 4706 H 438.415 -0.735721 -0.129317 0
M  V30 4707 H 441.077 -1.91168 0.379578 0
M  V30 4708 H 440.173 -3.05629 -0.632253 0
M  V30 4709 N 440.474 -0.00167713 -1.576 0
M  V30 4710 C 441.722 0.681471 -1.90264 0
M  V30 4711 C 442.043 1.7422 -0.875924 0
M  V30 4712 O 441.313 1.95709 0.0864412 0
M  V30 4713 H 439.893 0.254696 -0.702239 0
M  V30 4714 H 442.555 -0.0429996 -1.94853 0
M  V30 4715 H 441.651 1.15166 -2.90075 0
M  V30 4716 N 441.952 1.55251 0.271103 0
M  V30 4717 C 443.201 1.75151 1.00025 0
M  V30 4718 C 443.514 0.561041 1.87381 0
M  V30 4719 O 444.72 0.642506 2.63788 0
M  V30 4720 C 443.176 3.09999 1.82835 0
M  V30 4721 C 442.784 4.3662 1.00336 0
M  V30 4722 C 444.528 3.39249 2.55168 0
M  V30 4723 C 442.435 5.62506 1.82595 0
M  V30 4724 H 441.365 0.652877 0.377183 0
M  V30 4725 H 444.016 1.81708 0.255843 0
M  V30 4726 H 442.398 2.97485 2.61378 0
M  V30 4727 H 443.572 4.60055 0.261959 0
M  V30 4728 H 441.887 4.14527 0.394486 0
M  V30 4729 H 444.484 4.3051 3.1712 0
M  V30 4730 H 444.827 2.59467 3.2555 0
M  V30 4731 H 445.36 3.52869 1.83653 0
M  V30 4732 H 442.099 6.45041 1.16631 0
M  V30 4733 H 441.619 5.43211 2.54327 0
M  V30 4734 H 443.298 6.00875 2.39913 0
M  V30 4735 N 443.43 -0.535701 1.48216 0
M  V30 4736 C 444.393 -1.623 1.61838 0
M  V30 4737 C 445.393 -1.53087 0.492024 0
M  V30 4738 O 446.583 -1.5686 0.757668 0
M  V30 4739 C 443.715 -3.01907 1.58319 0
M  V30 4740 H 444.908 -1.51564 2.58783 0
M  V30 4741 H 442.461 -0.757317 1.36727 0
M  V30 4742 H 443.196 -3.18155 0.628299 0
M  V30 4743 H 442.981 -3.10003 2.40085 0
M  V30 4744 H 444.471 -3.80969 1.71033 0
M  V30 4745 N 444.908 -1.36708 -0.784132 0
M  V30 4746 C 446.133 -1.34565 -1.5782 0
M  V30 4747 C 446.558 0.0695257 -1.87971 0
M  V30 4748 O 445.916 1.04302 -1.48293 0
M  V30 4749 C 445.964 -2.17952 -2.87279 0
M  V30 4750 O 445.068 -1.57563 -3.81114 0
M  V30 4751 H 444.409 -0.460337 -0.478524 0
M  V30 4752 H 446.939 -1.80064 -0.971495 0
M  V30 4753 H 446.949 -2.30721 -3.365 0
M  V30 4754 H 445.624 -3.20823 -2.64661 0
M  V30 4755 H 444.201 -1.53764 -3.39722 0
M  V30 4756 N 446.386 1.0089 -1.21074 0
M  V30 4757 C 447.296 2.13039 -0.982425 0
M  V30 4758 C 448.312 1.73881 0.0642161 0
M  V30 4759 O 449.488 2.01012 -0.12496 0
M  V30 4760 C 446.553 3.42377 -0.545803 0
M  V30 4761 C 445.614 3.95731 -1.6642 0
M  V30 4762 C 444.847 5.18896 -1.24832 0
M  V30 4763 O 445.07 5.70273 -0.120265 0
M  V30 4764 O 444.004 5.65597 -2.05873 0
M  V30 4765 H 447.83 2.35175 -1.92163 0
M  V30 4766 H 445.415 1.1142 -0.995285 0
M  V30 4767 H 447.297 4.20244 -0.311912 0
M  V30 4768 H 445.972 3.21639 0.364727 0
M  V30 4769 H 444.879 3.19108 -1.95246 0
M  V30 4770 H 446.212 4.20872 -2.55201 0
M  V30 4771 N 447.864 1.01787 1.20321 0
M  V30 4772 C 449.28 0.732951 1.41774 0
M  V30 4773 C 449.48 -0.686883 1.89431 0
M  V30 4774 O 448.536 -1.45446 2.06402 0
M  V30 4775 C 449.849 1.75973 2.43832 0
M  V30 4776 C 451.397 1.77802 2.57596 0
M  V30 4777 C 451.872 2.7941 3.62897 0
M  V30 4778 N 453.363 2.78157 3.70382 0
M  V30 4779 C 454.098 3.53434 4.51521 0
M  V30 4780 N 453.594 4.38392 5.36455 0
M  V30 4781 N 455.387 3.42026 4.46066 0
M  V30 4782 H 447.538 1.93447 0.877035 0
M  V30 4783 H 449.801 0.835712 0.447536 0
M  V30 4784 H 449.507 2.77699 2.15815 0
M  V30 4785 H 449.381 1.57292 3.4284 0
M  V30 4786 H 451.768 0.767602 2.84942 0
M  V30 4787 H 451.849 2.00557 1.58779 0
M  V30 4788 H 451.493 3.80616 3.36295 0
M  V30 4789 H 451.423 2.53916 4.61339 0
M  V30 4790 H 453.914 2.16531 3.09714 0
M  V30 4791 H 454.227 4.92596 5.95457 0
M  V30 4792 H 452.572 4.4247 5.35953 0
M  V30 4793 H 455.763 2.75075 3.78749 0
M  V30 4794 H 455.936 4.00946 5.09064 0
M  V30 4795 N 449.342 -1.36122 0.79427 0
M  V30 4796 C 450.57 -2.03362 0.380989 0
M  V30 4797 C 450.985 -1.59881 -1.00416 0
M  V30 4798 O 450.342 -0.790515 -1.6449 0
M  V30 4799 C 450.393 -3.58804 0.440649 0
M  V30 4800 O 450.114 -4.007 1.77118 0
M  V30 4801 C 451.615 -4.43296 0.0186117 0
M  V30 4802 H 448.835 -0.652526 0.156367 0
M  V30 4803 H 451.379 -1.73998 1.07447 0
M  V30 4804 H 449.534 -3.8686 -0.204458 0
M  V30 4805 H 449.948 -4.95309 1.72538 0
M  V30 4806 H 451.422 -5.51887 0.111488 0
M  V30 4807 H 451.899 -4.2684 -1.03461 0
M  V30 4808 H 452.505 -4.20512 0.636395 0
M  V30 4809 N 450.82 -0.546701 -1.47814 0
M  V30 4810 C 452.06 -0.0209604 -2.04389 0
M  V30 4811 C 452.424 1.29993 -1.413 0
M  V30 4812 O 453.625 1.91273 -1.8886 0
M  V30 4813 C 451.896 0.0812844 -3.57308 0
M  V30 4814 S 453.455 0.55467 -4.3528 0
M  V30 4815 H 450.273 -0.0200865 -0.710716 0
M  V30 4816 H 452.875 -0.731055 -1.81317 0
M  V30 4817 H 451.579 -0.884616 -4.00753 0
M  V30 4818 H 451.11 0.815253 -3.8486 0
M  V30 4819 H 453.125 1.81627 -4.61764 0
M  V30 4820 N 452.299 1.55045 -0.282633 0
M  V30 4821 C 453.71 1.85473 0.213655 0
M  V30 4822 C 454.061 1.20465 1.54863 0
M  V30 4823 O 453.186 0.495676 2.10647 0
M  V30 4824 C 453.781 3.36496 0.394445 0
M  V30 4825 C 452.34 3.67022 0.834961 0
M  V30 4826 C 451.487 2.77218 -0.0674081 0
M  V30 4827 H 454.438 1.50478 -0.504202 0
M  V30 4828 H 454.459 3.60007 1.23186 0
M  V30 4829 H 453.971 3.83782 -0.577326 0
M  V30 4830 H 452.072 3.25241 1.81794 0
M  V30 4831 H 452.185 4.74433 0.667075 0
M  V30 4832 H 450.549 2.5069 0.450196 0
M  V30 4833 H 451.332 3.2732 -1.0352 0
M  V30 4834 N 453.777 0.010035 1.57597 0
M  V30 4835 C 454.687 -0.994226 2.12491 0
M  V30 4836 C 455.703 -1.37013 1.07254 0
M  V30 4837 O 456.879 -1.45542 1.3921 0
M  V30 4838 C 453.944 -2.2642 2.62555 0
M  V30 4839 C 453.005 -1.95049 3.82432 0
M  V30 4840 C 452.238 -3.15991 4.30099 0
M  V30 4841 O 452.461 -4.28015 3.7704 0
M  V30 4842 O 451.395 -2.99403 5.22151 0
M  V30 4843 H 455.221 -0.557549 2.98538 0
M  V30 4844 H 452.806 -0.209413 1.47925 0
M  V30 4845 H 454.688 -3.01009 2.9491 0
M  V30 4846 H 453.363 -2.69306 1.796 0
M  V30 4847 H 452.27 -1.17904 3.55034 0
M  V30 4848 H 453.603 -1.56992 4.66491 0
M  V30 4849 N 455.255 -1.55392 -0.262866 0
M  V30 4850 C 456.503 -1.76127 -0.991147 0
M  V30 4851 C 456.824 -0.571083 -1.8645 0
M  V30 4852 O 456.094 0.413698 -1.91482 0
M  V30 4853 H 454.674 -0.649528 -0.368948 0
M  V30 4854 H 457.336 -1.9281 -0.284655 0
M  V30 4855 H 456.432 -2.6663 -1.62219 0
M  V30 4856 N 456.733 0.527833 -1.48498 0
M  V30 4857 C 457.683 1.62844 -1.5958 0
M  V30 4858 C 458.667 1.54397 -0.452809 0
M  V30 4859 O 459.859 1.62381 -0.704364 0
M  V30 4860 C 456.988 3.01557 -1.64067 0
M  V30 4861 C 456.074 3.151 -2.83853 0
M  V30 4862 N 456.465 2.9861 -4.08247 0
M  V30 4863 C 454.763 3.46158 -2.8123 0
M  V30 4864 C 455.464 3.15626 -4.88626 0
M  V30 4865 N 454.44 3.43298 -4.21483 0
M  V30 4866 H 458.242 1.48708 -2.53502 0
M  V30 4867 H 455.756 0.733343 -1.44899 0
M  V30 4868 H 457.753 3.8062 -1.70101 0
M  V30 4869 H 456.413 3.16783 -0.712636 0
M  V30 4870 H 457.424 2.75329 -4.3865 0
M  V30 4871 H 454.101 3.67728 -1.97692 0
M  V30 4872 H 455.491 3.07596 -5.97356 0
M  V30 4873 N 458.211 1.37122 0.776871 0
M  V30 4874 C 459.627 1.1781 1.07671 0
M  V30 4875 C 459.827 0.0107454 2.01497 0
M  V30 4876 O 458.883 -0.650756 2.4397 0
M  V30 4877 C 460.196 2.49451 1.67913 0
M  V30 4878 C 461.744 2.55927 1.80195 0
M  V30 4879 C 462.219 3.87686 2.43851 0
M  V30 4880 N 463.71 3.891 2.51307 0
M  V30 4881 C 464.445 4.87797 3.014 0
M  V30 4882 N 463.941 5.96888 3.51705 0
M  V30 4883 N 465.734 4.75205 3.00227 0
M  V30 4884 H 457.885 2.11843 0.153778 0
M  V30 4885 H 460.148 0.938927 0.130844 0
M  V30 4886 H 459.854 3.35207 1.06439 0
M  V30 4887 H 459.728 2.66169 2.67271 0
M  V30 4888 H 462.115 1.70582 2.40803 0
M  V30 4889 H 462.196 2.43097 0.796069 0
M  V30 4890 H 461.84 4.73444 1.83884 0
M  V30 4891 H 461.77 3.97817 3.45035 0
M  V30 4892 H 464.261 3.10293 2.157 0
M  V30 4893 H 464.574 6.68155 3.88316 0
M  V30 4894 H 462.919 6.0054 3.49824 0
M  V30 4895 H 466.11 3.89103 2.60224 0
M  V30 4896 H 466.283 5.52279 3.38957 0
M  V30 4897 N 459.689 -1.00246 1.21608 0
M  V30 4898 C 460.599 -2.12515 0.993709 0
M  V30 4899 C 461.615 -1.73913 -0.0549939 0
M  V30 4900 O 462.791 -2.00943 0.135619 0
M  V30 4901 C 459.856 -3.42083 0.563953 0
M  V30 4902 C 458.917 -3.94843 1.68516 0
M  V30 4903 C 458.15 -5.18226 1.27582 0
M  V30 4904 O 458.373 -5.70201 0.150506 0
M  V30 4905 O 457.307 -5.64497 2.0887 0
M  V30 4906 H 461.133 -2.34152 1.93407 0
M  V30 4907 H 458.718 -1.10891 1.00118 0
M  V30 4908 H 460.6 -4.20073 0.334194 0
M  V30 4909 H 459.275 -3.21828 -0.347665 0
M  V30 4910 H 458.182 -3.18068 1.96935 0
M  V30 4911 H 459.515 -4.19512 2.5743 0
M  V30 4912 N 461.167 -1.02423 -1.1978 0
M  V30 4913 C 462.114 -0.601023 -2.22837 0
M  V30 4914 C 463.084 0.382801 -1.61629 0
M  V30 4915 O 464.269 0.280514 -1.88727 0
M  V30 4916 C 461.409 0.0467755 -3.45068 0
M  V30 4917 C 460.522 -0.98253 -4.20678 0
M  V30 4918 C 459.657 -0.304982 -5.30324 0
M  V30 4919 C 458.696 -1.32052 -5.97686 0
M  V30 4920 N 457.833 -0.669105 -6.98904 0
M  V30 4921 H 462.673 -1.48444 -2.58396 0
M  V30 4922 H 460.21 -0.742936 -1.2696 0
M  V30 4923 H 462.168 0.439556 -4.14878 0
M  V30 4924 H 460.798 0.893796 -3.10179 0
M  V30 4925 H 459.85 -1.49341 -3.49859 0
M  V30 4926 H 461.162 -1.75455 -4.66923 0
M  V30 4927 H 460.316 0.142893 -6.06532 0
M  V30 4928 H 459.055 0.499283 -4.85138 0
M  V30 4929 H 458.06 -1.7787 -5.20233 0
M  V30 4930 H 459.285 -2.1262 -6.44957 0
M  V30 4931 H 457.231 0.115152 -6.55899 0
M  V30 4932 H 457.148 -1.37908 -7.43315 0
M  V30 4933 H 458.416 -0.245076 -7.79115 0
M  V30 4934 N 462.645 1.35699 -0.801477 0
M  V30 4935 C 464.061 1.52065 -0.484596 0
M  V30 4936 C 464.261 1.75215 0.995084 0
M  V30 4937 O 463.317 1.79061 1.78026 0
M  V30 4938 C 464.63 2.69908 -1.32552 0
M  V30 4939 C 466.178 2.83784 -1.32044 0
M  V30 4940 C 466.653 4.04646 -2.14536 0
M  V30 4941 N 468.144 4.11814 -2.12046 0
M  V30 4942 C 468.879 5.04437 -2.72636 0
M  V30 4943 N 468.375 6.02426 -3.42133 0
M  V30 4944 N 470.168 4.97144 -2.62305 0
M  V30 4945 H 462.319 1.18928 -1.75983 0
M  V30 4946 H 464.582 0.581455 -0.748741 0
M  V30 4947 H 464.288 2.59363 -2.37537 0
M  V30 4948 H 464.162 3.64376 -0.975181 0
M  V30 4949 H 466.549 2.93783 -0.27846 0
M  V30 4950 H 466.63 1.90188 -1.71062 0
M  V30 4951 H 466.274 3.95407 -3.18772 0
M  V30 4952 H 466.204 4.97413 -1.72882 0
M  V30 4953 H 468.695 3.41664 -1.61476 0
M  V30 4954 H 469.008 6.69688 -3.85666 0
M  V30 4955 H 467.353 6.02615 -3.46237 0
M  V30 4956 H 470.544 4.19546 -2.07603 0
M  V30 4957 H 470.717 5.69138 -3.09815 0
M  V30 4958 N 464.123 0.554532 1.47522 0
M  V30 4959 C 465.351 0.034257 2.06872 0
M  V30 4960 C 465.766 -1.25826 1.40759 0
M  V30 4961 O 465.123 -1.75425 0.503217 0
M  V30 4962 C 465.174 -0.167827 3.6111 0
M  V30 4963 O 464.895 1.07351 4.24744 0
M  V30 4964 C 466.396 -0.72569 4.3732 0
M  V30 4965 H 463.616 0.0446275 0.669514 0
M  V30 4966 H 466.16 0.767181 1.89564 0
M  V30 4967 H 464.315 -0.850872 3.7794 0
M  V30 4968 H 464.729 0.869563 5.17242 0
M  V30 4969 H 466.203 -0.816394 5.45929 0
M  V30 4970 H 466.68 -1.73635 4.0342 0
M  V30 4971 H 467.286 -0.0784292 4.25228 0
M  V30 4972 N 465.601 -1.54893 0.290851 0
M  V30 4973 C 466.564 -2.21824 -0.576784 0
M  V30 4974 C 467.564 -1.20104 -1.06919 0
M  V30 4975 O 468.754 -1.44906 -0.966843 0
M  V30 4976 C 465.886 -2.89662 -1.79747 0
M  V30 4977 H 467.079 -2.99899 0.00784051 0
M  V30 4978 H 464.632 -1.56245 0.0415934 0
M  V30 4979 H 465.367 -2.15639 -2.42219 0
M  V30 4980 H 465.152 -3.64219 -1.45214 0
M  V30 4981 H 466.642 -3.4075 -2.4141 0
M  V30 4982 N 467.08 -0.0183926 -1.57589 0
M  V30 4983 C 468.329 0.66185 -1.90532 0
M  V30 4984 C 468.642 1.73904 -0.895366 0
M  V30 4985 O 469.848 2.47518 -1.11566 0
M  V30 4986 C 468.304 1.22844 -3.38286 0
M  V30 4987 C 467.912 0.185103 -4.47617 0
M  V30 4988 C 469.656 1.88581 -3.80312 0
M  V30 4989 C 467.563 0.762723 -5.86461 0
M  V30 4990 H 466.493 0.250972 -0.711006 0
M  V30 4991 H 469.144 -0.0819435 -1.83317 0
M  V30 4992 H 467.526 2.0235 -3.40398 0
M  V30 4993 H 468.7 -0.58671 -4.5705 0
M  V30 4994 H 467.015 -0.372889 -4.14727 0
M  V30 4995 H 469.612 2.32735 -4.81392 0
M  V30 4996 H 469.955 2.72408 -3.14801 0
M  V30 4997 H 470.488 1.15782 -3.80578 0
M  V30 4998 H 467.227 -0.0371713 -6.55489 0
M  V30 4999 H 466.747 1.50327 -5.80656 0
M  V30 5000 H 468.426 1.25576 -6.34697 0
M  V30 5001 N 468.558 1.5553 0.254621 0
M  V30 5002 C 469.783 1.81383 1.00573 0
M  V30 5003 C 470.208 0.594419 1.78461 0
M  V30 5004 O 469.566 -0.456403 1.75461 0
M  V30 5005 C 469.614 3.04892 1.92545 0
M  V30 5006 O 468.718 2.81266 3.01601 0
M  V30 5007 H 468.059 0.598969 0.286587 0
M  V30 5008 H 470.589 2.02703 0.277952 0
M  V30 5009 H 470.599 3.34119 2.34155 0
M  V30 5010 H 469.274 3.93287 1.3527 0
M  V30 5011 H 467.851 2.63185 2.64174 0
M  V30 5012 N 470.036 -0.519951 1.48776 0
M  V30 5013 C 470.969 -1.64053 1.58625 0
M  V30 5014 C 471.947 -1.5664 0.43618 0
M  V30 5015 O 473.131 -1.76969 0.649159 0
M  V30 5016 C 470.258 -3.02497 1.52359 0
M  V30 5017 C 469.304 -3.28235 2.72331 0
M  V30 5018 S 470.137 -3.13414 4.34203 0
M  V30 5019 C 471.293 -4.54287 4.30551 0
M  V30 5020 H 471.526 -1.5545 2.53422 0
M  V30 5021 H 469.059 -0.703681 1.37433 0
M  V30 5022 H 471.017 -3.82336 1.4943 0
M  V30 5023 H 469.678 -3.08531 0.588824 0
M  V30 5024 H 468.871 -4.29256 2.64113 0
M  V30 5025 H 468.473 -2.56085 2.72574 0
M  V30 5026 H 470.765 -5.46006 4.01103 0
M  V30 5027 H 471.708 -4.67558 5.31785 0
M  V30 5028 H 472.116 -4.34079 3.60881 0
M  V30 5029 N 471.514 -1.37532 -0.769588 0
M  V30 5030 C 472.742 -1.36059 -1.55871 0
M  V30 5031 C 473.157 0.053544 -1.88724 0
M  V30 5032 O 472.514 1.01591 -1.5161 0
M  V30 5033 C 472.565 -2.20107 -2.86767 0
M  V30 5034 O 472.286 -3.56009 -2.55321 0
M  V30 5035 C 473.787 -2.26636 -3.80987 0
M  V30 5036 H 471.007 -0.465967 -0.482821 0
M  V30 5037 H 473.551 -1.80901 -0.953686 0
M  V30 5038 H 471.706 -1.78768 -3.43687 0
M  V30 5039 H 472.12 -4.0009 -3.39158 0
M  V30 5040 H 473.594 -2.89763 -4.69831 0
M  V30 5041 H 474.071 -1.2754 -4.20274 0
M  V30 5042 H 474.677 -2.68296 -3.29996 0
M  V30 5043 N 472.992 0.995999 -1.22138 0
M  V30 5044 C 473.939 2.08551 -0.988687 0
M  V30 5045 C 474.909 1.65864 0.0885021 0
M  V30 5046 O 476.094 1.90704 -0.0604589 0
M  V30 5047 C 473.234 3.40374 -0.569191 0
M  V30 5048 C 472.347 3.96421 -1.71681 0
M  V30 5049 C 471.482 5.1639 -1.2456 0
M  V30 5050 C 470.521 5.64567 -2.36497 0
M  V30 5051 N 469.658 6.75777 -1.90445 0
M  V30 5052 H 474.498 2.2779 -1.92135 0
M  V30 5053 H 472.035 1.1168 -0.957388 0
M  V30 5054 H 473.993 4.16068 -0.307166 0
M  V30 5055 H 472.623 3.21145 0.326462 0
M  V30 5056 H 471.675 3.17628 -2.09324 0
M  V30 5057 H 472.987 4.2816 -2.55891 0
M  V30 5058 H 472.141 5.99362 -0.940774 0
M  V30 5059 H 470.88 4.86266 -0.373662 0
M  V30 5060 H 469.885 4.80185 -2.67772 0
M  V30 5061 H 471.11 5.96716 -3.24202 0
M  V30 5062 H 469.056 6.47443 -1.05609 0
M  V30 5063 H 468.973 7.06818 -2.68223 0
M  V30 5064 H 470.241 7.62262 -1.63022 0
M  V30 5065 N 474.47 1.03057 1.19235 0
M  V30 5066 C 475.716 0.729098 1.89241 0
M  V30 5067 C 476.049 -0.740573 1.79525 0
M  V30 5068 O 475.324 -1.53946 1.18874 0
M  V30 5069 C 475.607 1.18304 3.40112 0
M  V30 5070 C 475.46 2.71406 3.5869 0
M  V30 5071 C 476.779 0.765161 4.33397 0
M  V30 5072 H 473.898 0.266338 0.687192 0
M  V30 5073 H 476.54 1.28079 1.40341 0
M  V30 5074 H 474.69 0.713672 3.81889 0
M  V30 5075 H 476.362 3.26303 3.26074 0
M  V30 5076 H 474.605 3.11717 3.01687 0
M  V30 5077 H 475.276 2.98225 4.64506 0
M  V30 5078 H 477.752 1.16889 3.99345 0
M  V30 5079 H 476.628 1.11065 5.37546 0
M  V30 5080 H 476.889 -0.332372 4.40849 0
M  V30 5081 N 475.948 -1.35272 0.808662 0
M  V30 5082 C 477.364 -1.51806 0.492653 0
M  V30 5083 C 477.564 -1.7574 -0.985778 0
M  V30 5084 O 476.62 -1.80003 -1.77074 0
M  V30 5085 C 477.933 -2.69202 1.33981 0
M  V30 5086 C 479.481 -2.8308 1.33547 0
M  V30 5087 C 479.956 -4.03502 2.16679 0
M  V30 5088 N 481.447 -4.10684 2.14227 0
M  V30 5089 C 482.182 -5.02984 2.75308 0
M  V30 5090 N 481.678 -6.00603 3.45323 0
M  V30 5091 N 483.471 -4.95746 2.64938 0
M  V30 5092 H 475.622 -1.17993 1.76611 0
M  V30 5093 H 477.885 -0.577476 0.751814 0
M  V30 5094 H 477.591 -2.581 2.38909 0
M  V30 5095 H 477.465 -3.63854 0.994491 0
M  V30 5096 H 479.852 -2.93631 0.294036 0
M  V30 5097 H 479.933 -1.89278 1.72068 0
M  V30 5098 H 479.577 -3.93711 3.20864 0
M  V30 5099 H 479.507 -4.96489 1.75517 0
M  V30 5100 H 481.998 -3.40802 1.63285 0
M  V30 5101 H 482.311 -6.67633 3.89212 0
M  V30 5102 H 480.656 -6.0077 3.49428 0
M  V30 5103 H 483.847 -4.18439 2.09825 0
M  V30 5104 H 484.02 -5.67487 3.12829 0
M  V30 5105 N 477.426 -0.562348 -1.47226 0
M  V30 5106 C 478.389 0.172056 -2.28553 0
M  V30 5107 C 479.389 0.837928 -1.37242 0
M  V30 5108 O 480.579 0.693001 -1.59822 0
M  V30 5109 C 477.711 1.25223 -3.17068 0
M  V30 5110 H 478.904 -0.542401 -2.94954 0
M  V30 5111 H 476.457 -0.319493 -1.53 0
M  V30 5112 H 477.192 1.99892 -2.55369 0
M  V30 5113 H 476.977 0.779515 -3.84273 0
M  V30 5114 H 478.467 1.76791 -3.78332 0
M  V30 5115 N 478.904 1.54736 -0.299062 0
M  V30 5116 C 479.834 2.26409 0.571085 0
M  V30 5117 C 480.815 1.2629 1.13951 0
M  V30 5118 O 482 1.55059 1.16921 0
M  V30 5119 C 479.13 3.00338 1.74396 0
M  V30 5120 C 478.084 4.07588 1.30599 0
M  V30 5121 C 477.41 4.69222 2.56387 0
M  V30 5122 C 478.71 5.20455 0.438645 0
M  V30 5123 H 480.404 2.99388 -0.0266991 0
M  V30 5124 H 477.95 1.43993 -0.0142812 0
M  V30 5125 H 479.903 3.49198 2.35878 0
M  V30 5126 H 478.627 2.24934 2.36796 0
M  V30 5127 H 477.286 3.59575 0.71424 0
M  V30 5128 H 476.934 3.9046 3.17097 0
M  V30 5129 H 476.634 5.41653 2.27784 0
M  V30 5130 H 478.158 5.20844 3.18675 0
M  V30 5131 H 479.572 5.65221 0.959085 0
M  V30 5132 H 477.969 5.99594 0.246466 0
M  V30 5133 H 479.039 4.8192 -0.536738 0
M  V30 5134 N 480.382 0.0267497 1.57577 0
M  V30 5135 C 481.312 -0.954308 2.13108 0
M  V30 5136 C 482.293 -1.34088 1.04663 0
M  V30 5137 O 483.478 -1.41992 1.32484 0
M  V30 5138 C 480.608 -2.23744 2.65624 0
M  V30 5139 C 479.562 -1.99168 3.78835 0
M  V30 5140 C 478.888 -3.33726 4.17769 0
M  V30 5141 C 480.188 -1.33277 5.0501 0
M  V30 5142 H 481.882 -0.491848 2.95332 0
M  V30 5143 H 479.428 -0.23514 1.42067 0
M  V30 5144 H 481.381 -2.92754 3.03106 0
M  V30 5145 H 480.105 -2.72151 1.80558 0
M  V30 5146 H 478.764 -1.32577 3.41788 0
M  V30 5147 H 478.412 -3.79888 3.29688 0
M  V30 5148 H 478.112 -3.18089 4.94058 0
M  V30 5149 H 479.636 -4.04008 4.57832 0
M  V30 5150 H 481.05 -1.92283 5.40093 0
M  V30 5151 H 479.447 -1.28045 5.8628 0
M  V30 5152 H 480.517 -0.305411 4.83937 0
M  V30 5153 N 481.861 -1.55662 -0.24637 0
M  V30 5154 C 483.277 -1.48098 -0.594907 0
M  V30 5155 C 483.477 -0.717044 -1.8831 0
M  V30 5156 O 482.533 -0.246618 -2.51293 0
M  V30 5157 C 483.846 -2.92507 -0.697146 0
M  V30 5158 C 485.394 -3.02881 -0.789436 0
M  V30 5159 C 485.869 -4.48598 -0.923232 0
M  V30 5160 N 487.36 -4.52538 -0.988088 0
M  V30 5161 C 488.095 -5.62536 -1.11089 0
M  V30 5162 N 487.591 -6.82342 -1.19919 0
M  V30 5163 N 489.384 -5.50334 -1.14408 0
M  V30 5164 H 481.535 -2.0377 0.599278 0
M  V30 5165 H 483.798 -0.925145 0.20691 0
M  V30 5166 H 483.504 -3.51242 0.179396 0
M  V30 5167 H 483.378 -3.43024 -1.5689 0
M  V30 5168 H 485.765 -2.44226 -1.65643 0
M  V30 5169 H 485.846 -2.55574 0.107482 0
M  V30 5170 H 485.49 -5.07864 -0.0607927 0
M  V30 5171 H 485.42 -4.93587 -1.8352 0
M  V30 5172 H 487.911 -3.66248 -0.931167 0
M  V30 5173 H 488.224 -7.61924 -1.29197 0
M  V30 5174 H 486.569 -6.85102 -1.16876 0
M  V30 5175 H 489.76 -4.5567 -1.07158 0
M  V30 5176 H 489.933 -6.36096 -1.23634 0
M  V30 5177 N 483.339 0.512053 -1.4905 0
M  V30 5178 C 484.249 1.64139 -1.67617 0
M  V30 5179 C 485.265 1.64786 -0.558701 0
M  V30 5180 O 486.441 1.8341 -0.832034 0
M  V30 5181 C 483.506 3.00548 -1.72835 0
M  V30 5182 C 482.567 3.10615 -2.96339 0
M  V30 5183 C 481.8 4.40517 -3.01298 0
M  V30 5184 O 482.023 5.28671 -2.14157 0
M  V30 5185 O 480.957 4.55325 -3.93653 0
M  V30 5186 H 484.783 1.51407 -2.63267 0
M  V30 5187 H 482.368 0.687131 -1.32661 0
M  V30 5188 H 484.25 3.81641 -1.78683 0
M  V30 5189 H 482.925 3.13566 -0.803616 0
M  V30 5190 H 481.832 2.2875 -2.96014 0
M  V30 5191 H 483.165 3.0252 -3.88256 0
M  V30 5192 N 484.817 1.37938 0.762283 0
M  V30 5193 C 486.065 1.33404 1.51815 0
M  V30 5194 C 486.386 -0.0780975 1.94844 0
M  V30 5195 O 485.656 -1.02405 1.67003 0
M  V30 5196 H 484.236 0.490839 0.563104 0
M  V30 5197 H 486.898 1.72527 0.906669 0
M  V30 5198 H 485.994 1.97926 2.41313 0
M  V30 5199 N 486.295 -0.989507 1.22664 0
M  V30 5200 C 487.242 -2.08024 0.999733 0
M  V30 5201 C 488.212 -1.65909 -0.0797047 0
M  V30 5202 O 489.397 -1.90669 0.0705715 0
M  V30 5203 C 486.537 -3.40067 0.587234 0
M  V30 5204 C 485.65 -3.95505 1.73781 0
M  V30 5205 C 484.785 -5.15722 1.27297 0
M  V30 5206 C 483.824 -5.63305 2.39488 0
M  V30 5207 N 482.961 -6.74758 1.94026 0
M  V30 5208 H 487.801 -2.26768 1.9334 0
M  V30 5209 H 485.338 -1.11171 0.963297 0
M  V30 5210 H 487.296 -4.15899 0.329227 0
M  V30 5211 H 485.926 -3.21314 -0.309426 0
M  V30 5212 H 484.978 -3.16513 2.11006 0
M  V30 5213 H 486.29 -4.26797 2.58158 0
M  V30 5214 H 485.444 -5.98854 0.972546 0
M  V30 5215 H 484.183 -4.86061 0.399445 0
M  V30 5216 H 483.188 -4.78759 2.70315 0
M  V30 5217 H 484.413 -5.94988 3.27362 0
M  V30 5218 H 482.359 -6.46874 1.09041 0
M  V30 5219 H 482.276 -7.05386 2.71968 0
M  V30 5220 H 483.544 -7.61387 1.67062 0
M  V30 5221 N 487.773 -1.03688 -1.18687 0
M  V30 5222 C 488.736 -0.629115 -2.20397 0
M  V30 5223 C 489.736 0.311495 -1.57754 0
M  V30 5224 O 490.926 0.0974107 -1.73927 0
M  V30 5225 C 488.058 0.0782231 -3.4081 0
M  V30 5226 H 489.251 -1.52915 -2.57987 0
M  V30 5227 H 486.804 -0.828988 -1.32505 0
M  V30 5228 H 487.539 0.992233 -3.08748 0
M  V30 5229 H 487.324 -0.597776 -3.87517 0
M  V30 5230 H 488.814 0.350156 -4.16129 0
M  V30 5231 N 489.251 1.34841 -0.815825 0
M  V30 5232 C 490.662 1.80937 -0.46029 0
M  V30 5233 C 491.013 1.67685 1.01863 0
M  V30 5234 O 490.138 1.21277 1.79223 0
M  V30 5235 C 490.733 3.28509 -0.828708 0
M  V30 5236 C 489.292 3.72712 -0.525644 0
M  V30 5237 C 488.439 2.56676 -1.04941 0
M  V30 5238 H 491.39 1.22688 -1.00664 0
M  V30 5239 H 491.411 3.80279 -0.129757 0
M  V30 5240 H 490.923 3.38122 -1.90513 0
M  V30 5241 H 489.024 3.68642 0.541666 0
M  V30 5242 H 489.137 4.67119 -1.06474 0
M  V30 5243 H 487.501 2.50302 -0.471286 0
M  V30 5244 H 488.284 2.69063 -2.13214 0
M  V30 5245 N 490.729 0.570148 1.46925 0
M  V30 5246 C 492.14 0.1402 1.86173 0
M  V30 5247 C 492.491 -1.29347 1.47526 0
M  V30 5248 O 491.616 -1.97508 0.884292 0
M  V30 5249 C 492.211 0.247661 3.37894 0
M  V30 5250 C 490.77 -0.127332 3.76185 0
M  V30 5251 C 489.917 0.589349 2.70965 0
M  V30 5252 H 492.868 0.779117 1.38259 0
M  V30 5253 H 492.889 -0.530341 3.76786 0
M  V30 5254 H 492.401 1.29121 3.65991 0
M  V30 5255 H 490.502 -1.17149 3.53704 0
M  V30 5256 H 490.615 0.240238 4.78497 0
M  V30 5257 H 488.979 0.0309824 2.54681 0
M  V30 5258 H 489.762 1.6343 3.01903 0
M  V30 5259 N 492.207 -1.54576 0.307264 0
M  V30 5260 C 493.432 -2.05139 -0.305379 0
M  V30 5261 C 493.857 -1.18278 -1.46259 0
M  V30 5262 O 493.215 -0.188243 -1.8032 0
M  V30 5263 C 493.263 -3.53066 -0.733283 0
M  V30 5264 O 492.367 -3.69206 -1.83741 0
M  V30 5265 H 491.708 -0.661444 -0.0582105 0
M  V30 5266 H 494.238 -1.99569 0.450931 0
M  V30 5267 H 494.248 -3.95034 -1.02039 0
M  V30 5268 H 492.923 -4.15746 0.113198 0
M  V30 5269 H 491.5 -3.39143 -1.55037 0
M  V30 5270 N 493.685 -0.035106 -1.57561 0
M  V30 5271 C 494.595 0.960295 -2.14046 0
M  V30 5272 C 495.611 1.3529 -1.0942 0
M  V30 5273 O 496.787 1.43309 -1.41508 0
M  V30 5274 C 493.852 2.22214 -2.66124 0
M  V30 5275 C 492.913 1.8894 -3.85487 0
M  V30 5276 C 492.146 3.09109 -4.35072 0
M  V30 5277 O 492.369 4.21963 -3.83802 0
M  V30 5278 O 491.303 2.91058 -5.26848 0
M  V30 5279 H 495.129 0.509983 -2.99387 0
M  V30 5280 H 492.714 0.185853 -1.48239 0
M  V30 5281 H 494.596 2.96279 -2.99661 0
M  V30 5282 H 493.271 2.66414 -1.83862 0
M  V30 5283 H 492.178 1.12241 -3.56865 0
M  V30 5284 H 493.511 1.49551 -4.6893 0
M  V30 5285 N 495.163 1.55791 0.238111 0
M  V30 5286 C 496.093 1.94068 1.29846 0
M  V30 5287 C 497.074 0.806726 1.49753 0
M  V30 5288 O 498.259 1.06772 1.62214 0
M  V30 5289 C 495.389 2.24302 2.65153 0
M  V30 5290 C 494.343 3.40032 2.59927 0
M  V30 5291 C 493.669 3.55829 3.99111 0
M  V30 5292 C 494.969 4.75476 2.16148 0
M  V30 5293 H 496.663 2.82887 0.980563 0
M  V30 5294 H 494.209 1.36105 0.470253 0
M  V30 5295 H 496.162 2.4967 3.39475 0
M  V30 5296 H 494.886 1.32318 2.98596 0
M  V30 5297 H 493.545 3.14687 1.88063 0
M  V30 5298 H 493.193 2.6125 4.29834 0
M  V30 5299 H 492.893 4.3366 3.96501 0
M  V30 5300 H 494.417 3.83528 4.7512 0
M  V30 5301 H 495.831 5.00158 2.80205 0
M  V30 5302 H 494.228 5.56472 2.24631 0
M  V30 5303 H 495.298 4.71946 1.11333 0
M  V30 5304 N 496.642 -0.504142 1.49319 0
M  V30 5305 C 497.888 -1.26033 1.58882 0
M  V30 5306 C 498.221 -1.92268 0.273274 0
M  V30 5307 O 497.496 -1.80567 -0.72291 0
M  V30 5308 C 497.779 -2.32976 2.7458 0
M  V30 5309 C 497.632 -1.71263 4.1592 0
M  V30 5310 C 498.951 -3.34561 2.85932 0
M  V30 5311 H 496.07 -0.456863 0.578312 0
M  V30 5312 H 498.712 -0.558965 1.81592 0
M  V30 5313 H 496.862 -2.92796 2.55348 0
M  V30 5314 H 498.534 -1.15294 4.4666 0
M  V30 5315 H 496.777 -1.01686 4.21714 0
M  V30 5316 H 497.448 -2.48816 4.92742 0
M  V30 5317 H 499.924 -2.84727 3.0343 0
M  V30 5318 H 498.8 -4.06754 3.68568 0
M  V30 5319 H 499.061 -3.96695 1.95154 0
M  V30 5320 N 498.12 -1.38341 -0.754957 0
M  V30 5321 C 499.536 -1.19508 -1.05783 0
M  V30 5322 C 499.736 -0.0428005 -2.01455 0
M  V30 5323 O 498.792 0.611861 -2.44975 0
M  V30 5324 C 500.105 -2.52091 -1.63923 0
M  V30 5325 C 501.653 -2.58762 -1.76101 0
M  V30 5326 C 502.128 -3.91517 -2.37652 0
M  V30 5327 N 503.619 -3.93049 -2.45085 0
M  V30 5328 C 504.354 -4.9253 -2.93602 0
M  V30 5329 N 503.85 -6.02408 -3.42165 0
M  V30 5330 N 505.643 -4.79921 -2.92629 0
M  V30 5331 H 497.794 -2.1206 -0.120056 0
M  V30 5332 H 500.057 -0.94089 -0.11589 0
M  V30 5333 H 499.763 -3.36858 -1.01093 0
M  V30 5334 H 499.637 -2.70388 -2.63003 0
M  V30 5335 H 502.024 -1.74391 -2.38058 0
M  V30 5336 H 502.105 -2.44333 -0.757294 0
M  V30 5337 H 501.749 -4.76309 -1.76329 0
M  V30 5338 H 501.679 -4.03256 -3.38662 0
M  V30 5339 H 504.17 -3.13685 -2.10736 0
M  V30 5340 H 504.483 -6.74248 -3.77637 0
M  V30 5341 H 502.828 -6.0603 -3.40225 0
M  V30 5342 H 506.019 -3.93194 -2.54001 0
M  V30 5343 H 506.192 -5.57601 -3.30128 0
M  V30 5344 N 499.598 0.982988 -1.23187 0
M  V30 5345 C 501.009 1.53847 -1.05773 0
M  V30 5346 C 501.36 1.92568 0.375744 0
M  V30 5347 O 500.485 1.75783 1.26211 0
M  V30 5348 C 501.08 2.79567 -1.91384 0
M  V30 5349 C 499.639 3.31524 -1.78238 0
M  V30 5350 C 498.786 2.04534 -1.87246 0
M  V30 5351 H 501.737 0.802962 -1.36888 0
M  V30 5352 H 501.758 3.52317 -1.43711 0
M  V30 5353 H 501.27 2.51353 -2.95708 0
M  V30 5354 H 499.371 3.64623 -0.766875 0
M  V30 5355 H 499.484 4.01457 -2.61475 0
M  V30 5356 H 497.848 2.1855 -1.30797 0
M  V30 5357 H 498.631 1.78706 -2.9312 0
M  V30 5358 N 501.076 1.04316 1.18135 0
M  V30 5359 C 501.986 0.646876 2.25505 0
M  V30 5360 C 503.002 -0.328008 1.7088 0
M  V30 5361 O 504.178 -0.182309 2.00573 0
M  V30 5362 C 501.243 0.0185664 3.46695 0
M  V30 5363 C 500.304 1.04277 4.16443 0
M  V30 5364 C 499.537 0.444352 5.31847 0
M  V30 5365 O 499.76 -0.748735 5.65465 0
M  V30 5366 O 498.694 1.17428 5.90334 0
M  V30 5367 H 502.52 1.54147 2.61672 0
M  V30 5368 H 500.105 0.814188 1.25265 0
M  V30 5369 H 501.987 -0.331068 4.20097 0
M  V30 5370 H 500.662 -0.849814 3.12346 0
M  V30 5371 H 499.569 1.44425 3.45098 0
M  V30 5372 H 500.902 1.882 4.54798 0
M  V30 5373 N 502.554 -1.34406 0.822964 0
M  V30 5374 C 503.484 -2.32052 0.259608 0
M  V30 5375 C 504.465 -1.58243 -0.623961 0
M  V30 5376 O 505.65 -1.86224 -0.55083 0
M  V30 5377 C 502.78 -3.42434 -0.579314 0
M  V30 5378 C 501.734 -4.27499 0.20712 0
M  V30 5379 C 501.06 -5.29349 -0.754547 0
M  V30 5380 C 502.36 -5.02758 1.41533 0
M  V30 5381 H 504.054 -2.79418 1.07545 0
M  V30 5382 H 501.6 -1.34338 0.518593 0
M  V30 5383 H 503.553 -4.0976 -0.983612 0
M  V30 5384 H 502.277 -2.93717 -1.4282 0
M  V30 5385 H 500.936 -3.61776 0.592787 0
M  V30 5386 H 500.584 -4.76895 -1.59939 0
M  V30 5387 H 500.284 -5.8714 -0.232561 0
M  V30 5388 H 501.808 -5.99544 -1.1567 0
M  V30 5389 H 503.222 -5.62938 1.08504 0
M  V30 5390 H 501.619 -5.70123 1.87296 0
M  V30 5391 H 502.689 -4.32451 2.1935 0
M  V30 5392 N 504.032 -0.577932 -1.46621 0
M  V30 5393 C 504.962 0.145917 -2.33044 0
M  V30 5394 C 505.943 0.888412 -1.45056 0
M  V30 5395 O 507.128 0.864812 -1.73881 0
M  V30 5396 C 504.258 1.16322 -3.27241 0
M  V30 5397 C 503.212 0.535868 -4.24632 0
M  V30 5398 C 502.538 1.65929 -5.08303 0
M  V30 5399 C 503.838 -0.523861 -5.19666 0
M  V30 5400 H 505.532 -0.575636 -2.93814 0
M  V30 5401 H 503.078 -0.278272 -1.41286 0
M  V30 5402 H 505.031 1.67793 -3.86553 0
M  V30 5403 H 503.755 1.91498 -2.64567 0
M  V30 5404 H 502.414 0.0422759 -3.66576 0
M  V30 5405 H 502.062 2.40061 -4.42018 0
M  V30 5406 H 501.762 1.2452 -5.74255 0
M  V30 5407 H 503.286 2.17686 -5.70478 0
M  V30 5408 H 504.7 -0.0944059 -5.73222 0
M  V30 5409 H 503.097 -0.858 -5.93935 0
M  V30 5410 H 504.167 -1.41197 -4.63887 0
M  V30 5411 N 505.51 1.54411 -0.315457 0
M  V30 5412 C 506.921 1.85885 0.174265 0
M  V30 5413 C 507.272 1.23723 1.52273 0
M  V30 5414 O 506.397 0.540246 2.09548 0
M  V30 5415 C 506.992 3.37257 0.322981 0
M  V30 5416 C 505.551 3.68711 0.756922 0
M  V30 5417 C 504.698 2.77013 -0.126195 0
M  V30 5418 H 507.649 1.49374 -0.536007 0
M  V30 5419 H 507.67 3.62539 1.15522 0
M  V30 5420 H 507.182 3.82471 -0.658602 0
M  V30 5421 H 505.283 3.29024 1.74854 0
M  V30 5422 H 505.396 4.75741 0.566291 0
M  V30 5423 H 503.76 2.51588 0.39692 0
M  V30 5424 H 504.543 3.25051 -1.1044 0
M  V30 5425 N 506.988 0.0434614 1.5754 0
M  V30 5426 C 508.237 -0.631454 1.91561 0
M  V30 5427 C 508.55 -1.72457 0.92292 0
M  V30 5428 O 509.756 -2.45712 1.15489 0
M  V30 5429 C 508.212 -1.17447 3.40197 0
M  V30 5430 C 507.82 -0.113867 4.47855 0
M  V30 5431 C 509.564 -1.82507 3.83264 0
M  V30 5432 C 507.471 -0.669326 5.876 0
M  V30 5433 H 506.401 -0.239629 0.714908 0
M  V30 5434 H 509.052 0.111097 1.83163 0
M  V30 5435 H 507.434 -1.96909 3.43574 0
M  V30 5436 H 508.608 0.659348 4.56058 0
M  V30 5437 H 506.923 0.438821 4.14081 0
M  V30 5438 H 509.52 -2.25047 4.85034 0
M  V30 5439 H 509.863 -2.67365 3.19095 0
M  V30 5440 H 510.396 -1.09712 3.82372 0
M  V30 5441 H 507.135 0.141449 6.55347 0
M  V30 5442 H 506.655 -1.4107 5.82974 0
M  V30 5443 H 508.334 -1.15463 6.36614 0
M  V30 5444 N 508.466 -1.55915 -0.229846 0
M  V30 5445 C 509.396 -1.94754 -1.28815 0
M  V30 5446 C 510.377 -0.814657 -1.49323 0
M  V30 5447 O 511.562 -1.07631 -1.61645 0
M  V30 5448 C 508.692 -2.25705 -2.63959 0
M  V30 5449 C 507.646 -3.41406 -2.5812 0
M  V30 5450 C 506.972 -3.57941 -3.97218 0
M  V30 5451 C 508.272 -4.76616 -2.13623 0
M  V30 5452 H 509.966 -2.83404 -0.965547 0
M  V30 5453 H 507.512 -1.36353 -0.463028 0
M  V30 5454 H 509.465 -2.51467 -3.38146 0
M  V30 5455 H 508.189 -1.339 -2.9789 0
M  V30 5456 H 506.848 -3.1568 -1.86391 0
M  V30 5457 H 506.496 -2.63526 -4.28443 0
M  V30 5458 H 506.196 -4.35757 -3.94195 0
M  V30 5459 H 507.72 -3.86042 -4.73079 0
M  V30 5460 H 509.134 -5.01637 -2.77549 0
M  V30 5461 H 507.531 -5.57655 -2.21677 0
M  V30 5462 H 508.601 -4.7253 -1.08829 0
M  V30 5463 N 509.944 0.496216 -1.49584 0
M  V30 5464 C 511.36 0.827814 -1.36453 0
M  V30 5465 C 511.56 1.97464 -0.401285 0
M  V30 5466 O 510.616 2.51958 0.165296 0
M  V30 5467 C 511.929 1.16352 -2.77277 0
M  V30 5468 C 513.477 1.27145 -2.86013 0
M  V30 5469 C 513.952 1.64042 -4.27615 0
M  V30 5470 N 515.443 1.71082 -4.30448 0
M  V30 5471 C 516.178 2.01085 -5.36984 0
M  V30 5472 N 515.674 2.2928 -6.5376 0
M  V30 5473 N 517.467 2.02376 -5.24405 0
M  V30 5474 H 509.618 -0.259947 -2.10803 0
M  V30 5475 H 511.881 -0.0537163 -0.946477 0
M  V30 5476 H 511.587 0.394153 -3.49484 0
M  V30 5477 H 511.461 2.10582 -3.12946 0
M  V30 5478 H 513.848 2.03152 -2.1404 0
M  V30 5479 H 513.929 0.309542 -2.5392 0
M  V30 5480 H 513.573 0.88583 -5.00115 0
M  V30 5481 H 513.503 2.6134 -4.57175 0
M  V30 5482 H 515.994 1.51434 -3.46232 0
M  V30 5483 H 516.307 2.51376 -7.30774 0
M  V30 5484 H 514.652 2.26726 -6.56978 0
M  V30 5485 H 517.843 1.79829 -4.32179 0
M  V30 5486 H 518.016 2.25425 -6.07526 0
M  V30 5487 N 511.423 1.38739 0.74761 0
M  V30 5488 C 512.839 1.20067 1.05148 0
M  V30 5489 C 513.039 0.0534835 2.01429 0
M  V30 5490 O 512.095 -0.59886 2.45296 0
M  V30 5491 C 513.408 2.52957 1.62584 0
M  V30 5492 C 514.956 2.59692 1.74726 0
M  V30 5493 C 515.431 3.92772 2.35573 0
M  V30 5494 N 516.922 3.94343 2.42997 0
M  V30 5495 C 517.657 4.9408 2.90985 0
M  V30 5496 N 517.153 6.04214 3.38965 0
M  V30 5497 N 518.946 4.81466 2.9008 0
M  V30 5498 H 511.097 2.12121 0.108808 0
M  V30 5499 H 513.36 0.941491 0.110899 0
M  V30 5500 H 513.066 3.37389 0.993051 0
M  V30 5501 H 512.94 2.71779 2.61565 0
M  V30 5502 H 515.327 1.75651 2.3713 0
M  V30 5503 H 515.408 2.44731 0.744326 0
M  V30 5504 H 515.052 4.77238 1.738 0
M  V30 5505 H 514.982 4.05046 3.36519 0
M  V30 5506 H 517.473 3.14799 2.0907 0
M  V30 5507 H 517.786 6.76241 3.74056 0
M  V30 5508 H 516.131 6.07825 3.37007 0
M  V30 5509 H 519.322 3.94535 2.51912 0
M  V30 5510 H 519.495 5.59344 3.27166 0
M  V30 5511 N 512.901 -0.976442 1.23707 0
M  V30 5512 C 514.149 -1.71487 1.06942 0
M  V30 5513 C 514.47 -1.9098 -0.393897 0
M  V30 5514 O 513.74 -1.48128 -1.28198 0
M  V30 5515 H 512.32 -0.635425 0.392739 0
M  V30 5516 H 514.982 -1.17515 1.55487 0
M  V30 5517 H 514.078 -2.70286 1.56051 0
M  V30 5518 N 514.379 -1.04941 -1.1758 0
M  V30 5519 C 515.625 -0.759112 -1.88057 0
M  V30 5520 C 515.958 0.711918 -1.8068 0
M  V30 5521 O 515.233 1.52035 -1.21308 0
M  V30 5522 C 515.516 -1.237 -3.38187 0
M  V30 5523 C 515.369 -2.77078 -3.54327 0
M  V30 5524 C 516.688 -0.834014 -4.32125 0
M  V30 5525 H 513.807 -0.277237 -0.682868 0
M  V30 5526 H 516.449 -1.30296 -1.38286 0
M  V30 5527 H 514.599 -0.774337 -3.80705 0
M  V30 5528 H 516.271 -3.31449 -3.20842 0
M  V30 5529 H 514.514 -3.16477 -2.96689 0
M  V30 5530 H 515.185 -3.05577 -4.59703 0
M  V30 5531 H 517.661 -1.23228 -3.97434 0
M  V30 5532 H 516.537 -1.19603 -5.35711 0
M  V30 5533 H 516.798 0.262195 -4.41322 0
M  V30 5534 O 515.896 1.29495 -0.96506 0
M  V30 5535 H 516.587 1.84082 -0.602793 0
M  V30 END ATOM
M  V30 BEGIN BOND
M  V30 END BOND
M  V30 END CTAB
M  END
$$$$
