drugbank_target|Q5SL87 Holliday junction ATP-dependent DNA helicase RuvB (DB00173)
 OpenBabel12092120243D

  0  0  0     0  0            999 V3000
M  V30 BEGIN CTAB
M  V30 COUNTS 13367 14373 0 0 0
M  V30 BEGIN ATOM
M  V30 1 H -1.547 9.37743 -1.21644 0
M  V30 2 O -1.44 8.89599 -0.40059 0
M  V30 3 P 0 8.91 0 0
M  V30 4 O 0.22 10.1746 0.733838 0
M  V30 5 O 0.79 8.73346 -1.23964 0
M  V30 6 O 0.25 7.66872 0.971405 0
M  V30 7 C -0.69 7.42405 2.04668 0
M  V30 8 C 0.04 6.86059 3.24661 0
M  V30 9 O 0.25 5.42934 3.03695 0
M  V30 10 C 1.44 7.41287 3.50796 0
M  V30 11 O 1.83 7.27073 4.86816 0
M  V30 12 C 2.32 6.5273 2.63741 0
M  V30 13 C 1.61 5.1842 2.73198 0
M  V30 14 N 1.66 4.38762 1.4784 0
M  V30 15 H -1.178 8.36899 2.3252 0
M  V30 16 H -1.45 6.70391 1.71179 0
M  V30 17 H -0.582 7.03638 4.13219 0
M  V30 18 H 2.073 4.59931 3.54016 0
M  V30 19 H 2.353 6.88995 1.59871 0
M  V30 20 H 3.344 6.4684 3.0373 0
M  V30 21 H 1.51 8.47002 3.20749 0
M  V30 22 P 3.37998 7.20834 5.23717 0
M  V30 23 O 3.59998 7.79853 6.57286 0
M  V30 24 O 4.16998 7.79239 4.12957 0
M  V30 25 O 3.62998 5.63315 5.29344 0
M  V30 26 C 2.68998 4.80255 6.01876 0
M  V30 27 C 3.41998 3.64202 6.65911 0
M  V30 28 O 3.62998 2.60694 5.64732 0
M  V30 29 C 4.81998 3.93473 7.1943 0
M  V30 30 O 5.20998 3.02071 8.21205 0
M  V30 31 C 5.69998 3.73047 5.97036 0
M  V30 32 C 4.98998 2.58828 5.25741 0
M  V30 33 N 5.03998 2.68068 3.77503 0
M  V30 34 H 2.20098 5.40332 6.79951 0
M  V30 35 H 1.93098 4.41613 5.32378 0
M  V30 36 H 2.79798 3.26331 7.47797 0
M  V30 37 P 6.75996 2.75334 8.47391 0
M  V30 38 O 6.97996 2.44571 9.90142 0
M  V30 39 O 7.54996 3.87688 7.92115 0
M  V30 40 O 7.00996 1.4459 7.59357 0
M  V30 41 C 6.06996 0.347608 7.69215 0
M  V30 42 C 6.79996 -0.96767 7.52806 0
M  V30 43 O 7.00996 -1.21036 6.1011 0
M  V30 44 C 8.19996 -1.04544 8.13308 0
M  V30 45 O 8.58996 -2.38311 8.41922 0
M  V30 46 C 9.07996 -0.491279 7.02284 0
M  V30 47 C 8.36996 -0.996264 5.77469 0
M  V30 48 N 8.41996 -0.0501916 4.62973 0
M  V30 49 H 5.58096 0.374722 8.67691 0
M  V30 50 H 5.31096 0.443485 6.90277 0
M  V30 51 H 6.17796 -1.75537 7.96793 0
M  V30 52 P 10.1399 -2.75334 8.47391 0
M  V30 53 O 10.3599 -3.84128 9.44797 0
M  V30 54 O 10.9299 -1.51947 8.68712 0
M  V30 55 O 10.3899 -3.29363 6.99321 0
M  V30 56 C 9.44994 -4.24011 6.4274 0
M  V30 57 C 10.1799 -5.20775 5.52155 0
M  V30 58 O 10.3899 -4.56534 4.22446 0
M  V30 59 C 11.5799 -5.62629 5.96531 0
M  V30 60 O 11.9699 -6.87667 5.41053 0
M  V30 61 C 12.4599 -4.52537 5.39283 0
M  V30 62 C 11.7499 -4.20027 4.08623 0
M  V30 63 N 11.7999 -2.76189 3.71603 0
M  V30 64 H 8.96094 -4.797 7.24003 0
M  V30 65 H 8.69094 -3.69856 5.84513 0
M  V30 66 H 9.55794 -6.10356 5.41441 0
M  V30 67 P 13.5199 -7.20834 5.23717 0
M  V30 68 O 13.7399 -8.66274 5.38678 0
M  V30 69 O 14.3099 -6.33687 6.13629 0
M  V30 70 O 13.7699 -6.7751 3.72168 0
M  V30 71 C 12.8299 -7.20919 2.70795 0
M  V30 72 C 13.5599 -7.45864 1.40599 0
M  V30 73 O 13.7699 -6.17751 0.734343 0
M  V30 74 C 14.9599 -8.05906 1.51917 0
M  V30 75 O 15.3499 -8.74358 0.335205 0
M  V30 76 C 15.8399 -6.83093 1.70294 0
M  V30 77 C 15.1299 -5.79992 0.836974 0
M  V30 78 N 15.1799 -4.41864 1.38293 0
M  V30 79 C 15.0999 -4.02089 2.69407 0
M  V30 80 N 15.1699 -2.73403 2.85089 0
M  V30 81 C 15.3199 -2.25086 1.5642 0
M  V30 82 C 15.4499 -0.942887 1.04836 0
M  V30 83 N 15.4599 0.150999 1.80369 0
M  V30 84 N 15.5699 -0.812565 -0.28167 0
M  V30 85 C 15.5599 -1.90572 -1.03784 0
M  V30 86 N 15.4399 -3.167 -0.683905 0
M  V30 87 C 15.3199 -3.26538 0.652815 0
M  V30 88 H 12.3419 -8.13738 3.03804 0
M  V30 89 H 12.0699 -6.42974 2.55559 0
M  V30 90 H 12.9379 -8.12139 0.792866 0
M  V30 91 H 15.5929 -5.80178 -0.160643 0
M  V30 92 H 15.8729 -6.51379 2.75643 0
M  V30 93 H 16.8639 -7.01832 1.3448 0
M  V30 94 H 15.0299 -8.73771 2.38364 0
M  V30 95 H 14.9889 -4.7189 3.52311 0
M  V30 96 H 15.3699 0.0721434 2.82608 0
M  V30 97 H 15.5589 1.0785 1.36544 0
M  V30 98 H 15.6669 -1.73207 -2.10241 0
M  V30 99 P 16.8999 -8.91 1.09116e-15 0
M  V30 100 O 17.1199 -10.1726 -0.733694 0
M  V30 101 O 17.6899 -8.73148 1.23936 0
M  V30 102 O 17.1499 -7.66872 -0.971405 0
M  V30 103 C 16.2099 -7.42309 -2.04641 0
M  V30 104 C 16.9399 -6.86059 -3.24661 0
M  V30 105 O 17.1499 -5.42847 -3.03646 0
M  V30 106 C 18.3399 -7.41196 -3.50753 0
M  V30 107 O 18.7299 -7.27073 -4.86816 0
M  V30 108 C 19.2199 -6.5273 -2.63741 0
M  V30 109 C 18.5099 -5.1842 -2.73198 0
M  V30 110 N 18.5599 -4.38762 -1.4784 0
M  V30 111 H 15.7209 -8.36803 -2.32493 0
M  V30 112 H 15.4509 -6.70197 -1.71129 0
M  V30 113 H 16.3179 -7.03551 -4.13168 0
M  V30 114 P 20.2799 -7.20834 -5.23717 0
M  V30 115 O 20.4999 -7.79853 -6.57286 0
M  V30 116 O 21.0699 -7.79239 -4.12957 0
M  V30 117 O 20.5299 -5.63315 -5.29344 0
M  V30 118 C 19.5899 -4.80255 -6.01876 0
M  V30 119 C 20.3199 -3.64202 -6.65911 0
M  V30 120 O 20.5299 -2.60694 -5.64732 0
M  V30 121 C 21.7199 -3.93473 -7.1943 0
M  V30 122 O 22.1099 -3.02071 -8.21205 0
M  V30 123 C 22.5999 -3.73047 -5.97036 0
M  V30 124 C 21.8899 -2.58828 -5.25741 0
M  V30 125 N 21.9399 -2.68068 -3.77503 0
M  V30 126 C 21.8599 -3.79715 -2.96723 0
M  V30 127 N 21.9399 -3.5377 -1.68852 0
M  V30 128 C 22.0799 -2.15054 -1.63254 0
M  V30 129 C 22.2099 -1.28964 -0.518571 0
M  V30 130 N 22.3299 0.0538097 -0.918425 0
M  V30 131 C 22.3299 0.494275 -2.22578 0
M  V30 132 N 22.4599 1.81086 -2.40434 0
M  V30 133 N 22.1999 -0.313645 -3.27502 0
M  V30 134 C 22.0799 -1.61829 -2.91033 0
M  V30 135 H 19.1009 -5.40332 -6.79951 0
M  V30 136 H 18.8309 -4.41613 -5.32378 0
M  V30 137 H 19.6979 -3.26331 -7.47797 0
M  V30 138 P 23.6599 -2.75334 -8.47391 0
M  V30 139 O 23.8799 -2.44571 -9.90142 0
M  V30 140 O 24.4499 -3.87688 -7.92115 0
M  V30 141 O 23.9099 -1.4459 -7.59357 0
M  V30 142 C 22.9699 -0.347608 -7.69215 0
M  V30 143 C 23.6999 0.96767 -7.52806 0
M  V30 144 O 23.9099 1.21036 -6.1011 0
M  V30 145 C 25.0999 1.04544 -8.13308 0
M  V30 146 O 25.4899 2.38311 -8.41922 0
M  V30 147 C 25.9799 0.491279 -7.02284 0
M  V30 148 C 25.2699 0.996264 -5.77469 0
M  V30 149 N 25.3199 0.0501916 -4.62973 0
M  V30 150 H 22.4809 -0.374722 -8.67691 0
M  V30 151 H 22.2109 -0.443485 -6.90277 0
M  V30 152 H 23.0779 1.75537 -7.96793 0
M  V30 153 P 27.0398 2.75334 -8.47391 0
M  V30 154 O 27.2598 3.84128 -9.44797 0
M  V30 155 O 27.8298 1.51947 -8.68712 0
M  V30 156 O 27.2898 3.29363 -6.99321 0
M  V30 157 C 26.3498 4.24011 -6.4274 0
M  V30 158 C 27.0798 5.20775 -5.52155 0
M  V30 159 O 27.2898 4.56534 -4.22446 0
M  V30 160 C 28.4798 5.62629 -5.96531 0
M  V30 161 O 28.8698 6.87667 -5.41053 0
M  V30 162 C 29.3598 4.52537 -5.39283 0
M  V30 163 C 28.6498 4.20027 -4.08623 0
M  V30 164 N 28.6998 2.76189 -3.71603 0
M  V30 165 H 25.8608 4.797 -7.24003 0
M  V30 166 H 25.5908 3.69856 -5.84513 0
M  V30 167 H 26.4578 6.10356 -5.41441 0
M  V30 168 P 30.4198 7.20834 -5.23717 0
M  V30 169 O 30.6398 8.66189 -5.38625 0
M  V30 170 O 31.2098 6.33615 -6.1356 0
M  V30 171 O 30.6698 6.7751 -3.72168 0
M  V30 172 C 29.7298 7.20732 -2.70725 0
M  V30 173 C 30.4598 7.45864 -1.40599 0
M  V30 174 O 30.6698 6.17651 -0.734225 0
M  V30 175 C 31.8598 8.05808 -1.51899 0
M  V30 176 O 32.2498 8.74358 -0.335205 0
M  V30 177 C 32.7398 6.83093 -1.70294 0
M  V30 178 C 32.0298 5.79992 -0.836974 0
M  V30 179 N 32.0798 4.41769 -1.38263 0
M  V30 180 C 32.2298 3.38591 -0.481702 0
M  V30 181 O 32.3198 3.56839 0.718452 0
M  V30 182 N 32.2698 2.1206 -1.03569 0
M  V30 183 C 32.1798 1.80696 -2.36966 0
M  V30 184 O 32.2298 0.630473 -2.74862 0
M  V30 185 C 32.0298 2.94845 -3.23898 0
M  V30 186 C 31.9198 2.65253 -4.70362 0
M  V30 187 C 31.9798 4.19803 -2.73435 0
M  V30 188 H 29.2398 8.13644 -3.0377 0
M  V30 189 H 28.9708 6.42695 -2.55448 0
M  V30 190 H 29.8378 8.12039 -0.792769 0
M  V30 191 H 32.4928 5.79978 0.160587 0
M  V30 192 H 32.7718 6.51379 -2.75643 0
M  V30 193 H 33.7638 7.01734 -1.34462 0
M  V30 194 H 31.9298 8.73674 -2.38337 0
M  V30 195 H 31.8588 5.04492 -3.4095 0
M  V30 196 H 32.8888 2.83924 -5.1913 0
M  V30 197 H 31.1518 3.29824 -5.15163 0
M  V30 198 H 31.6398 1.59723 -4.84449 0
M  V30 199 H 32.3758 1.35644 -0.399345 0
M  V30 200 P 33.7998 8.91 -2.18232e-15 0
M  V30 201 O 34.0198 10.1726 0.733694 0
M  V30 202 O 34.5898 8.73148 -1.23936 0
M  V30 203 O 34.0498 7.66872 0.971405 0
M  V30 204 C 33.1098 7.42309 2.04641 0
M  V30 205 C 33.8398 6.86059 3.24661 0
M  V30 206 O 34.0498 5.42847 3.03646 0
M  V30 207 C 35.2398 7.41196 3.50753 0
M  V30 208 O 35.6298 7.27073 4.86816 0
M  V30 209 C 36.1198 6.5273 2.63741 0
M  V30 210 C 35.4098 5.1842 2.73198 0
M  V30 211 N 35.4598 4.38762 1.4784 0
M  V30 212 H 32.6208 8.36803 2.32493 0
M  V30 213 H 32.3508 6.70197 1.71129 0
M  V30 214 H 33.2178 7.03551 4.13168 0
M  V30 215 P 37.1798 7.20834 5.23717 0
M  V30 216 O 37.3998 7.79853 6.57286 0
M  V30 217 O 37.9698 7.79239 4.12957 0
M  V30 218 O 37.4298 5.63315 5.29344 0
M  V30 219 C 36.4898 4.80255 6.01876 0
M  V30 220 C 37.2198 3.64202 6.65911 0
M  V30 221 O 37.4298 2.60694 5.64732 0
M  V30 222 C 38.6198 3.93473 7.1943 0
M  V30 223 O 39.0098 3.02071 8.21205 0
M  V30 224 C 39.4998 3.73047 5.97036 0
M  V30 225 C 38.7898 2.58828 5.25741 0
M  V30 226 N 38.8398 2.68068 3.77503 0
M  V30 227 H 36.0008 5.40332 6.79951 0
M  V30 228 H 35.7308 4.41613 5.32378 0
M  V30 229 H 36.5978 3.26331 7.47797 0
M  V30 230 P 40.5598 2.75334 8.47391 0
M  V30 231 O 40.7798 2.44571 9.90142 0
M  V30 232 O 41.3498 3.87688 7.92115 0
M  V30 233 O 40.8098 1.4459 7.59357 0
M  V30 234 C 39.8698 0.347608 7.69215 0
M  V30 235 C 40.5998 -0.96767 7.52806 0
M  V30 236 O 40.8098 -1.21036 6.1011 0
M  V30 237 C 41.9998 -1.04544 8.13308 0
M  V30 238 O 42.3898 -2.38311 8.41922 0
M  V30 239 C 42.8798 -0.491279 7.02284 0
M  V30 240 C 42.1698 -0.996264 5.77469 0
M  V30 241 N 42.2198 -0.0501916 4.62973 0
M  V30 242 H 39.3808 0.374722 8.67691 0
M  V30 243 H 39.1108 0.443485 6.90277 0
M  V30 244 H 39.9778 -1.75537 7.96793 0
M  V30 245 P 43.9397 -2.75334 8.47391 0
M  V30 246 O 44.1597 -3.84166 9.4489 0
M  V30 247 O 44.7297 -1.51964 8.6881 0
M  V30 248 O 44.1897 -3.29363 6.99321 0
M  V30 249 C 43.2497 -4.23956 6.42656 0
M  V30 250 C 43.9797 -5.20775 5.52155 0
M  V30 251 O 44.1897 -4.56534 4.22446 0
M  V30 252 C 45.3797 -5.62629 5.96531 0
M  V30 253 O 45.7697 -6.87667 5.41053 0
M  V30 254 C 46.2597 -4.52537 5.39283 0
M  V30 255 C 45.5497 -4.20027 4.08623 0
M  V30 256 N 45.5997 -2.7613 3.71522 0
M  V30 257 C 45.7497 -2.45612 2.37989 0
M  V30 258 O 45.8397 -3.30919 1.51621 0
M  V30 259 N 45.7897 -1.10684 2.08435 0
M  V30 260 C 45.6997 -0.0690084 2.9792 0
M  V30 261 C 45.5497 -0.481522 4.35345 0
M  V30 262 C 45.4997 -1.78906 4.67968 0
M  V30 263 H 42.7597 -4.797 7.24003 0
M  V30 264 H 42.4907 -3.69802 5.84429 0
M  V30 265 H 43.3577 -6.10356 5.41441 0
M  V30 266 H 46.0127 -4.78651 3.27911 0
M  V30 267 H 46.2917 -3.64957 6.05871 0
M  V30 268 H 47.2837 -4.8868 5.2125 0
M  V30 269 H 45.4497 -5.66726 7.06352 0
M  V30 270 H 45.3787 -2.07737 5.72367 0
M  V30 271 P 47.3197 -7.20834 5.23717 0
M  V30 272 O 47.5397 -8.66104 5.38572 0
M  V30 273 O 48.1097 -6.33544 6.1349 0
M  V30 274 O 47.5697 -6.7751 3.72168 0
M  V30 275 C 46.6297 -7.20825 2.7076 0
M  V30 276 C 47.3597 -7.45864 1.40599 0
M  V30 277 O 47.5697 -6.17651 0.734225 0
M  V30 278 C 48.7597 -8.05808 1.51899 0
M  V30 279 O 49.1497 -8.74358 0.335205 0
M  V30 280 C 49.6397 -6.83093 1.70294 0
M  V30 281 C 48.9297 -5.79992 0.836974 0
M  V30 282 N 48.9797 -4.41864 1.38293 0
M  V30 283 H 46.1407 -8.13644 3.0377 0
M  V30 284 H 45.8707 -6.42788 2.55485 0
M  V30 285 H 46.7377 -8.12039 0.792769 0
M  V30 286 P 50.6997 -8.91 3.27348e-15 0
M  V30 287 O 50.9197 -10.1726 -0.733694 0
M  V30 288 O 51.4897 -8.73148 1.23936 0
M  V30 289 O 50.9497 -7.66872 -0.971405 0
M  V30 290 C 50.0097 -7.42309 -2.04641 0
M  V30 291 C 50.7397 -6.86059 -3.24661 0
M  V30 292 O 50.9497 -5.42847 -3.03646 0
M  V30 293 C 52.1397 -7.41196 -3.50753 0
M  V30 294 O 52.5297 -7.27073 -4.86816 0
M  V30 295 C 53.0197 -6.5273 -2.63741 0
M  V30 296 C 52.3097 -5.1842 -2.73198 0
M  V30 297 N 52.3597 -4.38762 -1.4784 0
M  V30 298 C 52.2797 -4.81605 -0.168631 0
M  V30 299 N 52.3597 -3.85454 0.713363 0
M  V30 300 C 52.4997 -2.6994 -0.0566958 0
M  V30 301 C 52.6297 -1.34815 0.338502 0
M  V30 302 O 52.6497 -0.869548 1.47125 0
M  V30 303 N 52.7497 -0.496304 -0.77465 0
M  V30 304 C 52.7497 -0.908403 -2.09122 0
M  V30 305 N 52.8797 0.0517805 -3.00955 0
M  V30 306 N 52.6197 -2.17875 -2.46519 0
M  V30 307 C 52.4997 -3.01988 -1.4033 0
M  V30 308 H 49.5207 -8.36803 -2.32493 0
M  V30 309 H 49.2507 -6.70197 -1.71129 0
M  V30 310 H 50.1177 -7.03551 -4.13168 0
M  V30 311 H 52.7727 -4.59498 -3.54415 0
M  V30 312 H 53.0517 -6.88898 -1.59848 0
M  V30 313 H 54.0437 -6.46749 -3.03687 0
M  V30 314 H 52.2097 -8.46908 -3.20714 0
M  V30 315 H 52.1607 -5.86405 0.105564 0
M  V30 316 H 52.8427 0.483664 -0.597855 0
M  V30 317 H 52.8797 -0.187865 -4.0116 0
M  V30 318 H 52.9807 1.03585 -2.71726 0
M  V30 319 P 54.0797 -7.20834 -5.23717 0
M  V30 320 O 54.2997 -7.79853 -6.57286 0
M  V30 321 O 54.8697 -7.79239 -4.12957 0
M  V30 322 O 54.3297 -5.63315 -5.29344 0
M  V30 323 C 53.3897 -4.80255 -6.01876 0
M  V30 324 C 54.1197 -3.64202 -6.65911 0
M  V30 325 O 54.3297 -2.60694 -5.64732 0
M  V30 326 C 55.5197 -3.93473 -7.1943 0
M  V30 327 O 55.9097 -3.02071 -8.21205 0
M  V30 328 C 56.3997 -3.73047 -5.97036 0
M  V30 329 C 55.6897 -2.58828 -5.25741 0
M  V30 330 N 55.7397 -2.68068 -3.77503 0
M  V30 331 H 52.9007 -5.40332 -6.79951 0
M  V30 332 H 52.6307 -4.41613 -5.32378 0
M  V30 333 H 53.4977 -3.26331 -7.47797 0
M  V30 334 P 57.4597 -2.75334 -8.47391 0
M  V30 335 O 57.6797 -2.44571 -9.90142 0
M  V30 336 O 58.2497 -3.87688 -7.92115 0
M  V30 337 O 57.7097 -1.4459 -7.59357 0
M  V30 338 C 56.7697 -0.347608 -7.69215 0
M  V30 339 C 57.4997 0.96767 -7.52806 0
M  V30 340 O 57.7097 1.21036 -6.1011 0
M  V30 341 C 58.8997 1.04544 -8.13308 0
M  V30 342 O 59.2897 2.38311 -8.41922 0
M  V30 343 C 59.7797 0.491279 -7.02284 0
M  V30 344 C 59.0697 0.996264 -5.77469 0
M  V30 345 N 59.1197 0.0501916 -4.62973 0
M  V30 346 H 56.2807 -0.374722 -8.67691 0
M  V30 347 H 56.0107 -0.443485 -6.90277 0
M  V30 348 H 56.8777 1.75537 -7.96793 0
M  V30 349 P 60.8396 2.75334 -8.47391 0
M  V30 350 O 61.0596 3.84128 -9.44797 0
M  V30 351 O 61.6296 1.51947 -8.68712 0
M  V30 352 O 61.0896 3.29363 -6.99321 0
M  V30 353 C 60.1496 4.24011 -6.4274 0
M  V30 354 C 60.8796 5.20775 -5.52155 0
M  V30 355 O 61.0896 4.56534 -4.22446 0
M  V30 356 C 62.2796 5.62629 -5.96531 0
M  V30 357 O 62.6696 6.87667 -5.41053 0
M  V30 358 C 63.1596 4.52537 -5.39283 0
M  V30 359 C 62.4496 4.20027 -4.08623 0
M  V30 360 N 62.4996 2.76189 -3.71603 0
M  V30 361 C 62.4196 1.64862 -4.52822 0
M  V30 362 N 62.4996 0.512671 -3.88633 0
M  V30 363 C 62.6396 0.888083 -2.54977 0
M  V30 364 C 62.7696 0.094668 -1.38677 0
M  V30 365 N 62.8896 0.890102 -0.232633 0
M  V30 366 C 62.8896 2.26958 -0.21772 0
M  V30 367 N 63.0196 2.84626 0.97925 0
M  V30 368 N 62.7596 3.0178 -1.31033 0
M  V30 369 C 62.6396 2.26781 -2.43843 0
M  V30 370 H 59.6606 4.797 -7.24003 0
M  V30 371 H 59.3906 3.69856 -5.84513 0
M  V30 372 H 60.2576 6.10356 -5.41441 0
M  V30 373 P 64.2196 7.20834 -5.23717 0
M  V30 374 O 64.4396 8.66104 -5.38572 0
M  V30 375 O 65.0096 6.33544 -6.1349 0
M  V30 376 O 64.4696 6.7751 -3.72168 0
M  V30 377 C 63.5296 7.20825 -2.7076 0
M  V30 378 C 64.2596 7.45864 -1.40599 0
M  V30 379 O 64.4696 6.17651 -0.734225 0
M  V30 380 C 65.6596 8.05808 -1.51899 0
M  V30 381 O 66.0496 8.74358 -0.335205 0
M  V30 382 C 66.5396 6.83093 -1.70294 0
M  V30 383 C 65.8296 5.79992 -0.836974 0
M  V30 384 N 65.8796 4.41864 -1.38293 0
M  V30 385 H 63.0406 8.13644 -3.0377 0
M  V30 386 H 62.7706 6.42788 -2.55485 0
M  V30 387 H 63.6376 8.12039 -0.792769 0
M  V30 388 P 67.5996 8.91 -4.36464e-15 0
M  V30 389 O 67.8196 10.1726 0.733694 0
M  V30 390 O 68.3896 8.73148 -1.23936 0
M  V30 391 O 67.8496 7.66872 0.971405 0
M  V30 392 C 66.9096 7.42309 2.04641 0
M  V30 393 C 67.6396 6.86059 3.24661 0
M  V30 394 O 67.8496 5.42847 3.03646 0
M  V30 395 C 69.0396 7.41196 3.50753 0
M  V30 396 O 69.4296 7.27073 4.86816 0
M  V30 397 C 69.9196 6.5273 2.63741 0
M  V30 398 C 69.2096 5.1842 2.73198 0
M  V30 399 N 69.2596 4.38762 1.4784 0
M  V30 400 H 66.4206 8.36803 2.32493 0
M  V30 401 H 66.1506 6.70197 1.71129 0
M  V30 402 H 67.0176 7.03551 4.13168 0
M  V30 403 P 70.9796 7.20834 5.23717 0
M  V30 404 O 71.1996 7.79853 6.57286 0
M  V30 405 O 71.7696 7.79239 4.12957 0
M  V30 406 O 71.2296 5.63315 5.29344 0
M  V30 407 C 70.2896 4.80255 6.01876 0
M  V30 408 C 71.0196 3.64202 6.65911 0
M  V30 409 O 71.2296 2.60694 5.64732 0
M  V30 410 C 72.4196 3.93473 7.1943 0
M  V30 411 O 72.8096 3.02071 8.21205 0
M  V30 412 C 73.2996 3.73047 5.97036 0
M  V30 413 C 72.5896 2.58828 5.25741 0
M  V30 414 N 72.6396 2.68068 3.77503 0
M  V30 415 H 69.8006 5.40332 6.79951 0
M  V30 416 H 69.5306 4.41613 5.32378 0
M  V30 417 H 70.3976 3.26331 7.47797 0
M  V30 418 P 74.3596 2.75334 8.47391 0
M  V30 419 O 74.5796 2.44571 9.90142 0
M  V30 420 O 75.1496 3.87688 7.92115 0
M  V30 421 O 74.6096 1.4459 7.59357 0
M  V30 422 C 73.6696 0.347608 7.69215 0
M  V30 423 C 74.3996 -0.96767 7.52806 0
M  V30 424 O 74.6096 -1.21036 6.1011 0
M  V30 425 C 75.7996 -1.04544 8.13308 0
M  V30 426 O 76.1896 -2.38311 8.41922 0
M  V30 427 C 76.6796 -0.491279 7.02284 0
M  V30 428 C 75.9696 -0.996264 5.77469 0
M  V30 429 N 76.0196 -0.0501916 4.62973 0
M  V30 430 H 73.1806 0.374722 8.67691 0
M  V30 431 H 72.9106 0.443485 6.90277 0
M  V30 432 H 73.7776 -1.75537 7.96793 0
M  V30 433 P 77.7395 -2.75334 8.47391 0
M  V30 434 O 77.9595 -3.84128 9.44797 0
M  V30 435 O 78.5295 -1.51947 8.68712 0
M  V30 436 O 77.9895 -3.29363 6.99321 0
M  V30 437 C 77.0495 -4.24011 6.4274 0
M  V30 438 C 77.7795 -5.20775 5.52155 0
M  V30 439 O 77.9895 -4.56534 4.22446 0
M  V30 440 C 79.1795 -5.62629 5.96531 0
M  V30 441 O 79.5695 -6.87667 5.41053 0
M  V30 442 C 80.0595 -4.52537 5.39283 0
M  V30 443 C 79.3495 -4.20027 4.08623 0
M  V30 444 N 79.3995 -2.76189 3.71603 0
M  V30 445 H 76.5605 -4.797 7.24003 0
M  V30 446 H 76.2905 -3.69856 5.84513 0
M  V30 447 H 77.1575 -6.10356 5.41441 0
M  V30 448 P 81.1195 -7.20834 5.23717 0
M  V30 449 O 81.3395 -8.66104 5.38572 0
M  V30 450 O 81.9095 -6.33544 6.1349 0
M  V30 451 O 81.3695 -6.7751 3.72168 0
M  V30 452 C 80.4295 -7.20825 2.7076 0
M  V30 453 C 81.1595 -7.45864 1.40599 0
M  V30 454 O 81.3695 -6.17651 0.734225 0
M  V30 455 C 82.5595 -8.05808 1.51899 0
M  V30 456 O 82.9495 -8.74358 0.335205 0
M  V30 457 C 83.4395 -6.83093 1.70294 0
M  V30 458 C 82.7295 -5.79992 0.836974 0
M  V30 459 N 82.7795 -4.41864 1.38293 0
M  V30 460 C 82.6995 -3.99538 2.69438 0
M  V30 461 N 82.7795 -2.69909 2.84277 0
M  V30 462 C 82.9195 -2.21719 1.5408 0
M  V30 463 C 83.0495 -0.891712 1.06628 0
M  V30 464 N 83.1695 -0.856846 -0.334985 0
M  V30 465 C 83.1695 -1.9641 -1.15789 0
M  V30 466 N 83.2995 -1.72708 -2.46522 0
M  V30 467 N 83.0395 -3.21165 -0.713741 0
M  V30 468 C 82.9195 -3.26797 0.639748 0
M  V30 469 H 79.9405 -8.13644 3.0377 0
M  V30 470 H 79.6705 -6.42788 2.55485 0
M  V30 471 H 80.5375 -8.12039 0.792769 0
M  V30 472 P 84.4995 -8.91 5.4558e-15 0
M  V30 473 O 84.7195 -10.1726 -0.733694 0
M  V30 474 O 85.2895 -8.73148 1.23936 0
M  V30 475 O 84.7495 -7.66872 -0.971405 0
M  V30 476 C 83.8095 -7.42309 -2.04641 0
M  V30 477 C 84.5395 -6.86059 -3.24661 0
M  V30 478 O 84.7495 -5.42847 -3.03646 0
M  V30 479 C 85.9395 -7.41196 -3.50753 0
M  V30 480 O 86.3295 -7.27073 -4.86816 0
M  V30 481 C 86.8195 -6.5273 -2.63741 0
M  V30 482 C 86.1095 -5.1842 -2.73198 0
M  V30 483 N 86.1595 -4.38762 -1.4784 0
M  V30 484 H 83.3205 -8.36803 -2.32493 0
M  V30 485 H 83.0505 -6.70197 -1.71129 0
M  V30 486 H 83.9175 -7.03551 -4.13168 0
M  V30 487 P 87.8795 -7.20834 -5.23717 0
M  V30 488 O 88.0995 -7.7993 -6.57351 0
M  V30 489 O 88.6695 -7.79328 -4.13004 0
M  V30 490 O 88.1295 -5.63315 -5.29344 0
M  V30 491 C 87.1895 -4.80193 -6.01798 0
M  V30 492 C 87.9195 -3.64202 -6.65911 0
M  V30 493 O 88.1295 -2.60694 -5.64732 0
M  V30 494 C 89.3195 -3.93473 -7.1943 0
M  V30 495 O 89.7095 -3.02071 -8.21205 0
M  V30 496 C 90.1995 -3.73047 -5.97036 0
M  V30 497 C 89.4895 -2.58828 -5.25741 0
M  V30 498 N 89.5395 -2.6801 -3.77422 0
M  V30 499 C 89.6895 -1.50443 -3.07133 0
M  V30 500 O 89.7795 -0.419406 -3.61576 0
M  V30 501 N 89.7295 -1.6403 -1.69677 0
M  V30 502 C 89.6395 -2.81206 -0.986255 0
M  V30 503 C 89.4895 -3.99158 -1.80325 0
M  V30 504 C 89.4395 -3.89779 -3.1476 0
M  V30 505 H 86.6995 -5.40332 -6.79951 0
M  V30 506 H 86.4305 -4.41549 -5.32301 0
M  V30 507 H 87.2975 -3.26331 -7.47797 0
M  V30 508 H 89.9525 -1.6395 -5.56554 0
M  V30 509 H 90.2315 -4.63439 -5.3432 0
M  V30 510 H 91.2235 -3.44728 -6.25838 0
M  V30 511 H 89.3895 -4.96652 -7.57263 0
M  V30 512 H 89.3185 -4.80159 -3.74441 0
M  V30 513 P 91.2595 -2.75334 -8.47391 0
M  V30 514 O 91.4795 -2.44571 -9.90142 0
M  V30 515 O 92.0495 -3.87688 -7.92115 0
M  V30 516 O 91.5095 -1.4459 -7.59357 0
M  V30 517 C 90.5695 -0.347608 -7.69215 0
M  V30 518 C 91.2995 0.96767 -7.52806 0
M  V30 519 O 91.5095 1.21036 -6.1011 0
M  V30 520 C 92.6995 1.04544 -8.13308 0
M  V30 521 O 93.0895 2.38311 -8.41922 0
M  V30 522 C 93.5795 0.491279 -7.02284 0
M  V30 523 C 92.8695 0.996264 -5.77469 0
M  V30 524 N 92.9195 0.0501916 -4.62973 0
M  V30 525 H 90.0805 -0.374722 -8.67691 0
M  V30 526 H 89.8105 -0.443485 -6.90277 0
M  V30 527 H 90.6775 1.75537 -7.96793 0
M  V30 528 P 94.6394 2.75334 -8.47391 0
M  V30 529 O 94.8594 3.84128 -9.44797 0
M  V30 530 O 95.4294 1.51947 -8.68712 0
M  V30 531 O 94.8894 3.29363 -6.99321 0
M  V30 532 C 93.9494 4.24011 -6.4274 0
M  V30 533 C 94.6794 5.20775 -5.52155 0
M  V30 534 O 94.8894 4.56534 -4.22446 0
M  V30 535 C 96.0794 5.62629 -5.96531 0
M  V30 536 O 96.4694 6.87667 -5.41053 0
M  V30 537 C 96.9594 4.52537 -5.39283 0
M  V30 538 C 96.2494 4.20027 -4.08623 0
M  V30 539 N 96.2994 2.76189 -3.71603 0
M  V30 540 H 93.4604 4.797 -7.24003 0
M  V30 541 H 93.1904 3.69856 -5.84513 0
M  V30 542 H 94.0574 6.10356 -5.41441 0
M  V30 543 P 98.0194 7.20834 -5.23717 0
M  V30 544 O 98.2394 8.66274 -5.38678 0
M  V30 545 O 98.8094 6.33687 -6.13629 0
M  V30 546 O 98.2694 6.7751 -3.72168 0
M  V30 547 C 97.3294 7.20919 -2.70795 0
M  V30 548 C 98.0594 7.45864 -1.40599 0
M  V30 549 O 98.2694 6.17751 -0.734343 0
M  V30 550 C 99.4594 8.05906 -1.51917 0
M  V30 551 O 99.8494 8.74358 -0.335205 0
M  V30 552 C 100.339 6.83093 -1.70294 0
M  V30 553 C 99.6294 5.79992 -0.836974 0
M  V30 554 N 99.6794 4.41864 -1.38293 0
M  V30 555 C 99.5994 4.02089 -2.69407 0
M  V30 556 N 99.6694 2.73403 -2.85089 0
M  V30 557 C 99.8194 2.25086 -1.5642 0
M  V30 558 C 99.9494 0.942887 -1.04836 0
M  V30 559 N 99.9594 -0.150999 -1.80369 0
M  V30 560 N 100.069 0.812565 0.28167 0
M  V30 561 C 100.059 1.90572 1.03784 0
M  V30 562 N 99.9394 3.167 0.683905 0
M  V30 563 C 99.8194 3.26538 -0.652815 0
M  V30 564 H 96.8414 8.13738 -3.03804 0
M  V30 565 H 96.5694 6.42974 -2.55559 0
M  V30 566 H 97.4374 8.12139 -0.792866 0
M  V30 567 H 100.092 5.80178 0.160643 0
M  V30 568 H 100.372 6.51379 -2.75643 0
M  V30 569 H 101.363 7.01832 -1.3448 0
M  V30 570 H 99.5294 8.73771 -2.38364 0
M  V30 571 H 99.4884 4.7189 -3.52311 0
M  V30 572 H 99.8694 -0.0721434 -2.82608 0
M  V30 573 H 100.058 -1.0785 -1.36544 0
M  V30 574 H 100.166 1.73207 2.10241 0
M  V30 575 P 101.399 8.91 -6.54696e-15 0
M  V30 576 O 101.619 10.1746 0.733838 0
M  V30 577 O 102.189 8.73346 -1.23964 0
M  V30 578 O 101.649 7.66872 0.971405 0
M  V30 579 C 100.709 7.42405 2.04668 0
M  V30 580 C 101.439 6.86059 3.24661 0
M  V30 581 O 101.649 5.42934 3.03695 0
M  V30 582 C 102.839 7.41287 3.50796 0
M  V30 583 O 103.229 7.27073 4.86816 0
M  V30 584 C 103.719 6.5273 2.63741 0
M  V30 585 C 103.009 5.1842 2.73198 0
M  V30 586 N 103.059 4.38762 1.4784 0
M  V30 587 C 102.979 4.83651 0.183876 0
M  V30 588 N 103.049 3.88759 -0.699393 0
M  V30 589 C 103.199 2.7404 0.0575568 0
M  V30 590 C 103.329 1.37902 -0.293928 0
M  V30 591 N 103.339 0.938021 -1.54797 0
M  V30 592 N 103.449 0.491817 0.70549 0
M  V30 593 C 103.439 0.931735 1.95979 0
M  V30 594 N 103.319 2.16017 2.41481 0
M  V30 595 C 103.199 3.02547 1.39121 0
M  V30 596 H 100.221 8.36899 2.3252 0
M  V30 597 H 99.9494 6.70391 1.71179 0
M  V30 598 H 100.817 7.03638 4.13219 0
M  V30 599 H 103.472 4.59931 3.54016 0
M  V30 600 H 103.752 6.88995 1.59871 0
M  V30 601 H 104.743 6.4684 3.0373 0
M  V30 602 H 102.909 8.47002 3.20749 0
M  V30 603 H 102.868 5.8885 -0.0765548 0
M  V30 604 H 103.249 1.60276 -2.32875 0
M  V30 605 H 103.438 -0.0699355 -1.73859 0
M  V30 606 H 103.546 0.165507 2.71897 0
M  V30 607 P 104.779 7.20834 5.23717 0
M  V30 608 O 104.999 7.79853 6.57286 0
M  V30 609 O 105.569 7.79239 4.12957 0
M  V30 610 O 105.029 5.63315 5.29344 0
M  V30 611 C 104.089 4.80255 6.01876 0
M  V30 612 C 104.819 3.64202 6.65911 0
M  V30 613 O 105.029 2.60694 5.64732 0
M  V30 614 C 106.219 3.93473 7.1943 0
M  V30 615 O 106.609 3.02071 8.21205 0
M  V30 616 C 107.099 3.73047 5.97036 0
M  V30 617 C 106.389 2.58828 5.25741 0
M  V30 618 N 106.439 2.68068 3.77503 0
M  V30 619 H 103.6 5.40332 6.79951 0
M  V30 620 H 103.33 4.41613 5.32378 0
M  V30 621 H 104.197 3.26331 7.47797 0
M  V30 622 P 108.159 2.75334 8.47391 0
M  V30 623 O 108.379 2.44619 9.90336 0
M  V30 624 O 108.949 3.87776 7.92294 0
M  V30 625 O 108.409 1.4459 7.59357 0
M  V30 626 C 107.469 0.347653 7.69315 0
M  V30 627 C 108.199 -0.96767 7.52806 0
M  V30 628 O 108.409 -1.21055 6.10208 0
M  V30 629 C 109.599 -1.04557 8.13408 0
M  V30 630 O 109.989 -2.38311 8.41922 0
M  V30 631 C 110.479 -0.491279 7.02284 0
M  V30 632 C 109.769 -0.996264 5.77469 0
M  V30 633 N 109.819 -0.0501916 4.62973 0
M  V30 634 C 109.739 1.31969 4.65661 0
M  V30 635 N 109.809 1.86649 3.48119 0
M  V30 636 C 109.959 0.792089 2.62406 0
M  V30 637 C 110.089 0.705684 1.2207 0
M  V30 638 N 110.099 1.76207 0.413762 0
M  V30 639 N 110.209 -0.518981 0.685754 0
M  V30 640 C 110.199 -1.57595 1.49174 0
M  V30 641 N 110.079 -1.62909 2.80066 0
M  V30 642 C 109.959 -0.388195 3.3073 0
M  V30 643 H 106.981 0.374765 8.67791 0
M  V30 644 H 106.709 0.443613 6.90476 0
M  V30 645 H 107.577 -1.75559 7.96891 0
M  V30 646 H 110.232 -1.94563 5.46818 0
M  V30 647 H 110.512 0.608651 7.04676 0
M  V30 648 H 111.503 -0.889796 7.09039 0
M  V30 649 H 109.669 -0.433128 9.04664 0
M  V30 650 H 109.628 1.89246 5.57664 0
M  V30 651 H 110.009 2.71005 0.804694 0
M  V30 652 H 110.198 1.63189 -0.603768 0
M  V30 653 H 110.306 -2.53475 0.997614 0
M  V30 654 P 111.539 -2.75334 8.47391 0
M  V30 655 O 111.759 -3.84128 9.44797 0
M  V30 656 O 112.329 -1.51947 8.68712 0
M  V30 657 O 111.789 -3.29363 6.99321 0
M  V30 658 C 110.849 -4.24011 6.4274 0
M  V30 659 C 111.579 -5.20775 5.52155 0
M  V30 660 O 111.789 -4.56534 4.22446 0
M  V30 661 C 112.979 -5.62629 5.96531 0
M  V30 662 O 113.369 -6.87667 5.41053 0
M  V30 663 C 113.859 -4.52537 5.39283 0
M  V30 664 C 113.149 -4.20027 4.08623 0
M  V30 665 N 113.199 -2.76189 3.71603 0
M  V30 666 C 113.119 -1.64862 4.52822 0
M  V30 667 N 113.199 -0.512671 3.88633 0
M  V30 668 C 113.339 -0.888083 2.54977 0
M  V30 669 C 113.469 -0.094668 1.38677 0
M  V30 670 N 113.589 -0.890102 0.232633 0
M  V30 671 C 113.589 -2.26958 0.21772 0
M  V30 672 N 113.719 -2.84626 -0.97925 0
M  V30 673 N 113.459 -3.0178 1.31033 0
M  V30 674 C 113.339 -2.26781 2.43843 0
M  V30 675 H 110.36 -4.797 7.24003 0
M  V30 676 H 110.09 -3.69856 5.84513 0
M  V30 677 H 110.957 -6.10356 5.41441 0
M  V30 678 P 114.919 -7.20834 5.23717 0
M  V30 679 O 115.139 -8.66104 5.38572 0
M  V30 680 O 115.709 -6.33544 6.1349 0
M  V30 681 O 115.169 -6.7751 3.72168 0
M  V30 682 C 114.229 -7.20825 2.7076 0
M  V30 683 C 114.959 -7.45864 1.40599 0
M  V30 684 O 115.169 -6.17651 0.734225 0
M  V30 685 C 116.359 -8.05808 1.51899 0
M  V30 686 O 116.749 -8.74358 0.335205 0
M  V30 687 C 117.239 -6.83093 1.70294 0
M  V30 688 C 116.529 -5.79992 0.836974 0
M  V30 689 N 116.579 -4.41864 1.38293 0
M  V30 690 H 113.74 -8.13644 3.0377 0
M  V30 691 H 113.47 -6.42788 2.55485 0
M  V30 692 H 114.337 -8.12039 0.792769 0
M  V30 693 P 118.299 -8.91 7.63812e-15 0
M  V30 694 O 118.519 -10.1726 -0.733694 0
M  V30 695 O 119.089 -8.73148 1.23936 0
M  V30 696 O 118.549 -7.66872 -0.971405 0
M  V30 697 C 117.609 -7.42309 -2.04641 0
M  V30 698 C 118.339 -6.86059 -3.24661 0
M  V30 699 O 118.549 -5.42847 -3.03646 0
M  V30 700 C 119.739 -7.41196 -3.50753 0
M  V30 701 O 120.129 -7.27073 -4.86816 0
M  V30 702 C 120.619 -6.5273 -2.63741 0
M  V30 703 C 119.909 -5.1842 -2.73198 0
M  V30 704 N 119.959 -4.38762 -1.4784 0
M  V30 705 H 117.12 -8.36803 -2.32493 0
M  V30 706 H 116.85 -6.70197 -1.71129 0
M  V30 707 H 117.717 -7.03551 -4.13168 0
M  V30 708 P 121.679 -7.20834 -5.23717 0
M  V30 709 O 121.899 -7.79853 -6.57286 0
M  V30 710 O 122.469 -7.79239 -4.12957 0
M  V30 711 O 121.929 -5.63315 -5.29344 0
M  V30 712 C 120.989 -4.80255 -6.01876 0
M  V30 713 C 121.719 -3.64202 -6.65911 0
M  V30 714 O 121.929 -2.60694 -5.64732 0
M  V30 715 C 123.119 -3.93473 -7.1943 0
M  V30 716 O 123.509 -3.02071 -8.21205 0
M  V30 717 C 123.999 -3.73047 -5.97036 0
M  V30 718 C 123.289 -2.58828 -5.25741 0
M  V30 719 N 123.339 -2.68068 -3.77503 0
M  V30 720 H 120.5 -5.40332 -6.79951 0
M  V30 721 H 120.23 -4.41613 -5.32378 0
M  V30 722 H 121.097 -3.26331 -7.47797 0
M  V30 723 P 125.059 -2.75334 -8.47391 0
M  V30 724 O 125.279 -2.44571 -9.90142 0
M  V30 725 O 125.849 -3.87688 -7.92115 0
M  V30 726 O 125.309 -1.4459 -7.59357 0
M  V30 727 C 124.369 -0.347608 -7.69215 0
M  V30 728 C 125.099 0.96767 -7.52806 0
M  V30 729 O 125.309 1.21036 -6.1011 0
M  V30 730 C 126.499 1.04544 -8.13308 0
M  V30 731 O 126.889 2.38311 -8.41922 0
M  V30 732 C 127.379 0.491279 -7.02284 0
M  V30 733 C 126.669 0.996264 -5.77469 0
M  V30 734 N 126.719 0.0501916 -4.62973 0
M  V30 735 H 123.88 -0.374722 -8.67691 0
M  V30 736 H 123.61 -0.443485 -6.90277 0
M  V30 737 H 124.477 1.75537 -7.96793 0
M  V30 738 P 128.439 2.75334 -8.47391 0
M  V30 739 O 128.659 3.84128 -9.44797 0
M  V30 740 O 129.229 1.51947 -8.68712 0
M  V30 741 O 128.689 3.29363 -6.99321 0
M  V30 742 C 127.749 4.24011 -6.4274 0
M  V30 743 C 128.479 5.20775 -5.52155 0
M  V30 744 O 128.689 4.56534 -4.22446 0
M  V30 745 C 129.879 5.62629 -5.96531 0
M  V30 746 O 130.269 6.87667 -5.41053 0
M  V30 747 C 130.759 4.52537 -5.39283 0
M  V30 748 C 130.049 4.20027 -4.08623 0
M  V30 749 N 130.099 2.76189 -3.71603 0
M  V30 750 H 127.26 4.797 -7.24003 0
M  V30 751 H 126.99 3.69856 -5.84513 0
M  V30 752 H 127.857 6.10356 -5.41441 0
M  V30 753 P 131.819 7.20834 -5.23717 0
M  V30 754 O 132.039 8.66274 -5.38678 0
M  V30 755 O 132.609 6.33687 -6.13629 0
M  V30 756 O 132.069 6.7751 -3.72168 0
M  V30 757 C 131.129 7.20919 -2.70795 0
M  V30 758 C 131.859 7.45864 -1.40599 0
M  V30 759 O 132.069 6.17751 -0.734343 0
M  V30 760 C 133.259 8.05906 -1.51917 0
M  V30 761 O 133.649 8.74358 -0.335205 0
M  V30 762 C 134.139 6.83093 -1.70294 0
M  V30 763 C 133.429 5.79992 -0.836974 0
M  V30 764 N 133.479 4.41864 -1.38293 0
M  V30 765 H 130.641 8.13738 -3.03804 0
M  V30 766 H 130.369 6.42974 -2.55559 0
M  V30 767 H 131.237 8.12139 -0.792866 0
M  V30 768 H 133.892 5.80178 0.160643 0
M  V30 769 H 134.172 6.51379 -2.75643 0
M  V30 770 H 135.163 7.01832 -1.3448 0
M  V30 771 H 133.329 8.73771 -2.38364 0
M  V30 772 P 135.199 8.91 -8.72928e-15 0
M  V30 773 O 135.419 10.1726 0.733694 0
M  V30 774 O 135.989 8.73148 -1.23936 0
M  V30 775 O 135.449 7.66872 0.971405 0
M  V30 776 C 134.509 7.42309 2.04641 0
M  V30 777 C 135.239 6.86059 3.24661 0
M  V30 778 O 135.449 5.42847 3.03646 0
M  V30 779 C 136.639 7.41196 3.50753 0
M  V30 780 O 137.029 7.27073 4.86816 0
M  V30 781 C 137.519 6.5273 2.63741 0
M  V30 782 C 136.809 5.1842 2.73198 0
M  V30 783 N 136.859 4.38762 1.4784 0
M  V30 784 H 134.02 8.36803 2.32493 0
M  V30 785 H 133.75 6.70197 1.71129 0
M  V30 786 H 134.617 7.03551 4.13168 0
M  V30 787 P 138.579 7.20834 5.23717 0
M  V30 788 O 138.799 7.79853 6.57286 0
M  V30 789 O 139.369 7.79239 4.12957 0
M  V30 790 O 138.829 5.63315 5.29344 0
M  V30 791 C 137.889 4.80255 6.01876 0
M  V30 792 C 138.619 3.64202 6.65911 0
M  V30 793 O 138.829 2.60694 5.64732 0
M  V30 794 C 140.019 3.93473 7.1943 0
M  V30 795 O 140.409 3.02071 8.21205 0
M  V30 796 C 140.899 3.73047 5.97036 0
M  V30 797 C 140.189 2.58828 5.25741 0
M  V30 798 N 140.239 2.68068 3.77503 0
M  V30 799 H 137.4 5.40332 6.79951 0
M  V30 800 H 137.13 4.41613 5.32378 0
M  V30 801 H 137.997 3.26331 7.47797 0
M  V30 802 P 141.959 2.75334 8.47391 0
M  V30 803 O 142.179 2.44571 9.90142 0
M  V30 804 O 142.749 3.87688 7.92115 0
M  V30 805 O 142.209 1.4459 7.59357 0
M  V30 806 C 141.269 0.347608 7.69215 0
M  V30 807 C 141.999 -0.96767 7.52806 0
M  V30 808 O 142.209 -1.21036 6.1011 0
M  V30 809 C 143.399 -1.04544 8.13308 0
M  V30 810 O 143.789 -2.38311 8.41922 0
M  V30 811 C 144.279 -0.491279 7.02284 0
M  V30 812 C 143.569 -0.996264 5.77469 0
M  V30 813 N 143.619 -0.0501916 4.62973 0
M  V30 814 H 140.78 0.374722 8.67691 0
M  V30 815 H 140.51 0.443485 6.90277 0
M  V30 816 H 141.377 -1.75537 7.96793 0
M  V30 817 P 145.339 -2.75334 8.47391 0
M  V30 818 O 145.559 -3.84128 9.44797 0
M  V30 819 O 146.129 -1.51947 8.68712 0
M  V30 820 O 145.589 -3.29363 6.99321 0
M  V30 821 C 144.649 -4.24011 6.4274 0
M  V30 822 C 145.379 -5.20775 5.52155 0
M  V30 823 O 145.589 -4.56534 4.22446 0
M  V30 824 C 146.779 -5.62629 5.96531 0
M  V30 825 O 147.169 -6.87667 5.41053 0
M  V30 826 C 147.659 -4.52537 5.39283 0
M  V30 827 C 146.949 -4.20027 4.08623 0
M  V30 828 N 146.999 -2.76189 3.71603 0
M  V30 829 H 144.16 -4.797 7.24003 0
M  V30 830 H 143.89 -3.69856 5.84513 0
M  V30 831 H 144.757 -6.10356 5.41441 0
M  V30 832 P 148.719 -7.20834 5.23717 0
M  V30 833 O 148.939 -8.66104 5.38572 0
M  V30 834 O 149.509 -6.33544 6.1349 0
M  V30 835 O 148.969 -6.7751 3.72168 0
M  V30 836 C 148.029 -7.20825 2.7076 0
M  V30 837 C 148.759 -7.45864 1.40599 0
M  V30 838 O 148.969 -6.17651 0.734225 0
M  V30 839 C 150.159 -8.05808 1.51899 0
M  V30 840 O 150.549 -8.74358 0.335205 0
M  V30 841 C 151.039 -6.83093 1.70294 0
M  V30 842 C 150.329 -5.79992 0.836974 0
M  V30 843 N 150.379 -4.41864 1.38293 0
M  V30 844 C 150.299 -3.99538 2.69438 0
M  V30 845 N 150.379 -2.69909 2.84277 0
M  V30 846 C 150.519 -2.21719 1.5408 0
M  V30 847 C 150.649 -0.891712 1.06628 0
M  V30 848 O 150.669 0.161298 1.70137 0
M  V30 849 N 150.769 -0.856846 -0.334985 0
M  V30 850 C 150.769 -1.9641 -1.15789 0
M  V30 851 N 150.899 -1.72708 -2.46522 0
M  V30 852 N 150.639 -3.21165 -0.713741 0
M  V30 853 C 150.519 -3.26797 0.639748 0
M  V30 854 H 147.54 -8.13644 3.0377 0
M  V30 855 H 147.27 -6.42788 2.55485 0
M  V30 856 H 148.137 -8.12039 0.792769 0
M  V30 857 H 150.792 -5.80061 -0.166416 0
M  V30 858 H 151.071 -6.51287 2.75604 0
M  V30 859 H 152.063 -7.01734 1.34462 0
M  V30 860 H 150.229 -8.73674 2.38337 0
M  V30 861 H 150.18 -4.68207 3.53221 0
M  V30 862 H 150.862 0.0398818 -0.767965 0
M  V30 863 H 150.899 -2.50995 -3.13503 0
M  V30 864 H 151 -0.759148 -2.80716 0
M  V30 865 P 152.099 -8.91 9.82044e-15 0
M  V30 866 O 152.319 -10.1726 -0.733694 0
M  V30 867 O 152.889 -8.73148 1.23936 0
M  V30 868 O 152.349 -7.66872 -0.971405 0
M  V30 869 C 151.409 -7.42309 -2.04641 0
M  V30 870 C 152.139 -6.86059 -3.24661 0
M  V30 871 O 152.349 -5.42847 -3.03646 0
M  V30 872 C 153.539 -7.41196 -3.50753 0
M  V30 873 O 153.929 -7.27073 -4.86816 0
M  V30 874 C 154.419 -6.5273 -2.63741 0
M  V30 875 C 153.709 -5.1842 -2.73198 0
M  V30 876 N 153.759 -4.38762 -1.4784 0
M  V30 877 H 150.92 -8.36803 -2.32493 0
M  V30 878 H 150.65 -6.70197 -1.71129 0
M  V30 879 H 151.517 -7.03551 -4.13168 0
M  V30 880 P 155.479 -7.20834 -5.23717 0
M  V30 881 O 155.699 -7.79853 -6.57286 0
M  V30 882 O 156.269 -7.79239 -4.12957 0
M  V30 883 O 155.729 -5.63315 -5.29344 0
M  V30 884 C 154.789 -4.80255 -6.01876 0
M  V30 885 C 155.519 -3.64202 -6.65911 0
M  V30 886 O 155.729 -2.60694 -5.64732 0
M  V30 887 C 156.919 -3.93473 -7.1943 0
M  V30 888 O 157.309 -3.02071 -8.21205 0
M  V30 889 C 157.799 -3.73047 -5.97036 0
M  V30 890 C 157.089 -2.58828 -5.25741 0
M  V30 891 N 157.139 -2.68068 -3.77503 0
M  V30 892 H 154.3 -5.40332 -6.79951 0
M  V30 893 H 154.03 -4.41613 -5.32378 0
M  V30 894 H 154.897 -3.26331 -7.47797 0
M  V30 895 P 158.859 -2.75334 -8.47391 0
M  V30 896 O 159.079 -2.44571 -9.90142 0
M  V30 897 O 159.649 -3.87688 -7.92115 0
M  V30 898 O 159.109 -1.4459 -7.59357 0
M  V30 899 C 158.169 -0.347608 -7.69215 0
M  V30 900 C 158.899 0.96767 -7.52806 0
M  V30 901 O 159.109 1.21036 -6.1011 0
M  V30 902 C 160.299 1.04544 -8.13308 0
M  V30 903 O 160.689 2.38311 -8.41922 0
M  V30 904 C 161.179 0.491279 -7.02284 0
M  V30 905 C 160.469 0.996264 -5.77469 0
M  V30 906 N 160.519 0.0501916 -4.62973 0
M  V30 907 C 160.439 -1.32786 -4.63244 0
M  V30 908 N 160.519 -1.86957 -3.44545 0
M  V30 909 C 160.659 -0.780241 -2.58481 0
M  V30 910 C 160.789 -0.738536 -1.17757 0
M  V30 911 O 160.809 -1.66794 -0.372349 0
M  V30 912 N 160.909 0.58337 -0.711393 0
M  V30 913 C 160.909 1.70816 -1.51017 0
M  V30 914 N 161.039 2.87826 -0.880757 0
M  V30 915 N 160.779 1.67126 -2.8339 0
M  V30 916 C 160.659 0.401421 -3.30572 0
M  V30 917 H 157.68 -0.374722 -8.67691 0
M  V30 918 H 157.41 -0.443485 -6.90277 0
M  V30 919 H 158.277 1.75537 -7.96793 0
M  V30 920 H 160.932 1.95076 -5.46529 0
M  V30 921 H 161.211 -0.608565 -7.04577 0
M  V30 922 H 162.203 0.889672 -7.08939 0
M  V30 923 H 160.369 0.43308 -9.04564 0
M  V30 924 H 160.32 -1.91249 -5.54442 0
M  V30 925 H 161.002 0.718054 0.275244 0
M  V30 926 H 161.039 3.75721 -1.41832 0
M  V30 927 H 161.14 2.90436 0.145468 0
M  V30 928 P 162.239 2.75334 -8.47391 0
M  V30 929 O 162.459 3.84128 -9.44797 0
M  V30 930 O 163.029 1.51947 -8.68712 0
M  V30 931 O 162.489 3.29363 -6.99321 0
M  V30 932 C 161.549 4.24011 -6.4274 0
M  V30 933 C 162.279 5.20775 -5.52155 0
M  V30 934 O 162.489 4.56534 -4.22446 0
M  V30 935 C 163.679 5.62629 -5.96531 0
M  V30 936 O 164.069 6.87667 -5.41053 0
M  V30 937 C 164.559 4.52537 -5.39283 0
M  V30 938 C 163.849 4.20027 -4.08623 0
M  V30 939 N 163.899 2.76189 -3.71603 0
M  V30 940 H 161.06 4.797 -7.24003 0
M  V30 941 H 160.79 3.69856 -5.84513 0
M  V30 942 H 161.657 6.10356 -5.41441 0
M  V30 943 P 165.619 7.20834 -5.23717 0
M  V30 944 O 165.839 8.66104 -5.38572 0
M  V30 945 O 166.409 6.33544 -6.1349 0
M  V30 946 O 165.869 6.7751 -3.72168 0
M  V30 947 C 164.929 7.20825 -2.7076 0
M  V30 948 C 165.659 7.45864 -1.40599 0
M  V30 949 O 165.869 6.17651 -0.734225 0
M  V30 950 C 167.059 8.05808 -1.51899 0
M  V30 951 O 167.449 8.74358 -0.335205 0
M  V30 952 C 167.939 6.83093 -1.70294 0
M  V30 953 C 167.229 5.79992 -0.836974 0
M  V30 954 N 167.279 4.41864 -1.38293 0
M  V30 955 C 167.199 3.99538 -2.69438 0
M  V30 956 N 167.279 2.69909 -2.84277 0
M  V30 957 C 167.419 2.21719 -1.5408 0
M  V30 958 C 167.549 0.891712 -1.06628 0
M  V30 959 O 167.569 -0.161298 -1.70137 0
M  V30 960 N 167.669 0.856846 0.334985 0
M  V30 961 C 167.669 1.9641 1.15789 0
M  V30 962 N 167.799 1.72708 2.46522 0
M  V30 963 N 167.539 3.21165 0.713741 0
M  V30 964 C 167.419 3.26797 -0.639748 0
M  V30 965 H 164.44 8.13644 -3.0377 0
M  V30 966 H 164.17 6.42788 -2.55485 0
M  V30 967 H 165.037 8.12039 -0.792769 0
M  V30 968 H 167.692 5.80061 0.166416 0
M  V30 969 H 167.971 6.51287 -2.75604 0
M  V30 970 H 168.963 7.01734 -1.34462 0
M  V30 971 H 167.129 8.73674 -2.38337 0
M  V30 972 H 167.08 4.68207 -3.53221 0
M  V30 973 H 167.762 -0.0398818 0.767965 0
M  V30 974 H 167.799 2.50995 3.13503 0
M  V30 975 H 167.9 0.759148 2.80716 0
M  V30 976 P 168.999 8.91 -1.09116e-14 0
M  V30 977 O 169.219 10.1726 0.733694 0
M  V30 978 O 169.789 8.73148 -1.23936 0
M  V30 979 O 169.249 7.66872 0.971405 0
M  V30 980 C 168.309 7.42309 2.04641 0
M  V30 981 C 169.039 6.86059 3.24661 0
M  V30 982 O 169.249 5.42847 3.03646 0
M  V30 983 C 170.439 7.41196 3.50753 0
M  V30 984 O 170.829 7.27073 4.86816 0
M  V30 985 C 171.319 6.5273 2.63741 0
M  V30 986 C 170.609 5.1842 2.73198 0
M  V30 987 N 170.659 4.38762 1.4784 0
M  V30 988 H 167.82 8.36803 2.32493 0
M  V30 989 H 167.55 6.70197 1.71129 0
M  V30 990 H 168.417 7.03551 4.13168 0
M  V30 991 P 172.379 7.20834 5.23717 0
M  V30 992 O 172.599 7.7993 6.57351 0
M  V30 993 O 173.169 7.79328 4.13004 0
M  V30 994 O 172.629 5.63315 5.29344 0
M  V30 995 C 171.689 4.80193 6.01798 0
M  V30 996 C 172.419 3.64202 6.65911 0
M  V30 997 O 172.629 2.60694 5.64732 0
M  V30 998 C 173.819 3.93473 7.1943 0
M  V30 999 O 174.209 3.02071 8.21205 0
M  V30 1000 C 174.699 3.73047 5.97036 0
M  V30 1001 C 173.989 2.58828 5.25741 0
M  V30 1002 N 174.039 2.6801 3.77422 0
M  V30 1003 C 174.189 1.50443 3.07133 0
M  V30 1004 O 174.279 0.419406 3.61576 0
M  V30 1005 N 174.229 1.6403 1.69677 0
M  V30 1006 C 174.139 2.81206 0.986255 0
M  V30 1007 O 174.189 2.80892 -0.249754 0
M  V30 1008 C 173.989 3.99158 1.80325 0
M  V30 1009 C 173.879 5.29309 1.06921 0
M  V30 1010 C 173.939 3.89779 3.1476 0
M  V30 1011 H 171.199 5.40332 6.79951 0
M  V30 1012 H 170.93 4.41549 5.32301 0
M  V30 1013 H 171.797 3.26331 7.47797 0
M  V30 1014 H 174.452 1.6395 5.56554 0
M  V30 1015 H 174.731 4.63439 5.3432 0
M  V30 1016 H 175.723 3.44728 6.25838 0
M  V30 1017 H 173.889 4.96652 7.57263 0
M  V30 1018 H 173.818 4.80159 3.74441 0
M  V30 1019 H 174.848 5.81459 1.09608 0
M  V30 1020 H 173.111 5.9187 1.54487 0
M  V30 1021 H 173.599 5.10095 0.0220288 0
M  V30 1022 H 174.335 0.798962 1.16664 0
M  V30 1023 P 175.759 2.75334 8.47391 0
M  V30 1024 O 175.979 2.44595 9.90239 0
M  V30 1025 O 176.549 3.87732 7.92204 0
M  V30 1026 O 176.009 1.4459 7.59357 0
M  V30 1027 C 175.069 0.347563 7.69115 0
M  V30 1028 C 175.799 -0.96767 7.52806 0
M  V30 1029 O 176.009 -1.21036 6.1011 0
M  V30 1030 C 177.199 -1.04544 8.13308 0
M  V30 1031 O 177.589 -2.38311 8.41922 0
M  V30 1032 C 178.079 -0.491279 7.02284 0
M  V30 1033 C 177.369 -0.996264 5.77469 0
M  V30 1034 N 177.419 -0.0501808 4.62873 0
M  V30 1035 C 177.569 -0.588177 3.36904 0
M  V30 1036 O 177.659 -1.78598 3.17173 0
M  V30 1037 N 177.609 0.329694 2.33686 0
M  V30 1038 C 177.519 1.6953 2.45079 0
M  V30 1039 O 177.569 2.41926 1.44899 0
M  V30 1040 C 177.369 2.16933 3.80505 0
M  V30 1041 C 177.259 3.65373 3.97621 0
M  V30 1042 C 177.319 1.30326 4.83752 0
M  V30 1043 H 174.579 0.374722 8.67691 0
M  V30 1044 H 174.31 0.443421 6.90177 0
M  V30 1045 H 175.177 -1.75537 7.96793 0
M  V30 1046 H 177.832 -1.94496 5.46629 0
M  V30 1047 H 178.111 0.608651 7.04676 0
M  V30 1048 H 179.103 -0.889672 7.08939 0
M  V30 1049 H 177.269 -0.43308 9.04564 0
M  V30 1050 H 177.198 1.68366 5.8516 0
M  V30 1051 H 178.228 4.05985 4.30448 0
M  V30 1052 H 176.491 3.88028 4.72875 0
M  V30 1053 H 176.979 4.11381 3.01609 0
M  V30 1054 H 177.715 -0.0393617 1.41345 0
M  V30 1055 P 179.139 -2.75334 8.47391 0
M  V30 1056 O 179.359 -3.84128 9.44797 0
M  V30 1057 O 179.929 -1.51947 8.68712 0
M  V30 1058 O 179.389 -3.29363 6.99321 0
M  V30 1059 C 178.449 -4.24011 6.4274 0
M  V30 1060 C 179.179 -5.20775 5.52155 0
M  V30 1061 O 179.389 -4.56534 4.22446 0
M  V30 1062 C 180.579 -5.62629 5.96531 0
M  V30 1063 O 180.969 -6.87667 5.41053 0
M  V30 1064 C 181.459 -4.52537 5.39283 0
M  V30 1065 C 180.749 -4.20027 4.08623 0
M  V30 1066 N 180.799 -2.76189 3.71603 0
M  V30 1067 H 177.96 -4.797 7.24003 0
M  V30 1068 H 177.69 -3.69856 5.84513 0
M  V30 1069 H 178.557 -6.10356 5.41441 0
M  V30 1070 P 182.519 -7.20834 5.23717 0
M  V30 1071 O 182.739 -8.66274 5.38678 0
M  V30 1072 O 183.309 -6.33687 6.13629 0
M  V30 1073 O 182.769 -6.7751 3.72168 0
M  V30 1074 C 181.829 -7.20919 2.70795 0
M  V30 1075 C 182.559 -7.45864 1.40599 0
M  V30 1076 O 182.769 -6.17751 0.734343 0
M  V30 1077 C 183.959 -8.05906 1.51917 0
M  V30 1078 O 184.349 -8.74358 0.335205 0
M  V30 1079 C 184.839 -6.83093 1.70294 0
M  V30 1080 C 184.129 -5.79992 0.836974 0
M  V30 1081 N 184.179 -4.41864 1.38293 0
M  V30 1082 C 184.099 -4.02089 2.69407 0
M  V30 1083 N 184.169 -2.73403 2.85089 0
M  V30 1084 C 184.319 -2.25086 1.5642 0
M  V30 1085 C 184.449 -0.942887 1.04836 0
M  V30 1086 N 184.459 0.150999 1.80369 0
M  V30 1087 N 184.569 -0.812565 -0.28167 0
M  V30 1088 C 184.559 -1.90572 -1.03784 0
M  V30 1089 N 184.439 -3.167 -0.683905 0
M  V30 1090 C 184.319 -3.26538 0.652815 0
M  V30 1091 H 181.341 -8.13738 3.03804 0
M  V30 1092 H 181.069 -6.42974 2.55559 0
M  V30 1093 H 181.937 -8.12139 0.792866 0
M  V30 1094 H 184.592 -5.80178 -0.160643 0
M  V30 1095 H 184.872 -6.51379 2.75643 0
M  V30 1096 H 185.863 -7.01832 1.3448 0
M  V30 1097 H 184.029 -8.73771 2.38364 0
M  V30 1098 H 183.988 -4.7189 3.52311 0
M  V30 1099 H 184.369 0.0721434 2.82608 0
M  V30 1100 H 184.558 1.0785 1.36544 0
M  V30 1101 H 184.666 -1.73207 -2.10241 0
M  V30 1102 P 185.899 -8.91 -8.29613e-14 0
M  V30 1103 O 186.119 -10.1746 -0.733838 0
M  V30 1104 O 186.689 -8.73346 1.23964 0
M  V30 1105 O 186.149 -7.66872 -0.971405 0
M  V30 1106 C 185.209 -7.42405 -2.04668 0
M  V30 1107 C 185.939 -6.86059 -3.24661 0
M  V30 1108 O 186.149 -5.42934 -3.03695 0
M  V30 1109 C 187.339 -7.41287 -3.50796 0
M  V30 1110 O 187.729 -7.27073 -4.86816 0
M  V30 1111 C 188.219 -6.5273 -2.63741 0
M  V30 1112 C 187.509 -5.1842 -2.73198 0
M  V30 1113 N 187.559 -4.38762 -1.4784 0
M  V30 1114 H 184.721 -8.36899 -2.3252 0
M  V30 1115 H 184.449 -6.70391 -1.71179 0
M  V30 1116 H 185.317 -7.03638 -4.13219 0
M  V30 1117 H 187.972 -4.59931 -3.54016 0
M  V30 1118 H 188.252 -6.88995 -1.59871 0
M  V30 1119 H 189.243 -6.4684 -3.0373 0
M  V30 1120 H 187.409 -8.47002 -3.20749 0
M  V30 1121 P 189.279 -7.20834 -5.23717 0
M  V30 1122 O 189.499 -7.79853 -6.57286 0
M  V30 1123 O 190.069 -7.79239 -4.12957 0
M  V30 1124 O 189.529 -5.63315 -5.29344 0
M  V30 1125 C 188.589 -4.80255 -6.01876 0
M  V30 1126 C 189.319 -3.64202 -6.65911 0
M  V30 1127 O 189.529 -2.60694 -5.64732 0
M  V30 1128 C 190.719 -3.93473 -7.1943 0
M  V30 1129 O 191.109 -3.02071 -8.21205 0
M  V30 1130 C 191.599 -3.73047 -5.97036 0
M  V30 1131 C 190.889 -2.58828 -5.25741 0
M  V30 1132 N 190.939 -2.68068 -3.77503 0
M  V30 1133 H 188.1 -5.40332 -6.79951 0
M  V30 1134 H 187.83 -4.41613 -5.32378 0
M  V30 1135 H 188.697 -3.26331 -7.47797 0
M  V30 1136 P 192.659 -2.75334 -8.47391 0
M  V30 1137 O 192.879 -2.44571 -9.90142 0
M  V30 1138 O 193.449 -3.87688 -7.92115 0
M  V30 1139 O 192.909 -1.4459 -7.59357 0
M  V30 1140 C 191.969 -0.347608 -7.69215 0
M  V30 1141 C 192.699 0.96767 -7.52806 0
M  V30 1142 O 192.909 1.21036 -6.1011 0
M  V30 1143 C 194.099 1.04544 -8.13308 0
M  V30 1144 O 194.489 2.38311 -8.41922 0
M  V30 1145 C 194.979 0.491279 -7.02284 0
M  V30 1146 C 194.269 0.996264 -5.77469 0
M  V30 1147 N 194.319 0.0501916 -4.62973 0
M  V30 1148 H 191.48 -0.374722 -8.67691 0
M  V30 1149 H 191.21 -0.443485 -6.90277 0
M  V30 1150 H 192.077 1.75537 -7.96793 0
M  V30 1151 P 196.039 2.75334 -8.47391 0
M  V30 1152 O 196.259 3.84204 -9.44982 0
M  V30 1153 O 196.829 1.51982 -8.68909 0
M  V30 1154 O 196.289 3.29363 -6.99321 0
M  V30 1155 C 195.349 4.24066 -6.42823 0
M  V30 1156 C 196.079 5.20775 -5.52155 0
M  V30 1157 O 196.289 4.56607 -4.22514 0
M  V30 1158 C 197.479 5.62697 -5.96604 0
M  V30 1159 O 197.869 6.87667 -5.41053 0
M  V30 1160 C 198.359 4.52537 -5.39283 0
M  V30 1161 C 197.649 4.20027 -4.08623 0
M  V30 1162 N 197.699 2.76189 -3.71603 0
M  V30 1163 C 197.619 1.66944 -4.54297 0
M  V30 1164 N 197.689 0.536169 -3.91344 0
M  V30 1165 C 197.839 0.901569 -2.58849 0
M  V30 1166 C 197.969 0.146599 -1.40236 0
M  V30 1167 N 197.979 -1.18234 -1.37046 0
M  V30 1168 N 198.089 0.822941 -0.249738 0
M  V30 1169 C 198.079 2.15179 -0.280525 0
M  V30 1170 N 197.959 2.96414 -1.30822 0
M  V30 1171 C 197.839 2.25804 -2.44748 0
M  V30 1172 H 194.861 4.79756 -7.24086 0
M  V30 1173 H 194.589 3.69963 -5.84682 0
M  V30 1174 H 195.457 6.10431 -5.41508 0
M  V30 1175 H 198.112 4.78816 -3.28024 0
M  V30 1176 H 198.392 3.64957 -6.05871 0
M  V30 1177 H 199.383 4.88748 -5.21323 0
M  V30 1178 H 197.549 5.66789 -7.0643 0
M  V30 1179 H 197.508 1.74684 -5.62396 0
M  V30 1180 H 197.889 -1.71949 -2.24394 0
M  V30 1181 H 198.078 -1.67511 -0.470742 0
M  V30 1182 H 198.186 2.63704 0.6828 0
M  V30 1183 P 199.419 7.20834 -5.23717 0
M  V30 1184 O 199.639 8.66274 -5.38678 0
M  V30 1185 O 200.209 6.33687 -6.13629 0
M  V30 1186 O 199.669 6.7751 -3.72168 0
M  V30 1187 C 198.729 7.20919 -2.70795 0
M  V30 1188 C 199.459 7.45864 -1.40599 0
M  V30 1189 O 199.669 6.17751 -0.734343 0
M  V30 1190 C 200.859 8.05906 -1.51917 0
M  V30 1191 O 201.249 8.74358 -0.335205 0
M  V30 1192 C 201.739 6.83093 -1.70294 0
M  V30 1193 C 201.029 5.79992 -0.836974 0
M  V30 1194 N 201.079 4.41864 -1.38293 0
M  V30 1195 H 198.241 8.13738 -3.03804 0
M  V30 1196 H 197.969 6.42974 -2.55559 0
M  V30 1197 H 198.837 8.12139 -0.792866 0
M  V30 1198 H 201.492 5.80178 0.160643 0
M  V30 1199 H 201.772 6.51379 -2.75643 0
M  V30 1200 H 202.763 7.01832 -1.3448 0
M  V30 1201 H 200.929 8.73771 -2.38364 0
M  V30 1202 P 202.799 8.91 2.40144e-13 0
M  V30 1203 O 203.019 10.1726 0.733694 0
M  V30 1204 O 203.589 8.73148 -1.23936 0
M  V30 1205 O 203.049 7.66872 0.971405 0
M  V30 1206 C 202.109 7.42309 2.04641 0
M  V30 1207 C 202.839 6.86059 3.24661 0
M  V30 1208 O 203.049 5.42847 3.03646 0
M  V30 1209 C 204.239 7.41196 3.50753 0
M  V30 1210 O 204.629 7.27073 4.86816 0
M  V30 1211 C 205.119 6.5273 2.63741 0
M  V30 1212 C 204.409 5.1842 2.73198 0
M  V30 1213 N 204.459 4.38762 1.4784 0
M  V30 1214 H 201.62 8.36803 2.32493 0
M  V30 1215 H 201.35 6.70197 1.71129 0
M  V30 1216 H 202.217 7.03551 4.13168 0
M  V30 1217 P 206.179 7.20834 5.23717 0
M  V30 1218 O 206.399 7.79853 6.57286 0
M  V30 1219 O 206.969 7.79239 4.12957 0
M  V30 1220 O 206.429 5.63315 5.29344 0
M  V30 1221 C 205.489 4.80255 6.01876 0
M  V30 1222 C 206.219 3.64202 6.65911 0
M  V30 1223 O 206.429 2.60694 5.64732 0
M  V30 1224 C 207.619 3.93473 7.1943 0
M  V30 1225 O 208.009 3.02071 8.21205 0
M  V30 1226 C 208.499 3.73047 5.97036 0
M  V30 1227 C 207.789 2.58828 5.25741 0
M  V30 1228 N 207.839 2.68068 3.77503 0
M  V30 1229 H 205 5.40332 6.79951 0
M  V30 1230 H 204.73 4.41613 5.32378 0
M  V30 1231 H 205.597 3.26331 7.47797 0
M  V30 1232 P 209.559 2.75334 8.47391 0
M  V30 1233 O 209.779 2.44571 9.90142 0
M  V30 1234 O 210.349 3.87688 7.92115 0
M  V30 1235 O 209.809 1.4459 7.59357 0
M  V30 1236 C 208.869 0.347608 7.69215 0
M  V30 1237 C 209.599 -0.96767 7.52806 0
M  V30 1238 O 209.809 -1.21036 6.1011 0
M  V30 1239 C 210.999 -1.04544 8.13308 0
M  V30 1240 O 211.389 -2.38311 8.41922 0
M  V30 1241 C 211.879 -0.491279 7.02284 0
M  V30 1242 C 211.169 -0.996264 5.77469 0
M  V30 1243 N 211.219 -0.0501916 4.62973 0
M  V30 1244 C 211.139 1.32786 4.63244 0
M  V30 1245 N 211.219 1.86957 3.44545 0
M  V30 1246 C 211.359 0.780241 2.58481 0
M  V30 1247 C 211.489 0.738536 1.17757 0
M  V30 1248 O 211.509 1.66794 0.372349 0
M  V30 1249 N 211.609 -0.58337 0.711393 0
M  V30 1250 C 211.609 -1.70816 1.51017 0
M  V30 1251 N 211.739 -2.87826 0.880757 0
M  V30 1252 N 211.479 -1.67126 2.8339 0
M  V30 1253 C 211.359 -0.401421 3.30572 0
M  V30 1254 H 208.38 0.374722 8.67691 0
M  V30 1255 H 208.11 0.443485 6.90277 0
M  V30 1256 H 208.977 -1.75537 7.96793 0
M  V30 1257 H 211.632 -1.95076 5.46529 0
M  V30 1258 H 211.911 0.608565 7.04577 0
M  V30 1259 H 212.903 -0.889672 7.08939 0
M  V30 1260 H 211.069 -0.43308 9.04564 0
M  V30 1261 H 211.02 1.91249 5.54442 0
M  V30 1262 H 211.702 -0.718054 -0.275244 0
M  V30 1263 H 211.739 -3.75721 1.41832 0
M  V30 1264 H 211.84 -2.90436 -0.145468 0
M  V30 1265 P 212.939 -2.75334 8.47391 0
M  V30 1266 O 213.159 -3.84128 9.44797 0
M  V30 1267 O 213.729 -1.51947 8.68712 0
M  V30 1268 O 213.189 -3.29363 6.99321 0
M  V30 1269 C 212.249 -4.24011 6.4274 0
M  V30 1270 C 212.979 -5.20775 5.52155 0
M  V30 1271 O 213.189 -4.56534 4.22446 0
M  V30 1272 C 214.379 -5.62629 5.96531 0
M  V30 1273 O 214.769 -6.87667 5.41053 0
M  V30 1274 C 215.259 -4.52537 5.39283 0
M  V30 1275 C 214.549 -4.20027 4.08623 0
M  V30 1276 N 214.599 -2.76189 3.71603 0
M  V30 1277 H 211.76 -4.797 7.24003 0
M  V30 1278 H 211.49 -3.69856 5.84513 0
M  V30 1279 H 212.357 -6.10356 5.41441 0
M  V30 1280 P 216.319 -7.20834 5.23717 0
M  V30 1281 O 216.539 -8.66104 5.38572 0
M  V30 1282 O 217.109 -6.33544 6.1349 0
M  V30 1283 O 216.569 -6.7751 3.72168 0
M  V30 1284 C 215.629 -7.20825 2.7076 0
M  V30 1285 C 216.359 -7.45864 1.40599 0
M  V30 1286 O 216.569 -6.17651 0.734225 0
M  V30 1287 C 217.759 -8.05808 1.51899 0
M  V30 1288 O 218.149 -8.74358 0.335205 0
M  V30 1289 C 218.639 -6.83093 1.70294 0
M  V30 1290 C 217.929 -5.79992 0.836974 0
M  V30 1291 N 217.979 -4.41864 1.38293 0
M  V30 1292 H 215.14 -8.13644 3.0377 0
M  V30 1293 H 214.87 -6.42788 2.55485 0
M  V30 1294 H 215.737 -8.12039 0.792769 0
M  V30 1295 P 219.699 -8.91 -3.97326e-13 0
M  V30 1296 O 219.919 -10.1726 -0.733694 0
M  V30 1297 O 220.489 -8.73148 1.23936 0
M  V30 1298 O 219.949 -7.66872 -0.971405 0
M  V30 1299 C 219.009 -7.42309 -2.04641 0
M  V30 1300 C 219.739 -6.86059 -3.24661 0
M  V30 1301 O 219.949 -5.42847 -3.03646 0
M  V30 1302 C 221.139 -7.41196 -3.50753 0
M  V30 1303 O 221.529 -7.27073 -4.86816 0
M  V30 1304 C 222.019 -6.5273 -2.63741 0
M  V30 1305 C 221.309 -5.1842 -2.73198 0
M  V30 1306 N 221.359 -4.38762 -1.4784 0
M  V30 1307 H 218.52 -8.36803 -2.32493 0
M  V30 1308 H 218.25 -6.70197 -1.71129 0
M  V30 1309 H 219.117 -7.03551 -4.13168 0
M  V30 1310 P 223.079 -7.20834 -5.23717 0
M  V30 1311 O 223.299 -7.79853 -6.57286 0
M  V30 1312 O 223.869 -7.79239 -4.12957 0
M  V30 1313 O 223.329 -5.63315 -5.29344 0
M  V30 1314 C 222.389 -4.80255 -6.01876 0
M  V30 1315 C 223.119 -3.64202 -6.65911 0
M  V30 1316 O 223.329 -2.60694 -5.64732 0
M  V30 1317 C 224.519 -3.93473 -7.1943 0
M  V30 1318 O 224.909 -3.02071 -8.21205 0
M  V30 1319 C 225.399 -3.73047 -5.97036 0
M  V30 1320 C 224.689 -2.58828 -5.25741 0
M  V30 1321 N 224.739 -2.68068 -3.77503 0
M  V30 1322 C 224.659 -3.79715 -2.96723 0
M  V30 1323 N 224.739 -3.5377 -1.68852 0
M  V30 1324 C 224.879 -2.15054 -1.63254 0
M  V30 1325 C 225.009 -1.28964 -0.518571 0
M  V30 1326 N 225.129 0.0538097 -0.918425 0
M  V30 1327 C 225.129 0.494275 -2.22578 0
M  V30 1328 N 225.259 1.81086 -2.40434 0
M  V30 1329 N 224.999 -0.313645 -3.27502 0
M  V30 1330 C 224.879 -1.61829 -2.91033 0
M  V30 1331 H 221.9 -5.40332 -6.79951 0
M  V30 1332 H 221.63 -4.41613 -5.32378 0
M  V30 1333 H 222.497 -3.26331 -7.47797 0
M  V30 1334 P 226.459 -2.75334 -8.47391 0
M  V30 1335 O 226.679 -2.44571 -9.90142 0
M  V30 1336 O 227.249 -3.87688 -7.92115 0
M  V30 1337 O 226.709 -1.4459 -7.59357 0
M  V30 1338 C 225.769 -0.347608 -7.69215 0
M  V30 1339 C 226.499 0.96767 -7.52806 0
M  V30 1340 O 226.709 1.21036 -6.1011 0
M  V30 1341 C 227.899 1.04544 -8.13308 0
M  V30 1342 O 228.289 2.38311 -8.41922 0
M  V30 1343 C 228.779 0.491279 -7.02284 0
M  V30 1344 C 228.069 0.996264 -5.77469 0
M  V30 1345 N 228.119 0.0501916 -4.62973 0
M  V30 1346 H 225.28 -0.374722 -8.67691 0
M  V30 1347 H 225.01 -0.443485 -6.90277 0
M  V30 1348 H 225.877 1.75537 -7.96793 0
M  V30 1349 P 229.839 2.75334 -8.47391 0
M  V30 1350 O 230.059 3.84166 -9.4489 0
M  V30 1351 O 230.629 1.51964 -8.6881 0
M  V30 1352 O 230.089 3.29363 -6.99321 0
M  V30 1353 C 229.149 4.23956 -6.42656 0
M  V30 1354 C 229.879 5.20775 -5.52155 0
M  V30 1355 O 230.089 4.56534 -4.22446 0
M  V30 1356 C 231.279 5.62629 -5.96531 0
M  V30 1357 O 231.669 6.87667 -5.41053 0
M  V30 1358 C 232.159 4.52537 -5.39283 0
M  V30 1359 C 231.449 4.20027 -4.08623 0
M  V30 1360 N 231.499 2.7613 -3.71522 0
M  V30 1361 C 231.649 2.45612 -2.37989 0
M  V30 1362 O 231.739 3.30919 -1.51621 0
M  V30 1363 N 231.689 1.10684 -2.08435 0
M  V30 1364 C 231.599 0.0690084 -2.9792 0
M  V30 1365 O 231.649 -1.10553 -2.59426 0
M  V30 1366 C 231.449 0.481522 -4.35345 0
M  V30 1367 C 231.339 -0.618778 -5.36443 0
M  V30 1368 C 231.399 1.78906 -4.67968 0
M  V30 1369 H 228.659 4.797 -7.24003 0
M  V30 1370 H 228.39 3.69802 -5.84429 0
M  V30 1371 H 229.257 6.10356 -5.41441 0
M  V30 1372 H 231.912 4.78651 -3.27911 0
M  V30 1373 H 232.191 3.64957 -6.05871 0
M  V30 1374 H 233.183 4.8868 -5.2125 0
M  V30 1375 H 231.349 5.66726 -7.06352 0
M  V30 1376 H 231.278 2.07737 -5.72367 0
M  V30 1377 H 232.308 -0.754375 -5.86871 0
M  V30 1378 H 230.571 -0.359721 -6.10641 0
M  V30 1379 H 231.059 -1.55533 -4.8581 0
M  V30 1380 H 231.795 0.862651 -1.12037 0
M  V30 1381 P 233.219 7.20834 -5.23717 0
M  V30 1382 O 233.439 8.66104 -5.38572 0
M  V30 1383 O 234.009 6.33544 -6.1349 0
M  V30 1384 O 233.469 6.7751 -3.72168 0
M  V30 1385 C 232.529 7.20825 -2.7076 0
M  V30 1386 C 233.259 7.45864 -1.40599 0
M  V30 1387 O 233.469 6.17651 -0.734225 0
M  V30 1388 C 234.659 8.05808 -1.51899 0
M  V30 1389 O 235.049 8.74358 -0.335205 0
M  V30 1390 C 235.539 6.83093 -1.70294 0
M  V30 1391 C 234.829 5.79992 -0.836974 0
M  V30 1392 N 234.879 4.41864 -1.38293 0
M  V30 1393 H 232.04 8.13644 -3.0377 0
M  V30 1394 H 231.77 6.42788 -2.55485 0
M  V30 1395 H 232.637 8.12039 -0.792769 0
M  V30 1396 P 236.599 8.91 5.54508e-13 0
M  V30 1397 O 236.819 10.1726 0.733694 0
M  V30 1398 O 237.389 8.73148 -1.23936 0
M  V30 1399 O 236.849 7.66872 0.971405 0
M  V30 1400 C 235.909 7.42309 2.04641 0
M  V30 1401 C 236.639 6.86059 3.24661 0
M  V30 1402 O 236.849 5.42847 3.03646 0
M  V30 1403 C 238.039 7.41196 3.50753 0
M  V30 1404 O 238.429 7.27073 4.86816 0
M  V30 1405 C 238.919 6.5273 2.63741 0
M  V30 1406 C 238.209 5.1842 2.73198 0
M  V30 1407 N 238.259 4.38762 1.4784 0
M  V30 1408 C 238.179 4.81605 0.168631 0
M  V30 1409 N 238.259 3.85454 -0.713363 0
M  V30 1410 C 238.399 2.6994 0.0566958 0
M  V30 1411 C 238.529 1.34815 -0.338502 0
M  V30 1412 O 238.549 0.869548 -1.47125 0
M  V30 1413 N 238.649 0.496304 0.77465 0
M  V30 1414 C 238.649 0.908403 2.09122 0
M  V30 1415 N 238.779 -0.0517805 3.00955 0
M  V30 1416 N 238.519 2.17875 2.46519 0
M  V30 1417 C 238.399 3.01988 1.4033 0
M  V30 1418 H 235.42 8.36803 2.32493 0
M  V30 1419 H 235.15 6.70197 1.71129 0
M  V30 1420 H 236.017 7.03551 4.13168 0
M  V30 1421 H 238.672 4.59498 3.54415 0
M  V30 1422 H 238.951 6.88898 1.59848 0
M  V30 1423 H 239.943 6.46749 3.03687 0
M  V30 1424 H 238.109 8.46908 3.20714 0
M  V30 1425 H 238.06 5.86405 -0.105564 0
M  V30 1426 H 238.742 -0.483664 0.597855 0
M  V30 1427 H 238.779 0.187865 4.0116 0
M  V30 1428 H 238.88 -1.03585 2.71726 0
M  V30 1429 P 239.979 7.20834 5.23717 0
M  V30 1430 O 240.199 7.79853 6.57286 0
M  V30 1431 O 240.769 7.79239 4.12957 0
M  V30 1432 O 240.229 5.63315 5.29344 0
M  V30 1433 C 239.289 4.80255 6.01876 0
M  V30 1434 C 240.019 3.64202 6.65911 0
M  V30 1435 O 240.229 2.60694 5.64732 0
M  V30 1436 C 241.419 3.93473 7.1943 0
M  V30 1437 O 241.809 3.02071 8.21205 0
M  V30 1438 C 242.299 3.73047 5.97036 0
M  V30 1439 C 241.589 2.58828 5.25741 0
M  V30 1440 N 241.639 2.68068 3.77503 0
M  V30 1441 H 238.8 5.40332 6.79951 0
M  V30 1442 H 238.53 4.41613 5.32378 0
M  V30 1443 H 239.397 3.26331 7.47797 0
M  V30 1444 P 243.359 2.75334 8.47391 0
M  V30 1445 O 243.579 2.44619 9.90336 0
M  V30 1446 O 244.149 3.87776 7.92294 0
M  V30 1447 O 243.609 1.4459 7.59357 0
M  V30 1448 C 242.669 0.347653 7.69315 0
M  V30 1449 C 243.399 -0.96767 7.52806 0
M  V30 1450 O 243.609 -1.21055 6.10208 0
M  V30 1451 C 244.799 -1.04557 8.13408 0
M  V30 1452 O 245.189 -2.38311 8.41922 0
M  V30 1453 C 245.679 -0.491279 7.02284 0
M  V30 1454 C 244.969 -0.996264 5.77469 0
M  V30 1455 N 245.019 -0.0501916 4.62973 0
M  V30 1456 C 244.939 1.31969 4.65661 0
M  V30 1457 N 245.009 1.86649 3.48119 0
M  V30 1458 C 245.159 0.792089 2.62406 0
M  V30 1459 C 245.289 0.705684 1.2207 0
M  V30 1460 N 245.299 1.76207 0.413762 0
M  V30 1461 N 245.409 -0.518981 0.685754 0
M  V30 1462 C 245.399 -1.57595 1.49174 0
M  V30 1463 N 245.279 -1.62909 2.80066 0
M  V30 1464 C 245.159 -0.388195 3.3073 0
M  V30 1465 H 242.181 0.374765 8.67791 0
M  V30 1466 H 241.909 0.443613 6.90476 0
M  V30 1467 H 242.777 -1.75559 7.96891 0
M  V30 1468 H 245.432 -1.94563 5.46818 0
M  V30 1469 H 245.712 0.608651 7.04676 0
M  V30 1470 H 246.703 -0.889796 7.09039 0
M  V30 1471 H 244.869 -0.433128 9.04664 0
M  V30 1472 H 244.828 1.89246 5.57664 0
M  V30 1473 H 245.209 2.71005 0.804694 0
M  V30 1474 H 245.398 1.63189 -0.603768 0
M  V30 1475 H 245.506 -2.53475 0.997614 0
M  V30 1476 P 246.739 -2.75334 8.47391 0
M  V30 1477 O 246.959 -3.84128 9.44797 0
M  V30 1478 O 247.529 -1.51947 8.68712 0
M  V30 1479 O 246.989 -3.29363 6.99321 0
M  V30 1480 C 246.049 -4.24011 6.4274 0
M  V30 1481 C 246.779 -5.20775 5.52155 0
M  V30 1482 O 246.989 -4.56534 4.22446 0
M  V30 1483 C 248.179 -5.62629 5.96531 0
M  V30 1484 O 248.569 -6.87667 5.41053 0
M  V30 1485 C 249.059 -4.52537 5.39283 0
M  V30 1486 C 248.349 -4.20027 4.08623 0
M  V30 1487 N 248.399 -2.76189 3.71603 0
M  V30 1488 H 245.56 -4.797 7.24003 0
M  V30 1489 H 245.29 -3.69856 5.84513 0
M  V30 1490 H 246.157 -6.10356 5.41441 0
M  V30 1491 P 250.119 -7.20834 5.23717 0
M  V30 1492 O 250.339 -8.66104 5.38572 0
M  V30 1493 O 250.909 -6.33544 6.1349 0
M  V30 1494 O 250.369 -6.7751 3.72168 0
M  V30 1495 C 249.429 -7.20825 2.7076 0
M  V30 1496 C 250.159 -7.45864 1.40599 0
M  V30 1497 O 250.369 -6.17651 0.734225 0
M  V30 1498 C 251.559 -8.05808 1.51899 0
M  V30 1499 O 251.949 -8.74358 0.335205 0
M  V30 1500 C 252.439 -6.83093 1.70294 0
M  V30 1501 C 251.729 -5.79992 0.836974 0
M  V30 1502 N 251.779 -4.41864 1.38293 0
M  V30 1503 H 248.94 -8.13644 3.0377 0
M  V30 1504 H 248.67 -6.42788 2.55485 0
M  V30 1505 H 249.537 -8.12039 0.792769 0
M  V30 1506 P 253.498 -8.91 -7.1169e-13 0
M  V30 1507 O 253.718 -10.1726 -0.733694 0
M  V30 1508 O 254.288 -8.73148 1.23936 0
M  V30 1509 O 253.748 -7.66872 -0.971405 0
M  V30 1510 C 252.808 -7.42309 -2.04641 0
M  V30 1511 C 253.538 -6.86059 -3.24661 0
M  V30 1512 O 253.748 -5.42847 -3.03646 0
M  V30 1513 C 254.938 -7.41196 -3.50753 0
M  V30 1514 O 255.328 -7.27073 -4.86816 0
M  V30 1515 C 255.818 -6.5273 -2.63741 0
M  V30 1516 C 255.108 -5.1842 -2.73198 0
M  V30 1517 N 255.158 -4.38762 -1.4784 0
M  V30 1518 H 252.319 -8.36803 -2.32493 0
M  V30 1519 H 252.049 -6.70197 -1.71129 0
M  V30 1520 H 252.916 -7.03551 -4.13168 0
M  V30 1521 P 256.878 -7.20834 -5.23717 0
M  V30 1522 O 257.098 -7.79853 -6.57286 0
M  V30 1523 O 257.668 -7.79239 -4.12957 0
M  V30 1524 O 257.128 -5.63315 -5.29344 0
M  V30 1525 C 256.188 -4.80255 -6.01876 0
M  V30 1526 C 256.918 -3.64202 -6.65911 0
M  V30 1527 O 257.128 -2.60694 -5.64732 0
M  V30 1528 C 258.318 -3.93473 -7.1943 0
M  V30 1529 O 258.708 -3.02071 -8.21205 0
M  V30 1530 C 259.198 -3.73047 -5.97036 0
M  V30 1531 C 258.488 -2.58828 -5.25741 0
M  V30 1532 N 258.538 -2.68068 -3.77503 0
M  V30 1533 H 255.699 -5.40332 -6.79951 0
M  V30 1534 H 255.429 -4.41613 -5.32378 0
M  V30 1535 H 256.296 -3.26331 -7.47797 0
M  V30 1536 P 260.258 -2.75334 -8.47391 0
M  V30 1537 O 260.478 -2.44571 -9.90142 0
M  V30 1538 O 261.048 -3.87688 -7.92115 0
M  V30 1539 O 260.508 -1.4459 -7.59357 0
M  V30 1540 C 259.568 -0.347608 -7.69215 0
M  V30 1541 C 260.298 0.96767 -7.52806 0
M  V30 1542 O 260.508 1.21036 -6.1011 0
M  V30 1543 C 261.698 1.04544 -8.13308 0
M  V30 1544 O 262.088 2.38311 -8.41922 0
M  V30 1545 C 262.578 0.491279 -7.02284 0
M  V30 1546 C 261.868 0.996264 -5.77469 0
M  V30 1547 N 261.918 0.0501916 -4.62973 0
M  V30 1548 C 261.838 -1.32786 -4.63244 0
M  V30 1549 N 261.918 -1.86957 -3.44545 0
M  V30 1550 C 262.058 -0.780241 -2.58481 0
M  V30 1551 C 262.188 -0.738536 -1.17757 0
M  V30 1552 O 262.208 -1.66794 -0.372349 0
M  V30 1553 N 262.308 0.58337 -0.711393 0
M  V30 1554 C 262.308 1.70816 -1.51017 0
M  V30 1555 N 262.438 2.87826 -0.880757 0
M  V30 1556 N 262.178 1.67126 -2.8339 0
M  V30 1557 C 262.058 0.401421 -3.30572 0
M  V30 1558 H 259.079 -0.374722 -8.67691 0
M  V30 1559 H 258.809 -0.443485 -6.90277 0
M  V30 1560 H 259.676 1.75537 -7.96793 0
M  V30 1561 H 262.331 1.95076 -5.46529 0
M  V30 1562 H 262.61 -0.608565 -7.04577 0
M  V30 1563 H 263.602 0.889672 -7.08939 0
M  V30 1564 H 261.768 0.43308 -9.04564 0
M  V30 1565 H 261.719 -1.91249 -5.54442 0
M  V30 1566 H 262.401 0.718054 0.275244 0
M  V30 1567 H 262.438 3.75721 -1.41832 0
M  V30 1568 H 262.539 2.90436 0.145468 0
M  V30 1569 P 263.638 2.75334 -8.47391 0
M  V30 1570 O 263.858 3.84128 -9.44797 0
M  V30 1571 O 264.428 1.51947 -8.68712 0
M  V30 1572 O 263.888 3.29363 -6.99321 0
M  V30 1573 C 262.948 4.24011 -6.4274 0
M  V30 1574 C 263.678 5.20775 -5.52155 0
M  V30 1575 O 263.888 4.56534 -4.22446 0
M  V30 1576 C 265.078 5.62629 -5.96531 0
M  V30 1577 O 265.468 6.87667 -5.41053 0
M  V30 1578 C 265.958 4.52537 -5.39283 0
M  V30 1579 C 265.248 4.20027 -4.08623 0
M  V30 1580 N 265.298 2.76189 -3.71603 0
M  V30 1581 H 262.459 4.797 -7.24003 0
M  V30 1582 H 262.189 3.69856 -5.84513 0
M  V30 1583 H 263.056 6.10356 -5.41441 0
M  V30 1584 P 267.018 7.20834 -5.23717 0
M  V30 1585 O 267.238 8.66104 -5.38572 0
M  V30 1586 O 267.808 6.33544 -6.1349 0
M  V30 1587 O 267.268 6.7751 -3.72168 0
M  V30 1588 C 266.328 7.20825 -2.7076 0
M  V30 1589 C 267.058 7.45864 -1.40599 0
M  V30 1590 O 267.268 6.17651 -0.734225 0
M  V30 1591 C 268.458 8.05808 -1.51899 0
M  V30 1592 O 268.848 8.74358 -0.335205 0
M  V30 1593 C 269.338 6.83093 -1.70294 0
M  V30 1594 C 268.628 5.79992 -0.836974 0
M  V30 1595 N 268.678 4.41864 -1.38293 0
M  V30 1596 H 265.839 8.13644 -3.0377 0
M  V30 1597 H 265.569 6.42788 -2.55485 0
M  V30 1598 H 266.436 8.12039 -0.792769 0
M  V30 1599 P 270.398 8.91 8.68872e-13 0
M  V30 1600 O 270.618 10.1746 0.733838 0
M  V30 1601 O 271.188 8.73346 -1.23964 0
M  V30 1602 O 270.648 7.66872 0.971405 0
M  V30 1603 C 269.708 7.42405 2.04668 0
M  V30 1604 C 270.438 6.86059 3.24661 0
M  V30 1605 O 270.648 5.42934 3.03695 0
M  V30 1606 C 271.838 7.41287 3.50796 0
M  V30 1607 O 272.228 7.27073 4.86816 0
M  V30 1608 C 272.718 6.5273 2.63741 0
M  V30 1609 C 272.008 5.1842 2.73198 0
M  V30 1610 N 272.058 4.38762 1.4784 0
M  V30 1611 C 271.978 4.83651 0.183876 0
M  V30 1612 N 272.048 3.88759 -0.699393 0
M  V30 1613 C 272.198 2.7404 0.0575568 0
M  V30 1614 C 272.328 1.37902 -0.293928 0
M  V30 1615 N 272.338 0.938021 -1.54797 0
M  V30 1616 N 272.448 0.491817 0.70549 0
M  V30 1617 C 272.438 0.931735 1.95979 0
M  V30 1618 N 272.318 2.16017 2.41481 0
M  V30 1619 C 272.198 3.02547 1.39121 0
M  V30 1620 H 269.22 8.36899 2.3252 0
M  V30 1621 H 268.948 6.70391 1.71179 0
M  V30 1622 H 269.816 7.03638 4.13219 0
M  V30 1623 H 272.471 4.59931 3.54016 0
M  V30 1624 H 272.751 6.88995 1.59871 0
M  V30 1625 H 273.742 6.4684 3.0373 0
M  V30 1626 H 271.908 8.47002 3.20749 0
M  V30 1627 H 271.867 5.8885 -0.0765548 0
M  V30 1628 H 272.248 1.60276 -2.32875 0
M  V30 1629 H 272.437 -0.0699355 -1.73859 0
M  V30 1630 H 272.545 0.165507 2.71897 0
M  V30 1631 P 273.778 7.20834 5.23717 0
M  V30 1632 O 273.998 7.80006 6.57415 0
M  V30 1633 O 274.568 7.79416 4.13051 0
M  V30 1634 O 274.028 5.63315 5.29344 0
M  V30 1635 C 273.088 4.80318 6.01954 0
M  V30 1636 C 273.818 3.64202 6.65911 0
M  V30 1637 O 274.028 2.60736 5.64823 0
M  V30 1638 C 275.218 3.93521 7.19518 0
M  V30 1639 O 275.608 3.02071 8.21205 0
M  V30 1640 C 276.098 3.73047 5.97036 0
M  V30 1641 C 275.388 2.58828 5.25741 0
M  V30 1642 N 275.438 2.68068 3.77503 0
M  V30 1643 C 275.358 3.80474 2.99159 0
M  V30 1644 N 275.428 3.55622 1.71925 0
M  V30 1645 C 275.578 2.1832 1.65733 0
M  V30 1646 C 275.708 1.28842 0.572777 0
M  V30 1647 N 275.718 1.66875 -0.70098 0
M  V30 1648 N 275.828 -0.016788 0.859836 0
M  V30 1649 C 275.818 -0.398145 2.13316 0
M  V30 1650 N 275.698 0.328224 3.22333 0
M  V30 1651 C 275.578 1.62992 2.90383 0
M  V30 1652 H 272.6 5.40394 6.8003 0
M  V30 1653 H 272.328 4.41741 5.32532 0
M  V30 1654 H 273.196 3.26371 7.47889 0
M  V30 1655 H 275.851 1.64007 5.56746 0
M  V30 1656 H 276.131 4.63439 5.3432 0
M  V30 1657 H 277.122 3.44776 6.25925 0
M  V30 1658 H 275.288 4.96707 7.57347 0
M  V30 1659 H 275.247 4.8089 3.39924 0
M  V30 1660 H 275.628 2.66547 -0.941919 0
M  V30 1661 H 275.817 0.965341 -1.44766 0
M  V30 1662 H 275.925 -1.46427 2.29697 0
M  V30 1663 P 277.158 2.75334 8.47391 0
M  V30 1664 O 277.378 2.44571 9.90142 0
M  V30 1665 O 277.948 3.87688 7.92115 0
M  V30 1666 O 277.408 1.4459 7.59357 0
M  V30 1667 C 276.468 0.347608 7.69215 0
M  V30 1668 C 277.198 -0.96767 7.52806 0
M  V30 1669 O 277.408 -1.21036 6.1011 0
M  V30 1670 C 278.598 -1.04544 8.13308 0
M  V30 1671 O 278.988 -2.38311 8.41922 0
M  V30 1672 C 279.478 -0.491279 7.02284 0
M  V30 1673 C 278.768 -0.996264 5.77469 0
M  V30 1674 N 278.818 -0.0501916 4.62973 0
M  V30 1675 H 275.979 0.374722 8.67691 0
M  V30 1676 H 275.709 0.443485 6.90277 0
M  V30 1677 H 276.576 -1.75537 7.96793 0
M  V30 1678 P 280.538 -2.75334 8.47391 0
M  V30 1679 O 280.758 -3.84128 9.44797 0
M  V30 1680 O 281.328 -1.51947 8.68712 0
M  V30 1681 O 280.788 -3.29363 6.99321 0
M  V30 1682 C 279.848 -4.24011 6.4274 0
M  V30 1683 C 280.578 -5.20775 5.52155 0
M  V30 1684 O 280.788 -4.56534 4.22446 0
M  V30 1685 C 281.978 -5.62629 5.96531 0
M  V30 1686 O 282.368 -6.87667 5.41053 0
M  V30 1687 C 282.858 -4.52537 5.39283 0
M  V30 1688 C 282.148 -4.20027 4.08623 0
M  V30 1689 N 282.198 -2.76189 3.71603 0
M  V30 1690 H 279.359 -4.797 7.24003 0
M  V30 1691 H 279.089 -3.69856 5.84513 0
M  V30 1692 H 279.956 -6.10356 5.41441 0
M  V30 1693 P 283.918 -7.20834 5.23717 0
M  V30 1694 O 284.138 -8.66274 5.38678 0
M  V30 1695 O 284.708 -6.33687 6.13629 0
M  V30 1696 O 284.168 -6.7751 3.72168 0
M  V30 1697 C 283.228 -7.20919 2.70795 0
M  V30 1698 C 283.958 -7.45864 1.40599 0
M  V30 1699 O 284.168 -6.17751 0.734343 0
M  V30 1700 C 285.358 -8.05906 1.51917 0
M  V30 1701 O 285.748 -8.74358 0.335205 0
M  V30 1702 C 286.238 -6.83093 1.70294 0
M  V30 1703 C 285.528 -5.79992 0.836974 0
M  V30 1704 N 285.578 -4.41864 1.38293 0
M  V30 1705 C 285.498 -4.02089 2.69407 0
M  V30 1706 N 285.568 -2.73403 2.85089 0
M  V30 1707 C 285.718 -2.25086 1.5642 0
M  V30 1708 C 285.848 -0.942887 1.04836 0
M  V30 1709 N 285.858 0.150999 1.80369 0
M  V30 1710 N 285.968 -0.812565 -0.28167 0
M  V30 1711 C 285.958 -1.90572 -1.03784 0
M  V30 1712 N 285.838 -3.167 -0.683905 0
M  V30 1713 C 285.718 -3.26538 0.652815 0
M  V30 1714 H 282.74 -8.13738 3.03804 0
M  V30 1715 H 282.468 -6.42974 2.55559 0
M  V30 1716 H 283.336 -8.12139 0.792866 0
M  V30 1717 H 285.991 -5.80178 -0.160643 0
M  V30 1718 H 286.271 -6.51379 2.75643 0
M  V30 1719 H 287.262 -7.01832 1.3448 0
M  V30 1720 H 285.428 -8.73771 2.38364 0
M  V30 1721 H 285.387 -4.7189 3.52311 0
M  V30 1722 H 285.768 0.0721434 2.82608 0
M  V30 1723 H 285.957 1.0785 1.36544 0
M  V30 1724 H 286.065 -1.73207 -2.10241 0
M  V30 1725 P 287.298 -8.91 -1.02605e-12 0
M  V30 1726 O 287.518 -10.1726 -0.733694 0
M  V30 1727 O 288.088 -8.73148 1.23936 0
M  V30 1728 O 287.548 -7.66872 -0.971405 0
M  V30 1729 C 286.608 -7.42309 -2.04641 0
M  V30 1730 C 287.338 -6.86059 -3.24661 0
M  V30 1731 O 287.548 -5.42847 -3.03646 0
M  V30 1732 C 288.738 -7.41196 -3.50753 0
M  V30 1733 O 289.128 -7.27073 -4.86816 0
M  V30 1734 C 289.618 -6.5273 -2.63741 0
M  V30 1735 C 288.908 -5.1842 -2.73198 0
M  V30 1736 N 288.958 -4.38762 -1.4784 0
M  V30 1737 H 286.119 -8.36803 -2.32493 0
M  V30 1738 H 285.849 -6.70197 -1.71129 0
M  V30 1739 H 286.716 -7.03551 -4.13168 0
M  V30 1740 P 290.678 -7.20834 -5.23717 0
M  V30 1741 O 290.898 -7.79853 -6.57286 0
M  V30 1742 O 291.468 -7.79239 -4.12957 0
M  V30 1743 O 290.928 -5.63315 -5.29344 0
M  V30 1744 C 289.988 -4.80255 -6.01876 0
M  V30 1745 C 290.718 -3.64202 -6.65911 0
M  V30 1746 O 290.928 -2.60694 -5.64732 0
M  V30 1747 C 292.118 -3.93473 -7.1943 0
M  V30 1748 O 292.508 -3.02071 -8.21205 0
M  V30 1749 C 292.998 -3.73047 -5.97036 0
M  V30 1750 C 292.288 -2.58828 -5.25741 0
M  V30 1751 N 292.338 -2.68068 -3.77503 0
M  V30 1752 H 289.499 -5.40332 -6.79951 0
M  V30 1753 H 289.229 -4.41613 -5.32378 0
M  V30 1754 H 290.096 -3.26331 -7.47797 0
M  V30 1755 P 294.058 -2.75334 -8.47391 0
M  V30 1756 O 294.278 -2.44571 -9.90142 0
M  V30 1757 O 294.848 -3.87688 -7.92115 0
M  V30 1758 O 294.308 -1.4459 -7.59357 0
M  V30 1759 C 293.368 -0.347608 -7.69215 0
M  V30 1760 C 294.098 0.96767 -7.52806 0
M  V30 1761 O 294.308 1.21036 -6.1011 0
M  V30 1762 C 295.498 1.04544 -8.13308 0
M  V30 1763 O 295.888 2.38311 -8.41922 0
M  V30 1764 C 296.378 0.491279 -7.02284 0
M  V30 1765 C 295.668 0.996264 -5.77469 0
M  V30 1766 N 295.718 0.0501916 -4.62973 0
M  V30 1767 H 292.879 -0.374722 -8.67691 0
M  V30 1768 H 292.609 -0.443485 -6.90277 0
M  V30 1769 H 293.476 1.75537 -7.96793 0
M  V30 1770 P 297.438 2.75334 -8.47391 0
M  V30 1771 O 297.658 3.84128 -9.44797 0
M  V30 1772 O 298.228 1.51947 -8.68712 0
M  V30 1773 O 297.688 3.29363 -6.99321 0
M  V30 1774 C 296.748 4.24011 -6.4274 0
M  V30 1775 C 297.478 5.20775 -5.52155 0
M  V30 1776 O 297.688 4.56534 -4.22446 0
M  V30 1777 C 298.878 5.62629 -5.96531 0
M  V30 1778 O 299.268 6.87667 -5.41053 0
M  V30 1779 C 299.758 4.52537 -5.39283 0
M  V30 1780 C 299.048 4.20027 -4.08623 0
M  V30 1781 N 299.098 2.76189 -3.71603 0
M  V30 1782 H 296.259 4.797 -7.24003 0
M  V30 1783 H 295.989 3.69856 -5.84513 0
M  V30 1784 H 296.856 6.10356 -5.41441 0
M  V30 1785 P 300.818 7.20834 -5.23717 0
M  V30 1786 O 301.038 8.66104 -5.38572 0
M  V30 1787 O 301.608 6.33544 -6.1349 0
M  V30 1788 O 301.068 6.7751 -3.72168 0
M  V30 1789 C 300.128 7.20825 -2.7076 0
M  V30 1790 C 300.858 7.45864 -1.40599 0
M  V30 1791 O 301.068 6.17651 -0.734225 0
M  V30 1792 C 302.258 8.05808 -1.51899 0
M  V30 1793 O 302.648 8.74358 -0.335205 0
M  V30 1794 C 303.138 6.83093 -1.70294 0
M  V30 1795 C 302.428 5.79992 -0.836974 0
M  V30 1796 N 302.478 4.41864 -1.38293 0
M  V30 1797 H 299.639 8.13644 -3.0377 0
M  V30 1798 H 299.369 6.42788 -2.55485 0
M  V30 1799 H 300.236 8.12039 -0.792769 0
M  V30 1800 P 304.198 8.91 1.18324e-12 0
M  V30 1801 O 304.418 10.1726 0.733694 0
M  V30 1802 O 304.988 8.73148 -1.23936 0
M  V30 1803 O 304.448 7.66872 0.971405 0
M  V30 1804 C 303.508 7.42309 2.04641 0
M  V30 1805 C 304.238 6.86059 3.24661 0
M  V30 1806 O 304.448 5.42847 3.03646 0
M  V30 1807 C 305.638 7.41196 3.50753 0
M  V30 1808 O 306.028 7.27073 4.86816 0
M  V30 1809 C 306.518 6.5273 2.63741 0
M  V30 1810 C 305.808 5.1842 2.73198 0
M  V30 1811 N 305.858 4.38762 1.4784 0
M  V30 1812 C 305.778 4.81605 0.168631 0
M  V30 1813 N 305.858 3.85454 -0.713363 0
M  V30 1814 C 305.998 2.6994 0.0566958 0
M  V30 1815 C 306.128 1.34815 -0.338502 0
M  V30 1816 O 306.148 0.869548 -1.47125 0
M  V30 1817 N 306.248 0.496304 0.77465 0
M  V30 1818 C 306.248 0.908403 2.09122 0
M  V30 1819 N 306.378 -0.0517805 3.00955 0
M  V30 1820 N 306.118 2.17875 2.46519 0
M  V30 1821 C 305.998 3.01988 1.4033 0
M  V30 1822 H 303.019 8.36803 2.32493 0
M  V30 1823 H 302.749 6.70197 1.71129 0
M  V30 1824 H 303.616 7.03551 4.13168 0
M  V30 1825 H 306.271 4.59498 3.54415 0
M  V30 1826 H 306.55 6.88898 1.59848 0
M  V30 1827 H 307.542 6.46749 3.03687 0
M  V30 1828 H 305.708 8.46908 3.20714 0
M  V30 1829 H 305.659 5.86405 -0.105564 0
M  V30 1830 H 306.341 -0.483664 0.597855 0
M  V30 1831 H 306.378 0.187865 4.0116 0
M  V30 1832 H 306.479 -1.03585 2.71726 0
M  V30 1833 P 307.578 7.20834 5.23717 0
M  V30 1834 O 307.798 7.79853 6.57286 0
M  V30 1835 O 308.368 7.79239 4.12957 0
M  V30 1836 O 307.828 5.63315 5.29344 0
M  V30 1837 C 306.888 4.80255 6.01876 0
M  V30 1838 C 307.618 3.64202 6.65911 0
M  V30 1839 O 307.828 2.60694 5.64732 0
M  V30 1840 C 309.018 3.93473 7.1943 0
M  V30 1841 O 309.408 3.02071 8.21205 0
M  V30 1842 C 309.898 3.73047 5.97036 0
M  V30 1843 C 309.188 2.58828 5.25741 0
M  V30 1844 N 309.238 2.68068 3.77503 0
M  V30 1845 H 306.399 5.40332 6.79951 0
M  V30 1846 H 306.129 4.41613 5.32378 0
M  V30 1847 H 306.996 3.26331 7.47797 0
M  V30 1848 P 310.958 2.75334 8.47391 0
M  V30 1849 O 311.178 2.44571 9.90142 0
M  V30 1850 O 311.748 3.87688 7.92115 0
M  V30 1851 O 311.208 1.4459 7.59357 0
M  V30 1852 C 310.268 0.347608 7.69215 0
M  V30 1853 C 310.998 -0.96767 7.52806 0
M  V30 1854 O 311.208 -1.21036 6.1011 0
M  V30 1855 C 312.398 -1.04544 8.13308 0
M  V30 1856 O 312.788 -2.38311 8.41922 0
M  V30 1857 C 313.278 -0.491279 7.02284 0
M  V30 1858 C 312.568 -0.996264 5.77469 0
M  V30 1859 N 312.618 -0.0501916 4.62973 0
M  V30 1860 H 309.779 0.374722 8.67691 0
M  V30 1861 H 309.509 0.443485 6.90277 0
M  V30 1862 H 310.376 -1.75537 7.96793 0
M  V30 1863 P 314.338 -2.75334 8.47391 0
M  V30 1864 O 314.558 -3.84128 9.44797 0
M  V30 1865 O 315.128 -1.51947 8.68712 0
M  V30 1866 O 314.588 -3.29363 6.99321 0
M  V30 1867 C 313.648 -4.24011 6.4274 0
M  V30 1868 C 314.378 -5.20775 5.52155 0
M  V30 1869 O 314.588 -4.56534 4.22446 0
M  V30 1870 C 315.778 -5.62629 5.96531 0
M  V30 1871 O 316.168 -6.87667 5.41053 0
M  V30 1872 C 316.658 -4.52537 5.39283 0
M  V30 1873 C 315.948 -4.20027 4.08623 0
M  V30 1874 N 315.998 -2.76189 3.71603 0
M  V30 1875 H 313.159 -4.797 7.24003 0
M  V30 1876 H 312.889 -3.69856 5.84513 0
M  V30 1877 H 313.756 -6.10356 5.41441 0
M  V30 1878 P 317.718 -7.20834 5.23717 0
M  V30 1879 O 317.938 -8.66104 5.38572 0
M  V30 1880 O 318.508 -6.33544 6.1349 0
M  V30 1881 O 317.968 -6.7751 3.72168 0
M  V30 1882 C 317.028 -7.20825 2.7076 0
M  V30 1883 C 317.758 -7.45864 1.40599 0
M  V30 1884 O 317.968 -6.17651 0.734225 0
M  V30 1885 C 319.158 -8.05808 1.51899 0
M  V30 1886 O 319.548 -8.74358 0.335205 0
M  V30 1887 C 320.038 -6.83093 1.70294 0
M  V30 1888 C 319.328 -5.79992 0.836974 0
M  V30 1889 N 319.378 -4.41864 1.38293 0
M  V30 1890 H 316.539 -8.13644 3.0377 0
M  V30 1891 H 316.269 -6.42788 2.55485 0
M  V30 1892 H 317.136 -8.12039 0.792769 0
M  V30 1893 P 321.098 -8.91 -1.34042e-12 0
M  V30 1894 O 321.318 -10.1726 -0.733694 0
M  V30 1895 O 321.888 -8.73148 1.23936 0
M  V30 1896 O 321.348 -7.66872 -0.971405 0
M  V30 1897 C 320.408 -7.42309 -2.04641 0
M  V30 1898 C 321.138 -6.86059 -3.24661 0
M  V30 1899 O 321.348 -5.42847 -3.03646 0
M  V30 1900 C 322.538 -7.41196 -3.50753 0
M  V30 1901 O 322.928 -7.27073 -4.86816 0
M  V30 1902 C 323.418 -6.5273 -2.63741 0
M  V30 1903 C 322.708 -5.1842 -2.73198 0
M  V30 1904 N 322.758 -4.38762 -1.4784 0
M  V30 1905 H 319.919 -8.36803 -2.32493 0
M  V30 1906 H 319.649 -6.70197 -1.71129 0
M  V30 1907 H 320.516 -7.03551 -4.13168 0
M  V30 1908 P 324.478 -7.20834 -5.23717 0
M  V30 1909 O 324.698 -7.79853 -6.57286 0
M  V30 1910 O 325.268 -7.79239 -4.12957 0
M  V30 1911 O 324.728 -5.63315 -5.29344 0
M  V30 1912 C 323.788 -4.80255 -6.01876 0
M  V30 1913 C 324.518 -3.64202 -6.65911 0
M  V30 1914 O 324.728 -2.60694 -5.64732 0
M  V30 1915 C 325.918 -3.93473 -7.1943 0
M  V30 1916 O 326.308 -3.02071 -8.21205 0
M  V30 1917 C 326.798 -3.73047 -5.97036 0
M  V30 1918 C 326.088 -2.58828 -5.25741 0
M  V30 1919 N 326.138 -2.68068 -3.77503 0
M  V30 1920 H 323.299 -5.40332 -6.79951 0
M  V30 1921 H 323.029 -4.41613 -5.32378 0
M  V30 1922 H 323.896 -3.26331 -7.47797 0
M  V30 1923 P 327.858 -2.75334 -8.47391 0
M  V30 1924 O 328.078 -2.44571 -9.90142 0
M  V30 1925 O 328.648 -3.87688 -7.92115 0
M  V30 1926 O 328.108 -1.4459 -7.59357 0
M  V30 1927 C 327.168 -0.347608 -7.69215 0
M  V30 1928 C 327.898 0.96767 -7.52806 0
M  V30 1929 O 328.108 1.21036 -6.1011 0
M  V30 1930 C 329.298 1.04544 -8.13308 0
M  V30 1931 O 329.688 2.38311 -8.41922 0
M  V30 1932 C 330.178 0.491279 -7.02284 0
M  V30 1933 C 329.468 0.996264 -5.77469 0
M  V30 1934 N 329.518 0.0501916 -4.62973 0
M  V30 1935 H 326.679 -0.374722 -8.67691 0
M  V30 1936 H 326.409 -0.443485 -6.90277 0
M  V30 1937 H 327.276 1.75537 -7.96793 0
M  V30 1938 P 331.238 2.75334 -8.47391 0
M  V30 1939 O 331.458 3.84128 -9.44797 0
M  V30 1940 O 332.028 1.51947 -8.68712 0
M  V30 1941 O 331.488 3.29363 -6.99321 0
M  V30 1942 C 330.548 4.24011 -6.4274 0
M  V30 1943 C 331.278 5.20775 -5.52155 0
M  V30 1944 O 331.488 4.56534 -4.22446 0
M  V30 1945 C 332.678 5.62629 -5.96531 0
M  V30 1946 O 333.068 6.87667 -5.41053 0
M  V30 1947 C 333.558 4.52537 -5.39283 0
M  V30 1948 C 332.848 4.20027 -4.08623 0
M  V30 1949 N 332.898 2.76189 -3.71603 0
M  V30 1950 H 330.059 4.797 -7.24003 0
M  V30 1951 H 329.789 3.69856 -5.84513 0
M  V30 1952 H 330.656 6.10356 -5.41441 0
M  V30 1953 P 334.618 7.20834 -5.23717 0
M  V30 1954 O 334.838 8.66274 -5.38678 0
M  V30 1955 O 335.408 6.33687 -6.13629 0
M  V30 1956 O 334.868 6.7751 -3.72168 0
M  V30 1957 C 333.928 7.20919 -2.70795 0
M  V30 1958 C 334.658 7.45864 -1.40599 0
M  V30 1959 O 334.868 6.17751 -0.734343 0
M  V30 1960 C 336.058 8.05906 -1.51917 0
M  V30 1961 O 336.448 8.74358 -0.335205 0
M  V30 1962 C 336.938 6.83093 -1.70294 0
M  V30 1963 C 336.228 5.79992 -0.836974 0
M  V30 1964 N 336.278 4.41864 -1.38293 0
M  V30 1965 H 333.44 8.13738 -3.03804 0
M  V30 1966 H 333.168 6.42974 -2.55559 0
M  V30 1967 H 334.036 8.12139 -0.792866 0
M  V30 1968 H 336.691 5.80178 0.160643 0
M  V30 1969 H 336.971 6.51379 -2.75643 0
M  V30 1970 H 337.962 7.01832 -1.3448 0
M  V30 1971 H 336.128 8.73771 -2.38364 0
M  V30 1972 P 337.998 8.91 1.4976e-12 0
M  V30 1973 O 338.218 10.1726 0.733694 0
M  V30 1974 O 338.788 8.73148 -1.23936 0
M  V30 1975 O 338.248 7.66872 0.971405 0
M  V30 1976 C 337.308 7.42309 2.04641 0
M  V30 1977 C 338.038 6.86059 3.24661 0
M  V30 1978 O 338.248 5.42847 3.03646 0
M  V30 1979 C 339.438 7.41196 3.50753 0
M  V30 1980 O 339.828 7.27073 4.86816 0
M  V30 1981 C 340.318 6.5273 2.63741 0
M  V30 1982 C 339.608 5.1842 2.73198 0
M  V30 1983 N 339.658 4.38762 1.4784 0
M  V30 1984 C 339.578 4.81605 0.168631 0
M  V30 1985 N 339.658 3.85454 -0.713363 0
M  V30 1986 C 339.798 2.6994 0.0566958 0
M  V30 1987 C 339.928 1.34815 -0.338502 0
M  V30 1988 N 340.048 0.496304 0.77465 0
M  V30 1989 C 340.048 0.908403 2.09122 0
M  V30 1990 N 340.178 -0.0517805 3.00955 0
M  V30 1991 N 339.918 2.17875 2.46519 0
M  V30 1992 C 339.798 3.01988 1.4033 0
M  V30 1993 H 336.819 8.36803 2.32493 0
M  V30 1994 H 336.549 6.70197 1.71129 0
M  V30 1995 H 337.416 7.03551 4.13168 0
M  V30 1996 P 341.378 7.20834 5.23717 0
M  V30 1997 O 341.598 7.79853 6.57286 0
M  V30 1998 O 342.168 7.79239 4.12957 0
M  V30 1999 O 341.628 5.63315 5.29344 0
M  V30 2000 C 340.688 4.80255 6.01876 0
M  V30 2001 C 341.418 3.64202 6.65911 0
M  V30 2002 O 341.628 2.60694 5.64732 0
M  V30 2003 C 342.818 3.93473 7.1943 0
M  V30 2004 O 343.208 3.02071 8.21205 0
M  V30 2005 C 343.698 3.73047 5.97036 0
M  V30 2006 C 342.988 2.58828 5.25741 0
M  V30 2007 N 343.038 2.68068 3.77503 0
M  V30 2008 H 340.199 5.40332 6.79951 0
M  V30 2009 H 339.929 4.41613 5.32378 0
M  V30 2010 H 340.796 3.26331 7.47797 0
M  V30 2011 P 344.758 2.75334 8.47391 0
M  V30 2012 O 344.978 2.44571 9.90142 0
M  V30 2013 O 345.548 3.87688 7.92115 0
M  V30 2014 O 345.008 1.4459 7.59357 0
M  V30 2015 C 344.068 0.347608 7.69215 0
M  V30 2016 C 344.798 -0.96767 7.52806 0
M  V30 2017 O 345.008 -1.21036 6.1011 0
M  V30 2018 C 346.198 -1.04544 8.13308 0
M  V30 2019 O 346.588 -2.38311 8.41922 0
M  V30 2020 C 347.078 -0.491279 7.02284 0
M  V30 2021 C 346.368 -0.996264 5.77469 0
M  V30 2022 N 346.418 -0.0501916 4.62973 0
M  V30 2023 H 343.579 0.374722 8.67691 0
M  V30 2024 H 343.309 0.443485 6.90277 0
M  V30 2025 H 344.176 -1.75537 7.96793 0
M  V30 2026 P 348.138 -2.75334 8.47391 0
M  V30 2027 O 348.358 -3.84128 9.44797 0
M  V30 2028 O 348.928 -1.51947 8.68712 0
M  V30 2029 O 348.388 -3.29363 6.99321 0
M  V30 2030 C 347.448 -4.24011 6.4274 0
M  V30 2031 C 348.178 -5.20775 5.52155 0
M  V30 2032 O 348.388 -4.56534 4.22446 0
M  V30 2033 C 349.578 -5.62629 5.96531 0
M  V30 2034 O 349.968 -6.87667 5.41053 0
M  V30 2035 C 350.458 -4.52537 5.39283 0
M  V30 2036 C 349.748 -4.20027 4.08623 0
M  V30 2037 N 349.798 -2.76189 3.71603 0
M  V30 2038 C 349.718 -1.64862 4.52822 0
M  V30 2039 N 349.798 -0.512671 3.88633 0
M  V30 2040 C 349.938 -0.888083 2.54977 0
M  V30 2041 C 350.068 -0.094668 1.38677 0
M  V30 2042 N 350.188 -0.890102 0.232633 0
M  V30 2043 C 350.188 -2.26958 0.21772 0
M  V30 2044 N 350.318 -2.84626 -0.97925 0
M  V30 2045 N 350.058 -3.0178 1.31033 0
M  V30 2046 C 349.938 -2.26781 2.43843 0
M  V30 2047 H 346.959 -4.797 7.24003 0
M  V30 2048 H 346.689 -3.69856 5.84513 0
M  V30 2049 H 347.556 -6.10356 5.41441 0
M  V30 2050 P 351.518 -7.20834 5.23717 0
M  V30 2051 O 351.738 -8.66104 5.38572 0
M  V30 2052 O 352.308 -6.33544 6.1349 0
M  V30 2053 O 351.768 -6.7751 3.72168 0
M  V30 2054 C 350.828 -7.20825 2.7076 0
M  V30 2055 C 351.558 -7.45864 1.40599 0
M  V30 2056 O 351.768 -6.17651 0.734225 0
M  V30 2057 C 352.958 -8.05808 1.51899 0
M  V30 2058 O 353.348 -8.74358 0.335205 0
M  V30 2059 C 353.838 -6.83093 1.70294 0
M  V30 2060 C 353.128 -5.79992 0.836974 0
M  V30 2061 N 353.178 -4.41864 1.38293 0
M  V30 2062 H 350.339 -8.13644 3.0377 0
M  V30 2063 H 350.069 -6.42788 2.55485 0
M  V30 2064 H 350.936 -8.12039 0.792769 0
M  V30 2065 P 354.898 -8.91 -1.65478e-12 0
M  V30 2066 O 355.118 -10.1746 -0.733838 0
M  V30 2067 O 355.688 -8.73346 1.23964 0
M  V30 2068 O 355.148 -7.66872 -0.971405 0
M  V30 2069 C 354.208 -7.42405 -2.04668 0
M  V30 2070 C 354.938 -6.86059 -3.24661 0
M  V30 2071 O 355.148 -5.42934 -3.03695 0
M  V30 2072 C 356.338 -7.41287 -3.50796 0
M  V30 2073 O 356.728 -7.27073 -4.86816 0
M  V30 2074 C 357.218 -6.5273 -2.63741 0
M  V30 2075 C 356.508 -5.1842 -2.73198 0
M  V30 2076 N 356.558 -4.38762 -1.4784 0
M  V30 2077 C 356.478 -4.83651 -0.183876 0
M  V30 2078 N 356.548 -3.88759 0.699393 0
M  V30 2079 C 356.698 -2.7404 -0.0575568 0
M  V30 2080 C 356.828 -1.37902 0.293928 0
M  V30 2081 N 356.838 -0.938021 1.54797 0
M  V30 2082 N 356.948 -0.491817 -0.70549 0
M  V30 2083 C 356.938 -0.931735 -1.95979 0
M  V30 2084 N 356.818 -2.16017 -2.41481 0
M  V30 2085 C 356.698 -3.02547 -1.39121 0
M  V30 2086 H 353.72 -8.36899 -2.3252 0
M  V30 2087 H 353.448 -6.70391 -1.71179 0
M  V30 2088 H 354.316 -7.03638 -4.13219 0
M  V30 2089 H 356.971 -4.59931 -3.54016 0
M  V30 2090 H 357.251 -6.88995 -1.59871 0
M  V30 2091 H 358.242 -6.4684 -3.0373 0
M  V30 2092 H 356.408 -8.47002 -3.20749 0
M  V30 2093 H 356.367 -5.8885 0.0765548 0
M  V30 2094 H 356.748 -1.60276 2.32875 0
M  V30 2095 H 356.937 0.0699355 1.73859 0
M  V30 2096 H 357.045 -0.165507 -2.71897 0
M  V30 2097 P 358.278 -7.20834 -5.23717 0
M  V30 2098 O 358.498 -7.79853 -6.57286 0
M  V30 2099 O 359.068 -7.79239 -4.12957 0
M  V30 2100 O 358.528 -5.63315 -5.29344 0
M  V30 2101 C 357.588 -4.80255 -6.01876 0
M  V30 2102 C 358.318 -3.64202 -6.65911 0
M  V30 2103 O 358.528 -2.60694 -5.64732 0
M  V30 2104 C 359.718 -3.93473 -7.1943 0
M  V30 2105 O 360.108 -3.02071 -8.21205 0
M  V30 2106 C 360.598 -3.73047 -5.97036 0
M  V30 2107 C 359.888 -2.58828 -5.25741 0
M  V30 2108 N 359.938 -2.68068 -3.77503 0
M  V30 2109 H 357.099 -5.40332 -6.79951 0
M  V30 2110 H 356.829 -4.41613 -5.32378 0
M  V30 2111 H 357.696 -3.26331 -7.47797 0
M  V30 2112 P 361.658 -2.75334 -8.47391 0
M  V30 2113 O 361.878 -2.44571 -9.90142 0
M  V30 2114 O 362.448 -3.87688 -7.92115 0
M  V30 2115 O 361.908 -1.4459 -7.59357 0
M  V30 2116 C 360.968 -0.347608 -7.69215 0
M  V30 2117 C 361.698 0.96767 -7.52806 0
M  V30 2118 O 361.908 1.21036 -6.1011 0
M  V30 2119 C 363.098 1.04544 -8.13308 0
M  V30 2120 O 363.488 2.38311 -8.41922 0
M  V30 2121 C 363.978 0.491279 -7.02284 0
M  V30 2122 C 363.268 0.996264 -5.77469 0
M  V30 2123 N 363.318 0.0501916 -4.62973 0
M  V30 2124 H 360.479 -0.374722 -8.67691 0
M  V30 2125 H 360.209 -0.443485 -6.90277 0
M  V30 2126 H 361.076 1.75537 -7.96793 0
M  V30 2127 P 365.038 2.75334 -8.47391 0
M  V30 2128 O 365.258 3.84204 -9.44982 0
M  V30 2129 O 365.828 1.51982 -8.68909 0
M  V30 2130 O 365.288 3.29363 -6.99321 0
M  V30 2131 C 364.348 4.24066 -6.42823 0
M  V30 2132 C 365.078 5.20775 -5.52155 0
M  V30 2133 O 365.288 4.56607 -4.22514 0
M  V30 2134 C 366.478 5.62697 -5.96604 0
M  V30 2135 O 366.868 6.87667 -5.41053 0
M  V30 2136 C 367.358 4.52537 -5.39283 0
M  V30 2137 C 366.648 4.20027 -4.08623 0
M  V30 2138 N 366.698 2.76189 -3.71603 0
M  V30 2139 H 363.86 4.79756 -7.24086 0
M  V30 2140 H 363.588 3.69963 -5.84682 0
M  V30 2141 H 364.456 6.10431 -5.41508 0
M  V30 2142 H 367.111 4.78816 -3.28024 0
M  V30 2143 H 367.391 3.64957 -6.05871 0
M  V30 2144 H 368.382 4.88748 -5.21323 0
M  V30 2145 H 366.548 5.66789 -7.0643 0
M  V30 2146 P 368.418 7.20834 -5.23717 0
M  V30 2147 O 368.638 8.66104 -5.38572 0
M  V30 2148 O 369.208 6.33544 -6.1349 0
M  V30 2149 O 368.668 6.7751 -3.72168 0
M  V30 2150 C 367.728 7.20825 -2.7076 0
M  V30 2151 C 368.458 7.45864 -1.40599 0
M  V30 2152 O 368.668 6.17651 -0.734225 0
M  V30 2153 C 369.858 8.05808 -1.51899 0
M  V30 2154 O 370.248 8.74358 -0.335205 0
M  V30 2155 C 370.738 6.83093 -1.70294 0
M  V30 2156 C 370.028 5.79992 -0.836974 0
M  V30 2157 N 370.078 4.41864 -1.38293 0
M  V30 2158 H 367.239 8.13644 -3.0377 0
M  V30 2159 H 366.969 6.42788 -2.55485 0
M  V30 2160 H 367.836 8.12039 -0.792769 0
M  V30 2161 P 371.798 8.91 1.81197e-12 0
M  V30 2162 O 372.018 10.1736 0.733766 0
M  V30 2163 O 372.588 8.73247 -1.2395 0
M  V30 2164 O 372.048 7.66872 0.971405 0
M  V30 2165 C 371.108 7.42212 2.04614 0
M  V30 2166 C 371.838 6.86059 3.24661 0
M  V30 2167 O 372.048 5.42847 3.03646 0
M  V30 2168 C 373.238 7.41196 3.50753 0
M  V30 2169 O 373.628 7.27073 4.86816 0
M  V30 2170 C 374.118 6.5273 2.63741 0
M  V30 2171 C 373.408 5.1842 2.73198 0
M  V30 2172 N 373.458 4.38668 1.47808 0
M  V30 2173 C 373.608 3.02239 1.60048 0
M  V30 2174 O 373.698 2.46459 2.67869 0
M  V30 2175 N 373.648 2.32436 0.408571 0
M  V30 2176 C 373.558 2.85471 -0.854993 0
M  V30 2177 C 373.408 4.28918 -0.887335 0
M  V30 2178 C 373.358 5.00349 0.255399 0
M  V30 2179 H 370.618 8.36803 2.32493 0
M  V30 2180 H 370.349 6.701 1.71105 0
M  V30 2181 H 371.216 7.03551 4.13168 0
M  V30 2182 H 373.871 4.59773 3.53894 0
M  V30 2183 H 374.15 6.88995 1.59871 0
M  V30 2184 H 375.142 6.46749 3.03687 0
M  V30 2185 H 373.308 8.46908 3.20714 0
M  V30 2186 H 373.237 6.08548 0.206986 0
M  V30 2187 P 375.178 7.20834 5.23717 0
M  V30 2188 O 375.398 7.79853 6.57286 0
M  V30 2189 O 375.968 7.79239 4.12957 0
M  V30 2190 O 375.428 5.63315 5.29344 0
M  V30 2191 C 374.488 4.80255 6.01876 0
M  V30 2192 C 375.218 3.64202 6.65911 0
M  V30 2193 O 375.428 2.60694 5.64732 0
M  V30 2194 C 376.618 3.93473 7.1943 0
M  V30 2195 O 377.008 3.02071 8.21205 0
M  V30 2196 C 377.498 3.73047 5.97036 0
M  V30 2197 C 376.788 2.58828 5.25741 0
M  V30 2198 N 376.838 2.68068 3.77503 0
M  V30 2199 H 373.999 5.40332 6.79951 0
M  V30 2200 H 373.729 4.41613 5.32378 0
M  V30 2201 H 374.596 3.26331 7.47797 0
M  V30 2202 P 378.558 2.75334 8.47391 0
M  V30 2203 O 378.778 2.44619 9.90336 0
M  V30 2204 O 379.348 3.87776 7.92294 0
M  V30 2205 O 378.808 1.4459 7.59357 0
M  V30 2206 C 377.868 0.347653 7.69315 0
M  V30 2207 C 378.598 -0.96767 7.52806 0
M  V30 2208 O 378.808 -1.21055 6.10208 0
M  V30 2209 C 379.998 -1.04557 8.13408 0
M  V30 2210 O 380.388 -2.38311 8.41922 0
M  V30 2211 C 380.878 -0.491279 7.02284 0
M  V30 2212 C 380.168 -0.996264 5.77469 0
M  V30 2213 N 380.218 -0.0501916 4.62973 0
M  V30 2214 C 380.138 1.31969 4.65661 0
M  V30 2215 N 380.208 1.86649 3.48119 0
M  V30 2216 C 380.358 0.792089 2.62406 0
M  V30 2217 C 380.488 0.705684 1.2207 0
M  V30 2218 N 380.498 1.76207 0.413762 0
M  V30 2219 N 380.608 -0.518981 0.685754 0
M  V30 2220 C 380.598 -1.57595 1.49174 0
M  V30 2221 N 380.478 -1.62909 2.80066 0
M  V30 2222 C 380.358 -0.388195 3.3073 0
M  V30 2223 H 377.38 0.374765 8.67791 0
M  V30 2224 H 377.108 0.443613 6.90476 0
M  V30 2225 H 377.976 -1.75559 7.96891 0
M  V30 2226 H 380.631 -1.94563 5.46818 0
M  V30 2227 H 380.911 0.608651 7.04676 0
M  V30 2228 H 381.902 -0.889796 7.09039 0
M  V30 2229 H 380.068 -0.433128 9.04664 0
M  V30 2230 H 380.027 1.89246 5.57664 0
M  V30 2231 H 380.408 2.71005 0.804694 0
M  V30 2232 H 380.597 1.63189 -0.603768 0
M  V30 2233 H 380.705 -2.53475 0.997614 0
M  V30 2234 P 381.938 -2.75334 8.47391 0
M  V30 2235 O 382.158 -3.84204 9.44982 0
M  V30 2236 O 382.728 -1.51982 8.68909 0
M  V30 2237 O 382.188 -3.29363 6.99321 0
M  V30 2238 C 381.248 -4.24066 6.42823 0
M  V30 2239 C 381.978 -5.20775 5.52155 0
M  V30 2240 O 382.188 -4.56607 4.22514 0
M  V30 2241 C 383.378 -5.62697 5.96604 0
M  V30 2242 O 383.768 -6.87667 5.41053 0
M  V30 2243 C 384.258 -4.52537 5.39283 0
M  V30 2244 C 383.548 -4.20027 4.08623 0
M  V30 2245 N 383.598 -2.76189 3.71603 0
M  V30 2246 H 380.76 -4.79756 7.24086 0
M  V30 2247 H 380.488 -3.69963 5.84682 0
M  V30 2248 H 381.356 -6.10431 5.41508 0
M  V30 2249 H 384.011 -4.78816 3.28024 0
M  V30 2250 H 384.291 -3.64957 6.05871 0
M  V30 2251 H 385.282 -4.88748 5.21323 0
M  V30 2252 H 383.448 -5.66789 7.0643 0
M  V30 2253 P 385.318 -7.20834 5.23717 0
M  V30 2254 O 385.538 -8.66104 5.38572 0
M  V30 2255 O 386.108 -6.33544 6.1349 0
M  V30 2256 O 385.568 -6.7751 3.72168 0
M  V30 2257 C 384.628 -7.20825 2.7076 0
M  V30 2258 C 385.358 -7.45864 1.40599 0
M  V30 2259 O 385.568 -6.17651 0.734225 0
M  V30 2260 C 386.758 -8.05808 1.51899 0
M  V30 2261 O 387.148 -8.74358 0.335205 0
M  V30 2262 C 387.638 -6.83093 1.70294 0
M  V30 2263 C 386.928 -5.79992 0.836974 0
M  V30 2264 N 386.978 -4.41864 1.38293 0
M  V30 2265 H 384.139 -8.13644 3.0377 0
M  V30 2266 H 383.869 -6.42788 2.55485 0
M  V30 2267 H 384.736 -8.12039 0.792769 0
M  V30 2268 P 388.698 -8.91 -1.96915e-12 0
M  V30 2269 O 388.918 -10.1726 -0.733694 0
M  V30 2270 O 389.488 -8.73148 1.23936 0
M  V30 2271 O 388.948 -7.66872 -0.971405 0
M  V30 2272 C 388.008 -7.42309 -2.04641 0
M  V30 2273 C 388.738 -6.86059 -3.24661 0
M  V30 2274 O 388.948 -5.42847 -3.03646 0
M  V30 2275 C 390.138 -7.41196 -3.50753 0
M  V30 2276 O 390.528 -7.27073 -4.86816 0
M  V30 2277 C 391.018 -6.5273 -2.63741 0
M  V30 2278 C 390.308 -5.1842 -2.73198 0
M  V30 2279 N 390.358 -4.38762 -1.4784 0
M  V30 2280 H 387.519 -8.36803 -2.32493 0
M  V30 2281 H 387.249 -6.70197 -1.71129 0
M  V30 2282 H 388.116 -7.03551 -4.13168 0
M  V30 2283 P 392.078 -7.20834 -5.23717 0
M  V30 2284 O 392.298 -7.79853 -6.57286 0
M  V30 2285 O 392.868 -7.79239 -4.12957 0
M  V30 2286 O 392.328 -5.63315 -5.29344 0
M  V30 2287 C 391.388 -4.80255 -6.01876 0
M  V30 2288 C 392.118 -3.64202 -6.65911 0
M  V30 2289 O 392.328 -2.60694 -5.64732 0
M  V30 2290 C 393.518 -3.93473 -7.1943 0
M  V30 2291 O 393.908 -3.02071 -8.21205 0
M  V30 2292 C 394.398 -3.73047 -5.97036 0
M  V30 2293 C 393.688 -2.58828 -5.25741 0
M  V30 2294 N 393.738 -2.68068 -3.77503 0
M  V30 2295 H 390.899 -5.40332 -6.79951 0
M  V30 2296 H 390.629 -4.41613 -5.32378 0
M  V30 2297 H 391.496 -3.26331 -7.47797 0
M  V30 2298 P 395.458 -2.75334 -8.47391 0
M  V30 2299 O 395.678 -2.44571 -9.90142 0
M  V30 2300 O 396.248 -3.87688 -7.92115 0
M  V30 2301 O 395.708 -1.4459 -7.59357 0
M  V30 2302 C 394.768 -0.347608 -7.69215 0
M  V30 2303 C 395.498 0.96767 -7.52806 0
M  V30 2304 O 395.708 1.21036 -6.1011 0
M  V30 2305 C 396.898 1.04544 -8.13308 0
M  V30 2306 O 397.288 2.38311 -8.41922 0
M  V30 2307 C 397.778 0.491279 -7.02284 0
M  V30 2308 C 397.068 0.996264 -5.77469 0
M  V30 2309 N 397.118 0.0501916 -4.62973 0
M  V30 2310 H 394.279 -0.374722 -8.67691 0
M  V30 2311 H 394.009 -0.443485 -6.90277 0
M  V30 2312 H 394.876 1.75537 -7.96793 0
M  V30 2313 P 398.838 2.75334 -8.47391 0
M  V30 2314 O 399.058 3.84204 -9.44982 0
M  V30 2315 O 399.628 1.51982 -8.68909 0
M  V30 2316 O 399.088 3.29363 -6.99321 0
M  V30 2317 C 398.148 4.24066 -6.42823 0
M  V30 2318 C 398.878 5.20775 -5.52155 0
M  V30 2319 O 399.088 4.56607 -4.22514 0
M  V30 2320 C 400.278 5.62697 -5.96604 0
M  V30 2321 O 400.668 6.87667 -5.41053 0
M  V30 2322 C 401.158 4.52537 -5.39283 0
M  V30 2323 C 400.448 4.20027 -4.08623 0
M  V30 2324 N 400.498 2.76189 -3.71603 0
M  V30 2325 H 397.66 4.79756 -7.24086 0
M  V30 2326 H 397.388 3.69963 -5.84682 0
M  V30 2327 H 398.256 6.10431 -5.41508 0
M  V30 2328 H 400.911 4.78816 -3.28024 0
M  V30 2329 H 401.191 3.64957 -6.05871 0
M  V30 2330 H 402.182 4.88748 -5.21323 0
M  V30 2331 H 400.348 5.66789 -7.0643 0
M  V30 2332 P 402.218 7.20834 -5.23717 0
M  V30 2333 O 402.438 8.66104 -5.38572 0
M  V30 2334 O 403.008 6.33544 -6.1349 0
M  V30 2335 O 402.468 6.7751 -3.72168 0
M  V30 2336 C 401.528 7.20825 -2.7076 0
M  V30 2337 C 402.258 7.45864 -1.40599 0
M  V30 2338 O 402.468 6.17651 -0.734225 0
M  V30 2339 C 403.658 8.05808 -1.51899 0
M  V30 2340 O 404.048 8.74358 -0.335205 0
M  V30 2341 C 404.538 6.83093 -1.70294 0
M  V30 2342 C 403.828 5.79992 -0.836974 0
M  V30 2343 N 403.878 4.41864 -1.38293 0
M  V30 2344 H 401.039 8.13644 -3.0377 0
M  V30 2345 H 400.769 6.42788 -2.55485 0
M  V30 2346 H 401.636 8.12039 -0.792769 0
M  V30 2347 P 405.598 8.91 2.12633e-12 0
M  V30 2348 O 405.818 10.1726 0.733694 0
M  V30 2349 O 406.388 8.73148 -1.23936 0
M  V30 2350 O 405.848 7.66872 0.971405 0
M  V30 2351 C 404.908 7.42309 2.04641 0
M  V30 2352 C 405.638 6.86059 3.24661 0
M  V30 2353 O 405.848 5.42847 3.03646 0
M  V30 2354 C 407.038 7.41196 3.50753 0
M  V30 2355 O 407.428 7.27073 4.86816 0
M  V30 2356 C 407.918 6.5273 2.63741 0
M  V30 2357 C 407.208 5.1842 2.73198 0
M  V30 2358 N 407.258 4.38762 1.4784 0
M  V30 2359 H 404.419 8.36803 2.32493 0
M  V30 2360 H 404.149 6.70197 1.71129 0
M  V30 2361 H 405.016 7.03551 4.13168 0
M  V30 2362 P 408.978 7.20834 5.23717 0
M  V30 2363 O 409.198 7.79853 6.57286 0
M  V30 2364 O 409.768 7.79239 4.12957 0
M  V30 2365 O 409.228 5.63315 5.29344 0
M  V30 2366 C 408.288 4.80255 6.01876 0
M  V30 2367 C 409.018 3.64202 6.65911 0
M  V30 2368 O 409.228 2.60694 5.64732 0
M  V30 2369 C 410.418 3.93473 7.1943 0
M  V30 2370 O 410.808 3.02071 8.21205 0
M  V30 2371 C 411.298 3.73047 5.97036 0
M  V30 2372 C 410.588 2.58828 5.25741 0
M  V30 2373 N 410.638 2.68068 3.77503 0
M  V30 2374 H 407.799 5.40332 6.79951 0
M  V30 2375 H 407.529 4.41613 5.32378 0
M  V30 2376 H 408.396 3.26331 7.47797 0
M  V30 2377 P 412.358 2.75334 8.47391 0
M  V30 2378 O 412.578 2.44571 9.90142 0
M  V30 2379 O 413.148 3.87688 7.92115 0
M  V30 2380 O 412.608 1.4459 7.59357 0
M  V30 2381 C 411.668 0.347608 7.69215 0
M  V30 2382 C 412.398 -0.96767 7.52806 0
M  V30 2383 O 412.608 -1.21036 6.1011 0
M  V30 2384 C 413.798 -1.04544 8.13308 0
M  V30 2385 O 414.188 -2.38311 8.41922 0
M  V30 2386 C 414.678 -0.491279 7.02284 0
M  V30 2387 C 413.968 -0.996264 5.77469 0
M  V30 2388 N 414.018 -0.0501916 4.62973 0
M  V30 2389 H 411.179 0.374722 8.67691 0
M  V30 2390 H 410.909 0.443485 6.90277 0
M  V30 2391 H 411.776 -1.75537 7.96793 0
M  V30 2392 P 415.738 -2.75334 8.47391 0
M  V30 2393 O 415.958 -3.84128 9.44797 0
M  V30 2394 O 416.528 -1.51947 8.68712 0
M  V30 2395 O 415.988 -3.29363 6.99321 0
M  V30 2396 C 415.048 -4.24011 6.4274 0
M  V30 2397 C 415.778 -5.20775 5.52155 0
M  V30 2398 O 415.988 -4.56534 4.22446 0
M  V30 2399 C 417.178 -5.62629 5.96531 0
M  V30 2400 O 417.568 -6.87667 5.41053 0
M  V30 2401 C 418.058 -4.52537 5.39283 0
M  V30 2402 C 417.348 -4.20027 4.08623 0
M  V30 2403 N 417.398 -2.76189 3.71603 0
M  V30 2404 C 417.318 -1.64862 4.52822 0
M  V30 2405 N 417.398 -0.512671 3.88633 0
M  V30 2406 C 417.538 -0.888083 2.54977 0
M  V30 2407 C 417.668 -0.094668 1.38677 0
M  V30 2408 O 417.688 1.13053 1.28163 0
M  V30 2409 N 417.788 -0.890102 0.232633 0
M  V30 2410 C 417.788 -2.26958 0.21772 0
M  V30 2411 N 417.918 -2.84626 -0.97925 0
M  V30 2412 N 417.658 -3.0178 1.31033 0
M  V30 2413 C 417.538 -2.26781 2.43843 0
M  V30 2414 H 414.559 -4.797 7.24003 0
M  V30 2415 H 414.289 -3.69856 5.84513 0
M  V30 2416 H 415.156 -6.10356 5.41441 0
M  V30 2417 H 417.811 -4.79061 3.27488 0
M  V30 2418 H 418.09 -3.64906 6.05785 0
M  V30 2419 H 419.082 -4.8868 5.2125 0
M  V30 2420 H 417.248 -5.66726 7.06352 0
M  V30 2421 H 417.199 -1.71169 5.60966 0
M  V30 2422 H 417.881 -0.419134 -0.644739 0
M  V30 2423 H 417.918 -3.87332 -1.06098 0
M  V30 2424 H 418.019 -2.26417 -1.82483 0
M  V30 2425 P 419.118 -7.20834 5.23717 0
M  V30 2426 O 419.338 -8.66104 5.38572 0
M  V30 2427 O 419.908 -6.33544 6.1349 0
M  V30 2428 O 419.368 -6.7751 3.72168 0
M  V30 2429 C 418.428 -7.20825 2.7076 0
M  V30 2430 C 419.158 -7.45864 1.40599 0
M  V30 2431 O 419.368 -6.17651 0.734225 0
M  V30 2432 C 420.558 -8.05808 1.51899 0
M  V30 2433 O 420.948 -8.74358 0.335205 0
M  V30 2434 C 421.438 -6.83093 1.70294 0
M  V30 2435 C 420.728 -5.79992 0.836974 0
M  V30 2436 N 420.778 -4.41864 1.38293 0
M  V30 2437 H 417.939 -8.13644 3.0377 0
M  V30 2438 H 417.669 -6.42788 2.55485 0
M  V30 2439 H 418.536 -8.12039 0.792769 0
M  V30 2440 P 422.497 -8.91 -2.28351e-12 0
M  V30 2441 O 422.717 -10.1726 -0.733694 0
M  V30 2442 O 423.287 -8.73148 1.23936 0
M  V30 2443 O 422.747 -7.66872 -0.971405 0
M  V30 2444 C 421.807 -7.42309 -2.04641 0
M  V30 2445 C 422.537 -6.86059 -3.24661 0
M  V30 2446 O 422.747 -5.42847 -3.03646 0
M  V30 2447 C 423.937 -7.41196 -3.50753 0
M  V30 2448 O 424.327 -7.27073 -4.86816 0
M  V30 2449 C 424.817 -6.5273 -2.63741 0
M  V30 2450 C 424.107 -5.1842 -2.73198 0
M  V30 2451 N 424.157 -4.38762 -1.4784 0
M  V30 2452 C 424.077 -4.81605 -0.168631 0
M  V30 2453 N 424.157 -3.85454 0.713363 0
M  V30 2454 C 424.297 -2.6994 -0.0566958 0
M  V30 2455 C 424.427 -1.34815 0.338502 0
M  V30 2456 O 424.447 -0.869548 1.47125 0
M  V30 2457 N 424.547 -0.496304 -0.77465 0
M  V30 2458 C 424.547 -0.908403 -2.09122 0
M  V30 2459 N 424.677 0.0517805 -3.00955 0
M  V30 2460 N 424.417 -2.17875 -2.46519 0
M  V30 2461 C 424.297 -3.01988 -1.4033 0
M  V30 2462 H 421.318 -8.36803 -2.32493 0
M  V30 2463 H 421.048 -6.70197 -1.71129 0
M  V30 2464 H 421.915 -7.03551 -4.13168 0
M  V30 2465 H 424.57 -4.59498 -3.54415 0
M  V30 2466 H 424.849 -6.88898 -1.59848 0
M  V30 2467 H 425.841 -6.46749 -3.03687 0
M  V30 2468 H 424.007 -8.46908 -3.20714 0
M  V30 2469 H 423.958 -5.86405 0.105564 0
M  V30 2470 H 424.64 0.483664 -0.597855 0
M  V30 2471 H 424.677 -0.187865 -4.0116 0
M  V30 2472 H 424.778 1.03585 -2.71726 0
M  V30 2473 P 425.877 -7.20834 -5.23717 0
M  V30 2474 O 426.097 -7.79853 -6.57286 0
M  V30 2475 O 426.667 -7.79239 -4.12957 0
M  V30 2476 O 426.127 -5.63315 -5.29344 0
M  V30 2477 C 425.187 -4.80255 -6.01876 0
M  V30 2478 C 425.917 -3.64202 -6.65911 0
M  V30 2479 O 426.127 -2.60694 -5.64732 0
M  V30 2480 C 427.317 -3.93473 -7.1943 0
M  V30 2481 O 427.707 -3.02071 -8.21205 0
M  V30 2482 C 428.197 -3.73047 -5.97036 0
M  V30 2483 C 427.487 -2.58828 -5.25741 0
M  V30 2484 N 427.537 -2.68068 -3.77503 0
M  V30 2485 H 424.698 -5.40332 -6.79951 0
M  V30 2486 H 424.428 -4.41613 -5.32378 0
M  V30 2487 H 425.295 -3.26331 -7.47797 0
M  V30 2488 P 429.257 -2.75334 -8.47391 0
M  V30 2489 O 429.477 -2.44619 -9.90336 0
M  V30 2490 O 430.047 -3.87776 -7.92294 0
M  V30 2491 O 429.507 -1.4459 -7.59357 0
M  V30 2492 C 428.567 -0.347653 -7.69315 0
M  V30 2493 C 429.297 0.96767 -7.52806 0
M  V30 2494 O 429.507 1.21055 -6.10208 0
M  V30 2495 C 430.697 1.04557 -8.13408 0
M  V30 2496 O 431.087 2.38311 -8.41922 0
M  V30 2497 C 431.577 0.491279 -7.02284 0
M  V30 2498 C 430.867 0.996264 -5.77469 0
M  V30 2499 N 430.917 0.0501916 -4.62973 0
M  V30 2500 C 430.837 -1.31969 -4.65661 0
M  V30 2501 N 430.907 -1.86649 -3.48119 0
M  V30 2502 C 431.057 -0.792089 -2.62406 0
M  V30 2503 C 431.187 -0.705684 -1.2207 0
M  V30 2504 N 431.197 -1.76207 -0.413762 0
M  V30 2505 N 431.307 0.518981 -0.685754 0
M  V30 2506 C 431.297 1.57595 -1.49174 0
M  V30 2507 N 431.177 1.62909 -2.80066 0
M  V30 2508 C 431.057 0.388195 -3.3073 0
M  V30 2509 H 428.079 -0.374765 -8.67791 0
M  V30 2510 H 427.807 -0.443613 -6.90476 0
M  V30 2511 H 428.675 1.75559 -7.96891 0
M  V30 2512 H 431.33 1.94563 -5.46818 0
M  V30 2513 H 431.61 -0.608651 -7.04676 0
M  V30 2514 H 432.601 0.889796 -7.09039 0
M  V30 2515 H 430.767 0.433128 -9.04664 0
M  V30 2516 H 430.726 -1.89246 -5.57664 0
M  V30 2517 H 431.107 -2.71005 -0.804694 0
M  V30 2518 H 431.296 -1.63189 0.603768 0
M  V30 2519 H 431.404 2.53475 -0.997614 0
M  V30 2520 P 432.637 2.75334 -8.47391 0
M  V30 2521 O 432.857 3.84204 -9.44982 0
M  V30 2522 O 433.427 1.51982 -8.68909 0
M  V30 2523 O 432.887 3.29363 -6.99321 0
M  V30 2524 C 431.947 4.24066 -6.42823 0
M  V30 2525 C 432.677 5.20775 -5.52155 0
M  V30 2526 O 432.887 4.56607 -4.22514 0
M  V30 2527 C 434.077 5.62697 -5.96604 0
M  V30 2528 O 434.467 6.87667 -5.41053 0
M  V30 2529 C 434.957 4.52537 -5.39283 0
M  V30 2530 C 434.247 4.20027 -4.08623 0
M  V30 2531 N 434.297 2.76189 -3.71603 0
M  V30 2532 C 434.217 1.66944 -4.54297 0
M  V30 2533 N 434.287 0.536169 -3.91344 0
M  V30 2534 C 434.437 0.901569 -2.58849 0
M  V30 2535 C 434.567 0.146599 -1.40236 0
M  V30 2536 N 434.577 -1.18234 -1.37046 0
M  V30 2537 N 434.687 0.822941 -0.249738 0
M  V30 2538 C 434.677 2.15179 -0.280525 0
M  V30 2539 N 434.557 2.96414 -1.30822 0
M  V30 2540 C 434.437 2.25804 -2.44748 0
M  V30 2541 H 431.459 4.79756 -7.24086 0
M  V30 2542 H 431.187 3.69963 -5.84682 0
M  V30 2543 H 432.055 6.10431 -5.41508 0
M  V30 2544 H 434.71 4.78816 -3.28024 0
M  V30 2545 H 434.99 3.64957 -6.05871 0
M  V30 2546 H 435.981 4.88748 -5.21323 0
M  V30 2547 H 434.147 5.66789 -7.0643 0
M  V30 2548 H 434.106 1.74684 -5.62396 0
M  V30 2549 H 434.487 -1.71949 -2.24394 0
M  V30 2550 H 434.676 -1.67511 -0.470742 0
M  V30 2551 H 434.784 2.63704 0.6828 0
M  V30 2552 P 436.017 7.20834 -5.23717 0
M  V30 2553 O 436.237 8.66104 -5.38572 0
M  V30 2554 O 436.807 6.33544 -6.1349 0
M  V30 2555 O 436.267 6.7751 -3.72168 0
M  V30 2556 C 435.327 7.20825 -2.7076 0
M  V30 2557 C 436.057 7.45864 -1.40599 0
M  V30 2558 O 436.267 6.17651 -0.734225 0
M  V30 2559 C 437.457 8.05808 -1.51899 0
M  V30 2560 O 437.847 8.74358 -0.335205 0
M  V30 2561 C 438.337 6.83093 -1.70294 0
M  V30 2562 C 437.627 5.79992 -0.836974 0
M  V30 2563 N 437.677 4.41864 -1.38293 0
M  V30 2564 C 437.597 3.99538 -2.69438 0
M  V30 2565 N 437.677 2.69909 -2.84277 0
M  V30 2566 C 437.817 2.21719 -1.5408 0
M  V30 2567 C 437.947 0.891712 -1.06628 0
M  V30 2568 N 438.067 0.856846 0.334985 0
M  V30 2569 C 438.067 1.9641 1.15789 0
M  V30 2570 N 438.197 1.72708 2.46522 0
M  V30 2571 N 437.937 3.21165 0.713741 0
M  V30 2572 C 437.817 3.26797 -0.639748 0
M  V30 2573 H 434.838 8.13644 -3.0377 0
M  V30 2574 H 434.568 6.42788 -2.55485 0
M  V30 2575 H 435.435 8.12039 -0.792769 0
M  V30 2576 P 439.397 8.91 2.44069e-12 0
M  V30 2577 O 439.617 10.1736 0.733766 0
M  V30 2578 O 440.187 8.73247 -1.2395 0
M  V30 2579 O 439.647 7.66872 0.971405 0
M  V30 2580 C 438.707 7.42212 2.04614 0
M  V30 2581 C 439.437 6.86059 3.24661 0
M  V30 2582 O 439.647 5.42847 3.03646 0
M  V30 2583 C 440.837 7.41196 3.50753 0
M  V30 2584 O 441.227 7.27073 4.86816 0
M  V30 2585 C 441.717 6.5273 2.63741 0
M  V30 2586 C 441.007 5.1842 2.73198 0
M  V30 2587 N 441.057 4.38668 1.47808 0
M  V30 2588 C 441.207 3.02239 1.60048 0
M  V30 2589 O 441.297 2.46459 2.67869 0
M  V30 2590 N 441.247 2.32436 0.408571 0
M  V30 2591 C 441.157 2.85471 -0.854993 0
M  V30 2592 O 441.207 2.12566 -1.8531 0
M  V30 2593 C 441.007 4.28918 -0.887335 0
M  V30 2594 C 440.897 4.91066 -2.24619 0
M  V30 2595 C 440.957 5.00349 0.255399 0
M  V30 2596 H 438.217 8.36803 2.32493 0
M  V30 2597 H 437.948 6.701 1.71105 0
M  V30 2598 H 438.815 7.03551 4.13168 0
M  V30 2599 H 441.47 4.59773 3.53894 0
M  V30 2600 H 441.749 6.88995 1.59871 0
M  V30 2601 H 442.741 6.46749 3.03687 0
M  V30 2602 H 440.907 8.46908 3.20714 0
M  V30 2603 H 440.836 6.08548 0.206986 0
M  V30 2604 H 441.866 5.34836 -2.53099 0
M  V30 2605 H 440.129 5.69638 -2.2291 0
M  V30 2606 H 440.617 4.13971 -2.98044 0
M  V30 2607 H 441.353 1.33211 0.474216 0
M  V30 2608 P 442.777 7.20834 5.23717 0
M  V30 2609 O 442.997 7.79853 6.57286 0
M  V30 2610 O 443.567 7.79239 4.12957 0
M  V30 2611 O 443.027 5.63315 5.29344 0
M  V30 2612 C 442.087 4.80255 6.01876 0
M  V30 2613 C 442.817 3.64202 6.65911 0
M  V30 2614 O 443.027 2.60694 5.64732 0
M  V30 2615 C 444.217 3.93473 7.1943 0
M  V30 2616 O 444.607 3.02071 8.21205 0
M  V30 2617 C 445.097 3.73047 5.97036 0
M  V30 2618 C 444.387 2.58828 5.25741 0
M  V30 2619 N 444.437 2.68068 3.77503 0
M  V30 2620 H 441.598 5.40332 6.79951 0
M  V30 2621 H 441.328 4.41613 5.32378 0
M  V30 2622 H 442.195 3.26331 7.47797 0
M  V30 2623 P 446.157 2.75334 8.47391 0
M  V30 2624 O 446.377 2.44571 9.90142 0
M  V30 2625 O 446.947 3.87688 7.92115 0
M  V30 2626 O 446.407 1.4459 7.59357 0
M  V30 2627 C 445.467 0.347608 7.69215 0
M  V30 2628 C 446.197 -0.96767 7.52806 0
M  V30 2629 O 446.407 -1.21036 6.1011 0
M  V30 2630 C 447.597 -1.04544 8.13308 0
M  V30 2631 O 447.987 -2.38311 8.41922 0
M  V30 2632 C 448.477 -0.491279 7.02284 0
M  V30 2633 C 447.767 -0.996264 5.77469 0
M  V30 2634 N 447.817 -0.0501916 4.62973 0
M  V30 2635 C 447.737 1.32786 4.63244 0
M  V30 2636 N 447.817 1.86957 3.44545 0
M  V30 2637 C 447.957 0.780241 2.58481 0
M  V30 2638 C 448.087 0.738536 1.17757 0
M  V30 2639 N 448.207 -0.58337 0.711393 0
M  V30 2640 C 448.207 -1.70816 1.51017 0
M  V30 2641 N 448.337 -2.87826 0.880757 0
M  V30 2642 N 448.077 -1.67126 2.8339 0
M  V30 2643 C 447.957 -0.401421 3.30572 0
M  V30 2644 H 444.978 0.374722 8.67691 0
M  V30 2645 H 444.708 0.443485 6.90277 0
M  V30 2646 H 445.575 -1.75537 7.96793 0
M  V30 2647 P 449.537 -2.75334 8.47391 0
M  V30 2648 O 449.757 -3.84128 9.44797 0
M  V30 2649 O 450.327 -1.51947 8.68712 0
M  V30 2650 O 449.787 -3.29363 6.99321 0
M  V30 2651 C 448.847 -4.24011 6.4274 0
M  V30 2652 C 449.577 -5.20775 5.52155 0
M  V30 2653 O 449.787 -4.56534 4.22446 0
M  V30 2654 C 450.977 -5.62629 5.96531 0
M  V30 2655 O 451.367 -6.87667 5.41053 0
M  V30 2656 C 451.857 -4.52537 5.39283 0
M  V30 2657 C 451.147 -4.20027 4.08623 0
M  V30 2658 N 451.197 -2.76189 3.71603 0
M  V30 2659 H 448.358 -4.797 7.24003 0
M  V30 2660 H 448.088 -3.69856 5.84513 0
M  V30 2661 H 448.955 -6.10356 5.41441 0
M  V30 2662 P 452.917 -7.20834 5.23717 0
M  V30 2663 O 453.137 -8.66104 5.38572 0
M  V30 2664 O 453.707 -6.33544 6.1349 0
M  V30 2665 O 453.167 -6.7751 3.72168 0
M  V30 2666 C 452.227 -7.20825 2.7076 0
M  V30 2667 C 452.957 -7.45864 1.40599 0
M  V30 2668 O 453.167 -6.17651 0.734225 0
M  V30 2669 C 454.357 -8.05808 1.51899 0
M  V30 2670 O 454.747 -8.74358 0.335205 0
M  V30 2671 C 455.237 -6.83093 1.70294 0
M  V30 2672 C 454.527 -5.79992 0.836974 0
M  V30 2673 N 454.577 -4.41864 1.38293 0
M  V30 2674 H 451.738 -8.13644 3.0377 0
M  V30 2675 H 451.468 -6.42788 2.55485 0
M  V30 2676 H 452.335 -8.12039 0.792769 0
M  V30 2677 P 456.297 -8.91 -2.59788e-12 0
M  V30 2678 O 456.517 -10.1726 -0.733694 0
M  V30 2679 O 457.087 -8.73148 1.23936 0
M  V30 2680 O 456.547 -7.66872 -0.971405 0
M  V30 2681 C 455.607 -7.42309 -2.04641 0
M  V30 2682 C 456.337 -6.86059 -3.24661 0
M  V30 2683 O 456.547 -5.42847 -3.03646 0
M  V30 2684 C 457.737 -7.41196 -3.50753 0
M  V30 2685 O 458.127 -7.27073 -4.86816 0
M  V30 2686 C 458.617 -6.5273 -2.63741 0
M  V30 2687 C 457.907 -5.1842 -2.73198 0
M  V30 2688 N 457.957 -4.38762 -1.4784 0
M  V30 2689 H 455.118 -8.36803 -2.32493 0
M  V30 2690 H 454.848 -6.70197 -1.71129 0
M  V30 2691 H 455.715 -7.03551 -4.13168 0
M  V30 2692 P 459.677 -7.20834 -5.23717 0
M  V30 2693 O 459.897 -7.79853 -6.57286 0
M  V30 2694 O 460.467 -7.79239 -4.12957 0
M  V30 2695 O 459.927 -5.63315 -5.29344 0
M  V30 2696 C 458.987 -4.80255 -6.01876 0
M  V30 2697 C 459.717 -3.64202 -6.65911 0
M  V30 2698 O 459.927 -2.60694 -5.64732 0
M  V30 2699 C 461.117 -3.93473 -7.1943 0
M  V30 2700 O 461.507 -3.02071 -8.21205 0
M  V30 2701 C 461.997 -3.73047 -5.97036 0
M  V30 2702 C 461.287 -2.58828 -5.25741 0
M  V30 2703 N 461.337 -2.68068 -3.77503 0
M  V30 2704 H 458.498 -5.40332 -6.79951 0
M  V30 2705 H 458.228 -4.41613 -5.32378 0
M  V30 2706 H 459.095 -3.26331 -7.47797 0
M  V30 2707 P 463.057 -2.75334 -8.47391 0
M  V30 2708 O 463.277 -2.44571 -9.90142 0
M  V30 2709 O 463.847 -3.87688 -7.92115 0
M  V30 2710 O 463.307 -1.4459 -7.59357 0
M  V30 2711 C 462.367 -0.347608 -7.69215 0
M  V30 2712 C 463.097 0.96767 -7.52806 0
M  V30 2713 O 463.307 1.21036 -6.1011 0
M  V30 2714 C 464.497 1.04544 -8.13308 0
M  V30 2715 O 464.887 2.38311 -8.41922 0
M  V30 2716 C 465.377 0.491279 -7.02284 0
M  V30 2717 C 464.667 0.996264 -5.77469 0
M  V30 2718 N 464.717 0.0501916 -4.62973 0
M  V30 2719 C 464.637 -1.32786 -4.63244 0
M  V30 2720 N 464.717 -1.86957 -3.44545 0
M  V30 2721 C 464.857 -0.780241 -2.58481 0
M  V30 2722 C 464.987 -0.738536 -1.17757 0
M  V30 2723 N 465.107 0.58337 -0.711393 0
M  V30 2724 C 465.107 1.70816 -1.51017 0
M  V30 2725 N 465.237 2.87826 -0.880757 0
M  V30 2726 N 464.977 1.67126 -2.8339 0
M  V30 2727 C 464.857 0.401421 -3.30572 0
M  V30 2728 H 461.878 -0.374722 -8.67691 0
M  V30 2729 H 461.608 -0.443485 -6.90277 0
M  V30 2730 H 462.475 1.75537 -7.96793 0
M  V30 2731 P 466.437 2.75334 -8.47391 0
M  V30 2732 O 466.657 3.84128 -9.44797 0
M  V30 2733 O 467.227 1.51947 -8.68712 0
M  V30 2734 O 466.687 3.29363 -6.99321 0
M  V30 2735 C 465.747 4.24011 -6.4274 0
M  V30 2736 C 466.477 5.20775 -5.52155 0
M  V30 2737 O 466.687 4.56534 -4.22446 0
M  V30 2738 C 467.877 5.62629 -5.96531 0
M  V30 2739 O 468.267 6.87667 -5.41053 0
M  V30 2740 C 468.757 4.52537 -5.39283 0
M  V30 2741 C 468.047 4.20027 -4.08623 0
M  V30 2742 N 468.097 2.76189 -3.71603 0
M  V30 2743 H 465.258 4.797 -7.24003 0
M  V30 2744 H 464.988 3.69856 -5.84513 0
M  V30 2745 H 465.855 6.10356 -5.41441 0
M  V30 2746 P 469.817 7.20834 -5.23717 0
M  V30 2747 O 470.037 8.66189 -5.38625 0
M  V30 2748 O 470.607 6.33615 -6.1356 0
M  V30 2749 O 470.067 6.7751 -3.72168 0
M  V30 2750 C 469.127 7.20732 -2.70725 0
M  V30 2751 C 469.857 7.45864 -1.40599 0
M  V30 2752 O 470.067 6.17651 -0.734225 0
M  V30 2753 C 471.257 8.05808 -1.51899 0
M  V30 2754 O 471.647 8.74358 -0.335205 0
M  V30 2755 C 472.137 6.83093 -1.70294 0
M  V30 2756 C 471.427 5.79992 -0.836974 0
M  V30 2757 N 471.477 4.41769 -1.38263 0
M  V30 2758 C 471.627 3.38591 -0.481702 0
M  V30 2759 O 471.717 3.56839 0.718452 0
M  V30 2760 N 471.667 2.1206 -1.03569 0
M  V30 2761 C 471.577 1.80696 -2.36966 0
M  V30 2762 O 471.627 0.630473 -2.74862 0
M  V30 2763 C 471.427 2.94845 -3.23898 0
M  V30 2764 C 471.317 2.65253 -4.70362 0
M  V30 2765 C 471.377 4.19803 -2.73435 0
M  V30 2766 H 468.637 8.13644 -3.0377 0
M  V30 2767 H 468.368 6.42695 -2.55448 0
M  V30 2768 H 469.235 8.12039 -0.792769 0
M  V30 2769 H 471.89 5.79978 0.160587 0
M  V30 2770 H 472.169 6.51379 -2.75643 0
M  V30 2771 H 473.161 7.01734 -1.34462 0
M  V30 2772 H 471.327 8.73674 -2.38337 0
M  V30 2773 H 471.256 5.04492 -3.4095 0
M  V30 2774 H 472.286 2.83924 -5.1913 0
M  V30 2775 H 470.549 3.29824 -5.15163 0
M  V30 2776 H 471.037 1.59723 -4.84449 0
M  V30 2777 H 471.773 1.35644 -0.399345 0
M  V30 2778 P 473.197 8.91 2.75506e-12 0
M  V30 2779 O 473.417 10.1726 0.733694 0
M  V30 2780 O 473.987 8.73148 -1.23936 0
M  V30 2781 O 473.447 7.66872 0.971405 0
M  V30 2782 C 472.507 7.42309 2.04641 0
M  V30 2783 C 473.237 6.86059 3.24661 0
M  V30 2784 O 473.447 5.42847 3.03646 0
M  V30 2785 C 474.637 7.41196 3.50753 0
M  V30 2786 O 475.027 7.27073 4.86816 0
M  V30 2787 C 475.517 6.5273 2.63741 0
M  V30 2788 C 474.807 5.1842 2.73198 0
M  V30 2789 N 474.857 4.38762 1.4784 0
M  V30 2790 H 472.018 8.36803 2.32493 0
M  V30 2791 H 471.748 6.70197 1.71129 0
M  V30 2792 H 472.615 7.03551 4.13168 0
M  V30 2793 P 476.577 7.20834 5.23717 0
M  V30 2794 O 476.797 7.79853 6.57286 0
M  V30 2795 O 477.367 7.79239 4.12957 0
M  V30 2796 O 476.827 5.63315 5.29344 0
M  V30 2797 C 475.887 4.80255 6.01876 0
M  V30 2798 C 476.617 3.64202 6.65911 0
M  V30 2799 O 476.827 2.60694 5.64732 0
M  V30 2800 C 478.017 3.93473 7.1943 0
M  V30 2801 O 478.407 3.02071 8.21205 0
M  V30 2802 C 478.897 3.73047 5.97036 0
M  V30 2803 C 478.187 2.58828 5.25741 0
M  V30 2804 N 478.237 2.68068 3.77503 0
M  V30 2805 H 475.398 5.40332 6.79951 0
M  V30 2806 H 475.128 4.41613 5.32378 0
M  V30 2807 H 475.995 3.26331 7.47797 0
M  V30 2808 P 479.957 2.75334 8.47391 0
M  V30 2809 O 480.177 2.44571 9.90142 0
M  V30 2810 O 480.747 3.87688 7.92115 0
M  V30 2811 O 480.207 1.4459 7.59357 0
M  V30 2812 C 479.267 0.347608 7.69215 0
M  V30 2813 C 479.997 -0.96767 7.52806 0
M  V30 2814 O 480.207 -1.21036 6.1011 0
M  V30 2815 C 481.397 -1.04544 8.13308 0
M  V30 2816 O 481.787 -2.38311 8.41922 0
M  V30 2817 C 482.277 -0.491279 7.02284 0
M  V30 2818 C 481.567 -0.996264 5.77469 0
M  V30 2819 N 481.617 -0.0501916 4.62973 0
M  V30 2820 C 481.537 1.32786 4.63244 0
M  V30 2821 N 481.617 1.86957 3.44545 0
M  V30 2822 C 481.757 0.780241 2.58481 0
M  V30 2823 C 481.887 0.738536 1.17757 0
M  V30 2824 O 481.907 1.66794 0.372349 0
M  V30 2825 N 482.007 -0.58337 0.711393 0
M  V30 2826 C 482.007 -1.70816 1.51017 0
M  V30 2827 N 482.137 -2.87826 0.880757 0
M  V30 2828 N 481.877 -1.67126 2.8339 0
M  V30 2829 C 481.757 -0.401421 3.30572 0
M  V30 2830 H 478.778 0.374722 8.67691 0
M  V30 2831 H 478.508 0.443485 6.90277 0
M  V30 2832 H 479.375 -1.75537 7.96793 0
M  V30 2833 H 482.03 -1.95076 5.46529 0
M  V30 2834 H 482.309 0.608565 7.04577 0
M  V30 2835 H 483.301 -0.889672 7.08939 0
M  V30 2836 H 481.467 -0.43308 9.04564 0
M  V30 2837 H 481.418 1.91249 5.54442 0
M  V30 2838 H 482.1 -0.718054 -0.275244 0
M  V30 2839 H 482.137 -3.75721 1.41832 0
M  V30 2840 H 482.238 -2.90436 -0.145468 0
M  V30 2841 P 483.337 -2.75334 8.47391 0
M  V30 2842 O 483.557 -3.84204 9.44982 0
M  V30 2843 O 484.127 -1.51982 8.68909 0
M  V30 2844 O 483.587 -3.29363 6.99321 0
M  V30 2845 C 482.647 -4.24066 6.42823 0
M  V30 2846 C 483.377 -5.20775 5.52155 0
M  V30 2847 O 483.587 -4.56607 4.22514 0
M  V30 2848 C 484.777 -5.62697 5.96604 0
M  V30 2849 O 485.167 -6.87667 5.41053 0
M  V30 2850 C 485.657 -4.52537 5.39283 0
M  V30 2851 C 484.947 -4.20027 4.08623 0
M  V30 2852 N 484.997 -2.76189 3.71603 0
M  V30 2853 C 484.917 -1.66944 4.54297 0
M  V30 2854 N 484.987 -0.536169 3.91344 0
M  V30 2855 C 485.137 -0.901569 2.58849 0
M  V30 2856 C 485.267 -0.146599 1.40236 0
M  V30 2857 N 485.277 1.18234 1.37046 0
M  V30 2858 N 485.387 -0.822941 0.249738 0
M  V30 2859 C 485.377 -2.15179 0.280525 0
M  V30 2860 N 485.257 -2.96414 1.30822 0
M  V30 2861 C 485.137 -2.25804 2.44748 0
M  V30 2862 H 482.159 -4.79756 7.24086 0
M  V30 2863 H 481.887 -3.69963 5.84682 0
M  V30 2864 H 482.755 -6.10431 5.41508 0
M  V30 2865 H 485.41 -4.78816 3.28024 0
M  V30 2866 H 485.69 -3.64957 6.05871 0
M  V30 2867 H 486.681 -4.88748 5.21323 0
M  V30 2868 H 484.847 -5.66789 7.0643 0
M  V30 2869 H 484.806 -1.74684 5.62396 0
M  V30 2870 H 485.187 1.71949 2.24394 0
M  V30 2871 H 485.376 1.67511 0.470742 0
M  V30 2872 H 485.484 -2.63704 -0.6828 0
M  V30 2873 P 486.717 -7.20834 5.23717 0
M  V30 2874 O 486.937 -8.66189 5.38625 0
M  V30 2875 O 487.507 -6.33615 6.1356 0
M  V30 2876 O 486.967 -6.7751 3.72168 0
M  V30 2877 C 486.027 -7.20732 2.70725 0
M  V30 2878 C 486.757 -7.45864 1.40599 0
M  V30 2879 O 486.967 -6.17651 0.734225 0
M  V30 2880 C 488.157 -8.05808 1.51899 0
M  V30 2881 O 488.547 -8.74358 0.335205 0
M  V30 2882 C 489.037 -6.83093 1.70294 0
M  V30 2883 C 488.327 -5.79992 0.836974 0
M  V30 2884 N 488.377 -4.41769 1.38263 0
M  V30 2885 C 488.527 -3.38591 0.481702 0
M  V30 2886 O 488.617 -3.56839 -0.718452 0
M  V30 2887 N 488.567 -2.1206 1.03569 0
M  V30 2888 C 488.477 -1.80696 2.36966 0
M  V30 2889 O 488.527 -0.630473 2.74862 0
M  V30 2890 C 488.327 -2.94845 3.23898 0
M  V30 2891 C 488.217 -2.65253 4.70362 0
M  V30 2892 C 488.277 -4.19803 2.73435 0
M  V30 2893 H 485.537 -8.13644 3.0377 0
M  V30 2894 H 485.268 -6.42695 2.55448 0
M  V30 2895 H 486.135 -8.12039 0.792769 0
M  V30 2896 H 488.79 -5.79978 -0.160587 0
M  V30 2897 H 489.069 -6.51379 2.75643 0
M  V30 2898 H 490.061 -7.01734 1.34462 0
M  V30 2899 H 488.227 -8.73674 2.38337 0
M  V30 2900 H 488.156 -5.04492 3.4095 0
M  V30 2901 H 489.186 -2.83924 5.1913 0
M  V30 2902 H 487.449 -3.29824 5.15163 0
M  V30 2903 H 487.937 -1.59723 4.84449 0
M  V30 2904 H 488.673 -1.35644 0.399345 0
M  V30 2905 P 490.097 -8.91 -2.91224e-12 0
M  V30 2906 O 490.317 -10.1736 -0.733766 0
M  V30 2907 O 490.887 -8.73247 1.2395 0
M  V30 2908 O 490.347 -7.66872 -0.971405 0
M  V30 2909 C 489.407 -7.42212 -2.04614 0
M  V30 2910 C 490.137 -6.86059 -3.24661 0
M  V30 2911 O 490.347 -5.42847 -3.03646 0
M  V30 2912 C 491.537 -7.41196 -3.50753 0
M  V30 2913 O 491.927 -7.27073 -4.86816 0
M  V30 2914 C 492.417 -6.5273 -2.63741 0
M  V30 2915 C 491.707 -5.1842 -2.73198 0
M  V30 2916 N 491.757 -4.38668 -1.47808 0
M  V30 2917 C 491.907 -3.02239 -1.60048 0
M  V30 2918 O 491.997 -2.46459 -2.67869 0
M  V30 2919 N 491.947 -2.32436 -0.408571 0
M  V30 2920 C 491.857 -2.85471 0.854993 0
M  V30 2921 O 491.907 -2.12566 1.8531 0
M  V30 2922 C 491.707 -4.28918 0.887335 0
M  V30 2923 C 491.597 -4.91066 2.24619 0
M  V30 2924 C 491.657 -5.00349 -0.255399 0
M  V30 2925 H 488.917 -8.36803 -2.32493 0
M  V30 2926 H 488.648 -6.701 -1.71105 0
M  V30 2927 H 489.515 -7.03551 -4.13168 0
M  V30 2928 H 492.17 -4.59773 -3.53894 0
M  V30 2929 H 492.449 -6.88995 -1.59871 0
M  V30 2930 H 493.441 -6.46749 -3.03687 0
M  V30 2931 H 491.607 -8.46908 -3.20714 0
M  V30 2932 H 491.536 -6.08548 -0.206986 0
M  V30 2933 H 492.566 -5.34836 2.53099 0
M  V30 2934 H 490.829 -5.69638 2.2291 0
M  V30 2935 H 491.317 -4.13971 2.98044 0
M  V30 2936 H 492.053 -1.33211 -0.474216 0
M  V30 2937 P 493.477 -7.20834 -5.23717 0
M  V30 2938 O 493.697 -7.79853 -6.57286 0
M  V30 2939 O 494.267 -7.79239 -4.12957 0
M  V30 2940 O 493.727 -5.63315 -5.29344 0
M  V30 2941 C 492.787 -4.80255 -6.01876 0
M  V30 2942 C 493.517 -3.64202 -6.65911 0
M  V30 2943 O 493.727 -2.60694 -5.64732 0
M  V30 2944 C 494.917 -3.93473 -7.1943 0
M  V30 2945 O 495.307 -3.02071 -8.21205 0
M  V30 2946 C 495.797 -3.73047 -5.97036 0
M  V30 2947 C 495.087 -2.58828 -5.25741 0
M  V30 2948 N 495.137 -2.68068 -3.77503 0
M  V30 2949 C 495.057 -3.79715 -2.96723 0
M  V30 2950 N 495.137 -3.5377 -1.68852 0
M  V30 2951 C 495.277 -2.15054 -1.63254 0
M  V30 2952 C 495.407 -1.28964 -0.518571 0
M  V30 2953 N 495.527 0.0538097 -0.918425 0
M  V30 2954 C 495.527 0.494275 -2.22578 0
M  V30 2955 N 495.657 1.81086 -2.40434 0
M  V30 2956 N 495.397 -0.313645 -3.27502 0
M  V30 2957 C 495.277 -1.61829 -2.91033 0
M  V30 2958 H 492.298 -5.40332 -6.79951 0
M  V30 2959 H 492.028 -4.41613 -5.32378 0
M  V30 2960 H 492.895 -3.26331 -7.47797 0
M  V30 2961 P 496.857 -2.75334 -8.47391 0
M  V30 2962 O 497.077 -2.44571 -9.90142 0
M  V30 2963 O 497.647 -3.87688 -7.92115 0
M  V30 2964 O 497.107 -1.4459 -7.59357 0
M  V30 2965 C 496.167 -0.347608 -7.69215 0
M  V30 2966 C 496.897 0.96767 -7.52806 0
M  V30 2967 O 497.107 1.21036 -6.1011 0
M  V30 2968 C 498.297 1.04544 -8.13308 0
M  V30 2969 O 498.687 2.38311 -8.41922 0
M  V30 2970 C 499.177 0.491279 -7.02284 0
M  V30 2971 C 498.467 0.996264 -5.77469 0
M  V30 2972 N 498.517 0.0501916 -4.62973 0
M  V30 2973 H 495.678 -0.374722 -8.67691 0
M  V30 2974 H 495.408 -0.443485 -6.90277 0
M  V30 2975 H 496.275 1.75537 -7.96793 0
M  V30 2976 P 500.237 2.75334 -8.47391 0
M  V30 2977 O 500.457 3.84128 -9.44797 0
M  V30 2978 O 501.027 1.51947 -8.68712 0
M  V30 2979 O 500.487 3.29363 -6.99321 0
M  V30 2980 C 499.547 4.24011 -6.4274 0
M  V30 2981 C 500.277 5.20775 -5.52155 0
M  V30 2982 O 500.487 4.56534 -4.22446 0
M  V30 2983 C 501.677 5.62629 -5.96531 0
M  V30 2984 O 502.067 6.87667 -5.41053 0
M  V30 2985 C 502.557 4.52537 -5.39283 0
M  V30 2986 C 501.847 4.20027 -4.08623 0
M  V30 2987 N 501.897 2.76189 -3.71603 0
M  V30 2988 C 501.817 1.64862 -4.52822 0
M  V30 2989 N 501.897 0.512671 -3.88633 0
M  V30 2990 C 502.037 0.888083 -2.54977 0
M  V30 2991 C 502.167 0.094668 -1.38677 0
M  V30 2992 O 502.187 -1.13053 -1.28163 0
M  V30 2993 N 502.287 0.890102 -0.232633 0
M  V30 2994 C 502.287 2.26958 -0.21772 0
M  V30 2995 N 502.417 2.84626 0.97925 0
M  V30 2996 N 502.157 3.0178 -1.31033 0
M  V30 2997 C 502.037 2.26781 -2.43843 0
M  V30 2998 H 499.058 4.797 -7.24003 0
M  V30 2999 H 498.788 3.69856 -5.84513 0
M  V30 3000 H 499.655 6.10356 -5.41441 0
M  V30 3001 H 502.31 4.79061 -3.27488 0
M  V30 3002 H 502.589 3.64906 -6.05785 0
M  V30 3003 H 503.581 4.8868 -5.2125 0
M  V30 3004 H 501.747 5.66726 -7.06352 0
M  V30 3005 H 501.698 1.71169 -5.60966 0
M  V30 3006 H 502.38 0.419134 0.644739 0
M  V30 3007 H 502.417 3.87332 1.06098 0
M  V30 3008 H 502.518 2.26417 1.82483 0
M  V30 3009 P 503.617 7.20834 -5.23717 0
M  V30 3010 O 503.837 8.66104 -5.38572 0
M  V30 3011 O 504.407 6.33544 -6.1349 0
M  V30 3012 O 503.867 6.7751 -3.72168 0
M  V30 3013 C 502.927 7.20825 -2.7076 0
M  V30 3014 C 503.657 7.45864 -1.40599 0
M  V30 3015 O 503.867 6.17651 -0.734225 0
M  V30 3016 C 505.057 8.05808 -1.51899 0
M  V30 3017 O 505.447 8.74358 -0.335205 0
M  V30 3018 C 505.937 6.83093 -1.70294 0
M  V30 3019 C 505.227 5.79992 -0.836974 0
M  V30 3020 N 505.277 4.41864 -1.38293 0
M  V30 3021 H 502.438 8.13644 -3.0377 0
M  V30 3022 H 502.168 6.42788 -2.55485 0
M  V30 3023 H 503.035 8.12039 -0.792769 0
M  V30 3024 P 506.997 8.91 3.06942e-12 0
M  V30 3025 O 507.217 10.1726 0.733694 0
M  V30 3026 O 507.787 8.73148 -1.23936 0
M  V30 3027 O 507.247 7.66872 0.971405 0
M  V30 3028 C 506.307 7.42309 2.04641 0
M  V30 3029 C 507.037 6.86059 3.24661 0
M  V30 3030 O 507.247 5.42847 3.03646 0
M  V30 3031 C 508.437 7.41196 3.50753 0
M  V30 3032 O 508.827 7.27073 4.86816 0
M  V30 3033 C 509.317 6.5273 2.63741 0
M  V30 3034 C 508.607 5.1842 2.73198 0
M  V30 3035 N 508.657 4.38762 1.4784 0
M  V30 3036 H 505.818 8.36803 2.32493 0
M  V30 3037 H 505.548 6.70197 1.71129 0
M  V30 3038 H 506.415 7.03551 4.13168 0
M  V30 3039 P 510.377 7.20834 5.23717 0
M  V30 3040 O 510.597 7.7993 6.57351 0
M  V30 3041 O 511.167 7.79328 4.13004 0
M  V30 3042 O 510.627 5.63315 5.29344 0
M  V30 3043 C 509.687 4.80193 6.01798 0
M  V30 3044 C 510.417 3.64202 6.65911 0
M  V30 3045 O 510.627 2.60694 5.64732 0
M  V30 3046 C 511.817 3.93473 7.1943 0
M  V30 3047 O 512.207 3.02071 8.21205 0
M  V30 3048 C 512.697 3.73047 5.97036 0
M  V30 3049 C 511.987 2.58828 5.25741 0
M  V30 3050 N 512.037 2.6801 3.77422 0
M  V30 3051 C 512.187 1.50443 3.07133 0
M  V30 3052 O 512.277 0.419406 3.61576 0
M  V30 3053 N 512.227 1.6403 1.69677 0
M  V30 3054 C 512.137 2.81206 0.986255 0
M  V30 3055 O 512.187 2.80892 -0.249754 0
M  V30 3056 C 511.987 3.99158 1.80325 0
M  V30 3057 C 511.877 5.29309 1.06921 0
M  V30 3058 C 511.937 3.89779 3.1476 0
M  V30 3059 H 509.197 5.40332 6.79951 0
M  V30 3060 H 508.928 4.41549 5.32301 0
M  V30 3061 H 509.795 3.26331 7.47797 0
M  V30 3062 H 512.45 1.6395 5.56554 0
M  V30 3063 H 512.729 4.63439 5.3432 0
M  V30 3064 H 513.721 3.44728 6.25838 0
M  V30 3065 H 511.887 4.96652 7.57263 0
M  V30 3066 H 511.816 4.80159 3.74441 0
M  V30 3067 H 512.846 5.81459 1.09608 0
M  V30 3068 H 511.109 5.9187 1.54487 0
M  V30 3069 H 511.597 5.10095 0.0220288 0
M  V30 3070 H 512.333 0.798962 1.16664 0
M  V30 3071 P 513.757 2.75334 8.47391 0
M  V30 3072 O 513.977 2.44619 9.90336 0
M  V30 3073 O 514.547 3.87776 7.92294 0
M  V30 3074 O 514.007 1.4459 7.59357 0
M  V30 3075 C 513.067 0.347653 7.69315 0
M  V30 3076 C 513.797 -0.96767 7.52806 0
M  V30 3077 O 514.007 -1.21055 6.10208 0
M  V30 3078 C 515.197 -1.04557 8.13408 0
M  V30 3079 O 515.587 -2.38311 8.41922 0
M  V30 3080 C 516.077 -0.491279 7.02284 0
M  V30 3081 C 515.367 -0.996264 5.77469 0
M  V30 3082 N 515.417 -0.0501916 4.62973 0
M  V30 3083 C 515.337 1.31969 4.65661 0
M  V30 3084 N 515.407 1.86649 3.48119 0
M  V30 3085 C 515.557 0.792089 2.62406 0
M  V30 3086 C 515.687 0.705684 1.2207 0
M  V30 3087 N 515.697 1.76207 0.413762 0
M  V30 3088 N 515.807 -0.518981 0.685754 0
M  V30 3089 C 515.797 -1.57595 1.49174 0
M  V30 3090 N 515.677 -1.62909 2.80066 0
M  V30 3091 C 515.557 -0.388195 3.3073 0
M  V30 3092 H 512.579 0.374765 8.67791 0
M  V30 3093 H 512.307 0.443613 6.90476 0
M  V30 3094 H 513.175 -1.75559 7.96891 0
M  V30 3095 H 515.83 -1.94563 5.46818 0
M  V30 3096 H 516.11 0.608651 7.04676 0
M  V30 3097 H 517.101 -0.889796 7.09039 0
M  V30 3098 H 515.267 -0.433128 9.04664 0
M  V30 3099 H 515.226 1.89246 5.57664 0
M  V30 3100 H 515.607 2.71005 0.804694 0
M  V30 3101 H 515.796 1.63189 -0.603768 0
M  V30 3102 H 515.904 -2.53475 0.997614 0
M  V30 3103 P 517.137 -2.75334 8.47391 0
M  V30 3104 O 517.357 -3.84128 9.44797 0
M  V30 3105 O 517.927 -1.51947 8.68712 0
M  V30 3106 O 517.387 -3.29363 6.99321 0
M  V30 3107 C 516.447 -4.24011 6.4274 0
M  V30 3108 C 517.177 -5.20775 5.52155 0
M  V30 3109 O 517.387 -4.56534 4.22446 0
M  V30 3110 C 518.577 -5.62629 5.96531 0
M  V30 3111 O 518.967 -6.87667 5.41053 0
M  V30 3112 C 519.457 -4.52537 5.39283 0
M  V30 3113 C 518.747 -4.20027 4.08623 0
M  V30 3114 N 518.797 -2.76189 3.71603 0
M  V30 3115 H 515.958 -4.797 7.24003 0
M  V30 3116 H 515.688 -3.69856 5.84513 0
M  V30 3117 H 516.555 -6.10356 5.41441 0
M  V30 3118 P 520.517 -7.20834 5.23717 0
M  V30 3119 O 520.737 -8.66104 5.38572 0
M  V30 3120 O 521.307 -6.33544 6.1349 0
M  V30 3121 O 520.767 -6.7751 3.72168 0
M  V30 3122 C 519.827 -7.20825 2.7076 0
M  V30 3123 C 520.557 -7.45864 1.40599 0
M  V30 3124 O 520.767 -6.17651 0.734225 0
M  V30 3125 C 521.957 -8.05808 1.51899 0
M  V30 3126 O 522.347 -8.74358 0.335205 0
M  V30 3127 C 522.837 -6.83093 1.70294 0
M  V30 3128 C 522.127 -5.79992 0.836974 0
M  V30 3129 N 522.177 -4.41864 1.38293 0
M  V30 3130 H 519.338 -8.13644 3.0377 0
M  V30 3131 H 519.068 -6.42788 2.55485 0
M  V30 3132 H 519.935 -8.12039 0.792769 0
M  V30 3133 P 523.897 -8.91 -3.22661e-12 0
M  V30 3134 O 524.117 -10.1726 -0.733694 0
M  V30 3135 O 524.687 -8.73148 1.23936 0
M  V30 3136 O 524.147 -7.66872 -0.971405 0
M  V30 3137 C 523.207 -7.42309 -2.04641 0
M  V30 3138 C 523.937 -6.86059 -3.24661 0
M  V30 3139 O 524.147 -5.42847 -3.03646 0
M  V30 3140 C 525.337 -7.41196 -3.50753 0
M  V30 3141 O 525.727 -7.27073 -4.86816 0
M  V30 3142 C 526.217 -6.5273 -2.63741 0
M  V30 3143 C 525.507 -5.1842 -2.73198 0
M  V30 3144 N 525.557 -4.38762 -1.4784 0
M  V30 3145 H 522.718 -8.36803 -2.32493 0
M  V30 3146 H 522.448 -6.70197 -1.71129 0
M  V30 3147 H 523.315 -7.03551 -4.13168 0
M  V30 3148 P 527.277 -7.20834 -5.23717 0
M  V30 3149 O 527.497 -7.79853 -6.57286 0
M  V30 3150 O 528.067 -7.79239 -4.12957 0
M  V30 3151 O 527.527 -5.63315 -5.29344 0
M  V30 3152 C 526.587 -4.80255 -6.01876 0
M  V30 3153 C 527.317 -3.64202 -6.65911 0
M  V30 3154 O 527.527 -2.60694 -5.64732 0
M  V30 3155 C 528.717 -3.93473 -7.1943 0
M  V30 3156 O 529.107 -3.02071 -8.21205 0
M  V30 3157 C 529.597 -3.73047 -5.97036 0
M  V30 3158 C 528.887 -2.58828 -5.25741 0
M  V30 3159 N 528.937 -2.68068 -3.77503 0
M  V30 3160 H 526.098 -5.40332 -6.79951 0
M  V30 3161 H 525.828 -4.41613 -5.32378 0
M  V30 3162 H 526.695 -3.26331 -7.47797 0
M  V30 3163 P 530.657 -2.75334 -8.47391 0
M  V30 3164 O 530.877 -2.44571 -9.90142 0
M  V30 3165 O 531.447 -3.87688 -7.92115 0
M  V30 3166 O 530.907 -1.4459 -7.59357 0
M  V30 3167 C 529.967 -0.347608 -7.69215 0
M  V30 3168 C 530.697 0.96767 -7.52806 0
M  V30 3169 O 530.907 1.21036 -6.1011 0
M  V30 3170 C 532.097 1.04544 -8.13308 0
M  V30 3171 O 532.487 2.38311 -8.41922 0
M  V30 3172 C 532.977 0.491279 -7.02284 0
M  V30 3173 C 532.267 0.996264 -5.77469 0
M  V30 3174 N 532.317 0.0501916 -4.62973 0
M  V30 3175 C 532.237 -1.32786 -4.63244 0
M  V30 3176 N 532.317 -1.86957 -3.44545 0
M  V30 3177 C 532.457 -0.780241 -2.58481 0
M  V30 3178 C 532.587 -0.738536 -1.17757 0
M  V30 3179 N 532.707 0.58337 -0.711393 0
M  V30 3180 C 532.707 1.70816 -1.51017 0
M  V30 3181 N 532.837 2.87826 -0.880757 0
M  V30 3182 N 532.577 1.67126 -2.8339 0
M  V30 3183 C 532.457 0.401421 -3.30572 0
M  V30 3184 H 529.478 -0.374722 -8.67691 0
M  V30 3185 H 529.208 -0.443485 -6.90277 0
M  V30 3186 H 530.075 1.75537 -7.96793 0
M  V30 3187 P 534.037 2.75334 -8.47391 0
M  V30 3188 O 534.257 3.84128 -9.44797 0
M  V30 3189 O 534.827 1.51947 -8.68712 0
M  V30 3190 O 534.287 3.29363 -6.99321 0
M  V30 3191 C 533.347 4.24011 -6.4274 0
M  V30 3192 C 534.077 5.20775 -5.52155 0
M  V30 3193 O 534.287 4.56534 -4.22446 0
M  V30 3194 C 535.477 5.62629 -5.96531 0
M  V30 3195 O 535.867 6.87667 -5.41053 0
M  V30 3196 C 536.357 4.52537 -5.39283 0
M  V30 3197 C 535.647 4.20027 -4.08623 0
M  V30 3198 N 535.697 2.76189 -3.71603 0
M  V30 3199 H 532.858 4.797 -7.24003 0
M  V30 3200 H 532.588 3.69856 -5.84513 0
M  V30 3201 H 533.455 6.10356 -5.41441 0
M  V30 3202 P 537.417 7.20834 -5.23717 0
M  V30 3203 O 537.637 8.66104 -5.38572 0
M  V30 3204 O 538.207 6.33544 -6.1349 0
M  V30 3205 O 537.667 6.7751 -3.72168 0
M  V30 3206 C 536.727 7.20825 -2.7076 0
M  V30 3207 C 537.457 7.45864 -1.40599 0
M  V30 3208 O 537.667 6.17651 -0.734225 0
M  V30 3209 C 538.857 8.05808 -1.51899 0
M  V30 3210 O 539.247 8.74358 -0.335205 0
M  V30 3211 C 539.737 6.83093 -1.70294 0
M  V30 3212 C 539.027 5.79992 -0.836974 0
M  V30 3213 N 539.077 4.41864 -1.38293 0
M  V30 3214 C 538.997 3.99538 -2.69438 0
M  V30 3215 N 539.077 2.69909 -2.84277 0
M  V30 3216 C 539.217 2.21719 -1.5408 0
M  V30 3217 C 539.347 0.891712 -1.06628 0
M  V30 3218 O 539.367 -0.161298 -1.70137 0
M  V30 3219 N 539.467 0.856846 0.334985 0
M  V30 3220 C 539.467 1.9641 1.15789 0
M  V30 3221 N 539.597 1.72708 2.46522 0
M  V30 3222 N 539.337 3.21165 0.713741 0
M  V30 3223 C 539.217 3.26797 -0.639748 0
M  V30 3224 H 536.238 8.13644 -3.0377 0
M  V30 3225 H 535.968 6.42788 -2.55485 0
M  V30 3226 H 536.835 8.12039 -0.792769 0
M  V30 3227 H 539.49 5.80061 0.166416 0
M  V30 3228 H 539.769 6.51287 -2.75604 0
M  V30 3229 H 540.761 7.01734 -1.34462 0
M  V30 3230 H 538.927 8.73674 -2.38337 0
M  V30 3231 H 538.878 4.68207 -3.53221 0
M  V30 3232 H 539.56 -0.0398818 0.767965 0
M  V30 3233 H 539.597 2.50995 3.13503 0
M  V30 3234 H 539.698 0.759148 2.80716 0
M  V30 3235 P 540.797 8.91 3.38379e-12 0
M  V30 3236 O 541.017 10.1726 0.733694 0
M  V30 3237 O 541.587 8.73148 -1.23936 0
M  V30 3238 O 541.047 7.66872 0.971405 0
M  V30 3239 C 540.107 7.42309 2.04641 0
M  V30 3240 C 540.837 6.86059 3.24661 0
M  V30 3241 O 541.047 5.42847 3.03646 0
M  V30 3242 C 542.237 7.41196 3.50753 0
M  V30 3243 O 542.627 7.27073 4.86816 0
M  V30 3244 C 543.117 6.5273 2.63741 0
M  V30 3245 C 542.407 5.1842 2.73198 0
M  V30 3246 N 542.457 4.38762 1.4784 0
M  V30 3247 H 539.618 8.36803 2.32493 0
M  V30 3248 H 539.348 6.70197 1.71129 0
M  V30 3249 H 540.215 7.03551 4.13168 0
M  V30 3250 P 544.177 7.20834 5.23717 0
M  V30 3251 O 544.397 7.79853 6.57286 0
M  V30 3252 O 544.967 7.79239 4.12957 0
M  V30 3253 O 544.427 5.63315 5.29344 0
M  V30 3254 C 543.487 4.80255 6.01876 0
M  V30 3255 C 544.217 3.64202 6.65911 0
M  V30 3256 O 544.427 2.60694 5.64732 0
M  V30 3257 C 545.617 3.93473 7.1943 0
M  V30 3258 O 546.007 3.02071 8.21205 0
M  V30 3259 C 546.497 3.73047 5.97036 0
M  V30 3260 C 545.787 2.58828 5.25741 0
M  V30 3261 N 545.837 2.68068 3.77503 0
M  V30 3262 H 542.998 5.40332 6.79951 0
M  V30 3263 H 542.728 4.41613 5.32378 0
M  V30 3264 H 543.595 3.26331 7.47797 0
M  V30 3265 P 547.557 2.75334 8.47391 0
M  V30 3266 O 547.777 2.44571 9.90142 0
M  V30 3267 O 548.347 3.87688 7.92115 0
M  V30 3268 O 547.807 1.4459 7.59357 0
M  V30 3269 C 546.867 0.347608 7.69215 0
M  V30 3270 C 547.597 -0.96767 7.52806 0
M  V30 3271 O 547.807 -1.21036 6.1011 0
M  V30 3272 C 548.997 -1.04544 8.13308 0
M  V30 3273 O 549.387 -2.38311 8.41922 0
M  V30 3274 C 549.877 -0.491279 7.02284 0
M  V30 3275 C 549.167 -0.996264 5.77469 0
M  V30 3276 N 549.217 -0.0501916 4.62973 0
M  V30 3277 H 546.378 0.374722 8.67691 0
M  V30 3278 H 546.108 0.443485 6.90277 0
M  V30 3279 H 546.975 -1.75537 7.96793 0
M  V30 3280 P 550.937 -2.75334 8.47391 0
M  V30 3281 O 551.157 -3.84204 9.44982 0
M  V30 3282 O 551.727 -1.51982 8.68909 0
M  V30 3283 O 551.187 -3.29363 6.99321 0
M  V30 3284 C 550.247 -4.24066 6.42823 0
M  V30 3285 C 550.977 -5.20775 5.52155 0
M  V30 3286 O 551.187 -4.56607 4.22514 0
M  V30 3287 C 552.377 -5.62697 5.96604 0
M  V30 3288 O 552.767 -6.87667 5.41053 0
M  V30 3289 C 553.257 -4.52537 5.39283 0
M  V30 3290 C 552.547 -4.20027 4.08623 0
M  V30 3291 N 552.597 -2.76189 3.71603 0
M  V30 3292 H 549.759 -4.79756 7.24086 0
M  V30 3293 H 549.487 -3.69963 5.84682 0
M  V30 3294 H 550.355 -6.10431 5.41508 0
M  V30 3295 H 553.01 -4.78816 3.28024 0
M  V30 3296 H 553.29 -3.64957 6.05871 0
M  V30 3297 H 554.281 -4.88748 5.21323 0
M  V30 3298 H 552.447 -5.66789 7.0643 0
M  V30 3299 P 554.317 -7.20834 5.23717 0
M  V30 3300 O 554.537 -8.66104 5.38572 0
M  V30 3301 O 555.107 -6.33544 6.1349 0
M  V30 3302 O 554.567 -6.7751 3.72168 0
M  V30 3303 C 553.627 -7.20825 2.7076 0
M  V30 3304 C 554.357 -7.45864 1.40599 0
M  V30 3305 O 554.567 -6.17651 0.734225 0
M  V30 3306 C 555.757 -8.05808 1.51899 0
M  V30 3307 O 556.147 -8.74358 0.335205 0
M  V30 3308 C 556.637 -6.83093 1.70294 0
M  V30 3309 C 555.927 -5.79992 0.836974 0
M  V30 3310 N 555.977 -4.41864 1.38293 0
M  V30 3311 H 553.138 -8.13644 3.0377 0
M  V30 3312 H 552.868 -6.42788 2.55485 0
M  V30 3313 H 553.735 -8.12039 0.792769 0
M  V30 3314 P 557.697 -8.91 -3.54097e-12 0
M  V30 3315 O 557.917 -10.1726 -0.733694 0
M  V30 3316 O 558.487 -8.73148 1.23936 0
M  V30 3317 O 557.947 -7.66872 -0.971405 0
M  V30 3318 C 557.007 -7.42309 -2.04641 0
M  V30 3319 C 557.737 -6.86059 -3.24661 0
M  V30 3320 O 557.947 -5.42847 -3.03646 0
M  V30 3321 C 559.137 -7.41196 -3.50753 0
M  V30 3322 O 559.527 -7.27073 -4.86816 0
M  V30 3323 C 560.017 -6.5273 -2.63741 0
M  V30 3324 C 559.307 -5.1842 -2.73198 0
M  V30 3325 N 559.357 -4.38762 -1.4784 0
M  V30 3326 H 556.518 -8.36803 -2.32493 0
M  V30 3327 H 556.248 -6.70197 -1.71129 0
M  V30 3328 H 557.115 -7.03551 -4.13168 0
M  V30 3329 P 561.077 -7.20834 -5.23717 0
M  V30 3330 O 561.297 -7.7993 -6.57351 0
M  V30 3331 O 561.867 -7.79328 -4.13004 0
M  V30 3332 O 561.327 -5.63315 -5.29344 0
M  V30 3333 C 560.387 -4.80193 -6.01798 0
M  V30 3334 C 561.117 -3.64202 -6.65911 0
M  V30 3335 O 561.327 -2.60694 -5.64732 0
M  V30 3336 C 562.517 -3.93473 -7.1943 0
M  V30 3337 O 562.907 -3.02071 -8.21205 0
M  V30 3338 C 563.397 -3.73047 -5.97036 0
M  V30 3339 C 562.687 -2.58828 -5.25741 0
M  V30 3340 N 562.737 -2.6801 -3.77422 0
M  V30 3341 C 562.887 -1.50443 -3.07133 0
M  V30 3342 O 562.977 -0.419406 -3.61576 0
M  V30 3343 N 562.927 -1.6403 -1.69677 0
M  V30 3344 C 562.837 -2.81206 -0.986255 0
M  V30 3345 C 562.687 -3.99158 -1.80325 0
M  V30 3346 C 562.637 -3.89779 -3.1476 0
M  V30 3347 H 559.897 -5.40332 -6.79951 0
M  V30 3348 H 559.628 -4.41549 -5.32301 0
M  V30 3349 H 560.495 -3.26331 -7.47797 0
M  V30 3350 H 563.15 -1.6395 -5.56554 0
M  V30 3351 H 563.429 -4.63439 -5.3432 0
M  V30 3352 H 564.421 -3.44728 -6.25838 0
M  V30 3353 H 562.587 -4.96652 -7.57263 0
M  V30 3354 H 562.516 -4.80159 -3.74441 0
M  V30 3355 P 564.457 -2.75334 -8.47391 0
M  V30 3356 O 564.677 -2.44595 -9.90239 0
M  V30 3357 O 565.247 -3.87732 -7.92204 0
M  V30 3358 O 564.707 -1.4459 -7.59357 0
M  V30 3359 C 563.767 -0.347563 -7.69115 0
M  V30 3360 C 564.497 0.96767 -7.52806 0
M  V30 3361 O 564.707 1.21036 -6.1011 0
M  V30 3362 C 565.897 1.04544 -8.13308 0
M  V30 3363 O 566.287 2.38311 -8.41922 0
M  V30 3364 C 566.777 0.491279 -7.02284 0
M  V30 3365 C 566.067 0.996264 -5.77469 0
M  V30 3366 N 566.117 0.0501808 -4.62873 0
M  V30 3367 C 566.267 0.588177 -3.36904 0
M  V30 3368 O 566.357 1.78598 -3.17173 0
M  V30 3369 N 566.307 -0.329694 -2.33686 0
M  V30 3370 C 566.217 -1.6953 -2.45079 0
M  V30 3371 C 566.067 -2.16933 -3.80505 0
M  V30 3372 C 566.017 -1.30326 -4.83752 0
M  V30 3373 H 563.277 -0.374722 -8.67691 0
M  V30 3374 H 563.008 -0.443421 -6.90177 0
M  V30 3375 H 563.875 1.75537 -7.96793 0
M  V30 3376 H 566.53 1.94496 -5.46629 0
M  V30 3377 H 566.809 -0.608651 -7.04676 0
M  V30 3378 H 567.801 0.889672 -7.08939 0
M  V30 3379 H 565.967 0.43308 -9.04564 0
M  V30 3380 H 565.896 -1.68366 -5.8516 0
M  V30 3381 P 567.837 2.75334 -8.47391 0
M  V30 3382 O 568.057 3.84166 -9.4489 0
M  V30 3383 O 568.627 1.51964 -8.6881 0
M  V30 3384 O 568.087 3.29363 -6.99321 0
M  V30 3385 C 567.147 4.23956 -6.42656 0
M  V30 3386 C 567.877 5.20775 -5.52155 0
M  V30 3387 O 568.087 4.56534 -4.22446 0
M  V30 3388 C 569.277 5.62629 -5.96531 0
M  V30 3389 O 569.667 6.87667 -5.41053 0
M  V30 3390 C 570.157 4.52537 -5.39283 0
M  V30 3391 C 569.447 4.20027 -4.08623 0
M  V30 3392 N 569.497 2.7613 -3.71522 0
M  V30 3393 C 569.647 2.45612 -2.37989 0
M  V30 3394 O 569.737 3.30919 -1.51621 0
M  V30 3395 N 569.687 1.10684 -2.08435 0
M  V30 3396 C 569.597 0.0690084 -2.9792 0
M  V30 3397 O 569.647 -1.10553 -2.59426 0
M  V30 3398 C 569.447 0.481522 -4.35345 0
M  V30 3399 C 569.337 -0.618778 -5.36443 0
M  V30 3400 C 569.397 1.78906 -4.67968 0
M  V30 3401 H 566.657 4.797 -7.24003 0
M  V30 3402 H 566.388 3.69802 -5.84429 0
M  V30 3403 H 567.255 6.10356 -5.41441 0
M  V30 3404 H 569.91 4.78651 -3.27911 0
M  V30 3405 H 570.189 3.64957 -6.05871 0
M  V30 3406 H 571.181 4.8868 -5.2125 0
M  V30 3407 H 569.347 5.66726 -7.06352 0
M  V30 3408 H 569.276 2.07737 -5.72367 0
M  V30 3409 H 570.306 -0.754375 -5.86871 0
M  V30 3410 H 568.569 -0.359721 -6.10641 0
M  V30 3411 H 569.057 -1.55533 -4.8581 0
M  V30 3412 H 569.793 0.862651 -1.12037 0
M  V30 3413 P 571.217 7.20834 -5.23717 0
M  V30 3414 O 571.437 8.66104 -5.38572 0
M  V30 3415 O 572.007 6.33544 -6.1349 0
M  V30 3416 O 571.467 6.7751 -3.72168 0
M  V30 3417 C 570.527 7.20825 -2.7076 0
M  V30 3418 C 571.257 7.45864 -1.40599 0
M  V30 3419 O 571.467 6.17651 -0.734225 0
M  V30 3420 C 572.657 8.05808 -1.51899 0
M  V30 3421 O 573.047 8.74358 -0.335205 0
M  V30 3422 C 573.537 6.83093 -1.70294 0
M  V30 3423 C 572.827 5.79992 -0.836974 0
M  V30 3424 N 572.877 4.41864 -1.38293 0
M  V30 3425 H 570.038 8.13644 -3.0377 0
M  V30 3426 H 569.768 6.42788 -2.55485 0
M  V30 3427 H 570.635 8.12039 -0.792769 0
M  V30 3428 P 574.597 8.91 3.69815e-12 0
M  V30 3429 O 574.817 10.1726 0.733694 0
M  V30 3430 O 575.387 8.73148 -1.23936 0
M  V30 3431 O 574.847 7.66872 0.971405 0
M  V30 3432 C 573.907 7.42309 2.04641 0
M  V30 3433 C 574.637 6.86059 3.24661 0
M  V30 3434 O 574.847 5.42847 3.03646 0
M  V30 3435 C 576.037 7.41196 3.50753 0
M  V30 3436 O 576.427 7.27073 4.86816 0
M  V30 3437 C 576.917 6.5273 2.63741 0
M  V30 3438 C 576.207 5.1842 2.73198 0
M  V30 3439 N 576.257 4.38762 1.4784 0
M  V30 3440 H 573.418 8.36803 2.32493 0
M  V30 3441 H 573.148 6.70197 1.71129 0
M  V30 3442 H 574.015 7.03551 4.13168 0
M  V30 3443 P 577.977 7.20834 5.23717 0
M  V30 3444 O 578.197 7.79853 6.57286 0
M  V30 3445 O 578.767 7.79239 4.12957 0
M  V30 3446 O 578.227 5.63315 5.29344 0
M  V30 3447 C 577.287 4.80255 6.01876 0
M  V30 3448 C 578.017 3.64202 6.65911 0
M  V30 3449 O 578.227 2.60694 5.64732 0
M  V30 3450 C 579.417 3.93473 7.1943 0
M  V30 3451 O 579.807 3.02071 8.21205 0
M  V30 3452 C 580.297 3.73047 5.97036 0
M  V30 3453 C 579.587 2.58828 5.25741 0
M  V30 3454 N 579.637 2.68068 3.77503 0
M  V30 3455 H 576.798 5.40332 6.79951 0
M  V30 3456 H 576.528 4.41613 5.32378 0
M  V30 3457 H 577.395 3.26331 7.47797 0
M  V30 3458 P 581.357 2.75334 8.47391 0
M  V30 3459 O 581.577 2.44571 9.90142 0
M  V30 3460 O 582.147 3.87688 7.92115 0
M  V30 3461 O 581.607 1.4459 7.59357 0
M  V30 3462 C 580.667 0.347608 7.69215 0
M  V30 3463 C 581.397 -0.96767 7.52806 0
M  V30 3464 O 581.607 -1.21036 6.1011 0
M  V30 3465 C 582.797 -1.04544 8.13308 0
M  V30 3466 O 583.187 -2.38311 8.41922 0
M  V30 3467 C 583.677 -0.491279 7.02284 0
M  V30 3468 C 582.967 -0.996264 5.77469 0
M  V30 3469 N 583.017 -0.0501916 4.62973 0
M  V30 3470 H 580.178 0.374722 8.67691 0
M  V30 3471 H 579.908 0.443485 6.90277 0
M  V30 3472 H 580.775 -1.75537 7.96793 0
M  V30 3473 P 584.737 -2.75334 8.47391 0
M  V30 3474 O 584.957 -3.84204 9.44982 0
M  V30 3475 O 585.527 -1.51982 8.68909 0
M  V30 3476 O 584.987 -3.29363 6.99321 0
M  V30 3477 C 584.047 -4.24066 6.42823 0
M  V30 3478 C 584.777 -5.20775 5.52155 0
M  V30 3479 O 584.987 -4.56607 4.22514 0
M  V30 3480 C 586.177 -5.62697 5.96604 0
M  V30 3481 O 586.567 -6.87667 5.41053 0
M  V30 3482 C 587.057 -4.52537 5.39283 0
M  V30 3483 C 586.347 -4.20027 4.08623 0
M  V30 3484 N 586.397 -2.76189 3.71603 0
M  V30 3485 C 586.317 -1.66944 4.54297 0
M  V30 3486 N 586.387 -0.536169 3.91344 0
M  V30 3487 C 586.537 -0.901569 2.58849 0
M  V30 3488 C 586.667 -0.146599 1.40236 0
M  V30 3489 N 586.677 1.18234 1.37046 0
M  V30 3490 N 586.787 -0.822941 0.249738 0
M  V30 3491 C 586.777 -2.15179 0.280525 0
M  V30 3492 N 586.657 -2.96414 1.30822 0
M  V30 3493 C 586.537 -2.25804 2.44748 0
M  V30 3494 H 583.559 -4.79756 7.24086 0
M  V30 3495 H 583.287 -3.69963 5.84682 0
M  V30 3496 H 584.155 -6.10431 5.41508 0
M  V30 3497 H 586.81 -4.78816 3.28024 0
M  V30 3498 H 587.09 -3.64957 6.05871 0
M  V30 3499 H 588.081 -4.88748 5.21323 0
M  V30 3500 H 586.247 -5.66789 7.0643 0
M  V30 3501 H 586.206 -1.74684 5.62396 0
M  V30 3502 H 586.587 1.71949 2.24394 0
M  V30 3503 H 586.776 1.67511 0.470742 0
M  V30 3504 H 586.884 -2.63704 -0.6828 0
M  V30 3505 P 588.117 -7.20834 5.23717 0
M  V30 3506 O 588.337 -8.66104 5.38572 0
M  V30 3507 O 588.907 -6.33544 6.1349 0
M  V30 3508 O 588.367 -6.7751 3.72168 0
M  V30 3509 C 587.427 -7.20825 2.7076 0
M  V30 3510 C 588.157 -7.45864 1.40599 0
M  V30 3511 O 588.367 -6.17651 0.734225 0
M  V30 3512 C 589.557 -8.05808 1.51899 0
M  V30 3513 O 589.947 -8.74358 0.335205 0
M  V30 3514 C 590.437 -6.83093 1.70294 0
M  V30 3515 C 589.727 -5.79992 0.836974 0
M  V30 3516 N 589.777 -4.41864 1.38293 0
M  V30 3517 H 586.938 -8.13644 3.0377 0
M  V30 3518 H 586.668 -6.42788 2.55485 0
M  V30 3519 H 587.535 -8.12039 0.792769 0
M  V30 3520 P 591.496 -8.91 -3.85533e-12 0
M  V30 3521 O 591.716 -10.1726 -0.733694 0
M  V30 3522 O 592.286 -8.73148 1.23936 0
M  V30 3523 O 591.746 -7.66872 -0.971405 0
M  V30 3524 C 590.806 -7.42309 -2.04641 0
M  V30 3525 C 591.536 -6.86059 -3.24661 0
M  V30 3526 O 591.746 -5.42847 -3.03646 0
M  V30 3527 C 592.937 -7.41196 -3.50753 0
M  V30 3528 O 593.327 -7.27073 -4.86816 0
M  V30 3529 C 593.817 -6.5273 -2.63741 0
M  V30 3530 C 593.106 -5.1842 -2.73198 0
M  V30 3531 N 593.156 -4.38762 -1.4784 0
M  V30 3532 C 593.077 -4.81605 -0.168631 0
M  V30 3533 N 593.156 -3.85454 0.713363 0
M  V30 3534 C 593.296 -2.6994 -0.0566958 0
M  V30 3535 C 593.426 -1.34815 0.338502 0
M  V30 3536 O 593.447 -0.869548 1.47125 0
M  V30 3537 N 593.546 -0.496304 -0.77465 0
M  V30 3538 C 593.546 -0.908403 -2.09122 0
M  V30 3539 N 593.676 0.0517805 -3.00955 0
M  V30 3540 N 593.416 -2.17875 -2.46519 0
M  V30 3541 C 593.296 -3.01988 -1.4033 0
M  V30 3542 H 590.317 -8.36803 -2.32493 0
M  V30 3543 H 590.048 -6.70197 -1.71129 0
M  V30 3544 H 590.914 -7.03551 -4.13168 0
M  V30 3545 H 593.569 -4.59498 -3.54415 0
M  V30 3546 H 593.848 -6.88898 -1.59848 0
M  V30 3547 H 594.841 -6.46749 -3.03687 0
M  V30 3548 H 593.006 -8.46908 -3.20714 0
M  V30 3549 H 592.957 -5.86405 0.105564 0
M  V30 3550 H 593.639 0.483664 -0.597855 0
M  V30 3551 H 593.676 -0.187865 -4.0116 0
M  V30 3552 H 593.777 1.03585 -2.71726 0
M  V30 3553 P 594.876 -7.20834 -5.23717 0
M  V30 3554 O 595.096 -7.79853 -6.57286 0
M  V30 3555 O 595.666 -7.79239 -4.12957 0
M  V30 3556 O 595.126 -5.63315 -5.29344 0
M  V30 3557 C 594.186 -4.80255 -6.01876 0
M  V30 3558 C 594.916 -3.64202 -6.65911 0
M  V30 3559 O 595.126 -2.60694 -5.64732 0
M  V30 3560 C 596.316 -3.93473 -7.1943 0
M  V30 3561 O 596.706 -3.02071 -8.21205 0
M  V30 3562 C 597.196 -3.73047 -5.97036 0
M  V30 3563 C 596.486 -2.58828 -5.25741 0
M  V30 3564 N 596.536 -2.68068 -3.77503 0
M  V30 3565 H 593.697 -5.40332 -6.79951 0
M  V30 3566 H 593.427 -4.41613 -5.32378 0
M  V30 3567 H 594.294 -3.26331 -7.47797 0
M  V30 3568 P 598.256 -2.75334 -8.47391 0
M  V30 3569 O 598.476 -2.44619 -9.90336 0
M  V30 3570 O 599.046 -3.87776 -7.92294 0
M  V30 3571 O 598.506 -1.4459 -7.59357 0
M  V30 3572 C 597.566 -0.347653 -7.69315 0
M  V30 3573 C 598.296 0.96767 -7.52806 0
M  V30 3574 O 598.506 1.21055 -6.10208 0
M  V30 3575 C 599.696 1.04557 -8.13408 0
M  V30 3576 O 600.086 2.38311 -8.41922 0
M  V30 3577 C 600.576 0.491279 -7.02284 0
M  V30 3578 C 599.866 0.996264 -5.77469 0
M  V30 3579 N 599.916 0.0501916 -4.62973 0
M  V30 3580 H 597.078 -0.374765 -8.67791 0
M  V30 3581 H 596.806 -0.443613 -6.90476 0
M  V30 3582 H 597.674 1.75559 -7.96891 0
M  V30 3583 H 600.329 1.94563 -5.46818 0
M  V30 3584 H 600.609 -0.608651 -7.04676 0
M  V30 3585 H 601.6 0.889796 -7.09039 0
M  V30 3586 H 599.766 0.433128 -9.04664 0
M  V30 3587 P 601.636 2.75334 -8.47391 0
M  V30 3588 O 601.856 3.84128 -9.44797 0
M  V30 3589 O 602.426 1.51947 -8.68712 0
M  V30 3590 O 601.886 3.29363 -6.99321 0
M  V30 3591 C 600.946 4.24011 -6.4274 0
M  V30 3592 C 601.676 5.20775 -5.52155 0
M  V30 3593 O 601.886 4.56534 -4.22446 0
M  V30 3594 C 603.076 5.62629 -5.96531 0
M  V30 3595 O 603.466 6.87667 -5.41053 0
M  V30 3596 C 603.956 4.52537 -5.39283 0
M  V30 3597 C 603.246 4.20027 -4.08623 0
M  V30 3598 N 603.296 2.76189 -3.71603 0
M  V30 3599 C 603.216 1.64862 -4.52822 0
M  V30 3600 N 603.296 0.512671 -3.88633 0
M  V30 3601 C 603.436 0.888083 -2.54977 0
M  V30 3602 C 603.566 0.094668 -1.38677 0
M  V30 3603 N 603.686 0.890102 -0.232633 0
M  V30 3604 C 603.686 2.26958 -0.21772 0
M  V30 3605 N 603.816 2.84626 0.97925 0
M  V30 3606 N 603.556 3.0178 -1.31033 0
M  V30 3607 C 603.436 2.26781 -2.43843 0
M  V30 3608 H 600.457 4.797 -7.24003 0
M  V30 3609 H 600.187 3.69856 -5.84513 0
M  V30 3610 H 601.054 6.10356 -5.41441 0
M  V30 3611 P 605.016 7.20834 -5.23717 0
M  V30 3612 O 605.236 8.66104 -5.38572 0
M  V30 3613 O 605.806 6.33544 -6.1349 0
M  V30 3614 O 605.266 6.7751 -3.72168 0
M  V30 3615 C 604.326 7.20825 -2.7076 0
M  V30 3616 C 605.056 7.45864 -1.40599 0
M  V30 3617 O 605.266 6.17651 -0.734225 0
M  V30 3618 C 606.456 8.05808 -1.51899 0
M  V30 3619 O 606.846 8.74358 -0.335205 0
M  V30 3620 C 607.336 6.83093 -1.70294 0
M  V30 3621 C 606.626 5.79992 -0.836974 0
M  V30 3622 N 606.676 4.41864 -1.38293 0
M  V30 3623 H 603.837 8.13644 -3.0377 0
M  V30 3624 H 603.567 6.42788 -2.55485 0
M  V30 3625 H 604.434 8.12039 -0.792769 0
M  V30 3626 P 608.396 8.91 4.01252e-12 0
M  V30 3627 O 608.616 10.1746 0.733838 0
M  V30 3628 O 609.186 8.73346 -1.23964 0
M  V30 3629 O 608.646 7.66872 0.971405 0
M  V30 3630 C 607.706 7.42405 2.04668 0
M  V30 3631 C 608.436 6.86059 3.24661 0
M  V30 3632 O 608.646 5.42934 3.03695 0
M  V30 3633 C 609.836 7.41287 3.50796 0
M  V30 3634 O 610.226 7.27073 4.86816 0
M  V30 3635 C 610.716 6.5273 2.63741 0
M  V30 3636 C 610.006 5.1842 2.73198 0
M  V30 3637 N 610.056 4.38762 1.4784 0
M  V30 3638 C 609.976 4.83651 0.183876 0
M  V30 3639 N 610.046 3.88759 -0.699393 0
M  V30 3640 C 610.196 2.7404 0.0575568 0
M  V30 3641 C 610.326 1.37902 -0.293928 0
M  V30 3642 N 610.336 0.938021 -1.54797 0
M  V30 3643 N 610.446 0.491817 0.70549 0
M  V30 3644 C 610.436 0.931735 1.95979 0
M  V30 3645 N 610.316 2.16017 2.41481 0
M  V30 3646 C 610.196 3.02547 1.39121 0
M  V30 3647 H 607.218 8.36899 2.3252 0
M  V30 3648 H 606.946 6.70391 1.71179 0
M  V30 3649 H 607.814 7.03638 4.13219 0
M  V30 3650 H 610.469 4.59931 3.54016 0
M  V30 3651 H 610.749 6.88995 1.59871 0
M  V30 3652 H 611.74 6.4684 3.0373 0
M  V30 3653 H 609.906 8.47002 3.20749 0
M  V30 3654 H 609.865 5.8885 -0.0765548 0
M  V30 3655 H 610.246 1.60276 -2.32875 0
M  V30 3656 H 610.435 -0.0699355 -1.73859 0
M  V30 3657 H 610.543 0.165507 2.71897 0
M  V30 3658 P 611.776 7.20834 5.23717 0
M  V30 3659 O 611.996 7.79853 6.57286 0
M  V30 3660 O 612.566 7.79239 4.12957 0
M  V30 3661 O 612.026 5.63315 5.29344 0
M  V30 3662 C 611.086 4.80255 6.01876 0
M  V30 3663 C 611.816 3.64202 6.65911 0
M  V30 3664 O 612.026 2.60694 5.64732 0
M  V30 3665 C 613.216 3.93473 7.1943 0
M  V30 3666 O 613.606 3.02071 8.21205 0
M  V30 3667 C 614.096 3.73047 5.97036 0
M  V30 3668 C 613.386 2.58828 5.25741 0
M  V30 3669 N 613.436 2.68068 3.77503 0
M  V30 3670 C 613.356 3.79715 2.96723 0
M  V30 3671 N 613.436 3.5377 1.68852 0
M  V30 3672 C 613.576 2.15054 1.63254 0
M  V30 3673 C 613.706 1.28964 0.518571 0
M  V30 3674 N 613.826 -0.0538097 0.918425 0
M  V30 3675 C 613.826 -0.494275 2.22578 0
M  V30 3676 N 613.956 -1.81086 2.40434 0
M  V30 3677 N 613.696 0.313645 3.27502 0
M  V30 3678 C 613.576 1.61829 2.91033 0
M  V30 3679 H 610.597 5.40332 6.79951 0
M  V30 3680 H 610.327 4.41613 5.32378 0
M  V30 3681 H 611.194 3.26331 7.47797 0
M  V30 3682 P 615.156 2.75334 8.47391 0
M  V30 3683 O 615.376 2.44571 9.90142 0
M  V30 3684 O 615.946 3.87688 7.92115 0
M  V30 3685 O 615.406 1.4459 7.59357 0
M  V30 3686 C 614.466 0.347608 7.69215 0
M  V30 3687 C 615.196 -0.96767 7.52806 0
M  V30 3688 O 615.406 -1.21036 6.1011 0
M  V30 3689 C 616.596 -1.04544 8.13308 0
M  V30 3690 O 616.986 -2.38311 8.41922 0
M  V30 3691 C 617.476 -0.491279 7.02284 0
M  V30 3692 C 616.766 -0.996264 5.77469 0
M  V30 3693 N 616.816 -0.0501916 4.62973 0
M  V30 3694 H 613.977 0.374722 8.67691 0
M  V30 3695 H 613.707 0.443485 6.90277 0
M  V30 3696 H 614.574 -1.75537 7.96793 0
M  V30 3697 P 618.536 -2.75334 8.47391 0
M  V30 3698 O 618.756 -3.84128 9.44797 0
M  V30 3699 O 619.326 -1.51947 8.68712 0
M  V30 3700 O 618.786 -3.29363 6.99321 0
M  V30 3701 C 617.846 -4.24011 6.4274 0
M  V30 3702 C 618.576 -5.20775 5.52155 0
M  V30 3703 O 618.786 -4.56534 4.22446 0
M  V30 3704 C 619.976 -5.62629 5.96531 0
M  V30 3705 O 620.366 -6.87667 5.41053 0
M  V30 3706 C 620.856 -4.52537 5.39283 0
M  V30 3707 C 620.146 -4.20027 4.08623 0
M  V30 3708 N 620.196 -2.76189 3.71603 0
M  V30 3709 H 617.357 -4.797 7.24003 0
M  V30 3710 H 617.087 -3.69856 5.84513 0
M  V30 3711 H 617.954 -6.10356 5.41441 0
M  V30 3712 P 621.916 -7.20834 5.23717 0
M  V30 3713 O 622.136 -8.66104 5.38572 0
M  V30 3714 O 622.706 -6.33544 6.1349 0
M  V30 3715 O 622.166 -6.7751 3.72168 0
M  V30 3716 C 621.226 -7.20825 2.7076 0
M  V30 3717 C 621.956 -7.45864 1.40599 0
M  V30 3718 O 622.166 -6.17651 0.734225 0
M  V30 3719 C 623.356 -8.05808 1.51899 0
M  V30 3720 O 623.746 -8.74358 0.335205 0
M  V30 3721 C 624.236 -6.83093 1.70294 0
M  V30 3722 C 623.526 -5.79992 0.836974 0
M  V30 3723 N 623.576 -4.41864 1.38293 0
M  V30 3724 C 623.496 -3.99538 2.69438 0
M  V30 3725 N 623.576 -2.69909 2.84277 0
M  V30 3726 C 623.716 -2.21719 1.5408 0
M  V30 3727 C 623.846 -0.891712 1.06628 0
M  V30 3728 O 623.866 0.161298 1.70137 0
M  V30 3729 N 623.966 -0.856846 -0.334985 0
M  V30 3730 C 623.966 -1.9641 -1.15789 0
M  V30 3731 N 624.096 -1.72708 -2.46522 0
M  V30 3732 N 623.836 -3.21165 -0.713741 0
M  V30 3733 C 623.716 -3.26797 0.639748 0
M  V30 3734 H 620.737 -8.13644 3.0377 0
M  V30 3735 H 620.467 -6.42788 2.55485 0
M  V30 3736 H 621.334 -8.12039 0.792769 0
M  V30 3737 H 623.989 -5.80061 -0.166416 0
M  V30 3738 H 624.268 -6.51287 2.75604 0
M  V30 3739 H 625.26 -7.01734 1.34462 0
M  V30 3740 H 623.426 -8.73674 2.38337 0
M  V30 3741 H 623.377 -4.68207 3.53221 0
M  V30 3742 H 624.059 0.0398818 -0.767965 0
M  V30 3743 H 624.096 -2.50995 -3.13503 0
M  V30 3744 H 624.197 -0.759148 -2.80716 0
M  V30 3745 P 625.296 -8.91 -4.1697e-12 0
M  V30 3746 O 625.516 -10.1726 -0.733694 0
M  V30 3747 O 626.086 -8.73148 1.23936 0
M  V30 3748 O 625.546 -7.66872 -0.971405 0
M  V30 3749 C 624.606 -7.42309 -2.04641 0
M  V30 3750 C 625.336 -6.86059 -3.24661 0
M  V30 3751 O 625.546 -5.42847 -3.03646 0
M  V30 3752 C 626.736 -7.41196 -3.50753 0
M  V30 3753 O 627.126 -7.27073 -4.86816 0
M  V30 3754 C 627.616 -6.5273 -2.63741 0
M  V30 3755 C 626.906 -5.1842 -2.73198 0
M  V30 3756 N 626.956 -4.38762 -1.4784 0
M  V30 3757 H 624.117 -8.36803 -2.32493 0
M  V30 3758 H 623.847 -6.70197 -1.71129 0
M  V30 3759 H 624.714 -7.03551 -4.13168 0
M  V30 3760 P 628.676 -7.20834 -5.23717 0
M  V30 3761 O 628.896 -7.79853 -6.57286 0
M  V30 3762 O 629.466 -7.79239 -4.12957 0
M  V30 3763 O 628.926 -5.63315 -5.29344 0
M  V30 3764 C 627.986 -4.80255 -6.01876 0
M  V30 3765 C 628.716 -3.64202 -6.65911 0
M  V30 3766 O 628.926 -2.60694 -5.64732 0
M  V30 3767 C 630.116 -3.93473 -7.1943 0
M  V30 3768 O 630.506 -3.02071 -8.21205 0
M  V30 3769 C 630.996 -3.73047 -5.97036 0
M  V30 3770 C 630.286 -2.58828 -5.25741 0
M  V30 3771 N 630.336 -2.68068 -3.77503 0
M  V30 3772 C 630.256 -3.79715 -2.96723 0
M  V30 3773 N 630.336 -3.5377 -1.68852 0
M  V30 3774 C 630.476 -2.15054 -1.63254 0
M  V30 3775 C 630.606 -1.28964 -0.518571 0
M  V30 3776 N 630.726 0.0538097 -0.918425 0
M  V30 3777 C 630.726 0.494275 -2.22578 0
M  V30 3778 N 630.856 1.81086 -2.40434 0
M  V30 3779 N 630.596 -0.313645 -3.27502 0
M  V30 3780 C 630.476 -1.61829 -2.91033 0
M  V30 3781 H 627.497 -5.40332 -6.79951 0
M  V30 3782 H 627.227 -4.41613 -5.32378 0
M  V30 3783 H 628.094 -3.26331 -7.47797 0
M  V30 3784 P 632.056 -2.75334 -8.47391 0
M  V30 3785 O 632.276 -2.44571 -9.90142 0
M  V30 3786 O 632.846 -3.87688 -7.92115 0
M  V30 3787 O 632.306 -1.4459 -7.59357 0
M  V30 3788 C 631.366 -0.347608 -7.69215 0
M  V30 3789 C 632.096 0.96767 -7.52806 0
M  V30 3790 O 632.306 1.21036 -6.1011 0
M  V30 3791 C 633.496 1.04544 -8.13308 0
M  V30 3792 O 633.886 2.38311 -8.41922 0
M  V30 3793 C 634.376 0.491279 -7.02284 0
M  V30 3794 C 633.666 0.996264 -5.77469 0
M  V30 3795 N 633.716 0.0501916 -4.62973 0
M  V30 3796 H 630.877 -0.374722 -8.67691 0
M  V30 3797 H 630.607 -0.443485 -6.90277 0
M  V30 3798 H 631.474 1.75537 -7.96793 0
M  V30 3799 P 635.436 2.75334 -8.47391 0
M  V30 3800 O 635.656 3.84166 -9.4489 0
M  V30 3801 O 636.226 1.51964 -8.6881 0
M  V30 3802 O 635.686 3.29363 -6.99321 0
M  V30 3803 C 634.746 4.23956 -6.42656 0
M  V30 3804 C 635.476 5.20775 -5.52155 0
M  V30 3805 O 635.686 4.56534 -4.22446 0
M  V30 3806 C 636.876 5.62629 -5.96531 0
M  V30 3807 O 637.266 6.87667 -5.41053 0
M  V30 3808 C 637.756 4.52537 -5.39283 0
M  V30 3809 C 637.046 4.20027 -4.08623 0
M  V30 3810 N 637.096 2.7613 -3.71522 0
M  V30 3811 C 637.246 2.45612 -2.37989 0
M  V30 3812 O 637.336 3.30919 -1.51621 0
M  V30 3813 N 637.286 1.10684 -2.08435 0
M  V30 3814 C 637.196 0.0690084 -2.9792 0
M  V30 3815 O 637.246 -1.10553 -2.59426 0
M  V30 3816 C 637.046 0.481522 -4.35345 0
M  V30 3817 C 636.936 -0.618778 -5.36443 0
M  V30 3818 C 636.996 1.78906 -4.67968 0
M  V30 3819 H 634.256 4.797 -7.24003 0
M  V30 3820 H 633.987 3.69802 -5.84429 0
M  V30 3821 H 634.854 6.10356 -5.41441 0
M  V30 3822 H 637.509 4.78651 -3.27911 0
M  V30 3823 H 637.788 3.64957 -6.05871 0
M  V30 3824 H 638.78 4.8868 -5.2125 0
M  V30 3825 H 636.946 5.66726 -7.06352 0
M  V30 3826 H 636.875 2.07737 -5.72367 0
M  V30 3827 H 637.905 -0.754375 -5.86871 0
M  V30 3828 H 636.168 -0.359721 -6.10641 0
M  V30 3829 H 636.656 -1.55533 -4.8581 0
M  V30 3830 H 637.392 0.862651 -1.12037 0
M  V30 3831 P 638.816 7.20834 -5.23717 0
M  V30 3832 O 639.036 8.66104 -5.38572 0
M  V30 3833 O 639.606 6.33544 -6.1349 0
M  V30 3834 O 639.066 6.7751 -3.72168 0
M  V30 3835 C 638.126 7.20825 -2.7076 0
M  V30 3836 C 638.856 7.45864 -1.40599 0
M  V30 3837 O 639.066 6.17651 -0.734225 0
M  V30 3838 C 640.256 8.05808 -1.51899 0
M  V30 3839 O 640.646 8.74358 -0.335205 0
M  V30 3840 C 641.136 6.83093 -1.70294 0
M  V30 3841 C 640.426 5.79992 -0.836974 0
M  V30 3842 N 640.476 4.41864 -1.38293 0
M  V30 3843 H 637.637 8.13644 -3.0377 0
M  V30 3844 H 637.367 6.42788 -2.55485 0
M  V30 3845 H 638.234 8.12039 -0.792769 0
M  V30 3846 P 642.196 8.91 4.32688e-12 0
M  V30 3847 O 642.416 10.1726 0.733694 0
M  V30 3848 O 642.986 8.73148 -1.23936 0
M  V30 3849 O 642.446 7.66872 0.971405 0
M  V30 3850 C 641.506 7.42309 2.04641 0
M  V30 3851 C 642.236 6.86059 3.24661 0
M  V30 3852 O 642.446 5.42847 3.03646 0
M  V30 3853 C 643.636 7.41196 3.50753 0
M  V30 3854 O 644.026 7.27073 4.86816 0
M  V30 3855 C 644.516 6.5273 2.63741 0
M  V30 3856 C 643.806 5.1842 2.73198 0
M  V30 3857 N 643.856 4.38762 1.4784 0
M  V30 3858 H 641.017 8.36803 2.32493 0
M  V30 3859 H 640.747 6.70197 1.71129 0
M  V30 3860 H 641.614 7.03551 4.13168 0
M  V30 3861 P 645.576 7.20834 5.23717 0
M  V30 3862 O 645.796 7.80006 6.57415 0
M  V30 3863 O 646.366 7.79416 4.13051 0
M  V30 3864 O 645.826 5.63315 5.29344 0
M  V30 3865 C 644.886 4.80318 6.01954 0
M  V30 3866 C 645.616 3.64202 6.65911 0
M  V30 3867 O 645.826 2.60736 5.64823 0
M  V30 3868 C 647.016 3.93521 7.19518 0
M  V30 3869 O 647.406 3.02071 8.21205 0
M  V30 3870 C 647.896 3.73047 5.97036 0
M  V30 3871 C 647.186 2.58828 5.25741 0
M  V30 3872 N 647.236 2.68068 3.77503 0
M  V30 3873 C 647.156 3.80474 2.99159 0
M  V30 3874 N 647.226 3.55622 1.71925 0
M  V30 3875 C 647.376 2.1832 1.65733 0
M  V30 3876 C 647.506 1.28842 0.572777 0
M  V30 3877 N 647.516 1.66875 -0.70098 0
M  V30 3878 N 647.626 -0.016788 0.859836 0
M  V30 3879 C 647.616 -0.398145 2.13316 0
M  V30 3880 N 647.496 0.328224 3.22333 0
M  V30 3881 C 647.376 1.62992 2.90383 0
M  V30 3882 H 644.398 5.40394 6.8003 0
M  V30 3883 H 644.126 4.41741 5.32532 0
M  V30 3884 H 644.994 3.26371 7.47889 0
M  V30 3885 H 647.649 1.64007 5.56746 0
M  V30 3886 H 647.929 4.63439 5.3432 0
M  V30 3887 H 648.92 3.44776 6.25925 0
M  V30 3888 H 647.086 4.96707 7.57347 0
M  V30 3889 H 647.045 4.8089 3.39924 0
M  V30 3890 H 647.426 2.66547 -0.941919 0
M  V30 3891 H 647.615 0.965341 -1.44766 0
M  V30 3892 H 647.723 -1.46427 2.29697 0
M  V30 3893 P 648.956 2.75334 8.47391 0
M  V30 3894 O 649.176 2.44619 9.90336 0
M  V30 3895 O 649.746 3.87776 7.92294 0
M  V30 3896 O 649.206 1.4459 7.59357 0
M  V30 3897 C 648.266 0.347653 7.69315 0
M  V30 3898 C 648.996 -0.96767 7.52806 0
M  V30 3899 O 649.206 -1.21055 6.10208 0
M  V30 3900 C 650.396 -1.04557 8.13408 0
M  V30 3901 O 650.786 -2.38311 8.41922 0
M  V30 3902 C 651.276 -0.491279 7.02284 0
M  V30 3903 C 650.566 -0.996264 5.77469 0
M  V30 3904 N 650.616 -0.0501916 4.62973 0
M  V30 3905 C 650.536 1.31969 4.65661 0
M  V30 3906 N 650.606 1.86649 3.48119 0
M  V30 3907 C 650.756 0.792089 2.62406 0
M  V30 3908 C 650.886 0.705684 1.2207 0
M  V30 3909 N 650.896 1.76207 0.413762 0
M  V30 3910 N 651.006 -0.518981 0.685754 0
M  V30 3911 C 650.996 -1.57595 1.49174 0
M  V30 3912 N 650.876 -1.62909 2.80066 0
M  V30 3913 C 650.756 -0.388195 3.3073 0
M  V30 3914 H 647.778 0.374765 8.67791 0
M  V30 3915 H 647.506 0.443613 6.90476 0
M  V30 3916 H 648.374 -1.75559 7.96891 0
M  V30 3917 H 651.029 -1.94563 5.46818 0
M  V30 3918 H 651.309 0.608651 7.04676 0
M  V30 3919 H 652.3 -0.889796 7.09039 0
M  V30 3920 H 650.466 -0.433128 9.04664 0
M  V30 3921 H 650.425 1.89246 5.57664 0
M  V30 3922 H 650.806 2.71005 0.804694 0
M  V30 3923 H 650.995 1.63189 -0.603768 0
M  V30 3924 H 651.103 -2.53475 0.997614 0
M  V30 3925 P 652.336 -2.75334 8.47391 0
M  V30 3926 O 652.556 -3.84128 9.44797 0
M  V30 3927 O 653.126 -1.51947 8.68712 0
M  V30 3928 O 652.586 -3.29363 6.99321 0
M  V30 3929 C 651.646 -4.24011 6.4274 0
M  V30 3930 C 652.376 -5.20775 5.52155 0
M  V30 3931 O 652.586 -4.56534 4.22446 0
M  V30 3932 C 653.776 -5.62629 5.96531 0
M  V30 3933 O 654.166 -6.87667 5.41053 0
M  V30 3934 C 654.656 -4.52537 5.39283 0
M  V30 3935 C 653.946 -4.20027 4.08623 0
M  V30 3936 N 653.996 -2.76189 3.71603 0
M  V30 3937 H 651.157 -4.797 7.24003 0
M  V30 3938 H 650.887 -3.69856 5.84513 0
M  V30 3939 H 651.754 -6.10356 5.41441 0
M  V30 3940 P 655.716 -7.20834 5.23717 0
M  V30 3941 O 655.936 -8.66104 5.38572 0
M  V30 3942 O 656.506 -6.33544 6.1349 0
M  V30 3943 O 655.966 -6.7751 3.72168 0
M  V30 3944 C 655.026 -7.20825 2.7076 0
M  V30 3945 C 655.756 -7.45864 1.40599 0
M  V30 3946 O 655.966 -6.17651 0.734225 0
M  V30 3947 C 657.156 -8.05808 1.51899 0
M  V30 3948 O 657.546 -8.74358 0.335205 0
M  V30 3949 C 658.036 -6.83093 1.70294 0
M  V30 3950 C 657.326 -5.79992 0.836974 0
M  V30 3951 N 657.376 -4.41864 1.38293 0
M  V30 3952 H 654.537 -8.13644 3.0377 0
M  V30 3953 H 654.267 -6.42788 2.55485 0
M  V30 3954 H 655.134 -8.12039 0.792769 0
M  V30 3955 P 659.096 -8.91 -4.48406e-12 0
M  V30 3956 O 659.316 -10.1726 -0.733694 0
M  V30 3957 O 659.886 -8.73148 1.23936 0
M  V30 3958 O 659.346 -7.66872 -0.971405 0
M  V30 3959 C 658.406 -7.42309 -2.04641 0
M  V30 3960 C 659.136 -6.86059 -3.24661 0
M  V30 3961 O 659.346 -5.42847 -3.03646 0
M  V30 3962 C 660.536 -7.41196 -3.50753 0
M  V30 3963 O 660.926 -7.27073 -4.86816 0
M  V30 3964 C 661.416 -6.5273 -2.63741 0
M  V30 3965 C 660.706 -5.1842 -2.73198 0
M  V30 3966 N 660.756 -4.38762 -1.4784 0
M  V30 3967 H 657.917 -8.36803 -2.32493 0
M  V30 3968 H 657.647 -6.70197 -1.71129 0
M  V30 3969 H 658.514 -7.03551 -4.13168 0
M  V30 3970 P 662.476 -7.20834 -5.23717 0
M  V30 3971 O 662.696 -7.79853 -6.57286 0
M  V30 3972 O 663.266 -7.79239 -4.12957 0
M  V30 3973 O 662.726 -5.63315 -5.29344 0
M  V30 3974 C 661.786 -4.80255 -6.01876 0
M  V30 3975 C 662.516 -3.64202 -6.65911 0
M  V30 3976 O 662.726 -2.60694 -5.64732 0
M  V30 3977 C 663.916 -3.93473 -7.1943 0
M  V30 3978 O 664.306 -3.02071 -8.21205 0
M  V30 3979 C 664.796 -3.73047 -5.97036 0
M  V30 3980 C 664.086 -2.58828 -5.25741 0
M  V30 3981 N 664.136 -2.68068 -3.77503 0
M  V30 3982 C 664.056 -3.79715 -2.96723 0
M  V30 3983 N 664.136 -3.5377 -1.68852 0
M  V30 3984 C 664.276 -2.15054 -1.63254 0
M  V30 3985 C 664.406 -1.28964 -0.518571 0
M  V30 3986 O 664.426 -1.56826 0.679156 0
M  V30 3987 N 664.526 0.0538097 -0.918425 0
M  V30 3988 C 664.526 0.494275 -2.22578 0
M  V30 3989 N 664.656 1.81086 -2.40434 0
M  V30 3990 N 664.396 -0.313645 -3.27502 0
M  V30 3991 C 664.276 -1.61829 -2.91033 0
M  V30 3992 H 661.297 -5.40332 -6.79951 0
M  V30 3993 H 661.027 -4.41613 -5.32378 0
M  V30 3994 H 661.894 -3.26331 -7.47797 0
M  V30 3995 H 664.549 -1.63422 -5.56814 0
M  V30 3996 H 664.828 -4.63374 -5.34244 0
M  V30 3997 H 665.82 -3.44728 -6.25838 0
M  V30 3998 H 663.986 -4.96652 -7.57263 0
M  V30 3999 H 663.937 -4.80617 -3.3614 0
M  V30 4000 H 664.619 0.742702 -0.199384 0
M  V30 4001 H 664.656 2.20598 -3.35588 0
M  V30 4002 H 664.757 2.43518 -1.58945 0
M  V30 4003 P 665.856 -2.75334 -8.47391 0
M  V30 4004 O 666.076 -2.44571 -9.90142 0
M  V30 4005 O 666.646 -3.87688 -7.92115 0
M  V30 4006 O 666.106 -1.4459 -7.59357 0
M  V30 4007 C 665.166 -0.347608 -7.69215 0
M  V30 4008 C 665.896 0.96767 -7.52806 0
M  V30 4009 O 666.106 1.21036 -6.1011 0
M  V30 4010 C 667.296 1.04544 -8.13308 0
M  V30 4011 O 667.686 2.38311 -8.41922 0
M  V30 4012 C 668.176 0.491279 -7.02284 0
M  V30 4013 C 667.466 0.996264 -5.77469 0
M  V30 4014 N 667.516 0.0501916 -4.62973 0
M  V30 4015 C 667.436 -1.32786 -4.63244 0
M  V30 4016 N 667.516 -1.86957 -3.44545 0
M  V30 4017 C 667.656 -0.780241 -2.58481 0
M  V30 4018 C 667.786 -0.738536 -1.17757 0
M  V30 4019 N 667.906 0.58337 -0.711393 0
M  V30 4020 C 667.906 1.70816 -1.51017 0
M  V30 4021 N 668.036 2.87826 -0.880757 0
M  V30 4022 N 667.776 1.67126 -2.8339 0
M  V30 4023 C 667.656 0.401421 -3.30572 0
M  V30 4024 H 664.677 -0.374722 -8.67691 0
M  V30 4025 H 664.407 -0.443485 -6.90277 0
M  V30 4026 H 665.274 1.75537 -7.96793 0
M  V30 4027 P 669.236 2.75334 -8.47391 0
M  V30 4028 O 669.456 3.84128 -9.44797 0
M  V30 4029 O 670.026 1.51947 -8.68712 0
M  V30 4030 O 669.486 3.29363 -6.99321 0
M  V30 4031 C 668.546 4.24011 -6.4274 0
M  V30 4032 C 669.276 5.20775 -5.52155 0
M  V30 4033 O 669.486 4.56534 -4.22446 0
M  V30 4034 C 670.676 5.62629 -5.96531 0
M  V30 4035 O 671.066 6.87667 -5.41053 0
M  V30 4036 C 671.556 4.52537 -5.39283 0
M  V30 4037 C 670.846 4.20027 -4.08623 0
M  V30 4038 N 670.896 2.76189 -3.71603 0
M  V30 4039 C 670.816 1.64862 -4.52822 0
M  V30 4040 N 670.896 0.512671 -3.88633 0
M  V30 4041 C 671.036 0.888083 -2.54977 0
M  V30 4042 C 671.166 0.094668 -1.38677 0
M  V30 4043 N 671.286 0.890102 -0.232633 0
M  V30 4044 C 671.286 2.26958 -0.21772 0
M  V30 4045 N 671.416 2.84626 0.97925 0
M  V30 4046 N 671.156 3.0178 -1.31033 0
M  V30 4047 C 671.036 2.26781 -2.43843 0
M  V30 4048 H 668.057 4.797 -7.24003 0
M  V30 4049 H 667.787 3.69856 -5.84513 0
M  V30 4050 H 668.654 6.10356 -5.41441 0
M  V30 4051 P 672.616 7.20834 -5.23717 0
M  V30 4052 O 672.836 8.66104 -5.38572 0
M  V30 4053 O 673.406 6.33544 -6.1349 0
M  V30 4054 O 672.866 6.7751 -3.72168 0
M  V30 4055 C 671.926 7.20825 -2.7076 0
M  V30 4056 C 672.656 7.45864 -1.40599 0
M  V30 4057 O 672.866 6.17651 -0.734225 0
M  V30 4058 C 674.056 8.05808 -1.51899 0
M  V30 4059 O 674.446 8.74358 -0.335205 0
M  V30 4060 C 674.936 6.83093 -1.70294 0
M  V30 4061 C 674.226 5.79992 -0.836974 0
M  V30 4062 N 674.276 4.41864 -1.38293 0
M  V30 4063 H 671.437 8.13644 -3.0377 0
M  V30 4064 H 671.167 6.42788 -2.55485 0
M  V30 4065 H 672.034 8.12039 -0.792769 0
M  V30 4066 P 675.996 8.91 4.64125e-12 0
M  V30 4067 O 676.216 10.1726 0.733694 0
M  V30 4068 O 676.786 8.73148 -1.23936 0
M  V30 4069 O 676.246 7.66872 0.971405 0
M  V30 4070 C 675.306 7.42309 2.04641 0
M  V30 4071 C 676.036 6.86059 3.24661 0
M  V30 4072 O 676.246 5.42847 3.03646 0
M  V30 4073 C 677.436 7.41196 3.50753 0
M  V30 4074 O 677.826 7.27073 4.86816 0
M  V30 4075 C 678.316 6.5273 2.63741 0
M  V30 4076 C 677.606 5.1842 2.73198 0
M  V30 4077 N 677.656 4.38762 1.4784 0
M  V30 4078 C 677.576 4.81605 0.168631 0
M  V30 4079 N 677.656 3.85454 -0.713363 0
M  V30 4080 C 677.796 2.6994 0.0566958 0
M  V30 4081 C 677.926 1.34815 -0.338502 0
M  V30 4082 N 678.046 0.496304 0.77465 0
M  V30 4083 C 678.046 0.908403 2.09122 0
M  V30 4084 N 678.176 -0.0517805 3.00955 0
M  V30 4085 N 677.916 2.17875 2.46519 0
M  V30 4086 C 677.796 3.01988 1.4033 0
M  V30 4087 H 674.817 8.36803 2.32493 0
M  V30 4088 H 674.547 6.70197 1.71129 0
M  V30 4089 H 675.414 7.03551 4.13168 0
M  V30 4090 P 679.376 7.20834 5.23717 0
M  V30 4091 O 679.596 7.79853 6.57286 0
M  V30 4092 O 680.166 7.79239 4.12957 0
M  V30 4093 O 679.626 5.63315 5.29344 0
M  V30 4094 C 678.686 4.80255 6.01876 0
M  V30 4095 C 679.416 3.64202 6.65911 0
M  V30 4096 O 679.626 2.60694 5.64732 0
M  V30 4097 C 680.816 3.93473 7.1943 0
M  V30 4098 O 681.206 3.02071 8.21205 0
M  V30 4099 C 681.696 3.73047 5.97036 0
M  V30 4100 C 680.986 2.58828 5.25741 0
M  V30 4101 N 681.036 2.68068 3.77503 0
M  V30 4102 C 680.956 3.79715 2.96723 0
M  V30 4103 N 681.036 3.5377 1.68852 0
M  V30 4104 C 681.176 2.15054 1.63254 0
M  V30 4105 C 681.306 1.28964 0.518571 0
M  V30 4106 O 681.326 1.56826 -0.679156 0
M  V30 4107 N 681.426 -0.0538097 0.918425 0
M  V30 4108 C 681.426 -0.494275 2.22578 0
M  V30 4109 N 681.556 -1.81086 2.40434 0
M  V30 4110 N 681.296 0.313645 3.27502 0
M  V30 4111 C 681.176 1.61829 2.91033 0
M  V30 4112 H 678.197 5.40332 6.79951 0
M  V30 4113 H 677.927 4.41613 5.32378 0
M  V30 4114 H 678.794 3.26331 7.47797 0
M  V30 4115 H 681.449 1.63422 5.56814 0
M  V30 4116 H 681.728 4.63374 5.34244 0
M  V30 4117 H 682.72 3.44728 6.25838 0
M  V30 4118 H 680.886 4.96652 7.57263 0
M  V30 4119 H 680.837 4.80617 3.3614 0
M  V30 4120 H 681.519 -0.742702 0.199384 0
M  V30 4121 H 681.556 -2.20598 3.35588 0
M  V30 4122 H 681.657 -2.43518 1.58945 0
M  V30 4123 P 682.756 2.75334 8.47391 0
M  V30 4124 O 682.976 2.44595 9.90239 0
M  V30 4125 O 683.546 3.87732 7.92204 0
M  V30 4126 O 683.006 1.4459 7.59357 0
M  V30 4127 C 682.066 0.347563 7.69115 0
M  V30 4128 C 682.796 -0.96767 7.52806 0
M  V30 4129 O 683.006 -1.21036 6.1011 0
M  V30 4130 C 684.196 -1.04544 8.13308 0
M  V30 4131 O 684.586 -2.38311 8.41922 0
M  V30 4132 C 685.076 -0.491279 7.02284 0
M  V30 4133 C 684.366 -0.996264 5.77469 0
M  V30 4134 N 684.416 -0.0501808 4.62873 0
M  V30 4135 C 684.566 -0.588177 3.36904 0
M  V30 4136 O 684.656 -1.78598 3.17173 0
M  V30 4137 N 684.606 0.329694 2.33686 0
M  V30 4138 C 684.516 1.6953 2.45079 0
M  V30 4139 O 684.566 2.41926 1.44899 0
M  V30 4140 C 684.366 2.16933 3.80505 0
M  V30 4141 C 684.256 3.65373 3.97621 0
M  V30 4142 C 684.316 1.30326 4.83752 0
M  V30 4143 H 681.576 0.374722 8.67691 0
M  V30 4144 H 681.307 0.443421 6.90177 0
M  V30 4145 H 682.174 -1.75537 7.96793 0
M  V30 4146 H 684.829 -1.94496 5.46629 0
M  V30 4147 H 685.108 0.608651 7.04676 0
M  V30 4148 H 686.1 -0.889672 7.08939 0
M  V30 4149 H 684.266 -0.43308 9.04564 0
M  V30 4150 H 684.195 1.68366 5.8516 0
M  V30 4151 H 685.225 4.05985 4.30448 0
M  V30 4152 H 683.488 3.88028 4.72875 0
M  V30 4153 H 683.976 4.11381 3.01609 0
M  V30 4154 H 684.712 -0.0393617 1.41345 0
M  V30 4155 P 686.136 -2.75334 8.47391 0
M  V30 4156 O 686.356 -3.84204 9.44982 0
M  V30 4157 O 686.926 -1.51982 8.68909 0
M  V30 4158 O 686.386 -3.29363 6.99321 0
M  V30 4159 C 685.446 -4.24066 6.42823 0
M  V30 4160 C 686.176 -5.20775 5.52155 0
M  V30 4161 O 686.386 -4.56607 4.22514 0
M  V30 4162 C 687.576 -5.62697 5.96604 0
M  V30 4163 O 687.966 -6.87667 5.41053 0
M  V30 4164 C 688.456 -4.52537 5.39283 0
M  V30 4165 C 687.746 -4.20027 4.08623 0
M  V30 4166 N 687.796 -2.76189 3.71603 0
M  V30 4167 H 684.958 -4.79756 7.24086 0
M  V30 4168 H 684.686 -3.69963 5.84682 0
M  V30 4169 H 685.554 -6.10431 5.41508 0
M  V30 4170 H 688.209 -4.78816 3.28024 0
M  V30 4171 H 688.489 -3.64957 6.05871 0
M  V30 4172 H 689.48 -4.88748 5.21323 0
M  V30 4173 H 687.646 -5.66789 7.0643 0
M  V30 4174 P 689.516 -7.20834 5.23717 0
M  V30 4175 O 689.736 -8.66104 5.38572 0
M  V30 4176 O 690.306 -6.33544 6.1349 0
M  V30 4177 O 689.766 -6.7751 3.72168 0
M  V30 4178 C 688.826 -7.20825 2.7076 0
M  V30 4179 C 689.556 -7.45864 1.40599 0
M  V30 4180 O 689.766 -6.17651 0.734225 0
M  V30 4181 C 690.956 -8.05808 1.51899 0
M  V30 4182 O 691.346 -8.74358 0.335205 0
M  V30 4183 C 691.836 -6.83093 1.70294 0
M  V30 4184 C 691.126 -5.79992 0.836974 0
M  V30 4185 N 691.176 -4.41864 1.38293 0
M  V30 4186 C 691.096 -3.99538 2.69438 0
M  V30 4187 N 691.176 -2.69909 2.84277 0
M  V30 4188 C 691.316 -2.21719 1.5408 0
M  V30 4189 C 691.446 -0.891712 1.06628 0
M  V30 4190 N 691.566 -0.856846 -0.334985 0
M  V30 4191 C 691.566 -1.9641 -1.15789 0
M  V30 4192 N 691.696 -1.72708 -2.46522 0
M  V30 4193 N 691.436 -3.21165 -0.713741 0
M  V30 4194 C 691.316 -3.26797 0.639748 0
M  V30 4195 H 688.337 -8.13644 3.0377 0
M  V30 4196 H 688.067 -6.42788 2.55485 0
M  V30 4197 H 688.934 -8.12039 0.792769 0
M  V30 4198 P 692.896 -8.91 -4.67181e-12 0
M  V30 4199 O 693.116 -10.1726 -0.733694 0
M  V30 4200 O 693.686 -8.73148 1.23936 0
M  V30 4201 O 693.146 -7.66872 -0.971405 0
M  V30 4202 C 692.206 -7.42309 -2.04641 0
M  V30 4203 C 692.936 -6.86059 -3.24661 0
M  V30 4204 O 693.146 -5.42847 -3.03646 0
M  V30 4205 C 694.336 -7.41196 -3.50753 0
M  V30 4206 O 694.726 -7.27073 -4.86816 0
M  V30 4207 C 695.216 -6.5273 -2.63741 0
M  V30 4208 C 694.506 -5.1842 -2.73198 0
M  V30 4209 N 694.556 -4.38762 -1.4784 0
M  V30 4210 H 691.717 -8.36803 -2.32493 0
M  V30 4211 H 691.447 -6.70197 -1.71129 0
M  V30 4212 H 692.314 -7.03551 -4.13168 0
M  V30 4213 P 696.276 -7.20834 -5.23717 0
M  V30 4214 O 696.496 -7.80006 -6.57415 0
M  V30 4215 O 697.066 -7.79416 -4.13051 0
M  V30 4216 O 696.526 -5.63315 -5.29344 0
M  V30 4217 C 695.586 -4.80318 -6.01954 0
M  V30 4218 C 696.316 -3.64202 -6.65911 0
M  V30 4219 O 696.526 -2.60736 -5.64823 0
M  V30 4220 C 697.716 -3.93521 -7.19518 0
M  V30 4221 O 698.106 -3.02071 -8.21205 0
M  V30 4222 C 698.596 -3.73047 -5.97036 0
M  V30 4223 C 697.886 -2.58828 -5.25741 0
M  V30 4224 N 697.936 -2.68068 -3.77503 0
M  V30 4225 C 697.856 -3.80474 -2.99159 0
M  V30 4226 N 697.926 -3.55622 -1.71925 0
M  V30 4227 C 698.076 -2.1832 -1.65733 0
M  V30 4228 C 698.206 -1.28842 -0.572777 0
M  V30 4229 N 698.216 -1.66875 0.70098 0
M  V30 4230 N 698.326 0.016788 -0.859836 0
M  V30 4231 C 698.316 0.398145 -2.13316 0
M  V30 4232 N 698.196 -0.328224 -3.22333 0
M  V30 4233 C 698.076 -1.62992 -2.90383 0
M  V30 4234 H 695.098 -5.40394 -6.8003 0
M  V30 4235 H 694.826 -4.41741 -5.32532 0
M  V30 4236 H 695.694 -3.26371 -7.47889 0
M  V30 4237 H 698.349 -1.64007 -5.56746 0
M  V30 4238 H 698.629 -4.63439 -5.3432 0
M  V30 4239 H 699.62 -3.44776 -6.25925 0
M  V30 4240 H 697.786 -4.96707 -7.57347 0
M  V30 4241 H 697.745 -4.8089 -3.39924 0
M  V30 4242 H 698.126 -2.66547 0.941919 0
M  V30 4243 H 698.315 -0.965341 1.44766 0
M  V30 4244 H 698.423 1.46427 -2.29697 0
M  V30 4245 P 699.656 -2.75334 -8.47391 0
M  V30 4246 O 699.876 -2.44571 -9.90142 0
M  V30 4247 O 700.446 -3.87688 -7.92115 0
M  V30 4248 O 699.906 -1.4459 -7.59357 0
M  V30 4249 C 698.966 -0.347608 -7.69215 0
M  V30 4250 C 699.696 0.96767 -7.52806 0
M  V30 4251 O 699.906 1.21036 -6.1011 0
M  V30 4252 C 701.096 1.04544 -8.13308 0
M  V30 4253 O 701.486 2.38311 -8.41922 0
M  V30 4254 C 701.976 0.491279 -7.02284 0
M  V30 4255 C 701.266 0.996264 -5.77469 0
M  V30 4256 N 701.316 0.0501916 -4.62973 0
M  V30 4257 H 698.477 -0.374722 -8.67691 0
M  V30 4258 H 698.207 -0.443485 -6.90277 0
M  V30 4259 H 699.074 1.75537 -7.96793 0
M  V30 4260 P 703.036 2.75334 -8.47391 0
M  V30 4261 O 703.256 3.84128 -9.44797 0
M  V30 4262 O 703.826 1.51947 -8.68712 0
M  V30 4263 O 703.286 3.29363 -6.99321 0
M  V30 4264 C 702.346 4.24011 -6.4274 0
M  V30 4265 C 703.076 5.20775 -5.52155 0
M  V30 4266 O 703.286 4.56534 -4.22446 0
M  V30 4267 C 704.476 5.62629 -5.96531 0
M  V30 4268 O 704.866 6.87667 -5.41053 0
M  V30 4269 C 705.356 4.52537 -5.39283 0
M  V30 4270 C 704.646 4.20027 -4.08623 0
M  V30 4271 N 704.696 2.76189 -3.71603 0
M  V30 4272 C 704.616 1.64862 -4.52822 0
M  V30 4273 N 704.696 0.512671 -3.88633 0
M  V30 4274 C 704.836 0.888083 -2.54977 0
M  V30 4275 C 704.966 0.094668 -1.38677 0
M  V30 4276 N 705.086 0.890102 -0.232633 0
M  V30 4277 C 705.086 2.26958 -0.21772 0
M  V30 4278 N 705.216 2.84626 0.97925 0
M  V30 4279 N 704.956 3.0178 -1.31033 0
M  V30 4280 C 704.836 2.26781 -2.43843 0
M  V30 4281 H 701.857 4.797 -7.24003 0
M  V30 4282 H 701.587 3.69856 -5.84513 0
M  V30 4283 H 702.454 6.10356 -5.41441 0
M  V30 4284 P 706.416 7.20834 -5.23717 0
M  V30 4285 O 706.636 8.66104 -5.38572 0
M  V30 4286 O 707.206 6.33544 -6.1349 0
M  V30 4287 O 706.666 6.7751 -3.72168 0
M  V30 4288 C 705.726 7.20825 -2.7076 0
M  V30 4289 C 706.456 7.45864 -1.40599 0
M  V30 4290 O 706.666 6.17651 -0.734225 0
M  V30 4291 C 707.856 8.05808 -1.51899 0
M  V30 4292 O 708.246 8.74358 -0.335205 0
M  V30 4293 C 708.736 6.83093 -1.70294 0
M  V30 4294 C 708.026 5.79992 -0.836974 0
M  V30 4295 N 708.076 4.41864 -1.38293 0
M  V30 4296 H 705.237 8.13644 -3.0377 0
M  V30 4297 H 704.967 6.42788 -2.55485 0
M  V30 4298 H 705.834 8.12039 -0.792769 0
M  V30 4299 P 709.796 8.91 4.82899e-12 0
M  V30 4300 O 710.016 10.1726 0.733694 0
M  V30 4301 O 710.586 8.73148 -1.23936 0
M  V30 4302 O 710.046 7.66872 0.971405 0
M  V30 4303 C 709.106 7.42309 2.04641 0
M  V30 4304 C 709.836 6.86059 3.24661 0
M  V30 4305 O 710.046 5.42847 3.03646 0
M  V30 4306 C 711.236 7.41196 3.50753 0
M  V30 4307 O 711.626 7.27073 4.86816 0
M  V30 4308 C 712.116 6.5273 2.63741 0
M  V30 4309 C 711.406 5.1842 2.73198 0
M  V30 4310 N 711.456 4.38762 1.4784 0
M  V30 4311 H 708.617 8.36803 2.32493 0
M  V30 4312 H 708.347 6.70197 1.71129 0
M  V30 4313 H 709.214 7.03551 4.13168 0
M  V30 4314 P 713.176 7.20834 5.23717 0
M  V30 4315 O 713.396 7.79853 6.57286 0
M  V30 4316 O 713.966 7.79239 4.12957 0
M  V30 4317 O 713.426 5.63315 5.29344 0
M  V30 4318 C 712.486 4.80255 6.01876 0
M  V30 4319 C 713.216 3.64202 6.65911 0
M  V30 4320 O 713.426 2.60694 5.64732 0
M  V30 4321 C 714.616 3.93473 7.1943 0
M  V30 4322 O 715.006 3.02071 8.21205 0
M  V30 4323 C 715.496 3.73047 5.97036 0
M  V30 4324 C 714.786 2.58828 5.25741 0
M  V30 4325 N 714.836 2.68068 3.77503 0
M  V30 4326 C 714.756 3.79715 2.96723 0
M  V30 4327 N 714.836 3.5377 1.68852 0
M  V30 4328 C 714.976 2.15054 1.63254 0
M  V30 4329 C 715.106 1.28964 0.518571 0
M  V30 4330 N 715.226 -0.0538097 0.918425 0
M  V30 4331 C 715.226 -0.494275 2.22578 0
M  V30 4332 N 715.356 -1.81086 2.40434 0
M  V30 4333 N 715.096 0.313645 3.27502 0
M  V30 4334 C 714.976 1.61829 2.91033 0
M  V30 4335 H 711.997 5.40332 6.79951 0
M  V30 4336 H 711.727 4.41613 5.32378 0
M  V30 4337 H 712.594 3.26331 7.47797 0
M  V30 4338 P 716.556 2.75334 8.47391 0
M  V30 4339 O 716.776 2.44571 9.90142 0
M  V30 4340 O 717.346 3.87688 7.92115 0
M  V30 4341 O 716.806 1.4459 7.59357 0
M  V30 4342 C 715.866 0.347608 7.69215 0
M  V30 4343 C 716.596 -0.96767 7.52806 0
M  V30 4344 O 716.806 -1.21036 6.1011 0
M  V30 4345 C 717.996 -1.04544 8.13308 0
M  V30 4346 O 718.386 -2.38311 8.41922 0
M  V30 4347 C 718.876 -0.491279 7.02284 0
M  V30 4348 C 718.166 -0.996264 5.77469 0
M  V30 4349 N 718.216 -0.0501916 4.62973 0
M  V30 4350 C 718.136 1.32786 4.63244 0
M  V30 4351 N 718.216 1.86957 3.44545 0
M  V30 4352 C 718.356 0.780241 2.58481 0
M  V30 4353 C 718.486 0.738536 1.17757 0
M  V30 4354 N 718.606 -0.58337 0.711393 0
M  V30 4355 C 718.606 -1.70816 1.51017 0
M  V30 4356 N 718.736 -2.87826 0.880757 0
M  V30 4357 N 718.476 -1.67126 2.8339 0
M  V30 4358 C 718.356 -0.401421 3.30572 0
M  V30 4359 H 715.377 0.374722 8.67691 0
M  V30 4360 H 715.107 0.443485 6.90277 0
M  V30 4361 H 715.974 -1.75537 7.96793 0
M  V30 4362 P 719.936 -2.75334 8.47391 0
M  V30 4363 O 720.156 -3.84128 9.44797 0
M  V30 4364 O 720.726 -1.51947 8.68712 0
M  V30 4365 O 720.186 -3.29363 6.99321 0
M  V30 4366 C 719.246 -4.24011 6.4274 0
M  V30 4367 C 719.976 -5.20775 5.52155 0
M  V30 4368 O 720.186 -4.56534 4.22446 0
M  V30 4369 C 721.376 -5.62629 5.96531 0
M  V30 4370 O 721.766 -6.87667 5.41053 0
M  V30 4371 C 722.256 -4.52537 5.39283 0
M  V30 4372 C 721.546 -4.20027 4.08623 0
M  V30 4373 N 721.596 -2.76189 3.71603 0
M  V30 4374 H 718.757 -4.797 7.24003 0
M  V30 4375 H 718.487 -3.69856 5.84513 0
M  V30 4376 H 719.354 -6.10356 5.41441 0
M  V30 4377 P 723.316 -7.20834 5.23717 0
M  V30 4378 O 723.536 -8.66104 5.38572 0
M  V30 4379 O 724.106 -6.33544 6.1349 0
M  V30 4380 O 723.566 -6.7751 3.72168 0
M  V30 4381 C 722.626 -7.20825 2.7076 0
M  V30 4382 C 723.356 -7.45864 1.40599 0
M  V30 4383 O 723.566 -6.17651 0.734225 0
M  V30 4384 C 724.756 -8.05808 1.51899 0
M  V30 4385 O 725.146 -8.74358 0.335205 0
M  V30 4386 C 725.636 -6.83093 1.70294 0
M  V30 4387 C 724.926 -5.79992 0.836974 0
M  V30 4388 N 724.976 -4.41864 1.38293 0
M  V30 4389 C 724.896 -3.99538 2.69438 0
M  V30 4390 N 724.976 -2.69909 2.84277 0
M  V30 4391 C 725.116 -2.21719 1.5408 0
M  V30 4392 C 725.246 -0.891712 1.06628 0
M  V30 4393 N 725.366 -0.856846 -0.334985 0
M  V30 4394 C 725.366 -1.9641 -1.15789 0
M  V30 4395 N 725.496 -1.72708 -2.46522 0
M  V30 4396 N 725.236 -3.21165 -0.713741 0
M  V30 4397 C 725.116 -3.26797 0.639748 0
M  V30 4398 H 722.137 -8.13644 3.0377 0
M  V30 4399 H 721.867 -6.42788 2.55485 0
M  V30 4400 H 722.734 -8.12039 0.792769 0
M  V30 4401 P 726.696 -8.91 -4.98617e-12 0
M  V30 4402 O 726.916 -10.1726 -0.733694 0
M  V30 4403 O 727.486 -8.73148 1.23936 0
M  V30 4404 O 726.946 -7.66872 -0.971405 0
M  V30 4405 C 726.006 -7.42309 -2.04641 0
M  V30 4406 C 726.736 -6.86059 -3.24661 0
M  V30 4407 O 726.946 -5.42847 -3.03646 0
M  V30 4408 C 728.136 -7.41196 -3.50753 0
M  V30 4409 O 728.526 -7.27073 -4.86816 0
M  V30 4410 C 729.016 -6.5273 -2.63741 0
M  V30 4411 C 728.306 -5.1842 -2.73198 0
M  V30 4412 N 728.356 -4.38762 -1.4784 0
M  V30 4413 H 725.517 -8.36803 -2.32493 0
M  V30 4414 H 725.247 -6.70197 -1.71129 0
M  V30 4415 H 726.114 -7.03551 -4.13168 0
M  V30 4416 P 730.076 -7.20834 -5.23717 0
M  V30 4417 O 730.296 -7.79853 -6.57286 0
M  V30 4418 O 730.866 -7.79239 -4.12957 0
M  V30 4419 O 730.326 -5.63315 -5.29344 0
M  V30 4420 C 729.386 -4.80255 -6.01876 0
M  V30 4421 C 730.116 -3.64202 -6.65911 0
M  V30 4422 O 730.326 -2.60694 -5.64732 0
M  V30 4423 C 731.516 -3.93473 -7.1943 0
M  V30 4424 O 731.906 -3.02071 -8.21205 0
M  V30 4425 C 732.396 -3.73047 -5.97036 0
M  V30 4426 C 731.686 -2.58828 -5.25741 0
M  V30 4427 N 731.736 -2.68068 -3.77503 0
M  V30 4428 H 728.897 -5.40332 -6.79951 0
M  V30 4429 H 728.627 -4.41613 -5.32378 0
M  V30 4430 H 729.494 -3.26331 -7.47797 0
M  V30 4431 P 733.456 -2.75334 -8.47391 0
M  V30 4432 O 733.676 -2.44619 -9.90336 0
M  V30 4433 O 734.246 -3.87776 -7.92294 0
M  V30 4434 O 733.706 -1.4459 -7.59357 0
M  V30 4435 C 732.766 -0.347653 -7.69315 0
M  V30 4436 C 733.496 0.96767 -7.52806 0
M  V30 4437 O 733.706 1.21055 -6.10208 0
M  V30 4438 C 734.896 1.04557 -8.13408 0
M  V30 4439 O 735.286 2.38311 -8.41922 0
M  V30 4440 C 735.776 0.491279 -7.02284 0
M  V30 4441 C 735.066 0.996264 -5.77469 0
M  V30 4442 N 735.116 0.0501916 -4.62973 0
M  V30 4443 C 735.036 -1.31969 -4.65661 0
M  V30 4444 N 735.106 -1.86649 -3.48119 0
M  V30 4445 C 735.256 -0.792089 -2.62406 0
M  V30 4446 C 735.386 -0.705684 -1.2207 0
M  V30 4447 N 735.396 -1.76207 -0.413762 0
M  V30 4448 N 735.506 0.518981 -0.685754 0
M  V30 4449 C 735.496 1.57595 -1.49174 0
M  V30 4450 N 735.376 1.62909 -2.80066 0
M  V30 4451 C 735.256 0.388195 -3.3073 0
M  V30 4452 H 732.278 -0.374765 -8.67791 0
M  V30 4453 H 732.006 -0.443613 -6.90476 0
M  V30 4454 H 732.874 1.75559 -7.96891 0
M  V30 4455 H 735.529 1.94563 -5.46818 0
M  V30 4456 H 735.809 -0.608651 -7.04676 0
M  V30 4457 H 736.8 0.889796 -7.09039 0
M  V30 4458 H 734.966 0.433128 -9.04664 0
M  V30 4459 H 734.925 -1.89246 -5.57664 0
M  V30 4460 H 735.306 -2.71005 -0.804694 0
M  V30 4461 H 735.495 -1.63189 0.603768 0
M  V30 4462 H 735.603 2.53475 -0.997614 0
M  V30 4463 P 736.836 2.75334 -8.47391 0
M  V30 4464 O 737.056 3.84128 -9.44797 0
M  V30 4465 O 737.626 1.51947 -8.68712 0
M  V30 4466 O 737.086 3.29363 -6.99321 0
M  V30 4467 C 736.146 4.24011 -6.4274 0
M  V30 4468 C 736.876 5.20775 -5.52155 0
M  V30 4469 O 737.086 4.56534 -4.22446 0
M  V30 4470 C 738.276 5.62629 -5.96531 0
M  V30 4471 O 738.666 6.87667 -5.41053 0
M  V30 4472 C 739.156 4.52537 -5.39283 0
M  V30 4473 C 738.446 4.20027 -4.08623 0
M  V30 4474 N 738.496 2.76189 -3.71603 0
M  V30 4475 H 735.657 4.797 -7.24003 0
M  V30 4476 H 735.387 3.69856 -5.84513 0
M  V30 4477 H 736.254 6.10356 -5.41441 0
M  V30 4478 P 740.216 7.20834 -5.23717 0
M  V30 4479 O 740.436 8.66104 -5.38572 0
M  V30 4480 O 741.006 6.33544 -6.1349 0
M  V30 4481 O 740.466 6.7751 -3.72168 0
M  V30 4482 C 739.526 7.20825 -2.7076 0
M  V30 4483 C 740.256 7.45864 -1.40599 0
M  V30 4484 O 740.466 6.17651 -0.734225 0
M  V30 4485 C 741.656 8.05808 -1.51899 0
M  V30 4486 O 742.046 8.74358 -0.335205 0
M  V30 4487 C 742.536 6.83093 -1.70294 0
M  V30 4488 C 741.826 5.79992 -0.836974 0
M  V30 4489 N 741.876 4.41864 -1.38293 0
M  V30 4490 H 739.037 8.13644 -3.0377 0
M  V30 4491 H 738.767 6.42788 -2.55485 0
M  V30 4492 H 739.634 8.12039 -0.792769 0
M  V30 4493 P 743.596 8.91 5.14336e-12 0
M  V30 4494 O 743.816 10.1746 0.733838 0
M  V30 4495 O 744.386 8.73346 -1.23964 0
M  V30 4496 O 743.846 7.66872 0.971405 0
M  V30 4497 C 742.906 7.42405 2.04668 0
M  V30 4498 C 743.636 6.86059 3.24661 0
M  V30 4499 O 743.846 5.42934 3.03695 0
M  V30 4500 C 745.036 7.41287 3.50796 0
M  V30 4501 O 745.426 7.27073 4.86816 0
M  V30 4502 C 745.916 6.5273 2.63741 0
M  V30 4503 C 745.206 5.1842 2.73198 0
M  V30 4504 N 745.256 4.38762 1.4784 0
M  V30 4505 C 745.176 4.83651 0.183876 0
M  V30 4506 N 745.246 3.88759 -0.699393 0
M  V30 4507 C 745.396 2.7404 0.0575568 0
M  V30 4508 C 745.526 1.37902 -0.293928 0
M  V30 4509 N 745.536 0.938021 -1.54797 0
M  V30 4510 N 745.646 0.491817 0.70549 0
M  V30 4511 C 745.636 0.931735 1.95979 0
M  V30 4512 N 745.516 2.16017 2.41481 0
M  V30 4513 C 745.396 3.02547 1.39121 0
M  V30 4514 H 742.418 8.36899 2.3252 0
M  V30 4515 H 742.146 6.70391 1.71179 0
M  V30 4516 H 743.014 7.03638 4.13219 0
M  V30 4517 H 745.669 4.59931 3.54016 0
M  V30 4518 H 745.949 6.88995 1.59871 0
M  V30 4519 H 746.94 6.4684 3.0373 0
M  V30 4520 H 745.106 8.47002 3.20749 0
M  V30 4521 H 745.065 5.8885 -0.0765548 0
M  V30 4522 H 745.446 1.60276 -2.32875 0
M  V30 4523 H 745.635 -0.0699355 -1.73859 0
M  V30 4524 H 745.743 0.165507 2.71897 0
M  V30 4525 P 746.976 7.20834 5.23717 0
M  V30 4526 O 747.196 7.79853 6.57286 0
M  V30 4527 O 747.766 7.79239 4.12957 0
M  V30 4528 O 747.226 5.63315 5.29344 0
M  V30 4529 C 746.286 4.80255 6.01876 0
M  V30 4530 C 747.016 3.64202 6.65911 0
M  V30 4531 O 747.226 2.60694 5.64732 0
M  V30 4532 C 748.416 3.93473 7.1943 0
M  V30 4533 O 748.806 3.02071 8.21205 0
M  V30 4534 C 749.296 3.73047 5.97036 0
M  V30 4535 C 748.586 2.58828 5.25741 0
M  V30 4536 N 748.636 2.68068 3.77503 0
M  V30 4537 C 748.556 3.79715 2.96723 0
M  V30 4538 N 748.636 3.5377 1.68852 0
M  V30 4539 C 748.776 2.15054 1.63254 0
M  V30 4540 C 748.906 1.28964 0.518571 0
M  V30 4541 O 748.926 1.56826 -0.679156 0
M  V30 4542 N 749.026 -0.0538097 0.918425 0
M  V30 4543 C 749.026 -0.494275 2.22578 0
M  V30 4544 N 749.156 -1.81086 2.40434 0
M  V30 4545 N 748.896 0.313645 3.27502 0
M  V30 4546 C 748.776 1.61829 2.91033 0
M  V30 4547 H 745.797 5.40332 6.79951 0
M  V30 4548 H 745.527 4.41613 5.32378 0
M  V30 4549 H 746.394 3.26331 7.47797 0
M  V30 4550 H 749.049 1.63422 5.56814 0
M  V30 4551 H 749.328 4.63374 5.34244 0
M  V30 4552 H 750.32 3.44728 6.25838 0
M  V30 4553 H 748.486 4.96652 7.57263 0
M  V30 4554 H 748.437 4.80617 3.3614 0
M  V30 4555 H 749.119 -0.742702 0.199384 0
M  V30 4556 H 749.156 -2.20598 3.35588 0
M  V30 4557 H 749.257 -2.43518 1.58945 0
M  V30 4558 P 750.356 2.75334 8.47391 0
M  V30 4559 O 750.576 2.44571 9.90142 0
M  V30 4560 O 751.146 3.87688 7.92115 0
M  V30 4561 O 750.606 1.4459 7.59357 0
M  V30 4562 C 749.666 0.347608 7.69215 0
M  V30 4563 C 750.396 -0.96767 7.52806 0
M  V30 4564 O 750.606 -1.21036 6.1011 0
M  V30 4565 C 751.796 -1.04544 8.13308 0
M  V30 4566 O 752.186 -2.38311 8.41922 0
M  V30 4567 C 752.676 -0.491279 7.02284 0
M  V30 4568 C 751.966 -0.996264 5.77469 0
M  V30 4569 N 752.016 -0.0501916 4.62973 0
M  V30 4570 H 749.177 0.374722 8.67691 0
M  V30 4571 H 748.907 0.443485 6.90277 0
M  V30 4572 H 749.774 -1.75537 7.96793 0
M  V30 4573 P 753.736 -2.75334 8.47391 0
M  V30 4574 O 753.956 -3.84128 9.44797 0
M  V30 4575 O 754.526 -1.51947 8.68712 0
M  V30 4576 O 753.986 -3.29363 6.99321 0
M  V30 4577 C 753.046 -4.24011 6.4274 0
M  V30 4578 C 753.776 -5.20775 5.52155 0
M  V30 4579 O 753.986 -4.56534 4.22446 0
M  V30 4580 C 755.176 -5.62629 5.96531 0
M  V30 4581 O 755.566 -6.87667 5.41053 0
M  V30 4582 C 756.056 -4.52537 5.39283 0
M  V30 4583 C 755.346 -4.20027 4.08623 0
M  V30 4584 N 755.396 -2.76189 3.71603 0
M  V30 4585 H 752.557 -4.797 7.24003 0
M  V30 4586 H 752.287 -3.69856 5.84513 0
M  V30 4587 H 753.154 -6.10356 5.41441 0
M  V30 4588 P 757.116 -7.20834 5.23717 0
M  V30 4589 O 757.336 -8.66104 5.38572 0
M  V30 4590 O 757.906 -6.33544 6.1349 0
M  V30 4591 O 757.366 -6.7751 3.72168 0
M  V30 4592 C 756.426 -7.20825 2.7076 0
M  V30 4593 C 757.156 -7.45864 1.40599 0
M  V30 4594 O 757.366 -6.17651 0.734225 0
M  V30 4595 C 758.556 -8.05808 1.51899 0
M  V30 4596 O 758.946 -8.74358 0.335205 0
M  V30 4597 C 759.436 -6.83093 1.70294 0
M  V30 4598 C 758.726 -5.79992 0.836974 0
M  V30 4599 N 758.776 -4.41864 1.38293 0
M  V30 4600 H 755.937 -8.13644 3.0377 0
M  V30 4601 H 755.667 -6.42788 2.55485 0
M  V30 4602 H 756.534 -8.12039 0.792769 0
M  V30 4603 P 760.496 -8.91 -5.30054e-12 0
M  V30 4604 O 760.716 -10.1726 -0.733694 0
M  V30 4605 O 761.286 -8.73148 1.23936 0
M  V30 4606 O 760.746 -7.66872 -0.971405 0
M  V30 4607 C 759.806 -7.42309 -2.04641 0
M  V30 4608 C 760.536 -6.86059 -3.24661 0
M  V30 4609 O 760.746 -5.42847 -3.03646 0
M  V30 4610 C 761.936 -7.41196 -3.50753 0
M  V30 4611 O 762.326 -7.27073 -4.86816 0
M  V30 4612 C 762.816 -6.5273 -2.63741 0
M  V30 4613 C 762.106 -5.1842 -2.73198 0
M  V30 4614 N 762.156 -4.38762 -1.4784 0
M  V30 4615 H 759.317 -8.36803 -2.32493 0
M  V30 4616 H 759.047 -6.70197 -1.71129 0
M  V30 4617 H 759.914 -7.03551 -4.13168 0
M  V30 4618 P 763.875 -7.20834 -5.23717 0
M  V30 4619 O 764.095 -7.7993 -6.57351 0
M  V30 4620 O 764.665 -7.79328 -4.13004 0
M  V30 4621 O 764.125 -5.63315 -5.29344 0
M  V30 4622 C 763.185 -4.80193 -6.01798 0
M  V30 4623 C 763.915 -3.64202 -6.65911 0
M  V30 4624 O 764.125 -2.60694 -5.64732 0
M  V30 4625 C 765.315 -3.93473 -7.1943 0
M  V30 4626 O 765.705 -3.02071 -8.21205 0
M  V30 4627 C 766.195 -3.73047 -5.97036 0
M  V30 4628 C 765.485 -2.58828 -5.25741 0
M  V30 4629 N 765.535 -2.6801 -3.77422 0
M  V30 4630 C 765.685 -1.50443 -3.07133 0
M  V30 4631 O 765.775 -0.419406 -3.61576 0
M  V30 4632 N 765.725 -1.6403 -1.69677 0
M  V30 4633 C 765.635 -2.81206 -0.986255 0
M  V30 4634 O 765.685 -2.80892 0.249754 0
M  V30 4635 C 765.485 -3.99158 -1.80325 0
M  V30 4636 C 765.375 -5.29309 -1.06921 0
M  V30 4637 C 765.435 -3.89779 -3.1476 0
M  V30 4638 H 762.695 -5.40332 -6.79951 0
M  V30 4639 H 762.426 -4.41549 -5.32301 0
M  V30 4640 H 763.293 -3.26331 -7.47797 0
M  V30 4641 H 765.948 -1.6395 -5.56554 0
M  V30 4642 H 766.227 -4.63439 -5.3432 0
M  V30 4643 H 767.219 -3.44728 -6.25838 0
M  V30 4644 H 765.385 -4.96652 -7.57263 0
M  V30 4645 H 765.314 -4.80159 -3.74441 0
M  V30 4646 H 766.344 -5.81459 -1.09608 0
M  V30 4647 H 764.607 -5.9187 -1.54487 0
M  V30 4648 H 765.095 -5.10095 -0.0220288 0
M  V30 4649 H 765.831 -0.798962 -1.16664 0
M  V30 4650 P 767.255 -2.75334 -8.47391 0
M  V30 4651 O 767.475 -2.44571 -9.90142 0
M  V30 4652 O 768.045 -3.87688 -7.92115 0
M  V30 4653 O 767.505 -1.4459 -7.59357 0
M  V30 4654 C 766.565 -0.347608 -7.69215 0
M  V30 4655 C 767.295 0.96767 -7.52806 0
M  V30 4656 O 767.505 1.21036 -6.1011 0
M  V30 4657 C 768.695 1.04544 -8.13308 0
M  V30 4658 O 769.085 2.38311 -8.41922 0
M  V30 4659 C 769.575 0.491279 -7.02284 0
M  V30 4660 C 768.865 0.996264 -5.77469 0
M  V30 4661 N 768.915 0.0501916 -4.62973 0
M  V30 4662 C 768.835 -1.32786 -4.63244 0
M  V30 4663 N 768.915 -1.86957 -3.44545 0
M  V30 4664 C 769.055 -0.780241 -2.58481 0
M  V30 4665 C 769.185 -0.738536 -1.17757 0
M  V30 4666 N 769.305 0.58337 -0.711393 0
M  V30 4667 C 769.305 1.70816 -1.51017 0
M  V30 4668 N 769.435 2.87826 -0.880757 0
M  V30 4669 N 769.175 1.67126 -2.8339 0
M  V30 4670 C 769.055 0.401421 -3.30572 0
M  V30 4671 H 766.076 -0.374722 -8.67691 0
M  V30 4672 H 765.806 -0.443485 -6.90277 0
M  V30 4673 H 766.673 1.75537 -7.96793 0
M  V30 4674 P 770.635 2.75334 -8.47391 0
M  V30 4675 O 770.855 3.84128 -9.44797 0
M  V30 4676 O 771.425 1.51947 -8.68712 0
M  V30 4677 O 770.885 3.29363 -6.99321 0
M  V30 4678 C 769.945 4.24011 -6.4274 0
M  V30 4679 C 770.675 5.20775 -5.52155 0
M  V30 4680 O 770.885 4.56534 -4.22446 0
M  V30 4681 C 772.075 5.62629 -5.96531 0
M  V30 4682 O 772.465 6.87667 -5.41053 0
M  V30 4683 C 772.955 4.52537 -5.39283 0
M  V30 4684 C 772.245 4.20027 -4.08623 0
M  V30 4685 N 772.295 2.76189 -3.71603 0
M  V30 4686 H 769.456 4.797 -7.24003 0
M  V30 4687 H 769.186 3.69856 -5.84513 0
M  V30 4688 H 770.053 6.10356 -5.41441 0
M  V30 4689 P 774.015 7.20834 -5.23717 0
M  V30 4690 O 774.235 8.66104 -5.38572 0
M  V30 4691 O 774.805 6.33544 -6.1349 0
M  V30 4692 O 774.265 6.7751 -3.72168 0
M  V30 4693 C 773.325 7.20825 -2.7076 0
M  V30 4694 C 774.055 7.45864 -1.40599 0
M  V30 4695 O 774.265 6.17651 -0.734225 0
M  V30 4696 C 775.455 8.05808 -1.51899 0
M  V30 4697 O 775.845 8.74358 -0.335205 0
M  V30 4698 C 776.335 6.83093 -1.70294 0
M  V30 4699 C 775.625 5.79992 -0.836974 0
M  V30 4700 N 775.675 4.41864 -1.38293 0
M  V30 4701 C 775.595 3.99538 -2.69438 0
M  V30 4702 N 775.675 2.69909 -2.84277 0
M  V30 4703 C 775.815 2.21719 -1.5408 0
M  V30 4704 C 775.945 0.891712 -1.06628 0
M  V30 4705 N 776.065 0.856846 0.334985 0
M  V30 4706 C 776.065 1.9641 1.15789 0
M  V30 4707 N 776.195 1.72708 2.46522 0
M  V30 4708 N 775.935 3.21165 0.713741 0
M  V30 4709 C 775.815 3.26797 -0.639748 0
M  V30 4710 H 772.836 8.13644 -3.0377 0
M  V30 4711 H 772.566 6.42788 -2.55485 0
M  V30 4712 H 773.433 8.12039 -0.792769 0
M  V30 4713 P 777.395 8.91 5.45772e-12 0
M  V30 4714 O 777.615 10.1746 0.733838 0
M  V30 4715 O 778.185 8.73346 -1.23964 0
M  V30 4716 O 777.645 7.66872 0.971405 0
M  V30 4717 C 776.705 7.42405 2.04668 0
M  V30 4718 C 777.435 6.86059 3.24661 0
M  V30 4719 O 777.645 5.42934 3.03695 0
M  V30 4720 C 778.835 7.41287 3.50796 0
M  V30 4721 O 779.225 7.27073 4.86816 0
M  V30 4722 C 779.715 6.5273 2.63741 0
M  V30 4723 C 779.005 5.1842 2.73198 0
M  V30 4724 N 779.055 4.38762 1.4784 0
M  V30 4725 C 778.975 4.83651 0.183876 0
M  V30 4726 N 779.045 3.88759 -0.699393 0
M  V30 4727 C 779.195 2.7404 0.0575568 0
M  V30 4728 C 779.325 1.37902 -0.293928 0
M  V30 4729 N 779.335 0.938021 -1.54797 0
M  V30 4730 N 779.445 0.491817 0.70549 0
M  V30 4731 C 779.435 0.931735 1.95979 0
M  V30 4732 N 779.315 2.16017 2.41481 0
M  V30 4733 C 779.195 3.02547 1.39121 0
M  V30 4734 H 776.217 8.36899 2.3252 0
M  V30 4735 H 775.945 6.70391 1.71179 0
M  V30 4736 H 776.813 7.03638 4.13219 0
M  V30 4737 H 779.468 4.59931 3.54016 0
M  V30 4738 H 779.748 6.88995 1.59871 0
M  V30 4739 H 780.739 6.4684 3.0373 0
M  V30 4740 H 778.905 8.47002 3.20749 0
M  V30 4741 H 778.864 5.8885 -0.0765548 0
M  V30 4742 H 779.245 1.60276 -2.32875 0
M  V30 4743 H 779.434 -0.0699355 -1.73859 0
M  V30 4744 H 779.542 0.165507 2.71897 0
M  V30 4745 P 780.775 7.20834 5.23717 0
M  V30 4746 O 780.995 7.79853 6.57286 0
M  V30 4747 O 781.565 7.79239 4.12957 0
M  V30 4748 O 781.025 5.63315 5.29344 0
M  V30 4749 C 780.085 4.80255 6.01876 0
M  V30 4750 C 780.815 3.64202 6.65911 0
M  V30 4751 O 781.025 2.60694 5.64732 0
M  V30 4752 C 782.215 3.93473 7.1943 0
M  V30 4753 O 782.605 3.02071 8.21205 0
M  V30 4754 C 783.095 3.73047 5.97036 0
M  V30 4755 C 782.385 2.58828 5.25741 0
M  V30 4756 N 782.435 2.68068 3.77503 0
M  V30 4757 H 779.596 5.40332 6.79951 0
M  V30 4758 H 779.326 4.41613 5.32378 0
M  V30 4759 H 780.193 3.26331 7.47797 0
M  V30 4760 P 784.155 2.75334 8.47391 0
M  V30 4761 O 784.375 2.44571 9.90142 0
M  V30 4762 O 784.945 3.87688 7.92115 0
M  V30 4763 O 784.405 1.4459 7.59357 0
M  V30 4764 C 783.465 0.347608 7.69215 0
M  V30 4765 C 784.195 -0.96767 7.52806 0
M  V30 4766 O 784.405 -1.21036 6.1011 0
M  V30 4767 C 785.595 -1.04544 8.13308 0
M  V30 4768 O 785.985 -2.38311 8.41922 0
M  V30 4769 C 786.475 -0.491279 7.02284 0
M  V30 4770 C 785.765 -0.996264 5.77469 0
M  V30 4771 N 785.815 -0.0501916 4.62973 0
M  V30 4772 H 782.976 0.374722 8.67691 0
M  V30 4773 H 782.706 0.443485 6.90277 0
M  V30 4774 H 783.573 -1.75537 7.96793 0
M  V30 4775 P 787.535 -2.75334 8.47391 0
M  V30 4776 O 787.755 -3.84204 9.44982 0
M  V30 4777 O 788.325 -1.51982 8.68909 0
M  V30 4778 O 787.785 -3.29363 6.99321 0
M  V30 4779 C 786.845 -4.24066 6.42823 0
M  V30 4780 C 787.575 -5.20775 5.52155 0
M  V30 4781 O 787.785 -4.56607 4.22514 0
M  V30 4782 C 788.975 -5.62697 5.96604 0
M  V30 4783 O 789.365 -6.87667 5.41053 0
M  V30 4784 C 789.855 -4.52537 5.39283 0
M  V30 4785 C 789.145 -4.20027 4.08623 0
M  V30 4786 N 789.195 -2.76189 3.71603 0
M  V30 4787 C 789.115 -1.66944 4.54297 0
M  V30 4788 N 789.185 -0.536169 3.91344 0
M  V30 4789 C 789.335 -0.901569 2.58849 0
M  V30 4790 C 789.465 -0.146599 1.40236 0
M  V30 4791 N 789.475 1.18234 1.37046 0
M  V30 4792 N 789.585 -0.822941 0.249738 0
M  V30 4793 C 789.575 -2.15179 0.280525 0
M  V30 4794 N 789.455 -2.96414 1.30822 0
M  V30 4795 C 789.335 -2.25804 2.44748 0
M  V30 4796 H 786.357 -4.79756 7.24086 0
M  V30 4797 H 786.085 -3.69963 5.84682 0
M  V30 4798 H 786.953 -6.10431 5.41508 0
M  V30 4799 H 789.608 -4.78816 3.28024 0
M  V30 4800 H 789.888 -3.64957 6.05871 0
M  V30 4801 H 790.879 -4.88748 5.21323 0
M  V30 4802 H 789.045 -5.66789 7.0643 0
M  V30 4803 H 789.004 -1.74684 5.62396 0
M  V30 4804 H 789.385 1.71949 2.24394 0
M  V30 4805 H 789.574 1.67511 0.470742 0
M  V30 4806 H 789.682 -2.63704 -0.6828 0
M  V30 4807 P 790.915 -7.20834 5.23717 0
M  V30 4808 O 791.135 -8.66104 5.38572 0
M  V30 4809 O 791.705 -6.33544 6.1349 0
M  V30 4810 O 791.165 -6.7751 3.72168 0
M  V30 4811 C 790.225 -7.20825 2.7076 0
M  V30 4812 C 790.955 -7.45864 1.40599 0
M  V30 4813 O 791.165 -6.17651 0.734225 0
M  V30 4814 C 792.355 -8.05808 1.51899 0
M  V30 4815 O 792.745 -8.74358 0.335205 0
M  V30 4816 C 793.235 -6.83093 1.70294 0
M  V30 4817 C 792.525 -5.79992 0.836974 0
M  V30 4818 N 792.575 -4.41864 1.38293 0
M  V30 4819 H 789.736 -8.13644 3.0377 0
M  V30 4820 H 789.466 -6.42788 2.55485 0
M  V30 4821 H 790.333 -8.12039 0.792769 0
M  V30 4822 P 794.295 -8.91 -5.6149e-12 0
M  V30 4823 O 794.515 -10.1746 -0.733838 0
M  V30 4824 O 795.085 -8.73346 1.23964 0
M  V30 4825 O 794.545 -7.66872 -0.971405 0
M  V30 4826 C 793.605 -7.42405 -2.04668 0
M  V30 4827 C 794.335 -6.86059 -3.24661 0
M  V30 4828 O 794.545 -5.42934 -3.03695 0
M  V30 4829 C 795.735 -7.41287 -3.50796 0
M  V30 4830 O 796.125 -7.27073 -4.86816 0
M  V30 4831 C 796.615 -6.5273 -2.63741 0
M  V30 4832 C 795.905 -5.1842 -2.73198 0
M  V30 4833 N 795.955 -4.38762 -1.4784 0
M  V30 4834 C 795.875 -4.83651 -0.183876 0
M  V30 4835 N 795.945 -3.88759 0.699393 0
M  V30 4836 C 796.095 -2.7404 -0.0575568 0
M  V30 4837 C 796.225 -1.37902 0.293928 0
M  V30 4838 N 796.235 -0.938021 1.54797 0
M  V30 4839 N 796.345 -0.491817 -0.70549 0
M  V30 4840 C 796.335 -0.931735 -1.95979 0
M  V30 4841 N 796.215 -2.16017 -2.41481 0
M  V30 4842 C 796.095 -3.02547 -1.39121 0
M  V30 4843 H 793.117 -8.36899 -2.3252 0
M  V30 4844 H 792.845 -6.70391 -1.71179 0
M  V30 4845 H 793.713 -7.03638 -4.13219 0
M  V30 4846 H 796.368 -4.59931 -3.54016 0
M  V30 4847 H 796.648 -6.88995 -1.59871 0
M  V30 4848 H 797.639 -6.4684 -3.0373 0
M  V30 4849 H 795.805 -8.47002 -3.20749 0
M  V30 4850 H 795.764 -5.8885 0.0765548 0
M  V30 4851 H 796.145 -1.60276 2.32875 0
M  V30 4852 H 796.334 0.0699355 1.73859 0
M  V30 4853 H 796.442 -0.165507 -2.71897 0
M  V30 4854 P 797.675 -7.20834 -5.23717 0
M  V30 4855 O 797.895 -7.80006 -6.57415 0
M  V30 4856 O 798.465 -7.79416 -4.13051 0
M  V30 4857 O 797.925 -5.63315 -5.29344 0
M  V30 4858 C 796.985 -4.80318 -6.01954 0
M  V30 4859 C 797.715 -3.64202 -6.65911 0
M  V30 4860 O 797.925 -2.60736 -5.64823 0
M  V30 4861 C 799.115 -3.93521 -7.19518 0
M  V30 4862 O 799.505 -3.02071 -8.21205 0
M  V30 4863 C 799.995 -3.73047 -5.97036 0
M  V30 4864 C 799.285 -2.58828 -5.25741 0
M  V30 4865 N 799.335 -2.68068 -3.77503 0
M  V30 4866 C 799.255 -3.80474 -2.99159 0
M  V30 4867 N 799.325 -3.55622 -1.71925 0
M  V30 4868 C 799.475 -2.1832 -1.65733 0
M  V30 4869 C 799.605 -1.28842 -0.572777 0
M  V30 4870 N 799.615 -1.66875 0.70098 0
M  V30 4871 N 799.725 0.016788 -0.859836 0
M  V30 4872 C 799.715 0.398145 -2.13316 0
M  V30 4873 N 799.595 -0.328224 -3.22333 0
M  V30 4874 C 799.475 -1.62992 -2.90383 0
M  V30 4875 H 796.497 -5.40394 -6.8003 0
M  V30 4876 H 796.225 -4.41741 -5.32532 0
M  V30 4877 H 797.093 -3.26371 -7.47889 0
M  V30 4878 H 799.748 -1.64007 -5.56746 0
M  V30 4879 H 800.028 -4.63439 -5.3432 0
M  V30 4880 H 801.019 -3.44776 -6.25925 0
M  V30 4881 H 799.185 -4.96707 -7.57347 0
M  V30 4882 H 799.144 -4.8089 -3.39924 0
M  V30 4883 H 799.525 -2.66547 0.941919 0
M  V30 4884 H 799.714 -0.965341 1.44766 0
M  V30 4885 H 799.822 1.46427 -2.29697 0
M  V30 4886 P 801.055 -2.75334 -8.47391 0
M  V30 4887 O 801.275 -2.44571 -9.90142 0
M  V30 4888 O 801.845 -3.87688 -7.92115 0
M  V30 4889 O 801.305 -1.4459 -7.59357 0
M  V30 4890 C 800.365 -0.347608 -7.69215 0
M  V30 4891 C 801.095 0.96767 -7.52806 0
M  V30 4892 O 801.305 1.21036 -6.1011 0
M  V30 4893 C 802.495 1.04544 -8.13308 0
M  V30 4894 O 802.885 2.38311 -8.41922 0
M  V30 4895 C 803.375 0.491279 -7.02284 0
M  V30 4896 C 802.665 0.996264 -5.77469 0
M  V30 4897 N 802.715 0.0501916 -4.62973 0
M  V30 4898 H 799.876 -0.374722 -8.67691 0
M  V30 4899 H 799.606 -0.443485 -6.90277 0
M  V30 4900 H 800.473 1.75537 -7.96793 0
M  V30 4901 P 804.435 2.75334 -8.47391 0
M  V30 4902 O 804.655 3.84128 -9.44797 0
M  V30 4903 O 805.225 1.51947 -8.68712 0
M  V30 4904 O 804.685 3.29363 -6.99321 0
M  V30 4905 C 803.745 4.24011 -6.4274 0
M  V30 4906 C 804.475 5.20775 -5.52155 0
M  V30 4907 O 804.685 4.56534 -4.22446 0
M  V30 4908 C 805.875 5.62629 -5.96531 0
M  V30 4909 O 806.265 6.87667 -5.41053 0
M  V30 4910 C 806.755 4.52537 -5.39283 0
M  V30 4911 C 806.045 4.20027 -4.08623 0
M  V30 4912 N 806.095 2.76189 -3.71603 0
M  V30 4913 C 806.015 1.64862 -4.52822 0
M  V30 4914 N 806.095 0.512671 -3.88633 0
M  V30 4915 C 806.235 0.888083 -2.54977 0
M  V30 4916 C 806.365 0.094668 -1.38677 0
M  V30 4917 O 806.385 -1.13053 -1.28163 0
M  V30 4918 N 806.485 0.890102 -0.232633 0
M  V30 4919 C 806.485 2.26958 -0.21772 0
M  V30 4920 N 806.615 2.84626 0.97925 0
M  V30 4921 N 806.355 3.0178 -1.31033 0
M  V30 4922 C 806.235 2.26781 -2.43843 0
M  V30 4923 H 803.256 4.797 -7.24003 0
M  V30 4924 H 802.986 3.69856 -5.84513 0
M  V30 4925 H 803.853 6.10356 -5.41441 0
M  V30 4926 H 806.508 4.79061 -3.27488 0
M  V30 4927 H 806.787 3.64906 -6.05785 0
M  V30 4928 H 807.779 4.8868 -5.2125 0
M  V30 4929 H 805.945 5.66726 -7.06352 0
M  V30 4930 H 805.896 1.71169 -5.60966 0
M  V30 4931 H 806.578 0.419134 0.644739 0
M  V30 4932 H 806.615 3.87332 1.06098 0
M  V30 4933 H 806.716 2.26417 1.82483 0
M  V30 4934 P 807.815 7.20834 -5.23717 0
M  V30 4935 O 808.035 8.66104 -5.38572 0
M  V30 4936 O 808.605 6.33544 -6.1349 0
M  V30 4937 O 808.065 6.7751 -3.72168 0
M  V30 4938 C 807.125 7.20825 -2.7076 0
M  V30 4939 C 807.855 7.45864 -1.40599 0
M  V30 4940 O 808.065 6.17651 -0.734225 0
M  V30 4941 C 809.255 8.05808 -1.51899 0
M  V30 4942 O 809.645 8.74358 -0.335205 0
M  V30 4943 C 810.135 6.83093 -1.70294 0
M  V30 4944 C 809.425 5.79992 -0.836974 0
M  V30 4945 N 809.475 4.41864 -1.38293 0
M  V30 4946 H 806.636 8.13644 -3.0377 0
M  V30 4947 H 806.366 6.42788 -2.55485 0
M  V30 4948 H 807.233 8.12039 -0.792769 0
M  V30 4949 P 811.195 8.91 5.77209e-12 0
M  V30 4950 O 811.415 10.1726 0.733694 0
M  V30 4951 O 811.985 8.73148 -1.23936 0
M  V30 4952 O 811.445 7.66872 0.971405 0
M  V30 4953 C 810.505 7.42309 2.04641 0
M  V30 4954 C 811.235 6.86059 3.24661 0
M  V30 4955 O 811.445 5.42847 3.03646 0
M  V30 4956 C 812.635 7.41196 3.50753 0
M  V30 4957 O 813.025 7.27073 4.86816 0
M  V30 4958 C 813.515 6.5273 2.63741 0
M  V30 4959 C 812.805 5.1842 2.73198 0
M  V30 4960 N 812.855 4.38762 1.4784 0
M  V30 4961 H 810.016 8.36803 2.32493 0
M  V30 4962 H 809.746 6.70197 1.71129 0
M  V30 4963 H 810.613 7.03551 4.13168 0
M  V30 4964 P 814.575 7.20834 5.23717 0
M  V30 4965 O 814.795 7.79853 6.57286 0
M  V30 4966 O 815.365 7.79239 4.12957 0
M  V30 4967 O 814.825 5.63315 5.29344 0
M  V30 4968 C 813.885 4.80255 6.01876 0
M  V30 4969 C 814.615 3.64202 6.65911 0
M  V30 4970 O 814.825 2.60694 5.64732 0
M  V30 4971 C 816.015 3.93473 7.1943 0
M  V30 4972 O 816.405 3.02071 8.21205 0
M  V30 4973 C 816.895 3.73047 5.97036 0
M  V30 4974 C 816.185 2.58828 5.25741 0
M  V30 4975 N 816.235 2.68068 3.77503 0
M  V30 4976 H 813.396 5.40332 6.79951 0
M  V30 4977 H 813.126 4.41613 5.32378 0
M  V30 4978 H 813.993 3.26331 7.47797 0
M  V30 4979 P 817.955 2.75334 8.47391 0
M  V30 4980 O 818.175 2.44571 9.90142 0
M  V30 4981 O 818.745 3.87688 7.92115 0
M  V30 4982 O 818.205 1.4459 7.59357 0
M  V30 4983 C 817.265 0.347608 7.69215 0
M  V30 4984 C 817.995 -0.96767 7.52806 0
M  V30 4985 O 818.205 -1.21036 6.1011 0
M  V30 4986 C 819.395 -1.04544 8.13308 0
M  V30 4987 O 819.785 -2.38311 8.41922 0
M  V30 4988 C 820.275 -0.491279 7.02284 0
M  V30 4989 C 819.565 -0.996264 5.77469 0
M  V30 4990 N 819.615 -0.0501916 4.62973 0
M  V30 4991 H 816.776 0.374722 8.67691 0
M  V30 4992 H 816.506 0.443485 6.90277 0
M  V30 4993 H 817.373 -1.75537 7.96793 0
M  V30 4994 P 821.335 -2.75334 8.47391 0
M  V30 4995 O 821.555 -3.84128 9.44797 0
M  V30 4996 O 822.125 -1.51947 8.68712 0
M  V30 4997 O 821.585 -3.29363 6.99321 0
M  V30 4998 C 820.645 -4.24011 6.4274 0
M  V30 4999 C 821.375 -5.20775 5.52155 0
M  V30 5000 O 821.585 -4.56534 4.22446 0
M  V30 5001 C 822.775 -5.62629 5.96531 0
M  V30 5002 O 823.165 -6.87667 5.41053 0
M  V30 5003 C 823.655 -4.52537 5.39283 0
M  V30 5004 C 822.945 -4.20027 4.08623 0
M  V30 5005 N 822.995 -2.76189 3.71603 0
M  V30 5006 C 822.915 -1.64862 4.52822 0
M  V30 5007 N 822.995 -0.512671 3.88633 0
M  V30 5008 C 823.135 -0.888083 2.54977 0
M  V30 5009 C 823.265 -0.094668 1.38677 0
M  V30 5010 O 823.285 1.13053 1.28163 0
M  V30 5011 N 823.385 -0.890102 0.232633 0
M  V30 5012 C 823.385 -2.26958 0.21772 0
M  V30 5013 N 823.515 -2.84626 -0.97925 0
M  V30 5014 N 823.255 -3.0178 1.31033 0
M  V30 5015 C 823.135 -2.26781 2.43843 0
M  V30 5016 H 820.156 -4.797 7.24003 0
M  V30 5017 H 819.886 -3.69856 5.84513 0
M  V30 5018 H 820.753 -6.10356 5.41441 0
M  V30 5019 H 823.408 -4.79061 3.27488 0
M  V30 5020 H 823.687 -3.64906 6.05785 0
M  V30 5021 H 824.679 -4.8868 5.2125 0
M  V30 5022 H 822.845 -5.66726 7.06352 0
M  V30 5023 H 822.796 -1.71169 5.60966 0
M  V30 5024 H 823.478 -0.419134 -0.644739 0
M  V30 5025 H 823.515 -3.87332 -1.06098 0
M  V30 5026 H 823.616 -2.26417 -1.82483 0
M  V30 5027 P 824.715 -7.20834 5.23717 0
M  V30 5028 O 824.935 -8.66104 5.38572 0
M  V30 5029 O 825.505 -6.33544 6.1349 0
M  V30 5030 O 824.965 -6.7751 3.72168 0
M  V30 5031 C 824.025 -7.20825 2.7076 0
M  V30 5032 C 824.755 -7.45864 1.40599 0
M  V30 5033 O 824.965 -6.17651 0.734225 0
M  V30 5034 C 826.155 -8.05808 1.51899 0
M  V30 5035 O 826.545 -8.74358 0.335205 0
M  V30 5036 C 827.035 -6.83093 1.70294 0
M  V30 5037 C 826.325 -5.79992 0.836974 0
M  V30 5038 N 826.375 -4.41864 1.38293 0
M  V30 5039 H 823.536 -8.13644 3.0377 0
M  V30 5040 H 823.266 -6.42788 2.55485 0
M  V30 5041 H 824.133 -8.12039 0.792769 0
M  V30 5042 P 828.095 -8.91 -5.92927e-12 0
M  V30 5043 O 828.315 -10.1726 -0.733694 0
M  V30 5044 O 828.885 -8.73148 1.23936 0
M  V30 5045 O 828.345 -7.66872 -0.971405 0
M  V30 5046 C 827.405 -7.42309 -2.04641 0
M  V30 5047 C 828.135 -6.86059 -3.24661 0
M  V30 5048 O 828.345 -5.42847 -3.03646 0
M  V30 5049 C 829.535 -7.41196 -3.50753 0
M  V30 5050 O 829.925 -7.27073 -4.86816 0
M  V30 5051 C 830.415 -6.5273 -2.63741 0
M  V30 5052 C 829.705 -5.1842 -2.73198 0
M  V30 5053 N 829.755 -4.38762 -1.4784 0
M  V30 5054 H 826.916 -8.36803 -2.32493 0
M  V30 5055 H 826.646 -6.70197 -1.71129 0
M  V30 5056 H 827.513 -7.03551 -4.13168 0
M  V30 5057 P 831.475 -7.20834 -5.23717 0
M  V30 5058 O 831.695 -7.79853 -6.57286 0
M  V30 5059 O 832.265 -7.79239 -4.12957 0
M  V30 5060 O 831.725 -5.63315 -5.29344 0
M  V30 5061 C 830.785 -4.80255 -6.01876 0
M  V30 5062 C 831.515 -3.64202 -6.65911 0
M  V30 5063 O 831.725 -2.60694 -5.64732 0
M  V30 5064 C 832.915 -3.93473 -7.1943 0
M  V30 5065 O 833.305 -3.02071 -8.21205 0
M  V30 5066 C 833.795 -3.73047 -5.97036 0
M  V30 5067 C 833.085 -2.58828 -5.25741 0
M  V30 5068 N 833.135 -2.68068 -3.77503 0
M  V30 5069 H 830.296 -5.40332 -6.79951 0
M  V30 5070 H 830.026 -4.41613 -5.32378 0
M  V30 5071 H 830.893 -3.26331 -7.47797 0
M  V30 5072 P 834.855 -2.75334 -8.47391 0
M  V30 5073 O 835.075 -2.44571 -9.90142 0
M  V30 5074 O 835.645 -3.87688 -7.92115 0
M  V30 5075 O 835.105 -1.4459 -7.59357 0
M  V30 5076 C 834.165 -0.347608 -7.69215 0
M  V30 5077 C 834.895 0.96767 -7.52806 0
M  V30 5078 O 835.105 1.21036 -6.1011 0
M  V30 5079 C 836.295 1.04544 -8.13308 0
M  V30 5080 O 836.685 2.38311 -8.41922 0
M  V30 5081 C 837.175 0.491279 -7.02284 0
M  V30 5082 C 836.465 0.996264 -5.77469 0
M  V30 5083 N 836.515 0.0501916 -4.62973 0
M  V30 5084 C 836.435 -1.32786 -4.63244 0
M  V30 5085 N 836.515 -1.86957 -3.44545 0
M  V30 5086 C 836.655 -0.780241 -2.58481 0
M  V30 5087 C 836.785 -0.738536 -1.17757 0
M  V30 5088 N 836.905 0.58337 -0.711393 0
M  V30 5089 C 836.905 1.70816 -1.51017 0
M  V30 5090 N 837.035 2.87826 -0.880757 0
M  V30 5091 N 836.775 1.67126 -2.8339 0
M  V30 5092 C 836.655 0.401421 -3.30572 0
M  V30 5093 H 833.676 -0.374722 -8.67691 0
M  V30 5094 H 833.406 -0.443485 -6.90277 0
M  V30 5095 H 834.273 1.75537 -7.96793 0
M  V30 5096 P 838.235 2.75334 -8.47391 0
M  V30 5097 O 838.455 3.84128 -9.44797 0
M  V30 5098 O 839.025 1.51947 -8.68712 0
M  V30 5099 O 838.485 3.29363 -6.99321 0
M  V30 5100 C 837.545 4.24011 -6.4274 0
M  V30 5101 C 838.275 5.20775 -5.52155 0
M  V30 5102 O 838.485 4.56534 -4.22446 0
M  V30 5103 C 839.675 5.62629 -5.96531 0
M  V30 5104 O 840.065 6.87667 -5.41053 0
M  V30 5105 C 840.555 4.52537 -5.39283 0
M  V30 5106 C 839.845 4.20027 -4.08623 0
M  V30 5107 N 839.895 2.76189 -3.71603 0
M  V30 5108 H 837.056 4.797 -7.24003 0
M  V30 5109 H 836.786 3.69856 -5.84513 0
M  V30 5110 H 837.653 6.10356 -5.41441 0
M  V30 5111 P 841.615 7.20834 -5.23717 0
M  V30 5112 O 841.835 8.66104 -5.38572 0
M  V30 5113 O 842.405 6.33544 -6.1349 0
M  V30 5114 O 841.865 6.7751 -3.72168 0
M  V30 5115 C 840.925 7.20825 -2.7076 0
M  V30 5116 C 841.655 7.45864 -1.40599 0
M  V30 5117 O 841.865 6.17651 -0.734225 0
M  V30 5118 C 843.055 8.05808 -1.51899 0
M  V30 5119 O 843.445 8.74358 -0.335205 0
M  V30 5120 C 843.935 6.83093 -1.70294 0
M  V30 5121 C 843.225 5.79992 -0.836974 0
M  V30 5122 N 843.275 4.41864 -1.38293 0
M  V30 5123 C 843.195 3.99538 -2.69438 0
M  V30 5124 N 843.275 2.69909 -2.84277 0
M  V30 5125 C 843.415 2.21719 -1.5408 0
M  V30 5126 C 843.545 0.891712 -1.06628 0
M  V30 5127 N 843.665 0.856846 0.334985 0
M  V30 5128 C 843.665 1.9641 1.15789 0
M  V30 5129 N 843.795 1.72708 2.46522 0
M  V30 5130 N 843.535 3.21165 0.713741 0
M  V30 5131 C 843.415 3.26797 -0.639748 0
M  V30 5132 H 840.436 8.13644 -3.0377 0
M  V30 5133 H 840.166 6.42788 -2.55485 0
M  V30 5134 H 841.033 8.12039 -0.792769 0
M  V30 5135 P 844.995 8.91 6.08645e-12 0
M  V30 5136 O 845.215 10.1726 0.733694 0
M  V30 5137 O 845.785 8.73148 -1.23936 0
M  V30 5138 O 845.245 7.66872 0.971405 0
M  V30 5139 C 844.305 7.42309 2.04641 0
M  V30 5140 C 845.035 6.86059 3.24661 0
M  V30 5141 O 845.245 5.42847 3.03646 0
M  V30 5142 C 846.435 7.41196 3.50753 0
M  V30 5143 O 846.825 7.27073 4.86816 0
M  V30 5144 C 847.315 6.5273 2.63741 0
M  V30 5145 C 846.605 5.1842 2.73198 0
M  V30 5146 N 846.655 4.38762 1.4784 0
M  V30 5147 H 843.816 8.36803 2.32493 0
M  V30 5148 H 843.546 6.70197 1.71129 0
M  V30 5149 H 844.413 7.03551 4.13168 0
M  V30 5150 P 848.375 7.20834 5.23717 0
M  V30 5151 O 848.595 7.79853 6.57286 0
M  V30 5152 O 849.165 7.79239 4.12957 0
M  V30 5153 O 848.625 5.63315 5.29344 0
M  V30 5154 C 847.685 4.80255 6.01876 0
M  V30 5155 C 848.415 3.64202 6.65911 0
M  V30 5156 O 848.625 2.60694 5.64732 0
M  V30 5157 C 849.815 3.93473 7.1943 0
M  V30 5158 O 850.205 3.02071 8.21205 0
M  V30 5159 C 850.695 3.73047 5.97036 0
M  V30 5160 C 849.985 2.58828 5.25741 0
M  V30 5161 N 850.035 2.68068 3.77503 0
M  V30 5162 H 847.196 5.40332 6.79951 0
M  V30 5163 H 846.926 4.41613 5.32378 0
M  V30 5164 H 847.793 3.26331 7.47797 0
M  V30 5165 P 851.755 2.75334 8.47391 0
M  V30 5166 O 851.975 2.44571 9.90142 0
M  V30 5167 O 852.545 3.87688 7.92115 0
M  V30 5168 O 852.005 1.4459 7.59357 0
M  V30 5169 C 851.065 0.347608 7.69215 0
M  V30 5170 C 851.795 -0.96767 7.52806 0
M  V30 5171 O 852.005 -1.21036 6.1011 0
M  V30 5172 C 853.195 -1.04544 8.13308 0
M  V30 5173 O 853.585 -2.38311 8.41922 0
M  V30 5174 C 854.075 -0.491279 7.02284 0
M  V30 5175 C 853.365 -0.996264 5.77469 0
M  V30 5176 N 853.415 -0.0501916 4.62973 0
M  V30 5177 H 850.576 0.374722 8.67691 0
M  V30 5178 H 850.306 0.443485 6.90277 0
M  V30 5179 H 851.173 -1.75537 7.96793 0
M  V30 5180 P 855.135 -2.75334 8.47391 0
M  V30 5181 O 855.355 -3.84128 9.44797 0
M  V30 5182 O 855.925 -1.51947 8.68712 0
M  V30 5183 O 855.385 -3.29363 6.99321 0
M  V30 5184 C 854.445 -4.24011 6.4274 0
M  V30 5185 C 855.175 -5.20775 5.52155 0
M  V30 5186 O 855.385 -4.56534 4.22446 0
M  V30 5187 C 856.575 -5.62629 5.96531 0
M  V30 5188 O 856.965 -6.87667 5.41053 0
M  V30 5189 C 857.455 -4.52537 5.39283 0
M  V30 5190 C 856.745 -4.20027 4.08623 0
M  V30 5191 N 856.795 -2.76189 3.71603 0
M  V30 5192 H 853.956 -4.797 7.24003 0
M  V30 5193 H 853.686 -3.69856 5.84513 0
M  V30 5194 H 854.553 -6.10356 5.41441 0
M  V30 5195 P 858.515 -7.20834 5.23717 0
M  V30 5196 O 858.735 -8.66104 5.38572 0
M  V30 5197 O 859.305 -6.33544 6.1349 0
M  V30 5198 O 858.765 -6.7751 3.72168 0
M  V30 5199 C 857.825 -7.20825 2.7076 0
M  V30 5200 C 858.555 -7.45864 1.40599 0
M  V30 5201 O 858.765 -6.17651 0.734225 0
M  V30 5202 C 859.955 -8.05808 1.51899 0
M  V30 5203 O 860.345 -8.74358 0.335205 0
M  V30 5204 C 860.835 -6.83093 1.70294 0
M  V30 5205 C 860.125 -5.79992 0.836974 0
M  V30 5206 N 860.175 -4.41864 1.38293 0
M  V30 5207 H 857.336 -8.13644 3.0377 0
M  V30 5208 H 857.066 -6.42788 2.55485 0
M  V30 5209 H 857.933 -8.12039 0.792769 0
M  V30 5210 P 861.895 -8.91 -6.24363e-12 0
M  V30 5211 O 862.115 -10.1726 -0.733694 0
M  V30 5212 O 862.685 -8.73148 1.23936 0
M  V30 5213 O 862.145 -7.66872 -0.971405 0
M  V30 5214 C 861.205 -7.42309 -2.04641 0
M  V30 5215 C 861.935 -6.86059 -3.24661 0
M  V30 5216 O 862.145 -5.42847 -3.03646 0
M  V30 5217 C 863.335 -7.41196 -3.50753 0
M  V30 5218 O 863.725 -7.27073 -4.86816 0
M  V30 5219 C 864.215 -6.5273 -2.63741 0
M  V30 5220 C 863.505 -5.1842 -2.73198 0
M  V30 5221 N 863.555 -4.38762 -1.4784 0
M  V30 5222 H 860.716 -8.36803 -2.32493 0
M  V30 5223 H 860.446 -6.70197 -1.71129 0
M  V30 5224 H 861.313 -7.03551 -4.13168 0
M  V30 5225 P 865.275 -7.20834 -5.23717 0
M  V30 5226 O 865.495 -7.79853 -6.57286 0
M  V30 5227 O 866.065 -7.79239 -4.12957 0
M  V30 5228 O 865.525 -5.63315 -5.29344 0
M  V30 5229 C 864.585 -4.80255 -6.01876 0
M  V30 5230 C 865.315 -3.64202 -6.65911 0
M  V30 5231 O 865.525 -2.60694 -5.64732 0
M  V30 5232 C 866.715 -3.93473 -7.1943 0
M  V30 5233 O 867.105 -3.02071 -8.21205 0
M  V30 5234 C 867.595 -3.73047 -5.97036 0
M  V30 5235 C 866.885 -2.58828 -5.25741 0
M  V30 5236 N 866.935 -2.68068 -3.77503 0
M  V30 5237 H 864.096 -5.40332 -6.79951 0
M  V30 5238 H 863.826 -4.41613 -5.32378 0
M  V30 5239 H 864.693 -3.26331 -7.47797 0
M  V30 5240 P 868.655 -2.75334 -8.47391 0
M  V30 5241 O 868.875 -2.44571 -9.90142 0
M  V30 5242 O 869.445 -3.87688 -7.92115 0
M  V30 5243 O 868.905 -1.4459 -7.59357 0
M  V30 5244 C 867.965 -0.347608 -7.69215 0
M  V30 5245 C 868.695 0.96767 -7.52806 0
M  V30 5246 O 868.905 1.21036 -6.1011 0
M  V30 5247 C 870.095 1.04544 -8.13308 0
M  V30 5248 O 870.485 2.38311 -8.41922 0
M  V30 5249 C 870.975 0.491279 -7.02284 0
M  V30 5250 C 870.265 0.996264 -5.77469 0
M  V30 5251 N 870.315 0.0501916 -4.62973 0
M  V30 5252 H 867.476 -0.374722 -8.67691 0
M  V30 5253 H 867.206 -0.443485 -6.90277 0
M  V30 5254 H 868.073 1.75537 -7.96793 0
M  V30 5255 P 872.035 2.75334 -8.47391 0
M  V30 5256 O 872.255 3.84128 -9.44797 0
M  V30 5257 O 872.825 1.51947 -8.68712 0
M  V30 5258 O 872.285 3.29363 -6.99321 0
M  V30 5259 C 871.345 4.24011 -6.4274 0
M  V30 5260 C 872.075 5.20775 -5.52155 0
M  V30 5261 O 872.285 4.56534 -4.22446 0
M  V30 5262 C 873.475 5.62629 -5.96531 0
M  V30 5263 O 873.865 6.87667 -5.41053 0
M  V30 5264 C 874.355 4.52537 -5.39283 0
M  V30 5265 C 873.645 4.20027 -4.08623 0
M  V30 5266 N 873.695 2.76189 -3.71603 0
M  V30 5267 C 873.615 1.64862 -4.52822 0
M  V30 5268 N 873.695 0.512671 -3.88633 0
M  V30 5269 C 873.835 0.888083 -2.54977 0
M  V30 5270 C 873.965 0.094668 -1.38677 0
M  V30 5271 N 874.085 0.890102 -0.232633 0
M  V30 5272 C 874.085 2.26958 -0.21772 0
M  V30 5273 N 874.215 2.84626 0.97925 0
M  V30 5274 N 873.955 3.0178 -1.31033 0
M  V30 5275 C 873.835 2.26781 -2.43843 0
M  V30 5276 H 870.856 4.797 -7.24003 0
M  V30 5277 H 870.586 3.69856 -5.84513 0
M  V30 5278 H 871.453 6.10356 -5.41441 0
M  V30 5279 P 875.415 7.20834 -5.23717 0
M  V30 5280 O 875.635 8.66104 -5.38572 0
M  V30 5281 O 876.205 6.33544 -6.1349 0
M  V30 5282 O 875.665 6.7751 -3.72168 0
M  V30 5283 C 874.725 7.20825 -2.7076 0
M  V30 5284 C 875.455 7.45864 -1.40599 0
M  V30 5285 O 875.665 6.17651 -0.734225 0
M  V30 5286 C 876.855 8.05808 -1.51899 0
M  V30 5287 O 877.245 8.74358 -0.335205 0
M  V30 5288 C 877.735 6.83093 -1.70294 0
M  V30 5289 C 877.025 5.79992 -0.836974 0
M  V30 5290 N 877.075 4.41864 -1.38293 0
M  V30 5291 H 874.236 8.13644 -3.0377 0
M  V30 5292 H 873.966 6.42788 -2.55485 0
M  V30 5293 H 874.833 8.12039 -0.792769 0
M  V30 5294 P 878.795 8.91 6.40081e-12 0
M  V30 5295 O 879.015 10.1726 0.733694 0
M  V30 5296 O 879.585 8.73148 -1.23936 0
M  V30 5297 O 879.045 7.66872 0.971405 0
M  V30 5298 C 878.105 7.42309 2.04641 0
M  V30 5299 C 878.835 6.86059 3.24661 0
M  V30 5300 O 879.045 5.42847 3.03646 0
M  V30 5301 C 880.235 7.41196 3.50753 0
M  V30 5302 O 880.625 7.27073 4.86816 0
M  V30 5303 C 881.115 6.5273 2.63741 0
M  V30 5304 C 880.405 5.1842 2.73198 0
M  V30 5305 N 880.455 4.38762 1.4784 0
M  V30 5306 C 880.375 4.81605 0.168631 0
M  V30 5307 N 880.455 3.85454 -0.713363 0
M  V30 5308 C 880.595 2.6994 0.0566958 0
M  V30 5309 C 880.725 1.34815 -0.338502 0
M  V30 5310 O 880.745 0.869548 -1.47125 0
M  V30 5311 N 880.845 0.496304 0.77465 0
M  V30 5312 C 880.845 0.908403 2.09122 0
M  V30 5313 N 880.975 -0.0517805 3.00955 0
M  V30 5314 N 880.715 2.17875 2.46519 0
M  V30 5315 C 880.595 3.01988 1.4033 0
M  V30 5316 H 877.616 8.36803 2.32493 0
M  V30 5317 H 877.346 6.70197 1.71129 0
M  V30 5318 H 878.213 7.03551 4.13168 0
M  V30 5319 H 880.868 4.59498 3.54415 0
M  V30 5320 H 881.147 6.88898 1.59848 0
M  V30 5321 H 882.139 6.46749 3.03687 0
M  V30 5322 H 880.305 8.46908 3.20714 0
M  V30 5323 H 880.256 5.86405 -0.105564 0
M  V30 5324 H 880.938 -0.483664 0.597855 0
M  V30 5325 H 880.975 0.187865 4.0116 0
M  V30 5326 H 881.076 -1.03585 2.71726 0
M  V30 5327 P 882.175 7.20834 5.23717 0
M  V30 5328 O 882.395 7.79853 6.57286 0
M  V30 5329 O 882.965 7.79239 4.12957 0
M  V30 5330 O 882.425 5.63315 5.29344 0
M  V30 5331 C 881.485 4.80255 6.01876 0
M  V30 5332 C 882.215 3.64202 6.65911 0
M  V30 5333 O 882.425 2.60694 5.64732 0
M  V30 5334 C 883.615 3.93473 7.1943 0
M  V30 5335 O 884.005 3.02071 8.21205 0
M  V30 5336 C 884.495 3.73047 5.97036 0
M  V30 5337 C 883.785 2.58828 5.25741 0
M  V30 5338 N 883.835 2.68068 3.77503 0
M  V30 5339 C 883.755 3.79715 2.96723 0
M  V30 5340 N 883.835 3.5377 1.68852 0
M  V30 5341 C 883.975 2.15054 1.63254 0
M  V30 5342 C 884.105 1.28964 0.518571 0
M  V30 5343 O 884.125 1.56826 -0.679156 0
M  V30 5344 N 884.225 -0.0538097 0.918425 0
M  V30 5345 C 884.225 -0.494275 2.22578 0
M  V30 5346 N 884.355 -1.81086 2.40434 0
M  V30 5347 N 884.095 0.313645 3.27502 0
M  V30 5348 C 883.975 1.61829 2.91033 0
M  V30 5349 H 880.996 5.40332 6.79951 0
M  V30 5350 H 880.726 4.41613 5.32378 0
M  V30 5351 H 881.593 3.26331 7.47797 0
M  V30 5352 H 884.248 1.63422 5.56814 0
M  V30 5353 H 884.527 4.63374 5.34244 0
M  V30 5354 H 885.519 3.44728 6.25838 0
M  V30 5355 H 883.685 4.96652 7.57263 0
M  V30 5356 H 883.636 4.80617 3.3614 0
M  V30 5357 H 884.318 -0.742702 0.199384 0
M  V30 5358 H 884.355 -2.20598 3.35588 0
M  V30 5359 H 884.456 -2.43518 1.58945 0
M  V30 5360 P 885.555 2.75334 8.47391 0
M  V30 5361 O 885.775 2.44571 9.90142 0
M  V30 5362 O 886.345 3.87688 7.92115 0
M  V30 5363 O 885.805 1.4459 7.59357 0
M  V30 5364 C 884.865 0.347608 7.69215 0
M  V30 5365 C 885.595 -0.96767 7.52806 0
M  V30 5366 O 885.805 -1.21036 6.1011 0
M  V30 5367 C 886.995 -1.04544 8.13308 0
M  V30 5368 O 887.385 -2.38311 8.41922 0
M  V30 5369 C 887.875 -0.491279 7.02284 0
M  V30 5370 C 887.165 -0.996264 5.77469 0
M  V30 5371 N 887.215 -0.0501916 4.62973 0
M  V30 5372 C 887.135 1.32786 4.63244 0
M  V30 5373 N 887.215 1.86957 3.44545 0
M  V30 5374 C 887.355 0.780241 2.58481 0
M  V30 5375 C 887.485 0.738536 1.17757 0
M  V30 5376 O 887.505 1.66794 0.372349 0
M  V30 5377 N 887.605 -0.58337 0.711393 0
M  V30 5378 C 887.605 -1.70816 1.51017 0
M  V30 5379 N 887.735 -2.87826 0.880757 0
M  V30 5380 N 887.475 -1.67126 2.8339 0
M  V30 5381 C 887.355 -0.401421 3.30572 0
M  V30 5382 H 884.376 0.374722 8.67691 0
M  V30 5383 H 884.106 0.443485 6.90277 0
M  V30 5384 H 884.973 -1.75537 7.96793 0
M  V30 5385 H 887.628 -1.95076 5.46529 0
M  V30 5386 H 887.907 0.608565 7.04577 0
M  V30 5387 H 888.899 -0.889672 7.08939 0
M  V30 5388 H 887.065 -0.43308 9.04564 0
M  V30 5389 H 887.016 1.91249 5.54442 0
M  V30 5390 H 887.698 -0.718054 -0.275244 0
M  V30 5391 H 887.735 -3.75721 1.41832 0
M  V30 5392 H 887.836 -2.90436 -0.145468 0
M  V30 5393 P 888.935 -2.75334 8.47391 0
M  V30 5394 O 889.155 -3.84128 9.44797 0
M  V30 5395 O 889.725 -1.51947 8.68712 0
M  V30 5396 O 889.185 -3.29363 6.99321 0
M  V30 5397 C 888.245 -4.24011 6.4274 0
M  V30 5398 C 888.975 -5.20775 5.52155 0
M  V30 5399 O 889.185 -4.56534 4.22446 0
M  V30 5400 C 890.375 -5.62629 5.96531 0
M  V30 5401 O 890.765 -6.87667 5.41053 0
M  V30 5402 C 891.255 -4.52537 5.39283 0
M  V30 5403 C 890.545 -4.20027 4.08623 0
M  V30 5404 N 890.595 -2.76189 3.71603 0
M  V30 5405 H 887.756 -4.797 7.24003 0
M  V30 5406 H 887.486 -3.69856 5.84513 0
M  V30 5407 H 888.353 -6.10356 5.41441 0
M  V30 5408 P 892.315 -7.20834 5.23717 0
M  V30 5409 O 892.535 -8.66104 5.38572 0
M  V30 5410 O 893.105 -6.33544 6.1349 0
M  V30 5411 O 892.565 -6.7751 3.72168 0
M  V30 5412 C 891.625 -7.20825 2.7076 0
M  V30 5413 C 892.355 -7.45864 1.40599 0
M  V30 5414 O 892.565 -6.17651 0.734225 0
M  V30 5415 C 893.755 -8.05808 1.51899 0
M  V30 5416 O 894.145 -8.74358 0.335205 0
M  V30 5417 C 894.635 -6.83093 1.70294 0
M  V30 5418 C 893.925 -5.79992 0.836974 0
M  V30 5419 N 893.975 -4.41864 1.38293 0
M  V30 5420 H 891.136 -8.13644 3.0377 0
M  V30 5421 H 890.866 -6.42788 2.55485 0
M  V30 5422 H 891.733 -8.12039 0.792769 0
M  V30 5423 P 895.695 -8.91 -6.558e-12 0
M  V30 5424 O 895.915 -10.1726 -0.733694 0
M  V30 5425 O 896.485 -8.73148 1.23936 0
M  V30 5426 O 895.945 -7.66872 -0.971405 0
M  V30 5427 C 895.005 -7.42309 -2.04641 0
M  V30 5428 C 895.735 -6.86059 -3.24661 0
M  V30 5429 O 895.945 -5.42847 -3.03646 0
M  V30 5430 C 897.135 -7.41196 -3.50753 0
M  V30 5431 O 897.525 -7.27073 -4.86816 0
M  V30 5432 C 898.015 -6.5273 -2.63741 0
M  V30 5433 C 897.305 -5.1842 -2.73198 0
M  V30 5434 N 897.355 -4.38762 -1.4784 0
M  V30 5435 C 897.275 -4.81605 -0.168631 0
M  V30 5436 N 897.355 -3.85454 0.713363 0
M  V30 5437 C 897.495 -2.6994 -0.0566958 0
M  V30 5438 C 897.625 -1.34815 0.338502 0
M  V30 5439 O 897.645 -0.869548 1.47125 0
M  V30 5440 N 897.745 -0.496304 -0.77465 0
M  V30 5441 C 897.745 -0.908403 -2.09122 0
M  V30 5442 N 897.875 0.0517805 -3.00955 0
M  V30 5443 N 897.615 -2.17875 -2.46519 0
M  V30 5444 C 897.495 -3.01988 -1.4033 0
M  V30 5445 H 894.516 -8.36803 -2.32493 0
M  V30 5446 H 894.246 -6.70197 -1.71129 0
M  V30 5447 H 895.113 -7.03551 -4.13168 0
M  V30 5448 H 897.768 -4.59498 -3.54415 0
M  V30 5449 H 898.047 -6.88898 -1.59848 0
M  V30 5450 H 899.039 -6.46749 -3.03687 0
M  V30 5451 H 897.205 -8.46908 -3.20714 0
M  V30 5452 H 897.156 -5.86405 0.105564 0
M  V30 5453 H 897.838 0.483664 -0.597855 0
M  V30 5454 H 897.875 -0.187865 -4.0116 0
M  V30 5455 H 897.976 1.03585 -2.71726 0
M  V30 5456 P 899.075 -7.20834 -5.23717 0
M  V30 5457 O 899.295 -7.79853 -6.57286 0
M  V30 5458 O 899.865 -7.79239 -4.12957 0
M  V30 5459 O 899.325 -5.63315 -5.29344 0
M  V30 5460 C 898.385 -4.80255 -6.01876 0
M  V30 5461 C 899.115 -3.64202 -6.65911 0
M  V30 5462 O 899.325 -2.60694 -5.64732 0
M  V30 5463 C 900.515 -3.93473 -7.1943 0
M  V30 5464 O 900.905 -3.02071 -8.21205 0
M  V30 5465 C 901.395 -3.73047 -5.97036 0
M  V30 5466 C 900.685 -2.58828 -5.25741 0
M  V30 5467 N 900.735 -2.68068 -3.77503 0
M  V30 5468 H 897.896 -5.40332 -6.79951 0
M  V30 5469 H 897.626 -4.41613 -5.32378 0
M  V30 5470 H 898.493 -3.26331 -7.47797 0
M  V30 5471 P 902.455 -2.75334 -8.47391 0
M  V30 5472 O 902.675 -2.44619 -9.90336 0
M  V30 5473 O 903.245 -3.87776 -7.92294 0
M  V30 5474 O 902.705 -1.4459 -7.59357 0
M  V30 5475 C 901.765 -0.347653 -7.69315 0
M  V30 5476 C 902.495 0.96767 -7.52806 0
M  V30 5477 O 902.705 1.21055 -6.10208 0
M  V30 5478 C 903.895 1.04557 -8.13408 0
M  V30 5479 O 904.285 2.38311 -8.41922 0
M  V30 5480 C 904.775 0.491279 -7.02284 0
M  V30 5481 C 904.065 0.996264 -5.77469 0
M  V30 5482 N 904.115 0.0501916 -4.62973 0
M  V30 5483 C 904.035 -1.31969 -4.65661 0
M  V30 5484 N 904.105 -1.86649 -3.48119 0
M  V30 5485 C 904.255 -0.792089 -2.62406 0
M  V30 5486 C 904.385 -0.705684 -1.2207 0
M  V30 5487 N 904.395 -1.76207 -0.413762 0
M  V30 5488 N 904.505 0.518981 -0.685754 0
M  V30 5489 C 904.495 1.57595 -1.49174 0
M  V30 5490 N 904.375 1.62909 -2.80066 0
M  V30 5491 C 904.255 0.388195 -3.3073 0
M  V30 5492 H 901.277 -0.374765 -8.67791 0
M  V30 5493 H 901.005 -0.443613 -6.90476 0
M  V30 5494 H 901.873 1.75559 -7.96891 0
M  V30 5495 H 904.528 1.94563 -5.46818 0
M  V30 5496 H 904.808 -0.608651 -7.04676 0
M  V30 5497 H 905.799 0.889796 -7.09039 0
M  V30 5498 H 903.965 0.433128 -9.04664 0
M  V30 5499 H 903.924 -1.89246 -5.57664 0
M  V30 5500 H 904.305 -2.71005 -0.804694 0
M  V30 5501 H 904.494 -1.63189 0.603768 0
M  V30 5502 H 904.602 2.53475 -0.997614 0
M  V30 5503 P 905.835 2.75334 -8.47391 0
M  V30 5504 O 906.055 3.84166 -9.4489 0
M  V30 5505 O 906.625 1.51964 -8.6881 0
M  V30 5506 O 906.085 3.29363 -6.99321 0
M  V30 5507 C 905.145 4.23956 -6.42656 0
M  V30 5508 C 905.875 5.20775 -5.52155 0
M  V30 5509 O 906.085 4.56534 -4.22446 0
M  V30 5510 C 907.275 5.62629 -5.96531 0
M  V30 5511 O 907.665 6.87667 -5.41053 0
M  V30 5512 C 908.155 4.52537 -5.39283 0
M  V30 5513 C 907.445 4.20027 -4.08623 0
M  V30 5514 N 907.495 2.7613 -3.71522 0
M  V30 5515 C 907.645 2.45612 -2.37989 0
M  V30 5516 O 907.735 3.30919 -1.51621 0
M  V30 5517 N 907.685 1.10684 -2.08435 0
M  V30 5518 C 907.595 0.0690084 -2.9792 0
M  V30 5519 O 907.645 -1.10553 -2.59426 0
M  V30 5520 C 907.445 0.481522 -4.35345 0
M  V30 5521 C 907.335 -0.618778 -5.36443 0
M  V30 5522 C 907.395 1.78906 -4.67968 0
M  V30 5523 H 904.655 4.797 -7.24003 0
M  V30 5524 H 904.386 3.69802 -5.84429 0
M  V30 5525 H 905.253 6.10356 -5.41441 0
M  V30 5526 H 907.908 4.78651 -3.27911 0
M  V30 5527 H 908.187 3.64957 -6.05871 0
M  V30 5528 H 909.179 4.8868 -5.2125 0
M  V30 5529 H 907.345 5.66726 -7.06352 0
M  V30 5530 H 907.274 2.07737 -5.72367 0
M  V30 5531 H 908.304 -0.754375 -5.86871 0
M  V30 5532 H 906.567 -0.359721 -6.10641 0
M  V30 5533 H 907.055 -1.55533 -4.8581 0
M  V30 5534 H 907.791 0.862651 -1.12037 0
M  V30 5535 P 909.215 7.20834 -5.23717 0
M  V30 5536 O 909.435 8.66104 -5.38572 0
M  V30 5537 O 910.005 6.33544 -6.1349 0
M  V30 5538 O 909.465 6.7751 -3.72168 0
M  V30 5539 C 908.525 7.20825 -2.7076 0
M  V30 5540 C 909.255 7.45864 -1.40599 0
M  V30 5541 O 909.465 6.17651 -0.734225 0
M  V30 5542 C 910.655 8.05808 -1.51899 0
M  V30 5543 O 911.045 8.74358 -0.335205 0
M  V30 5544 C 911.535 6.83093 -1.70294 0
M  V30 5545 C 910.825 5.79992 -0.836974 0
M  V30 5546 N 910.875 4.41864 -1.38293 0
M  V30 5547 H 908.036 8.13644 -3.0377 0
M  V30 5548 H 907.766 6.42788 -2.55485 0
M  V30 5549 H 908.633 8.12039 -0.792769 0
M  V30 5550 P 912.595 8.91 6.71518e-12 0
M  V30 5551 O 912.815 10.1746 0.733838 0
M  V30 5552 O 913.385 8.73346 -1.23964 0
M  V30 5553 O 912.845 7.66872 0.971405 0
M  V30 5554 C 911.905 7.42405 2.04668 0
M  V30 5555 C 912.635 6.86059 3.24661 0
M  V30 5556 O 912.845 5.42934 3.03695 0
M  V30 5557 C 914.035 7.41287 3.50796 0
M  V30 5558 O 914.425 7.27073 4.86816 0
M  V30 5559 C 914.915 6.5273 2.63741 0
M  V30 5560 C 914.205 5.1842 2.73198 0
M  V30 5561 N 914.255 4.38762 1.4784 0
M  V30 5562 C 914.175 4.83651 0.183876 0
M  V30 5563 N 914.245 3.88759 -0.699393 0
M  V30 5564 C 914.395 2.7404 0.0575568 0
M  V30 5565 C 914.525 1.37902 -0.293928 0
M  V30 5566 N 914.535 0.938021 -1.54797 0
M  V30 5567 N 914.645 0.491817 0.70549 0
M  V30 5568 C 914.635 0.931735 1.95979 0
M  V30 5569 N 914.515 2.16017 2.41481 0
M  V30 5570 C 914.395 3.02547 1.39121 0
M  V30 5571 H 911.417 8.36899 2.3252 0
M  V30 5572 H 911.145 6.70391 1.71179 0
M  V30 5573 H 912.013 7.03638 4.13219 0
M  V30 5574 H 914.668 4.59931 3.54016 0
M  V30 5575 H 914.948 6.88995 1.59871 0
M  V30 5576 H 915.939 6.4684 3.0373 0
M  V30 5577 H 914.105 8.47002 3.20749 0
M  V30 5578 H 914.064 5.8885 -0.0765548 0
M  V30 5579 H 914.445 1.60276 -2.32875 0
M  V30 5580 H 914.634 -0.0699355 -1.73859 0
M  V30 5581 H 914.742 0.165507 2.71897 0
M  V30 5582 P 915.975 7.20834 5.23717 0
M  V30 5583 O 916.195 7.7993 6.57351 0
M  V30 5584 O 916.765 7.79328 4.13004 0
M  V30 5585 O 916.225 5.63315 5.29344 0
M  V30 5586 C 915.285 4.80193 6.01798 0
M  V30 5587 C 916.015 3.64202 6.65911 0
M  V30 5588 O 916.225 2.60694 5.64732 0
M  V30 5589 C 917.415 3.93473 7.1943 0
M  V30 5590 O 917.805 3.02071 8.21205 0
M  V30 5591 C 918.295 3.73047 5.97036 0
M  V30 5592 C 917.585 2.58828 5.25741 0
M  V30 5593 N 917.635 2.6801 3.77422 0
M  V30 5594 C 917.785 1.50443 3.07133 0
M  V30 5595 O 917.875 0.419406 3.61576 0
M  V30 5596 N 917.825 1.6403 1.69677 0
M  V30 5597 C 917.735 2.81206 0.986255 0
M  V30 5598 O 917.785 2.80892 -0.249754 0
M  V30 5599 C 917.585 3.99158 1.80325 0
M  V30 5600 C 917.475 5.29309 1.06921 0
M  V30 5601 C 917.535 3.89779 3.1476 0
M  V30 5602 H 914.795 5.40332 6.79951 0
M  V30 5603 H 914.526 4.41549 5.32301 0
M  V30 5604 H 915.393 3.26331 7.47797 0
M  V30 5605 H 918.048 1.6395 5.56554 0
M  V30 5606 H 918.327 4.63439 5.3432 0
M  V30 5607 H 919.319 3.44728 6.25838 0
M  V30 5608 H 917.485 4.96652 7.57263 0
M  V30 5609 H 917.414 4.80159 3.74441 0
M  V30 5610 H 918.444 5.81459 1.09608 0
M  V30 5611 H 916.707 5.9187 1.54487 0
M  V30 5612 H 917.195 5.10095 0.0220288 0
M  V30 5613 H 917.931 0.798962 1.16664 0
M  V30 5614 P 919.355 2.75334 8.47391 0
M  V30 5615 O 919.575 2.44619 9.90336 0
M  V30 5616 O 920.145 3.87776 7.92294 0
M  V30 5617 O 919.605 1.4459 7.59357 0
M  V30 5618 C 918.665 0.347653 7.69315 0
M  V30 5619 C 919.395 -0.96767 7.52806 0
M  V30 5620 O 919.605 -1.21055 6.10208 0
M  V30 5621 C 920.795 -1.04557 8.13408 0
M  V30 5622 O 921.185 -2.38311 8.41922 0
M  V30 5623 C 921.675 -0.491279 7.02284 0
M  V30 5624 C 920.965 -0.996264 5.77469 0
M  V30 5625 N 921.015 -0.0501916 4.62973 0
M  V30 5626 C 920.935 1.31969 4.65661 0
M  V30 5627 N 921.005 1.86649 3.48119 0
M  V30 5628 C 921.155 0.792089 2.62406 0
M  V30 5629 C 921.285 0.705684 1.2207 0
M  V30 5630 N 921.295 1.76207 0.413762 0
M  V30 5631 N 921.405 -0.518981 0.685754 0
M  V30 5632 C 921.395 -1.57595 1.49174 0
M  V30 5633 N 921.275 -1.62909 2.80066 0
M  V30 5634 C 921.155 -0.388195 3.3073 0
M  V30 5635 H 918.177 0.374765 8.67791 0
M  V30 5636 H 917.905 0.443613 6.90476 0
M  V30 5637 H 918.773 -1.75559 7.96891 0
M  V30 5638 H 921.428 -1.94563 5.46818 0
M  V30 5639 H 921.708 0.608651 7.04676 0
M  V30 5640 H 922.699 -0.889796 7.09039 0
M  V30 5641 H 920.865 -0.433128 9.04664 0
M  V30 5642 H 920.824 1.89246 5.57664 0
M  V30 5643 H 921.205 2.71005 0.804694 0
M  V30 5644 H 921.394 1.63189 -0.603768 0
M  V30 5645 H 921.502 -2.53475 0.997614 0
M  V30 5646 P 922.735 -2.75334 8.47391 0
M  V30 5647 O 922.955 -3.84128 9.44797 0
M  V30 5648 O 923.525 -1.51947 8.68712 0
M  V30 5649 O 922.985 -3.29363 6.99321 0
M  V30 5650 C 922.045 -4.24011 6.4274 0
M  V30 5651 C 922.775 -5.20775 5.52155 0
M  V30 5652 O 922.985 -4.56534 4.22446 0
M  V30 5653 C 924.175 -5.62629 5.96531 0
M  V30 5654 O 924.565 -6.87667 5.41053 0
M  V30 5655 C 925.055 -4.52537 5.39283 0
M  V30 5656 C 924.345 -4.20027 4.08623 0
M  V30 5657 N 924.395 -2.76189 3.71603 0
M  V30 5658 H 921.556 -4.797 7.24003 0
M  V30 5659 H 921.286 -3.69856 5.84513 0
M  V30 5660 H 922.153 -6.10356 5.41441 0
M  V30 5661 P 926.115 -7.20834 5.23717 0
M  V30 5662 O 926.335 -8.66104 5.38572 0
M  V30 5663 O 926.905 -6.33544 6.1349 0
M  V30 5664 O 926.365 -6.7751 3.72168 0
M  V30 5665 C 925.425 -7.20825 2.7076 0
M  V30 5666 C 926.155 -7.45864 1.40599 0
M  V30 5667 O 926.365 -6.17651 0.734225 0
M  V30 5668 C 927.555 -8.05808 1.51899 0
M  V30 5669 O 927.945 -8.74358 0.335205 0
M  V30 5670 C 928.435 -6.83093 1.70294 0
M  V30 5671 C 927.725 -5.79992 0.836974 0
M  V30 5672 N 927.775 -4.41864 1.38293 0
M  V30 5673 H 924.936 -8.13644 3.0377 0
M  V30 5674 H 924.666 -6.42788 2.55485 0
M  V30 5675 H 925.533 -8.12039 0.792769 0
M  V30 5676 P 929.495 -8.91 -6.87236e-12 0
M  V30 5677 O 929.715 -10.1726 -0.733694 0
M  V30 5678 O 930.285 -8.73148 1.23936 0
M  V30 5679 O 929.745 -7.66872 -0.971405 0
M  V30 5680 C 928.805 -7.42309 -2.04641 0
M  V30 5681 C 929.535 -6.86059 -3.24661 0
M  V30 5682 O 929.745 -5.42847 -3.03646 0
M  V30 5683 C 930.935 -7.41196 -3.50753 0
M  V30 5684 O 931.325 -7.27073 -4.86816 0
M  V30 5685 C 931.815 -6.5273 -2.63741 0
M  V30 5686 C 931.105 -5.1842 -2.73198 0
M  V30 5687 N 931.155 -4.38762 -1.4784 0
M  V30 5688 H 928.316 -8.36803 -2.32493 0
M  V30 5689 H 928.046 -6.70197 -1.71129 0
M  V30 5690 H 928.913 -7.03551 -4.13168 0
M  V30 5691 P 932.874 -7.20834 -5.23717 0
M  V30 5692 O 933.094 -7.79853 -6.57286 0
M  V30 5693 O 933.664 -7.79239 -4.12957 0
M  V30 5694 O 933.124 -5.63315 -5.29344 0
M  V30 5695 C 932.184 -4.80255 -6.01876 0
M  V30 5696 C 932.914 -3.64202 -6.65911 0
M  V30 5697 O 933.124 -2.60694 -5.64732 0
M  V30 5698 C 934.314 -3.93473 -7.1943 0
M  V30 5699 O 934.704 -3.02071 -8.21205 0
M  V30 5700 C 935.194 -3.73047 -5.97036 0
M  V30 5701 C 934.484 -2.58828 -5.25741 0
M  V30 5702 N 934.534 -2.68068 -3.77503 0
M  V30 5703 H 931.695 -5.40332 -6.79951 0
M  V30 5704 H 931.425 -4.41613 -5.32378 0
M  V30 5705 H 932.292 -3.26331 -7.47797 0
M  V30 5706 P 936.254 -2.75334 -8.47391 0
M  V30 5707 O 936.474 -2.44571 -9.90142 0
M  V30 5708 O 937.044 -3.87688 -7.92115 0
M  V30 5709 O 936.504 -1.4459 -7.59357 0
M  V30 5710 C 935.564 -0.347608 -7.69215 0
M  V30 5711 C 936.294 0.96767 -7.52806 0
M  V30 5712 O 936.504 1.21036 -6.1011 0
M  V30 5713 C 937.694 1.04544 -8.13308 0
M  V30 5714 O 938.084 2.38311 -8.41922 0
M  V30 5715 C 938.574 0.491279 -7.02284 0
M  V30 5716 C 937.864 0.996264 -5.77469 0
M  V30 5717 N 937.914 0.0501916 -4.62973 0
M  V30 5718 H 935.075 -0.374722 -8.67691 0
M  V30 5719 H 934.805 -0.443485 -6.90277 0
M  V30 5720 H 935.672 1.75537 -7.96793 0
M  V30 5721 P 939.634 2.75334 -8.47391 0
M  V30 5722 O 939.854 3.84128 -9.44797 0
M  V30 5723 O 940.424 1.51947 -8.68712 0
M  V30 5724 O 939.884 3.29363 -6.99321 0
M  V30 5725 C 938.944 4.24011 -6.4274 0
M  V30 5726 C 939.674 5.20775 -5.52155 0
M  V30 5727 O 939.884 4.56534 -4.22446 0
M  V30 5728 C 941.074 5.62629 -5.96531 0
M  V30 5729 O 941.464 6.87667 -5.41053 0
M  V30 5730 C 941.954 4.52537 -5.39283 0
M  V30 5731 C 941.244 4.20027 -4.08623 0
M  V30 5732 N 941.294 2.76189 -3.71603 0
M  V30 5733 C 941.214 1.64862 -4.52822 0
M  V30 5734 N 941.294 0.512671 -3.88633 0
M  V30 5735 C 941.434 0.888083 -2.54977 0
M  V30 5736 C 941.564 0.094668 -1.38677 0
M  V30 5737 O 941.584 -1.13053 -1.28163 0
M  V30 5738 N 941.684 0.890102 -0.232633 0
M  V30 5739 C 941.684 2.26958 -0.21772 0
M  V30 5740 N 941.814 2.84626 0.97925 0
M  V30 5741 N 941.554 3.0178 -1.31033 0
M  V30 5742 C 941.434 2.26781 -2.43843 0
M  V30 5743 H 938.455 4.797 -7.24003 0
M  V30 5744 H 938.185 3.69856 -5.84513 0
M  V30 5745 H 939.052 6.10356 -5.41441 0
M  V30 5746 H 941.707 4.79061 -3.27488 0
M  V30 5747 H 941.986 3.64906 -6.05785 0
M  V30 5748 H 942.978 4.8868 -5.2125 0
M  V30 5749 H 941.144 5.66726 -7.06352 0
M  V30 5750 H 941.095 1.71169 -5.60966 0
M  V30 5751 H 941.777 0.419134 0.644739 0
M  V30 5752 H 941.814 3.87332 1.06098 0
M  V30 5753 H 941.915 2.26417 1.82483 0
M  V30 5754 P 943.014 7.20834 -5.23717 0
M  V30 5755 O 943.234 8.66189 -5.38625 0
M  V30 5756 O 943.804 6.33615 -6.1356 0
M  V30 5757 O 943.264 6.7751 -3.72168 0
M  V30 5758 C 942.324 7.20732 -2.70725 0
M  V30 5759 C 943.054 7.45864 -1.40599 0
M  V30 5760 O 943.264 6.17651 -0.734225 0
M  V30 5761 C 944.454 8.05808 -1.51899 0
M  V30 5762 O 944.844 8.74358 -0.335205 0
M  V30 5763 C 945.334 6.83093 -1.70294 0
M  V30 5764 C 944.624 5.79992 -0.836974 0
M  V30 5765 N 944.674 4.41769 -1.38263 0
M  V30 5766 C 944.824 3.38591 -0.481702 0
M  V30 5767 O 944.914 3.56839 0.718452 0
M  V30 5768 N 944.864 2.1206 -1.03569 0
M  V30 5769 C 944.774 1.80696 -2.36966 0
M  V30 5770 O 944.824 0.630473 -2.74862 0
M  V30 5771 C 944.624 2.94845 -3.23898 0
M  V30 5772 C 944.514 2.65253 -4.70362 0
M  V30 5773 C 944.574 4.19803 -2.73435 0
M  V30 5774 H 941.834 8.13644 -3.0377 0
M  V30 5775 H 941.565 6.42695 -2.55448 0
M  V30 5776 H 942.432 8.12039 -0.792769 0
M  V30 5777 H 945.087 5.79978 0.160587 0
M  V30 5778 H 945.366 6.51379 -2.75643 0
M  V30 5779 H 946.358 7.01734 -1.34462 0
M  V30 5780 H 944.524 8.73674 -2.38337 0
M  V30 5781 H 944.453 5.04492 -3.4095 0
M  V30 5782 H 945.483 2.83924 -5.1913 0
M  V30 5783 H 943.746 3.29824 -5.15163 0
M  V30 5784 H 944.234 1.59723 -4.84449 0
M  V30 5785 H 944.97 1.35644 -0.399345 0
M  V30 5786 P 946.394 8.91 7.02954e-12 0
M  V30 5787 O 946.614 10.1726 0.733694 0
M  V30 5788 O 947.184 8.73148 -1.23936 0
M  V30 5789 O 946.644 7.66872 0.971405 0
M  V30 5790 C 945.704 7.42309 2.04641 0
M  V30 5791 C 946.434 6.86059 3.24661 0
M  V30 5792 O 946.644 5.42847 3.03646 0
M  V30 5793 C 947.834 7.41196 3.50753 0
M  V30 5794 O 948.224 7.27073 4.86816 0
M  V30 5795 C 948.714 6.5273 2.63741 0
M  V30 5796 C 948.004 5.1842 2.73198 0
M  V30 5797 N 948.054 4.38762 1.4784 0
M  V30 5798 H 945.215 8.36803 2.32493 0
M  V30 5799 H 944.945 6.70197 1.71129 0
M  V30 5800 H 945.812 7.03551 4.13168 0
M  V30 5801 P 949.774 7.20834 5.23717 0
M  V30 5802 O 949.994 7.79853 6.57286 0
M  V30 5803 O 950.564 7.79239 4.12957 0
M  V30 5804 O 950.024 5.63315 5.29344 0
M  V30 5805 C 949.084 4.80255 6.01876 0
M  V30 5806 C 949.814 3.64202 6.65911 0
M  V30 5807 O 950.024 2.60694 5.64732 0
M  V30 5808 C 951.214 3.93473 7.1943 0
M  V30 5809 O 951.604 3.02071 8.21205 0
M  V30 5810 C 952.094 3.73047 5.97036 0
M  V30 5811 C 951.384 2.58828 5.25741 0
M  V30 5812 N 951.434 2.68068 3.77503 0
M  V30 5813 H 948.595 5.40332 6.79951 0
M  V30 5814 H 948.325 4.41613 5.32378 0
M  V30 5815 H 949.192 3.26331 7.47797 0
M  V30 5816 P 953.154 2.75334 8.47391 0
M  V30 5817 O 953.374 2.44571 9.90142 0
M  V30 5818 O 953.944 3.87688 7.92115 0
M  V30 5819 O 953.404 1.4459 7.59357 0
M  V30 5820 C 952.464 0.347608 7.69215 0
M  V30 5821 C 953.194 -0.96767 7.52806 0
M  V30 5822 O 953.404 -1.21036 6.1011 0
M  V30 5823 C 954.594 -1.04544 8.13308 0
M  V30 5824 O 954.984 -2.38311 8.41922 0
M  V30 5825 C 955.474 -0.491279 7.02284 0
M  V30 5826 C 954.764 -0.996264 5.77469 0
M  V30 5827 N 954.814 -0.0501916 4.62973 0
M  V30 5828 H 951.975 0.374722 8.67691 0
M  V30 5829 H 951.705 0.443485 6.90277 0
M  V30 5830 H 952.572 -1.75537 7.96793 0
M  V30 5831 P 956.534 -2.75334 8.47391 0
M  V30 5832 O 956.754 -3.84128 9.44797 0
M  V30 5833 O 957.324 -1.51947 8.68712 0
M  V30 5834 O 956.784 -3.29363 6.99321 0
M  V30 5835 C 955.844 -4.24011 6.4274 0
M  V30 5836 C 956.574 -5.20775 5.52155 0
M  V30 5837 O 956.784 -4.56534 4.22446 0
M  V30 5838 C 957.974 -5.62629 5.96531 0
M  V30 5839 O 958.364 -6.87667 5.41053 0
M  V30 5840 C 958.854 -4.52537 5.39283 0
M  V30 5841 C 958.144 -4.20027 4.08623 0
M  V30 5842 N 958.194 -2.76189 3.71603 0
M  V30 5843 H 955.355 -4.797 7.24003 0
M  V30 5844 H 955.085 -3.69856 5.84513 0
M  V30 5845 H 955.952 -6.10356 5.41441 0
M  V30 5846 P 959.914 -7.20834 5.23717 0
M  V30 5847 O 960.134 -8.66274 5.38678 0
M  V30 5848 O 960.704 -6.33687 6.13629 0
M  V30 5849 O 960.164 -6.7751 3.72168 0
M  V30 5850 C 959.224 -7.20919 2.70795 0
M  V30 5851 C 959.954 -7.45864 1.40599 0
M  V30 5852 O 960.164 -6.17751 0.734343 0
M  V30 5853 C 961.354 -8.05906 1.51917 0
M  V30 5854 O 961.744 -8.74358 0.335205 0
M  V30 5855 C 962.234 -6.83093 1.70294 0
M  V30 5856 C 961.524 -5.79992 0.836974 0
M  V30 5857 N 961.574 -4.41864 1.38293 0
M  V30 5858 H 958.736 -8.13738 3.03804 0
M  V30 5859 H 958.464 -6.42974 2.55559 0
M  V30 5860 H 959.332 -8.12139 0.792866 0
M  V30 5861 H 961.987 -5.80178 -0.160643 0
M  V30 5862 H 962.267 -6.51379 2.75643 0
M  V30 5863 H 963.258 -7.01832 1.3448 0
M  V30 5864 H 961.424 -8.73771 2.38364 0
M  V30 5865 P 963.294 -8.91 -7.18673e-12 0
M  V30 5866 O 963.514 -10.1726 -0.733694 0
M  V30 5867 O 964.084 -8.73148 1.23936 0
M  V30 5868 O 963.544 -7.66872 -0.971405 0
M  V30 5869 C 962.604 -7.42309 -2.04641 0
M  V30 5870 C 963.334 -6.86059 -3.24661 0
M  V30 5871 O 963.544 -5.42847 -3.03646 0
M  V30 5872 C 964.734 -7.41196 -3.50753 0
M  V30 5873 O 965.124 -7.27073 -4.86816 0
M  V30 5874 C 965.614 -6.5273 -2.63741 0
M  V30 5875 C 964.904 -5.1842 -2.73198 0
M  V30 5876 N 964.954 -4.38762 -1.4784 0
M  V30 5877 H 962.115 -8.36803 -2.32493 0
M  V30 5878 H 961.845 -6.70197 -1.71129 0
M  V30 5879 H 962.712 -7.03551 -4.13168 0
M  V30 5880 P 966.674 -7.20834 -5.23717 0
M  V30 5881 O 966.894 -7.79853 -6.57286 0
M  V30 5882 O 967.464 -7.79239 -4.12957 0
M  V30 5883 O 966.924 -5.63315 -5.29344 0
M  V30 5884 C 965.984 -4.80255 -6.01876 0
M  V30 5885 C 966.714 -3.64202 -6.65911 0
M  V30 5886 O 966.924 -2.60694 -5.64732 0
M  V30 5887 C 968.114 -3.93473 -7.1943 0
M  V30 5888 O 968.504 -3.02071 -8.21205 0
M  V30 5889 C 968.994 -3.73047 -5.97036 0
M  V30 5890 C 968.284 -2.58828 -5.25741 0
M  V30 5891 N 968.334 -2.68068 -3.77503 0
M  V30 5892 H 965.495 -5.40332 -6.79951 0
M  V30 5893 H 965.225 -4.41613 -5.32378 0
M  V30 5894 H 966.092 -3.26331 -7.47797 0
M  V30 5895 P 970.054 -2.75334 -8.47391 0
M  V30 5896 O 970.274 -2.44595 -9.90239 0
M  V30 5897 O 970.844 -3.87732 -7.92204 0
M  V30 5898 O 970.304 -1.4459 -7.59357 0
M  V30 5899 C 969.364 -0.347563 -7.69115 0
M  V30 5900 C 970.094 0.96767 -7.52806 0
M  V30 5901 O 970.304 1.21036 -6.1011 0
M  V30 5902 C 971.494 1.04544 -8.13308 0
M  V30 5903 O 971.884 2.38311 -8.41922 0
M  V30 5904 C 972.374 0.491279 -7.02284 0
M  V30 5905 C 971.664 0.996264 -5.77469 0
M  V30 5906 N 971.714 0.0501808 -4.62873 0
M  V30 5907 C 971.864 0.588177 -3.36904 0
M  V30 5908 O 971.954 1.78598 -3.17173 0
M  V30 5909 N 971.904 -0.329694 -2.33686 0
M  V30 5910 C 971.814 -1.6953 -2.45079 0
M  V30 5911 C 971.664 -2.16933 -3.80505 0
M  V30 5912 C 971.614 -1.30326 -4.83752 0
M  V30 5913 H 968.874 -0.374722 -8.67691 0
M  V30 5914 H 968.605 -0.443421 -6.90177 0
M  V30 5915 H 969.472 1.75537 -7.96793 0
M  V30 5916 H 972.127 1.94496 -5.46629 0
M  V30 5917 H 972.406 -0.608651 -7.04676 0
M  V30 5918 H 973.398 0.889672 -7.08939 0
M  V30 5919 H 971.564 0.43308 -9.04564 0
M  V30 5920 H 971.493 -1.68366 -5.8516 0
M  V30 5921 P 973.434 2.75334 -8.47391 0
M  V30 5922 O 973.654 3.84128 -9.44797 0
M  V30 5923 O 974.224 1.51947 -8.68712 0
M  V30 5924 O 973.684 3.29363 -6.99321 0
M  V30 5925 C 972.744 4.24011 -6.4274 0
M  V30 5926 C 973.474 5.20775 -5.52155 0
M  V30 5927 O 973.684 4.56534 -4.22446 0
M  V30 5928 C 974.874 5.62629 -5.96531 0
M  V30 5929 O 975.264 6.87667 -5.41053 0
M  V30 5930 C 975.754 4.52537 -5.39283 0
M  V30 5931 C 975.044 4.20027 -4.08623 0
M  V30 5932 N 975.094 2.76189 -3.71603 0
M  V30 5933 H 972.255 4.797 -7.24003 0
M  V30 5934 H 971.985 3.69856 -5.84513 0
M  V30 5935 H 972.852 6.10356 -5.41441 0
M  V30 5936 P 976.814 7.20834 -5.23717 0
M  V30 5937 O 977.034 8.66104 -5.38572 0
M  V30 5938 O 977.604 6.33544 -6.1349 0
M  V30 5939 O 977.064 6.7751 -3.72168 0
M  V30 5940 C 976.124 7.20825 -2.7076 0
M  V30 5941 C 976.854 7.45864 -1.40599 0
M  V30 5942 O 977.064 6.17651 -0.734225 0
M  V30 5943 C 978.254 8.05808 -1.51899 0
M  V30 5944 O 978.644 8.74358 -0.335205 0
M  V30 5945 C 979.134 6.83093 -1.70294 0
M  V30 5946 C 978.424 5.79992 -0.836974 0
M  V30 5947 N 978.474 4.41864 -1.38293 0
M  V30 5948 H 975.635 8.13644 -3.0377 0
M  V30 5949 H 975.365 6.42788 -2.55485 0
M  V30 5950 H 976.232 8.12039 -0.792769 0
M  V30 5951 P 980.194 8.91 7.34391e-12 0
M  V30 5952 O 980.414 10.1726 0.733694 0
M  V30 5953 O 980.984 8.73148 -1.23936 0
M  V30 5954 O 980.444 7.66872 0.971405 0
M  V30 5955 C 979.504 7.42309 2.04641 0
M  V30 5956 C 980.234 6.86059 3.24661 0
M  V30 5957 O 980.444 5.42847 3.03646 0
M  V30 5958 C 981.634 7.41196 3.50753 0
M  V30 5959 O 982.024 7.27073 4.86816 0
M  V30 5960 C 982.514 6.5273 2.63741 0
M  V30 5961 C 981.804 5.1842 2.73198 0
M  V30 5962 N 981.854 4.38762 1.4784 0
M  V30 5963 C 981.774 4.81605 0.168631 0
M  V30 5964 N 981.854 3.85454 -0.713363 0
M  V30 5965 C 981.994 2.6994 0.0566958 0
M  V30 5966 C 982.124 1.34815 -0.338502 0
M  V30 5967 N 982.244 0.496304 0.77465 0
M  V30 5968 C 982.244 0.908403 2.09122 0
M  V30 5969 N 982.374 -0.0517805 3.00955 0
M  V30 5970 N 982.114 2.17875 2.46519 0
M  V30 5971 C 981.994 3.01988 1.4033 0
M  V30 5972 H 979.015 8.36803 2.32493 0
M  V30 5973 H 978.745 6.70197 1.71129 0
M  V30 5974 H 979.612 7.03551 4.13168 0
M  V30 5975 P 983.574 7.20834 5.23717 0
M  V30 5976 O 983.794 7.79853 6.57286 0
M  V30 5977 O 984.364 7.79239 4.12957 0
M  V30 5978 O 983.824 5.63315 5.29344 0
M  V30 5979 C 982.884 4.80255 6.01876 0
M  V30 5980 C 983.614 3.64202 6.65911 0
M  V30 5981 O 983.824 2.60694 5.64732 0
M  V30 5982 C 985.014 3.93473 7.1943 0
M  V30 5983 O 985.404 3.02071 8.21205 0
M  V30 5984 C 985.894 3.73047 5.97036 0
M  V30 5985 C 985.184 2.58828 5.25741 0
M  V30 5986 N 985.234 2.68068 3.77503 0
M  V30 5987 H 982.395 5.40332 6.79951 0
M  V30 5988 H 982.125 4.41613 5.32378 0
M  V30 5989 H 982.992 3.26331 7.47797 0
M  V30 5990 P 986.954 2.75334 8.47391 0
M  V30 5991 O 987.174 2.44571 9.90142 0
M  V30 5992 O 987.744 3.87688 7.92115 0
M  V30 5993 O 987.204 1.4459 7.59357 0
M  V30 5994 C 986.264 0.347608 7.69215 0
M  V30 5995 C 986.994 -0.96767 7.52806 0
M  V30 5996 O 987.204 -1.21036 6.1011 0
M  V30 5997 C 988.394 -1.04544 8.13308 0
M  V30 5998 O 988.784 -2.38311 8.41922 0
M  V30 5999 C 989.274 -0.491279 7.02284 0
M  V30 6000 C 988.564 -0.996264 5.77469 0
M  V30 6001 N 988.614 -0.0501916 4.62973 0
M  V30 6002 C 988.534 1.32786 4.63244 0
M  V30 6003 N 988.614 1.86957 3.44545 0
M  V30 6004 C 988.754 0.780241 2.58481 0
M  V30 6005 C 988.884 0.738536 1.17757 0
M  V30 6006 O 988.904 1.66794 0.372349 0
M  V30 6007 N 989.004 -0.58337 0.711393 0
M  V30 6008 C 989.004 -1.70816 1.51017 0
M  V30 6009 N 989.134 -2.87826 0.880757 0
M  V30 6010 N 988.874 -1.67126 2.8339 0
M  V30 6011 C 988.754 -0.401421 3.30572 0
M  V30 6012 H 985.775 0.374722 8.67691 0
M  V30 6013 H 985.505 0.443485 6.90277 0
M  V30 6014 H 986.372 -1.75537 7.96793 0
M  V30 6015 H 989.027 -1.95076 5.46529 0
M  V30 6016 H 989.306 0.608565 7.04577 0
M  V30 6017 H 990.298 -0.889672 7.08939 0
M  V30 6018 H 988.464 -0.43308 9.04564 0
M  V30 6019 H 988.415 1.91249 5.54442 0
M  V30 6020 H 989.097 -0.718054 -0.275244 0
M  V30 6021 H 989.134 -3.75721 1.41832 0
M  V30 6022 H 989.235 -2.90436 -0.145468 0
M  V30 6023 P 990.334 -2.75334 8.47391 0
M  V30 6024 O 990.554 -3.84128 9.44797 0
M  V30 6025 O 991.124 -1.51947 8.68712 0
M  V30 6026 O 990.584 -3.29363 6.99321 0
M  V30 6027 C 989.644 -4.24011 6.4274 0
M  V30 6028 C 990.374 -5.20775 5.52155 0
M  V30 6029 O 990.584 -4.56534 4.22446 0
M  V30 6030 C 991.774 -5.62629 5.96531 0
M  V30 6031 O 992.164 -6.87667 5.41053 0
M  V30 6032 C 992.654 -4.52537 5.39283 0
M  V30 6033 C 991.944 -4.20027 4.08623 0
M  V30 6034 N 991.994 -2.76189 3.71603 0
M  V30 6035 H 989.155 -4.797 7.24003 0
M  V30 6036 H 988.885 -3.69856 5.84513 0
M  V30 6037 H 989.752 -6.10356 5.41441 0
M  V30 6038 P 993.714 -7.20834 5.23717 0
M  V30 6039 O 993.934 -8.66104 5.38572 0
M  V30 6040 O 994.504 -6.33544 6.1349 0
M  V30 6041 O 993.964 -6.7751 3.72168 0
M  V30 6042 C 993.024 -7.20825 2.7076 0
M  V30 6043 C 993.754 -7.45864 1.40599 0
M  V30 6044 O 993.964 -6.17651 0.734225 0
M  V30 6045 C 995.154 -8.05808 1.51899 0
M  V30 6046 O 995.544 -8.74358 0.335205 0
M  V30 6047 C 996.034 -6.83093 1.70294 0
M  V30 6048 C 995.324 -5.79992 0.836974 0
M  V30 6049 N 995.374 -4.41864 1.38293 0
M  V30 6050 H 992.535 -8.13644 3.0377 0
M  V30 6051 H 992.265 -6.42788 2.55485 0
M  V30 6052 H 993.132 -8.12039 0.792769 0
M  V30 6053 P 997.094 -8.91 -7.50109e-12 0
M  V30 6054 O 997.314 -10.1726 -0.733694 0
M  V30 6055 O 997.884 -8.73148 1.23936 0
M  V30 6056 O 997.344 -7.66872 -0.971405 0
M  V30 6057 C 996.404 -7.42309 -2.04641 0
M  V30 6058 C 997.134 -6.86059 -3.24661 0
M  V30 6059 O 997.344 -5.42847 -3.03646 0
M  V30 6060 C 998.534 -7.41196 -3.50753 0
M  V30 6061 O 998.924 -7.27073 -4.86816 0
M  V30 6062 C 999.414 -6.5273 -2.63741 0
M  V30 6063 C 998.704 -5.1842 -2.73198 0
M  V30 6064 N 998.754 -4.38762 -1.4784 0
M  V30 6065 H 995.915 -8.36803 -2.32493 0
M  V30 6066 H 995.645 -6.70197 -1.71129 0
M  V30 6067 H 996.512 -7.03551 -4.13168 0
M  V30 6068 P 1000.47 -7.20834 -5.23717 0
M  V30 6069 O 1000.69 -7.79853 -6.57286 0
M  V30 6070 O 1001.26 -7.79239 -4.12957 0
M  V30 6071 O 1000.72 -5.63315 -5.29344 0
M  V30 6072 C 999.784 -4.80255 -6.01876 0
M  V30 6073 C 1000.51 -3.64202 -6.65911 0
M  V30 6074 O 1000.72 -2.60694 -5.64732 0
M  V30 6075 C 1001.91 -3.93473 -7.1943 0
M  V30 6076 O 1002.3 -3.02071 -8.21205 0
M  V30 6077 C 1002.79 -3.73047 -5.97036 0
M  V30 6078 C 1002.08 -2.58828 -5.25741 0
M  V30 6079 N 1002.13 -2.68068 -3.77503 0
M  V30 6080 C 1002.05 -3.79715 -2.96723 0
M  V30 6081 N 1002.13 -3.5377 -1.68852 0
M  V30 6082 C 1002.27 -2.15054 -1.63254 0
M  V30 6083 C 1002.4 -1.28964 -0.518571 0
M  V30 6084 N 1002.52 0.0538097 -0.918425 0
M  V30 6085 C 1002.52 0.494275 -2.22578 0
M  V30 6086 N 1002.65 1.81086 -2.40434 0
M  V30 6087 N 1002.39 -0.313645 -3.27502 0
M  V30 6088 C 1002.27 -1.61829 -2.91033 0
M  V30 6089 H 999.295 -5.40332 -6.79951 0
M  V30 6090 H 999.025 -4.41613 -5.32378 0
M  V30 6091 H 999.892 -3.26331 -7.47797 0
M  V30 6092 P 1003.85 -2.75334 -8.47391 0
M  V30 6093 O 1004.07 -2.44595 -9.90239 0
M  V30 6094 O 1004.64 -3.87732 -7.92204 0
M  V30 6095 O 1004.1 -1.4459 -7.59357 0
M  V30 6096 C 1003.16 -0.347563 -7.69115 0
M  V30 6097 C 1003.89 0.96767 -7.52806 0
M  V30 6098 O 1004.1 1.21036 -6.1011 0
M  V30 6099 C 1005.29 1.04544 -8.13308 0
M  V30 6100 O 1005.68 2.38311 -8.41922 0
M  V30 6101 C 1006.17 0.491279 -7.02284 0
M  V30 6102 C 1005.46 0.996264 -5.77469 0
M  V30 6103 N 1005.51 0.0501808 -4.62873 0
M  V30 6104 C 1005.66 0.588177 -3.36904 0
M  V30 6105 O 1005.75 1.78598 -3.17173 0
M  V30 6106 N 1005.7 -0.329694 -2.33686 0
M  V30 6107 C 1005.61 -1.6953 -2.45079 0
M  V30 6108 O 1005.66 -2.41926 -1.44899 0
M  V30 6109 C 1005.46 -2.16933 -3.80505 0
M  V30 6110 C 1005.35 -3.65373 -3.97621 0
M  V30 6111 C 1005.41 -1.30326 -4.83752 0
M  V30 6112 H 1002.67 -0.374722 -8.67691 0
M  V30 6113 H 1002.41 -0.443421 -6.90177 0
M  V30 6114 H 1003.27 1.75537 -7.96793 0
M  V30 6115 H 1005.93 1.94496 -5.46629 0
M  V30 6116 H 1006.21 -0.608651 -7.04676 0
M  V30 6117 H 1007.2 0.889672 -7.08939 0
M  V30 6118 H 1005.36 0.43308 -9.04564 0
M  V30 6119 H 1005.29 -1.68366 -5.8516 0
M  V30 6120 H 1006.32 -4.05985 -4.30448 0
M  V30 6121 H 1004.59 -3.88028 -4.72875 0
M  V30 6122 H 1005.07 -4.11381 -3.01609 0
M  V30 6123 H 1005.81 0.0393617 -1.41345 0
M  V30 6124 P 1007.23 2.75334 -8.47391 0
M  V30 6125 O 1007.45 3.84128 -9.44797 0
M  V30 6126 O 1008.02 1.51947 -8.68712 0
M  V30 6127 O 1007.48 3.29363 -6.99321 0
M  V30 6128 C 1006.54 4.24011 -6.4274 0
M  V30 6129 C 1007.27 5.20775 -5.52155 0
M  V30 6130 O 1007.48 4.56534 -4.22446 0
M  V30 6131 C 1008.67 5.62629 -5.96531 0
M  V30 6132 O 1009.06 6.87667 -5.41053 0
M  V30 6133 C 1009.55 4.52537 -5.39283 0
M  V30 6134 C 1008.84 4.20027 -4.08623 0
M  V30 6135 N 1008.89 2.76189 -3.71603 0
M  V30 6136 H 1006.06 4.797 -7.24003 0
M  V30 6137 H 1005.79 3.69856 -5.84513 0
M  V30 6138 H 1006.65 6.10356 -5.41441 0
M  V30 6139 P 1010.61 7.20834 -5.23717 0
M  V30 6140 O 1010.83 8.66104 -5.38572 0
M  V30 6141 O 1011.4 6.33544 -6.1349 0
M  V30 6142 O 1010.86 6.7751 -3.72168 0
M  V30 6143 C 1009.92 7.20825 -2.7076 0
M  V30 6144 C 1010.65 7.45864 -1.40599 0
M  V30 6145 O 1010.86 6.17651 -0.734225 0
M  V30 6146 C 1012.05 8.05808 -1.51899 0
M  V30 6147 O 1012.44 8.74358 -0.335205 0
M  V30 6148 C 1012.93 6.83093 -1.70294 0
M  V30 6149 C 1012.22 5.79992 -0.836974 0
M  V30 6150 N 1012.27 4.41864 -1.38293 0
M  V30 6151 C 1012.19 3.99538 -2.69438 0
M  V30 6152 N 1012.27 2.69909 -2.84277 0
M  V30 6153 C 1012.41 2.21719 -1.5408 0
M  V30 6154 C 1012.54 0.891712 -1.06628 0
M  V30 6155 N 1012.66 0.856846 0.334985 0
M  V30 6156 C 1012.66 1.9641 1.15789 0
M  V30 6157 N 1012.79 1.72708 2.46522 0
M  V30 6158 N 1012.53 3.21165 0.713741 0
M  V30 6159 C 1012.41 3.26797 -0.639748 0
M  V30 6160 H 1009.44 8.13644 -3.0377 0
M  V30 6161 H 1009.17 6.42788 -2.55485 0
M  V30 6162 H 1010.03 8.12039 -0.792769 0
M  V30 6163 P 1013.99 8.91 7.65827e-12 0
M  V30 6164 O 1014.21 10.1726 0.733694 0
M  V30 6165 O 1014.78 8.73148 -1.23936 0
M  V30 6166 O 1014.24 7.66872 0.971405 0
M  V30 6167 C 1013.3 7.42309 2.04641 0
M  V30 6168 C 1014.03 6.86059 3.24661 0
M  V30 6169 O 1014.24 5.42847 3.03646 0
M  V30 6170 C 1015.43 7.41196 3.50753 0
M  V30 6171 O 1015.82 7.27073 4.86816 0
M  V30 6172 C 1016.31 6.5273 2.63741 0
M  V30 6173 C 1015.6 5.1842 2.73198 0
M  V30 6174 N 1015.65 4.38762 1.4784 0
M  V30 6175 C 1015.57 4.81605 0.168631 0
M  V30 6176 N 1015.65 3.85454 -0.713363 0
M  V30 6177 C 1015.79 2.6994 0.0566958 0
M  V30 6178 C 1015.92 1.34815 -0.338502 0
M  V30 6179 O 1015.94 0.869548 -1.47125 0
M  V30 6180 N 1016.04 0.496304 0.77465 0
M  V30 6181 C 1016.04 0.908403 2.09122 0
M  V30 6182 N 1016.17 -0.0517805 3.00955 0
M  V30 6183 N 1015.91 2.17875 2.46519 0
M  V30 6184 C 1015.79 3.01988 1.4033 0
M  V30 6185 H 1012.82 8.36803 2.32493 0
M  V30 6186 H 1012.55 6.70197 1.71129 0
M  V30 6187 H 1013.41 7.03551 4.13168 0
M  V30 6188 H 1016.07 4.59498 3.54415 0
M  V30 6189 H 1016.35 6.88898 1.59848 0
M  V30 6190 H 1017.34 6.46749 3.03687 0
M  V30 6191 H 1015.5 8.46908 3.20714 0
M  V30 6192 H 1015.46 5.86405 -0.105564 0
M  V30 6193 H 1016.14 -0.483664 0.597855 0
M  V30 6194 H 1016.17 0.187865 4.0116 0
M  V30 6195 H 1016.28 -1.03585 2.71726 0
M  V30 6196 P 1017.37 7.20834 5.23717 0
M  V30 6197 O 1017.59 7.79853 6.57286 0
M  V30 6198 O 1018.16 7.79239 4.12957 0
M  V30 6199 O 1017.62 5.63315 5.29344 0
M  V30 6200 C 1016.68 4.80255 6.01876 0
M  V30 6201 C 1017.41 3.64202 6.65911 0
M  V30 6202 O 1017.62 2.60694 5.64732 0
M  V30 6203 C 1018.81 3.93473 7.1943 0
M  V30 6204 O 1019.2 3.02071 8.21205 0
M  V30 6205 C 1019.69 3.73047 5.97036 0
M  V30 6206 C 1018.98 2.58828 5.25741 0
M  V30 6207 N 1019.03 2.68068 3.77503 0
M  V30 6208 C 1018.95 3.79715 2.96723 0
M  V30 6209 N 1019.03 3.5377 1.68852 0
M  V30 6210 C 1019.17 2.15054 1.63254 0
M  V30 6211 C 1019.3 1.28964 0.518571 0
M  V30 6212 N 1019.42 -0.0538097 0.918425 0
M  V30 6213 C 1019.42 -0.494275 2.22578 0
M  V30 6214 N 1019.55 -1.81086 2.40434 0
M  V30 6215 N 1019.29 0.313645 3.27502 0
M  V30 6216 C 1019.17 1.61829 2.91033 0
M  V30 6217 H 1016.19 5.40332 6.79951 0
M  V30 6218 H 1015.92 4.41613 5.32378 0
M  V30 6219 H 1016.79 3.26331 7.47797 0
M  V30 6220 P 1020.75 2.75334 8.47391 0
M  V30 6221 O 1020.97 2.44571 9.90142 0
M  V30 6222 O 1021.54 3.87688 7.92115 0
M  V30 6223 O 1021 1.4459 7.59357 0
M  V30 6224 C 1020.06 0.347608 7.69215 0
M  V30 6225 C 1020.79 -0.96767 7.52806 0
M  V30 6226 O 1021 -1.21036 6.1011 0
M  V30 6227 C 1022.19 -1.04544 8.13308 0
M  V30 6228 O 1022.58 -2.38311 8.41922 0
M  V30 6229 C 1023.07 -0.491279 7.02284 0
M  V30 6230 C 1022.36 -0.996264 5.77469 0
M  V30 6231 N 1022.41 -0.0501916 4.62973 0
M  V30 6232 H 1019.57 0.374722 8.67691 0
M  V30 6233 H 1019.3 0.443485 6.90277 0
M  V30 6234 H 1020.17 -1.75537 7.96793 0
M  V30 6235 P 1024.13 -2.75334 8.47391 0
M  V30 6236 O 1024.35 -3.84204 9.44982 0
M  V30 6237 O 1024.92 -1.51982 8.68909 0
M  V30 6238 O 1024.38 -3.29363 6.99321 0
M  V30 6239 C 1023.44 -4.24066 6.42823 0
M  V30 6240 C 1024.17 -5.20775 5.52155 0
M  V30 6241 O 1024.38 -4.56607 4.22514 0
M  V30 6242 C 1025.57 -5.62697 5.96604 0
M  V30 6243 O 1025.96 -6.87667 5.41053 0
M  V30 6244 C 1026.45 -4.52537 5.39283 0
M  V30 6245 C 1025.74 -4.20027 4.08623 0
M  V30 6246 N 1025.79 -2.76189 3.71603 0
M  V30 6247 C 1025.71 -1.66944 4.54297 0
M  V30 6248 N 1025.78 -0.536169 3.91344 0
M  V30 6249 C 1025.93 -0.901569 2.58849 0
M  V30 6250 C 1026.06 -0.146599 1.40236 0
M  V30 6251 N 1026.07 1.18234 1.37046 0
M  V30 6252 N 1026.18 -0.822941 0.249738 0
M  V30 6253 C 1026.17 -2.15179 0.280525 0
M  V30 6254 N 1026.05 -2.96414 1.30822 0
M  V30 6255 C 1025.93 -2.25804 2.44748 0
M  V30 6256 H 1022.96 -4.79756 7.24086 0
M  V30 6257 H 1022.68 -3.69963 5.84682 0
M  V30 6258 H 1023.55 -6.10431 5.41508 0
M  V30 6259 H 1026.21 -4.78816 3.28024 0
M  V30 6260 H 1026.49 -3.64957 6.05871 0
M  V30 6261 H 1027.48 -4.88748 5.21323 0
M  V30 6262 H 1025.64 -5.66789 7.0643 0
M  V30 6263 H 1025.6 -1.74684 5.62396 0
M  V30 6264 H 1025.98 1.71949 2.24394 0
M  V30 6265 H 1026.17 1.67511 0.470742 0
M  V30 6266 H 1026.28 -2.63704 -0.6828 0
M  V30 6267 P 1027.51 -7.20834 5.23717 0
M  V30 6268 O 1027.73 -8.66189 5.38625 0
M  V30 6269 O 1028.3 -6.33615 6.1356 0
M  V30 6270 O 1027.76 -6.7751 3.72168 0
M  V30 6271 C 1026.82 -7.20732 2.70725 0
M  V30 6272 C 1027.55 -7.45864 1.40599 0
M  V30 6273 O 1027.76 -6.17651 0.734225 0
M  V30 6274 C 1028.95 -8.05808 1.51899 0
M  V30 6275 O 1029.34 -8.74358 0.335205 0
M  V30 6276 C 1029.83 -6.83093 1.70294 0
M  V30 6277 C 1029.12 -5.79992 0.836974 0
M  V30 6278 N 1029.17 -4.41769 1.38263 0
M  V30 6279 C 1029.32 -3.38591 0.481702 0
M  V30 6280 O 1029.41 -3.56839 -0.718452 0
M  V30 6281 N 1029.36 -2.1206 1.03569 0
M  V30 6282 C 1029.27 -1.80696 2.36966 0
M  V30 6283 O 1029.32 -0.630473 2.74862 0
M  V30 6284 C 1029.12 -2.94845 3.23898 0
M  V30 6285 C 1029.01 -2.65253 4.70362 0
M  V30 6286 C 1029.07 -4.19803 2.73435 0
M  V30 6287 H 1026.33 -8.13644 3.0377 0
M  V30 6288 H 1026.06 -6.42695 2.55448 0
M  V30 6289 H 1026.93 -8.12039 0.792769 0
M  V30 6290 H 1029.59 -5.79978 -0.160587 0
M  V30 6291 H 1029.87 -6.51379 2.75643 0
M  V30 6292 H 1030.86 -7.01734 1.34462 0
M  V30 6293 H 1029.02 -8.73674 2.38337 0
M  V30 6294 H 1028.95 -5.04492 3.4095 0
M  V30 6295 H 1029.98 -2.83924 5.1913 0
M  V30 6296 H 1028.25 -3.29824 5.15163 0
M  V30 6297 H 1028.73 -1.59723 4.84449 0
M  V30 6298 H 1029.47 -1.35644 0.399345 0
M  V30 6299 P 1030.89 -8.91 -7.81545e-12 0
M  V30 6300 O 1031.11 -10.1726 -0.733694 0
M  V30 6301 O 1031.68 -8.73148 1.23936 0
M  V30 6302 O 1031.14 -7.66872 -0.971405 0
M  V30 6303 C 1030.2 -7.42309 -2.04641 0
M  V30 6304 C 1030.93 -6.86059 -3.24661 0
M  V30 6305 O 1031.14 -5.42847 -3.03646 0
M  V30 6306 C 1032.33 -7.41196 -3.50753 0
M  V30 6307 O 1032.72 -7.27073 -4.86816 0
M  V30 6308 C 1033.21 -6.5273 -2.63741 0
M  V30 6309 C 1032.5 -5.1842 -2.73198 0
M  V30 6310 N 1032.55 -4.38762 -1.4784 0
M  V30 6311 H 1029.71 -8.36803 -2.32493 0
M  V30 6312 H 1029.44 -6.70197 -1.71129 0
M  V30 6313 H 1030.31 -7.03551 -4.13168 0
M  V30 6314 P 1034.27 -7.20834 -5.23717 0
M  V30 6315 O 1034.49 -7.79853 -6.57286 0
M  V30 6316 O 1035.06 -7.79239 -4.12957 0
M  V30 6317 O 1034.52 -5.63315 -5.29344 0
M  V30 6318 C 1033.58 -4.80255 -6.01876 0
M  V30 6319 C 1034.31 -3.64202 -6.65911 0
M  V30 6320 O 1034.52 -2.60694 -5.64732 0
M  V30 6321 C 1035.71 -3.93473 -7.1943 0
M  V30 6322 O 1036.1 -3.02071 -8.21205 0
M  V30 6323 C 1036.59 -3.73047 -5.97036 0
M  V30 6324 C 1035.88 -2.58828 -5.25741 0
M  V30 6325 N 1035.93 -2.68068 -3.77503 0
M  V30 6326 H 1033.09 -5.40332 -6.79951 0
M  V30 6327 H 1032.82 -4.41613 -5.32378 0
M  V30 6328 H 1033.69 -3.26331 -7.47797 0
M  V30 6329 P 1037.65 -2.75334 -8.47391 0
M  V30 6330 O 1037.87 -2.44619 -9.90336 0
M  V30 6331 O 1038.44 -3.87776 -7.92294 0
M  V30 6332 O 1037.9 -1.4459 -7.59357 0
M  V30 6333 C 1036.96 -0.347653 -7.69315 0
M  V30 6334 C 1037.69 0.96767 -7.52806 0
M  V30 6335 O 1037.9 1.21055 -6.10208 0
M  V30 6336 C 1039.09 1.04557 -8.13408 0
M  V30 6337 O 1039.48 2.38311 -8.41922 0
M  V30 6338 C 1039.97 0.491279 -7.02284 0
M  V30 6339 C 1039.26 0.996264 -5.77469 0
M  V30 6340 N 1039.31 0.0501916 -4.62973 0
M  V30 6341 C 1039.23 -1.31969 -4.65661 0
M  V30 6342 N 1039.3 -1.86649 -3.48119 0
M  V30 6343 C 1039.45 -0.792089 -2.62406 0
M  V30 6344 C 1039.58 -0.705684 -1.2207 0
M  V30 6345 N 1039.59 -1.76207 -0.413762 0
M  V30 6346 N 1039.7 0.518981 -0.685754 0
M  V30 6347 C 1039.69 1.57595 -1.49174 0
M  V30 6348 N 1039.57 1.62909 -2.80066 0
M  V30 6349 C 1039.45 0.388195 -3.3073 0
M  V30 6350 H 1036.48 -0.374765 -8.67791 0
M  V30 6351 H 1036.2 -0.443613 -6.90476 0
M  V30 6352 H 1037.07 1.75559 -7.96891 0
M  V30 6353 H 1039.73 1.94563 -5.46818 0
M  V30 6354 H 1040.01 -0.608651 -7.04676 0
M  V30 6355 H 1041 0.889796 -7.09039 0
M  V30 6356 H 1039.16 0.433128 -9.04664 0
M  V30 6357 H 1039.12 -1.89246 -5.57664 0
M  V30 6358 H 1039.5 -2.71005 -0.804694 0
M  V30 6359 H 1039.69 -1.63189 0.603768 0
M  V30 6360 H 1039.8 2.53475 -0.997614 0
M  V30 6361 P 1041.03 2.75334 -8.47391 0
M  V30 6362 O 1041.25 3.84166 -9.4489 0
M  V30 6363 O 1041.82 1.51964 -8.6881 0
M  V30 6364 O 1041.28 3.29363 -6.99321 0
M  V30 6365 C 1040.34 4.23956 -6.42656 0
M  V30 6366 C 1041.07 5.20775 -5.52155 0
M  V30 6367 O 1041.28 4.56534 -4.22446 0
M  V30 6368 C 1042.47 5.62629 -5.96531 0
M  V30 6369 O 1042.86 6.87667 -5.41053 0
M  V30 6370 C 1043.35 4.52537 -5.39283 0
M  V30 6371 C 1042.64 4.20027 -4.08623 0
M  V30 6372 N 1042.69 2.7613 -3.71522 0
M  V30 6373 C 1042.84 2.45612 -2.37989 0
M  V30 6374 O 1042.93 3.30919 -1.51621 0
M  V30 6375 N 1042.88 1.10684 -2.08435 0
M  V30 6376 C 1042.79 0.0690084 -2.9792 0
M  V30 6377 C 1042.64 0.481522 -4.35345 0
M  V30 6378 C 1042.59 1.78906 -4.67968 0
M  V30 6379 H 1039.85 4.797 -7.24003 0
M  V30 6380 H 1039.58 3.69802 -5.84429 0
M  V30 6381 H 1040.45 6.10356 -5.41441 0
M  V30 6382 H 1043.11 4.78651 -3.27911 0
M  V30 6383 H 1043.39 3.64957 -6.05871 0
M  V30 6384 H 1044.38 4.8868 -5.2125 0
M  V30 6385 H 1042.54 5.66726 -7.06352 0
M  V30 6386 H 1042.47 2.07737 -5.72367 0
M  V30 6387 P 1044.41 7.20834 -5.23717 0
M  V30 6388 O 1044.63 8.66104 -5.38572 0
M  V30 6389 O 1045.2 6.33544 -6.1349 0
M  V30 6390 O 1044.66 6.7751 -3.72168 0
M  V30 6391 C 1043.72 7.20825 -2.7076 0
M  V30 6392 C 1044.45 7.45864 -1.40599 0
M  V30 6393 O 1044.66 6.17651 -0.734225 0
M  V30 6394 C 1045.85 8.05808 -1.51899 0
M  V30 6395 O 1046.24 8.74358 -0.335205 0
M  V30 6396 C 1046.73 6.83093 -1.70294 0
M  V30 6397 C 1046.02 5.79992 -0.836974 0
M  V30 6398 N 1046.07 4.41864 -1.38293 0
M  V30 6399 C 1045.99 3.99538 -2.69438 0
M  V30 6400 N 1046.07 2.69909 -2.84277 0
M  V30 6401 C 1046.21 2.21719 -1.5408 0
M  V30 6402 C 1046.34 0.891712 -1.06628 0
M  V30 6403 N 1046.46 0.856846 0.334985 0
M  V30 6404 C 1046.46 1.9641 1.15789 0
M  V30 6405 N 1046.59 1.72708 2.46522 0
M  V30 6406 N 1046.33 3.21165 0.713741 0
M  V30 6407 C 1046.21 3.26797 -0.639748 0
M  V30 6408 H 1043.23 8.13644 -3.0377 0
M  V30 6409 H 1042.96 6.42788 -2.55485 0
M  V30 6410 H 1043.83 8.12039 -0.792769 0
M  V30 6411 P 1047.79 8.91 7.97264e-12 0
M  V30 6412 O 1048.01 10.1746 0.733838 0
M  V30 6413 O 1048.58 8.73346 -1.23964 0
M  V30 6414 O 1048.04 7.66872 0.971405 0
M  V30 6415 C 1047.1 7.42405 2.04668 0
M  V30 6416 C 1047.83 6.86059 3.24661 0
M  V30 6417 O 1048.04 5.42934 3.03695 0
M  V30 6418 C 1049.23 7.41287 3.50796 0
M  V30 6419 O 1049.62 7.27073 4.86816 0
M  V30 6420 C 1050.11 6.5273 2.63741 0
M  V30 6421 C 1049.4 5.1842 2.73198 0
M  V30 6422 N 1049.45 4.38762 1.4784 0
M  V30 6423 H 1046.62 8.36899 2.3252 0
M  V30 6424 H 1046.34 6.70391 1.71179 0
M  V30 6425 H 1047.21 7.03638 4.13219 0
M  V30 6426 H 1049.87 4.59931 3.54016 0
M  V30 6427 H 1050.15 6.88995 1.59871 0
M  V30 6428 H 1051.14 6.4684 3.0373 0
M  V30 6429 H 1049.3 8.47002 3.20749 0
M  V30 6430 P 1051.17 7.20834 5.23717 0
M  V30 6431 O 1051.39 7.79853 6.57286 0
M  V30 6432 O 1051.96 7.79239 4.12957 0
M  V30 6433 O 1051.42 5.63315 5.29344 0
M  V30 6434 C 1050.48 4.80255 6.01876 0
M  V30 6435 C 1051.21 3.64202 6.65911 0
M  V30 6436 O 1051.42 2.60694 5.64732 0
M  V30 6437 C 1052.61 3.93473 7.1943 0
M  V30 6438 O 1053 3.02071 8.21205 0
M  V30 6439 C 1053.49 3.73047 5.97036 0
M  V30 6440 C 1052.78 2.58828 5.25741 0
M  V30 6441 N 1052.83 2.68068 3.77503 0
M  V30 6442 H 1049.99 5.40332 6.79951 0
M  V30 6443 H 1049.72 4.41613 5.32378 0
M  V30 6444 H 1050.59 3.26331 7.47797 0
M  V30 6445 P 1054.55 2.75334 8.47391 0
M  V30 6446 O 1054.77 2.44571 9.90142 0
M  V30 6447 O 1055.34 3.87688 7.92115 0
M  V30 6448 O 1054.8 1.4459 7.59357 0
M  V30 6449 C 1053.86 0.347608 7.69215 0
M  V30 6450 C 1054.59 -0.96767 7.52806 0
M  V30 6451 O 1054.8 -1.21036 6.1011 0
M  V30 6452 C 1055.99 -1.04544 8.13308 0
M  V30 6453 O 1056.38 -2.38311 8.41922 0
M  V30 6454 C 1056.87 -0.491279 7.02284 0
M  V30 6455 C 1056.16 -0.996264 5.77469 0
M  V30 6456 N 1056.21 -0.0501916 4.62973 0
M  V30 6457 C 1056.13 1.32786 4.63244 0
M  V30 6458 N 1056.21 1.86957 3.44545 0
M  V30 6459 C 1056.35 0.780241 2.58481 0
M  V30 6460 C 1056.48 0.738536 1.17757 0
M  V30 6461 O 1056.5 1.66794 0.372349 0
M  V30 6462 N 1056.6 -0.58337 0.711393 0
M  V30 6463 C 1056.6 -1.70816 1.51017 0
M  V30 6464 N 1056.73 -2.87826 0.880757 0
M  V30 6465 N 1056.47 -1.67126 2.8339 0
M  V30 6466 C 1056.35 -0.401421 3.30572 0
M  V30 6467 H 1053.37 0.374722 8.67691 0
M  V30 6468 H 1053.1 0.443485 6.90277 0
M  V30 6469 H 1053.97 -1.75537 7.96793 0
M  V30 6470 H 1056.63 -1.95076 5.46529 0
M  V30 6471 H 1056.91 0.608565 7.04577 0
M  V30 6472 H 1057.9 -0.889672 7.08939 0
M  V30 6473 H 1056.06 -0.43308 9.04564 0
M  V30 6474 H 1056.01 1.91249 5.54442 0
M  V30 6475 H 1056.7 -0.718054 -0.275244 0
M  V30 6476 H 1056.73 -3.75721 1.41832 0
M  V30 6477 H 1056.83 -2.90436 -0.145468 0
M  V30 6478 P 1057.93 -2.75334 8.47391 0
M  V30 6479 O 1058.15 -3.84166 9.4489 0
M  V30 6480 O 1058.72 -1.51964 8.6881 0
M  V30 6481 O 1058.18 -3.29363 6.99321 0
M  V30 6482 C 1057.24 -4.23956 6.42656 0
M  V30 6483 C 1057.97 -5.20775 5.52155 0
M  V30 6484 O 1058.18 -4.56534 4.22446 0
M  V30 6485 C 1059.37 -5.62629 5.96531 0
M  V30 6486 O 1059.76 -6.87667 5.41053 0
M  V30 6487 C 1060.25 -4.52537 5.39283 0
M  V30 6488 C 1059.54 -4.20027 4.08623 0
M  V30 6489 N 1059.59 -2.7613 3.71522 0
M  V30 6490 C 1059.74 -2.45612 2.37989 0
M  V30 6491 O 1059.83 -3.30919 1.51621 0
M  V30 6492 N 1059.78 -1.10684 2.08435 0
M  V30 6493 C 1059.69 -0.0690084 2.9792 0
M  V30 6494 C 1059.54 -0.481522 4.35345 0
M  V30 6495 C 1059.49 -1.78906 4.67968 0
M  V30 6496 H 1056.75 -4.797 7.24003 0
M  V30 6497 H 1056.48 -3.69802 5.84429 0
M  V30 6498 H 1057.35 -6.10356 5.41441 0
M  V30 6499 H 1060.01 -4.78651 3.27911 0
M  V30 6500 H 1060.29 -3.64957 6.05871 0
M  V30 6501 H 1061.28 -4.8868 5.2125 0
M  V30 6502 H 1059.44 -5.66726 7.06352 0
M  V30 6503 H 1059.37 -2.07737 5.72367 0
M  V30 6504 P 1061.31 -7.20834 5.23717 0
M  V30 6505 O 1061.53 -8.66104 5.38572 0
M  V30 6506 O 1062.1 -6.33544 6.1349 0
M  V30 6507 O 1061.56 -6.7751 3.72168 0
M  V30 6508 C 1060.62 -7.20825 2.7076 0
M  V30 6509 C 1061.35 -7.45864 1.40599 0
M  V30 6510 O 1061.56 -6.17651 0.734225 0
M  V30 6511 C 1062.75 -8.05808 1.51899 0
M  V30 6512 O 1063.14 -8.74358 0.335205 0
M  V30 6513 C 1063.63 -6.83093 1.70294 0
M  V30 6514 C 1062.92 -5.79992 0.836974 0
M  V30 6515 N 1062.97 -4.41864 1.38293 0
M  V30 6516 H 1060.13 -8.13644 3.0377 0
M  V30 6517 H 1059.86 -6.42788 2.55485 0
M  V30 6518 H 1060.73 -8.12039 0.792769 0
M  V30 6519 P 1064.69 -8.91 -8.12982e-12 0
M  V30 6520 O 1064.91 -10.1726 -0.733694 0
M  V30 6521 O 1065.48 -8.73148 1.23936 0
M  V30 6522 O 1064.94 -7.66872 -0.971405 0
M  V30 6523 C 1064 -7.42309 -2.04641 0
M  V30 6524 C 1064.73 -6.86059 -3.24661 0
M  V30 6525 O 1064.94 -5.42847 -3.03646 0
M  V30 6526 C 1066.13 -7.41196 -3.50753 0
M  V30 6527 O 1066.52 -7.27073 -4.86816 0
M  V30 6528 C 1067.01 -6.5273 -2.63741 0
M  V30 6529 C 1066.3 -5.1842 -2.73198 0
M  V30 6530 N 1066.35 -4.38762 -1.4784 0
M  V30 6531 H 1063.51 -8.36803 -2.32493 0
M  V30 6532 H 1063.24 -6.70197 -1.71129 0
M  V30 6533 H 1064.11 -7.03551 -4.13168 0
M  V30 6534 P 1068.07 -7.20834 -5.23717 0
M  V30 6535 O 1068.29 -7.79853 -6.57286 0
M  V30 6536 O 1068.86 -7.79239 -4.12957 0
M  V30 6537 O 1068.32 -5.63315 -5.29344 0
M  V30 6538 C 1067.38 -4.80255 -6.01876 0
M  V30 6539 C 1068.11 -3.64202 -6.65911 0
M  V30 6540 O 1068.32 -2.60694 -5.64732 0
M  V30 6541 C 1069.51 -3.93473 -7.1943 0
M  V30 6542 O 1069.9 -3.02071 -8.21205 0
M  V30 6543 C 1070.39 -3.73047 -5.97036 0
M  V30 6544 C 1069.68 -2.58828 -5.25741 0
M  V30 6545 N 1069.73 -2.68068 -3.77503 0
M  V30 6546 H 1066.89 -5.40332 -6.79951 0
M  V30 6547 H 1066.62 -4.41613 -5.32378 0
M  V30 6548 H 1067.49 -3.26331 -7.47797 0
M  V30 6549 P 1071.45 -2.75334 -8.47391 0
M  V30 6550 O 1071.67 -2.44571 -9.90142 0
M  V30 6551 O 1072.24 -3.87688 -7.92115 0
M  V30 6552 O 1071.7 -1.4459 -7.59357 0
M  V30 6553 C 1070.76 -0.347608 -7.69215 0
M  V30 6554 C 1071.49 0.96767 -7.52806 0
M  V30 6555 O 1071.7 1.21036 -6.1011 0
M  V30 6556 C 1072.89 1.04544 -8.13308 0
M  V30 6557 O 1073.28 2.38311 -8.41922 0
M  V30 6558 C 1073.77 0.491279 -7.02284 0
M  V30 6559 C 1073.06 0.996264 -5.77469 0
M  V30 6560 N 1073.11 0.0501916 -4.62973 0
M  V30 6561 H 1070.27 -0.374722 -8.67691 0
M  V30 6562 H 1070 -0.443485 -6.90277 0
M  V30 6563 H 1070.87 1.75537 -7.96793 0
M  V30 6564 P 1074.83 2.75334 -8.47391 0
M  V30 6565 O 1075.05 3.84128 -9.44797 0
M  V30 6566 O 1075.62 1.51947 -8.68712 0
M  V30 6567 O 1075.08 3.29363 -6.99321 0
M  V30 6568 C 1074.14 4.24011 -6.4274 0
M  V30 6569 C 1074.87 5.20775 -5.52155 0
M  V30 6570 O 1075.08 4.56534 -4.22446 0
M  V30 6571 C 1076.27 5.62629 -5.96531 0
M  V30 6572 O 1076.66 6.87667 -5.41053 0
M  V30 6573 C 1077.15 4.52537 -5.39283 0
M  V30 6574 C 1076.44 4.20027 -4.08623 0
M  V30 6575 N 1076.49 2.76189 -3.71603 0
M  V30 6576 C 1076.41 1.64862 -4.52822 0
M  V30 6577 N 1076.49 0.512671 -3.88633 0
M  V30 6578 C 1076.63 0.888083 -2.54977 0
M  V30 6579 C 1076.76 0.094668 -1.38677 0
M  V30 6580 O 1076.78 -1.13053 -1.28163 0
M  V30 6581 N 1076.88 0.890102 -0.232633 0
M  V30 6582 C 1076.88 2.26958 -0.21772 0
M  V30 6583 N 1077.01 2.84626 0.97925 0
M  V30 6584 N 1076.75 3.0178 -1.31033 0
M  V30 6585 C 1076.63 2.26781 -2.43843 0
M  V30 6586 H 1073.65 4.797 -7.24003 0
M  V30 6587 H 1073.38 3.69856 -5.84513 0
M  V30 6588 H 1074.25 6.10356 -5.41441 0
M  V30 6589 H 1076.91 4.79061 -3.27488 0
M  V30 6590 H 1077.19 3.64906 -6.05785 0
M  V30 6591 H 1078.18 4.8868 -5.2125 0
M  V30 6592 H 1076.34 5.66726 -7.06352 0
M  V30 6593 H 1076.29 1.71169 -5.60966 0
M  V30 6594 H 1076.98 0.419134 0.644739 0
M  V30 6595 H 1077.01 3.87332 1.06098 0
M  V30 6596 H 1077.11 2.26417 1.82483 0
M  V30 6597 P 1078.21 7.20834 -5.23717 0
M  V30 6598 O 1078.43 8.66104 -5.38572 0
M  V30 6599 O 1079 6.33544 -6.1349 0
M  V30 6600 O 1078.46 6.7751 -3.72168 0
M  V30 6601 C 1077.52 7.20825 -2.7076 0
M  V30 6602 C 1078.25 7.45864 -1.40599 0
M  V30 6603 O 1078.46 6.17651 -0.734225 0
M  V30 6604 C 1079.65 8.05808 -1.51899 0
M  V30 6605 O 1080.04 8.74358 -0.335205 0
M  V30 6606 C 1080.53 6.83093 -1.70294 0
M  V30 6607 C 1079.82 5.79992 -0.836974 0
M  V30 6608 N 1079.87 4.41864 -1.38293 0
M  V30 6609 H 1077.03 8.13644 -3.0377 0
M  V30 6610 H 1076.76 6.42788 -2.55485 0
M  V30 6611 H 1077.63 8.12039 -0.792769 0
M  V30 6612 P 1081.59 8.91 8.287e-12 0
M  V30 6613 O 1081.81 10.1726 0.733694 0
M  V30 6614 O 1082.38 8.73148 -1.23936 0
M  V30 6615 O 1081.84 7.66872 0.971405 0
M  V30 6616 C 1080.9 7.42309 2.04641 0
M  V30 6617 C 1081.63 6.86059 3.24661 0
M  V30 6618 O 1081.84 5.42847 3.03646 0
M  V30 6619 C 1083.03 7.41196 3.50753 0
M  V30 6620 O 1083.42 7.27073 4.86816 0
M  V30 6621 C 1083.91 6.5273 2.63741 0
M  V30 6622 C 1083.2 5.1842 2.73198 0
M  V30 6623 N 1083.25 4.38762 1.4784 0
M  V30 6624 H 1080.41 8.36803 2.32493 0
M  V30 6625 H 1080.14 6.70197 1.71129 0
M  V30 6626 H 1081.01 7.03551 4.13168 0
M  V30 6627 P 1084.97 7.20834 5.23717 0
M  V30 6628 O 1085.19 7.79853 6.57286 0
M  V30 6629 O 1085.76 7.79239 4.12957 0
M  V30 6630 O 1085.22 5.63315 5.29344 0
M  V30 6631 C 1084.28 4.80255 6.01876 0
M  V30 6632 C 1085.01 3.64202 6.65911 0
M  V30 6633 O 1085.22 2.60694 5.64732 0
M  V30 6634 C 1086.41 3.93473 7.1943 0
M  V30 6635 O 1086.8 3.02071 8.21205 0
M  V30 6636 C 1087.29 3.73047 5.97036 0
M  V30 6637 C 1086.58 2.58828 5.25741 0
M  V30 6638 N 1086.63 2.68068 3.77503 0
M  V30 6639 H 1083.79 5.40332 6.79951 0
M  V30 6640 H 1083.52 4.41613 5.32378 0
M  V30 6641 H 1084.39 3.26331 7.47797 0
M  V30 6642 P 1088.35 2.75334 8.47391 0
M  V30 6643 O 1088.57 2.44571 9.90142 0
M  V30 6644 O 1089.14 3.87688 7.92115 0
M  V30 6645 O 1088.6 1.4459 7.59357 0
M  V30 6646 C 1087.66 0.347608 7.69215 0
M  V30 6647 C 1088.39 -0.96767 7.52806 0
M  V30 6648 O 1088.6 -1.21036 6.1011 0
M  V30 6649 C 1089.79 -1.04544 8.13308 0
M  V30 6650 O 1090.18 -2.38311 8.41922 0
M  V30 6651 C 1090.67 -0.491279 7.02284 0
M  V30 6652 C 1089.96 -0.996264 5.77469 0
M  V30 6653 N 1090.01 -0.0501916 4.62973 0
M  V30 6654 H 1087.17 0.374722 8.67691 0
M  V30 6655 H 1086.9 0.443485 6.90277 0
M  V30 6656 H 1087.77 -1.75537 7.96793 0
M  V30 6657 P 1091.73 -2.75334 8.47391 0
M  V30 6658 O 1091.95 -3.84128 9.44797 0
M  V30 6659 O 1092.52 -1.51947 8.68712 0
M  V30 6660 O 1091.98 -3.29363 6.99321 0
M  V30 6661 C 1091.04 -4.24011 6.4274 0
M  V30 6662 C 1091.77 -5.20775 5.52155 0
M  V30 6663 O 1091.98 -4.56534 4.22446 0
M  V30 6664 C 1093.17 -5.62629 5.96531 0
M  V30 6665 O 1093.56 -6.87667 5.41053 0
M  V30 6666 C 1094.05 -4.52537 5.39283 0
M  V30 6667 C 1093.34 -4.20027 4.08623 0
M  V30 6668 N 1093.39 -2.76189 3.71603 0
M  V30 6669 H 1090.55 -4.797 7.24003 0
M  V30 6670 H 1090.28 -3.69856 5.84513 0
M  V30 6671 H 1091.15 -6.10356 5.41441 0
M  V30 6672 H 1093.43 -6.85814 4.46035 0
M  V30 6673 H 1097.45 5.51656 -7.74769 0
M  V30 6674 O 1097.33 4.58361 -7.63359 0
M  V30 6675 P 1095.89 4.23843 -7.83734 0
M  V30 6676 O 1095.67 4.19407 -9.29784 0
M  V30 6677 O 1095.1 5.24426 -7.09156 0
M  V30 6678 O 1095.64 2.7935 -7.20758 0
M  V30 6679 C 1096.58 1.7299 -7.50419 0
M  V30 6680 C 1095.85 0.406376 -7.57911 0
M  V30 6681 O 1095.64 -0.0897726 -6.21935 0
M  V30 6682 C 1094.45 0.447224 -8.1878 0
M  V30 6683 O 1094.06 -0.825065 -8.71101 0
M  V30 6684 C 1093.57 0.783801 -6.99623 0
M  V30 6685 C 1094.28 0.0619192 -5.85967 0
M  V30 6686 N 1094.23 0.7859 -4.56281 0
M  V30 6687 H 1097.07 1.93423 -8.4679 0
M  V30 6688 H 1097.34 1.68181 -6.71046 0
M  V30 6689 H 1096.48 -0.289041 -8.15388 0
M  V30 6690 P 1092.51 -1.17771 -8.83182 0
M  V30 6691 O 1092.29 -2.07206 -9.98732 0
M  V30 6692 O 1091.72 0.0743816 -8.81969 0
M  V30 6693 O 1092.26 -1.97652 -7.47304 0
M  V30 6694 C 1093.2 -3.01133 -7.08783 0
M  V30 6695 C 1092.47 -4.12613 -6.37049 0
M  V30 6696 O 1092.26 -3.72827 -4.97879 0
M  V30 6697 C 1091.07 -4.45085 -6.88694 0
M  V30 6698 O 1090.68 -5.7877 -6.5624 0
M  V30 6699 C 1090.19 -3.47817 -6.12078 0
M  V30 6700 C 1090.9 -3.39414 -4.77697 0
M  V30 6701 N 1090.85 -2.04615 -4.15333 0
M  V30 6702 H 1093.69 -3.41248 -7.98759 0
M  V30 6703 H 1093.96 -2.5837 -6.41742 0
M  V30 6704 H 1093.1 -5.02657 -6.42673 0
M  V30 6705 P 1089.13 -6.144 -6.45285 0
M  V30 6706 O 1088.91 -7.54673 -6.86199 0
M  V30 6707 O 1088.34 -5.12391 -7.179 0
M  V30 6708 O 1088.88 -5.99158 -4.88404 0
M  V30 6709 C 1089.82 -6.60234 -3.96415 0
M  V30 6710 C 1089.09 -7.08259 -2.72856 0
M  V30 6711 O 1088.88 -5.9427 -1.83651 0
M  V30 6712 C 1087.69 -7.64886 -2.9555 0
M  V30 6713 O 1087.3 -8.53963 -1.90717 0
M  V30 6714 C 1086.81 -6.4116 -2.90739 0
M  V30 6715 C 1087.52 -5.55375 -1.86963 0
M  V30 6716 N 1087.47 -4.09664 -2.15742 0
M  V30 6717 H 1090.31 -7.45574 -4.45629 0
M  V30 6718 H 1090.58 -5.86232 -3.67314 0
M  V30 6719 H 1089.72 -7.84412 -2.24479 0
M  V30 6720 P 1085.75 -8.7635 -1.60911 0
M  V30 6721 O 1085.53 -10.1388 -1.11561 0
M  V30 6722 O 1084.96 -8.36503 -2.79617 0
M  V30 6723 O 1085.5 -7.71806 -0.42951 0
M  V30 6724 C 1086.44 -7.67148 0.673689 0
M  V30 6725 C 1085.71 -7.33374 1.95559 0
M  V30 6726 O 1085.5 -5.88721 2.00726 0
M  V30 6727 C 1084.31 -7.92526 2.10483 0
M  V30 6728 O 1083.92 -8.02971 3.47653 0
M  V30 6729 C 1083.43 -6.89602 1.41652 0
M  V30 6730 C 1084.14 -5.59201 1.75185 0
M  V30 6731 N 1084.09 -4.58235 0.662552 0
M  V30 6732 H 1086.93 -8.65116 0.777161 0
M  V30 6733 H 1087.2 -6.90173 0.474152 0
M  V30 6734 H 1086.34 -7.66548 2.79458 0
M  V30 6735 P 1082.37 -8.03563 3.84925 0
M  V30 6736 O 1082.15 -8.85821 5.0569 0
M  V30 6737 O 1081.58 -8.41101 2.65469 0
M  V30 6738 O 1082.12 -6.4965 4.18908 0
M  V30 6739 C 1083.06 -5.81037 5.05421 0
M  V30 6740 C 1082.33 -4.78366 5.89277 0
M  V30 6741 O 1082.12 -3.58302 5.08433 0
M  V30 6742 C 1080.93 -5.17448 6.36119 0
M  V30 6743 O 1080.54 -4.45271 7.53232 0
M  V30 6744 C 1080.05 -4.74639 5.19936 0
M  V30 6745 C 1080.76 -3.49432 4.70418 0
M  V30 6746 N 1080.71 -3.31776 3.22945 0
M  V30 6747 H 1083.55 -6.54213 5.71376 0
M  V30 6748 H 1083.82 -5.30492 4.44033 0
M  V30 6749 H 1082.96 -4.55889 6.76652 0
M  V30 6750 P 1078.99 -4.23843 7.83734 0
M  V30 6751 O 1078.77 -4.19407 9.29784 0
M  V30 6752 O 1078.2 -5.24426 7.09156 0
M  V30 6753 O 1078.74 -2.79386 7.20852 0
M  V30 6754 C 1079.68 -1.7299 7.50419 0
M  V30 6755 C 1078.95 -0.41401 7.5797 0
M  V30 6756 O 1078.74 0.089787 6.22035 0
M  V30 6757 C 1077.55 -0.447224 8.1878 0
M  V30 6758 O 1077.16 0.825159 8.71201 0
M  V30 6759 C 1076.67 -0.783801 6.99623 0
M  V30 6760 C 1077.38 -0.0619192 5.85967 0
M  V30 6761 N 1077.33 -0.7859 4.56281 0
M  V30 6762 C 1077.18 -0.0359258 3.39981 0
M  V30 6763 O 1077.09 1.19723 3.49038 0
M  V30 6764 N 1077.13 -0.869151 2.14025 0
M  V30 6765 C 1077.23 -2.01207 2.14363 0
M  V30 6766 N 1077.18 -2.58978 0.954287 0
M  V30 6767 C 1077.38 -2.80817 3.32215 0
M  V30 6768 C 1077.43 -2.13785 4.50884 0
M  V30 6769 H 1080.17 -1.93401 8.46693 0
M  V30 6770 H 1080.44 -1.68181 6.71046 0
M  V30 6771 H 1079.58 0.289076 8.15488 0
M  V30 6772 H 1076.92 0.927166 5.72947 0
M  V30 6773 H 1076.64 -1.87 6.82132 0
M  V30 6774 H 1075.65 -0.404009 7.13457 0
M  V30 6775 H 1077.48 -1.20599 8.97534 0
M  V30 6776 H 1077.56 -2.70295 5.43162 0
M  V30 6777 H 1077.45 -3.89465 3.27406 0
M  V30 6778 H 1077.07 -2.01616 0.107046 0
M  V30 6779 H 1077.26 -3.61403 0.873101 0
M  V30 6780 P 1075.61 1.17771 8.83182 0
M  V30 6781 O 1075.39 2.07206 9.98732 0
M  V30 6782 O 1074.82 -0.0743816 8.81969 0
M  V30 6783 O 1075.36 1.97652 7.47304 0
M  V30 6784 C 1076.3 3.01133 7.08783 0
M  V30 6785 C 1075.57 4.12613 6.37049 0
M  V30 6786 O 1075.36 3.72827 4.97879 0
M  V30 6787 C 1074.17 4.45085 6.88694 0
M  V30 6788 O 1073.78 5.7877 6.5624 0
M  V30 6789 C 1073.29 3.47817 6.12078 0
M  V30 6790 C 1074 3.39414 4.77697 0
M  V30 6791 N 1073.95 2.04615 4.15333 0
M  V30 6792 H 1076.79 3.41248 7.98759 0
M  V30 6793 H 1077.06 2.5837 6.41742 0
M  V30 6794 H 1076.2 5.02657 6.42673 0
M  V30 6795 P 1072.23 6.144 6.45285 0
M  V30 6796 O 1072.01 7.54673 6.86199 0
M  V30 6797 O 1071.44 5.12391 7.179 0
M  V30 6798 O 1071.98 5.99158 4.88404 0
M  V30 6799 C 1072.92 6.60234 3.96415 0
M  V30 6800 C 1072.19 7.08259 2.72856 0
M  V30 6801 O 1071.98 5.9427 1.83651 0
M  V30 6802 C 1070.79 7.64886 2.9555 0
M  V30 6803 O 1070.4 8.53963 1.90717 0
M  V30 6804 C 1069.91 6.4116 2.90739 0
M  V30 6805 C 1070.62 5.55375 1.86963 0
M  V30 6806 N 1070.57 4.09664 2.15742 0
M  V30 6807 H 1073.41 7.45574 4.45629 0
M  V30 6808 H 1073.68 5.86232 3.67314 0
M  V30 6809 H 1072.82 7.84412 2.24479 0
M  V30 6810 P 1068.85 8.7635 1.60911 0
M  V30 6811 O 1068.63 10.1388 1.11561 0
M  V30 6812 O 1068.06 8.36503 2.79617 0
M  V30 6813 O 1068.6 7.71806 0.42951 0
M  V30 6814 C 1069.54 7.67148 -0.673689 0
M  V30 6815 C 1068.81 7.33374 -1.95559 0
M  V30 6816 O 1068.6 5.88721 -2.00726 0
M  V30 6817 C 1067.41 7.92526 -2.10483 0
M  V30 6818 O 1067.02 8.02971 -3.47653 0
M  V30 6819 C 1066.53 6.89602 -1.41652 0
M  V30 6820 C 1067.24 5.59201 -1.75185 0
M  V30 6821 N 1067.19 4.58235 -0.662552 0
M  V30 6822 H 1070.03 8.65116 -0.777161 0
M  V30 6823 H 1070.3 6.90173 -0.474152 0
M  V30 6824 H 1069.44 7.66548 -2.79458 0
M  V30 6825 P 1065.47 8.03563 -3.84925 0
M  V30 6826 O 1065.25 8.85821 -5.0569 0
M  V30 6827 O 1064.68 8.41101 -2.65469 0
M  V30 6828 O 1065.22 6.4965 -4.18908 0
M  V30 6829 C 1066.16 5.81037 -5.05421 0
M  V30 6830 C 1065.43 4.78366 -5.89277 0
M  V30 6831 O 1065.22 3.58302 -5.08433 0
M  V30 6832 C 1064.03 5.17448 -6.36119 0
M  V30 6833 O 1063.64 4.45271 -7.53232 0
M  V30 6834 C 1063.15 4.74639 -5.19936 0
M  V30 6835 C 1063.86 3.49432 -4.70418 0
M  V30 6836 N 1063.81 3.31776 -3.22945 0
M  V30 6837 H 1066.65 6.54213 -5.71376 0
M  V30 6838 H 1066.92 5.30492 -4.44033 0
M  V30 6839 H 1066.06 4.55889 -6.76652 0
M  V30 6840 P 1062.09 4.23843 -7.83734 0
M  V30 6841 O 1061.87 4.19407 -9.29784 0
M  V30 6842 O 1061.3 5.24426 -7.09156 0
M  V30 6843 O 1061.84 2.7935 -7.20758 0
M  V30 6844 C 1062.78 1.7299 -7.50419 0
M  V30 6845 C 1062.05 0.406376 -7.57911 0
M  V30 6846 O 1061.84 -0.0897726 -6.21935 0
M  V30 6847 C 1060.65 0.447224 -8.1878 0
M  V30 6848 O 1060.26 -0.825065 -8.71101 0
M  V30 6849 C 1059.77 0.783801 -6.99623 0
M  V30 6850 C 1060.48 0.0619192 -5.85967 0
M  V30 6851 N 1060.43 0.7859 -4.56281 0
M  V30 6852 C 1060.51 2.14308 -4.31736 0
M  V30 6853 N 1060.43 2.46106 -3.05116 0
M  V30 6854 C 1060.29 1.23422 -2.4014 0
M  V30 6855 C 1060.16 0.938381 -1.02409 0
M  V30 6856 N 1060.04 -0.444647 -0.805413 0
M  V30 6857 C 1060.04 -1.40829 -1.79435 0
M  V30 6858 N 1059.91 -2.67213 -1.38558 0
M  V30 6859 N 1060.17 -1.12947 -3.09005 0
M  V30 6860 C 1060.29 0.204887 -3.32369 0
M  V30 6861 H 1063.27 1.93423 -8.4679 0
M  V30 6862 H 1063.54 1.68181 -6.71046 0
M  V30 6863 H 1062.68 -0.289041 -8.15388 0
M  V30 6864 P 1058.71 -1.17771 -8.83182 0
M  V30 6865 O 1058.49 -2.07206 -9.98732 0
M  V30 6866 O 1057.92 0.0743816 -8.81969 0
M  V30 6867 O 1058.46 -1.97678 -7.474 0
M  V30 6868 C 1059.4 -3.01133 -7.08783 0
M  V30 6869 C 1058.67 -4.1203 -6.37546 0
M  V30 6870 O 1058.46 -3.72887 -4.9796 0
M  V30 6871 C 1057.27 -4.45085 -6.88694 0
M  V30 6872 O 1056.88 -5.78836 -6.56315 0
M  V30 6873 C 1056.39 -3.47817 -6.12078 0
M  V30 6874 C 1057.1 -3.39414 -4.77697 0
M  V30 6875 N 1057.05 -2.04615 -4.15333 0
M  V30 6876 C 1056.9 -1.96929 -2.77162 0
M  V30 6877 O 1056.81 -3.02017 -2.12006 0
M  V30 6878 N 1056.85 -0.55485 -2.24237 0
M  V30 6879 C 1056.95 0.367808 -2.9169 0
M  V30 6880 N 1056.9 1.53426 -2.29427 0
M  V30 6881 C 1057.1 0.319148 -4.33828 0
M  V30 6882 C 1057.15 -0.920672 -4.90433 0
M  V30 6883 H 1059.89 -3.41209 -7.98667 0
M  V30 6884 H 1060.16 -2.5837 -6.41742 0
M  V30 6885 H 1059.3 -5.02718 -6.42752 0
M  V30 6886 H 1056.64 -4.11779 -4.09026 0
M  V30 6887 H 1056.36 -2.49661 -6.61772 0
M  V30 6888 H 1055.37 -3.86674 -6.00946 0
M  V30 6889 H 1057.2 -4.29991 -7.97006 0
M  V30 6890 H 1057.28 -1.00589 -5.98303 0
M  V30 6891 H 1057.17 1.22639 -4.93799 0
M  V30 6892 H 1056.79 1.56819 -1.27167 0
M  V30 6893 H 1056.98 2.41062 -2.83063 0
M  V30 6894 P 1055.33 -6.144 -6.45285 0
M  V30 6895 O 1055.11 -7.54673 -6.86199 0
M  V30 6896 O 1054.54 -5.12391 -7.179 0
M  V30 6897 O 1055.08 -5.99158 -4.88404 0
M  V30 6898 C 1056.02 -6.60234 -3.96415 0
M  V30 6899 C 1055.29 -7.08259 -2.72856 0
M  V30 6900 O 1055.08 -5.9427 -1.83651 0
M  V30 6901 C 1053.89 -7.64886 -2.9555 0
M  V30 6902 O 1053.5 -8.53963 -1.90717 0
M  V30 6903 C 1053.01 -6.4116 -2.90739 0
M  V30 6904 C 1053.72 -5.55375 -1.86963 0
M  V30 6905 N 1053.67 -4.09664 -2.15742 0
M  V30 6906 H 1056.51 -7.45574 -4.45629 0
M  V30 6907 H 1056.78 -5.86232 -3.67314 0
M  V30 6908 H 1055.92 -7.84412 -2.24479 0
M  V30 6909 P 1051.95 -8.7635 -1.60911 0
M  V30 6910 O 1051.73 -10.1388 -1.11561 0
M  V30 6911 O 1051.16 -8.36503 -2.79617 0
M  V30 6912 O 1051.7 -7.71806 -0.42951 0
M  V30 6913 C 1052.64 -7.67148 0.673689 0
M  V30 6914 C 1051.91 -7.33374 1.95559 0
M  V30 6915 O 1051.7 -5.88721 2.00726 0
M  V30 6916 C 1050.51 -7.92526 2.10483 0
M  V30 6917 O 1050.12 -8.02971 3.47653 0
M  V30 6918 C 1049.63 -6.89602 1.41652 0
M  V30 6919 C 1050.34 -5.59201 1.75185 0
M  V30 6920 N 1050.29 -4.58235 0.662552 0
M  V30 6921 H 1053.13 -8.65116 0.777161 0
M  V30 6922 H 1053.4 -6.90173 0.474152 0
M  V30 6923 H 1052.54 -7.66548 2.79458 0
M  V30 6924 P 1048.57 -8.03563 3.84925 0
M  V30 6925 O 1048.35 -8.85821 5.0569 0
M  V30 6926 O 1047.78 -8.41101 2.65469 0
M  V30 6927 O 1048.32 -6.4965 4.18908 0
M  V30 6928 C 1049.26 -5.80886 5.05289 0
M  V30 6929 C 1048.53 -4.78366 5.89277 0
M  V30 6930 O 1048.32 -3.58302 5.08433 0
M  V30 6931 C 1047.13 -5.16748 6.36559 0
M  V30 6932 O 1046.74 -4.45271 7.53232 0
M  V30 6933 C 1046.25 -4.74572 5.19863 0
M  V30 6934 C 1046.96 -3.49373 4.70338 0
M  V30 6935 N 1046.91 -3.31704 3.22876 0
M  V30 6936 C 1046.76 -2.03326 2.74871 0
M  V30 6937 O 1046.67 -1.06486 3.48076 0
M  V30 6938 N 1046.72 -1.91838 1.37456 0
M  V30 6939 C 1046.81 -2.94295 0.462035 0
M  V30 6940 C 1046.96 -4.25064 1.05249 0
M  V30 6941 C 1047.01 -4.40214 2.39192 0
M  V30 6942 H 1049.75 -6.54063 5.71245 0
M  V30 6943 H 1050.02 -5.30339 4.43905 0
M  V30 6944 H 1049.16 -4.55889 6.76652 0
M  V30 6945 H 1046.5 -2.6167 5.17842 0
M  V30 6946 H 1046.22 -5.52155 4.41878 0
M  V30 6947 H 1045.23 -4.51918 5.53297 0
M  V30 6948 H 1047.06 -6.25055 6.55162 0
M  V30 6949 H 1047.14 -5.39798 2.81523 0
M  V30 6950 P 1045.19 -4.23843 7.83734 0
M  V30 6951 O 1044.97 -4.19407 9.29784 0
M  V30 6952 O 1044.4 -5.24426 7.09156 0
M  V30 6953 O 1044.94 -2.7935 7.20758 0
M  V30 6954 C 1045.88 -1.7299 7.50419 0
M  V30 6955 C 1045.15 -0.406376 7.57911 0
M  V30 6956 O 1044.94 0.0897726 6.21935 0
M  V30 6957 C 1043.75 -0.447224 8.1878 0
M  V30 6958 O 1043.36 0.825065 8.71101 0
M  V30 6959 C 1042.87 -0.783801 6.99623 0
M  V30 6960 C 1043.58 -0.0619192 5.85967 0
M  V30 6961 N 1043.53 -0.7859 4.56281 0
M  V30 6962 C 1043.61 -2.14308 4.31736 0
M  V30 6963 N 1043.53 -2.46106 3.05116 0
M  V30 6964 C 1043.39 -1.23422 2.4014 0
M  V30 6965 C 1043.26 -0.938381 1.02409 0
M  V30 6966 N 1043.14 0.444647 0.805413 0
M  V30 6967 C 1043.14 1.40829 1.79435 0
M  V30 6968 N 1043.01 2.67213 1.38558 0
M  V30 6969 N 1043.27 1.12947 3.09005 0
M  V30 6970 C 1043.39 -0.204887 3.32369 0
M  V30 6971 H 1046.37 -1.93423 8.4679 0
M  V30 6972 H 1046.64 -1.68181 6.71046 0
M  V30 6973 H 1045.78 0.289041 8.15388 0
M  V30 6974 P 1041.81 1.17771 8.83182 0
M  V30 6975 O 1041.59 2.07206 9.98732 0
M  V30 6976 O 1041.02 -0.0743816 8.81969 0
M  V30 6977 O 1041.56 1.97652 7.47304 0
M  V30 6978 C 1042.5 3.01055 7.08599 0
M  V30 6979 C 1041.77 4.12613 6.37049 0
M  V30 6980 O 1041.56 3.72827 4.97879 0
M  V30 6981 C 1040.37 4.45719 6.88164 0
M  V30 6982 O 1039.98 5.7877 6.5624 0
M  V30 6983 C 1039.49 3.47768 6.11991 0
M  V30 6984 C 1040.2 3.39356 4.77615 0
M  V30 6985 N 1040.15 2.04571 4.15244 0
M  V30 6986 C 1040 1.98587 2.78314 0
M  V30 6987 O 1039.91 2.98134 2.08835 0
M  V30 6988 N 1039.96 0.714467 2.24925 0
M  V30 6989 C 1040.05 -0.470001 2.94169 0
M  V30 6990 O 1040 -1.55587 2.35195 0
M  V30 6991 C 1040.2 -0.312541 4.36783 0
M  V30 6992 C 1040.31 -1.57711 5.16352 0
M  V30 6993 C 1040.25 0.914512 4.92583 0
M  V30 6994 H 1042.99 3.41169 7.98575 0
M  V30 6995 H 1043.26 2.58295 6.41556 0
M  V30 6996 H 1042.4 5.02657 6.42673 0
M  V30 6997 H 1039.74 4.11637 4.08885 0
M  V30 6998 H 1039.46 2.49626 6.61679 0
M  V30 6999 H 1038.47 3.86566 6.00778 0
M  V30 7000 H 1040.3 4.29943 7.96918 0
M  V30 7001 H 1040.38 1.00937 6.00374 0
M  V30 7002 H 1039.35 -1.80153 5.63503 0
M  V30 7003 H 1041.08 -1.4566 5.94104 0
M  V30 7004 H 1040.59 -2.40664 4.49645 0
M  V30 7005 H 1039.86 0.647622 1.25697 0
M  V30 7006 P 1038.43 6.144 6.45285 0
M  V30 7007 O 1038.21 7.54673 6.86199 0
M  V30 7008 O 1037.64 5.12391 7.179 0
M  V30 7009 O 1038.18 5.99158 4.88404 0
M  V30 7010 C 1039.12 6.60234 3.96415 0
M  V30 7011 C 1038.39 7.08259 2.72856 0
M  V30 7012 O 1038.18 5.9427 1.83651 0
M  V30 7013 C 1036.99 7.64886 2.9555 0
M  V30 7014 O 1036.6 8.53963 1.90717 0
M  V30 7015 C 1036.11 6.4116 2.90739 0
M  V30 7016 C 1036.82 5.55375 1.86963 0
M  V30 7017 N 1036.77 4.09664 2.15742 0
M  V30 7018 H 1039.61 7.45574 4.45629 0
M  V30 7019 H 1039.88 5.86232 3.67314 0
M  V30 7020 H 1039.02 7.84412 2.24479 0
M  V30 7021 P 1035.05 8.7635 1.60911 0
M  V30 7022 O 1034.83 10.1388 1.11561 0
M  V30 7023 O 1034.26 8.36503 2.79617 0
M  V30 7024 O 1034.8 7.71806 0.42951 0
M  V30 7025 C 1035.74 7.67148 -0.673689 0
M  V30 7026 C 1035.01 7.33374 -1.95559 0
M  V30 7027 O 1034.8 5.88721 -2.00726 0
M  V30 7028 C 1033.61 7.92526 -2.10483 0
M  V30 7029 O 1033.22 8.02971 -3.47653 0
M  V30 7030 C 1032.73 6.89602 -1.41652 0
M  V30 7031 C 1033.44 5.59201 -1.75185 0
M  V30 7032 N 1033.39 4.58235 -0.662552 0
M  V30 7033 H 1036.23 8.65116 -0.777161 0
M  V30 7034 H 1036.5 6.90173 -0.474152 0
M  V30 7035 H 1035.64 7.66548 -2.79458 0
M  V30 7036 P 1031.67 8.03563 -3.84925 0
M  V30 7037 O 1031.45 8.85821 -5.0569 0
M  V30 7038 O 1030.88 8.41101 -2.65469 0
M  V30 7039 O 1031.42 6.4965 -4.18908 0
M  V30 7040 C 1032.36 5.81037 -5.05421 0
M  V30 7041 C 1031.63 4.78366 -5.89277 0
M  V30 7042 O 1031.42 3.58302 -5.08433 0
M  V30 7043 C 1030.23 5.17448 -6.36119 0
M  V30 7044 O 1029.84 4.45271 -7.53232 0
M  V30 7045 C 1029.35 4.74639 -5.19936 0
M  V30 7046 C 1030.06 3.49432 -4.70418 0
M  V30 7047 N 1030.01 3.32099 -3.22613 0
M  V30 7048 C 1030.09 4.28245 -2.25527 0
M  V30 7049 N 1030.02 3.80823 -1.04874 0
M  V30 7050 C 1029.87 2.44571 -1.23535 0
M  V30 7051 C 1029.74 1.37068 -0.330675 0
M  V30 7052 N 1029.73 1.51472 0.990824 0
M  V30 7053 N 1029.62 0.138614 -0.848756 0
M  V30 7054 C 1029.63 -0.00675923 -2.16999 0
M  V30 7055 N 1029.75 0.904372 -3.11122 0
M  V30 7056 C 1029.87 2.12707 -2.56212 0
M  V30 7057 H 1032.85 6.54213 -5.71376 0
M  V30 7058 H 1033.12 5.30936 -4.43503 0
M  V30 7059 H 1032.26 4.55889 -6.76652 0
M  V30 7060 H 1029.6 2.61715 -5.17932 0
M  V30 7061 H 1029.32 5.52155 -4.41878 0
M  V30 7062 H 1028.33 4.51981 -5.53374 0
M  V30 7063 H 1030.16 6.25124 -6.55234 0
M  V30 7064 H 1030.21 5.34372 -2.47488 0
M  V30 7065 H 1029.82 2.45153 1.4078 0
M  V30 7066 H 1029.64 0.688422 1.59911 0
M  V30 7067 H 1029.53 -1.02584 -2.52346 0
M  V30 7068 P 1028.29 4.23843 -7.83734 0
M  V30 7069 O 1028.07 4.19407 -9.29784 0
M  V30 7070 O 1027.5 5.24426 -7.09156 0
M  V30 7071 O 1028.04 2.7935 -7.20758 0
M  V30 7072 C 1028.98 1.72945 -7.50224 0
M  V30 7073 C 1028.25 0.406376 -7.57911 0
M  V30 7074 O 1028.04 -0.0897726 -6.21935 0
M  V30 7075 C 1026.85 0.438983 -8.18724 0
M  V30 7076 O 1026.46 -0.825065 -8.71101 0
M  V30 7077 C 1025.97 0.783689 -6.99524 0
M  V30 7078 C 1026.68 0.0619086 -5.85867 0
M  V30 7079 N 1026.63 0.78573 -4.56183 0
M  V30 7080 C 1026.48 0.0292889 -3.41887 0
M  V30 7081 O 1026.39 -1.18445 -3.4419 0
M  V30 7082 N 1026.44 0.744061 -2.23964 0
M  V30 7083 C 1026.53 2.10932 -2.10362 0
M  V30 7084 O 1026.48 2.64117 -0.98825 0
M  V30 7085 C 1026.68 2.8202 -3.34994 0
M  V30 7086 C 1026.79 4.31095 -3.25037 0
M  V30 7087 C 1026.73 2.15547 -4.52261 0
M  V30 7088 H 1029.47 1.93379 -8.46595 0
M  V30 7089 H 1029.74 1.68132 -6.70852 0
M  V30 7090 H 1028.88 -0.289041 -8.15388 0
M  V30 7091 H 1026.22 -0.926847 -5.72749 0
M  V30 7092 H 1025.94 1.86973 -6.82036 0
M  V30 7093 H 1024.95 0.403896 -7.13257 0
M  V30 7094 H 1026.78 1.20585 -8.97435 0
M  V30 7095 H 1026.86 2.71231 -5.45042 0
M  V30 7096 H 1025.83 4.76966 -3.49992 0
M  V30 7097 H 1027.56 4.67047 -3.95024 0
M  V30 7098 H 1027.07 4.58996 -2.22312 0
M  V30 7099 H 1026.34 0.214893 -1.39758 0
M  V30 7100 P 1024.91 -1.17771 -8.83182 0
M  V30 7101 O 1024.69 -2.07206 -9.98732 0
M  V30 7102 O 1024.12 0.0743816 -8.81969 0
M  V30 7103 O 1024.66 -1.97652 -7.47304 0
M  V30 7104 C 1025.6 -3.01133 -7.08783 0
M  V30 7105 C 1024.87 -4.12613 -6.37049 0
M  V30 7106 O 1024.66 -3.72827 -4.97879 0
M  V30 7107 C 1023.47 -4.45085 -6.88694 0
M  V30 7108 O 1023.08 -5.7877 -6.5624 0
M  V30 7109 C 1022.59 -3.47817 -6.12078 0
M  V30 7110 C 1023.3 -3.39414 -4.77697 0
M  V30 7111 N 1023.25 -2.04615 -4.15333 0
M  V30 7112 H 1026.09 -3.41248 -7.98759 0
M  V30 7113 H 1026.36 -2.5837 -6.41742 0
M  V30 7114 H 1025.5 -5.02657 -6.42673 0
M  V30 7115 P 1021.53 -6.144 -6.45285 0
M  V30 7116 O 1021.31 -7.54673 -6.86199 0
M  V30 7117 O 1020.74 -5.12391 -7.179 0
M  V30 7118 O 1021.28 -5.99158 -4.88404 0
M  V30 7119 C 1022.22 -6.60062 -3.96313 0
M  V30 7120 C 1021.49 -7.08259 -2.72856 0
M  V30 7121 O 1021.28 -5.9427 -1.83651 0
M  V30 7122 C 1020.09 -7.65087 -2.94749 0
M  V30 7123 O 1019.7 -8.53963 -1.90717 0
M  V30 7124 C 1019.21 -6.41069 -2.90698 0
M  V30 7125 C 1019.92 -5.5528 -1.86931 0
M  V30 7126 N 1019.87 -4.09575 -2.15696 0
M  V30 7127 C 1019.72 -3.24249 -1.08435 0
M  V30 7128 O 1019.63 -3.63946 0.0628747 0
M  V30 7129 N 1019.68 -1.90009 -1.39973 0
M  V30 7130 C 1019.77 -1.34884 -2.65614 0
M  V30 7131 C 1019.92 -2.3145 -3.71736 0
M  V30 7132 C 1019.97 -3.63518 -3.44754 0
M  V30 7133 H 1022.71 -7.45402 -4.45526 0
M  V30 7134 H 1022.98 -5.86062 -3.67208 0
M  V30 7135 H 1022.12 -7.84412 -2.24479 0
M  V30 7136 H 1019.46 -5.73358 -0.888409 0
M  V30 7137 H 1019.18 -5.90877 -3.88583 0
M  V30 7138 H 1018.19 -6.65867 -2.58821 0
M  V30 7139 H 1020.02 -8.16248 -3.92006 0
M  V30 7140 H 1020.1 -4.34551 -4.26383 0
M  V30 7141 P 1018.15 -8.7635 -1.60911 0
M  V30 7142 O 1017.93 -10.1388 -1.11561 0
M  V30 7143 O 1017.36 -8.36503 -2.79617 0
M  V30 7144 O 1017.9 -7.71906 -0.429565 0
M  V30 7145 C 1018.84 -7.67148 0.673689 0
M  V30 7146 C 1018.11 -7.33666 1.94851 0
M  V30 7147 O 1017.9 -5.88816 2.00759 0
M  V30 7148 C 1016.71 -7.92526 2.10483 0
M  V30 7149 O 1016.32 -8.03063 3.47693 0
M  V30 7150 C 1015.83 -6.89602 1.41652 0
M  V30 7151 C 1016.54 -5.59201 1.75185 0
M  V30 7152 N 1016.49 -4.58235 0.662552 0
M  V30 7153 C 1016.34 -3.24451 1.01643 0
M  V30 7154 O 1016.25 -2.94958 2.21722 0
M  V30 7155 N 1016.29 -2.30408 -0.165238 0
M  V30 7156 C 1016.39 -2.66048 -1.25118 0
M  V30 7157 N 1016.34 -1.70787 -2.16813 0
M  V30 7158 C 1016.54 -4.02732 -1.64413 0
M  V30 7159 C 1016.59 -4.9488 -0.63991 0
M  V30 7160 H 1019.33 -8.65017 0.777072 0
M  V30 7161 H 1019.6 -6.90173 0.474152 0
M  V30 7162 H 1018.74 -7.66642 2.79492 0
M  V30 7163 H 1016.08 -5.16254 2.65229 0
M  V30 7164 H 1015.8 -7.06532 0.329431 0
M  V30 7165 H 1014.81 -6.91023 1.82047 0
M  V30 7166 H 1016.65 -8.90873 1.62657 0
M  V30 7167 H 1016.72 -6.00104 -0.892197 0
M  V30 7168 H 1016.62 -4.31733 -2.69229 0
M  V30 7169 H 1016.23 -0.724835 -1.8844 0
M  V30 7170 H 1016.42 -1.94716 -3.16734 0
M  V30 7171 P 1014.77 -8.03563 3.84925 0
M  V30 7172 O 1014.55 -8.85821 5.0569 0
M  V30 7173 O 1013.98 -8.41101 2.65469 0
M  V30 7174 O 1014.52 -6.4965 4.18908 0
M  V30 7175 C 1015.46 -5.80886 5.05289 0
M  V30 7176 C 1014.73 -4.78366 5.89277 0
M  V30 7177 O 1014.52 -3.58302 5.08433 0
M  V30 7178 C 1013.33 -5.16748 6.36559 0
M  V30 7179 O 1012.94 -4.45271 7.53232 0
M  V30 7180 C 1012.45 -4.74572 5.19863 0
M  V30 7181 C 1013.16 -3.49373 4.70338 0
M  V30 7182 N 1013.11 -3.31704 3.22876 0
M  V30 7183 C 1012.96 -2.03326 2.74871 0
M  V30 7184 O 1012.87 -1.06486 3.48076 0
M  V30 7185 N 1012.92 -1.91838 1.37456 0
M  V30 7186 C 1013.01 -2.94295 0.462035 0
M  V30 7187 C 1013.16 -4.25064 1.05249 0
M  V30 7188 C 1013.21 -4.40214 2.39192 0
M  V30 7189 H 1015.96 -6.54063 5.71245 0
M  V30 7190 H 1016.22 -5.30339 4.43905 0
M  V30 7191 H 1015.36 -4.55889 6.76652 0
M  V30 7192 H 1012.7 -2.6167 5.17842 0
M  V30 7193 H 1012.42 -5.52155 4.41878 0
M  V30 7194 H 1011.43 -4.51918 5.53297 0
M  V30 7195 H 1013.27 -6.25055 6.55162 0
M  V30 7196 H 1013.34 -5.39798 2.81523 0
M  V30 7197 P 1011.39 -4.23843 7.83734 0
M  V30 7198 O 1011.17 -4.19407 9.29784 0
M  V30 7199 O 1010.6 -5.24426 7.09156 0
M  V30 7200 O 1011.14 -2.7935 7.20758 0
M  V30 7201 C 1012.08 -1.7299 7.50419 0
M  V30 7202 C 1011.35 -0.406376 7.57911 0
M  V30 7203 O 1011.14 0.0897726 6.21935 0
M  V30 7204 C 1009.95 -0.447224 8.1878 0
M  V30 7205 O 1009.56 0.825065 8.71101 0
M  V30 7206 C 1009.07 -0.783801 6.99623 0
M  V30 7207 C 1009.78 -0.0619192 5.85967 0
M  V30 7208 N 1009.73 -0.7859 4.56281 0
M  V30 7209 H 1012.57 -1.93423 8.4679 0
M  V30 7210 H 1012.85 -1.68181 6.71046 0
M  V30 7211 H 1011.98 0.289041 8.15388 0
M  V30 7212 P 1008.01 1.17771 8.83182 0
M  V30 7213 O 1007.79 2.07206 9.98732 0
M  V30 7214 O 1007.22 -0.0743816 8.81969 0
M  V30 7215 O 1007.76 1.97652 7.47304 0
M  V30 7216 C 1008.7 3.01133 7.08783 0
M  V30 7217 C 1007.97 4.12613 6.37049 0
M  V30 7218 O 1007.76 3.72827 4.97879 0
M  V30 7219 C 1006.57 4.45085 6.88694 0
M  V30 7220 O 1006.18 5.7877 6.5624 0
M  V30 7221 C 1005.69 3.47817 6.12078 0
M  V30 7222 C 1006.4 3.39414 4.77697 0
M  V30 7223 N 1006.35 2.04199 4.15538 0
M  V30 7224 C 1006.43 0.821545 4.76977 0
M  V30 7225 N 1006.36 -0.1794 3.94592 0
M  V30 7226 C 1006.21 0.419121 2.70776 0
M  V30 7227 C 1006.08 -0.109072 1.40577 0
M  V30 7228 N 1006.07 -1.4104 1.1344 0
M  V30 7229 N 1005.96 0.764381 0.39411 0
M  V30 7230 C 1005.97 2.06587 0.664135 0
M  V30 7231 N 1006.09 2.67948 1.82153 0
M  V30 7232 C 1006.21 1.77942 2.8147 0
M  V30 7233 H 1009.19 3.41248 7.98759 0
M  V30 7234 H 1009.47 2.57728 6.42 0
M  V30 7235 H 1008.6 5.02657 6.42673 0
M  V30 7236 H 1005.94 4.11708 4.08956 0
M  V30 7237 H 1005.66 2.49626 6.61679 0
M  V30 7238 H 1004.67 3.8662 6.00862 0
M  V30 7239 H 1006.51 4.29991 7.97006 0
M  V30 7240 H 1006.55 0.702451 5.84696 0
M  V30 7241 H 1006.17 -2.09647 1.89651 0
M  V30 7242 H 1005.98 -1.73358 0.160575 0
M  V30 7243 H 1005.87 2.71695 -0.195838 0
M  V30 7244 P 1004.63 6.144 6.45285 0
M  V30 7245 O 1004.41 7.54673 6.86199 0
M  V30 7246 O 1003.84 5.12391 7.179 0
M  V30 7247 O 1004.38 5.99158 4.88404 0
M  V30 7248 C 1005.32 6.60062 3.96313 0
M  V30 7249 C 1004.59 7.08259 2.72856 0
M  V30 7250 O 1004.38 5.9427 1.83651 0
M  V30 7251 C 1003.19 7.65087 2.94749 0
M  V30 7252 O 1002.8 8.53963 1.90717 0
M  V30 7253 C 1002.31 6.41069 2.90698 0
M  V30 7254 C 1003.02 5.5528 1.86931 0
M  V30 7255 N 1002.97 4.09575 2.15696 0
M  V30 7256 C 1002.82 3.24249 1.08435 0
M  V30 7257 O 1002.73 3.63946 -0.0628747 0
M  V30 7258 N 1002.78 1.90009 1.39973 0
M  V30 7259 C 1002.87 1.34884 2.65614 0
M  V30 7260 C 1003.02 2.3145 3.71736 0
M  V30 7261 C 1003.07 3.63518 3.44754 0
M  V30 7262 H 1005.82 7.45402 4.45526 0
M  V30 7263 H 1006.08 5.86062 3.67208 0
M  V30 7264 H 1005.22 7.84412 2.24479 0
M  V30 7265 H 1002.56 5.73358 0.888409 0
M  V30 7266 H 1002.28 5.90877 3.88583 0
M  V30 7267 H 1001.29 6.65867 2.58821 0
M  V30 7268 H 1003.13 8.16248 3.92006 0
M  V30 7269 H 1003.2 4.34551 4.26383 0
M  V30 7270 P 1001.25 8.7635 1.60911 0
M  V30 7271 O 1001.03 10.1388 1.11561 0
M  V30 7272 O 1000.46 8.36503 2.79617 0
M  V30 7273 O 1001 7.71806 0.42951 0
M  V30 7274 C 1001.94 7.67148 -0.673689 0
M  V30 7275 C 1001.21 7.33374 -1.95559 0
M  V30 7276 O 1001 5.88721 -2.00726 0
M  V30 7277 C 999.814 7.92526 -2.10483 0
M  V30 7278 O 999.424 8.02971 -3.47653 0
M  V30 7279 C 998.934 6.89602 -1.41652 0
M  V30 7280 C 999.644 5.59201 -1.75185 0
M  V30 7281 N 999.594 4.58301 -0.657969 0
M  V30 7282 H 1002.43 8.65116 -0.777161 0
M  V30 7283 H 1002.71 6.9022 -0.46725 0
M  V30 7284 H 1001.84 7.66548 -2.79458 0
M  V30 7285 H 999.182 5.16165 -2.65183 0
M  V30 7286 H 998.902 7.06433 -0.329384 0
M  V30 7287 H 997.911 6.90926 -1.82021 0
M  V30 7288 H 999.745 8.90873 -1.62657 0
M  V30 7289 P 997.874 8.03563 -3.84925 0
M  V30 7290 O 997.654 8.85821 -5.0569 0
M  V30 7291 O 997.084 8.41101 -2.65469 0
M  V30 7292 O 997.624 6.4965 -4.18908 0
M  V30 7293 C 998.564 5.81037 -5.05421 0
M  V30 7294 C 997.834 4.78366 -5.89277 0
M  V30 7295 O 997.624 3.58302 -5.08433 0
M  V30 7296 C 996.434 5.17448 -6.36119 0
M  V30 7297 O 996.044 4.45271 -7.53232 0
M  V30 7298 C 995.554 4.74639 -5.19936 0
M  V30 7299 C 996.264 3.49432 -4.70418 0
M  V30 7300 N 996.214 3.31776 -3.22945 0
M  V30 7301 H 999.053 6.54213 -5.71376 0
M  V30 7302 H 999.325 5.30492 -4.44033 0
M  V30 7303 H 998.457 4.55889 -6.76652 0
M  V30 7304 P 994.494 4.23843 -7.83734 0
M  V30 7305 O 994.274 4.19407 -9.29784 0
M  V30 7306 O 993.704 5.24426 -7.09156 0
M  V30 7307 O 994.244 2.7935 -7.20758 0
M  V30 7308 C 995.184 1.7299 -7.50419 0
M  V30 7309 C 994.454 0.406376 -7.57911 0
M  V30 7310 O 994.244 -0.0897726 -6.21935 0
M  V30 7311 C 993.054 0.447224 -8.1878 0
M  V30 7312 O 992.664 -0.825065 -8.71101 0
M  V30 7313 C 992.174 0.783801 -6.99623 0
M  V30 7314 C 992.884 0.0619192 -5.85967 0
M  V30 7315 N 992.834 0.7859 -4.56281 0
M  V30 7316 H 995.673 1.93423 -8.4679 0
M  V30 7317 H 995.945 1.68181 -6.71046 0
M  V30 7318 H 995.077 -0.289041 -8.15388 0
M  V30 7319 P 991.114 -1.17771 -8.83182 0
M  V30 7320 O 990.894 -2.07206 -9.98732 0
M  V30 7321 O 990.324 0.0743816 -8.81969 0
M  V30 7322 O 990.864 -1.97678 -7.474 0
M  V30 7323 C 991.804 -3.01133 -7.08783 0
M  V30 7324 C 991.074 -4.1203 -6.37546 0
M  V30 7325 O 990.864 -3.72887 -4.9796 0
M  V30 7326 C 989.674 -4.45085 -6.88694 0
M  V30 7327 O 989.284 -5.78836 -6.56315 0
M  V30 7328 C 988.794 -3.47817 -6.12078 0
M  V30 7329 C 989.504 -3.39414 -4.77697 0
M  V30 7330 N 989.454 -2.04615 -4.15333 0
M  V30 7331 C 989.304 -1.96929 -2.77162 0
M  V30 7332 O 989.214 -3.02017 -2.12006 0
M  V30 7333 N 989.254 -0.55485 -2.24237 0
M  V30 7334 C 989.354 0.367808 -2.9169 0
M  V30 7335 N 989.304 1.53426 -2.29427 0
M  V30 7336 C 989.504 0.319148 -4.33828 0
M  V30 7337 C 989.554 -0.920672 -4.90433 0
M  V30 7338 H 992.294 -3.41209 -7.98667 0
M  V30 7339 H 992.564 -2.5837 -6.41742 0
M  V30 7340 H 991.697 -5.02718 -6.42752 0
M  V30 7341 H 989.042 -4.11779 -4.09026 0
M  V30 7342 H 988.762 -2.49661 -6.61772 0
M  V30 7343 H 987.771 -3.86674 -6.00946 0
M  V30 7344 H 989.605 -4.29991 -7.97006 0
M  V30 7345 H 989.677 -1.00589 -5.98303 0
M  V30 7346 H 989.575 1.22639 -4.93799 0
M  V30 7347 H 989.187 1.56819 -1.27167 0
M  V30 7348 H 989.383 2.41062 -2.83063 0
M  V30 7349 P 987.734 -6.144 -6.45285 0
M  V30 7350 O 987.514 -7.54673 -6.86199 0
M  V30 7351 O 986.944 -5.12391 -7.179 0
M  V30 7352 O 987.484 -5.99158 -4.88404 0
M  V30 7353 C 988.424 -6.60234 -3.96415 0
M  V30 7354 C 987.694 -7.08259 -2.72856 0
M  V30 7355 O 987.484 -5.9427 -1.83651 0
M  V30 7356 C 986.294 -7.64886 -2.9555 0
M  V30 7357 O 985.904 -8.53963 -1.90717 0
M  V30 7358 C 985.414 -6.4116 -2.90739 0
M  V30 7359 C 986.124 -5.55375 -1.86963 0
M  V30 7360 N 986.074 -4.09664 -2.15742 0
M  V30 7361 H 988.913 -7.45574 -4.45629 0
M  V30 7362 H 989.185 -5.86232 -3.67314 0
M  V30 7363 H 988.317 -7.84412 -2.24479 0
M  V30 7364 P 984.354 -8.7635 -1.60911 0
M  V30 7365 O 984.134 -10.1388 -1.11561 0
M  V30 7366 O 983.564 -8.36503 -2.79617 0
M  V30 7367 O 984.104 -7.71806 -0.42951 0
M  V30 7368 C 985.044 -7.66948 0.673514 0
M  V30 7369 C 984.314 -7.33374 1.95559 0
M  V30 7370 O 984.104 -5.88721 2.00726 0
M  V30 7371 C 982.914 -7.92218 2.1125 0
M  V30 7372 O 982.524 -8.02971 3.47653 0
M  V30 7373 C 982.034 -6.89504 1.41631 0
M  V30 7374 C 982.744 -5.59106 1.75155 0
M  V30 7375 N 982.694 -4.58136 0.662409 0
M  V30 7376 C 982.544 -3.26059 1.02863 0
M  V30 7377 O 982.454 -2.90743 2.19009 0
M  V30 7378 N 982.504 -2.35995 -0.0155585 0
M  V30 7379 C 982.594 -2.65248 -1.35603 0
M  V30 7380 C 982.744 -4.05747 -1.64698 0
M  V30 7381 C 982.794 -4.96734 -0.652411 0
M  V30 7382 H 985.535 -8.64917 0.776982 0
M  V30 7383 H 985.804 -6.89974 0.474015 0
M  V30 7384 H 984.937 -7.66548 2.79458 0
M  V30 7385 H 982.282 -5.16076 2.65138 0
M  V30 7386 H 982.003 -7.06433 0.329384 0
M  V30 7387 H 981.011 -6.90829 1.81996 0
M  V30 7388 H 982.845 -8.90774 1.62639 0
M  V30 7389 H 982.916 -6.02181 -0.895285 0
M  V30 7390 P 980.974 -8.03563 3.84925 0
M  V30 7391 O 980.754 -8.85821 5.0569 0
M  V30 7392 O 980.184 -8.41101 2.65469 0
M  V30 7393 O 980.724 -6.4965 4.18908 0
M  V30 7394 C 981.664 -5.81037 5.05421 0
M  V30 7395 C 980.934 -4.78366 5.89277 0
M  V30 7396 O 980.724 -3.58302 5.08433 0
M  V30 7397 C 979.534 -5.17448 6.36119 0
M  V30 7398 O 979.144 -4.45271 7.53232 0
M  V30 7399 C 978.654 -4.74639 5.19936 0
M  V30 7400 C 979.364 -3.49432 4.70418 0
M  V30 7401 N 979.314 -3.31776 3.22945 0
M  V30 7402 H 982.153 -6.54213 5.71376 0
M  V30 7403 H 982.425 -5.30492 4.44033 0
M  V30 7404 H 981.557 -4.55889 6.76652 0
M  V30 7405 P 977.594 -4.23843 7.83734 0
M  V30 7406 O 977.374 -4.19407 9.29784 0
M  V30 7407 O 976.804 -5.24426 7.09156 0
M  V30 7408 O 977.344 -2.7935 7.20758 0
M  V30 7409 C 978.284 -1.7299 7.50419 0
M  V30 7410 C 977.554 -0.406376 7.57911 0
M  V30 7411 O 977.344 0.0897726 6.21935 0
M  V30 7412 C 976.154 -0.447224 8.1878 0
M  V30 7413 O 975.764 0.825065 8.71101 0
M  V30 7414 C 975.274 -0.783801 6.99623 0
M  V30 7415 C 975.984 -0.0619192 5.85967 0
M  V30 7416 N 975.934 -0.7859 4.56281 0
M  V30 7417 H 978.773 -1.93423 8.4679 0
M  V30 7418 H 979.045 -1.68181 6.71046 0
M  V30 7419 H 978.177 0.289041 8.15388 0
M  V30 7420 P 974.214 1.17771 8.83182 0
M  V30 7421 O 973.994 2.07206 9.98732 0
M  V30 7422 O 973.424 -0.0743816 8.81969 0
M  V30 7423 O 973.964 1.97652 7.47304 0
M  V30 7424 C 974.904 3.01133 7.08783 0
M  V30 7425 C 974.174 4.12613 6.37049 0
M  V30 7426 O 973.964 3.72827 4.97879 0
M  V30 7427 C 972.774 4.45085 6.88694 0
M  V30 7428 O 972.384 5.7877 6.5624 0
M  V30 7429 C 971.894 3.47817 6.12078 0
M  V30 7430 C 972.604 3.39414 4.77697 0
M  V30 7431 N 972.554 2.04615 4.15333 0
M  V30 7432 C 972.634 0.803897 4.75249 0
M  V30 7433 N 972.554 -0.197615 3.91502 0
M  V30 7434 C 972.414 0.413002 2.66823 0
M  V30 7435 C 972.284 -0.157221 1.38007 0
M  V30 7436 N 972.164 0.833136 0.390236 0
M  V30 7437 C 972.164 2.19402 0.623885 0
M  V30 7438 N 972.034 2.97622 -0.449677 0
M  V30 7439 N 972.294 2.73005 1.83601 0
M  V30 7440 C 972.414 1.78786 2.80935 0
M  V30 7441 H 975.393 3.41248 7.98759 0
M  V30 7442 H 975.665 2.5837 6.41742 0
M  V30 7443 H 974.797 5.02657 6.42673 0
M  V30 7444 P 970.834 6.144 6.45285 0
M  V30 7445 O 970.614 7.54673 6.86199 0
M  V30 7446 O 970.044 5.12391 7.179 0
M  V30 7447 O 970.584 5.99158 4.88404 0
M  V30 7448 C 971.524 6.60234 3.96415 0
M  V30 7449 C 970.794 7.08259 2.72856 0
M  V30 7450 O 970.584 5.9427 1.83651 0
M  V30 7451 C 969.394 7.64886 2.9555 0
M  V30 7452 O 969.004 8.53963 1.90717 0
M  V30 7453 C 968.514 6.4116 2.90739 0
M  V30 7454 C 969.224 5.55375 1.86963 0
M  V30 7455 N 969.174 4.09664 2.15742 0
M  V30 7456 H 972.013 7.45574 4.45629 0
M  V30 7457 H 972.285 5.86232 3.67314 0
M  V30 7458 H 971.417 7.84412 2.24479 0
M  V30 7459 P 967.454 8.7635 1.60911 0
M  V30 7460 O 967.234 10.1388 1.11561 0
M  V30 7461 O 966.664 8.36503 2.79617 0
M  V30 7462 O 967.204 7.71806 0.42951 0
M  V30 7463 C 968.144 7.67148 -0.673689 0
M  V30 7464 C 967.414 7.33374 -1.95559 0
M  V30 7465 O 967.204 5.88721 -2.00726 0
M  V30 7466 C 966.014 7.92526 -2.10483 0
M  V30 7467 O 965.624 8.02971 -3.47653 0
M  V30 7468 C 965.134 6.89602 -1.41652 0
M  V30 7469 C 965.844 5.59201 -1.75185 0
M  V30 7470 N 965.794 4.58235 -0.662552 0
M  V30 7471 H 968.633 8.65116 -0.777161 0
M  V30 7472 H 968.905 6.90173 -0.474152 0
M  V30 7473 H 968.037 7.66548 -2.79458 0
M  V30 7474 P 964.074 8.03563 -3.84925 0
M  V30 7475 O 963.854 8.85821 -5.0569 0
M  V30 7476 O 963.284 8.41101 -2.65469 0
M  V30 7477 O 963.824 6.4965 -4.18908 0
M  V30 7478 C 964.764 5.81037 -5.05421 0
M  V30 7479 C 964.034 4.78366 -5.89277 0
M  V30 7480 O 963.824 3.58302 -5.08433 0
M  V30 7481 C 962.634 5.17448 -6.36119 0
M  V30 7482 O 962.244 4.45271 -7.53232 0
M  V30 7483 C 961.754 4.74639 -5.19936 0
M  V30 7484 C 962.464 3.49432 -4.70418 0
M  V30 7485 N 962.414 3.31776 -3.22945 0
M  V30 7486 H 965.253 6.54213 -5.71376 0
M  V30 7487 H 965.525 5.30492 -4.44033 0
M  V30 7488 H 964.657 4.55889 -6.76652 0
M  V30 7489 P 960.694 4.23843 -7.83734 0
M  V30 7490 O 960.474 4.19407 -9.29784 0
M  V30 7491 O 959.904 5.24426 -7.09156 0
M  V30 7492 O 960.444 2.7935 -7.20758 0
M  V30 7493 C 961.384 1.7299 -7.50419 0
M  V30 7494 C 960.654 0.406376 -7.57911 0
M  V30 7495 O 960.444 -0.0897726 -6.21935 0
M  V30 7496 C 959.254 0.447224 -8.1878 0
M  V30 7497 O 958.864 -0.825065 -8.71101 0
M  V30 7498 C 958.374 0.783801 -6.99623 0
M  V30 7499 C 959.084 0.0619192 -5.85967 0
M  V30 7500 N 959.034 0.7859 -4.56281 0
M  V30 7501 H 961.873 1.93423 -8.4679 0
M  V30 7502 H 962.145 1.68181 -6.71046 0
M  V30 7503 H 961.277 -0.289041 -8.15388 0
M  V30 7504 P 957.314 -1.17771 -8.83182 0
M  V30 7505 O 957.094 -2.07206 -9.98732 0
M  V30 7506 O 956.524 0.0743816 -8.81969 0
M  V30 7507 O 957.064 -1.97652 -7.47304 0
M  V30 7508 C 958.004 -3.01133 -7.08783 0
M  V30 7509 C 957.274 -4.12613 -6.37049 0
M  V30 7510 O 957.064 -3.72827 -4.97879 0
M  V30 7511 C 955.874 -4.45085 -6.88694 0
M  V30 7512 O 955.484 -5.7877 -6.5624 0
M  V30 7513 C 954.994 -3.47817 -6.12078 0
M  V30 7514 C 955.704 -3.39414 -4.77697 0
M  V30 7515 N 955.654 -2.04615 -4.15333 0
M  V30 7516 H 958.493 -3.41248 -7.98759 0
M  V30 7517 H 958.765 -2.5837 -6.41742 0
M  V30 7518 H 957.897 -5.02657 -6.42673 0
M  V30 7519 P 953.934 -6.144 -6.45285 0
M  V30 7520 O 953.714 -7.54673 -6.86199 0
M  V30 7521 O 953.144 -5.12391 -7.179 0
M  V30 7522 O 953.684 -5.99158 -4.88404 0
M  V30 7523 C 954.624 -6.60234 -3.96415 0
M  V30 7524 C 953.894 -7.08259 -2.72856 0
M  V30 7525 O 953.684 -5.9427 -1.83651 0
M  V30 7526 C 952.494 -7.64886 -2.9555 0
M  V30 7527 O 952.104 -8.53963 -1.90717 0
M  V30 7528 C 951.614 -6.4116 -2.90739 0
M  V30 7529 C 952.324 -5.55375 -1.86963 0
M  V30 7530 N 952.274 -4.09664 -2.15742 0
M  V30 7531 H 955.113 -7.45574 -4.45629 0
M  V30 7532 H 955.385 -5.86232 -3.67314 0
M  V30 7533 H 954.517 -7.84412 -2.24479 0
M  V30 7534 P 950.554 -8.7635 -1.60911 0
M  V30 7535 O 950.334 -10.1388 -1.11561 0
M  V30 7536 O 949.764 -8.36503 -2.79617 0
M  V30 7537 O 950.304 -7.71806 -0.42951 0
M  V30 7538 C 951.244 -7.67148 0.673689 0
M  V30 7539 C 950.514 -7.33374 1.95559 0
M  V30 7540 O 950.304 -5.88721 2.00726 0
M  V30 7541 C 949.114 -7.92526 2.10483 0
M  V30 7542 O 948.724 -8.02971 3.47653 0
M  V30 7543 C 948.234 -6.89602 1.41652 0
M  V30 7544 C 948.944 -5.59201 1.75185 0
M  V30 7545 N 948.894 -4.58235 0.662552 0
M  V30 7546 H 951.733 -8.65116 0.777161 0
M  V30 7547 H 952.005 -6.90173 0.474152 0
M  V30 7548 H 951.137 -7.66548 2.79458 0
M  V30 7549 P 947.174 -8.03563 3.84925 0
M  V30 7550 O 946.954 -8.85821 5.0569 0
M  V30 7551 O 946.384 -8.41101 2.65469 0
M  V30 7552 O 946.924 -6.4965 4.18908 0
M  V30 7553 C 947.864 -5.81037 5.05421 0
M  V30 7554 C 947.134 -4.78366 5.89277 0
M  V30 7555 O 946.924 -3.58302 5.08433 0
M  V30 7556 C 945.734 -5.17448 6.36119 0
M  V30 7557 O 945.344 -4.45271 7.53232 0
M  V30 7558 C 944.854 -4.74639 5.19936 0
M  V30 7559 C 945.564 -3.49432 4.70418 0
M  V30 7560 N 945.514 -3.32099 3.22613 0
M  V30 7561 C 945.594 -4.28245 2.25527 0
M  V30 7562 N 945.524 -3.80823 1.04874 0
M  V30 7563 C 945.374 -2.44571 1.23535 0
M  V30 7564 C 945.244 -1.37068 0.330675 0
M  V30 7565 N 945.234 -1.51472 -0.990824 0
M  V30 7566 N 945.124 -0.138614 0.848756 0
M  V30 7567 C 945.134 0.00675923 2.16999 0
M  V30 7568 N 945.254 -0.904372 3.11122 0
M  V30 7569 C 945.374 -2.12707 2.56212 0
M  V30 7570 H 948.353 -6.54213 5.71376 0
M  V30 7571 H 948.625 -5.30936 4.43503 0
M  V30 7572 H 947.757 -4.55889 6.76652 0
M  V30 7573 H 945.102 -2.61715 5.17932 0
M  V30 7574 H 944.822 -5.52155 4.41878 0
M  V30 7575 H 943.831 -4.51981 5.53374 0
M  V30 7576 H 945.665 -6.25124 6.55234 0
M  V30 7577 H 945.706 -5.34372 2.47488 0
M  V30 7578 H 945.325 -2.45153 -1.4078 0
M  V30 7579 H 945.136 -0.688422 -1.59911 0
M  V30 7580 H 945.028 1.02584 2.52346 0
M  V30 7581 P 943.794 -4.23843 7.83734 0
M  V30 7582 O 943.574 -4.19407 9.29784 0
M  V30 7583 O 943.004 -5.24426 7.09156 0
M  V30 7584 O 943.544 -2.79386 7.20852 0
M  V30 7585 C 944.484 -1.7299 7.50419 0
M  V30 7586 C 943.754 -0.41401 7.5797 0
M  V30 7587 O 943.544 0.089787 6.22035 0
M  V30 7588 C 942.354 -0.447224 8.1878 0
M  V30 7589 O 941.964 0.825159 8.71201 0
M  V30 7590 C 941.474 -0.783801 6.99623 0
M  V30 7591 C 942.184 -0.0619192 5.85967 0
M  V30 7592 N 942.134 -0.7859 4.56281 0
M  V30 7593 C 941.984 -0.0359258 3.39981 0
M  V30 7594 O 941.894 1.19723 3.49038 0
M  V30 7595 N 941.934 -0.869151 2.14025 0
M  V30 7596 C 942.034 -2.01207 2.14363 0
M  V30 7597 N 941.984 -2.58978 0.954287 0
M  V30 7598 C 942.184 -2.80817 3.32215 0
M  V30 7599 C 942.234 -2.13785 4.50884 0
M  V30 7600 H 944.974 -1.93401 8.46693 0
M  V30 7601 H 945.244 -1.68181 6.71046 0
M  V30 7602 H 944.377 0.289076 8.15488 0
M  V30 7603 H 941.722 0.927166 5.72947 0
M  V30 7604 H 941.442 -1.87 6.82132 0
M  V30 7605 H 940.451 -0.404009 7.13457 0
M  V30 7606 H 942.285 -1.20599 8.97534 0
M  V30 7607 H 942.357 -2.70295 5.43162 0
M  V30 7608 H 942.255 -3.89465 3.27406 0
M  V30 7609 H 941.867 -2.01616 0.107046 0
M  V30 7610 H 942.063 -3.61403 0.873101 0
M  V30 7611 P 940.414 1.17771 8.83182 0
M  V30 7612 O 940.194 2.07206 9.98732 0
M  V30 7613 O 939.624 -0.0743816 8.81969 0
M  V30 7614 O 940.164 1.97652 7.47304 0
M  V30 7615 C 941.104 3.01133 7.08783 0
M  V30 7616 C 940.374 4.12613 6.37049 0
M  V30 7617 O 940.164 3.72827 4.97879 0
M  V30 7618 C 938.974 4.45085 6.88694 0
M  V30 7619 O 938.584 5.7877 6.5624 0
M  V30 7620 C 938.094 3.47817 6.12078 0
M  V30 7621 C 938.804 3.39414 4.77697 0
M  V30 7622 N 938.754 2.04615 4.15333 0
M  V30 7623 H 941.593 3.41248 7.98759 0
M  V30 7624 H 941.865 2.5837 6.41742 0
M  V30 7625 H 940.997 5.02657 6.42673 0
M  V30 7626 P 937.034 6.144 6.45285 0
M  V30 7627 O 936.814 7.54673 6.86199 0
M  V30 7628 O 936.244 5.12391 7.179 0
M  V30 7629 O 936.784 5.99158 4.88404 0
M  V30 7630 C 937.724 6.60234 3.96415 0
M  V30 7631 C 936.994 7.08259 2.72856 0
M  V30 7632 O 936.784 5.9427 1.83651 0
M  V30 7633 C 935.594 7.64886 2.9555 0
M  V30 7634 O 935.204 8.53963 1.90717 0
M  V30 7635 C 934.714 6.4116 2.90739 0
M  V30 7636 C 935.424 5.55375 1.86963 0
M  V30 7637 N 935.374 4.09448 2.16152 0
M  V30 7638 H 938.213 7.45574 4.45629 0
M  V30 7639 H 938.485 5.85864 3.679 0
M  V30 7640 H 937.617 7.84412 2.24479 0
M  V30 7641 H 934.962 5.73457 0.888562 0
M  V30 7642 H 934.682 5.90877 3.88583 0
M  V30 7643 H 933.691 6.6596 2.58858 0
M  V30 7644 H 935.525 8.16339 3.92049 0
M  V30 7645 P 933.655 8.7635 1.60911 0
M  V30 7646 O 933.435 10.1388 1.11561 0
M  V30 7647 O 932.865 8.36503 2.79617 0
M  V30 7648 O 933.405 7.71806 0.42951 0
M  V30 7649 C 934.345 7.67148 -0.673689 0
M  V30 7650 C 933.615 7.33374 -1.95559 0
M  V30 7651 O 933.405 5.88721 -2.00726 0
M  V30 7652 C 932.215 7.92526 -2.10483 0
M  V30 7653 O 931.825 8.02971 -3.47653 0
M  V30 7654 C 931.335 6.89602 -1.41652 0
M  V30 7655 C 932.045 5.59201 -1.75185 0
M  V30 7656 N 931.995 4.58235 -0.662552 0
M  V30 7657 H 934.834 8.65116 -0.777161 0
M  V30 7658 H 935.106 6.90173 -0.474152 0
M  V30 7659 H 934.238 7.66548 -2.79458 0
M  V30 7660 P 930.275 8.03563 -3.84925 0
M  V30 7661 O 930.055 8.85821 -5.0569 0
M  V30 7662 O 929.485 8.41101 -2.65469 0
M  V30 7663 O 930.025 6.4965 -4.18908 0
M  V30 7664 C 930.965 5.81037 -5.05421 0
M  V30 7665 C 930.235 4.78366 -5.89277 0
M  V30 7666 O 930.025 3.58302 -5.08433 0
M  V30 7667 C 928.835 5.17448 -6.36119 0
M  V30 7668 O 928.445 4.45271 -7.53232 0
M  V30 7669 C 927.955 4.74639 -5.19936 0
M  V30 7670 C 928.665 3.49432 -4.70418 0
M  V30 7671 N 928.615 3.32099 -3.22613 0
M  V30 7672 H 931.454 6.54213 -5.71376 0
M  V30 7673 H 931.726 5.30936 -4.43503 0
M  V30 7674 H 930.858 4.55889 -6.76652 0
M  V30 7675 H 928.203 2.61715 -5.17932 0
M  V30 7676 H 927.923 5.52155 -4.41878 0
M  V30 7677 H 926.932 4.51981 -5.53374 0
M  V30 7678 H 928.766 6.25124 -6.55234 0
M  V30 7679 P 926.895 4.23843 -7.83734 0
M  V30 7680 O 926.675 4.19407 -9.29784 0
M  V30 7681 O 926.105 5.24426 -7.09156 0
M  V30 7682 O 926.645 2.7935 -7.20758 0
M  V30 7683 C 927.585 1.7299 -7.50419 0
M  V30 7684 C 926.855 0.406376 -7.57911 0
M  V30 7685 O 926.645 -0.0897726 -6.21935 0
M  V30 7686 C 925.455 0.447224 -8.1878 0
M  V30 7687 O 925.065 -0.825065 -8.71101 0
M  V30 7688 C 924.575 0.783801 -6.99623 0
M  V30 7689 C 925.285 0.0619192 -5.85967 0
M  V30 7690 N 925.235 0.7859 -4.56281 0
M  V30 7691 H 928.074 1.93423 -8.4679 0
M  V30 7692 H 928.346 1.68181 -6.71046 0
M  V30 7693 H 927.478 -0.289041 -8.15388 0
M  V30 7694 P 923.515 -1.17771 -8.83182 0
M  V30 7695 O 923.295 -2.07206 -9.98732 0
M  V30 7696 O 922.725 0.0743816 -8.81969 0
M  V30 7697 O 923.265 -1.97652 -7.47304 0
M  V30 7698 C 924.205 -3.01055 -7.08599 0
M  V30 7699 C 923.475 -4.12613 -6.37049 0
M  V30 7700 O 923.265 -3.72827 -4.97879 0
M  V30 7701 C 922.075 -4.45719 -6.88164 0
M  V30 7702 O 921.685 -5.7877 -6.5624 0
M  V30 7703 C 921.195 -3.47768 -6.11991 0
M  V30 7704 C 921.905 -3.39356 -4.77615 0
M  V30 7705 N 921.855 -2.04571 -4.15244 0
M  V30 7706 C 921.705 -1.98587 -2.78314 0
M  V30 7707 O 921.615 -2.98134 -2.08835 0
M  V30 7708 N 921.665 -0.714467 -2.24925 0
M  V30 7709 C 921.755 0.470001 -2.94169 0
M  V30 7710 O 921.705 1.55587 -2.35195 0
M  V30 7711 C 921.905 0.312541 -4.36783 0
M  V30 7712 C 922.015 1.57711 -5.16352 0
M  V30 7713 C 921.955 -0.914512 -4.92583 0
M  V30 7714 H 924.696 -3.41169 -7.98575 0
M  V30 7715 H 924.965 -2.58295 -6.41556 0
M  V30 7716 H 924.098 -5.02657 -6.42673 0
M  V30 7717 H 921.443 -4.11637 -4.08885 0
M  V30 7718 H 921.164 -2.49626 -6.61679 0
M  V30 7719 H 920.172 -3.86566 -6.00778 0
M  V30 7720 H 922.006 -4.29943 -7.96918 0
M  V30 7721 H 922.077 -1.00937 -6.00374 0
M  V30 7722 H 921.047 1.80153 -5.63503 0
M  V30 7723 H 922.784 1.4566 -5.94104 0
M  V30 7724 H 922.296 2.40664 -4.49645 0
M  V30 7725 H 921.56 -0.647622 -1.25697 0
M  V30 7726 P 920.135 -6.144 -6.45285 0
M  V30 7727 O 919.915 -7.54673 -6.86199 0
M  V30 7728 O 919.345 -5.12391 -7.179 0
M  V30 7729 O 919.885 -5.99158 -4.88404 0
M  V30 7730 C 920.825 -6.60234 -3.96415 0
M  V30 7731 C 920.095 -7.08259 -2.72856 0
M  V30 7732 O 919.885 -5.9427 -1.83651 0
M  V30 7733 C 918.695 -7.64886 -2.9555 0
M  V30 7734 O 918.305 -8.53963 -1.90717 0
M  V30 7735 C 917.815 -6.4116 -2.90739 0
M  V30 7736 C 918.525 -5.55375 -1.86963 0
M  V30 7737 N 918.475 -4.09448 -2.16152 0
M  V30 7738 C 918.555 -3.46824 -3.37593 0
M  V30 7739 N 918.485 -2.17422 -3.29777 0
M  V30 7740 C 918.335 -1.93065 -1.94427 0
M  V30 7741 C 918.205 -0.738053 -1.20141 0
M  V30 7742 N 918.195 0.474256 -1.74676 0
M  V30 7743 N 918.085 -0.850049 0.13045 0
M  V30 7744 C 918.095 -2.06169 0.676992 0
M  V30 7745 N 918.215 -3.23842 0.101312 0
M  V30 7746 C 918.335 -3.09402 -1.23122 0
M  V30 7747 H 921.314 -7.45574 -4.45629 0
M  V30 7748 H 921.586 -5.85864 -3.679 0
M  V30 7749 H 920.718 -7.84412 -2.24479 0
M  V30 7750 H 918.063 -5.73457 -0.888562 0
M  V30 7751 H 917.783 -5.90877 -3.88583 0
M  V30 7752 H 916.792 -6.6596 -2.58858 0
M  V30 7753 H 918.626 -8.16339 -3.92049 0
M  V30 7754 H 918.667 -4.00505 -4.3174 0
M  V30 7755 H 918.286 0.581337 -2.76658 0
M  V30 7756 H 918.097 1.30811 -1.14888 0
M  V30 7757 H 917.989 -2.08295 1.75542 0
M  V30 7758 P 916.755 -8.7635 -1.60911 0
M  V30 7759 O 916.535 -10.1388 -1.11561 0
M  V30 7760 O 915.965 -8.36503 -2.79617 0
M  V30 7761 O 916.505 -7.71806 -0.42951 0
M  V30 7762 C 917.445 -7.66948 0.673514 0
M  V30 7763 C 916.715 -7.33374 1.95559 0
M  V30 7764 O 916.505 -5.88721 2.00726 0
M  V30 7765 C 915.315 -7.92218 2.1125 0
M  V30 7766 O 914.925 -8.02971 3.47653 0
M  V30 7767 C 914.435 -6.89504 1.41631 0
M  V30 7768 C 915.145 -5.59106 1.75155 0
M  V30 7769 N 915.095 -4.58136 0.662409 0
M  V30 7770 C 914.945 -3.26059 1.02863 0
M  V30 7771 O 914.855 -2.90743 2.19009 0
M  V30 7772 N 914.905 -2.35995 -0.0155585 0
M  V30 7773 C 914.995 -2.65248 -1.35603 0
M  V30 7774 O 914.945 -1.75605 -2.20651 0
M  V30 7775 C 915.145 -4.05747 -1.64698 0
M  V30 7776 C 915.255 -4.42345 -3.09553 0
M  V30 7777 C 915.195 -4.96734 -0.652411 0
M  V30 7778 H 917.936 -8.64917 0.776982 0
M  V30 7779 H 918.205 -6.89974 0.474015 0
M  V30 7780 H 917.338 -7.66548 2.79458 0
M  V30 7781 H 914.683 -5.16076 2.65138 0
M  V30 7782 H 914.404 -7.06433 0.329384 0
M  V30 7783 H 913.412 -6.90829 1.81996 0
M  V30 7784 H 915.246 -8.90774 1.62639 0
M  V30 7785 H 915.317 -6.02181 -0.895285 0
M  V30 7786 H 914.287 -4.80252 -3.45468 0
M  V30 7787 H 916.024 -5.20015 -3.22119 0
M  V30 7788 H 915.536 -3.53269 -3.67833 0
M  V30 7789 H 914.8 -1.39558 0.227499 0
M  V30 7790 P 913.375 -8.03563 3.84925 0
M  V30 7791 O 913.155 -8.85821 5.0569 0
M  V30 7792 O 912.585 -8.41101 2.65469 0
M  V30 7793 O 913.125 -6.4965 4.18908 0
M  V30 7794 C 914.065 -5.81037 5.05421 0
M  V30 7795 C 913.335 -4.78366 5.89277 0
M  V30 7796 O 913.125 -3.58302 5.08433 0
M  V30 7797 C 911.935 -5.17448 6.36119 0
M  V30 7798 O 911.545 -4.45271 7.53232 0
M  V30 7799 C 911.055 -4.74639 5.19936 0
M  V30 7800 C 911.765 -3.49432 4.70418 0
M  V30 7801 N 911.715 -3.31776 3.22945 0
M  V30 7802 H 914.554 -6.54213 5.71376 0
M  V30 7803 H 914.826 -5.30492 4.44033 0
M  V30 7804 H 913.958 -4.55889 6.76652 0
M  V30 7805 P 909.995 -4.23843 7.83734 0
M  V30 7806 O 909.775 -4.19407 9.29784 0
M  V30 7807 O 909.205 -5.24426 7.09156 0
M  V30 7808 O 909.745 -2.7935 7.20758 0
M  V30 7809 C 910.685 -1.7299 7.50419 0
M  V30 7810 C 909.955 -0.406376 7.57911 0
M  V30 7811 O 909.745 0.0897726 6.21935 0
M  V30 7812 C 908.555 -0.447224 8.1878 0
M  V30 7813 O 908.165 0.825065 8.71101 0
M  V30 7814 C 907.675 -0.783801 6.99623 0
M  V30 7815 C 908.385 -0.0619192 5.85967 0
M  V30 7816 N 908.335 -0.790462 4.56202 0
M  V30 7817 C 908.415 -2.13895 4.34171 0
M  V30 7818 N 908.345 -2.46449 3.08687 0
M  V30 7819 C 908.195 -1.2525 2.43697 0
M  V30 7820 C 908.065 -0.914535 1.07318 0
M  V30 7821 N 908.055 -1.80782 0.0887348 0
M  V30 7822 N 907.945 0.386745 0.768133 0
M  V30 7823 C 907.955 1.28096 1.75159 0
M  V30 7824 N 908.075 1.09708 3.04861 0
M  V30 7825 C 908.195 -0.214857 3.32306 0
M  V30 7826 H 911.174 -1.93423 8.4679 0
M  V30 7827 H 911.446 -1.68852 6.70877 0
M  V30 7828 H 910.578 0.289041 8.15388 0
M  V30 7829 H 907.923 0.927006 5.72848 0
M  V30 7830 H 907.643 -1.86973 6.82036 0
M  V30 7831 H 906.652 -0.403953 7.13357 0
M  V30 7832 H 908.486 -1.20599 8.97534 0
M  V30 7833 H 908.527 -2.86846 5.14318 0
M  V30 7834 H 908.146 -2.81082 0.302037 0
M  V30 7835 H 907.957 -1.49688 -0.889064 0
M  V30 7836 H 907.849 2.31317 1.43855 0
M  V30 7837 P 906.615 1.17771 8.83182 0
M  V30 7838 O 906.395 2.07206 9.98732 0
M  V30 7839 O 905.825 -0.0743816 8.81969 0
M  V30 7840 O 906.365 1.97652 7.47304 0
M  V30 7841 C 907.305 3.01055 7.08599 0
M  V30 7842 C 906.575 4.12613 6.37049 0
M  V30 7843 O 906.365 3.72827 4.97879 0
M  V30 7844 C 905.175 4.45719 6.88164 0
M  V30 7845 O 904.785 5.7877 6.5624 0
M  V30 7846 C 904.295 3.47768 6.11991 0
M  V30 7847 C 905.005 3.39356 4.77615 0
M  V30 7848 N 904.955 2.04571 4.15244 0
M  V30 7849 C 904.805 1.98587 2.78314 0
M  V30 7850 O 904.715 2.98134 2.08835 0
M  V30 7851 N 904.765 0.714467 2.24925 0
M  V30 7852 C 904.855 -0.470001 2.94169 0
M  V30 7853 O 904.805 -1.55587 2.35195 0
M  V30 7854 C 905.005 -0.312541 4.36783 0
M  V30 7855 C 905.115 -1.57711 5.16352 0
M  V30 7856 C 905.055 0.914512 4.92583 0
M  V30 7857 H 907.796 3.41169 7.98575 0
M  V30 7858 H 908.065 2.58295 6.41556 0
M  V30 7859 H 907.198 5.02657 6.42673 0
M  V30 7860 H 904.543 4.11637 4.08885 0
M  V30 7861 H 904.264 2.49626 6.61679 0
M  V30 7862 H 903.272 3.86566 6.00778 0
M  V30 7863 H 905.106 4.29943 7.96918 0
M  V30 7864 H 905.177 1.00937 6.00374 0
M  V30 7865 H 904.147 -1.80153 5.63503 0
M  V30 7866 H 905.884 -1.4566 5.94104 0
M  V30 7867 H 905.396 -2.40664 4.49645 0
M  V30 7868 H 904.66 0.647622 1.25697 0
M  V30 7869 P 903.235 6.144 6.45285 0
M  V30 7870 O 903.015 7.54673 6.86199 0
M  V30 7871 O 902.445 5.12391 7.179 0
M  V30 7872 O 902.985 5.99158 4.88404 0
M  V30 7873 C 903.925 6.60234 3.96415 0
M  V30 7874 C 903.195 7.08259 2.72856 0
M  V30 7875 O 902.985 5.9427 1.83651 0
M  V30 7876 C 901.795 7.64886 2.9555 0
M  V30 7877 O 901.405 8.53963 1.90717 0
M  V30 7878 C 900.915 6.4116 2.90739 0
M  V30 7879 C 901.625 5.55375 1.86963 0
M  V30 7880 N 901.575 4.09664 2.15742 0
M  V30 7881 H 904.414 7.45574 4.45629 0
M  V30 7882 H 904.686 5.86232 3.67314 0
M  V30 7883 H 903.818 7.84412 2.24479 0
M  V30 7884 P 899.855 8.7635 1.60911 0
M  V30 7885 O 899.635 10.1388 1.11561 0
M  V30 7886 O 899.065 8.36503 2.79617 0
M  V30 7887 O 899.605 7.71906 0.429565 0
M  V30 7888 C 900.545 7.67148 -0.673689 0
M  V30 7889 C 899.815 7.33666 -1.94851 0
M  V30 7890 O 899.605 5.88816 -2.00759 0
M  V30 7891 C 898.415 7.92526 -2.10483 0
M  V30 7892 O 898.025 8.03063 -3.47693 0
M  V30 7893 C 897.535 6.89602 -1.41652 0
M  V30 7894 C 898.245 5.59201 -1.75185 0
M  V30 7895 N 898.195 4.58235 -0.662552 0
M  V30 7896 C 898.045 3.24451 -1.01643 0
M  V30 7897 O 897.955 2.94958 -2.21722 0
M  V30 7898 N 897.995 2.30408 0.165238 0
M  V30 7899 C 898.095 2.66048 1.25118 0
M  V30 7900 N 898.045 1.70787 2.16813 0
M  V30 7901 C 898.245 4.02732 1.64413 0
M  V30 7902 C 898.295 4.9488 0.63991 0
M  V30 7903 H 901.035 8.65017 -0.777072 0
M  V30 7904 H 901.305 6.90173 -0.474152 0
M  V30 7905 H 900.438 7.66642 -2.79492 0
M  V30 7906 H 897.783 5.16254 -2.65229 0
M  V30 7907 H 897.503 7.06532 -0.329431 0
M  V30 7908 H 896.512 6.91023 -1.82047 0
M  V30 7909 H 898.346 8.90873 -1.62657 0
M  V30 7910 H 898.418 6.00104 0.892197 0
M  V30 7911 H 898.316 4.31733 2.69229 0
M  V30 7912 H 897.928 0.724835 1.8844 0
M  V30 7913 H 898.124 1.94716 3.16734 0
M  V30 7914 P 896.475 8.03563 -3.84925 0
M  V30 7915 O 896.255 8.85821 -5.0569 0
M  V30 7916 O 895.685 8.41101 -2.65469 0
M  V30 7917 O 896.225 6.4965 -4.18908 0
M  V30 7918 C 897.165 5.81037 -5.05421 0
M  V30 7919 C 896.435 4.78366 -5.89277 0
M  V30 7920 O 896.225 3.58302 -5.08433 0
M  V30 7921 C 895.035 5.17448 -6.36119 0
M  V30 7922 O 894.645 4.45271 -7.53232 0
M  V30 7923 C 894.155 4.74639 -5.19936 0
M  V30 7924 C 894.865 3.49432 -4.70418 0
M  V30 7925 N 894.815 3.31776 -3.22945 0
M  V30 7926 H 897.654 6.54213 -5.71376 0
M  V30 7927 H 897.926 5.30492 -4.44033 0
M  V30 7928 H 897.058 4.55889 -6.76652 0
M  V30 7929 P 893.095 4.23843 -7.83734 0
M  V30 7930 O 892.875 4.19407 -9.29784 0
M  V30 7931 O 892.305 5.24426 -7.09156 0
M  V30 7932 O 892.845 2.7935 -7.20758 0
M  V30 7933 C 893.785 1.7299 -7.50419 0
M  V30 7934 C 893.055 0.406376 -7.57911 0
M  V30 7935 O 892.845 -0.0897726 -6.21935 0
M  V30 7936 C 891.655 0.447224 -8.1878 0
M  V30 7937 O 891.265 -0.825065 -8.71101 0
M  V30 7938 C 890.775 0.783801 -6.99623 0
M  V30 7939 C 891.485 0.0619192 -5.85967 0
M  V30 7940 N 891.435 0.7859 -4.56281 0
M  V30 7941 H 894.274 1.93423 -8.4679 0
M  V30 7942 H 894.546 1.68181 -6.71046 0
M  V30 7943 H 893.678 -0.289041 -8.15388 0
M  V30 7944 P 889.715 -1.17771 -8.83182 0
M  V30 7945 O 889.495 -2.07206 -9.98732 0
M  V30 7946 O 888.925 0.0743816 -8.81969 0
M  V30 7947 O 889.465 -1.97678 -7.474 0
M  V30 7948 C 890.405 -3.01133 -7.08783 0
M  V30 7949 C 889.675 -4.1203 -6.37546 0
M  V30 7950 O 889.465 -3.72887 -4.9796 0
M  V30 7951 C 888.275 -4.45085 -6.88694 0
M  V30 7952 O 887.885 -5.78836 -6.56315 0
M  V30 7953 C 887.395 -3.47817 -6.12078 0
M  V30 7954 C 888.105 -3.39414 -4.77697 0
M  V30 7955 N 888.055 -2.04615 -4.15333 0
M  V30 7956 C 887.905 -1.96929 -2.77162 0
M  V30 7957 O 887.815 -3.02017 -2.12006 0
M  V30 7958 N 887.855 -0.55485 -2.24237 0
M  V30 7959 C 887.955 0.367808 -2.9169 0
M  V30 7960 N 887.905 1.53426 -2.29427 0
M  V30 7961 C 888.105 0.319148 -4.33828 0
M  V30 7962 C 888.155 -0.920672 -4.90433 0
M  V30 7963 H 890.895 -3.41209 -7.98667 0
M  V30 7964 H 891.165 -2.5837 -6.41742 0
M  V30 7965 H 890.298 -5.02718 -6.42752 0
M  V30 7966 H 887.643 -4.11779 -4.09026 0
M  V30 7967 H 887.363 -2.49661 -6.61772 0
M  V30 7968 H 886.372 -3.86674 -6.00946 0
M  V30 7969 H 888.206 -4.29991 -7.97006 0
M  V30 7970 H 888.278 -1.00589 -5.98303 0
M  V30 7971 H 888.176 1.22639 -4.93799 0
M  V30 7972 H 887.788 1.56819 -1.27167 0
M  V30 7973 H 887.984 2.41062 -2.83063 0
M  V30 7974 P 886.335 -6.144 -6.45285 0
M  V30 7975 O 886.115 -7.54673 -6.86199 0
M  V30 7976 O 885.545 -5.12391 -7.179 0
M  V30 7977 O 886.085 -5.99236 -4.88467 0
M  V30 7978 C 887.025 -6.60234 -3.96415 0
M  V30 7979 C 886.295 -7.08079 -2.736 0
M  V30 7980 O 886.085 -5.94365 -1.8368 0
M  V30 7981 C 884.895 -7.64886 -2.9555 0
M  V30 7982 O 884.505 -8.5406 -1.90739 0
M  V30 7983 C 884.015 -6.4116 -2.90739 0
M  V30 7984 C 884.725 -5.55375 -1.86963 0
M  V30 7985 N 884.675 -4.09664 -2.15742 0
M  V30 7986 C 884.525 -3.22231 -1.08477 0
M  V30 7987 O 884.435 -3.68951 0.0600489 0
M  V30 7988 N 884.475 -1.76692 -1.48799 0
M  V30 7989 C 884.575 -1.41695 -2.57602 0
M  V30 7990 N 884.525 -0.107296 -2.75791 0
M  V30 7991 C 884.725 -2.29178 -3.69733 0
M  V30 7992 C 884.775 -3.62753 -3.42653 0
M  V30 7993 H 887.515 -7.45488 -4.45578 0
M  V30 7994 H 887.785 -5.86232 -3.67314 0
M  V30 7995 H 886.918 -7.84508 -2.24507 0
M  V30 7996 H 884.263 -5.73556 -0.888715 0
M  V30 7997 H 883.983 -5.9096 -3.88638 0
M  V30 7998 H 882.992 -6.66053 -2.58894 0
M  V30 7999 H 884.826 -8.16339 -3.92049 0
M  V30 8000 H 884.898 -4.33052 -4.24913 0
M  V30 8001 H 884.796 -1.9103 -4.71577 0
M  V30 8002 H 884.408 0.521221 -1.95056 0
M  V30 8003 H 884.604 0.286429 -3.70695 0
M  V30 8004 P 882.955 -8.7635 -1.60911 0
M  V30 8005 O 882.735 -10.1388 -1.11561 0
M  V30 8006 O 882.165 -8.36503 -2.79617 0
M  V30 8007 O 882.705 -7.71906 -0.429565 0
M  V30 8008 C 883.645 -7.67148 0.673689 0
M  V30 8009 C 882.915 -7.33666 1.94851 0
M  V30 8010 O 882.705 -5.88816 2.00759 0
M  V30 8011 C 881.515 -7.92526 2.10483 0
M  V30 8012 O 881.125 -8.03063 3.47693 0
M  V30 8013 C 880.635 -6.89602 1.41652 0
M  V30 8014 C 881.345 -5.59201 1.75185 0
M  V30 8015 N 881.295 -4.58235 0.662552 0
M  V30 8016 C 881.145 -3.24451 1.01643 0
M  V30 8017 O 881.055 -2.94958 2.21722 0
M  V30 8018 N 881.095 -2.30408 -0.165238 0
M  V30 8019 C 881.195 -2.66048 -1.25118 0
M  V30 8020 N 881.145 -1.70787 -2.16813 0
M  V30 8021 C 881.345 -4.02732 -1.64413 0
M  V30 8022 C 881.395 -4.9488 -0.63991 0
M  V30 8023 H 884.135 -8.65017 0.777072 0
M  V30 8024 H 884.405 -6.90173 0.474152 0
M  V30 8025 H 883.538 -7.66642 2.79492 0
M  V30 8026 H 880.883 -5.16254 2.65229 0
M  V30 8027 H 880.603 -7.06532 0.329431 0
M  V30 8028 H 879.612 -6.91023 1.82047 0
M  V30 8029 H 881.446 -8.90873 1.62657 0
M  V30 8030 H 881.518 -6.00104 -0.892197 0
M  V30 8031 H 881.416 -4.31733 -2.69229 0
M  V30 8032 H 881.028 -0.724835 -1.8844 0
M  V30 8033 H 881.224 -1.94716 -3.16734 0
M  V30 8034 P 879.575 -8.03563 3.84925 0
M  V30 8035 O 879.355 -8.85821 5.0569 0
M  V30 8036 O 878.785 -8.41101 2.65469 0
M  V30 8037 O 879.325 -6.4965 4.18908 0
M  V30 8038 C 880.265 -5.81037 5.05421 0
M  V30 8039 C 879.535 -4.78366 5.89277 0
M  V30 8040 O 879.325 -3.58302 5.08433 0
M  V30 8041 C 878.135 -5.17448 6.36119 0
M  V30 8042 O 877.745 -4.45271 7.53232 0
M  V30 8043 C 877.255 -4.74639 5.19936 0
M  V30 8044 C 877.965 -3.49432 4.70418 0
M  V30 8045 N 877.915 -3.31776 3.22945 0
M  V30 8046 H 880.754 -6.54213 5.71376 0
M  V30 8047 H 881.026 -5.30492 4.44033 0
M  V30 8048 H 880.158 -4.55889 6.76652 0
M  V30 8049 P 876.195 -4.23843 7.83734 0
M  V30 8050 O 875.975 -4.19407 9.29784 0
M  V30 8051 O 875.405 -5.24426 7.09156 0
M  V30 8052 O 875.945 -2.7935 7.20758 0
M  V30 8053 C 876.885 -1.72945 7.50224 0
M  V30 8054 C 876.155 -0.406376 7.57911 0
M  V30 8055 O 875.945 0.0897726 6.21935 0
M  V30 8056 C 874.755 -0.438983 8.18724 0
M  V30 8057 O 874.365 0.825065 8.71101 0
M  V30 8058 C 873.875 -0.783689 6.99524 0
M  V30 8059 C 874.585 -0.0619086 5.85867 0
M  V30 8060 N 874.535 -0.78573 4.56183 0
M  V30 8061 C 874.385 -0.0292889 3.41887 0
M  V30 8062 O 874.295 1.18445 3.4419 0
M  V30 8063 N 874.345 -0.744061 2.23964 0
M  V30 8064 C 874.435 -2.10932 2.10362 0
M  V30 8065 C 874.585 -2.8202 3.34994 0
M  V30 8066 C 874.635 -2.15547 4.52261 0
M  V30 8067 H 877.376 -1.93379 8.46595 0
M  V30 8068 H 877.645 -1.68132 6.70852 0
M  V30 8069 H 876.778 0.289041 8.15388 0
M  V30 8070 H 874.123 0.926847 5.72749 0
M  V30 8071 H 873.844 -1.86973 6.82036 0
M  V30 8072 H 872.852 -0.403896 7.13257 0
M  V30 8073 H 874.686 -1.20585 8.97435 0
M  V30 8074 H 874.757 -2.71231 5.45042 0
M  V30 8075 P 872.815 1.17771 8.83182 0
M  V30 8076 O 872.595 2.07206 9.98732 0
M  V30 8077 O 872.025 -0.0743816 8.81969 0
M  V30 8078 O 872.565 1.97652 7.47304 0
M  V30 8079 C 873.505 3.01133 7.08783 0
M  V30 8080 C 872.775 4.12613 6.37049 0
M  V30 8081 O 872.565 3.72827 4.97879 0
M  V30 8082 C 871.375 4.45085 6.88694 0
M  V30 8083 O 870.985 5.7877 6.5624 0
M  V30 8084 C 870.495 3.47817 6.12078 0
M  V30 8085 C 871.205 3.39414 4.77697 0
M  V30 8086 N 871.155 2.04615 4.15333 0
M  V30 8087 H 873.994 3.41248 7.98759 0
M  V30 8088 H 874.266 2.5837 6.41742 0
M  V30 8089 H 873.398 5.02657 6.42673 0
M  V30 8090 P 869.435 6.144 6.45285 0
M  V30 8091 O 869.215 7.54673 6.86199 0
M  V30 8092 O 868.645 5.12391 7.179 0
M  V30 8093 O 869.185 5.99158 4.88404 0
M  V30 8094 C 870.125 6.60234 3.96415 0
M  V30 8095 C 869.395 7.08259 2.72856 0
M  V30 8096 O 869.185 5.9427 1.83651 0
M  V30 8097 C 867.995 7.64886 2.9555 0
M  V30 8098 O 867.605 8.53963 1.90717 0
M  V30 8099 C 867.115 6.4116 2.90739 0
M  V30 8100 C 867.825 5.55375 1.86963 0
M  V30 8101 N 867.775 4.09664 2.15742 0
M  V30 8102 H 870.614 7.45574 4.45629 0
M  V30 8103 H 870.886 5.86232 3.67314 0
M  V30 8104 H 870.018 7.84412 2.24479 0
M  V30 8105 P 866.055 8.7635 1.60911 0
M  V30 8106 O 865.835 10.1388 1.11561 0
M  V30 8107 O 865.265 8.36503 2.79617 0
M  V30 8108 O 865.805 7.71806 0.42951 0
M  V30 8109 C 866.745 7.67148 -0.673689 0
M  V30 8110 C 866.015 7.33374 -1.95559 0
M  V30 8111 O 865.805 5.88721 -2.00726 0
M  V30 8112 C 864.615 7.92526 -2.10483 0
M  V30 8113 O 864.225 8.02971 -3.47653 0
M  V30 8114 C 863.735 6.89602 -1.41652 0
M  V30 8115 C 864.445 5.59201 -1.75185 0
M  V30 8116 N 864.395 4.58235 -0.662552 0
M  V30 8117 H 867.234 8.65116 -0.777161 0
M  V30 8118 H 867.506 6.90173 -0.474152 0
M  V30 8119 H 866.638 7.66548 -2.79458 0
M  V30 8120 P 862.675 8.03563 -3.84925 0
M  V30 8121 O 862.455 8.85821 -5.0569 0
M  V30 8122 O 861.885 8.41101 -2.65469 0
M  V30 8123 O 862.425 6.4965 -4.18908 0
M  V30 8124 C 863.365 5.81037 -5.05421 0
M  V30 8125 C 862.635 4.78366 -5.89277 0
M  V30 8126 O 862.425 3.58302 -5.08433 0
M  V30 8127 C 861.235 5.17448 -6.36119 0
M  V30 8128 O 860.845 4.45271 -7.53232 0
M  V30 8129 C 860.355 4.74639 -5.19936 0
M  V30 8130 C 861.065 3.49432 -4.70418 0
M  V30 8131 N 861.015 3.31776 -3.22945 0
M  V30 8132 H 863.854 6.54213 -5.71376 0
M  V30 8133 H 864.126 5.30492 -4.44033 0
M  V30 8134 H 863.258 4.55889 -6.76652 0
M  V30 8135 P 859.295 4.23843 -7.83734 0
M  V30 8136 O 859.075 4.19407 -9.29784 0
M  V30 8137 O 858.505 5.24426 -7.09156 0
M  V30 8138 O 859.045 2.7935 -7.20758 0
M  V30 8139 C 859.985 1.7299 -7.50419 0
M  V30 8140 C 859.255 0.406376 -7.57911 0
M  V30 8141 O 859.045 -0.0897726 -6.21935 0
M  V30 8142 C 857.855 0.447224 -8.1878 0
M  V30 8143 O 857.465 -0.825065 -8.71101 0
M  V30 8144 C 856.975 0.783801 -6.99623 0
M  V30 8145 C 857.685 0.0619192 -5.85967 0
M  V30 8146 N 857.635 0.7859 -4.56281 0
M  V30 8147 H 860.474 1.93423 -8.4679 0
M  V30 8148 H 860.746 1.68181 -6.71046 0
M  V30 8149 H 859.878 -0.289041 -8.15388 0
M  V30 8150 P 855.915 -1.17771 -8.83182 0
M  V30 8151 O 855.695 -2.07206 -9.98732 0
M  V30 8152 O 855.125 0.0743816 -8.81969 0
M  V30 8153 O 855.665 -1.97652 -7.47304 0
M  V30 8154 C 856.605 -3.01133 -7.08783 0
M  V30 8155 C 855.875 -4.12613 -6.37049 0
M  V30 8156 O 855.665 -3.72827 -4.97879 0
M  V30 8157 C 854.475 -4.45085 -6.88694 0
M  V30 8158 O 854.085 -5.7877 -6.5624 0
M  V30 8159 C 853.595 -3.47817 -6.12078 0
M  V30 8160 C 854.305 -3.39414 -4.77697 0
M  V30 8161 N 854.255 -2.04615 -4.15333 0
M  V30 8162 H 857.094 -3.41248 -7.98759 0
M  V30 8163 H 857.366 -2.5837 -6.41742 0
M  V30 8164 H 856.498 -5.02657 -6.42673 0
M  V30 8165 P 852.535 -6.144 -6.45285 0
M  V30 8166 O 852.315 -7.54673 -6.86199 0
M  V30 8167 O 851.745 -5.12391 -7.179 0
M  V30 8168 O 852.285 -5.99158 -4.88404 0
M  V30 8169 C 853.225 -6.60234 -3.96415 0
M  V30 8170 C 852.495 -7.08259 -2.72856 0
M  V30 8171 O 852.285 -5.9427 -1.83651 0
M  V30 8172 C 851.095 -7.64886 -2.9555 0
M  V30 8173 O 850.705 -8.53963 -1.90717 0
M  V30 8174 C 850.215 -6.4116 -2.90739 0
M  V30 8175 C 850.925 -5.55375 -1.86963 0
M  V30 8176 N 850.875 -4.09664 -2.15742 0
M  V30 8177 H 853.714 -7.45574 -4.45629 0
M  V30 8178 H 853.986 -5.86232 -3.67314 0
M  V30 8179 H 853.118 -7.84412 -2.24479 0
M  V30 8180 P 849.155 -8.7635 -1.60911 0
M  V30 8181 O 848.935 -10.1388 -1.11561 0
M  V30 8182 O 848.365 -8.36503 -2.79617 0
M  V30 8183 O 848.905 -7.71806 -0.42951 0
M  V30 8184 C 849.845 -7.67148 0.673689 0
M  V30 8185 C 849.115 -7.33374 1.95559 0
M  V30 8186 O 848.905 -5.88721 2.00726 0
M  V30 8187 C 847.715 -7.92526 2.10483 0
M  V30 8188 O 847.325 -8.02971 3.47653 0
M  V30 8189 C 846.835 -6.89602 1.41652 0
M  V30 8190 C 847.545 -5.59201 1.75185 0
M  V30 8191 N 847.495 -4.58235 0.662552 0
M  V30 8192 H 850.334 -8.65116 0.777161 0
M  V30 8193 H 850.606 -6.90173 0.474152 0
M  V30 8194 H 849.738 -7.66548 2.79458 0
M  V30 8195 P 845.775 -8.03563 3.84925 0
M  V30 8196 O 845.555 -8.85821 5.0569 0
M  V30 8197 O 844.985 -8.41101 2.65469 0
M  V30 8198 O 845.525 -6.4965 4.18908 0
M  V30 8199 C 846.465 -5.80886 5.05289 0
M  V30 8200 C 845.735 -4.78366 5.89277 0
M  V30 8201 O 845.525 -3.58302 5.08433 0
M  V30 8202 C 844.335 -5.16748 6.36559 0
M  V30 8203 O 843.945 -4.45271 7.53232 0
M  V30 8204 C 843.455 -4.74572 5.19863 0
M  V30 8205 C 844.165 -3.49373 4.70338 0
M  V30 8206 N 844.115 -3.31704 3.22876 0
M  V30 8207 C 843.965 -2.03326 2.74871 0
M  V30 8208 O 843.875 -1.06486 3.48076 0
M  V30 8209 N 843.925 -1.91838 1.37456 0
M  V30 8210 C 844.015 -2.94295 0.462035 0
M  V30 8211 C 844.165 -4.25064 1.05249 0
M  V30 8212 C 844.215 -4.40214 2.39192 0
M  V30 8213 H 846.956 -6.54063 5.71245 0
M  V30 8214 H 847.225 -5.30339 4.43905 0
M  V30 8215 H 846.358 -4.55889 6.76652 0
M  V30 8216 H 843.703 -2.6167 5.17842 0
M  V30 8217 H 843.424 -5.52155 4.41878 0
M  V30 8218 H 842.432 -4.51918 5.53297 0
M  V30 8219 H 844.266 -6.25055 6.55162 0
M  V30 8220 H 844.337 -5.39798 2.81523 0
M  V30 8221 P 842.395 -4.23843 7.83734 0
M  V30 8222 O 842.175 -4.19407 9.29784 0
M  V30 8223 O 841.605 -5.24426 7.09156 0
M  V30 8224 O 842.145 -2.7935 7.20758 0
M  V30 8225 C 843.085 -1.7299 7.50419 0
M  V30 8226 C 842.355 -0.406376 7.57911 0
M  V30 8227 O 842.145 0.0897726 6.21935 0
M  V30 8228 C 840.955 -0.447224 8.1878 0
M  V30 8229 O 840.565 0.825065 8.71101 0
M  V30 8230 C 840.075 -0.783801 6.99623 0
M  V30 8231 C 840.785 -0.0619192 5.85967 0
M  V30 8232 N 840.735 -0.790462 4.56202 0
M  V30 8233 H 843.574 -1.93423 8.4679 0
M  V30 8234 H 843.846 -1.68852 6.70877 0
M  V30 8235 H 842.978 0.289041 8.15388 0
M  V30 8236 H 840.323 0.927006 5.72848 0
M  V30 8237 H 840.043 -1.86973 6.82036 0
M  V30 8238 H 839.052 -0.403953 7.13357 0
M  V30 8239 H 840.886 -1.20599 8.97534 0
M  V30 8240 P 839.015 1.17771 8.83182 0
M  V30 8241 O 838.795 2.07206 9.98732 0
M  V30 8242 O 838.225 -0.0743816 8.81969 0
M  V30 8243 O 838.765 1.97652 7.47304 0
M  V30 8244 C 839.705 3.01055 7.08599 0
M  V30 8245 C 838.975 4.12613 6.37049 0
M  V30 8246 O 838.765 3.72827 4.97879 0
M  V30 8247 C 837.575 4.45719 6.88164 0
M  V30 8248 O 837.185 5.7877 6.5624 0
M  V30 8249 C 836.695 3.47768 6.11991 0
M  V30 8250 C 837.405 3.39356 4.77615 0
M  V30 8251 N 837.355 2.04571 4.15244 0
M  V30 8252 C 837.205 1.98587 2.78314 0
M  V30 8253 O 837.115 2.98134 2.08835 0
M  V30 8254 N 837.165 0.714467 2.24925 0
M  V30 8255 C 837.255 -0.470001 2.94169 0
M  V30 8256 C 837.405 -0.312541 4.36783 0
M  V30 8257 C 837.455 0.914512 4.92583 0
M  V30 8258 H 840.196 3.41169 7.98575 0
M  V30 8259 H 840.465 2.58295 6.41556 0
M  V30 8260 H 839.598 5.02657 6.42673 0
M  V30 8261 H 836.943 4.11637 4.08885 0
M  V30 8262 H 836.664 2.49626 6.61679 0
M  V30 8263 H 835.672 3.86566 6.00778 0
M  V30 8264 H 837.506 4.29943 7.96918 0
M  V30 8265 H 837.577 1.00937 6.00374 0
M  V30 8266 P 835.635 6.144 6.45285 0
M  V30 8267 O 835.415 7.54673 6.86199 0
M  V30 8268 O 834.845 5.12391 7.179 0
M  V30 8269 O 835.385 5.99158 4.88404 0
M  V30 8270 C 836.325 6.60234 3.96415 0
M  V30 8271 C 835.595 7.08259 2.72856 0
M  V30 8272 O 835.385 5.9427 1.83651 0
M  V30 8273 C 834.195 7.64886 2.9555 0
M  V30 8274 O 833.805 8.53963 1.90717 0
M  V30 8275 C 833.315 6.4116 2.90739 0
M  V30 8276 C 834.025 5.55375 1.86963 0
M  V30 8277 N 833.975 4.09448 2.16152 0
M  V30 8278 H 836.814 7.45574 4.45629 0
M  V30 8279 H 837.086 5.85864 3.679 0
M  V30 8280 H 836.218 7.84412 2.24479 0
M  V30 8281 H 833.563 5.73457 0.888562 0
M  V30 8282 H 833.283 5.90877 3.88583 0
M  V30 8283 H 832.292 6.6596 2.58858 0
M  V30 8284 H 834.126 8.16339 3.92049 0
M  V30 8285 P 832.255 8.7635 1.60911 0
M  V30 8286 O 832.035 10.1388 1.11561 0
M  V30 8287 O 831.465 8.36503 2.79617 0
M  V30 8288 O 832.005 7.71806 0.42951 0
M  V30 8289 C 832.945 7.67148 -0.673689 0
M  V30 8290 C 832.215 7.33374 -1.95559 0
M  V30 8291 O 832.005 5.88721 -2.00726 0
M  V30 8292 C 830.815 7.92526 -2.10483 0
M  V30 8293 O 830.425 8.02971 -3.47653 0
M  V30 8294 C 829.935 6.89602 -1.41652 0
M  V30 8295 C 830.645 5.59201 -1.75185 0
M  V30 8296 N 830.595 4.58235 -0.662552 0
M  V30 8297 H 833.434 8.65116 -0.777161 0
M  V30 8298 H 833.706 6.90173 -0.474152 0
M  V30 8299 H 832.838 7.66548 -2.79458 0
M  V30 8300 P 828.875 8.03563 -3.84925 0
M  V30 8301 O 828.655 8.85821 -5.0569 0
M  V30 8302 O 828.085 8.41101 -2.65469 0
M  V30 8303 O 828.625 6.4965 -4.18908 0
M  V30 8304 C 829.565 5.81037 -5.05421 0
M  V30 8305 C 828.835 4.78366 -5.89277 0
M  V30 8306 O 828.625 3.58302 -5.08433 0
M  V30 8307 C 827.435 5.17448 -6.36119 0
M  V30 8308 O 827.045 4.45271 -7.53232 0
M  V30 8309 C 826.555 4.74639 -5.19936 0
M  V30 8310 C 827.265 3.49432 -4.70418 0
M  V30 8311 N 827.215 3.31776 -3.22945 0
M  V30 8312 H 830.054 6.54213 -5.71376 0
M  V30 8313 H 830.326 5.30492 -4.44033 0
M  V30 8314 H 829.458 4.55889 -6.76652 0
M  V30 8315 P 825.495 4.23843 -7.83734 0
M  V30 8316 O 825.275 4.19407 -9.29784 0
M  V30 8317 O 824.705 5.24426 -7.09156 0
M  V30 8318 O 825.245 2.79386 -7.20852 0
M  V30 8319 C 826.185 1.7299 -7.50419 0
M  V30 8320 C 825.455 0.41401 -7.5797 0
M  V30 8321 O 825.245 -0.089787 -6.22035 0
M  V30 8322 C 824.055 0.447224 -8.1878 0
M  V30 8323 O 823.665 -0.825159 -8.71201 0
M  V30 8324 C 823.175 0.783801 -6.99623 0
M  V30 8325 C 823.885 0.0619192 -5.85967 0
M  V30 8326 N 823.835 0.7859 -4.56281 0
M  V30 8327 C 823.685 0.0359258 -3.39981 0
M  V30 8328 O 823.595 -1.19723 -3.49038 0
M  V30 8329 N 823.635 0.869151 -2.14025 0
M  V30 8330 C 823.735 2.01207 -2.14363 0
M  V30 8331 N 823.685 2.58978 -0.954287 0
M  V30 8332 C 823.885 2.80817 -3.32215 0
M  V30 8333 C 823.935 2.13785 -4.50884 0
M  V30 8334 H 826.675 1.93401 -8.46693 0
M  V30 8335 H 826.945 1.68181 -6.71046 0
M  V30 8336 H 826.078 -0.289076 -8.15488 0
M  V30 8337 H 823.423 -0.927166 -5.72947 0
M  V30 8338 H 823.143 1.87 -6.82132 0
M  V30 8339 H 822.152 0.404009 -7.13457 0
M  V30 8340 H 823.986 1.20599 -8.97534 0
M  V30 8341 H 824.058 2.70295 -5.43162 0
M  V30 8342 H 823.956 3.89465 -3.27406 0
M  V30 8343 H 823.568 2.01616 -0.107046 0
M  V30 8344 H 823.764 3.61403 -0.873101 0
M  V30 8345 P 822.115 -1.17771 -8.83182 0
M  V30 8346 O 821.895 -2.07206 -9.98732 0
M  V30 8347 O 821.325 0.0743816 -8.81969 0
M  V30 8348 O 821.865 -1.97652 -7.47304 0
M  V30 8349 C 822.805 -3.01133 -7.08783 0
M  V30 8350 C 822.075 -4.12613 -6.37049 0
M  V30 8351 O 821.865 -3.72827 -4.97879 0
M  V30 8352 C 820.675 -4.45085 -6.88694 0
M  V30 8353 O 820.285 -5.7877 -6.5624 0
M  V30 8354 C 819.795 -3.47817 -6.12078 0
M  V30 8355 C 820.505 -3.39414 -4.77697 0
M  V30 8356 N 820.455 -2.04615 -4.15333 0
M  V30 8357 H 823.294 -3.41248 -7.98759 0
M  V30 8358 H 823.566 -2.5837 -6.41742 0
M  V30 8359 H 822.698 -5.02657 -6.42673 0
M  V30 8360 P 818.735 -6.144 -6.45285 0
M  V30 8361 O 818.515 -7.54673 -6.86199 0
M  V30 8362 O 817.945 -5.12391 -7.179 0
M  V30 8363 O 818.485 -5.99158 -4.88404 0
M  V30 8364 C 819.425 -6.60234 -3.96415 0
M  V30 8365 C 818.695 -7.08259 -2.72856 0
M  V30 8366 O 818.485 -5.9427 -1.83651 0
M  V30 8367 C 817.295 -7.64886 -2.9555 0
M  V30 8368 O 816.905 -8.53963 -1.90717 0
M  V30 8369 C 816.415 -6.4116 -2.90739 0
M  V30 8370 C 817.125 -5.55375 -1.86963 0
M  V30 8371 N 817.075 -4.09664 -2.15742 0
M  V30 8372 H 819.914 -7.45574 -4.45629 0
M  V30 8373 H 820.186 -5.86232 -3.67314 0
M  V30 8374 H 819.318 -7.84412 -2.24479 0
M  V30 8375 P 815.355 -8.7635 -1.60911 0
M  V30 8376 O 815.135 -10.1388 -1.11561 0
M  V30 8377 O 814.565 -8.36503 -2.79617 0
M  V30 8378 O 815.105 -7.71806 -0.42951 0
M  V30 8379 C 816.045 -7.67148 0.673689 0
M  V30 8380 C 815.315 -7.33374 1.95559 0
M  V30 8381 O 815.105 -5.88721 2.00726 0
M  V30 8382 C 813.915 -7.92526 2.10483 0
M  V30 8383 O 813.525 -8.02971 3.47653 0
M  V30 8384 C 813.035 -6.89602 1.41652 0
M  V30 8385 C 813.745 -5.59201 1.75185 0
M  V30 8386 N 813.695 -4.58301 0.657969 0
M  V30 8387 H 816.534 -8.65116 0.777161 0
M  V30 8388 H 816.806 -6.9022 0.46725 0
M  V30 8389 H 815.938 -7.66548 2.79458 0
M  V30 8390 H 813.283 -5.16165 2.65183 0
M  V30 8391 H 813.003 -7.06433 0.329384 0
M  V30 8392 H 812.012 -6.90926 1.82021 0
M  V30 8393 H 813.846 -8.90873 1.62657 0
M  V30 8394 P 811.975 -8.03563 3.84925 0
M  V30 8395 O 811.755 -8.85821 5.0569 0
M  V30 8396 O 811.185 -8.41101 2.65469 0
M  V30 8397 O 811.725 -6.4965 4.18908 0
M  V30 8398 C 812.665 -5.81037 5.05421 0
M  V30 8399 C 811.935 -4.78366 5.89277 0
M  V30 8400 O 811.725 -3.58302 5.08433 0
M  V30 8401 C 810.535 -5.17448 6.36119 0
M  V30 8402 O 810.145 -4.45271 7.53232 0
M  V30 8403 C 809.655 -4.74639 5.19936 0
M  V30 8404 C 810.365 -3.49432 4.70418 0
M  V30 8405 N 810.315 -3.31776 3.22945 0
M  V30 8406 H 813.154 -6.54213 5.71376 0
M  V30 8407 H 813.426 -5.30492 4.44033 0
M  V30 8408 H 812.558 -4.55889 6.76652 0
M  V30 8409 P 808.595 -4.23843 7.83734 0
M  V30 8410 O 808.375 -4.19407 9.29784 0
M  V30 8411 O 807.805 -5.24426 7.09156 0
M  V30 8412 O 808.345 -2.79386 7.20852 0
M  V30 8413 C 809.285 -1.7299 7.50419 0
M  V30 8414 C 808.555 -0.41401 7.5797 0
M  V30 8415 O 808.345 0.089787 6.22035 0
M  V30 8416 C 807.155 -0.447224 8.1878 0
M  V30 8417 O 806.765 0.825159 8.71201 0
M  V30 8418 C 806.275 -0.783801 6.99623 0
M  V30 8419 C 806.985 -0.0619192 5.85967 0
M  V30 8420 N 806.935 -0.7859 4.56281 0
M  V30 8421 C 806.785 -0.0359258 3.39981 0
M  V30 8422 O 806.695 1.19723 3.49038 0
M  V30 8423 N 806.735 -0.869151 2.14025 0
M  V30 8424 C 806.835 -2.01207 2.14363 0
M  V30 8425 N 806.785 -2.58978 0.954287 0
M  V30 8426 C 806.985 -2.80817 3.32215 0
M  V30 8427 C 807.035 -2.13785 4.50884 0
M  V30 8428 H 809.775 -1.93401 8.46693 0
M  V30 8429 H 810.045 -1.68181 6.71046 0
M  V30 8430 H 809.178 0.289076 8.15488 0
M  V30 8431 H 806.523 0.927166 5.72947 0
M  V30 8432 H 806.243 -1.87 6.82132 0
M  V30 8433 H 805.252 -0.404009 7.13457 0
M  V30 8434 H 807.086 -1.20599 8.97534 0
M  V30 8435 H 807.158 -2.70295 5.43162 0
M  V30 8436 H 807.056 -3.89465 3.27406 0
M  V30 8437 H 806.668 -2.01616 0.107046 0
M  V30 8438 H 806.864 -3.61403 0.873101 0
M  V30 8439 P 805.215 1.17771 8.83182 0
M  V30 8440 O 804.995 2.07206 9.98732 0
M  V30 8441 O 804.425 -0.0743816 8.81969 0
M  V30 8442 O 804.965 1.97652 7.47304 0
M  V30 8443 C 805.905 3.01133 7.08783 0
M  V30 8444 C 805.175 4.12613 6.37049 0
M  V30 8445 O 804.965 3.72827 4.97879 0
M  V30 8446 C 803.775 4.45085 6.88694 0
M  V30 8447 O 803.385 5.7877 6.5624 0
M  V30 8448 C 802.895 3.47817 6.12078 0
M  V30 8449 C 803.605 3.39414 4.77697 0
M  V30 8450 N 803.555 2.04615 4.15333 0
M  V30 8451 H 806.394 3.41248 7.98759 0
M  V30 8452 H 806.666 2.5837 6.41742 0
M  V30 8453 H 805.798 5.02657 6.42673 0
M  V30 8454 P 801.835 6.144 6.45285 0
M  V30 8455 O 801.615 7.54673 6.86199 0
M  V30 8456 O 801.045 5.12391 7.179 0
M  V30 8457 O 801.585 5.99158 4.88404 0
M  V30 8458 C 802.525 6.60062 3.96313 0
M  V30 8459 C 801.795 7.08259 2.72856 0
M  V30 8460 O 801.585 5.9427 1.83651 0
M  V30 8461 C 800.395 7.65087 2.94749 0
M  V30 8462 O 800.005 8.53963 1.90717 0
M  V30 8463 C 799.515 6.41069 2.90698 0
M  V30 8464 C 800.225 5.5528 1.86931 0
M  V30 8465 N 800.175 4.09575 2.15696 0
M  V30 8466 C 800.025 3.24249 1.08435 0
M  V30 8467 O 799.935 3.63946 -0.0628747 0
M  V30 8468 N 799.985 1.90009 1.39973 0
M  V30 8469 C 800.075 1.34884 2.65614 0
M  V30 8470 O 800.025 0.123716 2.81728 0
M  V30 8471 C 800.225 2.3145 3.71736 0
M  V30 8472 C 800.335 1.75913 5.10438 0
M  V30 8473 C 800.275 3.63518 3.44754 0
M  V30 8474 H 803.016 7.45402 4.45526 0
M  V30 8475 H 803.285 5.86062 3.67208 0
M  V30 8476 H 802.418 7.84412 2.24479 0
M  V30 8477 H 799.763 5.73358 0.888409 0
M  V30 8478 H 799.484 5.90877 3.88583 0
M  V30 8479 H 798.492 6.65867 2.58821 0
M  V30 8480 H 800.326 8.16248 3.92006 0
M  V30 8481 H 800.397 4.34551 4.26383 0
M  V30 8482 H 799.367 1.85471 5.61775 0
M  V30 8483 H 801.104 2.31364 5.66257 0
M  V30 8484 H 800.616 0.695936 5.05229 0
M  V30 8485 H 799.88 1.26277 0.63625 0
M  V30 8486 P 798.455 8.7635 1.60911 0
M  V30 8487 O 798.235 10.1388 1.11561 0
M  V30 8488 O 797.665 8.36503 2.79617 0
M  V30 8489 O 798.205 7.71806 0.42951 0
M  V30 8490 C 799.145 7.66948 -0.673514 0
M  V30 8491 C 798.415 7.33374 -1.95559 0
M  V30 8492 O 798.205 5.88721 -2.00726 0
M  V30 8493 C 797.015 7.92218 -2.1125 0
M  V30 8494 O 796.625 8.02971 -3.47653 0
M  V30 8495 C 796.135 6.89504 -1.41631 0
M  V30 8496 C 796.845 5.59106 -1.75155 0
M  V30 8497 N 796.795 4.58136 -0.662409 0
M  V30 8498 C 796.645 3.26059 -1.02863 0
M  V30 8499 O 796.555 2.90743 -2.19009 0
M  V30 8500 N 796.605 2.35995 0.0155585 0
M  V30 8501 C 796.695 2.65248 1.35603 0
M  V30 8502 O 796.645 1.75605 2.20651 0
M  V30 8503 C 796.845 4.05747 1.64698 0
M  V30 8504 C 796.955 4.42345 3.09553 0
M  V30 8505 C 796.895 4.96734 0.652411 0
M  V30 8506 H 799.636 8.64917 -0.776982 0
M  V30 8507 H 799.905 6.89974 -0.474015 0
M  V30 8508 H 799.038 7.66548 -2.79458 0
M  V30 8509 H 796.383 5.16076 -2.65138 0
M  V30 8510 H 796.104 7.06433 -0.329384 0
M  V30 8511 H 795.112 6.90829 -1.81996 0
M  V30 8512 H 796.946 8.90774 -1.62639 0
M  V30 8513 H 797.017 6.02181 0.895285 0
M  V30 8514 H 795.987 4.80252 3.45468 0
M  V30 8515 H 797.724 5.20015 3.22119 0
M  V30 8516 H 797.236 3.53269 3.67833 0
M  V30 8517 H 796.5 1.39558 -0.227499 0
M  V30 8518 P 795.075 8.03563 -3.84925 0
M  V30 8519 O 794.855 8.85821 -5.0569 0
M  V30 8520 O 794.285 8.41101 -2.65469 0
M  V30 8521 O 794.825 6.4965 -4.18908 0
M  V30 8522 C 795.765 5.81037 -5.05421 0
M  V30 8523 C 795.035 4.78366 -5.89277 0
M  V30 8524 O 794.825 3.58302 -5.08433 0
M  V30 8525 C 793.635 5.17448 -6.36119 0
M  V30 8526 O 793.245 4.45271 -7.53232 0
M  V30 8527 C 792.755 4.74639 -5.19936 0
M  V30 8528 C 793.465 3.49432 -4.70418 0
M  V30 8529 N 793.415 3.31776 -3.22945 0
M  V30 8530 H 796.254 6.54213 -5.71376 0
M  V30 8531 H 796.526 5.30492 -4.44033 0
M  V30 8532 H 795.658 4.55889 -6.76652 0
M  V30 8533 P 791.695 4.23843 -7.83734 0
M  V30 8534 O 791.475 4.19407 -9.29784 0
M  V30 8535 O 790.905 5.24426 -7.09156 0
M  V30 8536 O 791.445 2.7935 -7.20758 0
M  V30 8537 C 792.385 1.72945 -7.50224 0
M  V30 8538 C 791.655 0.406376 -7.57911 0
M  V30 8539 O 791.445 -0.0897726 -6.21935 0
M  V30 8540 C 790.255 0.438983 -8.18724 0
M  V30 8541 O 789.865 -0.825065 -8.71101 0
M  V30 8542 C 789.375 0.783689 -6.99524 0
M  V30 8543 C 790.085 0.0619086 -5.85867 0
M  V30 8544 N 790.035 0.78573 -4.56183 0
M  V30 8545 C 789.885 0.0292889 -3.41887 0
M  V30 8546 O 789.795 -1.18445 -3.4419 0
M  V30 8547 N 789.845 0.744061 -2.23964 0
M  V30 8548 C 789.935 2.10932 -2.10362 0
M  V30 8549 O 789.885 2.64117 -0.98825 0
M  V30 8550 C 790.085 2.8202 -3.34994 0
M  V30 8551 C 790.195 4.31095 -3.25037 0
M  V30 8552 C 790.135 2.15547 -4.52261 0
M  V30 8553 H 792.876 1.93379 -8.46595 0
M  V30 8554 H 793.145 1.68132 -6.70852 0
M  V30 8555 H 792.278 -0.289041 -8.15388 0
M  V30 8556 H 789.623 -0.926847 -5.72749 0
M  V30 8557 H 789.344 1.86973 -6.82036 0
M  V30 8558 H 788.352 0.403896 -7.13257 0
M  V30 8559 H 790.186 1.20585 -8.97435 0
M  V30 8560 H 790.257 2.71231 -5.45042 0
M  V30 8561 H 789.227 4.76966 -3.49992 0
M  V30 8562 H 790.964 4.67047 -3.95024 0
M  V30 8563 H 790.476 4.58996 -2.22312 0
M  V30 8564 H 789.74 0.214893 -1.39758 0
M  V30 8565 P 788.315 -1.17771 -8.83182 0
M  V30 8566 O 788.095 -2.07206 -9.98732 0
M  V30 8567 O 787.525 0.0743816 -8.81969 0
M  V30 8568 O 788.065 -1.97652 -7.47304 0
M  V30 8569 C 789.005 -3.01133 -7.08783 0
M  V30 8570 C 788.275 -4.12613 -6.37049 0
M  V30 8571 O 788.065 -3.72827 -4.97879 0
M  V30 8572 C 786.875 -4.45085 -6.88694 0
M  V30 8573 O 786.485 -5.7877 -6.5624 0
M  V30 8574 C 785.995 -3.47817 -6.12078 0
M  V30 8575 C 786.705 -3.39414 -4.77697 0
M  V30 8576 N 786.655 -2.04615 -4.15333 0
M  V30 8577 H 789.494 -3.41248 -7.98759 0
M  V30 8578 H 789.766 -2.5837 -6.41742 0
M  V30 8579 H 788.898 -5.02657 -6.42673 0
M  V30 8580 P 784.935 -6.144 -6.45285 0
M  V30 8581 O 784.715 -7.54673 -6.86199 0
M  V30 8582 O 784.145 -5.12391 -7.179 0
M  V30 8583 O 784.685 -5.99158 -4.88404 0
M  V30 8584 C 785.625 -6.60234 -3.96415 0
M  V30 8585 C 784.895 -7.08259 -2.72856 0
M  V30 8586 O 784.685 -5.9427 -1.83651 0
M  V30 8587 C 783.495 -7.64886 -2.9555 0
M  V30 8588 O 783.105 -8.53963 -1.90717 0
M  V30 8589 C 782.615 -6.4116 -2.90739 0
M  V30 8590 C 783.325 -5.55375 -1.86963 0
M  V30 8591 N 783.275 -4.09664 -2.15742 0
M  V30 8592 H 786.114 -7.45574 -4.45629 0
M  V30 8593 H 786.386 -5.86232 -3.67314 0
M  V30 8594 H 785.518 -7.84412 -2.24479 0
M  V30 8595 P 781.555 -8.7635 -1.60911 0
M  V30 8596 O 781.335 -10.1388 -1.11561 0
M  V30 8597 O 780.765 -8.36503 -2.79617 0
M  V30 8598 O 781.305 -7.71806 -0.42951 0
M  V30 8599 C 782.245 -7.66948 0.673514 0
M  V30 8600 C 781.515 -7.33374 1.95559 0
M  V30 8601 O 781.305 -5.88721 2.00726 0
M  V30 8602 C 780.115 -7.92218 2.1125 0
M  V30 8603 O 779.725 -8.02971 3.47653 0
M  V30 8604 C 779.235 -6.89504 1.41631 0
M  V30 8605 C 779.945 -5.59106 1.75155 0
M  V30 8606 N 779.895 -4.58136 0.662409 0
M  V30 8607 C 779.745 -3.26059 1.02863 0
M  V30 8608 O 779.655 -2.90743 2.19009 0
M  V30 8609 N 779.705 -2.35995 -0.0155585 0
M  V30 8610 C 779.795 -2.65248 -1.35603 0
M  V30 8611 O 779.745 -1.75605 -2.20651 0
M  V30 8612 C 779.945 -4.05747 -1.64698 0
M  V30 8613 C 780.055 -4.42345 -3.09553 0
M  V30 8614 C 779.995 -4.96734 -0.652411 0
M  V30 8615 H 782.736 -8.64917 0.776982 0
M  V30 8616 H 783.005 -6.89974 0.474015 0
M  V30 8617 H 782.138 -7.66548 2.79458 0
M  V30 8618 H 779.483 -5.16076 2.65138 0
M  V30 8619 H 779.204 -7.06433 0.329384 0
M  V30 8620 H 778.212 -6.90829 1.81996 0
M  V30 8621 H 780.046 -8.90774 1.62639 0
M  V30 8622 H 780.117 -6.02181 -0.895285 0
M  V30 8623 H 779.087 -4.80252 -3.45468 0
M  V30 8624 H 780.824 -5.20015 -3.22119 0
M  V30 8625 H 780.336 -3.53269 -3.67833 0
M  V30 8626 H 779.6 -1.39558 0.227499 0
M  V30 8627 P 778.175 -8.03563 3.84925 0
M  V30 8628 O 777.955 -8.85821 5.0569 0
M  V30 8629 O 777.385 -8.41101 2.65469 0
M  V30 8630 O 777.925 -6.4965 4.18908 0
M  V30 8631 C 778.865 -5.80886 5.05289 0
M  V30 8632 C 778.135 -4.78366 5.89277 0
M  V30 8633 O 777.925 -3.58302 5.08433 0
M  V30 8634 C 776.735 -5.16748 6.36559 0
M  V30 8635 O 776.345 -4.45271 7.53232 0
M  V30 8636 C 775.855 -4.74572 5.19863 0
M  V30 8637 C 776.565 -3.49373 4.70338 0
M  V30 8638 N 776.515 -3.31704 3.22876 0
M  V30 8639 C 776.365 -2.03326 2.74871 0
M  V30 8640 O 776.275 -1.06486 3.48076 0
M  V30 8641 N 776.325 -1.91838 1.37456 0
M  V30 8642 C 776.415 -2.94295 0.462035 0
M  V30 8643 C 776.565 -4.25064 1.05249 0
M  V30 8644 C 776.615 -4.40214 2.39192 0
M  V30 8645 H 779.356 -6.54063 5.71245 0
M  V30 8646 H 779.625 -5.30339 4.43905 0
M  V30 8647 H 778.758 -4.55889 6.76652 0
M  V30 8648 H 776.103 -2.6167 5.17842 0
M  V30 8649 H 775.824 -5.52155 4.41878 0
M  V30 8650 H 774.832 -4.51918 5.53297 0
M  V30 8651 H 776.666 -6.25055 6.55162 0
M  V30 8652 H 776.737 -5.39798 2.81523 0
M  V30 8653 P 774.795 -4.23843 7.83734 0
M  V30 8654 O 774.575 -4.19407 9.29784 0
M  V30 8655 O 774.005 -5.24426 7.09156 0
M  V30 8656 O 774.545 -2.7935 7.20758 0
M  V30 8657 C 775.485 -1.7299 7.50419 0
M  V30 8658 C 774.755 -0.406376 7.57911 0
M  V30 8659 O 774.545 0.0897726 6.21935 0
M  V30 8660 C 773.355 -0.447224 8.1878 0
M  V30 8661 O 772.965 0.825065 8.71101 0
M  V30 8662 C 772.475 -0.783801 6.99623 0
M  V30 8663 C 773.185 -0.0619192 5.85967 0
M  V30 8664 N 773.135 -0.7859 4.56281 0
M  V30 8665 H 775.974 -1.93423 8.4679 0
M  V30 8666 H 776.246 -1.68181 6.71046 0
M  V30 8667 H 775.378 0.289041 8.15388 0
M  V30 8668 P 771.415 1.17771 8.83182 0
M  V30 8669 O 771.195 2.07206 9.98732 0
M  V30 8670 O 770.625 -0.0743816 8.81969 0
M  V30 8671 O 771.165 1.97652 7.47304 0
M  V30 8672 C 772.105 3.01055 7.08599 0
M  V30 8673 C 771.375 4.12613 6.37049 0
M  V30 8674 O 771.165 3.72827 4.97879 0
M  V30 8675 C 769.975 4.45719 6.88164 0
M  V30 8676 O 769.585 5.7877 6.5624 0
M  V30 8677 C 769.095 3.47768 6.11991 0
M  V30 8678 C 769.805 3.39356 4.77615 0
M  V30 8679 N 769.755 2.04571 4.15244 0
M  V30 8680 C 769.605 1.98587 2.78314 0
M  V30 8681 O 769.515 2.98134 2.08835 0
M  V30 8682 N 769.565 0.714467 2.24925 0
M  V30 8683 C 769.655 -0.470001 2.94169 0
M  V30 8684 C 769.805 -0.312541 4.36783 0
M  V30 8685 C 769.855 0.914512 4.92583 0
M  V30 8686 H 772.596 3.41169 7.98575 0
M  V30 8687 H 772.865 2.58295 6.41556 0
M  V30 8688 H 771.998 5.02657 6.42673 0
M  V30 8689 H 769.343 4.11637 4.08885 0
M  V30 8690 H 769.064 2.49626 6.61679 0
M  V30 8691 H 768.072 3.86566 6.00778 0
M  V30 8692 H 769.906 4.29943 7.96918 0
M  V30 8693 H 769.977 1.00937 6.00374 0
M  V30 8694 P 768.035 6.144 6.45285 0
M  V30 8695 O 767.815 7.54673 6.86199 0
M  V30 8696 O 767.245 5.12391 7.179 0
M  V30 8697 O 767.785 5.99158 4.88404 0
M  V30 8698 C 768.725 6.60234 3.96415 0
M  V30 8699 C 767.995 7.08259 2.72856 0
M  V30 8700 O 767.785 5.9427 1.83651 0
M  V30 8701 C 766.595 7.64886 2.9555 0
M  V30 8702 O 766.205 8.53963 1.90717 0
M  V30 8703 C 765.715 6.4116 2.90739 0
M  V30 8704 C 766.425 5.55375 1.86963 0
M  V30 8705 N 766.375 4.09448 2.16152 0
M  V30 8706 C 766.455 3.46824 3.37593 0
M  V30 8707 N 766.385 2.17422 3.29777 0
M  V30 8708 C 766.235 1.93065 1.94427 0
M  V30 8709 C 766.105 0.738053 1.20141 0
M  V30 8710 N 766.095 -0.474256 1.74676 0
M  V30 8711 N 765.985 0.850049 -0.13045 0
M  V30 8712 C 765.995 2.06169 -0.676992 0
M  V30 8713 N 766.115 3.23842 -0.101312 0
M  V30 8714 C 766.235 3.09402 1.23122 0
M  V30 8715 H 769.214 7.45574 4.45629 0
M  V30 8716 H 769.486 5.85864 3.679 0
M  V30 8717 H 768.618 7.84412 2.24479 0
M  V30 8718 H 765.963 5.73457 0.888562 0
M  V30 8719 H 765.683 5.90877 3.88583 0
M  V30 8720 H 764.692 6.6596 2.58858 0
M  V30 8721 H 766.526 8.16339 3.92049 0
M  V30 8722 H 766.567 4.00505 4.3174 0
M  V30 8723 H 766.186 -0.581337 2.76658 0
M  V30 8724 H 765.997 -1.30811 1.14888 0
M  V30 8725 H 765.889 2.08295 -1.75542 0
M  V30 8726 P 764.656 8.7635 1.60911 0
M  V30 8727 O 764.436 10.1388 1.11561 0
M  V30 8728 O 763.866 8.36503 2.79617 0
M  V30 8729 O 764.406 7.71806 0.42951 0
M  V30 8730 C 765.346 7.67148 -0.673689 0
M  V30 8731 C 764.616 7.33374 -1.95559 0
M  V30 8732 O 764.406 5.88721 -2.00726 0
M  V30 8733 C 763.216 7.92526 -2.10483 0
M  V30 8734 O 762.826 8.02971 -3.47653 0
M  V30 8735 C 762.336 6.89602 -1.41652 0
M  V30 8736 C 763.046 5.59201 -1.75185 0
M  V30 8737 N 762.996 4.58235 -0.662552 0
M  V30 8738 H 765.835 8.65116 -0.777161 0
M  V30 8739 H 766.107 6.90173 -0.474152 0
M  V30 8740 H 765.239 7.66548 -2.79458 0
M  V30 8741 P 761.276 8.03563 -3.84925 0
M  V30 8742 O 761.056 8.85821 -5.0569 0
M  V30 8743 O 760.486 8.41101 -2.65469 0
M  V30 8744 O 761.026 6.4965 -4.18908 0
M  V30 8745 C 761.966 5.81037 -5.05421 0
M  V30 8746 C 761.236 4.78366 -5.89277 0
M  V30 8747 O 761.026 3.58302 -5.08433 0
M  V30 8748 C 759.836 5.17448 -6.36119 0
M  V30 8749 O 759.446 4.45271 -7.53232 0
M  V30 8750 C 758.956 4.74639 -5.19936 0
M  V30 8751 C 759.666 3.49432 -4.70418 0
M  V30 8752 N 759.616 3.31776 -3.22945 0
M  V30 8753 H 762.455 6.54213 -5.71376 0
M  V30 8754 H 762.727 5.30492 -4.44033 0
M  V30 8755 H 761.859 4.55889 -6.76652 0
M  V30 8756 P 757.896 4.23843 -7.83734 0
M  V30 8757 O 757.676 4.19407 -9.29784 0
M  V30 8758 O 757.106 5.24426 -7.09156 0
M  V30 8759 O 757.646 2.7935 -7.20758 0
M  V30 8760 C 758.586 1.7299 -7.50419 0
M  V30 8761 C 757.856 0.406376 -7.57911 0
M  V30 8762 O 757.646 -0.0897726 -6.21935 0
M  V30 8763 C 756.456 0.447224 -8.1878 0
M  V30 8764 O 756.066 -0.825065 -8.71101 0
M  V30 8765 C 755.576 0.783801 -6.99623 0
M  V30 8766 C 756.286 0.0619192 -5.85967 0
M  V30 8767 N 756.236 0.7859 -4.56281 0
M  V30 8768 H 759.075 1.93423 -8.4679 0
M  V30 8769 H 759.347 1.68181 -6.71046 0
M  V30 8770 H 758.479 -0.289041 -8.15388 0
M  V30 8771 P 754.516 -1.17771 -8.83182 0
M  V30 8772 O 754.296 -2.07206 -9.98732 0
M  V30 8773 O 753.726 0.0743816 -8.81969 0
M  V30 8774 O 754.266 -1.97652 -7.47304 0
M  V30 8775 C 755.206 -3.01133 -7.08783 0
M  V30 8776 C 754.476 -4.12613 -6.37049 0
M  V30 8777 O 754.266 -3.72827 -4.97879 0
M  V30 8778 C 753.076 -4.45085 -6.88694 0
M  V30 8779 O 752.686 -5.7877 -6.5624 0
M  V30 8780 C 752.196 -3.47817 -6.12078 0
M  V30 8781 C 752.906 -3.39414 -4.77697 0
M  V30 8782 N 752.856 -2.04615 -4.15333 0
M  V30 8783 H 755.695 -3.41248 -7.98759 0
M  V30 8784 H 755.967 -2.5837 -6.41742 0
M  V30 8785 H 755.099 -5.02657 -6.42673 0
M  V30 8786 P 751.136 -6.144 -6.45285 0
M  V30 8787 O 750.916 -7.54673 -6.86199 0
M  V30 8788 O 750.346 -5.12391 -7.179 0
M  V30 8789 O 750.886 -5.99236 -4.88467 0
M  V30 8790 C 751.826 -6.60234 -3.96415 0
M  V30 8791 C 751.096 -7.08079 -2.736 0
M  V30 8792 O 750.886 -5.94365 -1.8368 0
M  V30 8793 C 749.696 -7.64886 -2.9555 0
M  V30 8794 O 749.306 -8.5406 -1.90739 0
M  V30 8795 C 748.816 -6.4116 -2.90739 0
M  V30 8796 C 749.526 -5.55375 -1.86963 0
M  V30 8797 N 749.476 -4.09664 -2.15742 0
M  V30 8798 C 749.326 -3.22231 -1.08477 0
M  V30 8799 O 749.236 -3.68951 0.0600489 0
M  V30 8800 N 749.276 -1.76692 -1.48799 0
M  V30 8801 C 749.376 -1.41695 -2.57602 0
M  V30 8802 N 749.326 -0.107296 -2.75791 0
M  V30 8803 C 749.526 -2.29178 -3.69733 0
M  V30 8804 C 749.576 -3.62753 -3.42653 0
M  V30 8805 H 752.316 -7.45488 -4.45578 0
M  V30 8806 H 752.586 -5.86232 -3.67314 0
M  V30 8807 H 751.719 -7.84508 -2.24507 0
M  V30 8808 H 749.064 -5.73556 -0.888715 0
M  V30 8809 H 748.784 -5.9096 -3.88638 0
M  V30 8810 H 747.793 -6.66053 -2.58894 0
M  V30 8811 H 749.627 -8.16339 -3.92049 0
M  V30 8812 H 749.699 -4.33052 -4.24913 0
M  V30 8813 H 749.597 -1.9103 -4.71577 0
M  V30 8814 H 749.209 0.521221 -1.95056 0
M  V30 8815 H 749.405 0.286429 -3.70695 0
M  V30 8816 P 747.756 -8.7635 -1.60911 0
M  V30 8817 O 747.536 -10.1388 -1.11561 0
M  V30 8818 O 746.966 -8.36503 -2.79617 0
M  V30 8819 O 747.506 -7.71806 -0.42951 0
M  V30 8820 C 748.446 -7.66948 0.673514 0
M  V30 8821 C 747.716 -7.33374 1.95559 0
M  V30 8822 O 747.506 -5.88721 2.00726 0
M  V30 8823 C 746.316 -7.92218 2.1125 0
M  V30 8824 O 745.926 -8.02971 3.47653 0
M  V30 8825 C 745.436 -6.89504 1.41631 0
M  V30 8826 C 746.146 -5.59106 1.75155 0
M  V30 8827 N 746.096 -4.58136 0.662409 0
M  V30 8828 C 745.946 -3.26059 1.02863 0
M  V30 8829 O 745.856 -2.90743 2.19009 0
M  V30 8830 N 745.906 -2.35995 -0.0155585 0
M  V30 8831 C 745.996 -2.65248 -1.35603 0
M  V30 8832 O 745.946 -1.75605 -2.20651 0
M  V30 8833 C 746.146 -4.05747 -1.64698 0
M  V30 8834 C 746.256 -4.42345 -3.09553 0
M  V30 8835 C 746.196 -4.96734 -0.652411 0
M  V30 8836 H 748.937 -8.64917 0.776982 0
M  V30 8837 H 749.206 -6.89974 0.474015 0
M  V30 8838 H 748.339 -7.66548 2.79458 0
M  V30 8839 H 745.684 -5.16076 2.65138 0
M  V30 8840 H 745.405 -7.06433 0.329384 0
M  V30 8841 H 744.413 -6.90829 1.81996 0
M  V30 8842 H 746.247 -8.90774 1.62639 0
M  V30 8843 H 746.318 -6.02181 -0.895285 0
M  V30 8844 H 745.288 -4.80252 -3.45468 0
M  V30 8845 H 747.025 -5.20015 -3.22119 0
M  V30 8846 H 746.537 -3.53269 -3.67833 0
M  V30 8847 H 745.801 -1.39558 0.227499 0
M  V30 8848 P 744.376 -8.03563 3.84925 0
M  V30 8849 O 744.156 -8.85821 5.0569 0
M  V30 8850 O 743.586 -8.41101 2.65469 0
M  V30 8851 O 744.126 -6.4965 4.18908 0
M  V30 8852 C 745.066 -5.81037 5.05421 0
M  V30 8853 C 744.336 -4.78366 5.89277 0
M  V30 8854 O 744.126 -3.58302 5.08433 0
M  V30 8855 C 742.936 -5.17448 6.36119 0
M  V30 8856 O 742.546 -4.45271 7.53232 0
M  V30 8857 C 742.056 -4.74639 5.19936 0
M  V30 8858 C 742.766 -3.49432 4.70418 0
M  V30 8859 N 742.716 -3.31776 3.22945 0
M  V30 8860 H 745.555 -6.54213 5.71376 0
M  V30 8861 H 745.827 -5.30492 4.44033 0
M  V30 8862 H 744.959 -4.55889 6.76652 0
M  V30 8863 P 740.996 -4.23843 7.83734 0
M  V30 8864 O 740.776 -4.19407 9.29784 0
M  V30 8865 O 740.206 -5.24426 7.09156 0
M  V30 8866 O 740.746 -2.7935 7.20758 0
M  V30 8867 C 741.686 -1.7299 7.50419 0
M  V30 8868 C 740.956 -0.406376 7.57911 0
M  V30 8869 O 740.746 0.0897726 6.21935 0
M  V30 8870 C 739.556 -0.447224 8.1878 0
M  V30 8871 O 739.166 0.825065 8.71101 0
M  V30 8872 C 738.676 -0.783801 6.99623 0
M  V30 8873 C 739.386 -0.0619192 5.85967 0
M  V30 8874 N 739.336 -0.7859 4.56281 0
M  V30 8875 H 742.175 -1.93423 8.4679 0
M  V30 8876 H 742.447 -1.68181 6.71046 0
M  V30 8877 H 741.579 0.289041 8.15388 0
M  V30 8878 P 737.616 1.17771 8.83182 0
M  V30 8879 O 737.396 2.07206 9.98732 0
M  V30 8880 O 736.826 -0.0743816 8.81969 0
M  V30 8881 O 737.366 1.97652 7.47304 0
M  V30 8882 C 738.306 3.01055 7.08599 0
M  V30 8883 C 737.576 4.12613 6.37049 0
M  V30 8884 O 737.366 3.72827 4.97879 0
M  V30 8885 C 736.176 4.45719 6.88164 0
M  V30 8886 O 735.786 5.7877 6.5624 0
M  V30 8887 C 735.296 3.47768 6.11991 0
M  V30 8888 C 736.006 3.39356 4.77615 0
M  V30 8889 N 735.956 2.04571 4.15244 0
M  V30 8890 C 735.806 1.98587 2.78314 0
M  V30 8891 O 735.716 2.98134 2.08835 0
M  V30 8892 N 735.766 0.714467 2.24925 0
M  V30 8893 C 735.856 -0.470001 2.94169 0
M  V30 8894 O 735.806 -1.55587 2.35195 0
M  V30 8895 C 736.006 -0.312541 4.36783 0
M  V30 8896 C 736.116 -1.57711 5.16352 0
M  V30 8897 C 736.056 0.914512 4.92583 0
M  V30 8898 H 738.797 3.41169 7.98575 0
M  V30 8899 H 739.066 2.58295 6.41556 0
M  V30 8900 H 738.199 5.02657 6.42673 0
M  V30 8901 H 735.544 4.11637 4.08885 0
M  V30 8902 H 735.265 2.49626 6.61679 0
M  V30 8903 H 734.273 3.86566 6.00778 0
M  V30 8904 H 736.107 4.29943 7.96918 0
M  V30 8905 H 736.178 1.00937 6.00374 0
M  V30 8906 H 735.148 -1.80153 5.63503 0
M  V30 8907 H 736.885 -1.4566 5.94104 0
M  V30 8908 H 736.397 -2.40664 4.49645 0
M  V30 8909 H 735.661 0.647622 1.25697 0
M  V30 8910 P 734.236 6.144 6.45285 0
M  V30 8911 O 734.016 7.54673 6.86199 0
M  V30 8912 O 733.446 5.12391 7.179 0
M  V30 8913 O 733.986 5.99158 4.88404 0
M  V30 8914 C 734.926 6.60234 3.96415 0
M  V30 8915 C 734.196 7.08259 2.72856 0
M  V30 8916 O 733.986 5.9427 1.83651 0
M  V30 8917 C 732.796 7.64886 2.9555 0
M  V30 8918 O 732.406 8.53963 1.90717 0
M  V30 8919 C 731.916 6.4116 2.90739 0
M  V30 8920 C 732.626 5.55375 1.86963 0
M  V30 8921 N 732.576 4.09664 2.15742 0
M  V30 8922 H 735.415 7.45574 4.45629 0
M  V30 8923 H 735.687 5.86232 3.67314 0
M  V30 8924 H 734.819 7.84412 2.24479 0
M  V30 8925 P 730.856 8.7635 1.60911 0
M  V30 8926 O 730.636 10.1388 1.11561 0
M  V30 8927 O 730.066 8.36503 2.79617 0
M  V30 8928 O 730.606 7.71806 0.42951 0
M  V30 8929 C 731.546 7.67148 -0.673689 0
M  V30 8930 C 730.816 7.33374 -1.95559 0
M  V30 8931 O 730.606 5.88721 -2.00726 0
M  V30 8932 C 729.416 7.92526 -2.10483 0
M  V30 8933 O 729.026 8.02971 -3.47653 0
M  V30 8934 C 728.536 6.89602 -1.41652 0
M  V30 8935 C 729.246 5.59201 -1.75185 0
M  V30 8936 N 729.196 4.58301 -0.657969 0
M  V30 8937 H 732.035 8.65116 -0.777161 0
M  V30 8938 H 732.307 6.9022 -0.46725 0
M  V30 8939 H 731.439 7.66548 -2.79458 0
M  V30 8940 H 728.784 5.16165 -2.65183 0
M  V30 8941 H 728.504 7.06433 -0.329384 0
M  V30 8942 H 727.513 6.90926 -1.82021 0
M  V30 8943 H 729.347 8.90873 -1.62657 0
M  V30 8944 P 727.476 8.03563 -3.84925 0
M  V30 8945 O 727.256 8.85821 -5.0569 0
M  V30 8946 O 726.686 8.41101 -2.65469 0
M  V30 8947 O 727.226 6.4965 -4.18908 0
M  V30 8948 C 728.166 5.80886 -5.05289 0
M  V30 8949 C 727.436 4.78366 -5.89277 0
M  V30 8950 O 727.226 3.58302 -5.08433 0
M  V30 8951 C 726.036 5.16748 -6.36559 0
M  V30 8952 O 725.646 4.45271 -7.53232 0
M  V30 8953 C 725.156 4.74572 -5.19863 0
M  V30 8954 C 725.866 3.49373 -4.70338 0
M  V30 8955 N 725.816 3.31704 -3.22876 0
M  V30 8956 C 725.666 2.03326 -2.74871 0
M  V30 8957 O 725.576 1.06486 -3.48076 0
M  V30 8958 N 725.626 1.91838 -1.37456 0
M  V30 8959 C 725.716 2.94295 -0.462035 0
M  V30 8960 C 725.866 4.25064 -1.05249 0
M  V30 8961 C 725.916 4.40214 -2.39192 0
M  V30 8962 H 728.657 6.54063 -5.71245 0
M  V30 8963 H 728.926 5.30339 -4.43905 0
M  V30 8964 H 728.059 4.55889 -6.76652 0
M  V30 8965 H 725.404 2.6167 -5.17842 0
M  V30 8966 H 725.125 5.52155 -4.41878 0
M  V30 8967 H 724.133 4.51918 -5.53297 0
M  V30 8968 H 725.967 6.25055 -6.55162 0
M  V30 8969 H 726.038 5.39798 -2.81523 0
M  V30 8970 P 724.096 4.23843 -7.83734 0
M  V30 8971 O 723.876 4.19407 -9.29784 0
M  V30 8972 O 723.306 5.24426 -7.09156 0
M  V30 8973 O 723.846 2.7935 -7.20758 0
M  V30 8974 C 724.786 1.7299 -7.50419 0
M  V30 8975 C 724.056 0.406376 -7.57911 0
M  V30 8976 O 723.846 -0.0897726 -6.21935 0
M  V30 8977 C 722.656 0.447224 -8.1878 0
M  V30 8978 O 722.266 -0.825065 -8.71101 0
M  V30 8979 C 721.776 0.783801 -6.99623 0
M  V30 8980 C 722.486 0.0619192 -5.85967 0
M  V30 8981 N 722.436 0.7859 -4.56281 0
M  V30 8982 H 725.275 1.93423 -8.4679 0
M  V30 8983 H 725.547 1.68181 -6.71046 0
M  V30 8984 H 724.679 -0.289041 -8.15388 0
M  V30 8985 P 720.716 -1.17771 -8.83182 0
M  V30 8986 O 720.496 -2.07206 -9.98732 0
M  V30 8987 O 719.926 0.0743816 -8.81969 0
M  V30 8988 O 720.466 -1.97652 -7.47304 0
M  V30 8989 C 721.406 -3.01055 -7.08599 0
M  V30 8990 C 720.676 -4.12613 -6.37049 0
M  V30 8991 O 720.466 -3.72827 -4.97879 0
M  V30 8992 C 719.276 -4.45719 -6.88164 0
M  V30 8993 O 718.886 -5.7877 -6.5624 0
M  V30 8994 C 718.396 -3.47768 -6.11991 0
M  V30 8995 C 719.106 -3.39356 -4.77615 0
M  V30 8996 N 719.056 -2.04571 -4.15244 0
M  V30 8997 C 718.906 -1.98587 -2.78314 0
M  V30 8998 O 718.816 -2.98134 -2.08835 0
M  V30 8999 N 718.866 -0.714467 -2.24925 0
M  V30 9000 C 718.956 0.470001 -2.94169 0
M  V30 9001 C 719.106 0.312541 -4.36783 0
M  V30 9002 C 719.156 -0.914512 -4.92583 0
M  V30 9003 H 721.897 -3.41169 -7.98575 0
M  V30 9004 H 722.166 -2.58295 -6.41556 0
M  V30 9005 H 721.299 -5.02657 -6.42673 0
M  V30 9006 H 718.644 -4.11637 -4.08885 0
M  V30 9007 H 718.365 -2.49626 -6.61679 0
M  V30 9008 H 717.373 -3.86566 -6.00778 0
M  V30 9009 H 719.207 -4.29943 -7.96918 0
M  V30 9010 H 719.278 -1.00937 -6.00374 0
M  V30 9011 P 717.336 -6.144 -6.45285 0
M  V30 9012 O 717.116 -7.54673 -6.86199 0
M  V30 9013 O 716.546 -5.12391 -7.179 0
M  V30 9014 O 717.086 -5.99158 -4.88404 0
M  V30 9015 C 718.026 -6.60062 -3.96313 0
M  V30 9016 C 717.296 -7.08259 -2.72856 0
M  V30 9017 O 717.086 -5.9427 -1.83651 0
M  V30 9018 C 715.896 -7.65087 -2.94749 0
M  V30 9019 O 715.506 -8.53963 -1.90717 0
M  V30 9020 C 715.016 -6.41069 -2.90698 0
M  V30 9021 C 715.726 -5.5528 -1.86931 0
M  V30 9022 N 715.676 -4.09575 -2.15696 0
M  V30 9023 C 715.526 -3.24249 -1.08435 0
M  V30 9024 O 715.436 -3.63946 0.0628747 0
M  V30 9025 N 715.486 -1.90009 -1.39973 0
M  V30 9026 C 715.576 -1.34884 -2.65614 0
M  V30 9027 C 715.726 -2.3145 -3.71736 0
M  V30 9028 C 715.776 -3.63518 -3.44754 0
M  V30 9029 H 718.517 -7.45402 -4.45526 0
M  V30 9030 H 718.786 -5.86062 -3.67208 0
M  V30 9031 H 717.919 -7.84412 -2.24479 0
M  V30 9032 H 715.264 -5.73358 -0.888409 0
M  V30 9033 H 714.985 -5.90877 -3.88583 0
M  V30 9034 H 713.993 -6.65867 -2.58821 0
M  V30 9035 H 715.827 -8.16248 -3.92006 0
M  V30 9036 H 715.898 -4.34551 -4.26383 0
M  V30 9037 P 713.956 -8.7635 -1.60911 0
M  V30 9038 O 713.736 -10.1388 -1.11561 0
M  V30 9039 O 713.166 -8.36503 -2.79617 0
M  V30 9040 O 713.706 -7.71806 -0.42951 0
M  V30 9041 C 714.646 -7.67148 0.673689 0
M  V30 9042 C 713.916 -7.33374 1.95559 0
M  V30 9043 O 713.706 -5.88721 2.00726 0
M  V30 9044 C 712.516 -7.92526 2.10483 0
M  V30 9045 O 712.126 -8.02971 3.47653 0
M  V30 9046 C 711.636 -6.89602 1.41652 0
M  V30 9047 C 712.346 -5.59201 1.75185 0
M  V30 9048 N 712.296 -4.58235 0.662552 0
M  V30 9049 H 715.135 -8.65116 0.777161 0
M  V30 9050 H 715.407 -6.90173 0.474152 0
M  V30 9051 H 714.539 -7.66548 2.79458 0
M  V30 9052 P 710.576 -8.03563 3.84925 0
M  V30 9053 O 710.356 -8.85821 5.0569 0
M  V30 9054 O 709.786 -8.41101 2.65469 0
M  V30 9055 O 710.326 -6.4965 4.18908 0
M  V30 9056 C 711.266 -5.81037 5.05421 0
M  V30 9057 C 710.536 -4.78366 5.89277 0
M  V30 9058 O 710.326 -3.58302 5.08433 0
M  V30 9059 C 709.136 -5.17448 6.36119 0
M  V30 9060 O 708.746 -4.45271 7.53232 0
M  V30 9061 C 708.256 -4.74639 5.19936 0
M  V30 9062 C 708.966 -3.49432 4.70418 0
M  V30 9063 N 708.916 -3.31776 3.22945 0
M  V30 9064 H 711.755 -6.54213 5.71376 0
M  V30 9065 H 712.027 -5.30492 4.44033 0
M  V30 9066 H 711.159 -4.55889 6.76652 0
M  V30 9067 P 707.196 -4.23843 7.83734 0
M  V30 9068 O 706.976 -4.19407 9.29784 0
M  V30 9069 O 706.406 -5.24426 7.09156 0
M  V30 9070 O 706.946 -2.7935 7.20758 0
M  V30 9071 C 707.886 -1.72945 7.50224 0
M  V30 9072 C 707.156 -0.406376 7.57911 0
M  V30 9073 O 706.946 0.0897726 6.21935 0
M  V30 9074 C 705.756 -0.438983 8.18724 0
M  V30 9075 O 705.366 0.825065 8.71101 0
M  V30 9076 C 704.876 -0.783689 6.99524 0
M  V30 9077 C 705.586 -0.0619086 5.85867 0
M  V30 9078 N 705.536 -0.78573 4.56183 0
M  V30 9079 C 705.386 -0.0292889 3.41887 0
M  V30 9080 O 705.296 1.18445 3.4419 0
M  V30 9081 N 705.346 -0.744061 2.23964 0
M  V30 9082 C 705.436 -2.10932 2.10362 0
M  V30 9083 C 705.586 -2.8202 3.34994 0
M  V30 9084 C 705.636 -2.15547 4.52261 0
M  V30 9085 H 708.377 -1.93379 8.46595 0
M  V30 9086 H 708.646 -1.68132 6.70852 0
M  V30 9087 H 707.779 0.289041 8.15388 0
M  V30 9088 H 705.124 0.926847 5.72749 0
M  V30 9089 H 704.845 -1.86973 6.82036 0
M  V30 9090 H 703.853 -0.403896 7.13257 0
M  V30 9091 H 705.687 -1.20585 8.97435 0
M  V30 9092 H 705.758 -2.71231 5.45042 0
M  V30 9093 P 703.816 1.17771 8.83182 0
M  V30 9094 O 703.596 2.07206 9.98732 0
M  V30 9095 O 703.026 -0.0743816 8.81969 0
M  V30 9096 O 703.566 1.97652 7.47304 0
M  V30 9097 C 704.506 3.01133 7.08783 0
M  V30 9098 C 703.776 4.12613 6.37049 0
M  V30 9099 O 703.566 3.72827 4.97879 0
M  V30 9100 C 702.376 4.45085 6.88694 0
M  V30 9101 O 701.986 5.7877 6.5624 0
M  V30 9102 C 701.496 3.47817 6.12078 0
M  V30 9103 C 702.206 3.39414 4.77697 0
M  V30 9104 N 702.156 2.04199 4.15538 0
M  V30 9105 H 704.995 3.41248 7.98759 0
M  V30 9106 H 705.267 2.57728 6.42 0
M  V30 9107 H 704.399 5.02657 6.42673 0
M  V30 9108 H 701.744 4.11708 4.08956 0
M  V30 9109 H 701.464 2.49626 6.61679 0
M  V30 9110 H 700.473 3.8662 6.00862 0
M  V30 9111 H 702.307 4.29991 7.97006 0
M  V30 9112 P 700.436 6.144 6.45285 0
M  V30 9113 O 700.216 7.54673 6.86199 0
M  V30 9114 O 699.646 5.12391 7.179 0
M  V30 9115 O 700.186 5.99158 4.88404 0
M  V30 9116 C 701.126 6.60062 3.96313 0
M  V30 9117 C 700.396 7.08259 2.72856 0
M  V30 9118 O 700.186 5.9427 1.83651 0
M  V30 9119 C 698.996 7.65087 2.94749 0
M  V30 9120 O 698.606 8.53963 1.90717 0
M  V30 9121 C 698.116 6.41069 2.90698 0
M  V30 9122 C 698.826 5.5528 1.86931 0
M  V30 9123 N 698.776 4.09575 2.15696 0
M  V30 9124 C 698.626 3.24249 1.08435 0
M  V30 9125 O 698.536 3.63946 -0.0628747 0
M  V30 9126 N 698.586 1.90009 1.39973 0
M  V30 9127 C 698.676 1.34884 2.65614 0
M  V30 9128 O 698.626 0.123716 2.81728 0
M  V30 9129 C 698.826 2.3145 3.71736 0
M  V30 9130 C 698.936 1.75913 5.10438 0
M  V30 9131 C 698.876 3.63518 3.44754 0
M  V30 9132 H 701.617 7.45402 4.45526 0
M  V30 9133 H 701.886 5.86062 3.67208 0
M  V30 9134 H 701.019 7.84412 2.24479 0
M  V30 9135 H 698.364 5.73358 0.888409 0
M  V30 9136 H 698.085 5.90877 3.88583 0
M  V30 9137 H 697.093 6.65867 2.58821 0
M  V30 9138 H 698.927 8.16248 3.92006 0
M  V30 9139 H 698.998 4.34551 4.26383 0
M  V30 9140 H 697.968 1.85471 5.61775 0
M  V30 9141 H 699.705 2.31364 5.66257 0
M  V30 9142 H 699.217 0.695936 5.05229 0
M  V30 9143 H 698.481 1.26277 0.63625 0
M  V30 9144 P 697.056 8.7635 1.60911 0
M  V30 9145 O 696.836 10.1388 1.11561 0
M  V30 9146 O 696.266 8.36503 2.79617 0
M  V30 9147 O 696.806 7.71806 0.42951 0
M  V30 9148 C 697.746 7.67148 -0.673689 0
M  V30 9149 C 697.016 7.33374 -1.95559 0
M  V30 9150 O 696.806 5.88721 -2.00726 0
M  V30 9151 C 695.616 7.92526 -2.10483 0
M  V30 9152 O 695.226 8.02971 -3.47653 0
M  V30 9153 C 694.736 6.89602 -1.41652 0
M  V30 9154 C 695.446 5.59201 -1.75185 0
M  V30 9155 N 695.396 4.58235 -0.662552 0
M  V30 9156 H 698.235 8.65116 -0.777161 0
M  V30 9157 H 698.507 6.90173 -0.474152 0
M  V30 9158 H 697.639 7.66548 -2.79458 0
M  V30 9159 P 693.676 8.03563 -3.84925 0
M  V30 9160 O 693.456 8.85821 -5.0569 0
M  V30 9161 O 692.886 8.41101 -2.65469 0
M  V30 9162 O 693.426 6.4965 -4.18908 0
M  V30 9163 C 694.366 5.80886 -5.05289 0
M  V30 9164 C 693.636 4.78366 -5.89277 0
M  V30 9165 O 693.426 3.58302 -5.08433 0
M  V30 9166 C 692.236 5.16748 -6.36559 0
M  V30 9167 O 691.846 4.45271 -7.53232 0
M  V30 9168 C 691.356 4.74572 -5.19863 0
M  V30 9169 C 692.066 3.49373 -4.70338 0
M  V30 9170 N 692.016 3.31704 -3.22876 0
M  V30 9171 C 691.866 2.03326 -2.74871 0
M  V30 9172 O 691.776 1.06486 -3.48076 0
M  V30 9173 N 691.826 1.91838 -1.37456 0
M  V30 9174 C 691.916 2.94295 -0.462035 0
M  V30 9175 C 692.066 4.25064 -1.05249 0
M  V30 9176 C 692.116 4.40214 -2.39192 0
M  V30 9177 H 694.857 6.54063 -5.71245 0
M  V30 9178 H 695.126 5.30339 -4.43905 0
M  V30 9179 H 694.259 4.55889 -6.76652 0
M  V30 9180 H 691.604 2.6167 -5.17842 0
M  V30 9181 H 691.325 5.52155 -4.41878 0
M  V30 9182 H 690.333 4.51918 -5.53297 0
M  V30 9183 H 692.167 6.25055 -6.55162 0
M  V30 9184 H 692.238 5.39798 -2.81523 0
M  V30 9185 P 690.296 4.23843 -7.83734 0
M  V30 9186 O 690.076 4.19407 -9.29784 0
M  V30 9187 O 689.506 5.24426 -7.09156 0
M  V30 9188 O 690.046 2.7935 -7.20758 0
M  V30 9189 C 690.986 1.7299 -7.50419 0
M  V30 9190 C 690.256 0.406376 -7.57911 0
M  V30 9191 O 690.046 -0.0897726 -6.21935 0
M  V30 9192 C 688.856 0.447224 -8.1878 0
M  V30 9193 O 688.466 -0.825065 -8.71101 0
M  V30 9194 C 687.976 0.783801 -6.99623 0
M  V30 9195 C 688.686 0.0619192 -5.85967 0
M  V30 9196 N 688.636 0.7859 -4.56281 0
M  V30 9197 H 691.475 1.93423 -8.4679 0
M  V30 9198 H 691.747 1.68181 -6.71046 0
M  V30 9199 H 690.879 -0.289041 -8.15388 0
M  V30 9200 P 686.916 -1.17771 -8.83182 0
M  V30 9201 O 686.696 -2.07206 -9.98732 0
M  V30 9202 O 686.126 0.0743816 -8.81969 0
M  V30 9203 O 686.666 -1.97652 -7.47304 0
M  V30 9204 C 687.606 -3.01133 -7.08783 0
M  V30 9205 C 686.876 -4.12613 -6.37049 0
M  V30 9206 O 686.666 -3.72827 -4.97879 0
M  V30 9207 C 685.476 -4.45085 -6.88694 0
M  V30 9208 O 685.086 -5.7877 -6.5624 0
M  V30 9209 C 684.596 -3.47817 -6.12078 0
M  V30 9210 C 685.306 -3.39414 -4.77697 0
M  V30 9211 N 685.256 -2.04199 -4.15538 0
M  V30 9212 C 685.336 -0.821545 -4.76977 0
M  V30 9213 N 685.266 0.1794 -3.94592 0
M  V30 9214 C 685.116 -0.419121 -2.70776 0
M  V30 9215 C 684.986 0.109072 -1.40577 0
M  V30 9216 N 684.976 1.4104 -1.1344 0
M  V30 9217 N 684.866 -0.764381 -0.39411 0
M  V30 9218 C 684.876 -2.06587 -0.664135 0
M  V30 9219 N 684.996 -2.67948 -1.82153 0
M  V30 9220 C 685.116 -1.77942 -2.8147 0
M  V30 9221 H 688.095 -3.41248 -7.98759 0
M  V30 9222 H 688.367 -2.57728 -6.42 0
M  V30 9223 H 687.499 -5.02657 -6.42673 0
M  V30 9224 H 684.844 -4.11708 -4.08956 0
M  V30 9225 H 684.564 -2.49626 -6.61679 0
M  V30 9226 H 683.573 -3.8662 -6.00862 0
M  V30 9227 H 685.407 -4.29991 -7.97006 0
M  V30 9228 H 685.448 -0.702451 -5.84696 0
M  V30 9229 H 685.067 2.09647 -1.89651 0
M  V30 9230 H 684.878 1.73358 -0.160575 0
M  V30 9231 H 684.77 -2.71695 0.195838 0
M  V30 9232 P 683.536 -6.144 -6.45285 0
M  V30 9233 O 683.316 -7.54673 -6.86199 0
M  V30 9234 O 682.746 -5.12391 -7.179 0
M  V30 9235 O 683.286 -5.99236 -4.88467 0
M  V30 9236 C 684.226 -6.60234 -3.96415 0
M  V30 9237 C 683.496 -7.08079 -2.736 0
M  V30 9238 O 683.286 -5.94365 -1.8368 0
M  V30 9239 C 682.096 -7.64886 -2.9555 0
M  V30 9240 O 681.706 -8.5406 -1.90739 0
M  V30 9241 C 681.216 -6.4116 -2.90739 0
M  V30 9242 C 681.926 -5.55375 -1.86963 0
M  V30 9243 N 681.876 -4.09664 -2.15742 0
M  V30 9244 C 681.726 -3.22231 -1.08477 0
M  V30 9245 O 681.636 -3.68951 0.0600489 0
M  V30 9246 N 681.676 -1.76692 -1.48799 0
M  V30 9247 C 681.776 -1.41695 -2.57602 0
M  V30 9248 N 681.726 -0.107296 -2.75791 0
M  V30 9249 C 681.926 -2.29178 -3.69733 0
M  V30 9250 C 681.976 -3.62753 -3.42653 0
M  V30 9251 H 684.716 -7.45488 -4.45578 0
M  V30 9252 H 684.986 -5.86232 -3.67314 0
M  V30 9253 H 684.119 -7.84508 -2.24507 0
M  V30 9254 H 681.464 -5.73556 -0.888715 0
M  V30 9255 H 681.184 -5.9096 -3.88638 0
M  V30 9256 H 680.193 -6.66053 -2.58894 0
M  V30 9257 H 682.027 -8.16339 -3.92049 0
M  V30 9258 H 682.099 -4.33052 -4.24913 0
M  V30 9259 H 681.997 -1.9103 -4.71577 0
M  V30 9260 H 681.609 0.521221 -1.95056 0
M  V30 9261 H 681.805 0.286429 -3.70695 0
M  V30 9262 P 680.156 -8.7635 -1.60911 0
M  V30 9263 O 679.936 -10.1388 -1.11561 0
M  V30 9264 O 679.366 -8.36503 -2.79617 0
M  V30 9265 O 679.906 -7.71806 -0.42951 0
M  V30 9266 C 680.846 -7.66948 0.673514 0
M  V30 9267 C 680.116 -7.33374 1.95559 0
M  V30 9268 O 679.906 -5.88721 2.00726 0
M  V30 9269 C 678.716 -7.92218 2.1125 0
M  V30 9270 O 678.326 -8.02971 3.47653 0
M  V30 9271 C 677.836 -6.89504 1.41631 0
M  V30 9272 C 678.546 -5.59106 1.75155 0
M  V30 9273 N 678.496 -4.58136 0.662409 0
M  V30 9274 C 678.346 -3.26059 1.02863 0
M  V30 9275 O 678.256 -2.90743 2.19009 0
M  V30 9276 N 678.306 -2.35995 -0.0155585 0
M  V30 9277 C 678.396 -2.65248 -1.35603 0
M  V30 9278 C 678.546 -4.05747 -1.64698 0
M  V30 9279 C 678.596 -4.96734 -0.652411 0
M  V30 9280 H 681.337 -8.64917 0.776982 0
M  V30 9281 H 681.606 -6.89974 0.474015 0
M  V30 9282 H 680.739 -7.66548 2.79458 0
M  V30 9283 H 678.084 -5.16076 2.65138 0
M  V30 9284 H 677.805 -7.06433 0.329384 0
M  V30 9285 H 676.813 -6.90829 1.81996 0
M  V30 9286 H 678.647 -8.90774 1.62639 0
M  V30 9287 H 678.718 -6.02181 -0.895285 0
M  V30 9288 P 676.776 -8.03563 3.84925 0
M  V30 9289 O 676.556 -8.85821 5.0569 0
M  V30 9290 O 675.986 -8.41101 2.65469 0
M  V30 9291 O 676.526 -6.4965 4.18908 0
M  V30 9292 C 677.466 -5.81037 5.05421 0
M  V30 9293 C 676.736 -4.78366 5.89277 0
M  V30 9294 O 676.526 -3.58302 5.08433 0
M  V30 9295 C 675.336 -5.17448 6.36119 0
M  V30 9296 O 674.946 -4.45271 7.53232 0
M  V30 9297 C 674.456 -4.74639 5.19936 0
M  V30 9298 C 675.166 -3.49432 4.70418 0
M  V30 9299 N 675.116 -3.32099 3.22613 0
M  V30 9300 H 677.955 -6.54213 5.71376 0
M  V30 9301 H 678.227 -5.30936 4.43503 0
M  V30 9302 H 677.359 -4.55889 6.76652 0
M  V30 9303 H 674.704 -2.61715 5.17932 0
M  V30 9304 H 674.424 -5.52155 4.41878 0
M  V30 9305 H 673.433 -4.51981 5.53374 0
M  V30 9306 H 675.267 -6.25124 6.55234 0
M  V30 9307 P 673.396 -4.23843 7.83734 0
M  V30 9308 O 673.176 -4.19407 9.29784 0
M  V30 9309 O 672.606 -5.24426 7.09156 0
M  V30 9310 O 673.146 -2.7935 7.20758 0
M  V30 9311 C 674.086 -1.72945 7.50224 0
M  V30 9312 C 673.356 -0.406376 7.57911 0
M  V30 9313 O 673.146 0.0897726 6.21935 0
M  V30 9314 C 671.956 -0.438983 8.18724 0
M  V30 9315 O 671.566 0.825065 8.71101 0
M  V30 9316 C 671.076 -0.783689 6.99524 0
M  V30 9317 C 671.786 -0.0619086 5.85867 0
M  V30 9318 N 671.736 -0.78573 4.56183 0
M  V30 9319 C 671.586 -0.0292889 3.41887 0
M  V30 9320 O 671.496 1.18445 3.4419 0
M  V30 9321 N 671.546 -0.744061 2.23964 0
M  V30 9322 C 671.636 -2.10932 2.10362 0
M  V30 9323 C 671.786 -2.8202 3.34994 0
M  V30 9324 C 671.836 -2.15547 4.52261 0
M  V30 9325 H 674.577 -1.93379 8.46595 0
M  V30 9326 H 674.846 -1.68132 6.70852 0
M  V30 9327 H 673.979 0.289041 8.15388 0
M  V30 9328 H 671.324 0.926847 5.72749 0
M  V30 9329 H 671.045 -1.86973 6.82036 0
M  V30 9330 H 670.053 -0.403896 7.13257 0
M  V30 9331 H 671.887 -1.20585 8.97435 0
M  V30 9332 H 671.958 -2.71231 5.45042 0
M  V30 9333 P 670.016 1.17771 8.83182 0
M  V30 9334 O 669.796 2.07206 9.98732 0
M  V30 9335 O 669.226 -0.0743816 8.81969 0
M  V30 9336 O 669.766 1.97652 7.47304 0
M  V30 9337 C 670.706 3.01055 7.08599 0
M  V30 9338 C 669.976 4.12613 6.37049 0
M  V30 9339 O 669.766 3.72827 4.97879 0
M  V30 9340 C 668.576 4.45719 6.88164 0
M  V30 9341 O 668.186 5.7877 6.5624 0
M  V30 9342 C 667.696 3.47768 6.11991 0
M  V30 9343 C 668.406 3.39356 4.77615 0
M  V30 9344 N 668.356 2.04571 4.15244 0
M  V30 9345 C 668.206 1.98587 2.78314 0
M  V30 9346 O 668.116 2.98134 2.08835 0
M  V30 9347 N 668.166 0.714467 2.24925 0
M  V30 9348 C 668.256 -0.470001 2.94169 0
M  V30 9349 C 668.406 -0.312541 4.36783 0
M  V30 9350 C 668.456 0.914512 4.92583 0
M  V30 9351 H 671.197 3.41169 7.98575 0
M  V30 9352 H 671.466 2.58295 6.41556 0
M  V30 9353 H 670.599 5.02657 6.42673 0
M  V30 9354 H 667.944 4.11637 4.08885 0
M  V30 9355 H 667.665 2.49626 6.61679 0
M  V30 9356 H 666.673 3.86566 6.00778 0
M  V30 9357 H 668.507 4.29943 7.96918 0
M  V30 9358 H 668.578 1.00937 6.00374 0
M  V30 9359 P 666.636 6.144 6.45285 0
M  V30 9360 O 666.416 7.54673 6.86199 0
M  V30 9361 O 665.846 5.12391 7.179 0
M  V30 9362 O 666.386 5.99236 4.88467 0
M  V30 9363 C 667.326 6.60234 3.96415 0
M  V30 9364 C 666.596 7.08079 2.736 0
M  V30 9365 O 666.386 5.94365 1.8368 0
M  V30 9366 C 665.196 7.64886 2.9555 0
M  V30 9367 O 664.806 8.5406 1.90739 0
M  V30 9368 C 664.316 6.4116 2.90739 0
M  V30 9369 C 665.026 5.55375 1.86963 0
M  V30 9370 N 664.976 4.09664 2.15742 0
M  V30 9371 C 664.826 3.22231 1.08477 0
M  V30 9372 O 664.736 3.68951 -0.0600489 0
M  V30 9373 N 664.776 1.76692 1.48799 0
M  V30 9374 C 664.876 1.41695 2.57602 0
M  V30 9375 N 664.826 0.107296 2.75791 0
M  V30 9376 C 665.026 2.29178 3.69733 0
M  V30 9377 C 665.076 3.62753 3.42653 0
M  V30 9378 H 667.816 7.45488 4.45578 0
M  V30 9379 H 668.086 5.86232 3.67314 0
M  V30 9380 H 667.219 7.84508 2.24507 0
M  V30 9381 H 664.564 5.73556 0.888715 0
M  V30 9382 H 664.284 5.9096 3.88638 0
M  V30 9383 H 663.293 6.66053 2.58894 0
M  V30 9384 H 665.127 8.16339 3.92049 0
M  V30 9385 H 665.199 4.33052 4.24913 0
M  V30 9386 H 665.097 1.9103 4.71577 0
M  V30 9387 H 664.709 -0.521221 1.95056 0
M  V30 9388 H 664.905 -0.286429 3.70695 0
M  V30 9389 P 663.256 8.7635 1.60911 0
M  V30 9390 O 663.036 10.1388 1.11561 0
M  V30 9391 O 662.466 8.36503 2.79617 0
M  V30 9392 O 663.006 7.71806 0.42951 0
M  V30 9393 C 663.946 7.67148 -0.673689 0
M  V30 9394 C 663.216 7.33374 -1.95559 0
M  V30 9395 O 663.006 5.88721 -2.00726 0
M  V30 9396 C 661.816 7.92526 -2.10483 0
M  V30 9397 O 661.426 8.02971 -3.47653 0
M  V30 9398 C 660.936 6.89602 -1.41652 0
M  V30 9399 C 661.646 5.59201 -1.75185 0
M  V30 9400 N 661.596 4.58235 -0.662552 0
M  V30 9401 H 664.435 8.65116 -0.777161 0
M  V30 9402 H 664.707 6.90173 -0.474152 0
M  V30 9403 H 663.839 7.66548 -2.79458 0
M  V30 9404 P 659.876 8.03563 -3.84925 0
M  V30 9405 O 659.656 8.85821 -5.0569 0
M  V30 9406 O 659.086 8.41101 -2.65469 0
M  V30 9407 O 659.626 6.4965 -4.18908 0
M  V30 9408 C 660.566 5.81037 -5.05421 0
M  V30 9409 C 659.836 4.78366 -5.89277 0
M  V30 9410 O 659.626 3.58302 -5.08433 0
M  V30 9411 C 658.436 5.17448 -6.36119 0
M  V30 9412 O 658.046 4.45271 -7.53232 0
M  V30 9413 C 657.556 4.74639 -5.19936 0
M  V30 9414 C 658.266 3.49432 -4.70418 0
M  V30 9415 N 658.216 3.31776 -3.22945 0
M  V30 9416 H 661.055 6.54213 -5.71376 0
M  V30 9417 H 661.327 5.30492 -4.44033 0
M  V30 9418 H 660.459 4.55889 -6.76652 0
M  V30 9419 P 656.496 4.23843 -7.83734 0
M  V30 9420 O 656.276 4.19407 -9.29784 0
M  V30 9421 O 655.706 5.24426 -7.09156 0
M  V30 9422 O 656.246 2.7935 -7.20758 0
M  V30 9423 C 657.186 1.7299 -7.50419 0
M  V30 9424 C 656.456 0.406376 -7.57911 0
M  V30 9425 O 656.246 -0.0897726 -6.21935 0
M  V30 9426 C 655.056 0.447224 -8.1878 0
M  V30 9427 O 654.666 -0.825065 -8.71101 0
M  V30 9428 C 654.176 0.783801 -6.99623 0
M  V30 9429 C 654.886 0.0619192 -5.85967 0
M  V30 9430 N 654.836 0.7859 -4.56281 0
M  V30 9431 H 657.675 1.93423 -8.4679 0
M  V30 9432 H 657.947 1.68181 -6.71046 0
M  V30 9433 H 657.079 -0.289041 -8.15388 0
M  V30 9434 P 653.116 -1.17771 -8.83182 0
M  V30 9435 O 652.896 -2.07206 -9.98732 0
M  V30 9436 O 652.326 0.0743816 -8.81969 0
M  V30 9437 O 652.866 -1.97652 -7.47304 0
M  V30 9438 C 653.806 -3.01055 -7.08599 0
M  V30 9439 C 653.076 -4.12613 -6.37049 0
M  V30 9440 O 652.866 -3.72827 -4.97879 0
M  V30 9441 C 651.676 -4.45719 -6.88164 0
M  V30 9442 O 651.286 -5.7877 -6.5624 0
M  V30 9443 C 650.796 -3.47768 -6.11991 0
M  V30 9444 C 651.506 -3.39356 -4.77615 0
M  V30 9445 N 651.456 -2.04571 -4.15244 0
M  V30 9446 C 651.306 -1.98587 -2.78314 0
M  V30 9447 O 651.216 -2.98134 -2.08835 0
M  V30 9448 N 651.266 -0.714467 -2.24925 0
M  V30 9449 C 651.356 0.470001 -2.94169 0
M  V30 9450 O 651.306 1.55587 -2.35195 0
M  V30 9451 C 651.506 0.312541 -4.36783 0
M  V30 9452 C 651.616 1.57711 -5.16352 0
M  V30 9453 C 651.556 -0.914512 -4.92583 0
M  V30 9454 H 654.297 -3.41169 -7.98575 0
M  V30 9455 H 654.566 -2.58295 -6.41556 0
M  V30 9456 H 653.699 -5.02657 -6.42673 0
M  V30 9457 H 651.044 -4.11637 -4.08885 0
M  V30 9458 H 650.765 -2.49626 -6.61679 0
M  V30 9459 H 649.773 -3.86566 -6.00778 0
M  V30 9460 H 651.607 -4.29943 -7.96918 0
M  V30 9461 H 651.678 -1.00937 -6.00374 0
M  V30 9462 H 650.648 1.80153 -5.63503 0
M  V30 9463 H 652.385 1.4566 -5.94104 0
M  V30 9464 H 651.897 2.40664 -4.49645 0
M  V30 9465 H 651.161 -0.647622 -1.25697 0
M  V30 9466 P 649.736 -6.144 -6.45285 0
M  V30 9467 O 649.516 -7.54673 -6.86199 0
M  V30 9468 O 648.946 -5.12391 -7.179 0
M  V30 9469 O 649.486 -5.99158 -4.88404 0
M  V30 9470 C 650.426 -6.60062 -3.96313 0
M  V30 9471 C 649.696 -7.08259 -2.72856 0
M  V30 9472 O 649.486 -5.9427 -1.83651 0
M  V30 9473 C 648.296 -7.65087 -2.94749 0
M  V30 9474 O 647.906 -8.53963 -1.90717 0
M  V30 9475 C 647.416 -6.41069 -2.90698 0
M  V30 9476 C 648.126 -5.5528 -1.86931 0
M  V30 9477 N 648.076 -4.09575 -2.15696 0
M  V30 9478 C 647.926 -3.24249 -1.08435 0
M  V30 9479 O 647.836 -3.63946 0.0628747 0
M  V30 9480 N 647.886 -1.90009 -1.39973 0
M  V30 9481 C 647.976 -1.34884 -2.65614 0
M  V30 9482 O 647.926 -0.123716 -2.81728 0
M  V30 9483 C 648.126 -2.3145 -3.71736 0
M  V30 9484 C 648.236 -1.75913 -5.10438 0
M  V30 9485 C 648.176 -3.63518 -3.44754 0
M  V30 9486 H 650.917 -7.45402 -4.45526 0
M  V30 9487 H 651.186 -5.86062 -3.67208 0
M  V30 9488 H 650.319 -7.84412 -2.24479 0
M  V30 9489 H 647.664 -5.73358 -0.888409 0
M  V30 9490 H 647.385 -5.90877 -3.88583 0
M  V30 9491 H 646.393 -6.65867 -2.58821 0
M  V30 9492 H 648.227 -8.16248 -3.92006 0
M  V30 9493 H 648.298 -4.34551 -4.26383 0
M  V30 9494 H 647.268 -1.85471 -5.61775 0
M  V30 9495 H 649.005 -2.31364 -5.66257 0
M  V30 9496 H 648.517 -0.695936 -5.05229 0
M  V30 9497 H 647.781 -1.26277 -0.63625 0
M  V30 9498 P 646.356 -8.7635 -1.60911 0
M  V30 9499 O 646.136 -10.1388 -1.11561 0
M  V30 9500 O 645.566 -8.36503 -2.79617 0
M  V30 9501 O 646.106 -7.71806 -0.42951 0
M  V30 9502 C 647.046 -7.67148 0.673689 0
M  V30 9503 C 646.316 -7.33374 1.95559 0
M  V30 9504 O 646.106 -5.88721 2.00726 0
M  V30 9505 C 644.916 -7.92526 2.10483 0
M  V30 9506 O 644.526 -8.02971 3.47653 0
M  V30 9507 C 644.036 -6.89602 1.41652 0
M  V30 9508 C 644.746 -5.59201 1.75185 0
M  V30 9509 N 644.696 -4.58235 0.662552 0
M  V30 9510 H 647.535 -8.65116 0.777161 0
M  V30 9511 H 647.807 -6.90173 0.474152 0
M  V30 9512 H 646.939 -7.66548 2.79458 0
M  V30 9513 P 642.976 -8.03563 3.84925 0
M  V30 9514 O 642.756 -8.85821 5.0569 0
M  V30 9515 O 642.186 -8.41101 2.65469 0
M  V30 9516 O 642.726 -6.4965 4.18908 0
M  V30 9517 C 643.666 -5.81037 5.05421 0
M  V30 9518 C 642.936 -4.78366 5.89277 0
M  V30 9519 O 642.726 -3.58302 5.08433 0
M  V30 9520 C 641.536 -5.17448 6.36119 0
M  V30 9521 O 641.146 -4.45271 7.53232 0
M  V30 9522 C 640.656 -4.74639 5.19936 0
M  V30 9523 C 641.366 -3.49432 4.70418 0
M  V30 9524 N 641.316 -3.31776 3.22945 0
M  V30 9525 H 644.155 -6.54213 5.71376 0
M  V30 9526 H 644.427 -5.30492 4.44033 0
M  V30 9527 H 643.559 -4.55889 6.76652 0
M  V30 9528 P 639.596 -4.23843 7.83734 0
M  V30 9529 O 639.376 -4.19407 9.29784 0
M  V30 9530 O 638.806 -5.24426 7.09156 0
M  V30 9531 O 639.346 -2.7935 7.20758 0
M  V30 9532 C 640.286 -1.7299 7.50419 0
M  V30 9533 C 639.556 -0.406376 7.57911 0
M  V30 9534 O 639.346 0.0897726 6.21935 0
M  V30 9535 C 638.156 -0.447224 8.1878 0
M  V30 9536 O 637.766 0.825065 8.71101 0
M  V30 9537 C 637.276 -0.783801 6.99623 0
M  V30 9538 C 637.986 -0.0619192 5.85967 0
M  V30 9539 N 637.936 -0.790462 4.56202 0
M  V30 9540 C 638.016 -2.13895 4.34171 0
M  V30 9541 N 637.946 -2.46449 3.08687 0
M  V30 9542 C 637.796 -1.2525 2.43697 0
M  V30 9543 C 637.666 -0.914535 1.07318 0
M  V30 9544 N 637.656 -1.80782 0.0887348 0
M  V30 9545 N 637.546 0.386745 0.768133 0
M  V30 9546 C 637.556 1.28096 1.75159 0
M  V30 9547 N 637.676 1.09708 3.04861 0
M  V30 9548 C 637.796 -0.214857 3.32306 0
M  V30 9549 H 640.775 -1.93423 8.4679 0
M  V30 9550 H 641.047 -1.68852 6.70877 0
M  V30 9551 H 640.179 0.289041 8.15388 0
M  V30 9552 H 637.524 0.927006 5.72848 0
M  V30 9553 H 637.244 -1.86973 6.82036 0
M  V30 9554 H 636.253 -0.403953 7.13357 0
M  V30 9555 H 638.087 -1.20599 8.97534 0
M  V30 9556 H 638.128 -2.86846 5.14318 0
M  V30 9557 H 637.747 -2.81082 0.302037 0
M  V30 9558 H 637.558 -1.49688 -0.889064 0
M  V30 9559 H 637.45 2.31317 1.43855 0
M  V30 9560 P 636.216 1.17771 8.83182 0
M  V30 9561 O 635.996 2.07206 9.98732 0
M  V30 9562 O 635.426 -0.0743816 8.81969 0
M  V30 9563 O 635.966 1.97652 7.47304 0
M  V30 9564 C 636.906 3.01133 7.08783 0
M  V30 9565 C 636.176 4.12613 6.37049 0
M  V30 9566 O 635.966 3.72827 4.97879 0
M  V30 9567 C 634.776 4.45085 6.88694 0
M  V30 9568 O 634.386 5.7877 6.5624 0
M  V30 9569 C 633.896 3.47817 6.12078 0
M  V30 9570 C 634.606 3.39414 4.77697 0
M  V30 9571 N 634.556 2.04615 4.15333 0
M  V30 9572 H 637.395 3.41248 7.98759 0
M  V30 9573 H 637.667 2.5837 6.41742 0
M  V30 9574 H 636.799 5.02657 6.42673 0
M  V30 9575 P 632.836 6.144 6.45285 0
M  V30 9576 O 632.616 7.54673 6.86199 0
M  V30 9577 O 632.046 5.12391 7.179 0
M  V30 9578 O 632.586 5.99158 4.88404 0
M  V30 9579 C 633.526 6.60062 3.96313 0
M  V30 9580 C 632.796 7.08259 2.72856 0
M  V30 9581 O 632.586 5.9427 1.83651 0
M  V30 9582 C 631.396 7.65087 2.94749 0
M  V30 9583 O 631.006 8.53963 1.90717 0
M  V30 9584 C 630.516 6.41069 2.90698 0
M  V30 9585 C 631.226 5.5528 1.86931 0
M  V30 9586 N 631.176 4.09575 2.15696 0
M  V30 9587 C 631.026 3.24249 1.08435 0
M  V30 9588 O 630.936 3.63946 -0.0628747 0
M  V30 9589 N 630.986 1.90009 1.39973 0
M  V30 9590 C 631.076 1.34884 2.65614 0
M  V30 9591 C 631.226 2.3145 3.71736 0
M  V30 9592 C 631.276 3.63518 3.44754 0
M  V30 9593 H 634.017 7.45402 4.45526 0
M  V30 9594 H 634.286 5.86062 3.67208 0
M  V30 9595 H 633.419 7.84412 2.24479 0
M  V30 9596 H 630.764 5.73358 0.888409 0
M  V30 9597 H 630.485 5.90877 3.88583 0
M  V30 9598 H 629.493 6.65867 2.58821 0
M  V30 9599 H 631.327 8.16248 3.92006 0
M  V30 9600 H 631.398 4.34551 4.26383 0
M  V30 9601 P 629.456 8.7635 1.60911 0
M  V30 9602 O 629.236 10.1388 1.11561 0
M  V30 9603 O 628.666 8.36503 2.79617 0
M  V30 9604 O 629.206 7.71806 0.42951 0
M  V30 9605 C 630.146 7.67148 -0.673689 0
M  V30 9606 C 629.416 7.33374 -1.95559 0
M  V30 9607 O 629.206 5.88721 -2.00726 0
M  V30 9608 C 628.016 7.92526 -2.10483 0
M  V30 9609 O 627.626 8.02971 -3.47653 0
M  V30 9610 C 627.136 6.89602 -1.41652 0
M  V30 9611 C 627.846 5.59201 -1.75185 0
M  V30 9612 N 627.796 4.58235 -0.662552 0
M  V30 9613 H 630.635 8.65116 -0.777161 0
M  V30 9614 H 630.907 6.90173 -0.474152 0
M  V30 9615 H 630.039 7.66548 -2.79458 0
M  V30 9616 P 626.076 8.03563 -3.84925 0
M  V30 9617 O 625.856 8.85821 -5.0569 0
M  V30 9618 O 625.286 8.41101 -2.65469 0
M  V30 9619 O 625.826 6.49734 -4.18962 0
M  V30 9620 C 626.766 5.81037 -5.05421 0
M  V30 9621 C 626.036 4.79018 -5.88876 0
M  V30 9622 O 625.826 3.58359 -5.08515 0
M  V30 9623 C 624.636 5.17448 -6.36119 0
M  V30 9624 O 624.246 4.45322 -7.53318 0
M  V30 9625 C 623.756 4.74639 -5.19936 0
M  V30 9626 C 624.466 3.49432 -4.70418 0
M  V30 9627 N 624.416 3.31776 -3.22945 0
M  V30 9628 C 624.266 2.02742 -2.72939 0
M  V30 9629 O 624.176 1.08301 -3.52749 0
M  V30 9630 N 624.216 1.96117 -1.22063 0
M  V30 9631 C 624.316 2.8878 -0.551566 0
M  V30 9632 N 624.266 2.65609 0.750198 0
M  V30 9633 C 624.466 4.22457 -1.03707 0
M  V30 9634 C 624.516 4.37979 -2.39113 0
M  V30 9635 H 627.256 6.54138 -5.7131 0
M  V30 9636 H 627.526 5.30492 -4.44033 0
M  V30 9637 H 626.659 4.55945 -6.76735 0
M  V30 9638 H 624.004 2.6176 -5.18021 0
M  V30 9639 H 623.724 5.52233 -4.41941 0
M  V30 9640 H 622.733 4.52045 -5.53452 0
M  V30 9641 H 624.567 6.25124 -6.55234 0
M  V30 9642 H 624.639 5.37936 -2.80552 0
M  V30 9643 H 624.537 5.07528 -0.359553 0
M  V30 9644 H 624.149 1.69403 1.09847 0
M  V30 9645 H 624.345 3.43701 1.41792 0
M  V30 9646 P 622.696 4.23843 -7.83734 0
M  V30 9647 O 622.476 4.19407 -9.29784 0
M  V30 9648 O 621.906 5.24426 -7.09156 0
M  V30 9649 O 622.446 2.7935 -7.20758 0
M  V30 9650 C 623.386 1.7299 -7.50419 0
M  V30 9651 C 622.656 0.406376 -7.57911 0
M  V30 9652 O 622.446 -0.0897726 -6.21935 0
M  V30 9653 C 621.256 0.447224 -8.1878 0
M  V30 9654 O 620.866 -0.825065 -8.71101 0
M  V30 9655 C 620.376 0.783801 -6.99623 0
M  V30 9656 C 621.086 0.0619192 -5.85967 0
M  V30 9657 N 621.036 0.7859 -4.56281 0
M  V30 9658 H 623.875 1.93423 -8.4679 0
M  V30 9659 H 624.147 1.68181 -6.71046 0
M  V30 9660 H 623.279 -0.289041 -8.15388 0
M  V30 9661 P 619.316 -1.17771 -8.83182 0
M  V30 9662 O 619.096 -2.07206 -9.98732 0
M  V30 9663 O 618.526 0.0743816 -8.81969 0
M  V30 9664 O 619.066 -1.97652 -7.47304 0
M  V30 9665 C 620.006 -3.01133 -7.08783 0
M  V30 9666 C 619.276 -4.12613 -6.37049 0
M  V30 9667 O 619.066 -3.72827 -4.97879 0
M  V30 9668 C 617.876 -4.45085 -6.88694 0
M  V30 9669 O 617.486 -5.7877 -6.5624 0
M  V30 9670 C 616.996 -3.47817 -6.12078 0
M  V30 9671 C 617.706 -3.39414 -4.77697 0
M  V30 9672 N 617.656 -2.04615 -4.15333 0
M  V30 9673 H 620.495 -3.41248 -7.98759 0
M  V30 9674 H 620.767 -2.5837 -6.41742 0
M  V30 9675 H 619.899 -5.02657 -6.42673 0
M  V30 9676 P 615.936 -6.144 -6.45285 0
M  V30 9677 O 615.716 -7.54673 -6.86199 0
M  V30 9678 O 615.146 -5.12391 -7.179 0
M  V30 9679 O 615.686 -5.99158 -4.88404 0
M  V30 9680 C 616.626 -6.60062 -3.96313 0
M  V30 9681 C 615.896 -7.08259 -2.72856 0
M  V30 9682 O 615.686 -5.9427 -1.83651 0
M  V30 9683 C 614.496 -7.65087 -2.94749 0
M  V30 9684 O 614.106 -8.53963 -1.90717 0
M  V30 9685 C 613.616 -6.41069 -2.90698 0
M  V30 9686 C 614.326 -5.5528 -1.86931 0
M  V30 9687 N 614.276 -4.09575 -2.15696 0
M  V30 9688 C 614.126 -3.24249 -1.08435 0
M  V30 9689 O 614.036 -3.63946 0.0628747 0
M  V30 9690 N 614.086 -1.90009 -1.39973 0
M  V30 9691 C 614.176 -1.34884 -2.65614 0
M  V30 9692 C 614.326 -2.3145 -3.71736 0
M  V30 9693 C 614.376 -3.63518 -3.44754 0
M  V30 9694 H 617.117 -7.45402 -4.45526 0
M  V30 9695 H 617.386 -5.86062 -3.67208 0
M  V30 9696 H 616.519 -7.84412 -2.24479 0
M  V30 9697 H 613.864 -5.73358 -0.888409 0
M  V30 9698 H 613.585 -5.90877 -3.88583 0
M  V30 9699 H 612.593 -6.65867 -2.58821 0
M  V30 9700 H 614.427 -8.16248 -3.92006 0
M  V30 9701 H 614.498 -4.34551 -4.26383 0
M  V30 9702 P 612.556 -8.7635 -1.60911 0
M  V30 9703 O 612.336 -10.1388 -1.11561 0
M  V30 9704 O 611.766 -8.36503 -2.79617 0
M  V30 9705 O 612.306 -7.71806 -0.42951 0
M  V30 9706 C 613.246 -7.66948 0.673514 0
M  V30 9707 C 612.516 -7.33374 1.95559 0
M  V30 9708 O 612.306 -5.88721 2.00726 0
M  V30 9709 C 611.116 -7.92218 2.1125 0
M  V30 9710 O 610.726 -8.02971 3.47653 0
M  V30 9711 C 610.236 -6.89504 1.41631 0
M  V30 9712 C 610.946 -5.59106 1.75155 0
M  V30 9713 N 610.896 -4.58136 0.662409 0
M  V30 9714 C 610.746 -3.26059 1.02863 0
M  V30 9715 O 610.656 -2.90743 2.19009 0
M  V30 9716 N 610.706 -2.35995 -0.0155585 0
M  V30 9717 C 610.796 -2.65248 -1.35603 0
M  V30 9718 O 610.746 -1.75605 -2.20651 0
M  V30 9719 C 610.946 -4.05747 -1.64698 0
M  V30 9720 C 611.056 -4.42345 -3.09553 0
M  V30 9721 C 610.996 -4.96734 -0.652411 0
M  V30 9722 H 613.737 -8.64917 0.776982 0
M  V30 9723 H 614.006 -6.89974 0.474015 0
M  V30 9724 H 613.139 -7.66548 2.79458 0
M  V30 9725 H 610.484 -5.16076 2.65138 0
M  V30 9726 H 610.205 -7.06433 0.329384 0
M  V30 9727 H 609.213 -6.90829 1.81996 0
M  V30 9728 H 611.047 -8.90774 1.62639 0
M  V30 9729 H 611.118 -6.02181 -0.895285 0
M  V30 9730 H 610.088 -4.80252 -3.45468 0
M  V30 9731 H 611.825 -5.20015 -3.22119 0
M  V30 9732 H 611.337 -3.53269 -3.67833 0
M  V30 9733 H 610.601 -1.39558 0.227499 0
M  V30 9734 P 609.176 -8.03563 3.84925 0
M  V30 9735 O 608.956 -8.85821 5.0569 0
M  V30 9736 O 608.386 -8.41101 2.65469 0
M  V30 9737 O 608.926 -6.4965 4.18908 0
M  V30 9738 C 609.866 -5.81037 5.05421 0
M  V30 9739 C 609.136 -4.78366 5.89277 0
M  V30 9740 O 608.926 -3.58302 5.08433 0
M  V30 9741 C 607.736 -5.17448 6.36119 0
M  V30 9742 O 607.346 -4.45271 7.53232 0
M  V30 9743 C 606.856 -4.74639 5.19936 0
M  V30 9744 C 607.566 -3.49432 4.70418 0
M  V30 9745 N 607.516 -3.32099 3.22613 0
M  V30 9746 H 610.355 -6.54213 5.71376 0
M  V30 9747 H 610.627 -5.30936 4.43503 0
M  V30 9748 H 609.759 -4.55889 6.76652 0
M  V30 9749 H 607.104 -2.61715 5.17932 0
M  V30 9750 H 606.824 -5.52155 4.41878 0
M  V30 9751 H 605.833 -4.51981 5.53374 0
M  V30 9752 H 607.667 -6.25124 6.55234 0
M  V30 9753 P 605.796 -4.23843 7.83734 0
M  V30 9754 O 605.576 -4.19407 9.29784 0
M  V30 9755 O 605.006 -5.24426 7.09156 0
M  V30 9756 O 605.546 -2.7935 7.20758 0
M  V30 9757 C 606.486 -1.72945 7.50224 0
M  V30 9758 C 605.756 -0.406376 7.57911 0
M  V30 9759 O 605.546 0.0897726 6.21935 0
M  V30 9760 C 604.356 -0.438983 8.18724 0
M  V30 9761 O 603.966 0.825065 8.71101 0
M  V30 9762 C 603.476 -0.783689 6.99524 0
M  V30 9763 C 604.186 -0.0619086 5.85867 0
M  V30 9764 N 604.136 -0.78573 4.56183 0
M  V30 9765 C 603.986 -0.0292889 3.41887 0
M  V30 9766 O 603.896 1.18445 3.4419 0
M  V30 9767 N 603.946 -0.744061 2.23964 0
M  V30 9768 C 604.036 -2.10932 2.10362 0
M  V30 9769 C 604.186 -2.8202 3.34994 0
M  V30 9770 C 604.236 -2.15547 4.52261 0
M  V30 9771 H 606.977 -1.93379 8.46595 0
M  V30 9772 H 607.246 -1.68132 6.70852 0
M  V30 9773 H 606.379 0.289041 8.15388 0
M  V30 9774 H 603.724 0.926847 5.72749 0
M  V30 9775 H 603.445 -1.86973 6.82036 0
M  V30 9776 H 602.453 -0.403896 7.13257 0
M  V30 9777 H 604.287 -1.20585 8.97435 0
M  V30 9778 H 604.358 -2.71231 5.45042 0
M  V30 9779 P 602.416 1.17771 8.83182 0
M  V30 9780 O 602.196 2.07206 9.98732 0
M  V30 9781 O 601.626 -0.0743816 8.81969 0
M  V30 9782 O 602.166 1.97652 7.47304 0
M  V30 9783 C 603.106 3.01133 7.08783 0
M  V30 9784 C 602.376 4.12613 6.37049 0
M  V30 9785 O 602.166 3.72827 4.97879 0
M  V30 9786 C 600.976 4.45085 6.88694 0
M  V30 9787 O 600.586 5.7877 6.5624 0
M  V30 9788 C 600.096 3.47817 6.12078 0
M  V30 9789 C 600.806 3.39414 4.77697 0
M  V30 9790 N 600.756 2.04615 4.15333 0
M  V30 9791 H 603.595 3.41248 7.98759 0
M  V30 9792 H 603.867 2.5837 6.41742 0
M  V30 9793 H 602.999 5.02657 6.42673 0
M  V30 9794 P 599.036 6.144 6.45285 0
M  V30 9795 O 598.816 7.54673 6.86199 0
M  V30 9796 O 598.246 5.12391 7.179 0
M  V30 9797 O 598.786 5.99158 4.88404 0
M  V30 9798 C 599.726 6.60234 3.96415 0
M  V30 9799 C 598.996 7.08259 2.72856 0
M  V30 9800 O 598.786 5.9427 1.83651 0
M  V30 9801 C 597.596 7.64886 2.9555 0
M  V30 9802 O 597.206 8.53963 1.90717 0
M  V30 9803 C 596.716 6.4116 2.90739 0
M  V30 9804 C 597.426 5.55375 1.86963 0
M  V30 9805 N 597.376 4.09664 2.15742 0
M  V30 9806 H 600.215 7.45574 4.45629 0
M  V30 9807 H 600.487 5.86232 3.67314 0
M  V30 9808 H 599.619 7.84412 2.24479 0
M  V30 9809 P 595.656 8.7635 1.60911 0
M  V30 9810 O 595.437 10.1388 1.11561 0
M  V30 9811 O 594.866 8.36503 2.79617 0
M  V30 9812 O 595.406 7.71906 0.429565 0
M  V30 9813 C 596.346 7.67148 -0.673689 0
M  V30 9814 C 595.616 7.33666 -1.94851 0
M  V30 9815 O 595.406 5.88816 -2.00759 0
M  V30 9816 C 594.216 7.92526 -2.10483 0
M  V30 9817 O 593.827 8.03063 -3.47693 0
M  V30 9818 C 593.337 6.89602 -1.41652 0
M  V30 9819 C 594.046 5.59201 -1.75185 0
M  V30 9820 N 593.996 4.58235 -0.662552 0
M  V30 9821 C 593.846 3.24451 -1.01643 0
M  V30 9822 O 593.756 2.94958 -2.21722 0
M  V30 9823 N 593.796 2.30408 0.165238 0
M  V30 9824 C 593.896 2.66048 1.25118 0
M  V30 9825 N 593.846 1.70787 2.16813 0
M  V30 9826 C 594.046 4.02732 1.64413 0
M  V30 9827 C 594.096 4.9488 0.63991 0
M  V30 9828 H 596.837 8.65017 -0.777072 0
M  V30 9829 H 597.106 6.90173 -0.474152 0
M  V30 9830 H 596.24 7.66642 -2.79492 0
M  V30 9831 H 593.584 5.16254 -2.65229 0
M  V30 9832 H 593.304 7.06532 -0.329431 0
M  V30 9833 H 592.313 6.91023 -1.82047 0
M  V30 9834 H 594.147 8.90873 -1.62657 0
M  V30 9835 H 594.219 6.00104 0.892197 0
M  V30 9836 H 594.117 4.31733 2.69229 0
M  V30 9837 H 593.729 0.724835 1.8844 0
M  V30 9838 H 593.925 1.94716 3.16734 0
M  V30 9839 P 592.277 8.03563 -3.84925 0
M  V30 9840 O 592.057 8.85821 -5.0569 0
M  V30 9841 O 591.487 8.41101 -2.65469 0
M  V30 9842 O 592.027 6.4965 -4.18908 0
M  V30 9843 C 592.967 5.81037 -5.05421 0
M  V30 9844 C 592.237 4.78366 -5.89277 0
M  V30 9845 O 592.027 3.58302 -5.08433 0
M  V30 9846 C 590.837 5.17448 -6.36119 0
M  V30 9847 O 590.447 4.45271 -7.53232 0
M  V30 9848 C 589.957 4.74639 -5.19936 0
M  V30 9849 C 590.667 3.49432 -4.70418 0
M  V30 9850 N 590.617 3.31776 -3.22945 0
M  V30 9851 H 593.456 6.54213 -5.71376 0
M  V30 9852 H 593.728 5.30492 -4.44033 0
M  V30 9853 H 592.86 4.55889 -6.76652 0
M  V30 9854 P 588.897 4.23843 -7.83734 0
M  V30 9855 O 588.677 4.19407 -9.29784 0
M  V30 9856 O 588.107 5.24426 -7.09156 0
M  V30 9857 O 588.647 2.7935 -7.20758 0
M  V30 9858 C 589.587 1.72945 -7.50224 0
M  V30 9859 C 588.857 0.406376 -7.57911 0
M  V30 9860 O 588.647 -0.0897726 -6.21935 0
M  V30 9861 C 587.457 0.438983 -8.18724 0
M  V30 9862 O 587.067 -0.825065 -8.71101 0
M  V30 9863 C 586.577 0.783689 -6.99524 0
M  V30 9864 C 587.287 0.0619086 -5.85867 0
M  V30 9865 N 587.237 0.78573 -4.56183 0
M  V30 9866 C 587.087 0.0292889 -3.41887 0
M  V30 9867 O 586.997 -1.18445 -3.4419 0
M  V30 9868 N 587.047 0.744061 -2.23964 0
M  V30 9869 C 587.137 2.10932 -2.10362 0
M  V30 9870 O 587.087 2.64117 -0.98825 0
M  V30 9871 C 587.287 2.8202 -3.34994 0
M  V30 9872 C 587.397 4.31095 -3.25037 0
M  V30 9873 C 587.337 2.15547 -4.52261 0
M  V30 9874 H 590.078 1.93379 -8.46595 0
M  V30 9875 H 590.347 1.68132 -6.70852 0
M  V30 9876 H 589.48 -0.289041 -8.15388 0
M  V30 9877 H 586.825 -0.926847 -5.72749 0
M  V30 9878 H 586.546 1.86973 -6.82036 0
M  V30 9879 H 585.554 0.403896 -7.13257 0
M  V30 9880 H 587.388 1.20585 -8.97435 0
M  V30 9881 H 587.459 2.71231 -5.45042 0
M  V30 9882 H 586.429 4.76966 -3.49992 0
M  V30 9883 H 588.166 4.67047 -3.95024 0
M  V30 9884 H 587.678 4.58996 -2.22312 0
M  V30 9885 H 586.942 0.214893 -1.39758 0
M  V30 9886 P 585.517 -1.17771 -8.83182 0
M  V30 9887 O 585.297 -2.07206 -9.98732 0
M  V30 9888 O 584.727 0.0743816 -8.81969 0
M  V30 9889 O 585.267 -1.97652 -7.47304 0
M  V30 9890 C 586.207 -3.01133 -7.08783 0
M  V30 9891 C 585.477 -4.12613 -6.37049 0
M  V30 9892 O 585.267 -3.72827 -4.97879 0
M  V30 9893 C 584.077 -4.45085 -6.88694 0
M  V30 9894 O 583.687 -5.7877 -6.5624 0
M  V30 9895 C 583.197 -3.47817 -6.12078 0
M  V30 9896 C 583.907 -3.39414 -4.77697 0
M  V30 9897 N 583.857 -2.04615 -4.15333 0
M  V30 9898 H 586.696 -3.41248 -7.98759 0
M  V30 9899 H 586.968 -2.5837 -6.41742 0
M  V30 9900 H 586.1 -5.02657 -6.42673 0
M  V30 9901 P 582.137 -6.144 -6.45285 0
M  V30 9902 O 581.917 -7.54673 -6.86199 0
M  V30 9903 O 581.347 -5.12391 -7.179 0
M  V30 9904 O 581.887 -5.99158 -4.88404 0
M  V30 9905 C 582.827 -6.60234 -3.96415 0
M  V30 9906 C 582.097 -7.08259 -2.72856 0
M  V30 9907 O 581.887 -5.9427 -1.83651 0
M  V30 9908 C 580.697 -7.64886 -2.9555 0
M  V30 9909 O 580.307 -8.53963 -1.90717 0
M  V30 9910 C 579.817 -6.4116 -2.90739 0
M  V30 9911 C 580.527 -5.55375 -1.86963 0
M  V30 9912 N 580.477 -4.09664 -2.15742 0
M  V30 9913 H 583.316 -7.45574 -4.45629 0
M  V30 9914 H 583.588 -5.86232 -3.67314 0
M  V30 9915 H 582.72 -7.84412 -2.24479 0
M  V30 9916 P 578.757 -8.7635 -1.60911 0
M  V30 9917 O 578.537 -10.1388 -1.11561 0
M  V30 9918 O 577.967 -8.36503 -2.79617 0
M  V30 9919 O 578.507 -7.71806 -0.42951 0
M  V30 9920 C 579.447 -7.67148 0.673689 0
M  V30 9921 C 578.717 -7.33374 1.95559 0
M  V30 9922 O 578.507 -5.88721 2.00726 0
M  V30 9923 C 577.317 -7.92526 2.10483 0
M  V30 9924 O 576.927 -8.02971 3.47653 0
M  V30 9925 C 576.437 -6.89602 1.41652 0
M  V30 9926 C 577.147 -5.59201 1.75185 0
M  V30 9927 N 577.097 -4.58235 0.662552 0
M  V30 9928 H 579.936 -8.65116 0.777161 0
M  V30 9929 H 580.208 -6.90173 0.474152 0
M  V30 9930 H 579.34 -7.66548 2.79458 0
M  V30 9931 P 575.377 -8.03563 3.84925 0
M  V30 9932 O 575.157 -8.85821 5.0569 0
M  V30 9933 O 574.587 -8.41101 2.65469 0
M  V30 9934 O 575.127 -6.4965 4.18908 0
M  V30 9935 C 576.067 -5.81037 5.05421 0
M  V30 9936 C 575.337 -4.78366 5.89277 0
M  V30 9937 O 575.127 -3.58302 5.08433 0
M  V30 9938 C 573.937 -5.17448 6.36119 0
M  V30 9939 O 573.547 -4.45271 7.53232 0
M  V30 9940 C 573.057 -4.74639 5.19936 0
M  V30 9941 C 573.767 -3.49432 4.70418 0
M  V30 9942 N 573.717 -3.31776 3.22945 0
M  V30 9943 H 576.556 -6.54213 5.71376 0
M  V30 9944 H 576.828 -5.30492 4.44033 0
M  V30 9945 H 575.96 -4.55889 6.76652 0
M  V30 9946 P 571.997 -4.23843 7.83734 0
M  V30 9947 O 571.777 -4.19407 9.29784 0
M  V30 9948 O 571.207 -5.24426 7.09156 0
M  V30 9949 O 571.747 -2.7935 7.20758 0
M  V30 9950 C 572.687 -1.7299 7.50419 0
M  V30 9951 C 571.957 -0.406376 7.57911 0
M  V30 9952 O 571.747 0.0897726 6.21935 0
M  V30 9953 C 570.557 -0.447224 8.1878 0
M  V30 9954 O 570.167 0.825065 8.71101 0
M  V30 9955 C 569.677 -0.783801 6.99623 0
M  V30 9956 C 570.387 -0.0619192 5.85967 0
M  V30 9957 N 570.337 -0.790462 4.56202 0
M  V30 9958 C 570.417 -2.13895 4.34171 0
M  V30 9959 N 570.347 -2.46449 3.08687 0
M  V30 9960 C 570.197 -1.2525 2.43697 0
M  V30 9961 C 570.067 -0.914535 1.07318 0
M  V30 9962 N 570.057 -1.80782 0.0887348 0
M  V30 9963 N 569.947 0.386745 0.768133 0
M  V30 9964 C 569.957 1.28096 1.75159 0
M  V30 9965 N 570.077 1.09708 3.04861 0
M  V30 9966 C 570.197 -0.214857 3.32306 0
M  V30 9967 H 573.176 -1.93423 8.4679 0
M  V30 9968 H 573.448 -1.68852 6.70877 0
M  V30 9969 H 572.58 0.289041 8.15388 0
M  V30 9970 H 569.925 0.927006 5.72848 0
M  V30 9971 H 569.645 -1.86973 6.82036 0
M  V30 9972 H 568.654 -0.403953 7.13357 0
M  V30 9973 H 570.488 -1.20599 8.97534 0
M  V30 9974 H 570.529 -2.86846 5.14318 0
M  V30 9975 H 570.148 -2.81082 0.302037 0
M  V30 9976 H 569.959 -1.49688 -0.889064 0
M  V30 9977 H 569.851 2.31317 1.43855 0
M  V30 9978 P 568.617 1.17771 8.83182 0
M  V30 9979 O 568.397 2.07206 9.98732 0
M  V30 9980 O 567.827 -0.0743816 8.81969 0
M  V30 9981 O 568.367 1.97652 7.47304 0
M  V30 9982 C 569.307 3.01133 7.08783 0
M  V30 9983 C 568.577 4.12613 6.37049 0
M  V30 9984 O 568.367 3.72827 4.97879 0
M  V30 9985 C 567.177 4.45085 6.88694 0
M  V30 9986 O 566.787 5.7877 6.5624 0
M  V30 9987 C 566.297 3.47817 6.12078 0
M  V30 9988 C 567.007 3.39414 4.77697 0
M  V30 9989 N 566.957 2.04615 4.15333 0
M  V30 9990 C 567.037 0.803897 4.75249 0
M  V30 9991 N 566.957 -0.197615 3.91502 0
M  V30 9992 C 566.817 0.413002 2.66823 0
M  V30 9993 C 566.687 -0.157221 1.38007 0
M  V30 9994 N 566.567 0.833136 0.390236 0
M  V30 9995 C 566.567 2.19402 0.623885 0
M  V30 9996 N 566.437 2.97622 -0.449677 0
M  V30 9997 N 566.697 2.73005 1.83601 0
M  V30 9998 C 566.817 1.78786 2.80935 0
M  V30 9999 H 569.796 3.41248 7.98759 0
M  V30 10000 H 570.068 2.5837 6.41742 0
M  V30 10001 H 569.2 5.02657 6.42673 0
M  V30 10002 P 565.237 6.144 6.45285 0
M  V30 10003 O 565.017 7.54673 6.86199 0
M  V30 10004 O 564.447 5.12391 7.179 0
M  V30 10005 O 564.987 5.99158 4.88404 0
M  V30 10006 C 565.927 6.60234 3.96415 0
M  V30 10007 C 565.197 7.08259 2.72856 0
M  V30 10008 O 564.987 5.9427 1.83651 0
M  V30 10009 C 563.797 7.64886 2.9555 0
M  V30 10010 O 563.407 8.53963 1.90717 0
M  V30 10011 C 562.917 6.4116 2.90739 0
M  V30 10012 C 563.627 5.55375 1.86963 0
M  V30 10013 N 563.577 4.09664 2.15742 0
M  V30 10014 C 563.657 3.44381 3.37233 0
M  V30 10015 N 563.577 2.14131 3.28347 0
M  V30 10016 C 563.437 1.90247 1.91588 0
M  V30 10017 C 563.307 0.683992 1.20892 0
M  V30 10018 N 563.187 0.903396 -0.173998 0
M  V30 10019 C 563.187 2.14171 -0.784879 0
M  V30 10020 N 563.057 2.1435 -2.11317 0
M  V30 10021 N 563.317 3.28784 -0.119316 0
M  V30 10022 C 563.437 3.0977 1.22194 0
M  V30 10023 H 566.416 7.45574 4.45629 0
M  V30 10024 H 566.688 5.86232 3.67314 0
M  V30 10025 H 565.82 7.84412 2.24479 0
M  V30 10026 P 561.857 8.7635 1.60911 0
M  V30 10027 O 561.637 10.1388 1.11561 0
M  V30 10028 O 561.067 8.36503 2.79617 0
M  V30 10029 O 561.607 7.71806 0.42951 0
M  V30 10030 C 562.547 7.67148 -0.673689 0
M  V30 10031 C 561.817 7.33374 -1.95559 0
M  V30 10032 O 561.607 5.88721 -2.00726 0
M  V30 10033 C 560.417 7.92526 -2.10483 0
M  V30 10034 O 560.027 8.02971 -3.47653 0
M  V30 10035 C 559.537 6.89602 -1.41652 0
M  V30 10036 C 560.247 5.59201 -1.75185 0
M  V30 10037 N 560.197 4.58235 -0.662552 0
M  V30 10038 H 563.036 8.65116 -0.777161 0
M  V30 10039 H 563.308 6.90173 -0.474152 0
M  V30 10040 H 562.44 7.66548 -2.79458 0
M  V30 10041 P 558.477 8.03563 -3.84925 0
M  V30 10042 O 558.257 8.85821 -5.0569 0
M  V30 10043 O 557.687 8.41101 -2.65469 0
M  V30 10044 O 558.227 6.4965 -4.18908 0
M  V30 10045 C 559.167 5.81037 -5.05421 0
M  V30 10046 C 558.437 4.78366 -5.89277 0
M  V30 10047 O 558.227 3.58302 -5.08433 0
M  V30 10048 C 557.037 5.17448 -6.36119 0
M  V30 10049 O 556.647 4.45271 -7.53232 0
M  V30 10050 C 556.157 4.74639 -5.19936 0
M  V30 10051 C 556.867 3.49432 -4.70418 0
M  V30 10052 N 556.817 3.31776 -3.22945 0
M  V30 10053 H 559.656 6.54213 -5.71376 0
M  V30 10054 H 559.928 5.30492 -4.44033 0
M  V30 10055 H 559.06 4.55889 -6.76652 0
M  V30 10056 P 555.097 4.23843 -7.83734 0
M  V30 10057 O 554.877 4.19407 -9.29784 0
M  V30 10058 O 554.307 5.24426 -7.09156 0
M  V30 10059 O 554.847 2.7935 -7.20758 0
M  V30 10060 C 555.787 1.7299 -7.50419 0
M  V30 10061 C 555.057 0.406376 -7.57911 0
M  V30 10062 O 554.847 -0.0897726 -6.21935 0
M  V30 10063 C 553.657 0.447224 -8.1878 0
M  V30 10064 O 553.267 -0.825065 -8.71101 0
M  V30 10065 C 552.777 0.783801 -6.99623 0
M  V30 10066 C 553.487 0.0619192 -5.85967 0
M  V30 10067 N 553.437 0.7859 -4.56281 0
M  V30 10068 H 556.276 1.93423 -8.4679 0
M  V30 10069 H 556.548 1.68181 -6.71046 0
M  V30 10070 H 555.68 -0.289041 -8.15388 0
M  V30 10071 P 551.717 -1.17771 -8.83182 0
M  V30 10072 O 551.497 -2.07206 -9.98732 0
M  V30 10073 O 550.927 0.0743816 -8.81969 0
M  V30 10074 O 551.467 -1.97652 -7.47304 0
M  V30 10075 C 552.407 -3.01133 -7.08783 0
M  V30 10076 C 551.677 -4.12613 -6.37049 0
M  V30 10077 O 551.467 -3.72827 -4.97879 0
M  V30 10078 C 550.277 -4.45085 -6.88694 0
M  V30 10079 O 549.887 -5.7877 -6.5624 0
M  V30 10080 C 549.397 -3.47817 -6.12078 0
M  V30 10081 C 550.107 -3.39414 -4.77697 0
M  V30 10082 N 550.057 -2.04615 -4.15333 0
M  V30 10083 H 552.896 -3.41248 -7.98759 0
M  V30 10084 H 553.168 -2.5837 -6.41742 0
M  V30 10085 H 552.3 -5.02657 -6.42673 0
M  V30 10086 P 548.337 -6.144 -6.45285 0
M  V30 10087 O 548.117 -7.54673 -6.86199 0
M  V30 10088 O 547.547 -5.12391 -7.179 0
M  V30 10089 O 548.087 -5.99158 -4.88404 0
M  V30 10090 C 549.027 -6.60234 -3.96415 0
M  V30 10091 C 548.297 -7.08259 -2.72856 0
M  V30 10092 O 548.087 -5.9427 -1.83651 0
M  V30 10093 C 546.897 -7.64886 -2.9555 0
M  V30 10094 O 546.507 -8.53963 -1.90717 0
M  V30 10095 C 546.017 -6.4116 -2.90739 0
M  V30 10096 C 546.727 -5.55375 -1.86963 0
M  V30 10097 N 546.677 -4.09664 -2.15742 0
M  V30 10098 H 549.516 -7.45574 -4.45629 0
M  V30 10099 H 549.788 -5.86232 -3.67314 0
M  V30 10100 H 548.92 -7.84412 -2.24479 0
M  V30 10101 P 544.957 -8.7635 -1.60911 0
M  V30 10102 O 544.737 -10.1388 -1.11561 0
M  V30 10103 O 544.167 -8.36503 -2.79617 0
M  V30 10104 O 544.707 -7.71806 -0.42951 0
M  V30 10105 C 545.647 -7.67148 0.673689 0
M  V30 10106 C 544.917 -7.33374 1.95559 0
M  V30 10107 O 544.707 -5.88721 2.00726 0
M  V30 10108 C 543.517 -7.92526 2.10483 0
M  V30 10109 O 543.127 -8.02971 3.47653 0
M  V30 10110 C 542.637 -6.89602 1.41652 0
M  V30 10111 C 543.347 -5.59201 1.75185 0
M  V30 10112 N 543.297 -4.58235 0.662552 0
M  V30 10113 H 546.136 -8.65116 0.777161 0
M  V30 10114 H 546.408 -6.90173 0.474152 0
M  V30 10115 H 545.54 -7.66548 2.79458 0
M  V30 10116 P 541.577 -8.03563 3.84925 0
M  V30 10117 O 541.357 -8.85821 5.0569 0
M  V30 10118 O 540.787 -8.41101 2.65469 0
M  V30 10119 O 541.327 -6.49734 4.18962 0
M  V30 10120 C 542.267 -5.81037 5.05421 0
M  V30 10121 C 541.537 -4.79018 5.88876 0
M  V30 10122 O 541.327 -3.58359 5.08515 0
M  V30 10123 C 540.137 -5.17448 6.36119 0
M  V30 10124 O 539.747 -4.45322 7.53318 0
M  V30 10125 C 539.257 -4.74639 5.19936 0
M  V30 10126 C 539.967 -3.49432 4.70418 0
M  V30 10127 N 539.917 -3.31776 3.22945 0
M  V30 10128 C 539.767 -2.02742 2.72939 0
M  V30 10129 O 539.677 -1.08301 3.52749 0
M  V30 10130 N 539.717 -1.96117 1.22063 0
M  V30 10131 C 539.817 -2.8878 0.551566 0
M  V30 10132 N 539.767 -2.65609 -0.750198 0
M  V30 10133 C 539.967 -4.22457 1.03707 0
M  V30 10134 C 540.017 -4.37979 2.39113 0
M  V30 10135 H 542.757 -6.54138 5.7131 0
M  V30 10136 H 543.027 -5.30492 4.44033 0
M  V30 10137 H 542.16 -4.55945 6.76735 0
M  V30 10138 H 539.505 -2.6176 5.18021 0
M  V30 10139 H 539.225 -5.52233 4.41941 0
M  V30 10140 H 538.234 -4.52045 5.53452 0
M  V30 10141 H 540.068 -6.25124 6.55234 0
M  V30 10142 H 540.14 -5.37936 2.80552 0
M  V30 10143 H 540.038 -5.07528 0.359553 0
M  V30 10144 H 539.65 -1.69403 -1.09847 0
M  V30 10145 H 539.846 -3.43701 -1.41792 0
M  V30 10146 P 538.197 -4.23843 7.83734 0
M  V30 10147 O 537.977 -4.19407 9.29784 0
M  V30 10148 O 537.407 -5.24426 7.09156 0
M  V30 10149 O 537.947 -2.7935 7.20758 0
M  V30 10150 C 538.887 -1.7299 7.50419 0
M  V30 10151 C 538.157 -0.406376 7.57911 0
M  V30 10152 O 537.947 0.0897726 6.21935 0
M  V30 10153 C 536.757 -0.447224 8.1878 0
M  V30 10154 O 536.367 0.825065 8.71101 0
M  V30 10155 C 535.877 -0.783801 6.99623 0
M  V30 10156 C 536.587 -0.0619192 5.85967 0
M  V30 10157 N 536.537 -0.7859 4.56281 0
M  V30 10158 H 539.376 -1.93423 8.4679 0
M  V30 10159 H 539.648 -1.68181 6.71046 0
M  V30 10160 H 538.78 0.289041 8.15388 0
M  V30 10161 P 534.817 1.17771 8.83182 0
M  V30 10162 O 534.597 2.07206 9.98732 0
M  V30 10163 O 534.027 -0.0743816 8.81969 0
M  V30 10164 O 534.567 1.97652 7.47304 0
M  V30 10165 C 535.507 3.01055 7.08599 0
M  V30 10166 C 534.777 4.12613 6.37049 0
M  V30 10167 O 534.567 3.72827 4.97879 0
M  V30 10168 C 533.377 4.45719 6.88164 0
M  V30 10169 O 532.987 5.7877 6.5624 0
M  V30 10170 C 532.497 3.47768 6.11991 0
M  V30 10171 C 533.207 3.39356 4.77615 0
M  V30 10172 N 533.157 2.04571 4.15244 0
M  V30 10173 C 533.007 1.98587 2.78314 0
M  V30 10174 O 532.917 2.98134 2.08835 0
M  V30 10175 N 532.967 0.714467 2.24925 0
M  V30 10176 C 533.057 -0.470001 2.94169 0
M  V30 10177 C 533.207 -0.312541 4.36783 0
M  V30 10178 C 533.257 0.914512 4.92583 0
M  V30 10179 H 535.998 3.41169 7.98575 0
M  V30 10180 H 536.267 2.58295 6.41556 0
M  V30 10181 H 535.4 5.02657 6.42673 0
M  V30 10182 H 532.745 4.11637 4.08885 0
M  V30 10183 H 532.466 2.49626 6.61679 0
M  V30 10184 H 531.474 3.86566 6.00778 0
M  V30 10185 H 533.308 4.29943 7.96918 0
M  V30 10186 H 533.379 1.00937 6.00374 0
M  V30 10187 P 531.437 6.144 6.45285 0
M  V30 10188 O 531.217 7.54673 6.86199 0
M  V30 10189 O 530.647 5.12391 7.179 0
M  V30 10190 O 531.187 5.99158 4.88404 0
M  V30 10191 C 532.127 6.60234 3.96415 0
M  V30 10192 C 531.397 7.08259 2.72856 0
M  V30 10193 O 531.187 5.9427 1.83651 0
M  V30 10194 C 529.997 7.64886 2.9555 0
M  V30 10195 O 529.607 8.53963 1.90717 0
M  V30 10196 C 529.117 6.4116 2.90739 0
M  V30 10197 C 529.827 5.55375 1.86963 0
M  V30 10198 N 529.777 4.09448 2.16152 0
M  V30 10199 H 532.616 7.45574 4.45629 0
M  V30 10200 H 532.888 5.85864 3.679 0
M  V30 10201 H 532.02 7.84412 2.24479 0
M  V30 10202 H 529.365 5.73457 0.888562 0
M  V30 10203 H 529.085 5.90877 3.88583 0
M  V30 10204 H 528.094 6.6596 2.58858 0
M  V30 10205 H 529.928 8.16339 3.92049 0
M  V30 10206 P 528.057 8.7635 1.60911 0
M  V30 10207 O 527.837 10.1388 1.11561 0
M  V30 10208 O 527.267 8.36503 2.79617 0
M  V30 10209 O 527.807 7.71806 0.42951 0
M  V30 10210 C 528.747 7.67148 -0.673689 0
M  V30 10211 C 528.017 7.33374 -1.95559 0
M  V30 10212 O 527.807 5.88721 -2.00726 0
M  V30 10213 C 526.617 7.92526 -2.10483 0
M  V30 10214 O 526.227 8.02971 -3.47653 0
M  V30 10215 C 525.737 6.89602 -1.41652 0
M  V30 10216 C 526.447 5.59201 -1.75185 0
M  V30 10217 N 526.397 4.58235 -0.662552 0
M  V30 10218 H 529.236 8.65116 -0.777161 0
M  V30 10219 H 529.508 6.90173 -0.474152 0
M  V30 10220 H 528.64 7.66548 -2.79458 0
M  V30 10221 P 524.677 8.03563 -3.84925 0
M  V30 10222 O 524.457 8.85821 -5.0569 0
M  V30 10223 O 523.887 8.41101 -2.65469 0
M  V30 10224 O 524.427 6.4965 -4.18908 0
M  V30 10225 C 525.367 5.81037 -5.05421 0
M  V30 10226 C 524.637 4.78366 -5.89277 0
M  V30 10227 O 524.427 3.58302 -5.08433 0
M  V30 10228 C 523.237 5.17448 -6.36119 0
M  V30 10229 O 522.847 4.45271 -7.53232 0
M  V30 10230 C 522.357 4.74639 -5.19936 0
M  V30 10231 C 523.067 3.49432 -4.70418 0
M  V30 10232 N 523.017 3.31776 -3.22945 0
M  V30 10233 H 525.856 6.54213 -5.71376 0
M  V30 10234 H 526.128 5.30492 -4.44033 0
M  V30 10235 H 525.26 4.55889 -6.76652 0
M  V30 10236 P 521.297 4.23843 -7.83734 0
M  V30 10237 O 521.077 4.19407 -9.29784 0
M  V30 10238 O 520.507 5.24426 -7.09156 0
M  V30 10239 O 521.047 2.7935 -7.20758 0
M  V30 10240 C 521.987 1.7299 -7.50419 0
M  V30 10241 C 521.257 0.406376 -7.57911 0
M  V30 10242 O 521.047 -0.0897726 -6.21935 0
M  V30 10243 C 519.857 0.447224 -8.1878 0
M  V30 10244 O 519.467 -0.825065 -8.71101 0
M  V30 10245 C 518.977 0.783801 -6.99623 0
M  V30 10246 C 519.687 0.0619192 -5.85967 0
M  V30 10247 N 519.637 0.7859 -4.56281 0
M  V30 10248 H 522.476 1.93423 -8.4679 0
M  V30 10249 H 522.748 1.68181 -6.71046 0
M  V30 10250 H 521.88 -0.289041 -8.15388 0
M  V30 10251 P 517.917 -1.17771 -8.83182 0
M  V30 10252 O 517.697 -2.07206 -9.98732 0
M  V30 10253 O 517.127 0.0743816 -8.81969 0
M  V30 10254 O 517.667 -1.97652 -7.47304 0
M  V30 10255 C 518.607 -3.01055 -7.08599 0
M  V30 10256 C 517.877 -4.12613 -6.37049 0
M  V30 10257 O 517.667 -3.72827 -4.97879 0
M  V30 10258 C 516.477 -4.45719 -6.88164 0
M  V30 10259 O 516.087 -5.7877 -6.5624 0
M  V30 10260 C 515.597 -3.47768 -6.11991 0
M  V30 10261 C 516.307 -3.39356 -4.77615 0
M  V30 10262 N 516.257 -2.04571 -4.15244 0
M  V30 10263 C 516.107 -1.98587 -2.78314 0
M  V30 10264 O 516.017 -2.98134 -2.08835 0
M  V30 10265 N 516.067 -0.714467 -2.24925 0
M  V30 10266 C 516.157 0.470001 -2.94169 0
M  V30 10267 O 516.107 1.55587 -2.35195 0
M  V30 10268 C 516.307 0.312541 -4.36783 0
M  V30 10269 C 516.417 1.57711 -5.16352 0
M  V30 10270 C 516.357 -0.914512 -4.92583 0
M  V30 10271 H 519.098 -3.41169 -7.98575 0
M  V30 10272 H 519.367 -2.58295 -6.41556 0
M  V30 10273 H 518.5 -5.02657 -6.42673 0
M  V30 10274 H 515.845 -4.11637 -4.08885 0
M  V30 10275 H 515.566 -2.49626 -6.61679 0
M  V30 10276 H 514.574 -3.86566 -6.00778 0
M  V30 10277 H 516.408 -4.29943 -7.96918 0
M  V30 10278 H 516.479 -1.00937 -6.00374 0
M  V30 10279 H 515.449 1.80153 -5.63503 0
M  V30 10280 H 517.186 1.4566 -5.94104 0
M  V30 10281 H 516.698 2.40664 -4.49645 0
M  V30 10282 H 515.962 -0.647622 -1.25697 0
M  V30 10283 P 514.537 -6.144 -6.45285 0
M  V30 10284 O 514.317 -7.54673 -6.86199 0
M  V30 10285 O 513.747 -5.12391 -7.179 0
M  V30 10286 O 514.287 -5.99158 -4.88404 0
M  V30 10287 C 515.227 -6.60234 -3.96415 0
M  V30 10288 C 514.497 -7.08259 -2.72856 0
M  V30 10289 O 514.287 -5.9427 -1.83651 0
M  V30 10290 C 513.097 -7.64886 -2.9555 0
M  V30 10291 O 512.707 -8.53963 -1.90717 0
M  V30 10292 C 512.217 -6.4116 -2.90739 0
M  V30 10293 C 512.927 -5.55375 -1.86963 0
M  V30 10294 N 512.877 -4.09448 -2.16152 0
M  V30 10295 C 512.957 -3.46824 -3.37593 0
M  V30 10296 N 512.887 -2.17422 -3.29777 0
M  V30 10297 C 512.737 -1.93065 -1.94427 0
M  V30 10298 C 512.607 -0.738053 -1.20141 0
M  V30 10299 N 512.597 0.474256 -1.74676 0
M  V30 10300 N 512.487 -0.850049 0.13045 0
M  V30 10301 C 512.497 -2.06169 0.676992 0
M  V30 10302 N 512.617 -3.23842 0.101312 0
M  V30 10303 C 512.737 -3.09402 -1.23122 0
M  V30 10304 H 515.716 -7.45574 -4.45629 0
M  V30 10305 H 515.988 -5.85864 -3.679 0
M  V30 10306 H 515.12 -7.84412 -2.24479 0
M  V30 10307 H 512.465 -5.73457 -0.888562 0
M  V30 10308 H 512.185 -5.90877 -3.88583 0
M  V30 10309 H 511.194 -6.6596 -2.58858 0
M  V30 10310 H 513.028 -8.16339 -3.92049 0
M  V30 10311 H 513.069 -4.00505 -4.3174 0
M  V30 10312 H 512.688 0.581337 -2.76658 0
M  V30 10313 H 512.499 1.30811 -1.14888 0
M  V30 10314 H 512.391 -2.08295 1.75542 0
M  V30 10315 P 511.157 -8.7635 -1.60911 0
M  V30 10316 O 510.937 -10.1388 -1.11561 0
M  V30 10317 O 510.367 -8.36503 -2.79617 0
M  V30 10318 O 510.907 -7.71806 -0.42951 0
M  V30 10319 C 511.847 -7.67148 0.673689 0
M  V30 10320 C 511.117 -7.33374 1.95559 0
M  V30 10321 O 510.907 -5.88721 2.00726 0
M  V30 10322 C 509.717 -7.92526 2.10483 0
M  V30 10323 O 509.327 -8.02971 3.47653 0
M  V30 10324 C 508.837 -6.89602 1.41652 0
M  V30 10325 C 509.547 -5.59201 1.75185 0
M  V30 10326 N 509.497 -4.58235 0.662552 0
M  V30 10327 H 512.336 -8.65116 0.777161 0
M  V30 10328 H 512.608 -6.90173 0.474152 0
M  V30 10329 H 511.74 -7.66548 2.79458 0
M  V30 10330 P 507.777 -8.03563 3.84925 0
M  V30 10331 O 507.557 -8.85821 5.0569 0
M  V30 10332 O 506.987 -8.41101 2.65469 0
M  V30 10333 O 507.527 -6.4965 4.18908 0
M  V30 10334 C 508.467 -5.81037 5.05421 0
M  V30 10335 C 507.737 -4.78366 5.89277 0
M  V30 10336 O 507.527 -3.58302 5.08433 0
M  V30 10337 C 506.337 -5.17448 6.36119 0
M  V30 10338 O 505.947 -4.45271 7.53232 0
M  V30 10339 C 505.457 -4.74639 5.19936 0
M  V30 10340 C 506.167 -3.49432 4.70418 0
M  V30 10341 N 506.117 -3.31776 3.22945 0
M  V30 10342 H 508.956 -6.54213 5.71376 0
M  V30 10343 H 509.228 -5.30492 4.44033 0
M  V30 10344 H 508.36 -4.55889 6.76652 0
M  V30 10345 P 504.397 -4.23843 7.83734 0
M  V30 10346 O 504.177 -4.19407 9.29784 0
M  V30 10347 O 503.607 -5.24426 7.09156 0
M  V30 10348 O 504.147 -2.79386 7.20852 0
M  V30 10349 C 505.087 -1.7299 7.50419 0
M  V30 10350 C 504.357 -0.41401 7.5797 0
M  V30 10351 O 504.147 0.089787 6.22035 0
M  V30 10352 C 502.957 -0.447224 8.1878 0
M  V30 10353 O 502.567 0.825159 8.71201 0
M  V30 10354 C 502.077 -0.783801 6.99623 0
M  V30 10355 C 502.787 -0.0619192 5.85967 0
M  V30 10356 N 502.737 -0.7859 4.56281 0
M  V30 10357 C 502.587 -0.0359258 3.39981 0
M  V30 10358 O 502.497 1.19723 3.49038 0
M  V30 10359 N 502.537 -0.869151 2.14025 0
M  V30 10360 C 502.637 -2.01207 2.14363 0
M  V30 10361 N 502.587 -2.58978 0.954287 0
M  V30 10362 C 502.787 -2.80817 3.32215 0
M  V30 10363 C 502.837 -2.13785 4.50884 0
M  V30 10364 H 505.577 -1.93401 8.46693 0
M  V30 10365 H 505.847 -1.68181 6.71046 0
M  V30 10366 H 504.98 0.289076 8.15488 0
M  V30 10367 H 502.325 0.927166 5.72947 0
M  V30 10368 H 502.045 -1.87 6.82132 0
M  V30 10369 H 501.054 -0.404009 7.13457 0
M  V30 10370 H 502.888 -1.20599 8.97534 0
M  V30 10371 H 502.96 -2.70295 5.43162 0
M  V30 10372 H 502.858 -3.89465 3.27406 0
M  V30 10373 H 502.47 -2.01616 0.107046 0
M  V30 10374 H 502.666 -3.61403 0.873101 0
M  V30 10375 P 501.017 1.17771 8.83182 0
M  V30 10376 O 500.797 2.07206 9.98732 0
M  V30 10377 O 500.227 -0.0743816 8.81969 0
M  V30 10378 O 500.767 1.97652 7.47304 0
M  V30 10379 C 501.707 3.01133 7.08783 0
M  V30 10380 C 500.977 4.12613 6.37049 0
M  V30 10381 O 500.767 3.72827 4.97879 0
M  V30 10382 C 499.577 4.45085 6.88694 0
M  V30 10383 O 499.187 5.7877 6.5624 0
M  V30 10384 C 498.697 3.47817 6.12078 0
M  V30 10385 C 499.407 3.39414 4.77697 0
M  V30 10386 N 499.357 2.04615 4.15333 0
M  V30 10387 H 502.196 3.41248 7.98759 0
M  V30 10388 H 502.468 2.5837 6.41742 0
M  V30 10389 H 501.6 5.02657 6.42673 0
M  V30 10390 P 497.637 6.144 6.45285 0
M  V30 10391 O 497.417 7.54673 6.86199 0
M  V30 10392 O 496.847 5.12391 7.179 0
M  V30 10393 O 497.387 5.99158 4.88404 0
M  V30 10394 C 498.327 6.60062 3.96313 0
M  V30 10395 C 497.597 7.08259 2.72856 0
M  V30 10396 O 497.387 5.9427 1.83651 0
M  V30 10397 C 496.197 7.65087 2.94749 0
M  V30 10398 O 495.807 8.53963 1.90717 0
M  V30 10399 C 495.317 6.41069 2.90698 0
M  V30 10400 C 496.027 5.5528 1.86931 0
M  V30 10401 N 495.977 4.09575 2.15696 0
M  V30 10402 C 495.827 3.24249 1.08435 0
M  V30 10403 O 495.737 3.63946 -0.0628747 0
M  V30 10404 N 495.787 1.90009 1.39973 0
M  V30 10405 C 495.877 1.34884 2.65614 0
M  V30 10406 C 496.027 2.3145 3.71736 0
M  V30 10407 C 496.077 3.63518 3.44754 0
M  V30 10408 H 498.818 7.45402 4.45526 0
M  V30 10409 H 499.087 5.86062 3.67208 0
M  V30 10410 H 498.22 7.84412 2.24479 0
M  V30 10411 H 495.565 5.73358 0.888409 0
M  V30 10412 H 495.286 5.90877 3.88583 0
M  V30 10413 H 494.294 6.65867 2.58821 0
M  V30 10414 H 496.128 8.16248 3.92006 0
M  V30 10415 H 496.199 4.34551 4.26383 0
M  V30 10416 P 494.257 8.7635 1.60911 0
M  V30 10417 O 494.037 10.1388 1.11561 0
M  V30 10418 O 493.467 8.36503 2.79617 0
M  V30 10419 O 494.007 7.71806 0.42951 0
M  V30 10420 C 494.947 7.67148 -0.673689 0
M  V30 10421 C 494.217 7.33374 -1.95559 0
M  V30 10422 O 494.007 5.88721 -2.00726 0
M  V30 10423 C 492.817 7.92526 -2.10483 0
M  V30 10424 O 492.427 8.02971 -3.47653 0
M  V30 10425 C 491.937 6.89602 -1.41652 0
M  V30 10426 C 492.647 5.59201 -1.75185 0
M  V30 10427 N 492.597 4.58301 -0.657969 0
M  V30 10428 C 492.677 4.79019 0.692603 0
M  V30 10429 N 492.607 3.69736 1.38998 0
M  V30 10430 C 492.457 2.70474 0.438135 0
M  V30 10431 C 492.327 1.30327 0.538142 0
M  V30 10432 N 492.317 0.64304 1.69192 0
M  V30 10433 N 492.207 0.611027 -0.605183 0
M  V30 10434 C 492.217 1.27002 -1.75953 0
M  V30 10435 N 492.337 2.56038 -1.98546 0
M  V30 10436 C 492.457 3.22681 -0.822541 0
M  V30 10437 H 495.436 8.65116 -0.777161 0
M  V30 10438 H 495.708 6.9022 -0.46725 0
M  V30 10439 H 494.84 7.66548 -2.79458 0
M  V30 10440 H 492.185 5.16165 -2.65183 0
M  V30 10441 H 491.905 7.06433 -0.329384 0
M  V30 10442 H 490.914 6.90926 -1.82021 0
M  V30 10443 H 492.748 8.90873 -1.62657 0
M  V30 10444 H 492.789 5.77785 1.13874 0
M  V30 10445 H 492.408 1.15585 2.57991 0
M  V30 10446 H 492.219 -0.382989 1.69835 0
M  V30 10447 H 492.111 0.653331 -2.64449 0
M  V30 10448 P 490.877 8.03563 -3.84925 0
M  V30 10449 O 490.657 8.85821 -5.0569 0
M  V30 10450 O 490.087 8.41101 -2.65469 0
M  V30 10451 O 490.627 6.4965 -4.18908 0
M  V30 10452 C 491.567 5.81037 -5.05421 0
M  V30 10453 C 490.837 4.78366 -5.89277 0
M  V30 10454 O 490.627 3.58302 -5.08433 0
M  V30 10455 C 489.437 5.17448 -6.36119 0
M  V30 10456 O 489.047 4.45271 -7.53232 0
M  V30 10457 C 488.557 4.74639 -5.19936 0
M  V30 10458 C 489.267 3.49432 -4.70418 0
M  V30 10459 N 489.217 3.32099 -3.22613 0
M  V30 10460 C 489.297 4.28245 -2.25527 0
M  V30 10461 N 489.227 3.80823 -1.04874 0
M  V30 10462 C 489.077 2.44571 -1.23535 0
M  V30 10463 C 488.947 1.37068 -0.330675 0
M  V30 10464 N 488.937 1.51472 0.990824 0
M  V30 10465 N 488.827 0.138614 -0.848756 0
M  V30 10466 C 488.837 -0.00675923 -2.16999 0
M  V30 10467 N 488.957 0.904372 -3.11122 0
M  V30 10468 C 489.077 2.12707 -2.56212 0
M  V30 10469 H 492.056 6.54213 -5.71376 0
M  V30 10470 H 492.328 5.30936 -4.43503 0
M  V30 10471 H 491.46 4.55889 -6.76652 0
M  V30 10472 H 488.805 2.61715 -5.17932 0
M  V30 10473 H 488.525 5.52155 -4.41878 0
M  V30 10474 H 487.534 4.51981 -5.53374 0
M  V30 10475 H 489.368 6.25124 -6.55234 0
M  V30 10476 H 489.409 5.34372 -2.47488 0
M  V30 10477 H 489.028 2.45153 1.4078 0
M  V30 10478 H 488.839 0.688422 1.59911 0
M  V30 10479 H 488.731 -1.02584 -2.52346 0
M  V30 10480 P 487.497 4.23843 -7.83734 0
M  V30 10481 O 487.277 4.19407 -9.29784 0
M  V30 10482 O 486.707 5.24426 -7.09156 0
M  V30 10483 O 487.247 2.7935 -7.20758 0
M  V30 10484 C 488.187 1.72945 -7.50224 0
M  V30 10485 C 487.457 0.406376 -7.57911 0
M  V30 10486 O 487.247 -0.0897726 -6.21935 0
M  V30 10487 C 486.057 0.438983 -8.18724 0
M  V30 10488 O 485.667 -0.825065 -8.71101 0
M  V30 10489 C 485.177 0.783689 -6.99524 0
M  V30 10490 C 485.887 0.0619086 -5.85867 0
M  V30 10491 N 485.837 0.78573 -4.56183 0
M  V30 10492 C 485.687 0.0292889 -3.41887 0
M  V30 10493 O 485.597 -1.18445 -3.4419 0
M  V30 10494 N 485.647 0.744061 -2.23964 0
M  V30 10495 C 485.737 2.10932 -2.10362 0
M  V30 10496 O 485.687 2.64117 -0.98825 0
M  V30 10497 C 485.887 2.8202 -3.34994 0
M  V30 10498 C 485.997 4.31095 -3.25037 0
M  V30 10499 C 485.937 2.15547 -4.52261 0
M  V30 10500 H 488.678 1.93379 -8.46595 0
M  V30 10501 H 488.947 1.68132 -6.70852 0
M  V30 10502 H 488.08 -0.289041 -8.15388 0
M  V30 10503 H 485.425 -0.926847 -5.72749 0
M  V30 10504 H 485.146 1.86973 -6.82036 0
M  V30 10505 H 484.154 0.403896 -7.13257 0
M  V30 10506 H 485.988 1.20585 -8.97435 0
M  V30 10507 H 486.059 2.71231 -5.45042 0
M  V30 10508 H 485.029 4.76966 -3.49992 0
M  V30 10509 H 486.766 4.67047 -3.95024 0
M  V30 10510 H 486.278 4.58996 -2.22312 0
M  V30 10511 H 485.542 0.214893 -1.39758 0
M  V30 10512 P 484.117 -1.17771 -8.83182 0
M  V30 10513 O 483.897 -2.07206 -9.98732 0
M  V30 10514 O 483.327 0.0743816 -8.81969 0
M  V30 10515 O 483.867 -1.97678 -7.474 0
M  V30 10516 C 484.807 -3.01133 -7.08783 0
M  V30 10517 C 484.077 -4.1203 -6.37546 0
M  V30 10518 O 483.867 -3.72887 -4.9796 0
M  V30 10519 C 482.677 -4.45085 -6.88694 0
M  V30 10520 O 482.287 -5.78836 -6.56315 0
M  V30 10521 C 481.797 -3.47817 -6.12078 0
M  V30 10522 C 482.507 -3.39414 -4.77697 0
M  V30 10523 N 482.457 -2.04615 -4.15333 0
M  V30 10524 C 482.307 -1.96929 -2.77162 0
M  V30 10525 O 482.217 -3.02017 -2.12006 0
M  V30 10526 N 482.257 -0.55485 -2.24237 0
M  V30 10527 C 482.357 0.367808 -2.9169 0
M  V30 10528 N 482.307 1.53426 -2.29427 0
M  V30 10529 C 482.507 0.319148 -4.33828 0
M  V30 10530 C 482.557 -0.920672 -4.90433 0
M  V30 10531 H 485.297 -3.41209 -7.98667 0
M  V30 10532 H 485.567 -2.5837 -6.41742 0
M  V30 10533 H 484.7 -5.02718 -6.42752 0
M  V30 10534 H 482.045 -4.11779 -4.09026 0
M  V30 10535 H 481.765 -2.49661 -6.61772 0
M  V30 10536 H 480.774 -3.86674 -6.00946 0
M  V30 10537 H 482.608 -4.29991 -7.97006 0
M  V30 10538 H 482.68 -1.00589 -5.98303 0
M  V30 10539 H 482.578 1.22639 -4.93799 0
M  V30 10540 H 482.19 1.56819 -1.27167 0
M  V30 10541 H 482.386 2.41062 -2.83063 0
M  V30 10542 P 480.737 -6.144 -6.45285 0
M  V30 10543 O 480.517 -7.54673 -6.86199 0
M  V30 10544 O 479.947 -5.12391 -7.179 0
M  V30 10545 O 480.487 -5.99158 -4.88404 0
M  V30 10546 C 481.427 -6.60234 -3.96415 0
M  V30 10547 C 480.697 -7.08259 -2.72856 0
M  V30 10548 O 480.487 -5.9427 -1.83651 0
M  V30 10549 C 479.297 -7.64886 -2.9555 0
M  V30 10550 O 478.907 -8.53963 -1.90717 0
M  V30 10551 C 478.417 -6.4116 -2.90739 0
M  V30 10552 C 479.127 -5.55375 -1.86963 0
M  V30 10553 N 479.077 -4.09664 -2.15742 0
M  V30 10554 H 481.916 -7.45574 -4.45629 0
M  V30 10555 H 482.188 -5.86232 -3.67314 0
M  V30 10556 H 481.32 -7.84412 -2.24479 0
M  V30 10557 P 477.357 -8.7635 -1.60911 0
M  V30 10558 O 477.137 -10.1388 -1.11561 0
M  V30 10559 O 476.567 -8.36503 -2.79617 0
M  V30 10560 O 477.107 -7.71806 -0.42951 0
M  V30 10561 C 478.047 -7.67148 0.673689 0
M  V30 10562 C 477.317 -7.33374 1.95559 0
M  V30 10563 O 477.107 -5.88721 2.00726 0
M  V30 10564 C 475.917 -7.92526 2.10483 0
M  V30 10565 O 475.527 -8.02971 3.47653 0
M  V30 10566 C 475.037 -6.89602 1.41652 0
M  V30 10567 C 475.747 -5.59201 1.75185 0
M  V30 10568 N 475.697 -4.58235 0.662552 0
M  V30 10569 H 478.536 -8.65116 0.777161 0
M  V30 10570 H 478.808 -6.90173 0.474152 0
M  V30 10571 H 477.94 -7.66548 2.79458 0
M  V30 10572 P 473.977 -8.03563 3.84925 0
M  V30 10573 O 473.757 -8.85821 5.0569 0
M  V30 10574 O 473.187 -8.41101 2.65469 0
M  V30 10575 O 473.727 -6.4965 4.18908 0
M  V30 10576 C 474.667 -5.81037 5.05421 0
M  V30 10577 C 473.937 -4.78366 5.89277 0
M  V30 10578 O 473.727 -3.58302 5.08433 0
M  V30 10579 C 472.537 -5.17448 6.36119 0
M  V30 10580 O 472.147 -4.45271 7.53232 0
M  V30 10581 C 471.657 -4.74639 5.19936 0
M  V30 10582 C 472.367 -3.49432 4.70418 0
M  V30 10583 N 472.317 -3.32099 3.22613 0
M  V30 10584 C 472.397 -4.28245 2.25527 0
M  V30 10585 N 472.327 -3.80823 1.04874 0
M  V30 10586 C 472.177 -2.44571 1.23535 0
M  V30 10587 C 472.047 -1.37068 0.330675 0
M  V30 10588 N 472.037 -1.51472 -0.990824 0
M  V30 10589 N 471.927 -0.138614 0.848756 0
M  V30 10590 C 471.937 0.00675923 2.16999 0
M  V30 10591 N 472.057 -0.904372 3.11122 0
M  V30 10592 C 472.177 -2.12707 2.56212 0
M  V30 10593 H 475.156 -6.54213 5.71376 0
M  V30 10594 H 475.428 -5.30936 4.43503 0
M  V30 10595 H 474.56 -4.55889 6.76652 0
M  V30 10596 H 471.905 -2.61715 5.17932 0
M  V30 10597 H 471.625 -5.52155 4.41878 0
M  V30 10598 H 470.634 -4.51981 5.53374 0
M  V30 10599 H 472.468 -6.25124 6.55234 0
M  V30 10600 H 472.509 -5.34372 2.47488 0
M  V30 10601 H 472.128 -2.45153 -1.4078 0
M  V30 10602 H 471.939 -0.688422 -1.59911 0
M  V30 10603 H 471.831 1.02584 2.52346 0
M  V30 10604 P 470.597 -4.23843 7.83734 0
M  V30 10605 O 470.377 -4.19407 9.29784 0
M  V30 10606 O 469.807 -5.24426 7.09156 0
M  V30 10607 O 470.347 -2.7935 7.20758 0
M  V30 10608 C 471.287 -1.7299 7.50419 0
M  V30 10609 C 470.557 -0.406376 7.57911 0
M  V30 10610 O 470.347 0.0897726 6.21935 0
M  V30 10611 C 469.157 -0.447224 8.1878 0
M  V30 10612 O 468.767 0.825065 8.71101 0
M  V30 10613 C 468.277 -0.783801 6.99623 0
M  V30 10614 C 468.987 -0.0619192 5.85967 0
M  V30 10615 N 468.937 -0.7859 4.56281 0
M  V30 10616 H 471.776 -1.93423 8.4679 0
M  V30 10617 H 472.048 -1.68181 6.71046 0
M  V30 10618 H 471.18 0.289041 8.15388 0
M  V30 10619 P 467.217 1.17771 8.83182 0
M  V30 10620 O 466.997 2.07206 9.98732 0
M  V30 10621 O 466.427 -0.0743816 8.81969 0
M  V30 10622 O 466.967 1.97652 7.47304 0
M  V30 10623 C 467.907 3.01055 7.08599 0
M  V30 10624 C 467.177 4.12613 6.37049 0
M  V30 10625 O 466.967 3.72827 4.97879 0
M  V30 10626 C 465.777 4.45719 6.88164 0
M  V30 10627 O 465.387 5.7877 6.5624 0
M  V30 10628 C 464.897 3.47768 6.11991 0
M  V30 10629 C 465.607 3.39356 4.77615 0
M  V30 10630 N 465.557 2.04571 4.15244 0
M  V30 10631 C 465.407 1.98587 2.78314 0
M  V30 10632 O 465.317 2.98134 2.08835 0
M  V30 10633 N 465.367 0.714467 2.24925 0
M  V30 10634 C 465.457 -0.470001 2.94169 0
M  V30 10635 C 465.607 -0.312541 4.36783 0
M  V30 10636 C 465.657 0.914512 4.92583 0
M  V30 10637 H 468.398 3.41169 7.98575 0
M  V30 10638 H 468.667 2.58295 6.41556 0
M  V30 10639 H 467.8 5.02657 6.42673 0
M  V30 10640 H 465.145 4.11637 4.08885 0
M  V30 10641 H 464.866 2.49626 6.61679 0
M  V30 10642 H 463.874 3.86566 6.00778 0
M  V30 10643 H 465.708 4.29943 7.96918 0
M  V30 10644 H 465.779 1.00937 6.00374 0
M  V30 10645 P 463.837 6.144 6.45285 0
M  V30 10646 O 463.617 7.54673 6.86199 0
M  V30 10647 O 463.047 5.12391 7.179 0
M  V30 10648 O 463.587 5.99158 4.88404 0
M  V30 10649 C 464.527 6.60234 3.96415 0
M  V30 10650 C 463.797 7.08259 2.72856 0
M  V30 10651 O 463.587 5.9427 1.83651 0
M  V30 10652 C 462.397 7.64886 2.9555 0
M  V30 10653 O 462.007 8.53963 1.90717 0
M  V30 10654 C 461.517 6.4116 2.90739 0
M  V30 10655 C 462.227 5.55375 1.86963 0
M  V30 10656 N 462.177 4.09664 2.15742 0
M  V30 10657 H 465.016 7.45574 4.45629 0
M  V30 10658 H 465.288 5.86232 3.67314 0
M  V30 10659 H 464.42 7.84412 2.24479 0
M  V30 10660 P 460.457 8.7635 1.60911 0
M  V30 10661 O 460.237 10.1388 1.11561 0
M  V30 10662 O 459.667 8.36503 2.79617 0
M  V30 10663 O 460.207 7.71806 0.42951 0
M  V30 10664 C 461.147 7.67148 -0.673689 0
M  V30 10665 C 460.417 7.33374 -1.95559 0
M  V30 10666 O 460.207 5.88721 -2.00726 0
M  V30 10667 C 459.017 7.92526 -2.10483 0
M  V30 10668 O 458.627 8.02971 -3.47653 0
M  V30 10669 C 458.137 6.89602 -1.41652 0
M  V30 10670 C 458.847 5.59201 -1.75185 0
M  V30 10671 N 458.797 4.58235 -0.662552 0
M  V30 10672 H 461.636 8.65116 -0.777161 0
M  V30 10673 H 461.908 6.90173 -0.474152 0
M  V30 10674 H 461.04 7.66548 -2.79458 0
M  V30 10675 P 457.077 8.03563 -3.84925 0
M  V30 10676 O 456.857 8.85821 -5.0569 0
M  V30 10677 O 456.287 8.41101 -2.65469 0
M  V30 10678 O 456.827 6.4965 -4.18908 0
M  V30 10679 C 457.767 5.81037 -5.05421 0
M  V30 10680 C 457.037 4.78366 -5.89277 0
M  V30 10681 O 456.827 3.58302 -5.08433 0
M  V30 10682 C 455.637 5.17448 -6.36119 0
M  V30 10683 O 455.247 4.45271 -7.53232 0
M  V30 10684 C 454.757 4.74639 -5.19936 0
M  V30 10685 C 455.467 3.49432 -4.70418 0
M  V30 10686 N 455.417 3.31776 -3.22945 0
M  V30 10687 H 458.256 6.54213 -5.71376 0
M  V30 10688 H 458.528 5.30492 -4.44033 0
M  V30 10689 H 457.66 4.55889 -6.76652 0
M  V30 10690 P 453.697 4.23843 -7.83734 0
M  V30 10691 O 453.477 4.19407 -9.29784 0
M  V30 10692 O 452.907 5.24426 -7.09156 0
M  V30 10693 O 453.447 2.7935 -7.20758 0
M  V30 10694 C 454.387 1.7299 -7.50419 0
M  V30 10695 C 453.657 0.406376 -7.57911 0
M  V30 10696 O 453.447 -0.0897726 -6.21935 0
M  V30 10697 C 452.257 0.447224 -8.1878 0
M  V30 10698 O 451.867 -0.825065 -8.71101 0
M  V30 10699 C 451.377 0.783801 -6.99623 0
M  V30 10700 C 452.087 0.0619192 -5.85967 0
M  V30 10701 N 452.037 0.7859 -4.56281 0
M  V30 10702 H 454.876 1.93423 -8.4679 0
M  V30 10703 H 455.148 1.68181 -6.71046 0
M  V30 10704 H 454.28 -0.289041 -8.15388 0
M  V30 10705 P 450.317 -1.17771 -8.83182 0
M  V30 10706 O 450.097 -2.07206 -9.98732 0
M  V30 10707 O 449.527 0.0743816 -8.81969 0
M  V30 10708 O 450.067 -1.97652 -7.47304 0
M  V30 10709 C 451.007 -3.01055 -7.08599 0
M  V30 10710 C 450.277 -4.12613 -6.37049 0
M  V30 10711 O 450.067 -3.72827 -4.97879 0
M  V30 10712 C 448.877 -4.45719 -6.88164 0
M  V30 10713 O 448.487 -5.7877 -6.5624 0
M  V30 10714 C 447.997 -3.47768 -6.11991 0
M  V30 10715 C 448.707 -3.39356 -4.77615 0
M  V30 10716 N 448.657 -2.04571 -4.15244 0
M  V30 10717 C 448.507 -1.98587 -2.78314 0
M  V30 10718 O 448.417 -2.98134 -2.08835 0
M  V30 10719 N 448.467 -0.714467 -2.24925 0
M  V30 10720 C 448.557 0.470001 -2.94169 0
M  V30 10721 C 448.707 0.312541 -4.36783 0
M  V30 10722 C 448.757 -0.914512 -4.92583 0
M  V30 10723 H 451.498 -3.41169 -7.98575 0
M  V30 10724 H 451.767 -2.58295 -6.41556 0
M  V30 10725 H 450.9 -5.02657 -6.42673 0
M  V30 10726 H 448.245 -4.11637 -4.08885 0
M  V30 10727 H 447.966 -2.49626 -6.61679 0
M  V30 10728 H 446.974 -3.86566 -6.00778 0
M  V30 10729 H 448.808 -4.29943 -7.96918 0
M  V30 10730 H 448.879 -1.00937 -6.00374 0
M  V30 10731 P 446.937 -6.144 -6.45285 0
M  V30 10732 O 446.717 -7.54673 -6.86199 0
M  V30 10733 O 446.147 -5.12391 -7.179 0
M  V30 10734 O 446.687 -5.99158 -4.88404 0
M  V30 10735 C 447.627 -6.60234 -3.96415 0
M  V30 10736 C 446.897 -7.08259 -2.72856 0
M  V30 10737 O 446.687 -5.9427 -1.83651 0
M  V30 10738 C 445.497 -7.64886 -2.9555 0
M  V30 10739 O 445.107 -8.53963 -1.90717 0
M  V30 10740 C 444.617 -6.4116 -2.90739 0
M  V30 10741 C 445.327 -5.55375 -1.86963 0
M  V30 10742 N 445.277 -4.09664 -2.15742 0
M  V30 10743 H 448.116 -7.45574 -4.45629 0
M  V30 10744 H 448.388 -5.86232 -3.67314 0
M  V30 10745 H 447.52 -7.84412 -2.24479 0
M  V30 10746 P 443.557 -8.7635 -1.60911 0
M  V30 10747 O 443.337 -10.1388 -1.11561 0
M  V30 10748 O 442.767 -8.36503 -2.79617 0
M  V30 10749 O 443.307 -7.71806 -0.42951 0
M  V30 10750 C 444.247 -7.67148 0.673689 0
M  V30 10751 C 443.517 -7.33374 1.95559 0
M  V30 10752 O 443.307 -5.88721 2.00726 0
M  V30 10753 C 442.117 -7.92526 2.10483 0
M  V30 10754 O 441.727 -8.02971 3.47653 0
M  V30 10755 C 441.237 -6.89602 1.41652 0
M  V30 10756 C 441.947 -5.59201 1.75185 0
M  V30 10757 N 441.897 -4.58301 0.657969 0
M  V30 10758 C 441.977 -4.79019 -0.692603 0
M  V30 10759 N 441.907 -3.69736 -1.38998 0
M  V30 10760 C 441.757 -2.70474 -0.438135 0
M  V30 10761 C 441.627 -1.30327 -0.538142 0
M  V30 10762 N 441.617 -0.64304 -1.69192 0
M  V30 10763 N 441.507 -0.611027 0.605183 0
M  V30 10764 C 441.517 -1.27002 1.75953 0
M  V30 10765 N 441.637 -2.56038 1.98546 0
M  V30 10766 C 441.757 -3.22681 0.822541 0
M  V30 10767 H 444.736 -8.65116 0.777161 0
M  V30 10768 H 445.008 -6.9022 0.46725 0
M  V30 10769 H 444.14 -7.66548 2.79458 0
M  V30 10770 H 441.485 -5.16165 2.65183 0
M  V30 10771 H 441.205 -7.06433 0.329384 0
M  V30 10772 H 440.214 -6.90926 1.82021 0
M  V30 10773 H 442.048 -8.90873 1.62657 0
M  V30 10774 H 442.089 -5.77785 -1.13874 0
M  V30 10775 H 441.708 -1.15585 -2.57991 0
M  V30 10776 H 441.519 0.382989 -1.69835 0
M  V30 10777 H 441.411 -0.653331 2.64449 0
M  V30 10778 P 440.177 -8.03563 3.84925 0
M  V30 10779 O 439.957 -8.85821 5.0569 0
M  V30 10780 O 439.387 -8.41101 2.65469 0
M  V30 10781 O 439.927 -6.4965 4.18908 0
M  V30 10782 C 440.867 -5.80886 5.05289 0
M  V30 10783 C 440.137 -4.78366 5.89277 0
M  V30 10784 O 439.927 -3.58302 5.08433 0
M  V30 10785 C 438.737 -5.16748 6.36559 0
M  V30 10786 O 438.347 -4.45271 7.53232 0
M  V30 10787 C 437.857 -4.74572 5.19863 0
M  V30 10788 C 438.567 -3.49373 4.70338 0
M  V30 10789 N 438.517 -3.31704 3.22876 0
M  V30 10790 C 438.367 -2.03326 2.74871 0
M  V30 10791 O 438.277 -1.06486 3.48076 0
M  V30 10792 N 438.327 -1.91838 1.37456 0
M  V30 10793 C 438.417 -2.94295 0.462035 0
M  V30 10794 C 438.567 -4.25064 1.05249 0
M  V30 10795 C 438.617 -4.40214 2.39192 0
M  V30 10796 H 441.358 -6.54063 5.71245 0
M  V30 10797 H 441.627 -5.30339 4.43905 0
M  V30 10798 H 440.76 -4.55889 6.76652 0
M  V30 10799 H 438.105 -2.6167 5.17842 0
M  V30 10800 H 437.826 -5.52155 4.41878 0
M  V30 10801 H 436.834 -4.51918 5.53297 0
M  V30 10802 H 438.668 -6.25055 6.55162 0
M  V30 10803 H 438.739 -5.39798 2.81523 0
M  V30 10804 P 436.797 -4.23843 7.83734 0
M  V30 10805 O 436.577 -4.19407 9.29784 0
M  V30 10806 O 436.007 -5.24426 7.09156 0
M  V30 10807 O 436.547 -2.7935 7.20758 0
M  V30 10808 C 437.487 -1.72945 7.50224 0
M  V30 10809 C 436.757 -0.406376 7.57911 0
M  V30 10810 O 436.547 0.0897726 6.21935 0
M  V30 10811 C 435.357 -0.438983 8.18724 0
M  V30 10812 O 434.967 0.825065 8.71101 0
M  V30 10813 C 434.477 -0.783689 6.99524 0
M  V30 10814 C 435.187 -0.0619086 5.85867 0
M  V30 10815 N 435.137 -0.78573 4.56183 0
M  V30 10816 C 434.987 -0.0292889 3.41887 0
M  V30 10817 O 434.897 1.18445 3.4419 0
M  V30 10818 N 434.947 -0.744061 2.23964 0
M  V30 10819 C 435.037 -2.10932 2.10362 0
M  V30 10820 O 434.987 -2.64117 0.98825 0
M  V30 10821 C 435.187 -2.8202 3.34994 0
M  V30 10822 C 435.297 -4.31095 3.25037 0
M  V30 10823 C 435.237 -2.15547 4.52261 0
M  V30 10824 H 437.978 -1.93379 8.46595 0
M  V30 10825 H 438.247 -1.68132 6.70852 0
M  V30 10826 H 437.38 0.289041 8.15388 0
M  V30 10827 H 434.725 0.926847 5.72749 0
M  V30 10828 H 434.446 -1.86973 6.82036 0
M  V30 10829 H 433.454 -0.403896 7.13257 0
M  V30 10830 H 435.288 -1.20585 8.97435 0
M  V30 10831 H 435.359 -2.71231 5.45042 0
M  V30 10832 H 434.329 -4.76966 3.49992 0
M  V30 10833 H 436.066 -4.67047 3.95024 0
M  V30 10834 H 435.578 -4.58996 2.22312 0
M  V30 10835 H 434.842 -0.214893 1.39758 0
M  V30 10836 P 433.417 1.17771 8.83182 0
M  V30 10837 O 433.197 2.07206 9.98732 0
M  V30 10838 O 432.627 -0.0743816 8.81969 0
M  V30 10839 O 433.167 1.97652 7.47304 0
M  V30 10840 C 434.107 3.01055 7.08599 0
M  V30 10841 C 433.377 4.12613 6.37049 0
M  V30 10842 O 433.167 3.72827 4.97879 0
M  V30 10843 C 431.977 4.45719 6.88164 0
M  V30 10844 O 431.587 5.7877 6.5624 0
M  V30 10845 C 431.097 3.47768 6.11991 0
M  V30 10846 C 431.807 3.39356 4.77615 0
M  V30 10847 N 431.757 2.04571 4.15244 0
M  V30 10848 C 431.607 1.98587 2.78314 0
M  V30 10849 O 431.517 2.98134 2.08835 0
M  V30 10850 N 431.567 0.714467 2.24925 0
M  V30 10851 C 431.657 -0.470001 2.94169 0
M  V30 10852 O 431.607 -1.55587 2.35195 0
M  V30 10853 C 431.807 -0.312541 4.36783 0
M  V30 10854 C 431.917 -1.57711 5.16352 0
M  V30 10855 C 431.857 0.914512 4.92583 0
M  V30 10856 H 434.598 3.41169 7.98575 0
M  V30 10857 H 434.867 2.58295 6.41556 0
M  V30 10858 H 434 5.02657 6.42673 0
M  V30 10859 H 431.345 4.11637 4.08885 0
M  V30 10860 H 431.066 2.49626 6.61679 0
M  V30 10861 H 430.074 3.86566 6.00778 0
M  V30 10862 H 431.908 4.29943 7.96918 0
M  V30 10863 H 431.979 1.00937 6.00374 0
M  V30 10864 H 430.949 -1.80153 5.63503 0
M  V30 10865 H 432.686 -1.4566 5.94104 0
M  V30 10866 H 432.198 -2.40664 4.49645 0
M  V30 10867 H 431.462 0.647622 1.25697 0
M  V30 10868 P 430.037 6.144 6.45285 0
M  V30 10869 O 429.817 7.54673 6.86199 0
M  V30 10870 O 429.247 5.12391 7.179 0
M  V30 10871 O 429.787 5.99158 4.88404 0
M  V30 10872 C 430.727 6.60234 3.96415 0
M  V30 10873 C 429.997 7.08259 2.72856 0
M  V30 10874 O 429.787 5.9427 1.83651 0
M  V30 10875 C 428.597 7.64886 2.9555 0
M  V30 10876 O 428.207 8.53963 1.90717 0
M  V30 10877 C 427.717 6.4116 2.90739 0
M  V30 10878 C 428.427 5.55375 1.86963 0
M  V30 10879 N 428.377 4.09664 2.15742 0
M  V30 10880 H 431.216 7.45574 4.45629 0
M  V30 10881 H 431.488 5.86232 3.67314 0
M  V30 10882 H 430.62 7.84412 2.24479 0
M  V30 10883 P 426.657 8.7635 1.60911 0
M  V30 10884 O 426.437 10.1388 1.11561 0
M  V30 10885 O 425.867 8.36503 2.79617 0
M  V30 10886 O 426.407 7.71906 0.429565 0
M  V30 10887 C 427.347 7.67148 -0.673689 0
M  V30 10888 C 426.617 7.33666 -1.94851 0
M  V30 10889 O 426.407 5.88816 -2.00759 0
M  V30 10890 C 425.217 7.92526 -2.10483 0
M  V30 10891 O 424.827 8.03063 -3.47693 0
M  V30 10892 C 424.337 6.89602 -1.41652 0
M  V30 10893 C 425.047 5.59201 -1.75185 0
M  V30 10894 N 424.997 4.58235 -0.662552 0
M  V30 10895 C 424.847 3.24451 -1.01643 0
M  V30 10896 O 424.757 2.94958 -2.21722 0
M  V30 10897 N 424.797 2.30408 0.165238 0
M  V30 10898 C 424.897 2.66048 1.25118 0
M  V30 10899 N 424.847 1.70787 2.16813 0
M  V30 10900 C 425.047 4.02732 1.64413 0
M  V30 10901 C 425.097 4.9488 0.63991 0
M  V30 10902 H 427.837 8.65017 -0.777072 0
M  V30 10903 H 428.107 6.90173 -0.474152 0
M  V30 10904 H 427.24 7.66642 -2.79492 0
M  V30 10905 H 424.585 5.16254 -2.65229 0
M  V30 10906 H 424.305 7.06532 -0.329431 0
M  V30 10907 H 423.314 6.91023 -1.82047 0
M  V30 10908 H 425.148 8.90873 -1.62657 0
M  V30 10909 H 425.22 6.00104 0.892197 0
M  V30 10910 H 425.118 4.31733 2.69229 0
M  V30 10911 H 424.73 0.724835 1.8844 0
M  V30 10912 H 424.926 1.94716 3.16734 0
M  V30 10913 P 423.278 8.03563 -3.84925 0
M  V30 10914 O 423.058 8.85821 -5.0569 0
M  V30 10915 O 422.488 8.41101 -2.65469 0
M  V30 10916 O 423.028 6.4965 -4.18908 0
M  V30 10917 C 423.968 5.81037 -5.05421 0
M  V30 10918 C 423.238 4.78366 -5.89277 0
M  V30 10919 O 423.028 3.58302 -5.08433 0
M  V30 10920 C 421.838 5.17448 -6.36119 0
M  V30 10921 O 421.448 4.45271 -7.53232 0
M  V30 10922 C 420.958 4.74639 -5.19936 0
M  V30 10923 C 421.668 3.49432 -4.70418 0
M  V30 10924 N 421.618 3.31776 -3.22945 0
M  V30 10925 H 424.457 6.54213 -5.71376 0
M  V30 10926 H 424.729 5.30492 -4.44033 0
M  V30 10927 H 423.861 4.55889 -6.76652 0
M  V30 10928 P 419.898 4.23843 -7.83734 0
M  V30 10929 O 419.678 4.19407 -9.29784 0
M  V30 10930 O 419.108 5.24426 -7.09156 0
M  V30 10931 O 419.648 2.79386 -7.20852 0
M  V30 10932 C 420.588 1.7299 -7.50419 0
M  V30 10933 C 419.858 0.41401 -7.5797 0
M  V30 10934 O 419.648 -0.089787 -6.22035 0
M  V30 10935 C 418.458 0.447224 -8.1878 0
M  V30 10936 O 418.068 -0.825159 -8.71201 0
M  V30 10937 C 417.578 0.783801 -6.99623 0
M  V30 10938 C 418.288 0.0619192 -5.85967 0
M  V30 10939 N 418.238 0.7859 -4.56281 0
M  V30 10940 C 418.088 0.0359258 -3.39981 0
M  V30 10941 O 417.998 -1.19723 -3.49038 0
M  V30 10942 N 418.038 0.869151 -2.14025 0
M  V30 10943 C 418.138 2.01207 -2.14363 0
M  V30 10944 N 418.088 2.58978 -0.954287 0
M  V30 10945 C 418.288 2.80817 -3.32215 0
M  V30 10946 C 418.338 2.13785 -4.50884 0
M  V30 10947 H 421.078 1.93401 -8.46693 0
M  V30 10948 H 421.348 1.68181 -6.71046 0
M  V30 10949 H 420.481 -0.289076 -8.15488 0
M  V30 10950 H 417.826 -0.927166 -5.72947 0
M  V30 10951 H 417.546 1.87 -6.82132 0
M  V30 10952 H 416.555 0.404009 -7.13457 0
M  V30 10953 H 418.389 1.20599 -8.97534 0
M  V30 10954 H 418.461 2.70295 -5.43162 0
M  V30 10955 H 418.359 3.89465 -3.27406 0
M  V30 10956 H 417.971 2.01616 -0.107046 0
M  V30 10957 H 418.167 3.61403 -0.873101 0
M  V30 10958 P 416.518 -1.17771 -8.83182 0
M  V30 10959 O 416.298 -2.07206 -9.98732 0
M  V30 10960 O 415.728 0.0743816 -8.81969 0
M  V30 10961 O 416.268 -1.97652 -7.47304 0
M  V30 10962 C 417.208 -3.01133 -7.08783 0
M  V30 10963 C 416.478 -4.12613 -6.37049 0
M  V30 10964 O 416.268 -3.72827 -4.97879 0
M  V30 10965 C 415.078 -4.45085 -6.88694 0
M  V30 10966 O 414.688 -5.7877 -6.5624 0
M  V30 10967 C 414.198 -3.47817 -6.12078 0
M  V30 10968 C 414.908 -3.39414 -4.77697 0
M  V30 10969 N 414.858 -2.04615 -4.15333 0
M  V30 10970 H 417.697 -3.41248 -7.98759 0
M  V30 10971 H 417.969 -2.5837 -6.41742 0
M  V30 10972 H 417.101 -5.02657 -6.42673 0
M  V30 10973 P 413.138 -6.144 -6.45285 0
M  V30 10974 O 412.918 -7.54673 -6.86199 0
M  V30 10975 O 412.348 -5.12391 -7.179 0
M  V30 10976 O 412.888 -5.99158 -4.88404 0
M  V30 10977 C 413.828 -6.60234 -3.96415 0
M  V30 10978 C 413.098 -7.08259 -2.72856 0
M  V30 10979 O 412.888 -5.9427 -1.83651 0
M  V30 10980 C 411.698 -7.64886 -2.9555 0
M  V30 10981 O 411.308 -8.53963 -1.90717 0
M  V30 10982 C 410.818 -6.4116 -2.90739 0
M  V30 10983 C 411.528 -5.55375 -1.86963 0
M  V30 10984 N 411.478 -4.09664 -2.15742 0
M  V30 10985 H 414.317 -7.45574 -4.45629 0
M  V30 10986 H 414.589 -5.86232 -3.67314 0
M  V30 10987 H 413.721 -7.84412 -2.24479 0
M  V30 10988 P 409.758 -8.7635 -1.60911 0
M  V30 10989 O 409.538 -10.1388 -1.11561 0
M  V30 10990 O 408.968 -8.36503 -2.79617 0
M  V30 10991 O 409.508 -7.71806 -0.42951 0
M  V30 10992 C 410.448 -7.67148 0.673689 0
M  V30 10993 C 409.718 -7.33374 1.95559 0
M  V30 10994 O 409.508 -5.88721 2.00726 0
M  V30 10995 C 408.318 -7.92526 2.10483 0
M  V30 10996 O 407.928 -8.02971 3.47653 0
M  V30 10997 C 407.438 -6.89602 1.41652 0
M  V30 10998 C 408.148 -5.59201 1.75185 0
M  V30 10999 N 408.098 -4.58235 0.662552 0
M  V30 11000 H 410.937 -8.65116 0.777161 0
M  V30 11001 H 411.209 -6.90173 0.474152 0
M  V30 11002 H 410.341 -7.66548 2.79458 0
M  V30 11003 P 406.378 -8.03563 3.84925 0
M  V30 11004 O 406.158 -8.85821 5.0569 0
M  V30 11005 O 405.588 -8.41101 2.65469 0
M  V30 11006 O 406.128 -6.4965 4.18908 0
M  V30 11007 C 407.068 -5.81037 5.05421 0
M  V30 11008 C 406.338 -4.78366 5.89277 0
M  V30 11009 O 406.128 -3.58302 5.08433 0
M  V30 11010 C 404.938 -5.17448 6.36119 0
M  V30 11011 O 404.548 -4.45271 7.53232 0
M  V30 11012 C 404.058 -4.74639 5.19936 0
M  V30 11013 C 404.768 -3.49432 4.70418 0
M  V30 11014 N 404.718 -3.32099 3.22613 0
M  V30 11015 H 407.557 -6.54213 5.71376 0
M  V30 11016 H 407.829 -5.30936 4.43503 0
M  V30 11017 H 406.961 -4.55889 6.76652 0
M  V30 11018 H 404.306 -2.61715 5.17932 0
M  V30 11019 H 404.026 -5.52155 4.41878 0
M  V30 11020 H 403.035 -4.51981 5.53374 0
M  V30 11021 H 404.869 -6.25124 6.55234 0
M  V30 11022 P 402.998 -4.23843 7.83734 0
M  V30 11023 O 402.778 -4.19407 9.29784 0
M  V30 11024 O 402.208 -5.24426 7.09156 0
M  V30 11025 O 402.748 -2.7935 7.20758 0
M  V30 11026 C 403.688 -1.7299 7.50419 0
M  V30 11027 C 402.958 -0.406376 7.57911 0
M  V30 11028 O 402.748 0.0897726 6.21935 0
M  V30 11029 C 401.558 -0.447224 8.1878 0
M  V30 11030 O 401.168 0.825065 8.71101 0
M  V30 11031 C 400.678 -0.783801 6.99623 0
M  V30 11032 C 401.388 -0.0619192 5.85967 0
M  V30 11033 N 401.338 -0.7859 4.56281 0
M  V30 11034 H 404.177 -1.93423 8.4679 0
M  V30 11035 H 404.449 -1.68181 6.71046 0
M  V30 11036 H 403.581 0.289041 8.15388 0
M  V30 11037 P 399.618 1.17771 8.83182 0
M  V30 11038 O 399.398 2.07206 9.98732 0
M  V30 11039 O 398.828 -0.0743816 8.81969 0
M  V30 11040 O 399.368 1.97652 7.47304 0
M  V30 11041 C 400.308 3.01133 7.08783 0
M  V30 11042 C 399.578 4.12613 6.37049 0
M  V30 11043 O 399.368 3.72827 4.97879 0
M  V30 11044 C 398.178 4.45085 6.88694 0
M  V30 11045 O 397.788 5.7877 6.5624 0
M  V30 11046 C 397.298 3.47817 6.12078 0
M  V30 11047 C 398.008 3.39414 4.77697 0
M  V30 11048 N 397.958 2.04615 4.15333 0
M  V30 11049 H 400.797 3.41248 7.98759 0
M  V30 11050 H 401.069 2.5837 6.41742 0
M  V30 11051 H 400.201 5.02657 6.42673 0
M  V30 11052 P 396.238 6.144 6.45285 0
M  V30 11053 O 396.018 7.54673 6.86199 0
M  V30 11054 O 395.448 5.12391 7.179 0
M  V30 11055 O 395.988 5.99158 4.88404 0
M  V30 11056 C 396.928 6.60234 3.96415 0
M  V30 11057 C 396.198 7.08259 2.72856 0
M  V30 11058 O 395.988 5.9427 1.83651 0
M  V30 11059 C 394.798 7.64886 2.9555 0
M  V30 11060 O 394.408 8.53963 1.90717 0
M  V30 11061 C 393.918 6.4116 2.90739 0
M  V30 11062 C 394.628 5.55375 1.86963 0
M  V30 11063 N 394.578 4.09664 2.15742 0
M  V30 11064 H 397.417 7.45574 4.45629 0
M  V30 11065 H 397.689 5.86232 3.67314 0
M  V30 11066 H 396.821 7.84412 2.24479 0
M  V30 11067 P 392.858 8.7635 1.60911 0
M  V30 11068 O 392.638 10.1388 1.11561 0
M  V30 11069 O 392.068 8.36503 2.79617 0
M  V30 11070 O 392.608 7.71806 0.42951 0
M  V30 11071 C 393.548 7.67148 -0.673689 0
M  V30 11072 C 392.818 7.33374 -1.95559 0
M  V30 11073 O 392.608 5.88721 -2.00726 0
M  V30 11074 C 391.418 7.92526 -2.10483 0
M  V30 11075 O 391.028 8.02971 -3.47653 0
M  V30 11076 C 390.538 6.89602 -1.41652 0
M  V30 11077 C 391.248 5.59201 -1.75185 0
M  V30 11078 N 391.198 4.58301 -0.657969 0
M  V30 11079 H 394.037 8.65116 -0.777161 0
M  V30 11080 H 394.309 6.9022 -0.46725 0
M  V30 11081 H 393.441 7.66548 -2.79458 0
M  V30 11082 H 390.786 5.16165 -2.65183 0
M  V30 11083 H 390.506 7.06433 -0.329384 0
M  V30 11084 H 389.515 6.90926 -1.82021 0
M  V30 11085 H 391.349 8.90873 -1.62657 0
M  V30 11086 P 389.478 8.03563 -3.84925 0
M  V30 11087 O 389.258 8.85821 -5.0569 0
M  V30 11088 O 388.688 8.41101 -2.65469 0
M  V30 11089 O 389.228 6.4965 -4.18908 0
M  V30 11090 C 390.168 5.81037 -5.05421 0
M  V30 11091 C 389.438 4.78366 -5.89277 0
M  V30 11092 O 389.228 3.58302 -5.08433 0
M  V30 11093 C 388.038 5.17448 -6.36119 0
M  V30 11094 O 387.648 4.45271 -7.53232 0
M  V30 11095 C 387.158 4.74639 -5.19936 0
M  V30 11096 C 387.868 3.49432 -4.70418 0
M  V30 11097 N 387.818 3.31776 -3.22945 0
M  V30 11098 H 390.657 6.54213 -5.71376 0
M  V30 11099 H 390.929 5.30492 -4.44033 0
M  V30 11100 H 390.061 4.55889 -6.76652 0
M  V30 11101 P 386.098 4.23843 -7.83734 0
M  V30 11102 O 385.878 4.19407 -9.29784 0
M  V30 11103 O 385.308 5.24426 -7.09156 0
M  V30 11104 O 385.848 2.7935 -7.20758 0
M  V30 11105 C 386.788 1.7299 -7.50419 0
M  V30 11106 C 386.058 0.406376 -7.57911 0
M  V30 11107 O 385.848 -0.0897726 -6.21935 0
M  V30 11108 C 384.658 0.447224 -8.1878 0
M  V30 11109 O 384.268 -0.825065 -8.71101 0
M  V30 11110 C 383.778 0.783801 -6.99623 0
M  V30 11111 C 384.488 0.0619192 -5.85967 0
M  V30 11112 N 384.438 0.7859 -4.56281 0
M  V30 11113 H 387.277 1.93423 -8.4679 0
M  V30 11114 H 387.549 1.68181 -6.71046 0
M  V30 11115 H 386.681 -0.289041 -8.15388 0
M  V30 11116 P 382.718 -1.17771 -8.83182 0
M  V30 11117 O 382.498 -2.07206 -9.98732 0
M  V30 11118 O 381.928 0.0743816 -8.81969 0
M  V30 11119 O 382.468 -1.97652 -7.47304 0
M  V30 11120 C 383.408 -3.01055 -7.08599 0
M  V30 11121 C 382.678 -4.12613 -6.37049 0
M  V30 11122 O 382.468 -3.72827 -4.97879 0
M  V30 11123 C 381.278 -4.45719 -6.88164 0
M  V30 11124 O 380.888 -5.7877 -6.5624 0
M  V30 11125 C 380.398 -3.47768 -6.11991 0
M  V30 11126 C 381.108 -3.39356 -4.77615 0
M  V30 11127 N 381.058 -2.04571 -4.15244 0
M  V30 11128 C 380.908 -1.98587 -2.78314 0
M  V30 11129 O 380.818 -2.98134 -2.08835 0
M  V30 11130 N 380.868 -0.714467 -2.24925 0
M  V30 11131 C 380.958 0.470001 -2.94169 0
M  V30 11132 O 380.908 1.55587 -2.35195 0
M  V30 11133 C 381.108 0.312541 -4.36783 0
M  V30 11134 C 381.218 1.57711 -5.16352 0
M  V30 11135 C 381.158 -0.914512 -4.92583 0
M  V30 11136 H 383.899 -3.41169 -7.98575 0
M  V30 11137 H 384.168 -2.58295 -6.41556 0
M  V30 11138 H 383.301 -5.02657 -6.42673 0
M  V30 11139 H 380.646 -4.11637 -4.08885 0
M  V30 11140 H 380.367 -2.49626 -6.61679 0
M  V30 11141 H 379.375 -3.86566 -6.00778 0
M  V30 11142 H 381.209 -4.29943 -7.96918 0
M  V30 11143 H 381.28 -1.00937 -6.00374 0
M  V30 11144 H 380.25 1.80153 -5.63503 0
M  V30 11145 H 381.987 1.4566 -5.94104 0
M  V30 11146 H 381.499 2.40664 -4.49645 0
M  V30 11147 H 380.763 -0.647622 -1.25697 0
M  V30 11148 P 379.338 -6.144 -6.45285 0
M  V30 11149 O 379.118 -7.54673 -6.86199 0
M  V30 11150 O 378.548 -5.12391 -7.179 0
M  V30 11151 O 379.088 -5.99158 -4.88404 0
M  V30 11152 C 380.028 -6.60234 -3.96415 0
M  V30 11153 C 379.298 -7.08259 -2.72856 0
M  V30 11154 O 379.088 -5.9427 -1.83651 0
M  V30 11155 C 377.898 -7.64886 -2.9555 0
M  V30 11156 O 377.508 -8.53963 -1.90717 0
M  V30 11157 C 377.018 -6.4116 -2.90739 0
M  V30 11158 C 377.728 -5.55375 -1.86963 0
M  V30 11159 N 377.678 -4.09664 -2.15742 0
M  V30 11160 H 380.517 -7.45574 -4.45629 0
M  V30 11161 H 380.789 -5.86232 -3.67314 0
M  V30 11162 H 379.921 -7.84412 -2.24479 0
M  V30 11163 P 375.958 -8.7635 -1.60911 0
M  V30 11164 O 375.738 -10.1388 -1.11561 0
M  V30 11165 O 375.168 -8.36503 -2.79617 0
M  V30 11166 O 375.708 -7.71806 -0.42951 0
M  V30 11167 C 376.648 -7.67148 0.673689 0
M  V30 11168 C 375.918 -7.33374 1.95559 0
M  V30 11169 O 375.708 -5.88721 2.00726 0
M  V30 11170 C 374.518 -7.92526 2.10483 0
M  V30 11171 O 374.128 -8.02971 3.47653 0
M  V30 11172 C 373.638 -6.89602 1.41652 0
M  V30 11173 C 374.348 -5.59201 1.75185 0
M  V30 11174 N 374.298 -4.58235 0.662552 0
M  V30 11175 C 374.378 -4.7683 -0.704049 0
M  V30 11176 N 374.298 -3.66233 -1.39775 0
M  V30 11177 C 374.158 -2.66526 -0.431739 0
M  V30 11178 C 374.028 -1.26394 -0.575992 0
M  V30 11179 N 373.908 -0.62859 0.67177 0
M  V30 11180 C 373.908 -1.27134 1.89385 0
M  V30 11181 N 373.778 -0.492035 2.96951 0
M  V30 11182 N 374.038 -2.58978 2.02907 0
M  V30 11183 C 374.158 -3.22433 0.832218 0
M  V30 11184 H 377.137 -8.65116 0.777161 0
M  V30 11185 H 377.409 -6.90173 0.474152 0
M  V30 11186 H 376.541 -7.66548 2.79458 0
M  V30 11187 P 372.578 -8.03563 3.84925 0
M  V30 11188 O 372.358 -8.85821 5.0569 0
M  V30 11189 O 371.788 -8.41101 2.65469 0
M  V30 11190 O 372.328 -6.4965 4.18908 0
M  V30 11191 C 373.268 -5.81037 5.05421 0
M  V30 11192 C 372.538 -4.78366 5.89277 0
M  V30 11193 O 372.328 -3.58302 5.08433 0
M  V30 11194 C 371.138 -5.17448 6.36119 0
M  V30 11195 O 370.748 -4.45271 7.53232 0
M  V30 11196 C 370.258 -4.74639 5.19936 0
M  V30 11197 C 370.968 -3.49432 4.70418 0
M  V30 11198 N 370.918 -3.31776 3.22945 0
M  V30 11199 H 373.757 -6.54213 5.71376 0
M  V30 11200 H 374.029 -5.30492 4.44033 0
M  V30 11201 H 373.161 -4.55889 6.76652 0
M  V30 11202 P 369.198 -4.23843 7.83734 0
M  V30 11203 O 368.978 -4.19407 9.29784 0
M  V30 11204 O 368.408 -5.24426 7.09156 0
M  V30 11205 O 368.948 -2.7935 7.20758 0
M  V30 11206 C 369.888 -1.7299 7.50419 0
M  V30 11207 C 369.158 -0.406376 7.57911 0
M  V30 11208 O 368.948 0.0897726 6.21935 0
M  V30 11209 C 367.758 -0.447224 8.1878 0
M  V30 11210 O 367.368 0.825065 8.71101 0
M  V30 11211 C 366.878 -0.783801 6.99623 0
M  V30 11212 C 367.588 -0.0619192 5.85967 0
M  V30 11213 N 367.538 -0.7859 4.56281 0
M  V30 11214 H 370.377 -1.93423 8.4679 0
M  V30 11215 H 370.649 -1.68181 6.71046 0
M  V30 11216 H 369.781 0.289041 8.15388 0
M  V30 11217 P 365.818 1.17771 8.83182 0
M  V30 11218 O 365.598 2.07206 9.98732 0
M  V30 11219 O 365.028 -0.0743816 8.81969 0
M  V30 11220 O 365.568 1.97652 7.47304 0
M  V30 11221 C 366.508 3.01133 7.08783 0
M  V30 11222 C 365.778 4.12613 6.37049 0
M  V30 11223 O 365.568 3.72827 4.97879 0
M  V30 11224 C 364.378 4.45085 6.88694 0
M  V30 11225 O 363.988 5.7877 6.5624 0
M  V30 11226 C 363.498 3.47817 6.12078 0
M  V30 11227 C 364.208 3.39414 4.77697 0
M  V30 11228 N 364.158 2.04615 4.15333 0
M  V30 11229 H 366.997 3.41248 7.98759 0
M  V30 11230 H 367.269 2.5837 6.41742 0
M  V30 11231 H 366.401 5.02657 6.42673 0
M  V30 11232 P 362.438 6.144 6.45285 0
M  V30 11233 O 362.218 7.54673 6.86199 0
M  V30 11234 O 361.648 5.12391 7.179 0
M  V30 11235 O 362.188 5.99158 4.88404 0
M  V30 11236 C 363.128 6.60234 3.96415 0
M  V30 11237 C 362.398 7.08259 2.72856 0
M  V30 11238 O 362.188 5.9427 1.83651 0
M  V30 11239 C 360.998 7.64886 2.9555 0
M  V30 11240 O 360.608 8.53963 1.90717 0
M  V30 11241 C 360.118 6.4116 2.90739 0
M  V30 11242 C 360.828 5.55375 1.86963 0
M  V30 11243 N 360.778 4.09664 2.15742 0
M  V30 11244 H 363.617 7.45574 4.45629 0
M  V30 11245 H 363.889 5.86232 3.67314 0
M  V30 11246 H 363.021 7.84412 2.24479 0
M  V30 11247 P 359.058 8.7635 1.60911 0
M  V30 11248 O 358.838 10.1388 1.11561 0
M  V30 11249 O 358.268 8.36503 2.79617 0
M  V30 11250 O 358.808 7.71806 0.42951 0
M  V30 11251 C 359.748 7.66948 -0.673514 0
M  V30 11252 C 359.018 7.33374 -1.95559 0
M  V30 11253 O 358.808 5.88721 -2.00726 0
M  V30 11254 C 357.618 7.92218 -2.1125 0
M  V30 11255 O 357.228 8.02971 -3.47653 0
M  V30 11256 C 356.738 6.89504 -1.41631 0
M  V30 11257 C 357.448 5.59106 -1.75155 0
M  V30 11258 N 357.398 4.58136 -0.662409 0
M  V30 11259 C 357.248 3.26059 -1.02863 0
M  V30 11260 O 357.158 2.90743 -2.19009 0
M  V30 11261 N 357.208 2.35995 0.0155585 0
M  V30 11262 C 357.298 2.65248 1.35603 0
M  V30 11263 O 357.248 1.75605 2.20651 0
M  V30 11264 C 357.448 4.05747 1.64698 0
M  V30 11265 C 357.558 4.42345 3.09553 0
M  V30 11266 C 357.498 4.96734 0.652411 0
M  V30 11267 H 360.239 8.64917 -0.776982 0
M  V30 11268 H 360.508 6.89974 -0.474015 0
M  V30 11269 H 359.641 7.66548 -2.79458 0
M  V30 11270 H 356.986 5.16076 -2.65138 0
M  V30 11271 H 356.707 7.06433 -0.329384 0
M  V30 11272 H 355.715 6.90829 -1.81996 0
M  V30 11273 H 357.549 8.90774 -1.62639 0
M  V30 11274 H 357.62 6.02181 0.895285 0
M  V30 11275 H 356.59 4.80252 3.45468 0
M  V30 11276 H 358.327 5.20015 3.22119 0
M  V30 11277 H 357.839 3.53269 3.67833 0
M  V30 11278 H 357.103 1.39558 -0.227499 0
M  V30 11279 P 355.678 8.03563 -3.84925 0
M  V30 11280 O 355.458 8.85821 -5.0569 0
M  V30 11281 O 354.888 8.41101 -2.65469 0
M  V30 11282 O 355.428 6.4965 -4.18908 0
M  V30 11283 C 356.368 5.81037 -5.05421 0
M  V30 11284 C 355.638 4.78366 -5.89277 0
M  V30 11285 O 355.428 3.58302 -5.08433 0
M  V30 11286 C 354.238 5.17448 -6.36119 0
M  V30 11287 O 353.848 4.45271 -7.53232 0
M  V30 11288 C 353.358 4.74639 -5.19936 0
M  V30 11289 C 354.068 3.49432 -4.70418 0
M  V30 11290 N 354.018 3.31776 -3.22945 0
M  V30 11291 H 356.857 6.54213 -5.71376 0
M  V30 11292 H 357.129 5.30492 -4.44033 0
M  V30 11293 H 356.261 4.55889 -6.76652 0
M  V30 11294 P 352.298 4.23843 -7.83734 0
M  V30 11295 O 352.078 4.19407 -9.29784 0
M  V30 11296 O 351.508 5.24426 -7.09156 0
M  V30 11297 O 352.048 2.7935 -7.20758 0
M  V30 11298 C 352.988 1.72945 -7.50224 0
M  V30 11299 C 352.258 0.406376 -7.57911 0
M  V30 11300 O 352.048 -0.0897726 -6.21935 0
M  V30 11301 C 350.858 0.438983 -8.18724 0
M  V30 11302 O 350.468 -0.825065 -8.71101 0
M  V30 11303 C 349.978 0.783689 -6.99524 0
M  V30 11304 C 350.688 0.0619086 -5.85867 0
M  V30 11305 N 350.638 0.78573 -4.56183 0
M  V30 11306 C 350.488 0.0292889 -3.41887 0
M  V30 11307 O 350.398 -1.18445 -3.4419 0
M  V30 11308 N 350.448 0.744061 -2.23964 0
M  V30 11309 C 350.538 2.10932 -2.10362 0
M  V30 11310 C 350.688 2.8202 -3.34994 0
M  V30 11311 C 350.738 2.15547 -4.52261 0
M  V30 11312 H 353.479 1.93379 -8.46595 0
M  V30 11313 H 353.748 1.68132 -6.70852 0
M  V30 11314 H 352.881 -0.289041 -8.15388 0
M  V30 11315 H 350.226 -0.926847 -5.72749 0
M  V30 11316 H 349.947 1.86973 -6.82036 0
M  V30 11317 H 348.955 0.403896 -7.13257 0
M  V30 11318 H 350.789 1.20585 -8.97435 0
M  V30 11319 H 350.86 2.71231 -5.45042 0
M  V30 11320 P 348.918 -1.17771 -8.83182 0
M  V30 11321 O 348.698 -2.07206 -9.98732 0
M  V30 11322 O 348.128 0.0743816 -8.81969 0
M  V30 11323 O 348.668 -1.97652 -7.47304 0
M  V30 11324 C 349.608 -3.01133 -7.08783 0
M  V30 11325 C 348.878 -4.12613 -6.37049 0
M  V30 11326 O 348.668 -3.72827 -4.97879 0
M  V30 11327 C 347.478 -4.45085 -6.88694 0
M  V30 11328 O 347.088 -5.7877 -6.5624 0
M  V30 11329 C 346.598 -3.47817 -6.12078 0
M  V30 11330 C 347.308 -3.39414 -4.77697 0
M  V30 11331 N 347.258 -2.04199 -4.15538 0
M  V30 11332 H 350.097 -3.41248 -7.98759 0
M  V30 11333 H 350.369 -2.57728 -6.42 0
M  V30 11334 H 349.501 -5.02657 -6.42673 0
M  V30 11335 H 346.846 -4.11708 -4.08956 0
M  V30 11336 H 346.566 -2.49626 -6.61679 0
M  V30 11337 H 345.575 -3.8662 -6.00862 0
M  V30 11338 H 347.409 -4.29991 -7.97006 0
M  V30 11339 P 345.538 -6.144 -6.45285 0
M  V30 11340 O 345.318 -7.54673 -6.86199 0
M  V30 11341 O 344.748 -5.12391 -7.179 0
M  V30 11342 O 345.288 -5.99158 -4.88404 0
M  V30 11343 C 346.228 -6.60234 -3.96415 0
M  V30 11344 C 345.498 -7.08259 -2.72856 0
M  V30 11345 O 345.288 -5.9427 -1.83651 0
M  V30 11346 C 344.098 -7.64886 -2.9555 0
M  V30 11347 O 343.708 -8.53963 -1.90717 0
M  V30 11348 C 343.218 -6.4116 -2.90739 0
M  V30 11349 C 343.928 -5.55375 -1.86963 0
M  V30 11350 N 343.878 -4.09664 -2.15742 0
M  V30 11351 H 346.717 -7.45574 -4.45629 0
M  V30 11352 H 346.989 -5.86232 -3.67314 0
M  V30 11353 H 346.121 -7.84412 -2.24479 0
M  V30 11354 P 342.158 -8.7635 -1.60911 0
M  V30 11355 O 341.938 -10.1388 -1.11561 0
M  V30 11356 O 341.368 -8.36503 -2.79617 0
M  V30 11357 O 341.908 -7.71806 -0.42951 0
M  V30 11358 C 342.848 -7.66948 0.673514 0
M  V30 11359 C 342.118 -7.33374 1.95559 0
M  V30 11360 O 341.908 -5.88721 2.00726 0
M  V30 11361 C 340.718 -7.92218 2.1125 0
M  V30 11362 O 340.328 -8.02971 3.47653 0
M  V30 11363 C 339.838 -6.89504 1.41631 0
M  V30 11364 C 340.548 -5.59106 1.75155 0
M  V30 11365 N 340.498 -4.58136 0.662409 0
M  V30 11366 C 340.348 -3.26059 1.02863 0
M  V30 11367 O 340.258 -2.90743 2.19009 0
M  V30 11368 N 340.308 -2.35995 -0.0155585 0
M  V30 11369 C 340.398 -2.65248 -1.35603 0
M  V30 11370 C 340.548 -4.05747 -1.64698 0
M  V30 11371 C 340.598 -4.96734 -0.652411 0
M  V30 11372 H 343.339 -8.64917 0.776982 0
M  V30 11373 H 343.608 -6.89974 0.474015 0
M  V30 11374 H 342.741 -7.66548 2.79458 0
M  V30 11375 H 340.086 -5.16076 2.65138 0
M  V30 11376 H 339.807 -7.06433 0.329384 0
M  V30 11377 H 338.815 -6.90829 1.81996 0
M  V30 11378 H 340.649 -8.90774 1.62639 0
M  V30 11379 H 340.72 -6.02181 -0.895285 0
M  V30 11380 P 338.778 -8.03563 3.84925 0
M  V30 11381 O 338.558 -8.85821 5.0569 0
M  V30 11382 O 337.988 -8.41101 2.65469 0
M  V30 11383 O 338.528 -6.4965 4.18908 0
M  V30 11384 C 339.468 -5.81037 5.05421 0
M  V30 11385 C 338.738 -4.78366 5.89277 0
M  V30 11386 O 338.528 -3.58302 5.08433 0
M  V30 11387 C 337.338 -5.17448 6.36119 0
M  V30 11388 O 336.948 -4.45271 7.53232 0
M  V30 11389 C 336.458 -4.74639 5.19936 0
M  V30 11390 C 337.168 -3.49432 4.70418 0
M  V30 11391 N 337.118 -3.31776 3.22945 0
M  V30 11392 H 339.957 -6.54213 5.71376 0
M  V30 11393 H 340.229 -5.30492 4.44033 0
M  V30 11394 H 339.361 -4.55889 6.76652 0
M  V30 11395 P 335.398 -4.23843 7.83734 0
M  V30 11396 O 335.178 -4.19407 9.29784 0
M  V30 11397 O 334.608 -5.24426 7.09156 0
M  V30 11398 O 335.148 -2.7935 7.20758 0
M  V30 11399 C 336.088 -1.7299 7.50419 0
M  V30 11400 C 335.358 -0.406376 7.57911 0
M  V30 11401 O 335.148 0.0897726 6.21935 0
M  V30 11402 C 333.958 -0.447224 8.1878 0
M  V30 11403 O 333.568 0.825065 8.71101 0
M  V30 11404 C 333.078 -0.783801 6.99623 0
M  V30 11405 C 333.788 -0.0619192 5.85967 0
M  V30 11406 N 333.738 -0.7859 4.56281 0
M  V30 11407 H 336.577 -1.93423 8.4679 0
M  V30 11408 H 336.849 -1.68181 6.71046 0
M  V30 11409 H 335.981 0.289041 8.15388 0
M  V30 11410 P 332.018 1.17771 8.83182 0
M  V30 11411 O 331.798 2.07206 9.98732 0
M  V30 11412 O 331.228 -0.0743816 8.81969 0
M  V30 11413 O 331.768 1.97652 7.47304 0
M  V30 11414 C 332.708 3.01133 7.08783 0
M  V30 11415 C 331.978 4.12613 6.37049 0
M  V30 11416 O 331.768 3.72827 4.97879 0
M  V30 11417 C 330.578 4.45085 6.88694 0
M  V30 11418 O 330.188 5.7877 6.5624 0
M  V30 11419 C 329.698 3.47817 6.12078 0
M  V30 11420 C 330.408 3.39414 4.77697 0
M  V30 11421 N 330.358 2.04615 4.15333 0
M  V30 11422 H 333.197 3.41248 7.98759 0
M  V30 11423 H 333.469 2.5837 6.41742 0
M  V30 11424 H 332.601 5.02657 6.42673 0
M  V30 11425 P 328.638 6.144 6.45285 0
M  V30 11426 O 328.418 7.54673 6.86199 0
M  V30 11427 O 327.848 5.12391 7.179 0
M  V30 11428 O 328.388 5.99158 4.88404 0
M  V30 11429 C 329.328 6.60234 3.96415 0
M  V30 11430 C 328.598 7.08259 2.72856 0
M  V30 11431 O 328.388 5.9427 1.83651 0
M  V30 11432 C 327.198 7.64886 2.9555 0
M  V30 11433 O 326.808 8.53963 1.90717 0
M  V30 11434 C 326.318 6.4116 2.90739 0
M  V30 11435 C 327.028 5.55375 1.86963 0
M  V30 11436 N 326.978 4.09448 2.16152 0
M  V30 11437 H 329.817 7.45574 4.45629 0
M  V30 11438 H 330.089 5.85864 3.679 0
M  V30 11439 H 329.221 7.84412 2.24479 0
M  V30 11440 H 326.566 5.73457 0.888562 0
M  V30 11441 H 326.286 5.90877 3.88583 0
M  V30 11442 H 325.295 6.6596 2.58858 0
M  V30 11443 H 327.129 8.16339 3.92049 0
M  V30 11444 P 325.258 8.7635 1.60911 0
M  V30 11445 O 325.038 10.1388 1.11561 0
M  V30 11446 O 324.468 8.36503 2.79617 0
M  V30 11447 O 325.008 7.71806 0.42951 0
M  V30 11448 C 325.948 7.67148 -0.673689 0
M  V30 11449 C 325.218 7.33374 -1.95559 0
M  V30 11450 O 325.008 5.88721 -2.00726 0
M  V30 11451 C 323.818 7.92526 -2.10483 0
M  V30 11452 O 323.428 8.02971 -3.47653 0
M  V30 11453 C 322.938 6.89602 -1.41652 0
M  V30 11454 C 323.648 5.59201 -1.75185 0
M  V30 11455 N 323.598 4.58235 -0.662552 0
M  V30 11456 H 326.437 8.65116 -0.777161 0
M  V30 11457 H 326.709 6.90173 -0.474152 0
M  V30 11458 H 325.841 7.66548 -2.79458 0
M  V30 11459 P 321.878 8.03563 -3.84925 0
M  V30 11460 O 321.658 8.85821 -5.0569 0
M  V30 11461 O 321.088 8.41101 -2.65469 0
M  V30 11462 O 321.628 6.4965 -4.18908 0
M  V30 11463 C 322.568 5.81037 -5.05421 0
M  V30 11464 C 321.838 4.78366 -5.89277 0
M  V30 11465 O 321.628 3.58302 -5.08433 0
M  V30 11466 C 320.438 5.17448 -6.36119 0
M  V30 11467 O 320.048 4.45271 -7.53232 0
M  V30 11468 C 319.558 4.74639 -5.19936 0
M  V30 11469 C 320.268 3.49432 -4.70418 0
M  V30 11470 N 320.218 3.31776 -3.22945 0
M  V30 11471 H 323.057 6.54213 -5.71376 0
M  V30 11472 H 323.329 5.30492 -4.44033 0
M  V30 11473 H 322.461 4.55889 -6.76652 0
M  V30 11474 P 318.498 4.23843 -7.83734 0
M  V30 11475 O 318.278 4.19407 -9.29784 0
M  V30 11476 O 317.708 5.24426 -7.09156 0
M  V30 11477 O 318.248 2.7935 -7.20758 0
M  V30 11478 C 319.188 1.7299 -7.50419 0
M  V30 11479 C 318.458 0.406376 -7.57911 0
M  V30 11480 O 318.248 -0.0897726 -6.21935 0
M  V30 11481 C 317.058 0.447224 -8.1878 0
M  V30 11482 O 316.668 -0.825065 -8.71101 0
M  V30 11483 C 316.178 0.783801 -6.99623 0
M  V30 11484 C 316.888 0.0619192 -5.85967 0
M  V30 11485 N 316.838 0.7859 -4.56281 0
M  V30 11486 H 319.677 1.93423 -8.4679 0
M  V30 11487 H 319.949 1.68181 -6.71046 0
M  V30 11488 H 319.081 -0.289041 -8.15388 0
M  V30 11489 P 315.118 -1.17771 -8.83182 0
M  V30 11490 O 314.898 -2.07206 -9.98732 0
M  V30 11491 O 314.328 0.0743816 -8.81969 0
M  V30 11492 O 314.868 -1.97652 -7.47304 0
M  V30 11493 C 315.808 -3.01133 -7.08783 0
M  V30 11494 C 315.078 -4.12613 -6.37049 0
M  V30 11495 O 314.868 -3.72827 -4.97879 0
M  V30 11496 C 313.678 -4.45085 -6.88694 0
M  V30 11497 O 313.288 -5.7877 -6.5624 0
M  V30 11498 C 312.798 -3.47817 -6.12078 0
M  V30 11499 C 313.508 -3.39414 -4.77697 0
M  V30 11500 N 313.458 -2.04615 -4.15333 0
M  V30 11501 H 316.297 -3.41248 -7.98759 0
M  V30 11502 H 316.569 -2.5837 -6.41742 0
M  V30 11503 H 315.701 -5.02657 -6.42673 0
M  V30 11504 P 311.738 -6.144 -6.45285 0
M  V30 11505 O 311.518 -7.54673 -6.86199 0
M  V30 11506 O 310.948 -5.12391 -7.179 0
M  V30 11507 O 311.488 -5.99158 -4.88404 0
M  V30 11508 C 312.428 -6.60234 -3.96415 0
M  V30 11509 C 311.698 -7.08259 -2.72856 0
M  V30 11510 O 311.488 -5.9427 -1.83651 0
M  V30 11511 C 310.298 -7.64886 -2.9555 0
M  V30 11512 O 309.908 -8.53963 -1.90717 0
M  V30 11513 C 309.418 -6.4116 -2.90739 0
M  V30 11514 C 310.128 -5.55375 -1.86963 0
M  V30 11515 N 310.078 -4.09448 -2.16152 0
M  V30 11516 H 312.917 -7.45574 -4.45629 0
M  V30 11517 H 313.189 -5.85864 -3.679 0
M  V30 11518 H 312.321 -7.84412 -2.24479 0
M  V30 11519 H 309.666 -5.73457 -0.888562 0
M  V30 11520 H 309.386 -5.90877 -3.88583 0
M  V30 11521 H 308.395 -6.6596 -2.58858 0
M  V30 11522 H 310.229 -8.16339 -3.92049 0
M  V30 11523 P 308.358 -8.7635 -1.60911 0
M  V30 11524 O 308.138 -10.1388 -1.11561 0
M  V30 11525 O 307.568 -8.36503 -2.79617 0
M  V30 11526 O 308.108 -7.71906 -0.429565 0
M  V30 11527 C 309.048 -7.67148 0.673689 0
M  V30 11528 C 308.318 -7.33666 1.94851 0
M  V30 11529 O 308.108 -5.88816 2.00759 0
M  V30 11530 C 306.918 -7.92526 2.10483 0
M  V30 11531 O 306.528 -8.03063 3.47693 0
M  V30 11532 C 306.038 -6.89602 1.41652 0
M  V30 11533 C 306.748 -5.59201 1.75185 0
M  V30 11534 N 306.698 -4.58235 0.662552 0
M  V30 11535 C 306.548 -3.24451 1.01643 0
M  V30 11536 O 306.458 -2.94958 2.21722 0
M  V30 11537 N 306.498 -2.30408 -0.165238 0
M  V30 11538 C 306.598 -2.66048 -1.25118 0
M  V30 11539 N 306.548 -1.70787 -2.16813 0
M  V30 11540 C 306.748 -4.02732 -1.64413 0
M  V30 11541 C 306.798 -4.9488 -0.63991 0
M  V30 11542 H 309.538 -8.65017 0.777072 0
M  V30 11543 H 309.808 -6.90173 0.474152 0
M  V30 11544 H 308.941 -7.66642 2.79492 0
M  V30 11545 H 306.286 -5.16254 2.65229 0
M  V30 11546 H 306.006 -7.06532 0.329431 0
M  V30 11547 H 305.015 -6.91023 1.82047 0
M  V30 11548 H 306.849 -8.90873 1.62657 0
M  V30 11549 H 306.921 -6.00104 -0.892197 0
M  V30 11550 H 306.819 -4.31733 -2.69229 0
M  V30 11551 H 306.431 -0.724835 -1.8844 0
M  V30 11552 H 306.627 -1.94716 -3.16734 0
M  V30 11553 P 304.978 -8.03563 3.84925 0
M  V30 11554 O 304.758 -8.85821 5.0569 0
M  V30 11555 O 304.188 -8.41101 2.65469 0
M  V30 11556 O 304.728 -6.4965 4.18908 0
M  V30 11557 C 305.668 -5.81037 5.05421 0
M  V30 11558 C 304.938 -4.78366 5.89277 0
M  V30 11559 O 304.728 -3.58302 5.08433 0
M  V30 11560 C 303.538 -5.17448 6.36119 0
M  V30 11561 O 303.148 -4.45271 7.53232 0
M  V30 11562 C 302.658 -4.74639 5.19936 0
M  V30 11563 C 303.368 -3.49432 4.70418 0
M  V30 11564 N 303.318 -3.31776 3.22945 0
M  V30 11565 H 306.157 -6.54213 5.71376 0
M  V30 11566 H 306.429 -5.30492 4.44033 0
M  V30 11567 H 305.561 -4.55889 6.76652 0
M  V30 11568 P 301.598 -4.23843 7.83734 0
M  V30 11569 O 301.378 -4.19407 9.29784 0
M  V30 11570 O 300.808 -5.24426 7.09156 0
M  V30 11571 O 301.348 -2.7935 7.20758 0
M  V30 11572 C 302.288 -1.7299 7.50419 0
M  V30 11573 C 301.558 -0.406376 7.57911 0
M  V30 11574 O 301.348 0.0897726 6.21935 0
M  V30 11575 C 300.158 -0.447224 8.1878 0
M  V30 11576 O 299.768 0.825065 8.71101 0
M  V30 11577 C 299.278 -0.783801 6.99623 0
M  V30 11578 C 299.988 -0.0619192 5.85967 0
M  V30 11579 N 299.938 -0.7859 4.56281 0
M  V30 11580 H 302.777 -1.93423 8.4679 0
M  V30 11581 H 303.049 -1.68181 6.71046 0
M  V30 11582 H 302.181 0.289041 8.15388 0
M  V30 11583 P 298.218 1.17771 8.83182 0
M  V30 11584 O 297.998 2.07206 9.98732 0
M  V30 11585 O 297.428 -0.0743816 8.81969 0
M  V30 11586 O 297.968 1.97652 7.47304 0
M  V30 11587 C 298.908 3.01133 7.08783 0
M  V30 11588 C 298.178 4.12613 6.37049 0
M  V30 11589 O 297.968 3.72827 4.97879 0
M  V30 11590 C 296.778 4.45085 6.88694 0
M  V30 11591 O 296.388 5.7877 6.5624 0
M  V30 11592 C 295.898 3.47817 6.12078 0
M  V30 11593 C 296.608 3.39414 4.77697 0
M  V30 11594 N 296.558 2.04615 4.15333 0
M  V30 11595 H 299.397 3.41248 7.98759 0
M  V30 11596 H 299.669 2.5837 6.41742 0
M  V30 11597 H 298.801 5.02657 6.42673 0
M  V30 11598 P 294.838 6.144 6.45285 0
M  V30 11599 O 294.618 7.54673 6.86199 0
M  V30 11600 O 294.048 5.12391 7.179 0
M  V30 11601 O 294.588 5.99158 4.88404 0
M  V30 11602 C 295.528 6.60234 3.96415 0
M  V30 11603 C 294.798 7.08259 2.72856 0
M  V30 11604 O 294.588 5.9427 1.83651 0
M  V30 11605 C 293.398 7.64886 2.9555 0
M  V30 11606 O 293.008 8.53963 1.90717 0
M  V30 11607 C 292.518 6.4116 2.90739 0
M  V30 11608 C 293.228 5.55375 1.86963 0
M  V30 11609 N 293.178 4.09448 2.16152 0
M  V30 11610 H 296.017 7.45574 4.45629 0
M  V30 11611 H 296.289 5.85864 3.679 0
M  V30 11612 H 295.421 7.84412 2.24479 0
M  V30 11613 H 292.766 5.73457 0.888562 0
M  V30 11614 H 292.486 5.90877 3.88583 0
M  V30 11615 H 291.495 6.6596 2.58858 0
M  V30 11616 H 293.329 8.16339 3.92049 0
M  V30 11617 P 291.458 8.7635 1.60911 0
M  V30 11618 O 291.238 10.1388 1.11561 0
M  V30 11619 O 290.668 8.36503 2.79617 0
M  V30 11620 O 291.208 7.71806 0.42951 0
M  V30 11621 C 292.148 7.67148 -0.673689 0
M  V30 11622 C 291.418 7.33374 -1.95559 0
M  V30 11623 O 291.208 5.88721 -2.00726 0
M  V30 11624 C 290.018 7.92526 -2.10483 0
M  V30 11625 O 289.628 8.02971 -3.47653 0
M  V30 11626 C 289.138 6.89602 -1.41652 0
M  V30 11627 C 289.848 5.59201 -1.75185 0
M  V30 11628 N 289.798 4.58235 -0.662552 0
M  V30 11629 H 292.637 8.65116 -0.777161 0
M  V30 11630 H 292.909 6.90173 -0.474152 0
M  V30 11631 H 292.041 7.66548 -2.79458 0
M  V30 11632 P 288.078 8.03563 -3.84925 0
M  V30 11633 O 287.858 8.85821 -5.0569 0
M  V30 11634 O 287.288 8.41101 -2.65469 0
M  V30 11635 O 287.828 6.4965 -4.18908 0
M  V30 11636 C 288.768 5.80886 -5.05289 0
M  V30 11637 C 288.038 4.78366 -5.89277 0
M  V30 11638 O 287.828 3.58302 -5.08433 0
M  V30 11639 C 286.638 5.16748 -6.36559 0
M  V30 11640 O 286.248 4.45271 -7.53232 0
M  V30 11641 C 285.758 4.74572 -5.19863 0
M  V30 11642 C 286.468 3.49373 -4.70338 0
M  V30 11643 N 286.418 3.31704 -3.22876 0
M  V30 11644 C 286.268 2.03326 -2.74871 0
M  V30 11645 O 286.178 1.06486 -3.48076 0
M  V30 11646 N 286.228 1.91838 -1.37456 0
M  V30 11647 C 286.318 2.94295 -0.462035 0
M  V30 11648 O 286.268 2.71763 0.752928 0
M  V30 11649 C 286.468 4.25064 -1.05249 0
M  V30 11650 C 286.578 5.39815 -0.095697 0
M  V30 11651 C 286.518 4.40214 -2.39192 0
M  V30 11652 H 289.259 6.54063 -5.71245 0
M  V30 11653 H 289.528 5.30339 -4.43905 0
M  V30 11654 H 288.661 4.55889 -6.76652 0
M  V30 11655 H 286.006 2.6167 -5.17842 0
M  V30 11656 H 285.727 5.52155 -4.41878 0
M  V30 11657 H 284.735 4.51918 -5.53297 0
M  V30 11658 H 286.569 6.25055 -6.55162 0
M  V30 11659 H 286.64 5.39798 -2.81523 0
M  V30 11660 H 285.61 5.91593 -0.0279582 0
M  V30 11661 H 287.347 6.10038 -0.450573 0
M  V30 11662 H 286.859 5.02007 0.89937 0
M  V30 11663 H 286.123 0.995326 -1.00435 0
M  V30 11664 P 284.698 4.23843 -7.83734 0
M  V30 11665 O 284.478 4.19407 -9.29784 0
M  V30 11666 O 283.908 5.24426 -7.09156 0
M  V30 11667 O 284.448 2.7935 -7.20758 0
M  V30 11668 C 285.388 1.7299 -7.50419 0
M  V30 11669 C 284.658 0.406376 -7.57911 0
M  V30 11670 O 284.448 -0.0897726 -6.21935 0
M  V30 11671 C 283.258 0.447224 -8.1878 0
M  V30 11672 O 282.868 -0.825065 -8.71101 0
M  V30 11673 C 282.378 0.783801 -6.99623 0
M  V30 11674 C 283.088 0.0619192 -5.85967 0
M  V30 11675 N 283.038 0.7859 -4.56281 0
M  V30 11676 H 285.877 1.93423 -8.4679 0
M  V30 11677 H 286.149 1.68181 -6.71046 0
M  V30 11678 H 285.281 -0.289041 -8.15388 0
M  V30 11679 P 281.318 -1.17771 -8.83182 0
M  V30 11680 O 281.098 -2.07206 -9.98732 0
M  V30 11681 O 280.528 0.0743816 -8.81969 0
M  V30 11682 O 281.068 -1.97652 -7.47304 0
M  V30 11683 C 282.008 -3.01133 -7.08783 0
M  V30 11684 C 281.278 -4.12613 -6.37049 0
M  V30 11685 O 281.068 -3.72827 -4.97879 0
M  V30 11686 C 279.878 -4.45085 -6.88694 0
M  V30 11687 O 279.488 -5.7877 -6.5624 0
M  V30 11688 C 278.998 -3.47817 -6.12078 0
M  V30 11689 C 279.708 -3.39414 -4.77697 0
M  V30 11690 N 279.658 -2.04615 -4.15333 0
M  V30 11691 H 282.497 -3.41248 -7.98759 0
M  V30 11692 H 282.769 -2.5837 -6.41742 0
M  V30 11693 H 281.901 -5.02657 -6.42673 0
M  V30 11694 P 277.938 -6.144 -6.45285 0
M  V30 11695 O 277.718 -7.54673 -6.86199 0
M  V30 11696 O 277.148 -5.12391 -7.179 0
M  V30 11697 O 277.688 -5.99158 -4.88404 0
M  V30 11698 C 278.628 -6.60062 -3.96313 0
M  V30 11699 C 277.898 -7.08259 -2.72856 0
M  V30 11700 O 277.688 -5.9427 -1.83651 0
M  V30 11701 C 276.498 -7.65087 -2.94749 0
M  V30 11702 O 276.108 -8.53963 -1.90717 0
M  V30 11703 C 275.618 -6.41069 -2.90698 0
M  V30 11704 C 276.328 -5.5528 -1.86931 0
M  V30 11705 N 276.278 -4.09575 -2.15696 0
M  V30 11706 C 276.128 -3.24249 -1.08435 0
M  V30 11707 O 276.038 -3.63946 0.0628747 0
M  V30 11708 N 276.088 -1.90009 -1.39973 0
M  V30 11709 C 276.178 -1.34884 -2.65614 0
M  V30 11710 O 276.128 -0.123716 -2.81728 0
M  V30 11711 C 276.328 -2.3145 -3.71736 0
M  V30 11712 C 276.438 -1.75913 -5.10438 0
M  V30 11713 C 276.378 -3.63518 -3.44754 0
M  V30 11714 H 279.119 -7.45402 -4.45526 0
M  V30 11715 H 279.388 -5.86062 -3.67208 0
M  V30 11716 H 278.521 -7.84412 -2.24479 0
M  V30 11717 H 275.866 -5.73358 -0.888409 0
M  V30 11718 H 275.587 -5.90877 -3.88583 0
M  V30 11719 H 274.595 -6.65867 -2.58821 0
M  V30 11720 H 276.429 -8.16248 -3.92006 0
M  V30 11721 H 276.5 -4.34551 -4.26383 0
M  V30 11722 H 275.47 -1.85471 -5.61775 0
M  V30 11723 H 277.207 -2.31364 -5.66257 0
M  V30 11724 H 276.719 -0.695936 -5.05229 0
M  V30 11725 H 275.983 -1.26277 -0.63625 0
M  V30 11726 P 274.558 -8.7635 -1.60911 0
M  V30 11727 O 274.338 -10.1388 -1.11561 0
M  V30 11728 O 273.768 -8.36503 -2.79617 0
M  V30 11729 O 274.308 -7.71806 -0.42951 0
M  V30 11730 C 275.248 -7.66948 0.673514 0
M  V30 11731 C 274.518 -7.33374 1.95559 0
M  V30 11732 O 274.308 -5.88721 2.00726 0
M  V30 11733 C 273.118 -7.92218 2.1125 0
M  V30 11734 O 272.728 -8.02971 3.47653 0
M  V30 11735 C 272.238 -6.89504 1.41631 0
M  V30 11736 C 272.948 -5.59106 1.75155 0
M  V30 11737 N 272.898 -4.58136 0.662409 0
M  V30 11738 C 272.748 -3.26059 1.02863 0
M  V30 11739 O 272.658 -2.90743 2.19009 0
M  V30 11740 N 272.708 -2.35995 -0.0155585 0
M  V30 11741 C 272.798 -2.65248 -1.35603 0
M  V30 11742 O 272.748 -1.75605 -2.20651 0
M  V30 11743 C 272.948 -4.05747 -1.64698 0
M  V30 11744 C 273.058 -4.42345 -3.09553 0
M  V30 11745 C 272.998 -4.96734 -0.652411 0
M  V30 11746 H 275.739 -8.64917 0.776982 0
M  V30 11747 H 276.008 -6.89974 0.474015 0
M  V30 11748 H 275.141 -7.66548 2.79458 0
M  V30 11749 H 272.486 -5.16076 2.65138 0
M  V30 11750 H 272.207 -7.06433 0.329384 0
M  V30 11751 H 271.215 -6.90829 1.81996 0
M  V30 11752 H 273.049 -8.90774 1.62639 0
M  V30 11753 H 273.12 -6.02181 -0.895285 0
M  V30 11754 H 272.09 -4.80252 -3.45468 0
M  V30 11755 H 273.827 -5.20015 -3.22119 0
M  V30 11756 H 273.339 -3.53269 -3.67833 0
M  V30 11757 H 272.603 -1.39558 0.227499 0
M  V30 11758 P 271.178 -8.03563 3.84925 0
M  V30 11759 O 270.958 -8.85821 5.0569 0
M  V30 11760 O 270.388 -8.41101 2.65469 0
M  V30 11761 O 270.928 -6.4965 4.18908 0
M  V30 11762 C 271.868 -5.81037 5.05421 0
M  V30 11763 C 271.138 -4.78366 5.89277 0
M  V30 11764 O 270.928 -3.58302 5.08433 0
M  V30 11765 C 269.738 -5.17448 6.36119 0
M  V30 11766 O 269.348 -4.45271 7.53232 0
M  V30 11767 C 268.858 -4.74639 5.19936 0
M  V30 11768 C 269.568 -3.49432 4.70418 0
M  V30 11769 N 269.518 -3.31776 3.22945 0
M  V30 11770 H 272.357 -6.54213 5.71376 0
M  V30 11771 H 272.629 -5.30492 4.44033 0
M  V30 11772 H 271.761 -4.55889 6.76652 0
M  V30 11773 P 267.798 -4.23843 7.83734 0
M  V30 11774 O 267.578 -4.19407 9.29784 0
M  V30 11775 O 267.008 -5.24426 7.09156 0
M  V30 11776 O 267.548 -2.7935 7.20758 0
M  V30 11777 C 268.488 -1.7299 7.50419 0
M  V30 11778 C 267.758 -0.406376 7.57911 0
M  V30 11779 O 267.548 0.0897726 6.21935 0
M  V30 11780 C 266.358 -0.447224 8.1878 0
M  V30 11781 O 265.968 0.825065 8.71101 0
M  V30 11782 C 265.478 -0.783801 6.99623 0
M  V30 11783 C 266.188 -0.0619192 5.85967 0
M  V30 11784 N 266.138 -0.790462 4.56202 0
M  V30 11785 H 268.977 -1.93423 8.4679 0
M  V30 11786 H 269.249 -1.68852 6.70877 0
M  V30 11787 H 268.381 0.289041 8.15388 0
M  V30 11788 H 265.726 0.927006 5.72848 0
M  V30 11789 H 265.446 -1.86973 6.82036 0
M  V30 11790 H 264.455 -0.403953 7.13357 0
M  V30 11791 H 266.289 -1.20599 8.97534 0
M  V30 11792 P 264.418 1.17771 8.83182 0
M  V30 11793 O 264.198 2.07206 9.98732 0
M  V30 11794 O 263.628 -0.0743816 8.81969 0
M  V30 11795 O 264.168 1.97678 7.474 0
M  V30 11796 C 265.108 3.01133 7.08783 0
M  V30 11797 C 264.378 4.1203 6.37546 0
M  V30 11798 O 264.168 3.72887 4.9796 0
M  V30 11799 C 262.978 4.45085 6.88694 0
M  V30 11800 O 262.588 5.78836 6.56315 0
M  V30 11801 C 262.098 3.47817 6.12078 0
M  V30 11802 C 262.808 3.39414 4.77697 0
M  V30 11803 N 262.758 2.04615 4.15333 0
M  V30 11804 C 262.608 1.96929 2.77162 0
M  V30 11805 O 262.518 3.02017 2.12006 0
M  V30 11806 N 262.558 0.55485 2.24237 0
M  V30 11807 C 262.658 -0.367808 2.9169 0
M  V30 11808 N 262.608 -1.53426 2.29427 0
M  V30 11809 C 262.808 -0.319148 4.33828 0
M  V30 11810 C 262.858 0.920672 4.90433 0
M  V30 11811 H 265.598 3.41209 7.98667 0
M  V30 11812 H 265.868 2.5837 6.41742 0
M  V30 11813 H 265.001 5.02718 6.42752 0
M  V30 11814 H 262.346 4.11779 4.09026 0
M  V30 11815 H 262.066 2.49661 6.61772 0
M  V30 11816 H 261.075 3.86674 6.00946 0
M  V30 11817 H 262.909 4.29991 7.97006 0
M  V30 11818 H 262.981 1.00589 5.98303 0
M  V30 11819 H 262.879 -1.22639 4.93799 0
M  V30 11820 H 262.491 -1.56819 1.27167 0
M  V30 11821 H 262.687 -2.41062 2.83063 0
M  V30 11822 P 261.038 6.144 6.45285 0
M  V30 11823 O 260.818 7.54673 6.86199 0
M  V30 11824 O 260.248 5.12391 7.179 0
M  V30 11825 O 260.788 5.99158 4.88404 0
M  V30 11826 C 261.728 6.60234 3.96415 0
M  V30 11827 C 260.998 7.08259 2.72856 0
M  V30 11828 O 260.788 5.9427 1.83651 0
M  V30 11829 C 259.598 7.64886 2.9555 0
M  V30 11830 O 259.208 8.53963 1.90717 0
M  V30 11831 C 258.718 6.4116 2.90739 0
M  V30 11832 C 259.428 5.55375 1.86963 0
M  V30 11833 N 259.378 4.09664 2.15742 0
M  V30 11834 H 262.217 7.45574 4.45629 0
M  V30 11835 H 262.489 5.86232 3.67314 0
M  V30 11836 H 261.621 7.84412 2.24479 0
M  V30 11837 P 257.658 8.7635 1.60911 0
M  V30 11838 O 257.438 10.1388 1.11561 0
M  V30 11839 O 256.868 8.36503 2.79617 0
M  V30 11840 O 257.408 7.71806 0.42951 0
M  V30 11841 C 258.348 7.67148 -0.673689 0
M  V30 11842 C 257.618 7.33374 -1.95559 0
M  V30 11843 O 257.408 5.88721 -2.00726 0
M  V30 11844 C 256.218 7.92526 -2.10483 0
M  V30 11845 O 255.828 8.02971 -3.47653 0
M  V30 11846 C 255.338 6.89602 -1.41652 0
M  V30 11847 C 256.048 5.59201 -1.75185 0
M  V30 11848 N 255.998 4.58301 -0.657969 0
M  V30 11849 H 258.837 8.65116 -0.777161 0
M  V30 11850 H 259.109 6.9022 -0.46725 0
M  V30 11851 H 258.241 7.66548 -2.79458 0
M  V30 11852 H 255.586 5.16165 -2.65183 0
M  V30 11853 H 255.306 7.06433 -0.329384 0
M  V30 11854 H 254.315 6.90926 -1.82021 0
M  V30 11855 H 256.149 8.90873 -1.62657 0
M  V30 11856 P 254.279 8.03563 -3.84925 0
M  V30 11857 O 254.059 8.85821 -5.0569 0
M  V30 11858 O 253.489 8.41101 -2.65469 0
M  V30 11859 O 254.029 6.4965 -4.18908 0
M  V30 11860 C 254.969 5.81037 -5.05421 0
M  V30 11861 C 254.239 4.78366 -5.89277 0
M  V30 11862 O 254.029 3.58302 -5.08433 0
M  V30 11863 C 252.839 5.17448 -6.36119 0
M  V30 11864 O 252.449 4.45271 -7.53232 0
M  V30 11865 C 251.959 4.74639 -5.19936 0
M  V30 11866 C 252.669 3.49432 -4.70418 0
M  V30 11867 N 252.619 3.31776 -3.22945 0
M  V30 11868 H 255.458 6.54213 -5.71376 0
M  V30 11869 H 255.73 5.30492 -4.44033 0
M  V30 11870 H 254.862 4.55889 -6.76652 0
M  V30 11871 P 250.899 4.23843 -7.83734 0
M  V30 11872 O 250.679 4.19407 -9.29784 0
M  V30 11873 O 250.109 5.24426 -7.09156 0
M  V30 11874 O 250.649 2.7935 -7.20758 0
M  V30 11875 C 251.589 1.7299 -7.50419 0
M  V30 11876 C 250.859 0.406376 -7.57911 0
M  V30 11877 O 250.649 -0.0897726 -6.21935 0
M  V30 11878 C 249.459 0.447224 -8.1878 0
M  V30 11879 O 249.069 -0.825065 -8.71101 0
M  V30 11880 C 248.579 0.783801 -6.99623 0
M  V30 11881 C 249.289 0.0619192 -5.85967 0
M  V30 11882 N 249.239 0.7859 -4.56281 0
M  V30 11883 H 252.078 1.93423 -8.4679 0
M  V30 11884 H 252.35 1.68181 -6.71046 0
M  V30 11885 H 251.482 -0.289041 -8.15388 0
M  V30 11886 P 247.519 -1.17771 -8.83182 0
M  V30 11887 O 247.299 -2.07206 -9.98732 0
M  V30 11888 O 246.729 0.0743816 -8.81969 0
M  V30 11889 O 247.269 -1.97652 -7.47304 0
M  V30 11890 C 248.209 -3.01055 -7.08599 0
M  V30 11891 C 247.479 -4.12613 -6.37049 0
M  V30 11892 O 247.269 -3.72827 -4.97879 0
M  V30 11893 C 246.079 -4.45719 -6.88164 0
M  V30 11894 O 245.689 -5.7877 -6.5624 0
M  V30 11895 C 245.199 -3.47768 -6.11991 0
M  V30 11896 C 245.909 -3.39356 -4.77615 0
M  V30 11897 N 245.859 -2.04571 -4.15244 0
M  V30 11898 C 245.709 -1.98587 -2.78314 0
M  V30 11899 O 245.619 -2.98134 -2.08835 0
M  V30 11900 N 245.669 -0.714467 -2.24925 0
M  V30 11901 C 245.759 0.470001 -2.94169 0
M  V30 11902 O 245.709 1.55587 -2.35195 0
M  V30 11903 C 245.909 0.312541 -4.36783 0
M  V30 11904 C 246.019 1.57711 -5.16352 0
M  V30 11905 C 245.959 -0.914512 -4.92583 0
M  V30 11906 H 248.7 -3.41169 -7.98575 0
M  V30 11907 H 248.969 -2.58295 -6.41556 0
M  V30 11908 H 248.102 -5.02657 -6.42673 0
M  V30 11909 H 245.447 -4.11637 -4.08885 0
M  V30 11910 H 245.168 -2.49626 -6.61679 0
M  V30 11911 H 244.176 -3.86566 -6.00778 0
M  V30 11912 H 246.01 -4.29943 -7.96918 0
M  V30 11913 H 246.081 -1.00937 -6.00374 0
M  V30 11914 H 245.051 1.80153 -5.63503 0
M  V30 11915 H 246.788 1.4566 -5.94104 0
M  V30 11916 H 246.3 2.40664 -4.49645 0
M  V30 11917 H 245.564 -0.647622 -1.25697 0
M  V30 11918 P 244.139 -6.144 -6.45285 0
M  V30 11919 O 243.919 -7.54673 -6.86199 0
M  V30 11920 O 243.349 -5.12391 -7.179 0
M  V30 11921 O 243.889 -5.99158 -4.88404 0
M  V30 11922 C 244.829 -6.60234 -3.96415 0
M  V30 11923 C 244.099 -7.08259 -2.72856 0
M  V30 11924 O 243.889 -5.9427 -1.83651 0
M  V30 11925 C 242.699 -7.64886 -2.9555 0
M  V30 11926 O 242.309 -8.53963 -1.90717 0
M  V30 11927 C 241.819 -6.4116 -2.90739 0
M  V30 11928 C 242.529 -5.55375 -1.86963 0
M  V30 11929 N 242.479 -4.09664 -2.15742 0
M  V30 11930 H 245.318 -7.45574 -4.45629 0
M  V30 11931 H 245.59 -5.86232 -3.67314 0
M  V30 11932 H 244.722 -7.84412 -2.24479 0
M  V30 11933 P 240.759 -8.7635 -1.60911 0
M  V30 11934 O 240.539 -10.1388 -1.11561 0
M  V30 11935 O 239.969 -8.36503 -2.79617 0
M  V30 11936 O 240.509 -7.71906 -0.429565 0
M  V30 11937 C 241.449 -7.67148 0.673689 0
M  V30 11938 C 240.719 -7.33666 1.94851 0
M  V30 11939 O 240.509 -5.88816 2.00759 0
M  V30 11940 C 239.319 -7.92526 2.10483 0
M  V30 11941 O 238.929 -8.03063 3.47693 0
M  V30 11942 C 238.439 -6.89602 1.41652 0
M  V30 11943 C 239.149 -5.59201 1.75185 0
M  V30 11944 N 239.099 -4.58235 0.662552 0
M  V30 11945 C 238.949 -3.24451 1.01643 0
M  V30 11946 O 238.859 -2.94958 2.21722 0
M  V30 11947 N 238.899 -2.30408 -0.165238 0
M  V30 11948 C 238.999 -2.66048 -1.25118 0
M  V30 11949 N 238.949 -1.70787 -2.16813 0
M  V30 11950 C 239.149 -4.02732 -1.64413 0
M  V30 11951 C 239.199 -4.9488 -0.63991 0
M  V30 11952 H 241.939 -8.65017 0.777072 0
M  V30 11953 H 242.209 -6.90173 0.474152 0
M  V30 11954 H 241.342 -7.66642 2.79492 0
M  V30 11955 H 238.687 -5.16254 2.65229 0
M  V30 11956 H 238.407 -7.06532 0.329431 0
M  V30 11957 H 237.416 -6.91023 1.82047 0
M  V30 11958 H 239.25 -8.90873 1.62657 0
M  V30 11959 H 239.322 -6.00104 -0.892197 0
M  V30 11960 H 239.22 -4.31733 -2.69229 0
M  V30 11961 H 238.832 -0.724835 -1.8844 0
M  V30 11962 H 239.028 -1.94716 -3.16734 0
M  V30 11963 P 237.379 -8.03563 3.84925 0
M  V30 11964 O 237.159 -8.85821 5.0569 0
M  V30 11965 O 236.589 -8.41101 2.65469 0
M  V30 11966 O 237.129 -6.4965 4.18908 0
M  V30 11967 C 238.069 -5.81037 5.05421 0
M  V30 11968 C 237.339 -4.78366 5.89277 0
M  V30 11969 O 237.129 -3.58302 5.08433 0
M  V30 11970 C 235.939 -5.17448 6.36119 0
M  V30 11971 O 235.549 -4.45271 7.53232 0
M  V30 11972 C 235.059 -4.74639 5.19936 0
M  V30 11973 C 235.769 -3.49432 4.70418 0
M  V30 11974 N 235.719 -3.32099 3.22613 0
M  V30 11975 H 238.558 -6.54213 5.71376 0
M  V30 11976 H 238.83 -5.30936 4.43503 0
M  V30 11977 H 237.962 -4.55889 6.76652 0
M  V30 11978 H 235.307 -2.61715 5.17932 0
M  V30 11979 H 235.027 -5.52155 4.41878 0
M  V30 11980 H 234.036 -4.51981 5.53374 0
M  V30 11981 H 235.87 -6.25124 6.55234 0
M  V30 11982 P 233.999 -4.23843 7.83734 0
M  V30 11983 O 233.779 -4.19407 9.29784 0
M  V30 11984 O 233.209 -5.24426 7.09156 0
M  V30 11985 O 233.749 -2.7935 7.20758 0
M  V30 11986 C 234.689 -1.7299 7.50419 0
M  V30 11987 C 233.959 -0.406376 7.57911 0
M  V30 11988 O 233.749 0.0897726 6.21935 0
M  V30 11989 C 232.559 -0.447224 8.1878 0
M  V30 11990 O 232.169 0.825065 8.71101 0
M  V30 11991 C 231.679 -0.783801 6.99623 0
M  V30 11992 C 232.389 -0.0619192 5.85967 0
M  V30 11993 N 232.339 -0.790462 4.56202 0
M  V30 11994 C 232.419 -2.13895 4.34171 0
M  V30 11995 N 232.349 -2.46449 3.08687 0
M  V30 11996 C 232.199 -1.2525 2.43697 0
M  V30 11997 C 232.069 -0.914535 1.07318 0
M  V30 11998 N 232.059 -1.80782 0.0887348 0
M  V30 11999 N 231.949 0.386745 0.768133 0
M  V30 12000 C 231.959 1.28096 1.75159 0
M  V30 12001 N 232.079 1.09708 3.04861 0
M  V30 12002 C 232.199 -0.214857 3.32306 0
M  V30 12003 H 235.178 -1.93423 8.4679 0
M  V30 12004 H 235.45 -1.68852 6.70877 0
M  V30 12005 H 234.582 0.289041 8.15388 0
M  V30 12006 H 231.927 0.927006 5.72848 0
M  V30 12007 H 231.647 -1.86973 6.82036 0
M  V30 12008 H 230.656 -0.403953 7.13357 0
M  V30 12009 H 232.49 -1.20599 8.97534 0
M  V30 12010 H 232.531 -2.86846 5.14318 0
M  V30 12011 H 232.15 -2.81082 0.302037 0
M  V30 12012 H 231.961 -1.49688 -0.889064 0
M  V30 12013 H 231.853 2.31317 1.43855 0
M  V30 12014 P 230.619 1.17771 8.83182 0
M  V30 12015 O 230.399 2.07206 9.98732 0
M  V30 12016 O 229.829 -0.0743816 8.81969 0
M  V30 12017 O 230.369 1.97652 7.47304 0
M  V30 12018 C 231.309 3.01133 7.08783 0
M  V30 12019 C 230.579 4.12613 6.37049 0
M  V30 12020 O 230.369 3.72827 4.97879 0
M  V30 12021 C 229.179 4.45085 6.88694 0
M  V30 12022 O 228.789 5.7877 6.5624 0
M  V30 12023 C 228.299 3.47817 6.12078 0
M  V30 12024 C 229.009 3.39414 4.77697 0
M  V30 12025 N 228.959 2.04615 4.15333 0
M  V30 12026 H 231.798 3.41248 7.98759 0
M  V30 12027 H 232.07 2.5837 6.41742 0
M  V30 12028 H 231.202 5.02657 6.42673 0
M  V30 12029 P 227.239 6.144 6.45285 0
M  V30 12030 O 227.019 7.54673 6.86199 0
M  V30 12031 O 226.449 5.12391 7.179 0
M  V30 12032 O 226.989 5.99158 4.88404 0
M  V30 12033 C 227.929 6.60062 3.96313 0
M  V30 12034 C 227.199 7.08259 2.72856 0
M  V30 12035 O 226.989 5.9427 1.83651 0
M  V30 12036 C 225.799 7.65087 2.94749 0
M  V30 12037 O 225.409 8.53963 1.90717 0
M  V30 12038 C 224.919 6.41069 2.90698 0
M  V30 12039 C 225.629 5.5528 1.86931 0
M  V30 12040 N 225.579 4.09575 2.15696 0
M  V30 12041 C 225.429 3.24249 1.08435 0
M  V30 12042 O 225.339 3.63946 -0.0628747 0
M  V30 12043 N 225.389 1.90009 1.39973 0
M  V30 12044 C 225.479 1.34884 2.65614 0
M  V30 12045 C 225.629 2.3145 3.71736 0
M  V30 12046 C 225.679 3.63518 3.44754 0
M  V30 12047 H 228.42 7.45402 4.45526 0
M  V30 12048 H 228.689 5.86062 3.67208 0
M  V30 12049 H 227.822 7.84412 2.24479 0
M  V30 12050 H 225.167 5.73358 0.888409 0
M  V30 12051 H 224.888 5.90877 3.88583 0
M  V30 12052 H 223.896 6.65867 2.58821 0
M  V30 12053 H 225.73 8.16248 3.92006 0
M  V30 12054 H 225.801 4.34551 4.26383 0
M  V30 12055 P 223.859 8.7635 1.60911 0
M  V30 12056 O 223.639 10.1388 1.11561 0
M  V30 12057 O 223.069 8.36503 2.79617 0
M  V30 12058 O 223.609 7.71806 0.42951 0
M  V30 12059 C 224.549 7.67148 -0.673689 0
M  V30 12060 C 223.819 7.33374 -1.95559 0
M  V30 12061 O 223.609 5.88721 -2.00726 0
M  V30 12062 C 222.419 7.92526 -2.10483 0
M  V30 12063 O 222.029 8.02971 -3.47653 0
M  V30 12064 C 221.539 6.89602 -1.41652 0
M  V30 12065 C 222.249 5.59201 -1.75185 0
M  V30 12066 N 222.199 4.58235 -0.662552 0
M  V30 12067 H 225.038 8.65116 -0.777161 0
M  V30 12068 H 225.31 6.90173 -0.474152 0
M  V30 12069 H 224.442 7.66548 -2.79458 0
M  V30 12070 P 220.479 8.03563 -3.84925 0
M  V30 12071 O 220.259 8.85821 -5.0569 0
M  V30 12072 O 219.689 8.41101 -2.65469 0
M  V30 12073 O 220.229 6.4965 -4.18908 0
M  V30 12074 C 221.169 5.81037 -5.05421 0
M  V30 12075 C 220.439 4.78366 -5.89277 0
M  V30 12076 O 220.229 3.58302 -5.08433 0
M  V30 12077 C 219.039 5.17448 -6.36119 0
M  V30 12078 O 218.649 4.45271 -7.53232 0
M  V30 12079 C 218.159 4.74639 -5.19936 0
M  V30 12080 C 218.869 3.49432 -4.70418 0
M  V30 12081 N 218.819 3.31776 -3.22945 0
M  V30 12082 H 221.658 6.54213 -5.71376 0
M  V30 12083 H 221.93 5.30492 -4.44033 0
M  V30 12084 H 221.062 4.55889 -6.76652 0
M  V30 12085 P 217.099 4.23843 -7.83734 0
M  V30 12086 O 216.879 4.19407 -9.29784 0
M  V30 12087 O 216.309 5.24426 -7.09156 0
M  V30 12088 O 216.849 2.7935 -7.20758 0
M  V30 12089 C 217.789 1.7299 -7.50419 0
M  V30 12090 C 217.059 0.406376 -7.57911 0
M  V30 12091 O 216.849 -0.0897726 -6.21935 0
M  V30 12092 C 215.659 0.447224 -8.1878 0
M  V30 12093 O 215.269 -0.825065 -8.71101 0
M  V30 12094 C 214.779 0.783801 -6.99623 0
M  V30 12095 C 215.489 0.0619192 -5.85967 0
M  V30 12096 N 215.439 0.7859 -4.56281 0
M  V30 12097 H 218.278 1.93423 -8.4679 0
M  V30 12098 H 218.55 1.68181 -6.71046 0
M  V30 12099 H 217.682 -0.289041 -8.15388 0
M  V30 12100 P 213.719 -1.17771 -8.83182 0
M  V30 12101 O 213.499 -2.07206 -9.98732 0
M  V30 12102 O 212.929 0.0743816 -8.81969 0
M  V30 12103 O 213.469 -1.97678 -7.474 0
M  V30 12104 C 214.409 -3.01133 -7.08783 0
M  V30 12105 C 213.679 -4.1203 -6.37546 0
M  V30 12106 O 213.469 -3.72887 -4.9796 0
M  V30 12107 C 212.279 -4.45085 -6.88694 0
M  V30 12108 O 211.889 -5.78836 -6.56315 0
M  V30 12109 C 211.399 -3.47817 -6.12078 0
M  V30 12110 C 212.109 -3.39414 -4.77697 0
M  V30 12111 N 212.059 -2.04615 -4.15333 0
M  V30 12112 C 211.909 -1.96929 -2.77162 0
M  V30 12113 O 211.819 -3.02017 -2.12006 0
M  V30 12114 N 211.859 -0.55485 -2.24237 0
M  V30 12115 C 211.959 0.367808 -2.9169 0
M  V30 12116 N 211.909 1.53426 -2.29427 0
M  V30 12117 C 212.109 0.319148 -4.33828 0
M  V30 12118 C 212.159 -0.920672 -4.90433 0
M  V30 12119 H 214.899 -3.41209 -7.98667 0
M  V30 12120 H 215.169 -2.5837 -6.41742 0
M  V30 12121 H 214.302 -5.02718 -6.42752 0
M  V30 12122 H 211.647 -4.11779 -4.09026 0
M  V30 12123 H 211.367 -2.49661 -6.61772 0
M  V30 12124 H 210.376 -3.86674 -6.00946 0
M  V30 12125 H 212.21 -4.29991 -7.97006 0
M  V30 12126 H 212.282 -1.00589 -5.98303 0
M  V30 12127 H 212.18 1.22639 -4.93799 0
M  V30 12128 H 211.792 1.56819 -1.27167 0
M  V30 12129 H 211.988 2.41062 -2.83063 0
M  V30 12130 P 210.339 -6.144 -6.45285 0
M  V30 12131 O 210.119 -7.54673 -6.86199 0
M  V30 12132 O 209.549 -5.12391 -7.179 0
M  V30 12133 O 210.089 -5.99158 -4.88404 0
M  V30 12134 C 211.029 -6.60234 -3.96415 0
M  V30 12135 C 210.299 -7.08259 -2.72856 0
M  V30 12136 O 210.089 -5.9427 -1.83651 0
M  V30 12137 C 208.899 -7.64886 -2.9555 0
M  V30 12138 O 208.509 -8.53963 -1.90717 0
M  V30 12139 C 208.019 -6.4116 -2.90739 0
M  V30 12140 C 208.729 -5.55375 -1.86963 0
M  V30 12141 N 208.679 -4.09664 -2.15742 0
M  V30 12142 H 211.518 -7.45574 -4.45629 0
M  V30 12143 H 211.79 -5.86232 -3.67314 0
M  V30 12144 H 210.922 -7.84412 -2.24479 0
M  V30 12145 P 206.959 -8.7635 -1.60911 0
M  V30 12146 O 206.739 -10.1388 -1.11561 0
M  V30 12147 O 206.169 -8.36503 -2.79617 0
M  V30 12148 O 206.709 -7.71806 -0.42951 0
M  V30 12149 C 207.649 -7.67148 0.673689 0
M  V30 12150 C 206.919 -7.33374 1.95559 0
M  V30 12151 O 206.709 -5.88721 2.00726 0
M  V30 12152 C 205.519 -7.92526 2.10483 0
M  V30 12153 O 205.129 -8.02971 3.47653 0
M  V30 12154 C 204.639 -6.89602 1.41652 0
M  V30 12155 C 205.349 -5.59201 1.75185 0
M  V30 12156 N 205.299 -4.58235 0.662552 0
M  V30 12157 H 208.138 -8.65116 0.777161 0
M  V30 12158 H 208.41 -6.90173 0.474152 0
M  V30 12159 H 207.542 -7.66548 2.79458 0
M  V30 12160 P 203.579 -8.03563 3.84925 0
M  V30 12161 O 203.359 -8.85821 5.0569 0
M  V30 12162 O 202.789 -8.41101 2.65469 0
M  V30 12163 O 203.329 -6.4965 4.18908 0
M  V30 12164 C 204.269 -5.81037 5.05421 0
M  V30 12165 C 203.539 -4.78366 5.89277 0
M  V30 12166 O 203.329 -3.58302 5.08433 0
M  V30 12167 C 202.139 -5.17448 6.36119 0
M  V30 12168 O 201.749 -4.45271 7.53232 0
M  V30 12169 C 201.259 -4.74639 5.19936 0
M  V30 12170 C 201.969 -3.49432 4.70418 0
M  V30 12171 N 201.919 -3.31776 3.22945 0
M  V30 12172 H 204.758 -6.54213 5.71376 0
M  V30 12173 H 205.03 -5.30492 4.44033 0
M  V30 12174 H 204.162 -4.55889 6.76652 0
M  V30 12175 P 200.199 -4.23843 7.83734 0
M  V30 12176 O 199.979 -4.19407 9.29784 0
M  V30 12177 O 199.409 -5.24426 7.09156 0
M  V30 12178 O 199.949 -2.7935 7.20758 0
M  V30 12179 C 200.889 -1.72945 7.50224 0
M  V30 12180 C 200.159 -0.406376 7.57911 0
M  V30 12181 O 199.949 0.0897726 6.21935 0
M  V30 12182 C 198.759 -0.438983 8.18724 0
M  V30 12183 O 198.369 0.825065 8.71101 0
M  V30 12184 C 197.879 -0.783689 6.99524 0
M  V30 12185 C 198.589 -0.0619086 5.85867 0
M  V30 12186 N 198.539 -0.78573 4.56183 0
M  V30 12187 C 198.389 -0.0292889 3.41887 0
M  V30 12188 O 198.299 1.18445 3.4419 0
M  V30 12189 N 198.349 -0.744061 2.23964 0
M  V30 12190 C 198.439 -2.10932 2.10362 0
M  V30 12191 O 198.389 -2.64117 0.98825 0
M  V30 12192 C 198.589 -2.8202 3.34994 0
M  V30 12193 C 198.699 -4.31095 3.25037 0
M  V30 12194 C 198.639 -2.15547 4.52261 0
M  V30 12195 H 201.38 -1.93379 8.46595 0
M  V30 12196 H 201.649 -1.68132 6.70852 0
M  V30 12197 H 200.782 0.289041 8.15388 0
M  V30 12198 H 198.127 0.926847 5.72749 0
M  V30 12199 H 197.848 -1.86973 6.82036 0
M  V30 12200 H 196.856 -0.403896 7.13257 0
M  V30 12201 H 198.69 -1.20585 8.97435 0
M  V30 12202 H 198.761 -2.71231 5.45042 0
M  V30 12203 H 197.731 -4.76966 3.49992 0
M  V30 12204 H 199.468 -4.67047 3.95024 0
M  V30 12205 H 198.98 -4.58996 2.22312 0
M  V30 12206 H 198.244 -0.214893 1.39758 0
M  V30 12207 P 196.819 1.17771 8.83182 0
M  V30 12208 O 196.599 2.07206 9.98732 0
M  V30 12209 O 196.029 -0.0743816 8.81969 0
M  V30 12210 O 196.569 1.97652 7.47304 0
M  V30 12211 C 197.509 3.01133 7.08783 0
M  V30 12212 C 196.779 4.12613 6.37049 0
M  V30 12213 O 196.569 3.72827 4.97879 0
M  V30 12214 C 195.379 4.45085 6.88694 0
M  V30 12215 O 194.989 5.7877 6.5624 0
M  V30 12216 C 194.499 3.47817 6.12078 0
M  V30 12217 C 195.209 3.39414 4.77697 0
M  V30 12218 N 195.159 2.04615 4.15333 0
M  V30 12219 H 197.998 3.41248 7.98759 0
M  V30 12220 H 198.27 2.5837 6.41742 0
M  V30 12221 H 197.402 5.02657 6.42673 0
M  V30 12222 P 193.439 6.144 6.45285 0
M  V30 12223 O 193.219 7.54673 6.86199 0
M  V30 12224 O 192.649 5.12391 7.179 0
M  V30 12225 O 193.189 5.99158 4.88404 0
M  V30 12226 C 194.129 6.60234 3.96415 0
M  V30 12227 C 193.399 7.08259 2.72856 0
M  V30 12228 O 193.189 5.9427 1.83651 0
M  V30 12229 C 191.999 7.64886 2.9555 0
M  V30 12230 O 191.609 8.53963 1.90717 0
M  V30 12231 C 191.119 6.4116 2.90739 0
M  V30 12232 C 191.829 5.55375 1.86963 0
M  V30 12233 N 191.779 4.09664 2.15742 0
M  V30 12234 H 194.618 7.45574 4.45629 0
M  V30 12235 H 194.89 5.86232 3.67314 0
M  V30 12236 H 194.022 7.84412 2.24479 0
M  V30 12237 P 190.059 8.7635 1.60911 0
M  V30 12238 O 189.839 10.1388 1.11561 0
M  V30 12239 O 189.269 8.36503 2.79617 0
M  V30 12240 O 189.809 7.71806 0.42951 0
M  V30 12241 C 190.749 7.67148 -0.673689 0
M  V30 12242 C 190.019 7.33374 -1.95559 0
M  V30 12243 O 189.809 5.88721 -2.00726 0
M  V30 12244 C 188.619 7.92526 -2.10483 0
M  V30 12245 O 188.229 8.02971 -3.47653 0
M  V30 12246 C 187.739 6.89602 -1.41652 0
M  V30 12247 C 188.449 5.59201 -1.75185 0
M  V30 12248 N 188.399 4.58235 -0.662552 0
M  V30 12249 H 191.238 8.65116 -0.777161 0
M  V30 12250 H 191.51 6.90173 -0.474152 0
M  V30 12251 H 190.642 7.66548 -2.79458 0
M  V30 12252 P 186.679 8.03563 -3.84925 0
M  V30 12253 O 186.459 8.85821 -5.0569 0
M  V30 12254 O 185.889 8.41101 -2.65469 0
M  V30 12255 O 186.429 6.4965 -4.18908 0
M  V30 12256 C 187.369 5.80886 -5.05289 0
M  V30 12257 C 186.639 4.78366 -5.89277 0
M  V30 12258 O 186.429 3.58302 -5.08433 0
M  V30 12259 C 185.239 5.16748 -6.36559 0
M  V30 12260 O 184.849 4.45271 -7.53232 0
M  V30 12261 C 184.359 4.74572 -5.19863 0
M  V30 12262 C 185.069 3.49373 -4.70338 0
M  V30 12263 N 185.019 3.31704 -3.22876 0
M  V30 12264 C 184.869 2.03326 -2.74871 0
M  V30 12265 O 184.779 1.06486 -3.48076 0
M  V30 12266 N 184.829 1.91838 -1.37456 0
M  V30 12267 C 184.919 2.94295 -0.462035 0
M  V30 12268 O 184.869 2.71763 0.752928 0
M  V30 12269 C 185.069 4.25064 -1.05249 0
M  V30 12270 C 185.179 5.39815 -0.095697 0
M  V30 12271 C 185.119 4.40214 -2.39192 0
M  V30 12272 H 187.86 6.54063 -5.71245 0
M  V30 12273 H 188.129 5.30339 -4.43905 0
M  V30 12274 H 187.262 4.55889 -6.76652 0
M  V30 12275 H 184.607 2.6167 -5.17842 0
M  V30 12276 H 184.328 5.52155 -4.41878 0
M  V30 12277 H 183.336 4.51918 -5.53297 0
M  V30 12278 H 185.17 6.25055 -6.55162 0
M  V30 12279 H 185.241 5.39798 -2.81523 0
M  V30 12280 H 184.211 5.91593 -0.0279582 0
M  V30 12281 H 185.948 6.10038 -0.450573 0
M  V30 12282 H 185.46 5.02007 0.89937 0
M  V30 12283 H 184.724 0.995326 -1.00435 0
M  V30 12284 P 183.299 4.23843 -7.83734 0
M  V30 12285 O 183.079 4.19407 -9.29784 0
M  V30 12286 O 182.509 5.24426 -7.09156 0
M  V30 12287 O 183.049 2.7935 -7.20758 0
M  V30 12288 C 183.989 1.7299 -7.50419 0
M  V30 12289 C 183.259 0.406376 -7.57911 0
M  V30 12290 O 183.049 -0.0897726 -6.21935 0
M  V30 12291 C 181.859 0.447224 -8.1878 0
M  V30 12292 O 181.469 -0.825065 -8.71101 0
M  V30 12293 C 180.979 0.783801 -6.99623 0
M  V30 12294 C 181.689 0.0619192 -5.85967 0
M  V30 12295 N 181.639 0.7859 -4.56281 0
M  V30 12296 H 184.478 1.93423 -8.4679 0
M  V30 12297 H 184.75 1.68181 -6.71046 0
M  V30 12298 H 183.882 -0.289041 -8.15388 0
M  V30 12299 P 179.919 -1.17771 -8.83182 0
M  V30 12300 O 179.699 -2.07206 -9.98732 0
M  V30 12301 O 179.129 0.0743816 -8.81969 0
M  V30 12302 O 179.669 -1.97652 -7.47304 0
M  V30 12303 C 180.609 -3.01133 -7.08783 0
M  V30 12304 C 179.879 -4.12613 -6.37049 0
M  V30 12305 O 179.669 -3.72827 -4.97879 0
M  V30 12306 C 178.479 -4.45085 -6.88694 0
M  V30 12307 O 178.089 -5.7877 -6.5624 0
M  V30 12308 C 177.599 -3.47817 -6.12078 0
M  V30 12309 C 178.309 -3.39414 -4.77697 0
M  V30 12310 N 178.259 -2.04199 -4.15538 0
M  V30 12311 C 178.339 -0.821545 -4.76977 0
M  V30 12312 N 178.269 0.1794 -3.94592 0
M  V30 12313 C 178.119 -0.419121 -2.70776 0
M  V30 12314 C 177.989 0.109072 -1.40577 0
M  V30 12315 N 177.979 1.4104 -1.1344 0
M  V30 12316 N 177.869 -0.764381 -0.39411 0
M  V30 12317 C 177.879 -2.06587 -0.664135 0
M  V30 12318 N 177.999 -2.67948 -1.82153 0
M  V30 12319 C 178.119 -1.77942 -2.8147 0
M  V30 12320 H 181.098 -3.41248 -7.98759 0
M  V30 12321 H 181.37 -2.57728 -6.42 0
M  V30 12322 H 180.502 -5.02657 -6.42673 0
M  V30 12323 H 177.847 -4.11708 -4.08956 0
M  V30 12324 H 177.567 -2.49626 -6.61679 0
M  V30 12325 H 176.576 -3.8662 -6.00862 0
M  V30 12326 H 178.41 -4.29991 -7.97006 0
M  V30 12327 H 178.451 -0.702451 -5.84696 0
M  V30 12328 H 178.07 2.09647 -1.89651 0
M  V30 12329 H 177.881 1.73358 -0.160575 0
M  V30 12330 H 177.773 -2.71695 0.195838 0
M  V30 12331 P 176.539 -6.144 -6.45285 0
M  V30 12332 O 176.319 -7.54673 -6.86199 0
M  V30 12333 O 175.749 -5.12391 -7.179 0
M  V30 12334 O 176.289 -5.99158 -4.88404 0
M  V30 12335 C 177.229 -6.60234 -3.96415 0
M  V30 12336 C 176.499 -7.08259 -2.72856 0
M  V30 12337 O 176.289 -5.9427 -1.83651 0
M  V30 12338 C 175.099 -7.64886 -2.9555 0
M  V30 12339 O 174.709 -8.53963 -1.90717 0
M  V30 12340 C 174.219 -6.4116 -2.90739 0
M  V30 12341 C 174.929 -5.55375 -1.86963 0
M  V30 12342 N 174.879 -4.09448 -2.16152 0
M  V30 12343 C 174.959 -3.46824 -3.37593 0
M  V30 12344 N 174.889 -2.17422 -3.29777 0
M  V30 12345 C 174.739 -1.93065 -1.94427 0
M  V30 12346 C 174.609 -0.738053 -1.20141 0
M  V30 12347 N 174.599 0.474256 -1.74676 0
M  V30 12348 N 174.489 -0.850049 0.13045 0
M  V30 12349 C 174.499 -2.06169 0.676992 0
M  V30 12350 N 174.619 -3.23842 0.101312 0
M  V30 12351 C 174.739 -3.09402 -1.23122 0
M  V30 12352 H 177.718 -7.45574 -4.45629 0
M  V30 12353 H 177.99 -5.85864 -3.679 0
M  V30 12354 H 177.122 -7.84412 -2.24479 0
M  V30 12355 H 174.467 -5.73457 -0.888562 0
M  V30 12356 H 174.187 -5.90877 -3.88583 0
M  V30 12357 H 173.196 -6.6596 -2.58858 0
M  V30 12358 H 175.03 -8.16339 -3.92049 0
M  V30 12359 H 175.071 -4.00505 -4.3174 0
M  V30 12360 H 174.69 0.581337 -2.76658 0
M  V30 12361 H 174.501 1.30811 -1.14888 0
M  V30 12362 H 174.393 -2.08295 1.75542 0
M  V30 12363 P 173.159 -8.7635 -1.60911 0
M  V30 12364 O 172.939 -10.1388 -1.11561 0
M  V30 12365 O 172.369 -8.36503 -2.79617 0
M  V30 12366 O 172.909 -7.71806 -0.42951 0
M  V30 12367 C 173.849 -7.67148 0.673689 0
M  V30 12368 C 173.119 -7.33374 1.95559 0
M  V30 12369 O 172.909 -5.88721 2.00726 0
M  V30 12370 C 171.719 -7.92526 2.10483 0
M  V30 12371 O 171.329 -8.02971 3.47653 0
M  V30 12372 C 170.839 -6.89602 1.41652 0
M  V30 12373 C 171.549 -5.59201 1.75185 0
M  V30 12374 N 171.499 -4.58301 0.657969 0
M  V30 12375 H 174.338 -8.65116 0.777161 0
M  V30 12376 H 174.61 -6.9022 0.46725 0
M  V30 12377 H 173.742 -7.66548 2.79458 0
M  V30 12378 H 171.087 -5.16165 2.65183 0
M  V30 12379 H 170.807 -7.06433 0.329384 0
M  V30 12380 H 169.816 -6.90926 1.82021 0
M  V30 12381 H 171.65 -8.90873 1.62657 0
M  V30 12382 P 169.779 -8.03563 3.84925 0
M  V30 12383 O 169.559 -8.85821 5.0569 0
M  V30 12384 O 168.989 -8.41101 2.65469 0
M  V30 12385 O 169.529 -6.49734 4.18962 0
M  V30 12386 C 170.469 -5.81037 5.05421 0
M  V30 12387 C 169.739 -4.79018 5.88876 0
M  V30 12388 O 169.529 -3.58359 5.08515 0
M  V30 12389 C 168.339 -5.17448 6.36119 0
M  V30 12390 O 167.949 -4.45322 7.53318 0
M  V30 12391 C 167.459 -4.74639 5.19936 0
M  V30 12392 C 168.169 -3.49432 4.70418 0
M  V30 12393 N 168.119 -3.31776 3.22945 0
M  V30 12394 C 167.969 -2.02742 2.72939 0
M  V30 12395 O 167.879 -1.08301 3.52749 0
M  V30 12396 N 167.919 -1.96117 1.22063 0
M  V30 12397 C 168.019 -2.8878 0.551566 0
M  V30 12398 N 167.969 -2.65609 -0.750198 0
M  V30 12399 C 168.169 -4.22457 1.03707 0
M  V30 12400 C 168.219 -4.37979 2.39113 0
M  V30 12401 H 170.959 -6.54138 5.7131 0
M  V30 12402 H 171.229 -5.30492 4.44033 0
M  V30 12403 H 170.362 -4.55945 6.76735 0
M  V30 12404 H 167.707 -2.6176 5.18021 0
M  V30 12405 H 167.427 -5.52233 4.41941 0
M  V30 12406 H 166.436 -4.52045 5.53452 0
M  V30 12407 H 168.27 -6.25124 6.55234 0
M  V30 12408 H 168.342 -5.37936 2.80552 0
M  V30 12409 H 168.24 -5.07528 0.359553 0
M  V30 12410 H 167.852 -1.69403 -1.09847 0
M  V30 12411 H 168.048 -3.43701 -1.41792 0
M  V30 12412 P 166.399 -4.23843 7.83734 0
M  V30 12413 O 166.179 -4.19407 9.29784 0
M  V30 12414 O 165.609 -5.24426 7.09156 0
M  V30 12415 O 166.149 -2.7935 7.20758 0
M  V30 12416 C 167.089 -1.7299 7.50419 0
M  V30 12417 C 166.359 -0.406376 7.57911 0
M  V30 12418 O 166.149 0.0897726 6.21935 0
M  V30 12419 C 164.959 -0.447224 8.1878 0
M  V30 12420 O 164.569 0.825065 8.71101 0
M  V30 12421 C 164.079 -0.783801 6.99623 0
M  V30 12422 C 164.789 -0.0619192 5.85967 0
M  V30 12423 N 164.739 -0.7859 4.56281 0
M  V30 12424 H 167.578 -1.93423 8.4679 0
M  V30 12425 H 167.85 -1.68181 6.71046 0
M  V30 12426 H 166.982 0.289041 8.15388 0
M  V30 12427 P 163.019 1.17771 8.83182 0
M  V30 12428 O 162.799 2.07206 9.98732 0
M  V30 12429 O 162.229 -0.0743816 8.81969 0
M  V30 12430 O 162.769 1.97678 7.474 0
M  V30 12431 C 163.709 3.01133 7.08783 0
M  V30 12432 C 162.979 4.1203 6.37546 0
M  V30 12433 O 162.769 3.72887 4.9796 0
M  V30 12434 C 161.579 4.45085 6.88694 0
M  V30 12435 O 161.189 5.78836 6.56315 0
M  V30 12436 C 160.699 3.47817 6.12078 0
M  V30 12437 C 161.409 3.39414 4.77697 0
M  V30 12438 N 161.359 2.04615 4.15333 0
M  V30 12439 C 161.209 1.96929 2.77162 0
M  V30 12440 O 161.119 3.02017 2.12006 0
M  V30 12441 N 161.159 0.55485 2.24237 0
M  V30 12442 C 161.259 -0.367808 2.9169 0
M  V30 12443 N 161.209 -1.53426 2.29427 0
M  V30 12444 C 161.409 -0.319148 4.33828 0
M  V30 12445 C 161.459 0.920672 4.90433 0
M  V30 12446 H 164.199 3.41209 7.98667 0
M  V30 12447 H 164.469 2.5837 6.41742 0
M  V30 12448 H 163.602 5.02718 6.42752 0
M  V30 12449 H 160.947 4.11779 4.09026 0
M  V30 12450 H 160.667 2.49661 6.61772 0
M  V30 12451 H 159.676 3.86674 6.00946 0
M  V30 12452 H 161.51 4.29991 7.97006 0
M  V30 12453 H 161.582 1.00589 5.98303 0
M  V30 12454 H 161.48 -1.22639 4.93799 0
M  V30 12455 H 161.092 -1.56819 1.27167 0
M  V30 12456 H 161.288 -2.41062 2.83063 0
M  V30 12457 P 159.639 6.144 6.45285 0
M  V30 12458 O 159.419 7.54673 6.86199 0
M  V30 12459 O 158.849 5.12391 7.179 0
M  V30 12460 O 159.389 5.99158 4.88404 0
M  V30 12461 C 160.329 6.60234 3.96415 0
M  V30 12462 C 159.599 7.08259 2.72856 0
M  V30 12463 O 159.389 5.9427 1.83651 0
M  V30 12464 C 158.199 7.64886 2.9555 0
M  V30 12465 O 157.809 8.53963 1.90717 0
M  V30 12466 C 157.319 6.4116 2.90739 0
M  V30 12467 C 158.029 5.55375 1.86963 0
M  V30 12468 N 157.979 4.09664 2.15742 0
M  V30 12469 H 160.818 7.45574 4.45629 0
M  V30 12470 H 161.09 5.86232 3.67314 0
M  V30 12471 H 160.222 7.84412 2.24479 0
M  V30 12472 P 156.259 8.7635 1.60911 0
M  V30 12473 O 156.039 10.1388 1.11561 0
M  V30 12474 O 155.469 8.36503 2.79617 0
M  V30 12475 O 156.009 7.71806 0.42951 0
M  V30 12476 C 156.949 7.67148 -0.673689 0
M  V30 12477 C 156.219 7.33374 -1.95559 0
M  V30 12478 O 156.009 5.88721 -2.00726 0
M  V30 12479 C 154.819 7.92526 -2.10483 0
M  V30 12480 O 154.429 8.02971 -3.47653 0
M  V30 12481 C 153.939 6.89602 -1.41652 0
M  V30 12482 C 154.649 5.59201 -1.75185 0
M  V30 12483 N 154.599 4.58235 -0.662552 0
M  V30 12484 H 157.438 8.65116 -0.777161 0
M  V30 12485 H 157.71 6.90173 -0.474152 0
M  V30 12486 H 156.842 7.66548 -2.79458 0
M  V30 12487 P 152.879 8.03563 -3.84925 0
M  V30 12488 O 152.659 8.85821 -5.0569 0
M  V30 12489 O 152.089 8.41101 -2.65469 0
M  V30 12490 O 152.629 6.49734 -4.18962 0
M  V30 12491 C 153.569 5.81037 -5.05421 0
M  V30 12492 C 152.839 4.79018 -5.88876 0
M  V30 12493 O 152.629 3.58359 -5.08515 0
M  V30 12494 C 151.439 5.17448 -6.36119 0
M  V30 12495 O 151.049 4.45322 -7.53318 0
M  V30 12496 C 150.559 4.74639 -5.19936 0
M  V30 12497 C 151.269 3.49432 -4.70418 0
M  V30 12498 N 151.219 3.31776 -3.22945 0
M  V30 12499 C 151.069 2.02742 -2.72939 0
M  V30 12500 O 150.979 1.08301 -3.52749 0
M  V30 12501 N 151.019 1.96117 -1.22063 0
M  V30 12502 C 151.119 2.8878 -0.551566 0
M  V30 12503 N 151.069 2.65609 0.750198 0
M  V30 12504 C 151.269 4.22457 -1.03707 0
M  V30 12505 C 151.319 4.37979 -2.39113 0
M  V30 12506 H 154.059 6.54138 -5.7131 0
M  V30 12507 H 154.329 5.30492 -4.44033 0
M  V30 12508 H 153.462 4.55945 -6.76735 0
M  V30 12509 H 150.807 2.6176 -5.18021 0
M  V30 12510 H 150.527 5.52233 -4.41941 0
M  V30 12511 H 149.536 4.52045 -5.53452 0
M  V30 12512 H 151.37 6.25124 -6.55234 0
M  V30 12513 H 151.442 5.37936 -2.80552 0
M  V30 12514 H 151.34 5.07528 -0.359553 0
M  V30 12515 H 150.952 1.69403 1.09847 0
M  V30 12516 H 151.148 3.43701 1.41792 0
M  V30 12517 P 149.499 4.23843 -7.83734 0
M  V30 12518 O 149.279 4.19407 -9.29784 0
M  V30 12519 O 148.709 5.24426 -7.09156 0
M  V30 12520 O 149.249 2.7935 -7.20758 0
M  V30 12521 C 150.189 1.7299 -7.50419 0
M  V30 12522 C 149.459 0.406376 -7.57911 0
M  V30 12523 O 149.249 -0.0897726 -6.21935 0
M  V30 12524 C 148.059 0.447224 -8.1878 0
M  V30 12525 O 147.669 -0.825065 -8.71101 0
M  V30 12526 C 147.179 0.783801 -6.99623 0
M  V30 12527 C 147.889 0.0619192 -5.85967 0
M  V30 12528 N 147.839 0.7859 -4.56281 0
M  V30 12529 H 150.678 1.93423 -8.4679 0
M  V30 12530 H 150.95 1.68181 -6.71046 0
M  V30 12531 H 150.082 -0.289041 -8.15388 0
M  V30 12532 P 146.119 -1.17771 -8.83182 0
M  V30 12533 O 145.899 -2.07206 -9.98732 0
M  V30 12534 O 145.329 0.0743816 -8.81969 0
M  V30 12535 O 145.869 -1.97652 -7.47304 0
M  V30 12536 C 146.809 -3.01133 -7.08783 0
M  V30 12537 C 146.079 -4.12613 -6.37049 0
M  V30 12538 O 145.869 -3.72827 -4.97879 0
M  V30 12539 C 144.679 -4.45085 -6.88694 0
M  V30 12540 O 144.289 -5.7877 -6.5624 0
M  V30 12541 C 143.799 -3.47817 -6.12078 0
M  V30 12542 C 144.509 -3.39414 -4.77697 0
M  V30 12543 N 144.459 -2.04615 -4.15333 0
M  V30 12544 H 147.298 -3.41248 -7.98759 0
M  V30 12545 H 147.57 -2.5837 -6.41742 0
M  V30 12546 H 146.702 -5.02657 -6.42673 0
M  V30 12547 P 142.739 -6.144 -6.45285 0
M  V30 12548 O 142.519 -7.54673 -6.86199 0
M  V30 12549 O 141.949 -5.12391 -7.179 0
M  V30 12550 O 142.489 -5.99158 -4.88404 0
M  V30 12551 C 143.429 -6.60234 -3.96415 0
M  V30 12552 C 142.699 -7.08259 -2.72856 0
M  V30 12553 O 142.489 -5.9427 -1.83651 0
M  V30 12554 C 141.299 -7.64886 -2.9555 0
M  V30 12555 O 140.909 -8.53963 -1.90717 0
M  V30 12556 C 140.419 -6.4116 -2.90739 0
M  V30 12557 C 141.129 -5.55375 -1.86963 0
M  V30 12558 N 141.079 -4.09664 -2.15742 0
M  V30 12559 H 143.918 -7.45574 -4.45629 0
M  V30 12560 H 144.19 -5.86232 -3.67314 0
M  V30 12561 H 143.322 -7.84412 -2.24479 0
M  V30 12562 P 139.359 -8.7635 -1.60911 0
M  V30 12563 O 139.139 -10.1388 -1.11561 0
M  V30 12564 O 138.569 -8.36503 -2.79617 0
M  V30 12565 O 139.109 -7.71806 -0.42951 0
M  V30 12566 C 140.049 -7.67148 0.673689 0
M  V30 12567 C 139.319 -7.33374 1.95559 0
M  V30 12568 O 139.109 -5.88721 2.00726 0
M  V30 12569 C 137.919 -7.92526 2.10483 0
M  V30 12570 O 137.529 -8.02971 3.47653 0
M  V30 12571 C 137.039 -6.89602 1.41652 0
M  V30 12572 C 137.749 -5.59201 1.75185 0
M  V30 12573 N 137.699 -4.58235 0.662552 0
M  V30 12574 H 140.538 -8.65116 0.777161 0
M  V30 12575 H 140.81 -6.90173 0.474152 0
M  V30 12576 H 139.942 -7.66548 2.79458 0
M  V30 12577 P 135.979 -8.03563 3.84925 0
M  V30 12578 O 135.759 -8.85821 5.0569 0
M  V30 12579 O 135.189 -8.41101 2.65469 0
M  V30 12580 O 135.729 -6.4965 4.18908 0
M  V30 12581 C 136.669 -5.81037 5.05421 0
M  V30 12582 C 135.939 -4.78366 5.89277 0
M  V30 12583 O 135.729 -3.58302 5.08433 0
M  V30 12584 C 134.539 -5.17448 6.36119 0
M  V30 12585 O 134.149 -4.45271 7.53232 0
M  V30 12586 C 133.659 -4.74639 5.19936 0
M  V30 12587 C 134.369 -3.49432 4.70418 0
M  V30 12588 N 134.319 -3.31776 3.22945 0
M  V30 12589 H 137.158 -6.54213 5.71376 0
M  V30 12590 H 137.43 -5.30492 4.44033 0
M  V30 12591 H 136.562 -4.55889 6.76652 0
M  V30 12592 P 132.599 -4.23843 7.83734 0
M  V30 12593 O 132.379 -4.19407 9.29784 0
M  V30 12594 O 131.809 -5.24426 7.09156 0
M  V30 12595 O 132.349 -2.7935 7.20758 0
M  V30 12596 C 133.289 -1.7299 7.50419 0
M  V30 12597 C 132.559 -0.406376 7.57911 0
M  V30 12598 O 132.349 0.0897726 6.21935 0
M  V30 12599 C 131.159 -0.447224 8.1878 0
M  V30 12600 O 130.769 0.825065 8.71101 0
M  V30 12601 C 130.279 -0.783801 6.99623 0
M  V30 12602 C 130.989 -0.0619192 5.85967 0
M  V30 12603 N 130.939 -0.7859 4.56281 0
M  V30 12604 H 133.778 -1.93423 8.4679 0
M  V30 12605 H 134.05 -1.68181 6.71046 0
M  V30 12606 H 133.182 0.289041 8.15388 0
M  V30 12607 P 129.219 1.17771 8.83182 0
M  V30 12608 O 128.999 2.07206 9.98732 0
M  V30 12609 O 128.429 -0.0743816 8.81969 0
M  V30 12610 O 128.969 1.97652 7.47304 0
M  V30 12611 C 129.909 3.01133 7.08783 0
M  V30 12612 C 129.179 4.12613 6.37049 0
M  V30 12613 O 128.969 3.72827 4.97879 0
M  V30 12614 C 127.779 4.45085 6.88694 0
M  V30 12615 O 127.389 5.7877 6.5624 0
M  V30 12616 C 126.899 3.47817 6.12078 0
M  V30 12617 C 127.609 3.39414 4.77697 0
M  V30 12618 N 127.559 2.04615 4.15333 0
M  V30 12619 H 130.398 3.41248 7.98759 0
M  V30 12620 H 130.67 2.5837 6.41742 0
M  V30 12621 H 129.802 5.02657 6.42673 0
M  V30 12622 P 125.839 6.144 6.45285 0
M  V30 12623 O 125.619 7.54673 6.86199 0
M  V30 12624 O 125.049 5.12391 7.179 0
M  V30 12625 O 125.589 5.99158 4.88404 0
M  V30 12626 C 126.529 6.60234 3.96415 0
M  V30 12627 C 125.799 7.08259 2.72856 0
M  V30 12628 O 125.589 5.9427 1.83651 0
M  V30 12629 C 124.399 7.64886 2.9555 0
M  V30 12630 O 124.009 8.53963 1.90717 0
M  V30 12631 C 123.519 6.4116 2.90739 0
M  V30 12632 C 124.229 5.55375 1.86963 0
M  V30 12633 N 124.179 4.09664 2.15742 0
M  V30 12634 H 127.018 7.45574 4.45629 0
M  V30 12635 H 127.29 5.86232 3.67314 0
M  V30 12636 H 126.422 7.84412 2.24479 0
M  V30 12637 P 122.459 8.7635 1.60911 0
M  V30 12638 O 122.239 10.1388 1.11561 0
M  V30 12639 O 121.669 8.36503 2.79617 0
M  V30 12640 O 122.209 7.71806 0.42951 0
M  V30 12641 C 123.149 7.67148 -0.673689 0
M  V30 12642 C 122.419 7.33374 -1.95559 0
M  V30 12643 O 122.209 5.88721 -2.00726 0
M  V30 12644 C 121.019 7.92526 -2.10483 0
M  V30 12645 O 120.629 8.02971 -3.47653 0
M  V30 12646 C 120.139 6.89602 -1.41652 0
M  V30 12647 C 120.849 5.59201 -1.75185 0
M  V30 12648 N 120.799 4.58235 -0.662552 0
M  V30 12649 H 123.638 8.65116 -0.777161 0
M  V30 12650 H 123.91 6.90173 -0.474152 0
M  V30 12651 H 123.042 7.66548 -2.79458 0
M  V30 12652 P 119.079 8.03563 -3.84925 0
M  V30 12653 O 118.859 8.85821 -5.0569 0
M  V30 12654 O 118.289 8.41101 -2.65469 0
M  V30 12655 O 118.829 6.4965 -4.18908 0
M  V30 12656 C 119.769 5.81037 -5.05421 0
M  V30 12657 C 119.039 4.78366 -5.89277 0
M  V30 12658 O 118.829 3.58302 -5.08433 0
M  V30 12659 C 117.639 5.17448 -6.36119 0
M  V30 12660 O 117.249 4.45271 -7.53232 0
M  V30 12661 C 116.759 4.74639 -5.19936 0
M  V30 12662 C 117.469 3.49432 -4.70418 0
M  V30 12663 N 117.419 3.32099 -3.22613 0
M  V30 12664 H 120.258 6.54213 -5.71376 0
M  V30 12665 H 120.53 5.30936 -4.43503 0
M  V30 12666 H 119.662 4.55889 -6.76652 0
M  V30 12667 H 117.007 2.61715 -5.17932 0
M  V30 12668 H 116.727 5.52155 -4.41878 0
M  V30 12669 H 115.736 4.51981 -5.53374 0
M  V30 12670 H 117.57 6.25124 -6.55234 0
M  V30 12671 P 115.699 4.23843 -7.83734 0
M  V30 12672 O 115.479 4.19407 -9.29784 0
M  V30 12673 O 114.909 5.24426 -7.09156 0
M  V30 12674 O 115.449 2.7935 -7.20758 0
M  V30 12675 C 116.389 1.72945 -7.50224 0
M  V30 12676 C 115.659 0.406376 -7.57911 0
M  V30 12677 O 115.449 -0.0897726 -6.21935 0
M  V30 12678 C 114.259 0.438983 -8.18724 0
M  V30 12679 O 113.869 -0.825065 -8.71101 0
M  V30 12680 C 113.379 0.783689 -6.99524 0
M  V30 12681 C 114.089 0.0619086 -5.85867 0
M  V30 12682 N 114.039 0.78573 -4.56183 0
M  V30 12683 C 113.889 0.0292889 -3.41887 0
M  V30 12684 O 113.799 -1.18445 -3.4419 0
M  V30 12685 N 113.849 0.744061 -2.23964 0
M  V30 12686 C 113.939 2.10932 -2.10362 0
M  V30 12687 C 114.089 2.8202 -3.34994 0
M  V30 12688 C 114.139 2.15547 -4.52261 0
M  V30 12689 H 116.88 1.93379 -8.46595 0
M  V30 12690 H 117.149 1.68132 -6.70852 0
M  V30 12691 H 116.282 -0.289041 -8.15388 0
M  V30 12692 H 113.627 -0.926847 -5.72749 0
M  V30 12693 H 113.348 1.86973 -6.82036 0
M  V30 12694 H 112.356 0.403896 -7.13257 0
M  V30 12695 H 114.19 1.20585 -8.97435 0
M  V30 12696 H 114.261 2.71231 -5.45042 0
M  V30 12697 P 112.319 -1.17771 -8.83182 0
M  V30 12698 O 112.099 -2.07206 -9.98732 0
M  V30 12699 O 111.529 0.0743816 -8.81969 0
M  V30 12700 O 112.069 -1.97652 -7.47304 0
M  V30 12701 C 113.009 -3.01055 -7.08599 0
M  V30 12702 C 112.279 -4.12613 -6.37049 0
M  V30 12703 O 112.069 -3.72827 -4.97879 0
M  V30 12704 C 110.879 -4.45719 -6.88164 0
M  V30 12705 O 110.489 -5.7877 -6.5624 0
M  V30 12706 C 109.999 -3.47768 -6.11991 0
M  V30 12707 C 110.709 -3.39356 -4.77615 0
M  V30 12708 N 110.659 -2.04571 -4.15244 0
M  V30 12709 C 110.509 -1.98587 -2.78314 0
M  V30 12710 O 110.419 -2.98134 -2.08835 0
M  V30 12711 N 110.469 -0.714467 -2.24925 0
M  V30 12712 C 110.559 0.470001 -2.94169 0
M  V30 12713 O 110.509 1.55587 -2.35195 0
M  V30 12714 C 110.709 0.312541 -4.36783 0
M  V30 12715 C 110.819 1.57711 -5.16352 0
M  V30 12716 C 110.759 -0.914512 -4.92583 0
M  V30 12717 H 113.5 -3.41169 -7.98575 0
M  V30 12718 H 113.769 -2.58295 -6.41556 0
M  V30 12719 H 112.902 -5.02657 -6.42673 0
M  V30 12720 H 110.247 -4.11637 -4.08885 0
M  V30 12721 H 109.968 -2.49626 -6.61679 0
M  V30 12722 H 108.976 -3.86566 -6.00778 0
M  V30 12723 H 110.81 -4.29943 -7.96918 0
M  V30 12724 H 110.881 -1.00937 -6.00374 0
M  V30 12725 H 109.851 1.80153 -5.63503 0
M  V30 12726 H 111.588 1.4566 -5.94104 0
M  V30 12727 H 111.1 2.40664 -4.49645 0
M  V30 12728 H 110.364 -0.647622 -1.25697 0
M  V30 12729 P 108.939 -6.144 -6.45285 0
M  V30 12730 O 108.719 -7.54673 -6.86199 0
M  V30 12731 O 108.149 -5.12391 -7.179 0
M  V30 12732 O 108.689 -5.99158 -4.88404 0
M  V30 12733 C 109.629 -6.60234 -3.96415 0
M  V30 12734 C 108.899 -7.08259 -2.72856 0
M  V30 12735 O 108.689 -5.9427 -1.83651 0
M  V30 12736 C 107.499 -7.64886 -2.9555 0
M  V30 12737 O 107.109 -8.53963 -1.90717 0
M  V30 12738 C 106.619 -6.4116 -2.90739 0
M  V30 12739 C 107.329 -5.55375 -1.86963 0
M  V30 12740 N 107.279 -4.09448 -2.16152 0
M  V30 12741 H 110.118 -7.45574 -4.45629 0
M  V30 12742 H 110.39 -5.85864 -3.679 0
M  V30 12743 H 109.522 -7.84412 -2.24479 0
M  V30 12744 H 106.867 -5.73457 -0.888562 0
M  V30 12745 H 106.587 -5.90877 -3.88583 0
M  V30 12746 H 105.596 -6.6596 -2.58858 0
M  V30 12747 H 107.43 -8.16339 -3.92049 0
M  V30 12748 P 105.559 -8.7635 -1.60911 0
M  V30 12749 O 105.339 -10.1388 -1.11561 0
M  V30 12750 O 104.769 -8.36503 -2.79617 0
M  V30 12751 O 105.309 -7.71806 -0.42951 0
M  V30 12752 C 106.249 -7.66948 0.673514 0
M  V30 12753 C 105.519 -7.33374 1.95559 0
M  V30 12754 O 105.309 -5.88721 2.00726 0
M  V30 12755 C 104.119 -7.92218 2.1125 0
M  V30 12756 O 103.729 -8.02971 3.47653 0
M  V30 12757 C 103.239 -6.89504 1.41631 0
M  V30 12758 C 103.949 -5.59106 1.75155 0
M  V30 12759 N 103.899 -4.58136 0.662409 0
M  V30 12760 C 103.749 -3.26059 1.02863 0
M  V30 12761 O 103.659 -2.90743 2.19009 0
M  V30 12762 N 103.709 -2.35995 -0.0155585 0
M  V30 12763 C 103.799 -2.65248 -1.35603 0
M  V30 12764 O 103.749 -1.75605 -2.20651 0
M  V30 12765 C 103.949 -4.05747 -1.64698 0
M  V30 12766 C 104.059 -4.42345 -3.09553 0
M  V30 12767 C 103.999 -4.96734 -0.652411 0
M  V30 12768 H 106.74 -8.64917 0.776982 0
M  V30 12769 H 107.009 -6.89974 0.474015 0
M  V30 12770 H 106.142 -7.66548 2.79458 0
M  V30 12771 H 103.487 -5.16076 2.65138 0
M  V30 12772 H 103.208 -7.06433 0.329384 0
M  V30 12773 H 102.216 -6.90829 1.81996 0
M  V30 12774 H 104.05 -8.90774 1.62639 0
M  V30 12775 H 104.121 -6.02181 -0.895285 0
M  V30 12776 H 103.091 -4.80252 -3.45468 0
M  V30 12777 H 104.828 -5.20015 -3.22119 0
M  V30 12778 H 104.34 -3.53269 -3.67833 0
M  V30 12779 H 103.604 -1.39558 0.227499 0
M  V30 12780 P 102.179 -8.03563 3.84925 0
M  V30 12781 O 101.959 -8.85821 5.0569 0
M  V30 12782 O 101.389 -8.41101 2.65469 0
M  V30 12783 O 101.929 -6.4965 4.18908 0
M  V30 12784 C 102.869 -5.80886 5.05289 0
M  V30 12785 C 102.139 -4.78366 5.89277 0
M  V30 12786 O 101.929 -3.58302 5.08433 0
M  V30 12787 C 100.739 -5.16748 6.36559 0
M  V30 12788 O 100.349 -4.45271 7.53232 0
M  V30 12789 C 99.8594 -4.74572 5.19863 0
M  V30 12790 C 100.569 -3.49373 4.70338 0
M  V30 12791 N 100.519 -3.31704 3.22876 0
M  V30 12792 C 100.369 -2.03326 2.74871 0
M  V30 12793 O 100.279 -1.06486 3.48076 0
M  V30 12794 N 100.329 -1.91838 1.37456 0
M  V30 12795 C 100.419 -2.94295 0.462035 0
M  V30 12796 O 100.369 -2.71763 -0.752928 0
M  V30 12797 C 100.569 -4.25064 1.05249 0
M  V30 12798 C 100.679 -5.39815 0.095697 0
M  V30 12799 C 100.619 -4.40214 2.39192 0
M  V30 12800 H 103.36 -6.54063 5.71245 0
M  V30 12801 H 103.629 -5.30339 4.43905 0
M  V30 12802 H 102.762 -4.55889 6.76652 0
M  V30 12803 H 100.107 -2.6167 5.17842 0
M  V30 12804 H 99.8284 -5.52155 4.41878 0
M  V30 12805 H 98.8364 -4.51918 5.53297 0
M  V30 12806 H 100.67 -6.25055 6.55162 0
M  V30 12807 H 100.741 -5.39798 2.81523 0
M  V30 12808 H 99.7114 -5.91593 0.0279582 0
M  V30 12809 H 101.448 -6.10038 0.450573 0
M  V30 12810 H 100.96 -5.02007 -0.89937 0
M  V30 12811 H 100.224 -0.995326 1.00435 0
M  V30 12812 P 98.7994 -4.23843 7.83734 0
M  V30 12813 O 98.5794 -4.19407 9.29784 0
M  V30 12814 O 98.0094 -5.24426 7.09156 0
M  V30 12815 O 98.5494 -2.7935 7.20758 0
M  V30 12816 C 99.4894 -1.7299 7.50419 0
M  V30 12817 C 98.7594 -0.406376 7.57911 0
M  V30 12818 O 98.5494 0.0897726 6.21935 0
M  V30 12819 C 97.3594 -0.447224 8.1878 0
M  V30 12820 O 96.9694 0.825065 8.71101 0
M  V30 12821 C 96.4794 -0.783801 6.99623 0
M  V30 12822 C 97.1894 -0.0619192 5.85967 0
M  V30 12823 N 97.1394 -0.7859 4.56281 0
M  V30 12824 H 99.9784 -1.93423 8.4679 0
M  V30 12825 H 100.25 -1.68181 6.71046 0
M  V30 12826 H 99.3824 0.289041 8.15388 0
M  V30 12827 P 95.4195 1.17771 8.83182 0
M  V30 12828 O 95.1995 2.07206 9.98732 0
M  V30 12829 O 94.6295 -0.0743816 8.81969 0
M  V30 12830 O 95.1695 1.97652 7.47304 0
M  V30 12831 C 96.1095 3.01133 7.08783 0
M  V30 12832 C 95.3795 4.12613 6.37049 0
M  V30 12833 O 95.1695 3.72827 4.97879 0
M  V30 12834 C 93.9795 4.45085 6.88694 0
M  V30 12835 O 93.5895 5.7877 6.5624 0
M  V30 12836 C 93.0995 3.47817 6.12078 0
M  V30 12837 C 93.8095 3.39414 4.77697 0
M  V30 12838 N 93.7595 2.04615 4.15333 0
M  V30 12839 H 96.5985 3.41248 7.98759 0
M  V30 12840 H 96.8705 2.5837 6.41742 0
M  V30 12841 H 96.0025 5.02657 6.42673 0
M  V30 12842 P 92.0395 6.144 6.45285 0
M  V30 12843 O 91.8195 7.54673 6.86199 0
M  V30 12844 O 91.2495 5.12391 7.179 0
M  V30 12845 O 91.7895 5.99158 4.88404 0
M  V30 12846 C 92.7295 6.60234 3.96415 0
M  V30 12847 C 91.9995 7.08259 2.72856 0
M  V30 12848 O 91.7895 5.9427 1.83651 0
M  V30 12849 C 90.5995 7.64886 2.9555 0
M  V30 12850 O 90.2095 8.53963 1.90717 0
M  V30 12851 C 89.7195 6.4116 2.90739 0
M  V30 12852 C 90.4295 5.55375 1.86963 0
M  V30 12853 N 90.3795 4.09664 2.15742 0
M  V30 12854 C 90.4595 3.44381 3.37233 0
M  V30 12855 N 90.3795 2.14131 3.28347 0
M  V30 12856 C 90.2395 1.90247 1.91588 0
M  V30 12857 C 90.1095 0.683992 1.20892 0
M  V30 12858 N 89.9895 0.903396 -0.173998 0
M  V30 12859 C 89.9895 2.14171 -0.784879 0
M  V30 12860 N 89.8595 2.1435 -2.11317 0
M  V30 12861 N 90.1195 3.28784 -0.119316 0
M  V30 12862 C 90.2395 3.0977 1.22194 0
M  V30 12863 H 93.2185 7.45574 4.45629 0
M  V30 12864 H 93.4905 5.86232 3.67314 0
M  V30 12865 H 92.6225 7.84412 2.24479 0
M  V30 12866 P 88.6595 8.7635 1.60911 0
M  V30 12867 O 88.4395 10.1388 1.11561 0
M  V30 12868 O 87.8695 8.36503 2.79617 0
M  V30 12869 O 88.4095 7.71806 0.42951 0
M  V30 12870 C 89.3495 7.67148 -0.673689 0
M  V30 12871 C 88.6195 7.33374 -1.95559 0
M  V30 12872 O 88.4095 5.88721 -2.00726 0
M  V30 12873 C 87.2195 7.92526 -2.10483 0
M  V30 12874 O 86.8295 8.02971 -3.47653 0
M  V30 12875 C 86.3395 6.89602 -1.41652 0
M  V30 12876 C 87.0495 5.59201 -1.75185 0
M  V30 12877 N 86.9995 4.58235 -0.662552 0
M  V30 12878 H 89.8385 8.65116 -0.777161 0
M  V30 12879 H 90.1105 6.90173 -0.474152 0
M  V30 12880 H 89.2425 7.66548 -2.79458 0
M  V30 12881 P 85.2795 8.03563 -3.84925 0
M  V30 12882 O 85.0595 8.85821 -5.0569 0
M  V30 12883 O 84.4895 8.41101 -2.65469 0
M  V30 12884 O 85.0295 6.4965 -4.18908 0
M  V30 12885 C 85.9695 5.80886 -5.05289 0
M  V30 12886 C 85.2395 4.78366 -5.89277 0
M  V30 12887 O 85.0295 3.58302 -5.08433 0
M  V30 12888 C 83.8395 5.16748 -6.36559 0
M  V30 12889 O 83.4495 4.45271 -7.53232 0
M  V30 12890 C 82.9595 4.74572 -5.19863 0
M  V30 12891 C 83.6695 3.49373 -4.70338 0
M  V30 12892 N 83.6195 3.31704 -3.22876 0
M  V30 12893 C 83.4695 2.03326 -2.74871 0
M  V30 12894 O 83.3795 1.06486 -3.48076 0
M  V30 12895 N 83.4295 1.91838 -1.37456 0
M  V30 12896 C 83.5195 2.94295 -0.462035 0
M  V30 12897 C 83.6695 4.25064 -1.05249 0
M  V30 12898 C 83.7195 4.40214 -2.39192 0
M  V30 12899 H 86.4605 6.54063 -5.71245 0
M  V30 12900 H 86.7295 5.30339 -4.43905 0
M  V30 12901 H 85.8625 4.55889 -6.76652 0
M  V30 12902 H 83.2075 2.6167 -5.17842 0
M  V30 12903 H 82.9285 5.52155 -4.41878 0
M  V30 12904 H 81.9365 4.51918 -5.53297 0
M  V30 12905 H 83.7705 6.25055 -6.55162 0
M  V30 12906 H 83.8415 5.39798 -2.81523 0
M  V30 12907 P 81.8995 4.23843 -7.83734 0
M  V30 12908 O 81.6795 4.19407 -9.29784 0
M  V30 12909 O 81.1095 5.24426 -7.09156 0
M  V30 12910 O 81.6495 2.7935 -7.20758 0
M  V30 12911 C 82.5895 1.7299 -7.50419 0
M  V30 12912 C 81.8595 0.406376 -7.57911 0
M  V30 12913 O 81.6495 -0.0897726 -6.21935 0
M  V30 12914 C 80.4595 0.447224 -8.1878 0
M  V30 12915 O 80.0695 -0.825065 -8.71101 0
M  V30 12916 C 79.5795 0.783801 -6.99623 0
M  V30 12917 C 80.2895 0.0619192 -5.85967 0
M  V30 12918 N 80.2395 0.7859 -4.56281 0
M  V30 12919 H 83.0785 1.93423 -8.4679 0
M  V30 12920 H 83.3505 1.68181 -6.71046 0
M  V30 12921 H 82.4825 -0.289041 -8.15388 0
M  V30 12922 P 78.5196 -1.17771 -8.83182 0
M  V30 12923 O 78.2996 -2.07206 -9.98732 0
M  V30 12924 O 77.7296 0.0743816 -8.81969 0
M  V30 12925 O 78.2696 -1.97652 -7.47304 0
M  V30 12926 C 79.2096 -3.01133 -7.08783 0
M  V30 12927 C 78.4796 -4.12613 -6.37049 0
M  V30 12928 O 78.2696 -3.72827 -4.97879 0
M  V30 12929 C 77.0796 -4.45085 -6.88694 0
M  V30 12930 O 76.6896 -5.7877 -6.5624 0
M  V30 12931 C 76.1996 -3.47817 -6.12078 0
M  V30 12932 C 76.9096 -3.39414 -4.77697 0
M  V30 12933 N 76.8596 -2.04199 -4.15538 0
M  V30 12934 H 79.6986 -3.41248 -7.98759 0
M  V30 12935 H 79.9706 -2.57728 -6.42 0
M  V30 12936 H 79.1026 -5.02657 -6.42673 0
M  V30 12937 H 76.4476 -4.11708 -4.08956 0
M  V30 12938 H 76.1676 -2.49626 -6.61679 0
M  V30 12939 H 75.1766 -3.8662 -6.00862 0
M  V30 12940 H 77.0106 -4.29991 -7.97006 0
M  V30 12941 P 75.1396 -6.144 -6.45285 0
M  V30 12942 O 74.9196 -7.54673 -6.86199 0
M  V30 12943 O 74.3496 -5.12391 -7.179 0
M  V30 12944 O 74.8896 -5.99158 -4.88404 0
M  V30 12945 C 75.8296 -6.60234 -3.96415 0
M  V30 12946 C 75.0996 -7.08259 -2.72856 0
M  V30 12947 O 74.8896 -5.9427 -1.83651 0
M  V30 12948 C 73.6996 -7.64886 -2.9555 0
M  V30 12949 O 73.3096 -8.53963 -1.90717 0
M  V30 12950 C 72.8196 -6.4116 -2.90739 0
M  V30 12951 C 73.5296 -5.55375 -1.86963 0
M  V30 12952 N 73.4796 -4.09664 -2.15742 0
M  V30 12953 H 76.3186 -7.45574 -4.45629 0
M  V30 12954 H 76.5906 -5.86232 -3.67314 0
M  V30 12955 H 75.7226 -7.84412 -2.24479 0
M  V30 12956 P 71.7596 -8.7635 -1.60911 0
M  V30 12957 O 71.5396 -10.1388 -1.11561 0
M  V30 12958 O 70.9696 -8.36503 -2.79617 0
M  V30 12959 O 71.5096 -7.71806 -0.42951 0
M  V30 12960 C 72.4496 -7.67148 0.673689 0
M  V30 12961 C 71.7196 -7.33374 1.95559 0
M  V30 12962 O 71.5096 -5.88721 2.00726 0
M  V30 12963 C 70.3196 -7.92526 2.10483 0
M  V30 12964 O 69.9296 -8.02971 3.47653 0
M  V30 12965 C 69.4396 -6.89602 1.41652 0
M  V30 12966 C 70.1496 -5.59201 1.75185 0
M  V30 12967 N 70.0996 -4.58301 0.657969 0
M  V30 12968 H 72.9386 -8.65116 0.777161 0
M  V30 12969 H 73.2106 -6.9022 0.46725 0
M  V30 12970 H 72.3426 -7.66548 2.79458 0
M  V30 12971 H 69.6876 -5.16165 2.65183 0
M  V30 12972 H 69.4076 -7.06433 0.329384 0
M  V30 12973 H 68.4166 -6.90926 1.82021 0
M  V30 12974 H 70.2506 -8.90873 1.62657 0
M  V30 12975 P 68.3796 -8.03563 3.84925 0
M  V30 12976 O 68.1596 -8.85821 5.0569 0
M  V30 12977 O 67.5896 -8.41101 2.65469 0
M  V30 12978 O 68.1296 -6.4965 4.18908 0
M  V30 12979 C 69.0696 -5.81037 5.05421 0
M  V30 12980 C 68.3396 -4.78366 5.89277 0
M  V30 12981 O 68.1296 -3.58302 5.08433 0
M  V30 12982 C 66.9396 -5.17448 6.36119 0
M  V30 12983 O 66.5496 -4.45271 7.53232 0
M  V30 12984 C 66.0596 -4.74639 5.19936 0
M  V30 12985 C 66.7696 -3.49432 4.70418 0
M  V30 12986 N 66.7196 -3.31776 3.22945 0
M  V30 12987 H 69.5586 -6.54213 5.71376 0
M  V30 12988 H 69.8306 -5.30492 4.44033 0
M  V30 12989 H 68.9626 -4.55889 6.76652 0
M  V30 12990 P 64.9996 -4.23843 7.83734 0
M  V30 12991 O 64.7796 -4.19407 9.29784 0
M  V30 12992 O 64.2096 -5.24426 7.09156 0
M  V30 12993 O 64.7496 -2.7935 7.20758 0
M  V30 12994 C 65.6896 -1.72945 7.50224 0
M  V30 12995 C 64.9596 -0.406376 7.57911 0
M  V30 12996 O 64.7496 0.0897726 6.21935 0
M  V30 12997 C 63.5596 -0.438983 8.18724 0
M  V30 12998 O 63.1696 0.825065 8.71101 0
M  V30 12999 C 62.6796 -0.783689 6.99524 0
M  V30 13000 C 63.3896 -0.0619086 5.85867 0
M  V30 13001 N 63.3396 -0.78573 4.56183 0
M  V30 13002 C 63.1896 -0.0292889 3.41887 0
M  V30 13003 O 63.0996 1.18445 3.4419 0
M  V30 13004 N 63.1496 -0.744061 2.23964 0
M  V30 13005 C 63.2396 -2.10932 2.10362 0
M  V30 13006 C 63.3896 -2.8202 3.34994 0
M  V30 13007 C 63.4396 -2.15547 4.52261 0
M  V30 13008 H 66.1806 -1.93379 8.46595 0
M  V30 13009 H 66.4496 -1.68132 6.70852 0
M  V30 13010 H 65.5826 0.289041 8.15388 0
M  V30 13011 H 62.9276 0.926847 5.72749 0
M  V30 13012 H 62.6486 -1.86973 6.82036 0
M  V30 13013 H 61.6566 -0.403896 7.13257 0
M  V30 13014 H 63.4906 -1.20585 8.97435 0
M  V30 13015 H 63.5616 -2.71231 5.45042 0
M  V30 13016 P 61.6197 1.17771 8.83182 0
M  V30 13017 O 61.3997 2.07206 9.98732 0
M  V30 13018 O 60.8297 -0.0743816 8.81969 0
M  V30 13019 O 61.3697 1.97652 7.47304 0
M  V30 13020 C 62.3097 3.01133 7.08783 0
M  V30 13021 C 61.5797 4.12613 6.37049 0
M  V30 13022 O 61.3697 3.72827 4.97879 0
M  V30 13023 C 60.1797 4.45085 6.88694 0
M  V30 13024 O 59.7897 5.7877 6.5624 0
M  V30 13025 C 59.2997 3.47817 6.12078 0
M  V30 13026 C 60.0097 3.39414 4.77697 0
M  V30 13027 N 59.9597 2.04615 4.15333 0
M  V30 13028 H 62.7987 3.41248 7.98759 0
M  V30 13029 H 63.0707 2.5837 6.41742 0
M  V30 13030 H 62.2027 5.02657 6.42673 0
M  V30 13031 P 58.2397 6.144 6.45285 0
M  V30 13032 O 58.0197 7.54673 6.86199 0
M  V30 13033 O 57.4497 5.12391 7.179 0
M  V30 13034 O 57.9897 5.99158 4.88404 0
M  V30 13035 C 58.9297 6.60234 3.96415 0
M  V30 13036 C 58.1997 7.08259 2.72856 0
M  V30 13037 O 57.9897 5.9427 1.83651 0
M  V30 13038 C 56.7997 7.64886 2.9555 0
M  V30 13039 O 56.4097 8.53963 1.90717 0
M  V30 13040 C 55.9197 6.4116 2.90739 0
M  V30 13041 C 56.6297 5.55375 1.86963 0
M  V30 13042 N 56.5797 4.09664 2.15742 0
M  V30 13043 H 59.4187 7.45574 4.45629 0
M  V30 13044 H 59.6907 5.86232 3.67314 0
M  V30 13045 H 58.8227 7.84412 2.24479 0
M  V30 13046 P 54.8597 8.7635 1.60911 0
M  V30 13047 O 54.6397 10.1388 1.11561 0
M  V30 13048 O 54.0697 8.36503 2.79617 0
M  V30 13049 O 54.6097 7.71906 0.429565 0
M  V30 13050 C 55.5497 7.67148 -0.673689 0
M  V30 13051 C 54.8197 7.33666 -1.94851 0
M  V30 13052 O 54.6097 5.88816 -2.00759 0
M  V30 13053 C 53.4197 7.92526 -2.10483 0
M  V30 13054 O 53.0297 8.03063 -3.47693 0
M  V30 13055 C 52.5397 6.89602 -1.41652 0
M  V30 13056 C 53.2497 5.59201 -1.75185 0
M  V30 13057 N 53.1997 4.58235 -0.662552 0
M  V30 13058 C 53.0497 3.24451 -1.01643 0
M  V30 13059 O 52.9597 2.94958 -2.21722 0
M  V30 13060 N 52.9997 2.30408 0.165238 0
M  V30 13061 C 53.0997 2.66048 1.25118 0
M  V30 13062 N 53.0497 1.70787 2.16813 0
M  V30 13063 C 53.2497 4.02732 1.64413 0
M  V30 13064 C 53.2997 4.9488 0.63991 0
M  V30 13065 H 56.0397 8.65017 -0.777072 0
M  V30 13066 H 56.3097 6.90173 -0.474152 0
M  V30 13067 H 55.4427 7.66642 -2.79492 0
M  V30 13068 H 52.7877 5.16254 -2.65229 0
M  V30 13069 H 52.5077 7.06532 -0.329431 0
M  V30 13070 H 51.5167 6.91023 -1.82047 0
M  V30 13071 H 53.3507 8.90873 -1.62657 0
M  V30 13072 H 53.4227 6.00104 0.892197 0
M  V30 13073 H 53.3207 4.31733 2.69229 0
M  V30 13074 H 52.9327 0.724835 1.8844 0
M  V30 13075 H 53.1287 1.94716 3.16734 0
M  V30 13076 P 51.4797 8.03563 -3.84925 0
M  V30 13077 O 51.2597 8.85821 -5.0569 0
M  V30 13078 O 50.6897 8.41101 -2.65469 0
M  V30 13079 O 51.2297 6.4965 -4.18908 0
M  V30 13080 C 52.1697 5.81037 -5.05421 0
M  V30 13081 C 51.4397 4.78366 -5.89277 0
M  V30 13082 O 51.2297 3.58302 -5.08433 0
M  V30 13083 C 50.0397 5.17448 -6.36119 0
M  V30 13084 O 49.6497 4.45271 -7.53232 0
M  V30 13085 C 49.1597 4.74639 -5.19936 0
M  V30 13086 C 49.8697 3.49432 -4.70418 0
M  V30 13087 N 49.8197 3.31776 -3.22945 0
M  V30 13088 H 52.6587 6.54213 -5.71376 0
M  V30 13089 H 52.9307 5.30492 -4.44033 0
M  V30 13090 H 52.0627 4.55889 -6.76652 0
M  V30 13091 P 48.0997 4.23843 -7.83734 0
M  V30 13092 O 47.8797 4.19407 -9.29784 0
M  V30 13093 O 47.3097 5.24426 -7.09156 0
M  V30 13094 O 47.8497 2.7935 -7.20758 0
M  V30 13095 C 48.7897 1.7299 -7.50419 0
M  V30 13096 C 48.0597 0.406376 -7.57911 0
M  V30 13097 O 47.8497 -0.0897726 -6.21935 0
M  V30 13098 C 46.6597 0.447224 -8.1878 0
M  V30 13099 O 46.2697 -0.825065 -8.71101 0
M  V30 13100 C 45.7797 0.783801 -6.99623 0
M  V30 13101 C 46.4897 0.0619192 -5.85967 0
M  V30 13102 N 46.4397 0.7859 -4.56281 0
M  V30 13103 C 46.5197 2.14308 -4.31736 0
M  V30 13104 N 46.4397 2.46106 -3.05116 0
M  V30 13105 C 46.2997 1.23422 -2.4014 0
M  V30 13106 C 46.1697 0.938381 -1.02409 0
M  V30 13107 N 46.0497 -0.444647 -0.805413 0
M  V30 13108 C 46.0497 -1.40829 -1.79435 0
M  V30 13109 N 45.9197 -2.67213 -1.38558 0
M  V30 13110 N 46.1797 -1.12947 -3.09005 0
M  V30 13111 C 46.2997 0.204887 -3.32369 0
M  V30 13112 H 49.2787 1.93423 -8.4679 0
M  V30 13113 H 49.5507 1.68181 -6.71046 0
M  V30 13114 H 48.6827 -0.289041 -8.15388 0
M  V30 13115 P 44.7198 -1.17771 -8.83182 0
M  V30 13116 O 44.4998 -2.07206 -9.98732 0
M  V30 13117 O 43.9298 0.0743816 -8.81969 0
M  V30 13118 O 44.4698 -1.97652 -7.47304 0
M  V30 13119 C 45.4098 -3.01133 -7.08783 0
M  V30 13120 C 44.6798 -4.12613 -6.37049 0
M  V30 13121 O 44.4698 -3.72827 -4.97879 0
M  V30 13122 C 43.2798 -4.45085 -6.88694 0
M  V30 13123 O 42.8898 -5.7877 -6.5624 0
M  V30 13124 C 42.3998 -3.47817 -6.12078 0
M  V30 13125 C 43.1098 -3.39414 -4.77697 0
M  V30 13126 N 43.0598 -2.04615 -4.15333 0
M  V30 13127 H 45.8988 -3.41248 -7.98759 0
M  V30 13128 H 46.1708 -2.5837 -6.41742 0
M  V30 13129 H 45.3028 -5.02657 -6.42673 0
M  V30 13130 P 41.3398 -6.144 -6.45285 0
M  V30 13131 O 41.1198 -7.54673 -6.86199 0
M  V30 13132 O 40.5498 -5.12391 -7.179 0
M  V30 13133 O 41.0898 -5.99158 -4.88404 0
M  V30 13134 C 42.0298 -6.60234 -3.96415 0
M  V30 13135 C 41.2998 -7.08259 -2.72856 0
M  V30 13136 O 41.0898 -5.9427 -1.83651 0
M  V30 13137 C 39.8998 -7.64886 -2.9555 0
M  V30 13138 O 39.5098 -8.53963 -1.90717 0
M  V30 13139 C 39.0198 -6.4116 -2.90739 0
M  V30 13140 C 39.7298 -5.55375 -1.86963 0
M  V30 13141 N 39.6798 -4.09448 -2.16152 0
M  V30 13142 H 42.5188 -7.45574 -4.45629 0
M  V30 13143 H 42.7908 -5.85864 -3.679 0
M  V30 13144 H 41.9228 -7.84412 -2.24479 0
M  V30 13145 H 39.2678 -5.73457 -0.888562 0
M  V30 13146 H 38.9878 -5.90877 -3.88583 0
M  V30 13147 H 37.9968 -6.6596 -2.58858 0
M  V30 13148 H 39.8308 -8.16339 -3.92049 0
M  V30 13149 P 37.9598 -8.7635 -1.60911 0
M  V30 13150 O 37.7398 -10.1388 -1.11561 0
M  V30 13151 O 37.1698 -8.36503 -2.79617 0
M  V30 13152 O 37.7098 -7.71806 -0.42951 0
M  V30 13153 C 38.6498 -7.67148 0.673689 0
M  V30 13154 C 37.9198 -7.33374 1.95559 0
M  V30 13155 O 37.7098 -5.88721 2.00726 0
M  V30 13156 C 36.5198 -7.92526 2.10483 0
M  V30 13157 O 36.1298 -8.02971 3.47653 0
M  V30 13158 C 35.6398 -6.89602 1.41652 0
M  V30 13159 C 36.3498 -5.59201 1.75185 0
M  V30 13160 N 36.2998 -4.58235 0.662552 0
M  V30 13161 H 39.1388 -8.65116 0.777161 0
M  V30 13162 H 39.4108 -6.90173 0.474152 0
M  V30 13163 H 38.5428 -7.66548 2.79458 0
M  V30 13164 P 34.5798 -8.03563 3.84925 0
M  V30 13165 O 34.3598 -8.85821 5.0569 0
M  V30 13166 O 33.7898 -8.41101 2.65469 0
M  V30 13167 O 34.3298 -6.4965 4.18908 0
M  V30 13168 C 35.2698 -5.81037 5.05421 0
M  V30 13169 C 34.5398 -4.78366 5.89277 0
M  V30 13170 O 34.3298 -3.58302 5.08433 0
M  V30 13171 C 33.1398 -5.17448 6.36119 0
M  V30 13172 O 32.7498 -4.45271 7.53232 0
M  V30 13173 C 32.2598 -4.74639 5.19936 0
M  V30 13174 C 32.9698 -3.49432 4.70418 0
M  V30 13175 N 32.9198 -3.32099 3.22613 0
M  V30 13176 C 32.9998 -4.28245 2.25527 0
M  V30 13177 N 32.9298 -3.80823 1.04874 0
M  V30 13178 C 32.7798 -2.44571 1.23535 0
M  V30 13179 C 32.6498 -1.37068 0.330675 0
M  V30 13180 N 32.6398 -1.51472 -0.990824 0
M  V30 13181 N 32.5298 -0.138614 0.848756 0
M  V30 13182 C 32.5398 0.00675923 2.16999 0
M  V30 13183 N 32.6598 -0.904372 3.11122 0
M  V30 13184 C 32.7798 -2.12707 2.56212 0
M  V30 13185 H 35.7588 -6.54213 5.71376 0
M  V30 13186 H 36.0308 -5.30936 4.43503 0
M  V30 13187 H 35.1628 -4.55889 6.76652 0
M  V30 13188 H 32.5078 -2.61715 5.17932 0
M  V30 13189 H 32.2278 -5.52155 4.41878 0
M  V30 13190 H 31.2368 -4.51981 5.53374 0
M  V30 13191 H 33.0708 -6.25124 6.55234 0
M  V30 13192 H 33.1118 -5.34372 2.47488 0
M  V30 13193 H 32.7308 -2.45153 -1.4078 0
M  V30 13194 H 32.5418 -0.688422 -1.59911 0
M  V30 13195 H 32.4338 1.02584 2.52346 0
M  V30 13196 P 31.1998 -4.23843 7.83734 0
M  V30 13197 O 30.9798 -4.19407 9.29784 0
M  V30 13198 O 30.4098 -5.24426 7.09156 0
M  V30 13199 O 30.9498 -2.7935 7.20758 0
M  V30 13200 C 31.8898 -1.7299 7.50419 0
M  V30 13201 C 31.1598 -0.406376 7.57911 0
M  V30 13202 O 30.9498 0.0897726 6.21935 0
M  V30 13203 C 29.7598 -0.447224 8.1878 0
M  V30 13204 O 29.3698 0.825065 8.71101 0
M  V30 13205 C 28.8798 -0.783801 6.99623 0
M  V30 13206 C 29.5898 -0.0619192 5.85967 0
M  V30 13207 N 29.5398 -0.790462 4.56202 0
M  V30 13208 H 32.3788 -1.93423 8.4679 0
M  V30 13209 H 32.6508 -1.68852 6.70877 0
M  V30 13210 H 31.7828 0.289041 8.15388 0
M  V30 13211 H 29.1278 0.927006 5.72848 0
M  V30 13212 H 28.8478 -1.86973 6.82036 0
M  V30 13213 H 27.8568 -0.403953 7.13357 0
M  V30 13214 H 29.6908 -1.20599 8.97534 0
M  V30 13215 P 27.8199 1.17771 8.83182 0
M  V30 13216 O 27.5999 2.07206 9.98732 0
M  V30 13217 O 27.0299 -0.0743816 8.81969 0
M  V30 13218 O 27.5699 1.97652 7.47304 0
M  V30 13219 C 28.5099 3.01133 7.08783 0
M  V30 13220 C 27.7799 4.12613 6.37049 0
M  V30 13221 O 27.5699 3.72827 4.97879 0
M  V30 13222 C 26.3799 4.45085 6.88694 0
M  V30 13223 O 25.9899 5.7877 6.5624 0
M  V30 13224 C 25.4999 3.47817 6.12078 0
M  V30 13225 C 26.2099 3.39414 4.77697 0
M  V30 13226 N 26.1599 2.04615 4.15333 0
M  V30 13227 H 28.9989 3.41248 7.98759 0
M  V30 13228 H 29.2709 2.5837 6.41742 0
M  V30 13229 H 28.4029 5.02657 6.42673 0
M  V30 13230 P 24.4399 6.144 6.45285 0
M  V30 13231 O 24.2199 7.54673 6.86199 0
M  V30 13232 O 23.6499 5.12391 7.179 0
M  V30 13233 O 24.1899 5.99158 4.88404 0
M  V30 13234 C 25.1299 6.60062 3.96313 0
M  V30 13235 C 24.3999 7.08259 2.72856 0
M  V30 13236 O 24.1899 5.9427 1.83651 0
M  V30 13237 C 22.9999 7.65087 2.94749 0
M  V30 13238 O 22.6099 8.53963 1.90717 0
M  V30 13239 C 22.1199 6.41069 2.90698 0
M  V30 13240 C 22.8299 5.5528 1.86931 0
M  V30 13241 N 22.7799 4.09575 2.15696 0
M  V30 13242 C 22.6299 3.24249 1.08435 0
M  V30 13243 O 22.5399 3.63946 -0.0628747 0
M  V30 13244 N 22.5899 1.90009 1.39973 0
M  V30 13245 C 22.6799 1.34884 2.65614 0
M  V30 13246 C 22.8299 2.3145 3.71736 0
M  V30 13247 C 22.8799 3.63518 3.44754 0
M  V30 13248 H 25.6209 7.45402 4.45526 0
M  V30 13249 H 25.8899 5.86062 3.67208 0
M  V30 13250 H 25.0229 7.84412 2.24479 0
M  V30 13251 H 22.3679 5.73358 0.888409 0
M  V30 13252 H 22.0889 5.90877 3.88583 0
M  V30 13253 H 21.0969 6.65867 2.58821 0
M  V30 13254 H 22.9309 8.16248 3.92006 0
M  V30 13255 H 23.0019 4.34551 4.26383 0
M  V30 13256 P 21.0599 8.7635 1.60911 0
M  V30 13257 O 20.8399 10.1388 1.11561 0
M  V30 13258 O 20.2699 8.36503 2.79617 0
M  V30 13259 O 20.8099 7.71806 0.42951 0
M  V30 13260 C 21.7499 7.67148 -0.673689 0
M  V30 13261 C 21.0199 7.33374 -1.95559 0
M  V30 13262 O 20.8099 5.88721 -2.00726 0
M  V30 13263 C 19.6199 7.92526 -2.10483 0
M  V30 13264 O 19.2299 8.02971 -3.47653 0
M  V30 13265 C 18.7399 6.89602 -1.41652 0
M  V30 13266 C 19.4499 5.59201 -1.75185 0
M  V30 13267 N 19.3999 4.58235 -0.662552 0
M  V30 13268 H 22.2389 8.65116 -0.777161 0
M  V30 13269 H 22.5109 6.90173 -0.474152 0
M  V30 13270 H 21.6429 7.66548 -2.79458 0
M  V30 13271 P 17.6799 8.03563 -3.84925 0
M  V30 13272 O 17.4599 8.85821 -5.0569 0
M  V30 13273 O 16.8899 8.41101 -2.65469 0
M  V30 13274 O 17.4299 6.4965 -4.18908 0
M  V30 13275 C 18.3699 5.80886 -5.05289 0
M  V30 13276 C 17.6399 4.78366 -5.89277 0
M  V30 13277 O 17.4299 3.58302 -5.08433 0
M  V30 13278 C 16.2399 5.16748 -6.36559 0
M  V30 13279 O 15.8499 4.45271 -7.53232 0
M  V30 13280 C 15.3599 4.74572 -5.19863 0
M  V30 13281 C 16.0699 3.49373 -4.70338 0
M  V30 13282 N 16.0199 3.31704 -3.22876 0
M  V30 13283 C 15.8699 2.03326 -2.74871 0
M  V30 13284 O 15.7799 1.06486 -3.48076 0
M  V30 13285 N 15.8299 1.91838 -1.37456 0
M  V30 13286 C 15.9199 2.94295 -0.462035 0
M  V30 13287 O 15.8699 2.71763 0.752928 0
M  V30 13288 C 16.0699 4.25064 -1.05249 0
M  V30 13289 C 16.1799 5.39815 -0.095697 0
M  V30 13290 C 16.1199 4.40214 -2.39192 0
M  V30 13291 H 18.8609 6.54063 -5.71245 0
M  V30 13292 H 19.1299 5.30339 -4.43905 0
M  V30 13293 H 18.2629 4.55889 -6.76652 0
M  V30 13294 H 15.6079 2.6167 -5.17842 0
M  V30 13295 H 15.3289 5.52155 -4.41878 0
M  V30 13296 H 14.3369 4.51918 -5.53297 0
M  V30 13297 H 16.1709 6.25055 -6.55162 0
M  V30 13298 H 16.2419 5.39798 -2.81523 0
M  V30 13299 H 15.2119 5.91593 -0.0279582 0
M  V30 13300 H 16.9489 6.10038 -0.450573 0
M  V30 13301 H 16.4609 5.02007 0.89937 0
M  V30 13302 H 15.7249 0.995326 -1.00435 0
M  V30 13303 P 14.2999 4.23843 -7.83734 0
M  V30 13304 O 14.0799 4.19407 -9.29784 0
M  V30 13305 O 13.5099 5.24426 -7.09156 0
M  V30 13306 O 14.0499 2.7935 -7.20758 0
M  V30 13307 C 14.9899 1.7299 -7.50419 0
M  V30 13308 C 14.2599 0.406376 -7.57911 0
M  V30 13309 O 14.0499 -0.0897726 -6.21935 0
M  V30 13310 C 12.8599 0.447224 -8.1878 0
M  V30 13311 O 12.4699 -0.825065 -8.71101 0
M  V30 13312 C 11.9799 0.783801 -6.99623 0
M  V30 13313 C 12.6899 0.0619192 -5.85967 0
M  V30 13314 N 12.6399 0.7859 -4.56281 0
M  V30 13315 H 15.4789 1.93423 -8.4679 0
M  V30 13316 H 15.7509 1.68181 -6.71046 0
M  V30 13317 H 14.8829 -0.289041 -8.15388 0
M  V30 13318 P 10.92 -1.17771 -8.83182 0
M  V30 13319 O 10.7 -2.07206 -9.98732 0
M  V30 13320 O 10.13 0.0743816 -8.81969 0
M  V30 13321 O 10.67 -1.97652 -7.47304 0
M  V30 13322 C 11.61 -3.01133 -7.08783 0
M  V30 13323 C 10.88 -4.12613 -6.37049 0
M  V30 13324 O 10.67 -3.72827 -4.97879 0
M  V30 13325 C 9.47996 -4.45085 -6.88694 0
M  V30 13326 O 9.08996 -5.7877 -6.5624 0
M  V30 13327 C 8.59996 -3.47817 -6.12078 0
M  V30 13328 C 9.30996 -3.39414 -4.77697 0
M  V30 13329 N 9.25996 -2.04199 -4.15538 0
M  V30 13330 H 12.099 -3.41248 -7.98759 0
M  V30 13331 H 12.371 -2.57728 -6.42 0
M  V30 13332 H 11.503 -5.02657 -6.42673 0
M  V30 13333 H 8.84796 -4.11708 -4.08956 0
M  V30 13334 H 8.56796 -2.49626 -6.61679 0
M  V30 13335 H 7.57696 -3.8662 -6.00862 0
M  V30 13336 H 9.41096 -4.29991 -7.97006 0
M  V30 13337 P 7.53998 -6.144 -6.45285 0
M  V30 13338 O 7.31998 -7.54673 -6.86199 0
M  V30 13339 O 6.74998 -5.12391 -7.179 0
M  V30 13340 O 7.28998 -5.99158 -4.88404 0
M  V30 13341 C 8.22998 -6.60234 -3.96415 0
M  V30 13342 C 7.49998 -7.08259 -2.72856 0
M  V30 13343 O 7.28998 -5.9427 -1.83651 0
M  V30 13344 C 6.09998 -7.64886 -2.9555 0
M  V30 13345 O 5.70998 -8.53963 -1.90717 0
M  V30 13346 C 5.21998 -6.4116 -2.90739 0
M  V30 13347 C 5.92998 -5.55375 -1.86963 0
M  V30 13348 N 5.87998 -4.09664 -2.15742 0
M  V30 13349 H 8.71898 -7.45574 -4.45629 0
M  V30 13350 H 8.99098 -5.86232 -3.67314 0
M  V30 13351 H 8.12298 -7.84412 -2.24479 0
M  V30 13352 P 4.16 -8.7635 -1.60911 0
M  V30 13353 O 3.94 -10.1388 -1.11561 0
M  V30 13354 O 3.37 -8.36503 -2.79617 0
M  V30 13355 O 3.91 -7.71806 -0.42951 0
M  V30 13356 C 4.85 -7.67148 0.673689 0
M  V30 13357 C 4.12 -7.33374 1.95559 0
M  V30 13358 O 3.91 -5.88721 2.00726 0
M  V30 13359 C 2.72 -7.92526 2.10483 0
M  V30 13360 O 2.33 -8.02971 3.47653 0
M  V30 13361 C 1.84 -6.89602 1.41652 0
M  V30 13362 C 2.55 -5.59201 1.75185 0
M  V30 13363 N 2.5 -4.58235 0.662552 0
M  V30 13364 H 5.339 -8.65116 0.777161 0
M  V30 13365 H 5.611 -6.90173 0.474152 0
M  V30 13366 H 4.743 -7.66548 2.79458 0
M  V30 13367 H 1.613 -8.66322 3.55694 0
M  V30 END ATOM
M  V30 BEGIN BOND
M  V30 END BOND
M  V30 END CTAB
M  END
$$$$
