drugbank_target|Q5SLP8 30S ribosomal protein S6 (DB08185)
 OpenBabel12092120483D

  0  0  0     0  0            999 V3000
M  V30 BEGIN CTAB
M  V30 COUNTS 1700 1713 0 0 0
M  V30 BEGIN ATOM
M  V30 1 H -0.908 1.98254 -0.117106 0
M  V30 2 N 0 1.576 0 0
M  V30 3 C 0.933 2.03868 1.02534 0
M  V30 4 C 1.911 0.928543 1.3348 0
M  V30 5 O 3.095 1.19667 1.45644 0
M  V30 6 C 0.222 2.43627 2.35294 0
M  V30 7 C -0.732 3.65373 2.2001 0
M  V30 8 S 0.101 5.13292 1.52614 0
M  V30 9 C 1.257 5.56322 2.86805 0
M  V30 10 H 1.49 2.90518 0.631377 0
M  V30 11 H -0.977 1.52953 0.210867 0
M  V30 12 H 0.981 2.67203 3.11629 0
M  V30 13 H -0.358 1.57376 2.7183 0
M  V30 14 H -1.165 3.90944 3.18086 0
M  V30 15 H -1.563 3.418 1.51819 0
M  V30 16 H 0.729 5.58782 3.83104 0
M  V30 17 H 1.672 6.56266 2.65933 0
M  V30 18 H 2.08 4.83886 2.90714 0
M  V30 19 N 1.4781 -0.272755 1.55222 0
M  V30 20 C 2.8941 -0.619959 1.47067 0
M  V30 21 C 3.0941 -1.895 0.684978 0
M  V30 22 O 2.1501 -2.51675 0.203931 0
M  V30 23 C 3.4631 -0.746693 2.91282 0
M  V30 24 C 5.0111 -0.840731 3.01497 0
M  V30 25 C 5.4861 -0.99924 4.46967 0
M  V30 26 N 6.9771 -1.06476 4.50796 0
M  V30 27 C 7.7121 -1.20621 5.6057 0
M  V30 28 N 7.2081 -1.31483 6.80209 0
M  V30 29 N 9.0011 -1.23733 5.48312 0
M  V30 30 H 1.1521 0.564606 2.04758 0
M  V30 31 H 3.4151 0.191177 0.928523 0
M  V30 32 H 3.1211 0.119753 3.51496 0
M  V30 33 H 2.9951 -1.6269 3.40311 0
M  V30 34 H 5.3821 -1.69764 2.41379 0
M  V30 35 H 5.4631 0.0640874 2.5572 0
M  V30 36 H 5.1071 -0.146984 5.07687 0
M  V30 37 H 5.0371 -1.91871 4.90401 0
M  V30 38 H 7.5281 -0.993196 3.64615 0
M  V30 39 H 7.8411 -1.42111 7.59621 0
M  V30 40 H 6.1861 -1.28487 6.8302 0
M  V30 41 H 9.3771 -1.14877 4.53785 0
M  V30 42 H 9.5501 -1.34412 6.33906 0
M  V30 43 N 2.9562 -1.48159 -0.537278 0
M  V30 44 C 4.3722 -1.34118 -0.865129 0
M  V30 45 C 4.5722 -0.346678 -1.98495 0
M  V30 46 O 3.6282 0.234715 -2.51407 0
M  V30 47 C 4.9412 -2.73963 -1.23954 0
M  V30 48 C 6.4892 -2.82397 -1.34984 0
M  V30 49 C 6.9642 -4.22928 -1.75772 0
M  V30 50 N 8.4552 -4.25566 -1.82887 0
M  V30 51 C 9.1902 -5.31235 -2.15817 0
M  V30 52 N 8.6862 -6.47189 -2.47222 0
M  V30 53 N 10.4792 -5.18624 -2.16761 0
M  V30 54 H 2.6302 -2.1144 0.201715 0
M  V30 55 H 4.8932 -0.947598 0.0275949 0
M  V30 56 H 4.5992 -3.48264 -0.490381 0
M  V30 57 H 4.4732 -3.0702 -2.19132 0
M  V30 58 H 6.8602 -2.08356 -2.08978 0
M  V30 59 H 6.9412 -2.5297 -0.379448 0
M  V30 60 H 6.5852 -4.97482 -1.02341 0
M  V30 61 H 6.5152 -4.49794 -2.73848 0
M  V30 62 H 9.0062 -3.41924 -1.60924 0
M  V30 63 H 9.3192 -7.23564 -2.71433 0
M  V30 64 H 7.6642 -6.50476 -2.44757 0
M  V30 65 H 10.8552 -4.27056 -1.91679 0
M  V30 66 H 11.0282 -6.01078 -2.42093 0
M  V30 67 N 4.4343 0.785586 -1.36625 0
M  V30 68 C 5.6643 1.5722 -1.34036 0
M  V30 69 C 6.0723 1.89033 0.0795062 0
M  V30 70 O 5.4153 1.50881 1.04789 0
M  V30 71 C 5.4773 2.91759 -2.10041 0
M  V30 72 C 5.1413 2.82654 -3.59104 0
M  V30 73 C 6.1383 2.54634 -4.53274 0
M  V30 74 C 3.8233 3.01111 -4.02042 0
M  V30 75 C 5.8173 2.45177 -5.88359 0
M  V30 76 C 3.5043 2.91276 -5.37216 0
M  V30 77 C 4.5023 2.63348 -6.30188 0
M  V30 78 O 4.1903 2.53514 -7.6288 0
M  V30 79 H 3.9223 0.494177 -0.461265 0
M  V30 80 H 6.4763 0.982632 -1.8037 0
M  V30 81 H 4.7063 3.52781 -1.58375 0
M  V30 82 H 6.3953 3.53059 -2.00261 0
M  V30 83 H 7.1613 2.40073 -4.21414 0
M  V30 84 H 3.0403 3.21854 -3.30047 0
M  V30 85 H 6.5843 2.23299 -6.60896 0
M  V30 86 H 2.4813 3.054 -5.68684 0
M  V30 87 H 3.2493 2.68967 -7.73045 0
M  V30 88 N 5.9124 1.20967 1.01018 0
M  V30 89 C 6.8224 0.980157 2.13143 0
M  V30 90 C 7.8384 -0.0660665 1.73875 0
M  V30 91 O 9.0144 0.122821 2.01025 0
M  V30 92 C 6.0794 0.54216 3.42435 0
M  V30 93 C 5.1404 1.65999 3.95908 0
M  V30 94 C 4.3734 1.2428 5.19028 0
M  V30 95 O 4.5964 0.114196 5.70286 0
M  V30 96 O 3.5304 2.05271 5.65816 0
M  V30 97 H 7.3564 1.91913 2.35379 0
M  V30 98 H 4.9414 0.994099 1.11526 0
M  V30 99 H 6.8234 0.30744 4.20277 0
M  V30 100 H 5.4984 -0.36815 3.216 0
M  V30 101 H 4.4054 1.94906 3.19316 0
M  V30 102 H 5.7384 2.54753 4.21143 0
M  V30 103 N 7.3905 -1.2043 1.01659 0
M  V30 104 C 8.6365 -1.90079 0.706963 0
M  V30 105 C 8.9695 -1.78648 -0.761474 0
M  V30 106 O 8.2445 -1.17069 -1.55323 0
M  V30 107 C 8.5275 -3.41469 1.14327 0
M  V30 108 C 8.3805 -3.61833 2.67201 0
M  V30 109 C 9.6995 -4.34261 0.714529 0
M  V30 110 H 6.8185 -0.690254 0.2583 0
M  V30 111 H 9.4605 -1.41826 1.26433 0
M  V30 112 H 7.6105 -3.82696 0.669056 0
M  V30 113 H 9.2825 -3.2986 3.22475 0
M  V30 114 H 7.5255 -3.05304 3.08175 0
M  V30 115 H 8.1965 -4.67955 2.92783 0
M  V30 116 H 10.6725 -4.00682 1.12221 0
M  V30 117 H 9.5485 -5.38806 1.04784 0
M  V30 118 H 9.8095 -4.40431 -0.383799 0
M  V30 119 N 8.8686 -0.792821 -1.36206 0
M  V30 120 C 9.8166 -0.181555 -2.3189 0
M  V30 121 C 10.8106 0.661025 -1.55971 0
M  V30 122 O 12.0166 0.555728 -1.71206 0
M  V30 123 H 8.3916 -0.0399382 -0.750939 0
M  V30 124 H 10.3626 -1.00394 -2.81005 0
M  V30 125 C 9.1116 0.666444 -3.41253 0
M  V30 126 H 8.4346 0.0274489 -3.99791 0
M  V30 127 H 9.8746 1.06076 -4.10517 0
M  V30 128 C 8.3336 1.82614 -2.83114 0
M  V30 129 O 8.8636 2.9229 -2.75553 0
M  V30 130 N 7.0696 1.63333 -2.40356 0
M  V30 131 H 6.6166 0.741217 -2.46706 0
M  V30 132 H 6.5746 2.41087 -2.01803 0
M  V30 133 N 10.3467 1.47872 -0.545128 0
M  V30 134 C 11.5957 2.01695 -0.0145033 0
M  V30 135 C 11.9087 1.42609 1.33873 0
M  V30 136 O 13.1147 1.88021 1.95858 0
M  V30 137 C 11.5707 3.59892 0.0245068 0
M  V30 138 C 11.1787 4.27966 -1.32475 0
M  V30 139 C 12.9227 4.21507 0.50316 0
M  V30 140 C 10.8297 5.78136 -1.2455 0
M  V30 141 H 9.7597 0.753998 -0.00165172 0
M  V30 142 H 12.4107 1.69985 -0.691175 0
M  V30 143 H 10.7927 3.88509 0.766575 0
M  V30 144 H 11.9667 4.11003 -2.08357 0
M  V30 145 H 10.2817 3.78286 -1.74036 0
M  V30 146 H 12.8787 5.31538 0.580656 0
M  V30 147 H 13.2217 3.87855 1.51243 0
M  V30 148 H 13.7547 3.97376 -0.183681 0
M  V30 149 H 10.4937 6.16388 -2.23039 0
M  V30 150 H 10.0137 5.97469 -0.528282 0
M  V30 151 H 11.6927 6.40099 -0.942488 0
M  V30 152 N 11.8248 0.280983 1.55075 0
M  V30 153 C 13.0708 -0.33461 2.00021 0
M  V30 154 C 13.4038 -1.55063 1.16915 0
M  V30 155 O 12.6788 -1.93006 0.240646 0
M  V30 156 C 12.9618 -0.711007 3.53011 0
M  V30 157 C 12.8148 0.512766 4.46868 0
M  V30 158 C 14.1338 -1.54522 4.12081 0
M  V30 159 H 11.2528 -0.120147 0.727141 0
M  V30 160 H 13.8948 0.389097 1.85973 0
M  V30 161 H 12.0448 -1.32761 3.65112 0
M  V30 162 H 13.7168 1.15131 4.46702 0
M  V30 163 H 11.9598 1.14975 4.18286 0
M  V30 164 H 12.6308 0.205556 5.51617 0
M  V30 165 H 15.1068 -1.02442 4.03293 0
M  V30 166 H 13.9828 -1.77739 5.19327 0
M  V30 167 H 14.2438 -2.52813 3.62682 0
M  V30 168 N 13.3029 -1.57598 0.00835791 0
M  V30 169 C 14.2329 -2.1198 -0.979113 0
M  V30 170 C 15.2139 -1.03091 -1.35301 0
M  V30 171 O 16.3989 -1.30818 -1.43528 0
M  V30 172 C 13.5289 -2.62995 -2.26828 0
M  V30 173 C 12.4829 -3.76485 -2.03576 0
M  V30 174 C 11.8089 -4.13846 -3.38579 0
M  V30 175 C 13.1089 -5.0342 -1.39161 0
M  V30 176 H 14.8029 -2.94738 -0.526281 0
M  V30 177 H 12.3489 -1.41783 -0.251704 0
M  V30 178 H 14.3019 -2.99669 -2.96271 0
M  V30 179 H 13.0259 -1.7737 -2.7424 0
M  V30 180 H 11.6849 -3.40217 -1.36557 0
M  V30 181 H 11.3329 -3.25232 -3.83709 0
M  V30 182 H 11.0329 -4.90312 -3.23834 0
M  V30 183 H 12.5569 -4.53086 -4.09323 0
M  V30 184 H 13.9709 -5.37812 -1.98573 0
M  V30 185 H 12.3679 -5.84746 -1.34878 0
M  V30 186 H 13.4379 -4.83548 -0.361868 0
M  V30 187 N 14.781 0.264519 -1.55364 0
M  V30 188 C 15.729 1.34702 -1.89626 0
M  V30 189 C 16.723 1.50712 -0.773459 0
M  V30 190 O 17.929 1.52395 -0.957897 0
M  V30 191 H 14.304 0.450682 -0.601988 0
M  V30 192 H 16.275 1.0306 -2.80038 0
M  V30 193 C 15.024 2.6989 -2.19214 0
M  V30 194 H 14.347 2.58365 -3.05103 0
M  V30 195 H 15.787 3.44553 -2.47102 0
M  V30 196 C 14.246 3.21637 -1.00254 0
M  V30 197 O 14.776 4.00973 -0.241501 0
M  V30 198 N 12.982 2.7943 -0.797938 0
M  V30 199 H 12.529 2.15026 -1.4185 0
M  V30 200 H 12.487 3.144 -0.00363422 0
M  V30 201 N 16.2591 1.48442 0.529413 0
M  V30 202 C 17.6701 1.5002 1.11134 0
M  V30 203 C 18.0211 0.27031 1.94329 0
M  V30 204 O 17.1461 -0.622507 2.07253 0
M  V30 205 C 17.7411 2.71834 2.02217 0
M  V30 206 C 16.3001 2.76283 2.55627 0
M  V30 207 C 15.4471 2.43542 1.326 0
M  V30 208 H 18.3981 1.5555 0.314641 0
M  V30 209 H 18.4191 2.50384 2.8651 0
M  V30 210 H 17.9311 3.61331 1.41639 0
M  V30 211 H 16.0321 1.90995 3.19924 0
M  V30 212 H 16.1451 3.77725 2.94721 0
M  V30 213 H 14.5091 1.94709 1.64196 0
M  V30 214 H 15.2921 3.3528 0.737734 0
M  V30 215 N 17.7372 -0.778329 1.37039 0
M  V30 216 C 18.6852 -1.91278 1.32345 0
M  V30 217 C 19.6792 -1.68051 0.213331 0
M  V30 218 O 20.8852 -1.75922 0.38098 0
M  V30 219 H 17.2602 -0.628909 0.412283 0
M  V30 220 H 19.2312 -1.92355 2.28127 0
M  V30 221 C 17.9802 -3.28455 1.14073 0
M  V30 222 H 17.3032 -3.46901 1.98746 0
M  V30 223 H 18.7432 -4.08152 1.14837 0
M  V30 224 C 17.2022 -3.36548 -0.154015 0
M  V30 225 O 17.7322 -3.85186 -1.13993 0
M  V30 226 N 15.9382 -2.89894 -0.202475 0
M  V30 227 H 15.4852 -2.50504 0.600476 0
M  V30 228 H 15.4432 -2.9569 -1.06841 0
M  V30 229 N 19.2153 -1.21501 -1.00376 0
M  V30 230 C 20.1453 -0.999478 -2.11028 0
M  V30 231 C 21.1263 0.0759671 -1.6993 0
M  V30 232 O 22.3113 -0.0841106 -1.94018 0
M  V30 233 C 19.4413 -0.564709 -3.42678 0
M  V30 234 C 18.3953 -1.58486 -3.97576 0
M  V30 235 C 17.7213 -1.00628 -5.25146 0
M  V30 236 C 19.0213 -2.97204 -4.29496 0
M  V30 237 H 20.7153 -1.92495 -2.29317 0
M  V30 238 H 18.2613 -0.92693 -1.102 0
M  V30 239 H 20.2143 -0.401091 -4.19487 0
M  V30 240 H 18.9383 0.396411 -3.24185 0
M  V30 241 H 17.5973 -1.73606 -3.22888 0
M  V30 242 H 17.2453 -0.0368439 -5.02987 0
M  V30 243 H 16.9453 -1.68771 -5.62841 0
M  V30 244 H 18.4693 -0.854015 -6.04598 0
M  V30 245 H 19.8833 -2.8552 -4.97143 0
M  V30 246 H 18.2803 -3.62372 -4.78338 0
M  V30 247 H 19.3503 -3.47956 -3.3772 0
M  V30 248 N 20.6934 1.19889 -1.02296 0
M  V30 249 C 21.9704 1.85148 -0.630832 0
M  V30 250 C 22.3504 1.91385 0.890782 0
M  V30 251 O 21.6984 1.42642 1.78509 0
M  V30 252 C 21.9084 3.24442 -1.28602 0
M  V30 253 C 23.2564 4.00663 -1.4055 0
M  V30 254 O 24.2804 3.33818 -1.24273 0
M  V30 255 O 23.1394 5.20387 -1.66913 0
M  V30 256 H 20.2334 0.797613 -0.218499 0
M  V30 257 H 22.7794 1.27427 -1.12074 0
M  V30 258 H 21.5514 3.14704 -2.32545 0
M  V30 259 H 21.1744 3.89802 -0.7836 0
M  V30 260 N 22.1715 0.800033 1.35784 0
M  V30 261 C 23.1035 0.163596 2.28615 0
M  V30 262 C 24.1165 -0.633317 1.49976 0
M  V30 263 O 25.3055 -0.466754 1.72289 0
M  V30 264 C 22.4055 -0.790958 3.29541 0
M  V30 265 C 21.5785 -0.0418255 4.3738 0
M  V30 266 C 20.6375 -0.91389 5.18203 0
M  V30 267 O 19.6635 -0.367234 5.68014 0
M  V30 268 N 20.8655 -2.23682 5.35674 0
M  V30 269 H 23.6305 0.96105 2.83873 0
M  V30 270 H 21.1915 0.654894 1.48063 0
M  V30 271 H 23.1835 -1.37844 3.80501 0
M  V30 272 H 21.7535 -1.48925 2.74846 0
M  V30 273 H 20.9735 0.726813 3.87442 0
M  V30 274 H 22.2615 0.474719 5.06581 0
M  V30 275 H 21.6595 -2.70497 4.96838 0
M  V30 276 H 20.2165 -2.77369 5.89839 0
M  V30 277 N 23.6496 -1.47581 0.552962 0
M  V30 278 C 24.8746 -2.07378 0.0300593 0
M  V30 279 C 25.2996 -1.40355 -1.25229 0
M  V30 280 O 24.6576 -0.477099 -1.7491 0
M  V30 281 C 24.7056 -3.60274 -0.153231 0
M  V30 282 O 23.8096 -3.94041 -1.21678 0
M  V30 283 H 23.1506 -0.662158 0.0494182 0
M  V30 284 H 25.6806 -1.89662 0.767434 0
M  V30 285 H 25.6906 -4.0633 -0.368761 0
M  V30 286 H 24.3656 -4.08455 0.783397 0
M  V30 287 H 22.9426 -3.59735 -0.982079 0
M  V30 288 N 25.1277 -0.289203 -1.54924 0
M  V30 289 C 26.0597 0.625583 -2.20497 0
M  V30 290 C 27.0727 1.10667 -1.19402 0
M  V30 291 O 28.2617 1.02615 -1.46056 0
M  V30 292 C 25.3617 1.86702 -2.82835 0
M  V30 293 C 24.5347 1.5304 -4.09753 0
M  V30 294 C 23.5937 2.62576 -4.56005 0
M  V30 295 O 22.6197 2.28167 -5.21468 0
M  V30 296 N 23.8217 3.92901 -4.27328 0
M  V30 297 H 26.5867 0.0642801 -2.99631 0
M  V30 298 H 24.1477 -0.110896 -1.6152 0
M  V30 299 H 26.1397 2.59304 -3.10715 0
M  V30 300 H 24.7097 2.33702 -2.07611 0
M  V30 301 H 23.9297 0.637564 -3.8901 0
M  V30 302 H 25.2177 1.28072 -4.92418 0
M  V30 303 H 24.6157 4.23671 -3.74859 0
M  V30 304 H 23.1727 4.61837 -4.59946 0
M  V30 305 N 26.6058 1.57591 -0.0167156 0
M  V30 306 C 27.5358 2.12496 0.967858 0
M  V30 307 C 28.5168 1.03807 1.34752 0
M  V30 308 O 29.7018 1.31577 1.42833 0
M  V30 309 C 26.8318 2.64194 2.25431 0
M  V30 310 C 25.7858 3.77559 2.01576 0
M  V30 311 C 25.1118 4.15636 3.36379 0
M  V30 312 C 26.4118 5.04151 1.36489 0
M  V30 313 H 28.1058 2.95013 0.510643 0
M  V30 314 H 25.6518 1.41915 0.244181 0
M  V30 315 H 27.6048 3.01236 2.94678 0
M  V30 316 H 26.3288 1.78821 2.73296 0
M  V30 317 H 24.9878 3.40937 1.34751 0
M  V30 318 H 24.6358 3.27263 3.81979 0
M  V30 319 H 24.3358 4.92022 3.21229 0
M  V30 320 H 25.8598 4.5525 4.06915 0
M  V30 321 H 27.2738 5.38857 1.95718 0
M  V30 322 H 25.6708 5.85453 1.31776 0
M  V30 323 H 26.7408 4.83733 0.336219 0
M  V30 324 N 28.0839 -0.256276 1.55502 0
M  V30 325 C 29.0469 -1.30047 1.88734 0
M  V30 326 C 30.0469 -1.4154 0.763086 0
M  V30 327 O 31.2369 -1.40403 1.03115 0
M  V30 328 C 28.3689 -2.67953 2.10747 0
M  V30 329 H 29.5619 -1.01802 2.82093 0
M  V30 330 H 27.1149 -0.495134 1.4825 0
M  V30 331 H 27.8499 -3.01351 1.19825 0
M  V30 332 H 27.6349 -2.60993 2.92617 0
M  V30 333 H 29.1249 -3.43368 2.37673 0
M  V30 334 N 29.562 -1.4872 -0.521534 0
M  V30 335 C 30.492 -1.66771 -1.63431 0
M  V30 336 C 31.473 -0.516499 -1.62069 0
M  V30 337 O 32.658 -0.750013 -1.79132 0
M  V30 338 C 29.788 -1.71515 -3.01993 0
M  V30 339 C 28.742 -2.86222 -3.18216 0
M  V30 340 C 28.068 -2.76061 -4.57924 0
M  V30 341 C 29.368 -4.27419 -3.00184 0
M  V30 342 H 31.062 -2.59932 -1.48579 0
M  V30 343 H 28.608 -1.25089 -0.713358 0
M  V30 344 H 30.561 -1.82731 -3.7972 0
M  V30 345 H 29.285 -0.749393 -3.17886 0
M  V30 346 H 27.944 -2.74575 -2.42908 0
M  V30 347 H 27.592 -1.77437 -4.70665 0
M  V30 348 H 27.292 -3.53037 -4.69722 0
M  V30 349 H 28.816 -2.89256 -5.37739 0
M  V30 350 H 30.23 -4.39855 -3.67697 0
M  V30 351 H 28.627 -5.05458 -3.2347 0
M  V30 352 H 29.697 -4.43293 -1.96518 0
M  V30 353 N 31.0401 0.771051 -1.3745 0
M  V30 354 C 31.9501 1.91538 -1.35464 0
M  V30 355 C 32.9661 1.72134 -0.254123 0
M  V30 356 O 34.1421 1.95358 -0.489626 0
M  V30 357 C 31.2071 3.26671 -1.16134 0
M  V30 358 C 30.2681 3.58723 -2.35831 0
M  V30 359 C 29.5011 4.87409 -2.17413 0
M  V30 360 O 29.7241 5.58506 -1.15876 0
M  V30 361 O 28.6581 5.18539 -3.05615 0
M  V30 362 H 32.4841 1.96165 -2.31847 0
M  V30 363 H 30.0691 0.9139 -1.18187 0
M  V30 364 H 31.9511 4.07499 -1.07345 0
M  V30 365 H 30.6261 3.22894 -0.228251 0
M  V30 366 H 29.5331 2.78127 -2.50192 0
M  V30 367 H 30.8661 3.67243 -3.27709 0
M  V30 368 N 32.5182 1.22032 0.997298 0
M  V30 369 C 33.4652 0.986467 2.08656 0
M  V30 370 C 34.4352 -0.0902671 1.65855 0
M  V30 371 O 35.6202 0.0584294 1.90711 0
M  V30 372 C 32.7602 0.565569 3.40434 0
M  V30 373 C 31.8732 1.71259 3.96604 0
M  V30 374 C 31.0082 1.24011 5.16522 0
M  V30 375 C 30.0472 2.35896 5.64818 0
M  V30 376 N 29.1842 1.89726 6.7598 0
M  V30 377 H 34.0242 1.91892 2.27994 0
M  V30 378 H 31.5612 0.956199 1.11782 0
M  V30 379 H 33.5192 0.302738 4.161 0
M  V30 380 H 32.1492 -0.329879 3.2111 0
M  V30 381 H 31.2012 2.08986 3.17851 0
M  V30 382 H 32.5132 2.55436 4.28432 0
M  V30 383 H 31.6672 0.934395 5.99461 0
M  V30 384 H 30.4062 0.368487 4.86306 0
M  V30 385 H 29.4112 2.67261 4.8047 0
M  V30 386 H 30.6362 3.23567 5.97061 0
M  V30 387 H 28.5822 1.0492 6.47555 0
M  V30 388 H 28.4992 2.67471 7.07103 0
M  V30 389 H 29.7672 1.62211 7.62435 0
M  V30 390 N 33.9963 -1.19345 1.0293 0
M  V30 391 C 34.9063 -2.26245 0.620515 0
M  V30 392 C 35.9223 -1.70486 -0.347928 0
M  V30 393 O 37.0983 -2.00347 -0.205704 0
M  V30 394 C 34.1633 -3.46693 -0.0218957 0
M  V30 395 C 33.2243 -4.17632 0.994102 0
M  V30 396 C 32.4573 -5.32329 0.382253 0
M  V30 397 O 32.6803 -5.64552 -0.814676 0
M  V30 398 O 31.6143 -5.91664 1.10531 0
M  V30 399 H 35.4403 -2.63453 1.51083 0
M  V30 400 H 33.0253 -1.26207 0.799513 0
M  V30 401 H 34.9073 -4.19683 -0.380072 0
M  V30 402 H 33.5823 -3.11333 -0.886209 0
M  V30 403 H 32.4893 -3.4676 1.40387 0
M  V30 404 H 33.8223 -4.56964 1.8288 0
M  V30 405 N 35.4744 -0.807222 -1.35358 0
M  V30 406 C 36.7234 -0.384376 -1.98004 0
M  V30 407 C 37.0364 1.0543 -1.64754 0
M  V30 408 O 38.2424 1.58029 -2.20769 0
M  V30 409 C 36.6984 -0.636326 -3.5423 0
M  V30 410 C 36.3064 -2.08759 -3.96388 0
M  V30 411 C 38.0504 -0.278869 -4.23583 0
M  V30 412 C 35.9574 -2.28525 -5.45463 0
M  V30 413 H 34.8874 -0.139986 -0.740891 0
M  V30 414 H 37.5384 -0.991369 -1.54415 0
M  V30 415 H 35.9204 0.0406256 -3.95979 0
M  V30 416 H 37.0944 -2.8024 -3.6579 0
M  V30 417 H 35.4094 -2.40497 -3.39926 0
M  V30 418 H 38.0064 -0.404599 -5.33167 0
M  V30 419 H 38.3494 0.775012 -4.09022 0
M  V30 420 H 38.8824 -0.909764 -3.87257 0
M  V30 421 H 35.6214 -3.32361 -5.64992 0
M  V30 422 H 35.1414 -1.61569 -5.77629 0
M  V30 423 H 36.8204 -2.10109 -6.11934 0
M  V30 424 N 36.9525 1.47285 -0.560781 0
M  V30 425 C 38.2015 2.01668 -0.035895 0
M  V30 426 C 38.5145 1.44021 1.32353 0
M  V30 427 O 39.7205 1.90088 1.93853 0
M  V30 428 C 38.1765 3.59897 -0.0136659 0
M  V30 429 C 37.7845 4.26536 -1.37006 0
M  V30 430 C 39.5285 4.22017 0.458425 0
M  V30 431 C 37.4355 5.76782 -1.30675 0
M  V30 432 H 36.3655 0.753938 -0.00964879 0
M  V30 433 H 39.0165 1.69243 -0.709166 0
M  V30 434 H 37.3985 3.89301 0.725325 0
M  V30 435 H 38.5725 4.0877 -2.12705 0
M  V30 436 H 36.8875 3.76419 -1.78038 0
M  V30 437 H 39.4845 5.32124 0.524247 0
M  V30 438 H 39.8275 3.89437 1.4712 0
M  V30 439 H 40.3605 3.97159 -0.225818 0
M  V30 440 H 37.0995 6.13988 -2.29564 0
M  V30 441 H 36.6195 5.96875 -0.591622 0
M  V30 442 H 38.2985 6.39063 -1.01033 0
M  V30 443 N 38.4306 0.297415 1.54768 0
M  V30 444 C 39.3626 -0.613881 2.20826 0
M  V30 445 C 40.3756 -1.10032 1.19987 0
M  V30 446 O 41.5646 -1.01839 1.46598 0
M  V30 447 C 38.6646 -1.852 2.83821 0
M  V30 448 C 37.8376 -1.50865 4.10559 0
M  V30 449 C 36.8966 -2.60154 4.57391 0
M  V30 450 O 35.9226 -2.25398 5.2267 0
M  V30 451 N 37.1246 -3.90629 4.29406 0
M  V30 452 H 39.8896 -0.048389 2.99661 0
M  V30 453 H 37.4506 0.11946 1.61459 0
M  V30 454 H 39.4426 -2.57652 3.12086 0
M  V30 455 H 38.0126 -2.32597 2.08847 0
M  V30 456 H 37.2326 -0.616925 3.89343 0
M  V30 457 H 38.5206 -1.25458 4.9309 0
M  V30 458 H 37.9186 -4.21677 3.77101 0
M  V30 459 H 36.4756 -4.59391 4.62388 0
M  V30 460 N 39.9087 -1.5758 0.0250728 0
M  V30 461 C 41.3247 -1.56124 -0.331282 0
M  V30 462 C 41.5247 -1.03029 -1.73169 0
M  V30 463 O 40.5807 -0.675215 -2.43305 0
M  V30 464 C 41.8937 -3.00139 -0.183584 0
M  V30 465 C 43.4417 -3.11946 -0.256654 0
M  V30 466 C 43.9167 -4.57793 -0.137792 0
M  V30 467 N 45.4077 -4.6279 -0.194904 0
M  V30 468 C 46.1427 -5.7326 -0.126655 0
M  V30 469 N 45.6387 -6.928 -0.00755288 0
M  V30 470 N 47.4317 -5.61811 -0.180348 0
M  V30 471 H 39.5827 -1.90424 0.94087 0
M  V30 472 H 41.8457 -0.875761 0.362968 0
M  V30 473 H 41.5517 -3.4292 0.780927 0
M  V30 474 H 41.4257 -3.64899 -0.955448 0
M  V30 475 H 43.8127 -2.69079 -1.21162 0
M  V30 476 H 43.8937 -2.49915 0.545517 0
M  V30 477 H 43.5377 -5.01339 0.813739 0
M  V30 478 H 43.4677 -5.17798 -0.958775 0
M  V30 479 H 45.9587 -3.76807 -0.287267 0
M  V30 480 H 46.2717 -7.72791 0.0379428 0
M  V30 481 H 44.6167 -6.94995 0.0271731 0
M  V30 482 H 47.8077 -4.6731 -0.271767 0
M  V30 483 H 47.9807 -6.47882 -0.123697 0
M  V30 484 N 41.3868 0.248026 -1.55636 0
M  V30 485 C 42.3498 1.29044 -1.89421 0
M  V30 486 C 43.3498 1.41134 -0.770581 0
M  V30 487 O 44.5398 1.39854 -1.03858 0
M  V30 488 C 41.6718 2.66831 -2.12165 0
M  V30 489 H 42.8648 1.00305 -2.82629 0
M  V30 490 H 40.4178 0.487265 -1.48511 0
M  V30 491 H 41.1528 3.00711 -1.21422 0
M  V30 492 H 40.9378 2.59438 -2.93997 0
M  V30 493 H 42.4278 3.42103 -2.3949 0
M  V30 494 N 42.8649 1.48995 0.513639 0
M  V30 495 C 43.7949 1.67636 1.62544 0
M  V30 496 C 44.7759 0.525087 1.61793 0
M  V30 497 O 45.9609 0.759502 1.78732 0
M  V30 498 C 43.0909 1.73114 3.01079 0
M  V30 499 C 42.0449 2.87905 3.16693 0
M  V30 500 C 41.3709 2.78486 4.56453 0
M  V30 501 C 42.6709 4.29005 2.97913 0
M  V30 502 H 44.3649 2.60716 1.47198 0
M  V30 503 H 41.9109 1.25465 0.706714 0
M  V30 504 H 43.8639 1.84742 3.78746 0
M  V30 505 H 42.5879 0.766241 3.17484 0
M  V30 506 H 41.2469 2.75859 2.41448 0
M  V30 507 H 40.8949 1.7993 4.69717 0
M  V30 508 H 40.5949 3.55523 4.67843 0
M  V30 509 H 42.1189 2.92104 5.36197 0
M  V30 510 H 43.5329 4.41798 3.65359 0
M  V30 511 H 41.9299 5.07166 3.20785 0
M  V30 512 H 42.9999 4.44329 1.94165 0
M  V30 513 N 44.343 -0.763751 1.37857 0
M  V30 514 C 45.253 -1.90817 1.36478 0
M  V30 515 C 46.269 -1.71997 0.263248 0
M  V30 516 O 47.445 -1.95095 0.499979 0
M  V30 517 C 44.51 -3.2605 1.17864 0
M  V30 518 C 43.571 -3.57467 2.3773 0
M  V30 519 C 42.804 -4.86249 2.19995 0
M  V30 520 O 43.027 -5.57884 1.18836 0
M  V30 521 O 41.961 -5.16911 3.08361 0
M  V30 522 H 45.787 -1.94933 2.32884 0
M  V30 523 H 43.372 -0.907619 1.1867 0
M  V30 524 H 45.254 -4.06924 1.09504 0
M  V30 525 H 43.929 -3.22769 0.245372 0
M  V30 526 H 42.836 -2.76796 2.51664 0
M  V30 527 H 44.169 -3.655 3.29652 0
M  V30 528 N 45.8211 -1.22559 -0.990812 0
M  V30 529 C 46.7691 -0.994798 -2.10253 0
M  V30 530 C 47.7631 0.0627798 -1.69284 0
M  V30 531 O 48.9691 -0.0898392 -1.79776 0
M  V30 532 H 45.3441 -0.304527 -0.687581 0
M  V30 533 H 47.3151 -1.93812 -2.26891 0
M  V30 534 C 46.0641 -0.591439 -3.42633 0
M  V30 535 H 45.3871 -1.3969 -3.74602 0
M  V30 536 H 46.8271 -0.469385 -4.21394 0
M  V30 537 C 45.2861 0.699232 -3.29564 0
M  V30 538 O 45.8161 1.75112 -3.61523 0
M  V30 539 N 44.0221 0.671182 -2.82743 0
M  V30 540 H 43.5691 -0.185136 -2.56934 0
M  V30 541 H 43.5271 1.53502 -2.7438 0
M  V30 542 N 47.2992 1.18797 -1.03562 0
M  V30 543 C 48.5292 1.92319 -0.754773 0
M  V30 544 C 48.9372 1.7612 0.691248 0
M  V30 545 O 48.2802 1.08491 1.48241 0
M  V30 546 C 48.3422 3.44284 -1.03484 0
M  V30 547 C 48.0062 3.84258 -2.47376 0
M  V30 548 C 49.0032 3.88459 -3.45537 0
M  V30 549 C 46.6882 4.15701 -2.81954 0
M  V30 550 C 48.6822 4.23545 -4.76328 0
M  V30 551 C 46.3692 4.50458 -4.12954 0
M  V30 552 C 47.3672 4.54356 -5.09951 0
M  V30 553 O 47.0552 4.88305 -6.38603 0
M  V30 554 H 46.7872 0.617527 -0.275021 0
M  V30 555 H 49.3412 1.51683 -1.38497 0
M  V30 556 H 47.5712 3.85135 -0.347513 0
M  V30 557 H 49.2602 3.99049 -0.7426 0
M  V30 558 H 50.0262 3.6431 -3.20162 0
M  V30 559 H 45.9052 4.11847 -2.0713 0
M  V30 560 H 49.4492 4.26502 -5.52035 0
M  V30 561 H 45.3462 4.74067 -4.38099 0
M  V30 562 H 46.1142 5.06227 -6.43177 0
M  V30 563 N 48.7773 0.814389 1.34928 0
M  V30 564 C 50.0253 0.397636 1.9815 0
M  V30 565 C 50.3463 -1.04069 1.64908 0
M  V30 566 O 49.6163 -1.72121 0.93548 0
M  V30 567 H 48.1963 0.144043 0.732981 0
M  V30 568 H 50.8583 1.04195 1.6471 0
M  V30 569 H 49.9543 0.509688 3.0791 0
M  V30 570 N 50.2554 -1.46986 0.568584 0
M  V30 571 C 51.2184 -2.28624 -0.162366 0
M  V30 572 C 52.2184 -1.37596 -0.832103 0
M  V30 573 O 53.4084 -1.60115 -0.68622 0
M  V30 574 C 50.5404 -3.17596 -1.23878 0
M  V30 575 H 51.7334 -2.94722 0.554899 0
M  V30 576 H 49.2864 -1.52863 0.325976 0
M  V30 577 H 50.0214 -2.56214 -1.98808 0
M  V30 578 H 49.8064 -3.846 -0.763219 0
M  V30 579 H 51.2964 -3.79078 -1.75185 0
M  V30 580 N 51.7335 -0.305618 -1.54608 0
M  V30 581 C 53.1495 0.0476228 -1.59529 0
M  V30 582 C 53.3495 1.52025 -1.32252 0
M  V30 583 O 52.4055 2.27368 -1.09818 0
M  V30 584 C 53.7185 -0.354471 -2.98603 0
M  V30 585 C 55.2665 -0.303622 -3.11524 0
M  V30 586 C 55.7415 -0.680608 -4.52915 0
M  V30 587 N 57.2325 -0.63332 -4.5885 0
M  V30 588 C 57.9675 -0.897432 -5.66334 0
M  V30 589 N 57.4635 -1.22775 -6.81834 0
M  V30 590 N 59.2565 -0.824186 -5.56025 0
M  V30 591 H 51.4075 -1.2653 -1.70599 0
M  V30 592 H 53.6705 -0.513291 -0.797017 0
M  V30 593 H 53.3765 -1.3798 -3.23503 0
M  V30 594 H 53.2505 0.289568 -3.76087 0
M  V30 595 H 55.6375 0.712472 -2.8637 0
M  V30 596 H 55.7185 -0.982348 -2.36185 0
M  V30 597 H 55.3625 -1.69453 -4.78799 0
M  V30 598 H 55.2925 0.0202385 -5.26596 0
M  V30 599 H 57.7835 -0.389138 -3.75891 0
M  V30 600 H 58.0965 -1.41513 -7.59733 0
M  V30 601 H 56.4415 -1.26583 -6.83375 0
M  V30 602 H 59.6325 -0.565748 -4.64669 0
M  V30 603 H 59.8055 -1.03338 -6.39707 0
M  V30 604 N 53.2116 1.57565 -0.0334293 0
M  V30 605 C 54.4576 1.92262 0.645226 0
M  V30 606 C 54.7906 0.910543 1.71531 0
M  V30 607 O 54.0656 -0.066099 1.94388 0
M  V30 608 C 54.3486 3.37422 1.2577 0
M  V30 609 C 54.2016 4.49369 0.196891 0
M  V30 610 C 55.5206 3.82628 2.17449 0
M  V30 611 H 52.6396 0.699171 0.233085 0
M  V30 612 H 55.2816 1.89779 -0.0915694 0
M  V30 613 H 53.4316 3.39669 1.88566 0
M  V30 614 H 55.1036 4.59254 -0.433962 0
M  V30 615 H 53.3466 4.31168 -0.477137 0
M  V30 616 H 54.0176 5.47978 0.665124 0
M  V30 617 H 56.4936 3.82145 1.64634 0
M  V30 618 H 55.3696 4.84883 2.57254 0
M  V30 619 H 55.6306 3.18376 3.0674 0
M  V30 620 N 54.6897 -0.239769 1.55765 0
M  V30 621 C 55.5997 -1.31831 1.94056 0
M  V30 622 C 56.6157 -1.52275 0.841925 0
M  V30 623 O 57.7917 -1.65759 1.14394 0
M  V30 624 C 54.8567 -2.65156 2.23368 0
M  V30 625 C 53.9177 -2.53173 3.46701 0
M  V30 626 C 53.1507 -3.8014 3.74606 0
M  V30 627 O 53.3737 -4.82343 3.04469 0
M  V30 628 O 52.3077 -3.78344 4.68123 0
M  V30 629 H 56.1337 -1.02347 2.85935 0
M  V30 630 H 53.7187 -0.441123 1.42739 0
M  V30 631 H 55.6007 -3.43929 2.43497 0
M  V30 632 H 54.2757 -2.94358 1.34666 0
M  V30 633 H 53.1827 -1.72662 3.31871 0
M  V30 634 H 54.5157 -2.28915 4.35728 0
M  V30 635 N 56.1678 -1.49265 -0.50573 0
M  V30 636 C 57.1148 -1.65585 -1.6078 0
M  V30 637 C 58.0848 -0.497396 -1.58478 0
M  V30 638 O 59.2698 -0.72385 -1.76536 0
M  V30 639 C 56.4098 -1.72408 -2.98948 0
M  V30 640 C 55.5228 -2.99525 -3.11301 0
M  V30 641 C 54.6578 -2.97356 -4.40174 0
M  V30 642 C 53.6968 -4.19074 -4.46143 0
M  V30 643 N 52.8338 -4.14841 -5.66437 0
M  V30 644 H 57.6738 -2.59688 -1.46172 0
M  V30 645 H 55.2108 -1.28761 -0.711261 0
M  V30 646 H 57.1688 -1.74344 -3.79025 0
M  V30 647 H 55.7988 -0.817753 -3.1227 0
M  V30 648 H 54.8508 -3.07222 -2.24318 0
M  V30 649 H 56.1628 -3.89518 -3.11572 0
M  V30 650 H 55.3168 -2.97829 -5.28567 0
M  V30 651 H 54.0558 -2.05133 -4.42461 0
M  V30 652 H 53.0608 -4.1885 -3.56153 0
M  V30 653 H 54.2858 -5.12483 -4.45575 0
M  V30 654 H 52.2318 -3.25453 -5.69575 0
M  V30 655 H 52.1488 -4.98564 -5.68304 0
M  V30 656 H 53.4168 -4.1941 -6.57051 0
M  V30 657 N 57.6459 0.756429 -1.3826 0
M  V30 658 C 58.8919 1.51772 -1.34511 0
M  V30 659 C 59.2249 1.94089 0.0656691 0
M  V30 660 O 58.4999 1.65221 1.02626 0
M  V30 661 C 58.7829 2.77226 -2.29821 0
M  V30 662 C 58.6359 2.41065 -3.79747 0
M  V30 663 C 59.9549 3.79236 -2.23312 0
M  V30 664 H 57.0739 0.550578 -0.489931 0
M  V30 665 H 59.7159 0.866607 -1.69086 0
M  V30 666 H 57.8659 3.32784 -2.00467 0
M  V30 667 H 59.5379 1.91303 -4.19763 0
M  V30 668 H 57.7809 1.7356 -3.97567 0
M  V30 669 H 58.4519 3.3081 -4.41892 0
M  V30 670 H 60.9279 3.3321 -2.49219 0
M  V30 671 H 59.8039 4.64714 -2.92116 0
M  V30 672 H 60.0649 4.24615 -1.23102 0
M  V30 673 N 59.124 1.23083 0.984299 0
M  V30 674 C 60.034 1.02515 2.11016 0
M  V30 675 C 61.05 -0.0291702 1.73976 0
M  V30 676 O 62.226 0.165434 2.00719 0
M  V30 677 C 59.291 0.614673 3.41208 0
M  V30 678 C 58.352 1.74359 3.92297 0
M  V30 679 C 57.585 1.35261 5.16275 0
M  V30 680 O 57.808 0.235136 5.69915 0
M  V30 681 O 56.742 2.17227 5.61334 0
M  V30 682 H 60.568 1.96862 2.31255 0
M  V30 683 H 58.153 1.01753 1.09392 0
M  V30 684 H 60.035 0.396518 4.1953 0
M  V30 685 H 58.71 -0.299851 3.22308 0
M  V30 686 H 57.617 2.01635 3.1511 0
M  V30 687 H 58.95 2.63629 4.15645 0
M  V30 688 N 60.6021 -1.18246 1.0419 0
M  V30 689 C 61.5121 -2.25574 0.644476 0
M  V30 690 C 62.5281 -1.70845 -0.329826 0
M  V30 691 O 63.7041 -2.00554 -0.184443 0
M  V30 692 C 60.7691 -3.46697 0.014877 0
M  V30 693 C 59.8301 -4.16554 1.03834 0
M  V30 694 C 59.0631 -5.31894 0.438692 0
M  V30 695 O 59.2861 -5.65385 -0.754752 0
M  V30 696 O 58.2201 -5.90459 1.168 0
M  V30 697 H 62.0461 -2.61836 1.53869 0
M  V30 698 H 59.6311 -1.25352 0.812854 0
M  V30 699 H 61.5131 -4.20062 -0.335538 0
M  V30 700 H 60.1881 -3.12255 -0.853138 0
M  V30 701 H 59.0951 -3.45251 1.44057 0
M  V30 702 H 60.4281 -4.54998 1.87716 0
M  V30 703 N 62.0802 -0.821533 -1.34494 0
M  V30 704 C 63.0102 -0.257138 -2.3208 0
M  V30 705 C 63.9912 0.625645 -1.58176 0
M  V30 706 O 65.1762 0.552811 -1.86166 0
M  V30 707 C 62.3062 0.582958 -3.42372 0
M  V30 708 C 61.2602 -0.202571 -4.2752 0
M  V30 709 C 60.5862 0.760179 -5.29269 0
M  V30 710 C 61.8862 -1.40998 -5.02908 0
M  V30 711 H 63.5802 -1.07247 -2.79532 0
M  V30 712 H 61.1262 -0.517163 -1.34393 0
M  V30 713 H 63.0792 0.987972 -4.09655 0
M  V30 714 H 61.8032 1.43133 -2.93565 0
M  V30 715 H 60.4622 -0.588936 -3.61838 0
M  V30 716 H 60.1102 1.60447 -4.76724 0
M  V30 717 H 59.8102 0.238809 -5.87115 0
M  V30 718 H 61.3342 1.16308 -5.9942 0
M  V30 719 H 62.7482 -1.07905 -5.63054 0
M  V30 720 H 61.1452 -1.86689 -5.70322 0
M  V30 721 H 62.2152 -2.1889 -4.32684 0
M  V30 722 N 63.5583 1.46682 -0.576371 0
M  V30 723 C 64.8063 2.02013 -0.0594163 0
M  V30 724 C 65.1273 1.45101 1.30271 0
M  V30 725 O 64.3973 0.633317 1.8538 0
M  V30 726 H 62.9773 0.746759 -0.0189745 0
M  V30 727 H 65.6393 1.79862 -0.750717 0
M  V30 728 H 64.7353 3.12097 0.014345 0
M  V30 729 N 65.0364 0.313813 1.54444 0
M  V30 730 C 65.9664 -0.549454 2.26943 0
M  V30 731 C 66.9474 -1.12741 1.27372 0
M  V30 732 O 68.1324 -1.15436 1.56167 0
M  V30 733 C 65.2624 -1.71523 3.01989 0
M  V30 734 C 64.2164 -1.26703 4.08816 0
M  V30 735 C 63.5424 -2.51898 4.71647 0
M  V30 736 C 64.8424 -0.388962 5.2085 0
M  V30 737 H 66.5364 0.0552661 2.99349 0
M  V30 738 H 64.0824 0.0280207 1.43973 0
M  V30 739 H 66.0354 -2.32535 3.51433 0
M  V30 740 H 64.7594 -2.34639 2.27183 0
M  V30 741 H 63.4184 -0.679896 3.6024 0
M  V30 742 H 63.0664 -3.13356 3.93468 0
M  V30 743 H 62.7664 -2.22605 5.43802 0
M  V30 744 H 64.2904 -3.1369 5.23861 0
M  V30 745 H 65.7044 -0.905107 5.6611 0
M  V30 746 H 64.1014 -0.18924 5.99802 0
M  V30 747 H 65.1714 0.582699 4.81386 0
M  V30 748 N 66.5145 -1.57545 0.0417849 0
M  V30 749 C 67.9305 -1.56467 -0.314704 0
M  V30 750 C 68.1305 -1.04859 -1.72066 0
M  V30 751 O 67.1865 -0.700983 -2.42575 0
M  V30 752 C 68.4995 -3.00317 -0.15174 0
M  V30 753 C 70.0475 -3.12201 -0.223553 0
M  V30 754 C 70.5225 -4.57913 -0.0892295 0
M  V30 755 N 72.0135 -4.6297 -0.145808 0
M  V30 756 C 72.7485 -5.73362 -0.0658459 0
M  V30 757 N 72.2445 -6.92769 0.0659282 0
M  V30 758 N 74.0375 -5.6197 -0.12075 0
M  V30 759 H 66.1885 -1.89416 0.961014 0
M  V30 760 H 68.4515 -0.871862 0.372237 0
M  V30 761 H 68.1575 -3.42073 0.817254 0
M  V30 762 H 68.0315 -3.65892 -0.916692 0
M  V30 763 H 70.4185 -2.70349 -1.18301 0
M  V30 764 H 70.4995 -2.49323 0.571994 0
M  V30 765 H 70.1435 -5.00448 0.866867 0
M  V30 766 H 70.0735 -5.18786 -0.903802 0
M  V30 767 H 72.5645 -3.7709 -0.247286 0
M  V30 768 H 72.8775 -7.72707 0.119905 0
M  V30 769 H 71.2225 -6.94927 0.100885 0
M  V30 770 H 74.4135 -4.67572 -0.222187 0
M  V30 771 H 74.5865 -6.47977 -0.0549735 0
M  V30 772 N 67.9926 0.231505 -1.5589 0
M  V30 773 C 69.4086 0.580748 -1.48659 0
M  V30 774 C 69.6086 1.87617 -0.73498 0
M  V30 775 O 68.6646 2.51046 -0.270586 0
M  V30 776 C 69.9776 0.669202 -2.93159 0
M  V30 777 C 71.5256 0.760499 -3.03621 0
M  V30 778 C 72.0006 0.880383 -4.49459 0
M  V30 779 N 73.4916 0.944861 -4.53461 0
M  V30 780 C 74.2266 1.05716 -5.63571 0
M  V30 781 N 73.7226 1.13403 -6.83456 0
M  V30 782 N 75.5156 1.09152 -5.514 0
M  V30 783 H 67.6666 -0.618695 -2.03189 0
M  V30 784 H 69.9296 -0.215728 -0.923128 0
M  V30 785 H 69.6356 -0.212904 -3.51055 0
M  V30 786 H 69.5096 1.5361 -3.44505 0
M  V30 787 H 71.8966 1.63305 -2.45796 0
M  V30 788 H 71.9776 -0.131864 -2.5546 0
M  V30 789 H 71.6216 0.0123284 -5.07899 0
M  V30 790 H 71.5516 1.78802 -4.95316 0
M  V30 791 H 74.0426 0.896176 -3.6712 0
M  V30 792 H 74.3556 1.21921 -7.63122 0
M  V30 793 H 72.7006 1.10333 -6.86186 0
M  V30 794 H 75.8916 1.02805 -4.56671 0
M  V30 795 H 76.0646 1.17558 -6.37247 0
M  V30 796 N 69.4707 1.49531 0.497807 0
M  V30 797 C 70.4007 1.6935 1.60757 0
M  V30 798 C 71.3817 0.542218 1.61227 0
M  V30 799 O 72.5667 0.778417 1.77917 0
M  V30 800 C 69.6967 1.76298 2.99226 0
M  V30 801 C 68.6507 2.91248 3.13622 0
M  V30 802 C 67.9767 2.83312 4.53474 0
M  V30 803 C 69.2767 4.3214 2.93346 0
M  V30 804 H 70.9707 2.62263 1.44425 0
M  V30 805 H 68.5167 1.26208 0.693367 0
M  V30 806 H 70.4697 1.88749 3.76765 0
M  V30 807 H 69.1937 0.799871 3.16654 0
M  V30 808 H 67.8527 2.78404 2.38509 0
M  V30 809 H 67.5007 1.84902 4.67782 0
M  V30 810 H 67.2007 3.60465 4.64046 0
M  V30 811 H 68.7247 2.97775 5.33069 0
M  V30 812 H 70.1387 4.45649 3.60652 0
M  V30 813 H 68.5357 5.1054 3.15387 0
M  V30 814 H 69.6057 4.46363 1.89441 0
M  V30 815 N 70.9488 -0.749086 1.3866 0
M  V30 816 C 71.9118 -1.84457 1.36045 0
M  V30 817 C 72.9118 -1.58682 0.260122 0
M  V30 818 O 74.1018 -1.66343 0.517261 0
M  V30 819 C 71.2338 -3.22008 1.11911 0
M  V30 820 H 72.4268 -1.88182 2.33512 0
M  V30 821 H 69.9798 -0.951266 1.24019 0
M  V30 822 H 70.7148 -3.2395 0.150686 0
M  V30 823 H 70.4998 -3.42111 1.91579 0
M  V30 824 H 71.9898 -4.0208 1.12788 0
M  V30 825 N 72.4269 -1.23603 -0.977757 0
M  V30 826 C 73.6569 -1.09487 -1.75203 0
M  V30 827 C 74.0649 0.356321 -1.85814 0
M  V30 828 O 73.4079 1.25816 -1.33851 0
M  V30 829 C 73.4699 -1.64905 -3.19447 0
M  V30 830 C 73.1339 -3.13688 -3.32338 0
M  V30 831 C 74.1309 -4.10953 -3.18455 0
M  V30 832 C 71.8159 -3.53449 -3.56902 0
M  V30 833 C 73.8099 -5.45962 -3.28944 0
M  V30 834 C 71.4969 -4.88602 -3.6703 0
M  V30 835 C 72.4949 -5.84668 -3.53062 0
M  V30 836 O 72.1829 -7.17365 -3.62826 0
M  V30 837 H 71.9149 -0.38367 -0.556573 0
M  V30 838 H 74.4689 -1.6398 -1.23693 0
M  V30 839 H 72.6989 -1.04835 -3.72218 0
M  V30 840 H 74.3879 -1.46226 -3.78646 0
M  V30 841 H 75.1539 -3.81577 -2.99372 0
M  V30 842 H 71.0329 -2.79188 -3.66844 0
M  V30 843 H 74.5769 -6.20925 -3.17958 0
M  V30 844 H 70.4739 -5.17653 -3.85623 0
M  V30 845 H 71.2419 -7.2515 -3.79605 0
M  V30 846 N 73.905 1.17692 -1.04816 0
M  V30 847 C 75.316 1.69501 -0.782698 0
M  V30 848 C 75.667 1.83456 0.695577 0
M  V30 849 O 74.792 1.51942 1.54086 0
M  V30 850 C 75.387 3.07874 -1.41419 0
M  V30 851 C 73.946 3.56864 -1.19686 0
M  V30 852 C 73.093 2.3322 -1.50012 0
M  V30 853 H 76.044 1.02262 -1.2136 0
M  V30 854 H 76.065 3.71528 -0.821428 0
M  V30 855 H 75.577 2.97685 -2.49009 0
M  V30 856 H 73.678 3.72337 -0.140043 0
M  V30 857 H 73.791 4.39851 -1.89916 0
M  V30 858 H 72.155 2.37501 -0.920071 0
M  V30 859 H 72.938 2.25644 -2.58727 0
M  V30 860 N 75.3831 0.828654 1.34056 0
M  V30 861 C 76.6321 0.415828 1.97367 0
M  V30 862 C 76.9451 -1.02796 1.6641 0
M  V30 863 O 78.1511 -1.54497 2.23255 0
M  V30 864 C 76.6071 0.692601 3.53173 0
M  V30 865 C 76.2151 2.15038 3.93017 0
M  V30 866 C 77.9591 0.346222 4.23086 0
M  V30 867 C 75.8661 2.37174 5.41758 0
M  V30 868 H 74.7961 0.151755 0.738571 0
M  V30 869 H 77.4471 1.01581 1.52819 0
M  V30 870 H 75.8291 0.0223764 3.95994 0
M  V30 871 H 77.0031 2.86024 3.61285 0
M  V30 872 H 75.3181 2.45875 3.36057 0
M  V30 873 H 77.9151 0.48937 5.32456 0
M  V30 874 H 78.2581 -0.709842 4.10204 0
M  V30 875 H 78.7911 0.971258 3.85761 0
M  V30 876 H 75.5301 3.41308 5.59633 0
M  V30 877 H 75.0501 1.70738 5.74986 0
M  V30 878 H 76.7291 2.19818 6.08514 0
M  V30 879 N 76.8612 -1.46375 0.584142 0
M  V30 880 C 77.8242 -2.28784 -0.138108 0
M  V30 881 C 78.8242 -1.38471 -0.817462 0
M  V30 882 O 80.0142 -1.60833 -0.669199 0
M  V30 883 C 77.1462 -3.18892 -1.20503 0
M  V30 884 H 78.3392 -2.94117 0.586127 0
M  V30 885 H 75.8922 -1.52509 0.342171 0
M  V30 886 H 76.6272 -2.58309 -1.96079 0
M  V30 887 H 76.4122 -3.85388 -0.722384 0
M  V30 888 H 77.9022 -3.80914 -1.71155 0
M  V30 889 N 78.3393 -0.321999 -1.54275 0
M  V30 890 C 79.2863 0.544664 -2.24281 0
M  V30 891 C 80.2563 1.1129 -1.23303 0
M  V30 892 O 81.4413 1.15354 -1.51981 0
M  V30 893 C 78.5813 1.70045 -3.00298 0
M  V30 894 C 77.6943 1.16159 -4.1609 0
M  V30 895 C 76.8293 2.28293 -4.79641 0
M  V30 896 C 75.8683 1.71648 -5.8754 0
M  V30 897 N 75.0053 2.77438 -6.44959 0
M  V30 898 H 79.8453 -0.0588907 -2.97942 0
M  V30 899 H 77.3823 -0.0408345 -1.47043 0
M  V30 900 H 79.3403 2.38054 -3.42616 0
M  V30 901 H 77.9703 2.27531 -2.28975 0
M  V30 902 H 77.0223 0.373092 -3.78566 0
M  V30 903 H 78.3343 0.707087 -4.93763 0
M  V30 904 H 77.4883 3.0421 -5.2492 0
M  V30 905 H 76.2273 2.77079 -4.01346 0
M  V30 906 H 75.2323 0.942282 -5.41665 0
M  V30 907 H 76.4573 1.23741 -6.67731 0
M  V30 908 H 74.4033 3.25519 -5.69538 0
M  V30 909 H 74.3203 2.36547 -7.1804 0
M  V30 910 H 75.5883 3.53189 -6.94894 0
M  V30 911 N 79.8174 1.5752 -0.0501392 0
M  V30 912 C 81.0944 1.83996 0.663685 0
M  V30 913 C 81.4744 0.938339 1.89099 0
M  V30 914 O 80.8224 -0.00087759 2.285 0
M  V30 915 C 81.0324 3.33702 1.02196 0
M  V30 916 C 82.3804 4.00691 1.40469 0
M  V30 917 O 83.4044 3.38321 1.11433 0
M  V30 918 O 82.2634 5.10658 1.94654 0
M  V30 919 H 79.3574 0.759385 0.32751 0
M  V30 920 H 81.9034 1.69514 -0.0794238 0
M  V30 921 H 80.6754 3.91015 0.149364 0
M  V30 922 H 80.2984 3.53368 1.82255 0
M  V30 923 N 81.2955 -0.223234 1.56011 0
M  V30 924 C 82.7065 -0.790368 1.69145 0
M  V30 925 C 83.0575 -1.85055 0.651845 0
M  V30 926 O 82.1825 -2.15498 -0.197359 0
M  V30 927 C 82.7775 -1.4404 3.06656 0
M  V30 928 C 81.3365 -1.95494 3.2165 0
M  V30 929 C 80.4835 -0.814506 2.65068 0
M  V30 930 H 83.4345 0.00139011 1.587 0
M  V30 931 H 83.4555 -2.30916 3.0242 0
M  V30 932 H 82.9675 -0.668543 3.82298 0
M  V30 933 H 81.0685 -2.75487 2.50874 0
M  V30 934 H 81.1815 -2.13607 4.28846 0
M  V30 935 H 79.5455 -1.22137 2.23505 0
M  V30 936 H 80.3285 -0.0553515 3.43255 0
M  V30 937 N 82.7736 -1.49793 -0.48987 0
M  V30 938 C 83.7056 -1.63413 -1.60713 0
M  V30 939 C 84.7186 -0.516329 -1.54395 0
M  V30 940 O 85.9076 -0.788812 -1.60125 0
M  V30 941 C 83.0076 -1.58516 -2.99543 0
M  V30 942 C 82.1806 -2.86016 -3.30928 0
M  V30 943 C 81.2396 -2.74018 -4.49222 0
M  V30 944 O 80.2656 -3.47964 -4.50455 0
M  V30 945 N 81.4676 -1.86309 -5.4979 0
M  V30 946 H 84.2326 -2.59777 -1.49452 0
M  V30 947 H 81.7936 -1.47022 -0.677955 0
M  V30 948 H 83.7856 -1.48128 -3.76617 0
M  V30 949 H 82.3556 -0.69965 -3.0467 0
M  V30 950 H 81.5756 -3.10672 -2.42645 0
M  V30 951 H 82.8636 -3.70521 -3.487 0
M  V30 952 H 82.2616 -1.2551 -5.51601 0
M  V30 953 H 80.8186 -1.81837 -6.25922 0
M  V30 954 N 84.2517 0.741722 -1.39055 0
M  V30 955 C 85.4997 1.49818 -1.35643 0
M  V30 956 C 85.8207 1.94938 0.0491642 0
M  V30 957 O 85.0907 1.68505 0.999141 0
M  V30 958 H 83.6707 0.555755 -0.499144 0
M  V30 959 H 86.3327 0.880957 -1.73854 0
M  V30 960 H 85.4287 2.38348 -2.01486 0
M  V30 961 N 85.7298 1.2412 0.971189 0
M  V30 962 C 86.9598 1.10415 1.7462 0
M  V30 963 C 87.3678 -0.346462 1.86001 0
M  V30 964 O 86.7108 -1.25104 1.34517 0
M  V30 965 C 86.7728 1.66596 3.18568 0
M  V30 966 C 86.4368 3.15446 3.3067 0
M  V30 967 C 87.4338 4.12636 3.16271 0
M  V30 968 C 85.1188 3.55337 3.55022 0
M  V30 969 C 87.1128 5.47699 3.26044 0
M  V30 970 C 84.7998 4.90542 3.64434 0
M  V30 971 C 85.7978 5.86532 3.49956 0
M  V30 972 O 85.4858 7.19279 3.59017 0
M  V30 973 H 85.2178 0.386616 0.55453 0
M  V30 974 H 87.7718 1.64633 1.22821 0
M  V30 975 H 86.0018 1.06808 3.71657 0
M  V30 976 H 87.6908 1.48232 3.77865 0
M  V30 977 H 88.4568 3.8316 2.97344 0
M  V30 978 H 84.3358 2.8113 3.65359 0
M  V30 979 H 87.8798 6.22603 3.14661 0
M  V30 980 H 83.7768 5.19691 3.82873 0
M  V30 981 H 84.5448 7.27153 3.75754 0
M  V30 982 N 87.2079 -1.17134 1.05439 0
M  V30 983 C 88.4549 -1.87456 0.765942 0
M  V30 984 C 88.7829 -1.81189 -0.707153 0
M  V30 985 O 88.0379 -1.21633 -1.5331 0
M  V30 986 C 88.3369 -3.36833 1.19491 0
M  V30 987 C 88.0029 -3.63301 2.67063 0
M  V30 988 C 86.6649 -3.70234 3.07376 0
M  V30 989 C 89.0169 -3.74575 3.62413 0
M  V30 990 C 86.3449 -3.85933 4.41896 0
M  V30 991 C 88.6969 -3.91793 4.9667 0
M  V30 992 C 87.3609 -3.96966 5.36633 0
M  V30 993 H 86.6309 -0.685948 0.280278 0
M  V30 994 H 89.2779 -1.38556 1.32192 0
M  V30 995 H 87.5829 -3.87807 0.557969 0
M  V30 996 H 89.2799 -3.89611 0.948893 0
M  V30 997 H 85.8699 -3.58532 2.34846 0
M  V30 998 H 90.0539 -3.68537 3.32406 0
M  V30 999 H 85.3099 -3.88187 4.72357 0
M  V30 1000 H 89.4839 -3.99458 5.70444 0
M  V30 1001 H 87.1109 -4.08883 6.40874 0
M  V30 1002 N 88.686 -0.835752 -1.33615 0
M  V30 1003 C 89.616 -0.281739 -2.31794 0
M  V30 1004 C 90.597 0.608833 -1.58831 0
M  V30 1005 O 91.782 0.533035 -1.86741 0
M  V30 1006 C 88.912 0.546612 -3.42971 0
M  V30 1007 C 87.866 -0.247904 -4.27281 0
M  V30 1008 C 87.192 0.704001 -5.30045 0
M  V30 1009 C 88.492 -1.46324 -5.01385 0
M  V30 1010 H 90.186 -1.10206 -2.78379 0
M  V30 1011 H 87.732 -0.531388 -1.33837 0
M  V30 1012 H 89.685 0.944467 -4.1068 0
M  V30 1013 H 88.409 1.40011 -2.95067 0
M  V30 1014 H 87.068 -0.627281 -3.61194 0
M  V30 1015 H 86.716 1.55381 -4.78399 0
M  V30 1016 H 86.416 0.176524 -5.87335 0
M  V30 1017 H 87.94 1.09944 -6.0062 0
M  V30 1018 H 89.354 -1.13871 -5.61877 0
M  V30 1019 H 87.751 -1.92728 -5.6831 0
M  V30 1020 H 88.821 -2.23467 -4.30338 0
M  V30 1021 N 90.1641 1.46063 -0.591896 0
M  V30 1022 C 91.4101 2.03203 -0.0894879 0
M  V30 1023 C 91.7651 1.45407 1.25994 0
M  V30 1024 O 91.0581 0.61326 1.8152 0
M  V30 1025 C 91.2521 3.57391 0.0249813 0
M  V30 1026 C 91.0811 4.30142 -1.3118 0
M  V30 1027 C 89.8511 4.68688 -1.88838 0
M  V30 1028 C 92.0491 4.63098 -2.23708 0
M  V30 1029 N 90.0311 5.26228 -3.1616 0
M  V30 1030 C 91.4021 5.21305 -3.3562 0
M  V30 1031 C 93.4571 4.45031 -2.23274 0
M  V30 1032 C 92.1601 5.63351 -4.47245 0
M  V30 1033 C 94.1861 4.881 -3.33935 0
M  V30 1034 C 93.5481 5.46386 -4.44569 0
M  V30 1035 H 89.6471 0.778323 -0.0757431 0
M  V30 1036 H 92.2311 1.78094 -0.78681 0
M  V30 1037 H 90.4021 3.82195 0.69149 0
M  V30 1038 H 92.1341 4.0118 0.532613 0
M  V30 1039 H 88.8891 4.5174 -1.42223 0
M  V30 1040 H 89.3131 5.59512 -3.8115 0
M  V30 1041 H 93.9551 3.99295 -1.39008 0
M  V30 1042 H 91.6731 6.08061 -5.32247 0
M  V30 1043 H 95.2591 4.75866 -3.34728 0
M  V30 1044 H 94.1391 5.79102 -5.28782 0
M  V30 1045 N 91.6422 0.330177 1.54103 0
M  V30 1046 C 92.8722 -0.271784 2.04805 0
M  V30 1047 C 93.2802 -1.45816 1.20559 0
M  V30 1048 O 92.6232 -1.82247 0.2306 0
M  V30 1049 C 92.6852 -0.763238 3.51305 0
M  V30 1050 C 92.3492 0.301705 4.56003 0
M  V30 1051 C 93.3462 1.13999 5.07248 0
M  V30 1052 C 91.0312 0.451793 5.00264 0
M  V30 1053 C 93.0252 2.11402 6.01322 0
M  V30 1054 C 90.7122 1.42924 5.94151 0
M  V30 1055 C 91.7102 2.25882 6.44567 0
M  V30 1056 O 91.3982 3.21965 7.3661 0
M  V30 1057 H 91.1302 -0.058693 0.673447 0
M  V30 1058 H 93.6842 0.476395 1.99799 0
M  V30 1059 H 91.9142 -1.56244 3.5373 0
M  V30 1060 H 93.6032 -1.28427 3.85047 0
M  V30 1061 H 94.3692 1.03505 4.73827 0
M  V30 1062 H 90.2482 -0.184044 4.60632 0
M  V30 1063 H 93.7922 2.76192 6.40596 0
M  V30 1064 H 89.6892 1.53479 6.26988 0
M  V30 1065 H 90.4572 3.17281 7.54503 0
M  V30 1066 N 93.1203 -1.57491 0.0584922 0
M  V30 1067 C 94.0523 -2.08916 -0.942694 0
M  V30 1068 C 95.0653 -1.0185 -1.27006 0
M  V30 1069 O 96.2543 -1.29398 -1.22957 0
M  V30 1070 C 93.3543 -2.52341 -2.26224 0
M  V30 1071 C 92.5273 -3.82827 -2.1157 0
M  V30 1072 C 91.5863 -4.12487 -3.26712 0
M  V30 1073 O 90.6123 -4.82295 -3.02292 0
M  V30 1074 N 91.8143 -3.64978 -4.5141 0
M  V30 1075 H 94.5793 -2.95437 -0.503722 0
M  V30 1076 H 92.1403 -1.61397 -0.12757 0
M  V30 1077 H 94.1323 -2.69254 -3.02133 0
M  V30 1078 H 92.7023 -1.7103 -2.61663 0
M  V30 1079 H 91.9223 -3.75425 -1.20208 0
M  V30 1080 H 93.2103 -4.68263 -1.99015 0
M  V30 1081 H 92.6083 -3.08558 -4.7414 0
M  V30 1082 H 91.1653 -3.87115 -5.2439 0
M  V30 1083 N 94.5984 0.214957 -1.56127 0
M  V30 1084 C 95.8444 0.939762 -1.79712 0
M  V30 1085 C 96.1774 1.83723 -0.629247 0
M  V30 1086 O 95.4524 1.90925 0.371197 0
M  V30 1087 C 95.7354 1.77306 -3.13424 0
M  V30 1088 C 95.5884 0.90164 -4.40671 0
M  V30 1089 C 96.9074 2.74956 -3.43638 0
M  V30 1090 H 94.0264 0.340214 -0.653776 0
M  V30 1091 H 96.6684 0.20824 -1.88855 0
M  V30 1092 H 94.8184 2.39673 -3.0576 0
M  V30 1093 H 96.4904 0.294206 -4.60361 0
M  V30 1094 H 94.7334 0.207368 -4.33304 0
M  V30 1095 H 95.4044 1.51923 -5.30682 0
M  V30 1096 H 97.8804 2.22724 -3.51473 0
M  V30 1097 H 96.7564 3.30358 -4.38355 0
M  V30 1098 H 97.0174 3.53023 -2.66134 0
M  V30 1099 N 96.0765 1.50051 0.48192 0
M  V30 1100 C 96.9865 1.7089 1.60728 0
M  V30 1101 C 98.0025 0.591788 1.63627 0
M  V30 1102 O 99.1785 0.868817 1.81696 0
M  V30 1103 C 96.2435 1.78855 2.97005 0
M  V30 1104 C 95.3045 3.02537 3.04581 0
M  V30 1105 C 94.5375 3.10112 4.34357 0
M  V30 1106 O 94.7605 2.24765 5.24249 0
M  V30 1107 O 93.6945 4.02747 4.47301 0
M  V30 1108 H 97.5205 2.66264 1.46072 0
M  V30 1109 H 95.1055 1.34018 0.660264 0
M  V30 1110 H 96.9875 1.86336 3.77964 0
M  V30 1111 H 95.6625 0.866628 3.11883 0
M  V30 1112 H 94.5695 3.00563 2.22739 0
M  V30 1113 H 95.9025 3.94272 2.94636 0
M  V30 1114 N 97.5546 -0.734337 1.39446 0
M  V30 1115 C 98.4876 -1.85715 1.32609 0
M  V30 1116 C 99.4656 -1.6137 0.199636 0
M  V30 1117 O 100.65 -1.84626 0.380195 0
M  V30 1118 C 97.7766 -3.21709 1.05929 0
M  V30 1119 C 96.8226 -3.64913 2.20773 0
M  V30 1120 S 97.6556 -3.74203 3.83056 0
M  V30 1121 C 98.8116 -5.12986 3.58603 0
M  V30 1122 H 99.0446 -1.91232 2.27635 0
M  V30 1123 H 96.5776 -0.899263 1.25509 0
M  V30 1124 H 98.5356 -4.00236 0.912203 0
M  V30 1125 H 97.1966 -3.13848 0.125883 0
M  V30 1126 H 96.3896 -4.63606 1.97699 0
M  V30 1127 H 95.9916 -2.93593 2.31688 0
M  V30 1128 H 98.2836 -5.99339 3.15909 0
M  V30 1129 H 99.2266 -5.41088 4.5676 0
M  V30 1130 H 99.6346 -4.82694 2.9269 0
M  V30 1131 N 99.0327 -1.24633 -0.964593 0
M  V30 1132 C 100.444 -1.08045 -1.5226 0
M  V30 1133 C 100.795 0.347116 -1.93105 0
M  V30 1134 O 99.9197 1.23588 -1.77637 0
M  V30 1135 C 100.515 -1.95514 -2.76695 0
M  V30 1136 C 99.0737 -1.8314 -3.28841 0
M  V30 1137 C 98.2207 -1.90262 -2.01732 0
M  V30 1138 H 101.172 -1.38064 -0.782553 0
M  V30 1139 H 101.193 -1.48925 -3.50145 0
M  V30 1140 H 100.705 -2.99407 -2.46936 0
M  V30 1141 H 98.8057 -0.82092 -3.63444 0
M  V30 1142 H 98.9187 -2.67406 -3.97531 0
M  V30 1143 H 97.2827 -1.34027 -2.16584 0
M  V30 1144 H 98.0657 -2.9574 -1.74334 0
M  V30 1145 N 100.511 1.16574 -1.06058 0
M  V30 1146 C 101.421 2.2452 -0.680282 0
M  V30 1147 C 102.437 1.71348 0.302604 0
M  V30 1148 O 103.613 2.00822 0.152513 0
M  V30 1149 C 100.678 3.46629 -0.0700315 0
M  V30 1150 C 99.7388 4.14849 -1.10448 0
M  V30 1151 C 98.9718 5.31129 -0.523256 0
M  V30 1152 O 99.1948 5.66514 0.664709 0
M  V30 1153 O 98.1288 5.88526 -1.26179 0
M  V30 1154 H 101.955 2.59355 -1.58015 0
M  V30 1155 H 99.5398 1.24043 -0.832694 0
M  V30 1156 H 101.422 4.20543 0.268667 0
M  V30 1157 H 100.097 3.13573 0.803353 0
M  V30 1158 H 99.0038 3.42916 -1.49532 0
M  V30 1159 H 100.337 4.51954 -1.94931 0
M  V30 1160 N 101.989 0.842826 1.3317 0
M  V30 1161 C 103.266 0.362216 1.92217 0
M  V30 1162 C 103.646 -1.15289 1.76838 0
M  V30 1163 O 102.994 -1.96914 1.15919 0
M  V30 1164 C 103.204 0.813495 3.39387 0
M  V30 1165 C 104.552 0.823804 4.16532 0
M  V30 1166 O 105.576 0.757358 3.48055 0
M  V30 1167 O 104.435 0.915193 5.38782 0
M  V30 1168 H 101.529 0.103317 0.820521 0
M  V30 1169 H 104.075 0.928942 1.42017 0
M  V30 1170 H 102.847 1.85624 3.4447 0
M  V30 1171 H 102.47 0.223561 3.96971 0
M  V30 1172 N 103.467 -1.45747 0.599634 0
M  V30 1173 C 104.883 -1.57424 0.26264 0
M  V30 1174 C 105.083 -1.59222 -1.23493 0
M  V30 1175 O 104.139 -1.51825 -2.01756 0
M  V30 1176 C 105.452 -2.86061 0.926795 0
M  V30 1177 C 107 -2.99722 0.901967 0
M  V30 1178 C 107.475 -4.31119 1.54598 0
M  V30 1179 N 108.966 -4.37858 1.5111 0
M  V30 1180 C 109.701 -5.3818 1.97863 0
M  V30 1181 N 109.197 -6.45083 2.52666 0
M  V30 1182 N 110.99 -5.29487 1.88679 0
M  V30 1183 H 103.141 -1.42823 1.57211 0
M  V30 1184 H 105.404 -0.68235 0.658105 0
M  V30 1185 H 105.11 -2.90605 1.98095 0
M  V30 1186 H 104.984 -3.74563 0.445238 0
M  V30 1187 H 107.371 -2.9475 -0.143617 0
M  V30 1188 H 107.452 -2.12652 1.42171 0
M  V30 1189 H 107.096 -4.36849 2.59085 0
M  V30 1190 H 107.026 -5.16992 1.00132 0
M  V30 1191 H 109.517 -3.61209 1.11068 0
M  V30 1192 H 109.83 -7.17869 2.86155 0
M  V30 1193 H 108.175 -6.45856 2.56701 0
M  V30 1194 H 111.366 -4.44877 1.4561 0
M  V30 1195 H 111.539 -6.07524 2.25429 0
M  V30 1196 N 104.945 -0.338344 -1.53925 0
M  V30 1197 C 106.191 0.260143 -2.01125 0
M  V30 1198 C 106.524 1.50617 -1.22589 0
M  V30 1199 O 105.799 1.91979 -0.312113 0
M  V30 1200 C 106.082 0.579499 -3.55407 0
M  V30 1201 C 105.935 -0.678264 -4.44657 0
M  V30 1202 C 107.254 1.39122 -4.17532 0
M  V30 1203 H 104.373 0.0930772 -0.731099 0
M  V30 1204 H 107.015 -0.457852 -1.84401 0
M  V30 1205 H 105.165 1.19118 -3.69788 0
M  V30 1206 H 106.837 -1.31631 -4.42121 0
M  V30 1207 H 105.08 -1.3042 -4.13731 0
M  V30 1208 H 105.751 -0.410143 -5.50474 0
M  V30 1209 H 108.227 0.874035 -4.06817 0
M  V30 1210 H 107.103 1.58342 -5.25565 0
M  V30 1211 H 107.364 2.39178 -3.71815 0
M  V30 1212 N 106.423 1.57458 -0.0668435 0
M  V30 1213 C 107.371 2.13639 0.919851 0
M  V30 1214 C 108.365 1.07204 1.31163 0
M  V30 1215 O 109.571 1.25591 1.28945 0
M  V30 1216 H 105.946 0.683048 0.314562 0
M  V30 1217 H 107.917 2.95415 0.421047 0
M  V30 1218 C 106.666 2.70892 2.17975 0
M  V30 1219 H 105.989 3.5246 1.88711 0
M  V30 1220 H 107.429 3.13803 2.85138 0
M  V30 1221 C 105.888 1.65414 2.93496 0
M  V30 1222 O 106.418 1.07619 3.87015 0
M  V30 1223 N 104.624 1.36564 2.56512 0
M  V30 1224 H 104.171 1.83751 1.80536 0
M  V30 1225 H 104.129 0.66223 3.07347 0
M  V30 1226 N 107.901 -0.206675 1.56239 0
M  V30 1227 C 109.178 -0.954051 1.70755 0
M  V30 1228 C 109.558 -2.01841 0.618353 0
M  V30 1229 O 108.906 -2.25444 -0.372434 0
M  V30 1230 C 109.116 -1.551 3.12642 0
M  V30 1231 C 110.464 -2.03757 3.72516 0
M  V30 1232 O 111.488 -1.64965 3.15698 0
M  V30 1233 O 110.347 -2.75103 4.72208 0
M  V30 1234 H 107.441 -0.446636 0.696021 0
M  V30 1235 H 109.987 -0.197283 1.68549 0
M  V30 1236 H 108.759 -0.783212 3.83382 0
M  V30 1237 H 108.382 -2.37291 3.19028 0
M  V30 1238 N 109.379 -1.50304 -0.473955 0
M  V30 1239 C 110.309 -1.71886 -1.58042 0
M  V30 1240 C 111.29 -0.567799 -1.60344 0
M  V30 1241 O 112.475 -0.806623 -1.76656 0
M  V30 1242 C 109.605 -1.81036 -2.96384 0
M  V30 1243 C 108.559 -2.962 -3.08949 0
M  V30 1244 C 107.885 -2.9049 -4.48909 0
M  V30 1245 C 109.185 -4.36752 -2.86434 0
M  V30 1246 H 110.879 -2.64527 -1.40234 0
M  V30 1247 H 108.425 -1.27295 -0.673201 0
M  V30 1248 H 110.378 -1.94719 -3.73714 0
M  V30 1249 H 109.102 -0.850147 -3.15341 0
M  V30 1250 H 107.761 -2.82164 -2.3405 0
M  V30 1251 H 107.409 -1.92321 -4.64781 0
M  V30 1252 H 107.109 -3.67802 -4.58253 0
M  V30 1253 H 108.633 -3.06218 -5.28264 0
M  V30 1254 H 110.047 -4.5133 -3.53517 0
M  V30 1255 H 108.444 -5.15493 -3.07225 0
M  V30 1256 H 109.514 -4.49321 -1.82316 0
M  V30 1257 N 110.857 0.726932 -1.39834 0
M  V30 1258 C 111.82 1.82269 -1.38962 0
M  V30 1259 C 112.82 1.58248 -0.285334 0
M  V30 1260 O 114.01 1.65499 -0.54366 0
M  V30 1261 C 111.142 3.20186 -1.17019 0
M  V30 1262 H 112.335 1.84443 -2.36476 0
M  V30 1263 H 109.888 0.931416 -1.25516 0
M  V30 1264 H 110.623 3.23669 -0.202204 0
M  V30 1265 H 110.408 3.3902 -1.96998 0
M  V30 1266 H 111.898 4.00235 -1.1917 0
M  V30 1267 N 112.336 1.25143 0.95797 0
M  V30 1268 C 113.752 1.01892 1.22842 0
M  V30 1269 C 113.952 -0.266311 1.99732 0
M  V30 1270 O 113.008 -0.979913 2.3271 0
M  V30 1271 C 114.321 2.24004 2.00606 0
M  V30 1272 C 115.869 2.28731 2.13662 0
M  V30 1273 C 116.344 3.5049 2.94823 0
M  V30 1274 N 117.835 3.50866 3.02403 0
M  V30 1275 C 118.57 4.4174 3.65586 0
M  V30 1276 N 118.066 5.42882 4.30408 0
M  V30 1277 N 119.859 4.29429 3.62694 0
M  V30 1278 H 112.01 2.07718 0.443493 0
M  V30 1279 H 114.273 0.912031 0.258657 0
M  V30 1280 H 113.979 3.17395 1.51503 0
M  V30 1281 H 113.853 2.26907 3.01319 0
M  V30 1282 H 116.24 1.35865 2.61963 0
M  V30 1283 H 116.321 2.29848 1.12265 0
M  V30 1284 H 115.965 4.43676 2.47213 0
M  V30 1285 H 115.895 3.46617 3.96439 0
M  V30 1286 H 118.386 2.777 2.56302 0
M  V30 1287 H 118.699 6.0844 4.76467 0
M  V30 1288 H 117.044 5.46758 4.29047 0
M  V30 1289 H 120.235 3.49643 3.11236 0
M  V30 1290 H 120.408 5.00448 4.1165 0
M  V30 1291 N 113.814 -1.1601 1.06675 0
M  V30 1292 C 114.724 -2.24156 0.692179 0
M  V30 1293 C 115.74 -1.71507 -0.293513 0
M  V30 1294 O 116.916 -2.009 -0.141861 0
M  V30 1295 C 113.981 -3.46587 0.0884131 0
M  V30 1296 C 113.042 -4.14257 1.12646 0
M  V30 1297 C 112.275 -5.30844 0.551416 0
M  V30 1298 O 112.498 -5.66858 -0.634656 0
M  V30 1299 O 111.432 -5.87848 1.29298 0
M  V30 1300 H 115.258 -2.58513 1.59388 0
M  V30 1301 H 112.843 -1.23599 0.83926 0
M  V30 1302 H 114.725 -4.20679 -0.246361 0
M  V30 1303 H 113.4 -3.13994 -0.786712 0
M  V30 1304 H 112.307 -3.42118 1.51348 0
M  V30 1305 H 113.64 -4.50914 1.97325 0
M  V30 1306 N 115.292 -0.849877 -1.32721 0
M  V30 1307 C 116.222 -0.306308 -2.31482 0
M  V30 1308 C 117.203 0.591952 -1.59468 0
M  V30 1309 O 118.388 0.513199 -1.87296 0
M  V30 1310 C 115.518 0.510204 -3.43532 0
M  V30 1311 C 114.472 -0.293209 -4.26994 0
M  V30 1312 C 113.798 0.647743 -5.30762 0
M  V30 1313 C 115.098 -1.51634 -4.99804 0
M  V30 1314 H 116.792 -1.13153 -2.77195 0
M  V30 1315 H 114.338 -0.545553 -1.33266 0
M  V30 1316 H 116.291 0.900856 -4.11658 0
M  V30 1317 H 115.015 1.36874 -2.96535 0
M  V30 1318 H 113.674 -0.665555 -3.60508 0
M  V30 1319 H 113.322 1.50299 -4.8002 0
M  V30 1320 H 113.022 0.11422 -5.87489 0
M  V30 1321 H 114.546 1.03567 -6.01753 0
M  V30 1322 H 115.96 -1.19824 -5.60638 0
M  V30 1323 H 114.357 -1.98745 -5.66234 0
M  V30 1324 H 115.427 -2.28018 -4.27943 0
M  V30 1325 N 116.77 1.45427 -0.607355 0
M  V30 1326 C 118.186 1.57283 -0.270985 0
M  V30 1327 C 118.386 1.59875 1.22647 0
M  V30 1328 O 117.442 1.52893 2.00948 0
M  V30 1329 C 118.755 2.85566 -0.941952 0
M  V30 1330 C 120.303 2.9924 -0.917849 0
M  V30 1331 C 120.778 4.30293 -1.56882 0
M  V30 1332 N 122.269 4.37051 -1.5343 0
M  V30 1333 C 123.004 5.37123 -2.00715 0
M  V30 1334 N 122.5 6.43734 -2.56084 0
M  V30 1335 N 124.293 5.28479 -1.91484 0
M  V30 1336 H 116.444 1.41988 -1.57966 0
M  V30 1337 H 118.707 0.67885 -0.661715 0
M  V30 1338 H 118.413 2.8955 -1.99633 0
M  V30 1339 H 118.287 3.74322 -0.465096 0
M  V30 1340 H 120.674 2.94822 0.127984 0
M  V30 1341 H 120.755 2.11895 -1.43297 0
M  V30 1342 H 120.399 4.35469 -2.61398 0
M  V30 1343 H 120.329 5.16454 -1.02873 0
M  V30 1344 H 122.82 3.60615 -1.12982 0
M  V30 1345 H 123.133 7.16341 -2.89958 0
M  V30 1346 H 121.478 6.44485 -2.60122 0
M  V30 1347 H 124.669 4.44098 -1.47967 0
M  V30 1348 H 124.842 6.0632 -2.28648 0
M  V30 1349 N 118.248 0.346503 1.53744 0
M  V30 1350 C 119.497 -0.250122 2.00143 0
M  V30 1351 C 119.81 -1.51418 1.23822 0
M  V30 1352 O 121.016 -2.18823 1.60713 0
M  V30 1353 C 119.472 -0.496252 3.56462 0
M  V30 1354 C 119.08 0.752077 4.41642 0
M  V30 1355 C 120.824 -1.05157 4.11269 0
M  V30 1356 C 118.731 0.476583 5.89477 0
M  V30 1357 H 117.661 -0.0972409 0.747703 0
M  V30 1358 H 120.312 0.46229 1.77581 0
M  V30 1359 H 118.694 -1.26944 3.75102 0
M  V30 1360 H 119.868 1.5266 4.34778 0
M  V30 1361 H 118.183 1.22925 3.97842 0
M  V30 1362 H 120.78 -1.27269 5.19333 0
M  V30 1363 H 121.123 -2.00799 3.64672 0
M  V30 1364 H 121.656 -0.339019 3.96353 0
M  V30 1365 H 118.395 1.4028 6.40314 0
M  V30 1366 H 117.915 -0.259794 5.99237 0
M  V30 1367 H 119.594 0.0949315 6.4693 0
M  V30 1368 N 119.726 -1.57421 0.075193 0
M  V30 1369 C 121.142 -1.57099 -0.281444 0
M  V30 1370 C 121.342 -1.08486 -1.69803 0
M  V30 1371 O 120.398 -0.752279 -2.41033 0
M  V30 1372 C 121.711 -3.00571 -0.0880041 0
M  V30 1373 C 123.259 -3.12605 -0.157281 0
M  V30 1374 C 123.734 -4.57999 0.0079207 0
M  V30 1375 N 125.225 -4.63176 -0.0475725 0
M  V30 1376 C 125.96 -5.73373 0.0557876 0
M  V30 1377 N 125.456 -6.92473 0.21286 0
M  V30 1378 N 127.249 -5.621 -0.00152098 0
M  V30 1379 H 119.4 -1.87335 1.00098 0
M  V30 1380 H 121.663 -0.86377 0.390646 0
M  V30 1381 H 121.369 -3.40262 0.889629 0
M  V30 1382 H 121.243 -3.67754 -0.838875 0
M  V30 1383 H 123.63 -2.72798 -1.1254 0
M  V30 1384 H 123.711 -2.48053 0.62475 0
M  V30 1385 H 123.355 -4.98496 0.972824 0
M  V30 1386 H 123.285 -5.20586 -0.793556 0
M  V30 1387 H 125.776 -3.7753 -0.167244 0
M  V30 1388 H 126.089 -7.72279 0.283781 0
M  V30 1389 H 124.434 -6.94556 0.248267 0
M  V30 1390 H 127.625 -4.67938 -0.122958 0
M  V30 1391 H 127.798 -6.47948 0.0824844 0
M  V30 1392 N 121.204 0.198386 -1.56346 0
M  V30 1393 C 122.481 0.944982 -1.71258 0
M  V30 1394 C 122.861 2.0151 -0.629048 0
M  V30 1395 O 122.209 2.25639 0.360473 0
M  V30 1396 C 122.419 1.5344 -3.1346 0
M  V30 1397 C 123.767 2.01778 -3.73591 0
M  V30 1398 O 124.791 1.63288 -3.16568 0
M  V30 1399 O 123.65 2.72594 -4.73661 0
M  V30 1400 H 120.744 0.442939 -0.69838 0
M  V30 1401 H 123.29 0.188342 -1.68652 0
M  V30 1402 H 122.062 0.762869 -3.83792 0
M  V30 1403 H 121.685 2.35596 -3.20282 0
M  V30 1404 N 122.682 1.50554 0.465978 0
M  V30 1405 C 123.63 1.70324 1.58406 0
M  V30 1406 C 124.624 0.569139 1.59553 0
M  V30 1407 O 125.83 0.749776 1.63641 0
M  V30 1408 H 122.205 0.537688 0.525734 0
M  V30 1409 H 124.176 2.64104 1.38894 0
M  V30 1410 C 122.925 1.81928 2.96307 0
M  V30 1411 H 122.248 2.68586 2.96144 0
M  V30 1412 H 123.688 1.99784 3.73982 0
M  V30 1413 C 122.147 0.572095 3.32007 0
M  V30 1414 O 122.677 -0.286416 4.00678 0
M  V30 1415 N 120.883 0.424606 2.87481 0
M  V30 1416 H 120.43 1.12427 2.31771 0
M  V30 1417 H 120.388 -0.408697 3.11732 0
M  V30 1418 N 124.16 -0.719506 1.40217 0
M  V30 1419 C 125.406 -1.48152 1.38488 0
M  V30 1420 C 125.739 -1.94195 -0.0141867 0
M  V30 1421 O 125.014 -1.67884 -0.982096 0
M  V30 1422 C 125.297 -2.71035 2.37091 0
M  V30 1423 C 125.15 -2.30912 3.86005 0
M  V30 1424 C 126.469 -3.73182 2.33288 0
M  V30 1425 H 123.588 -0.537395 0.504357 0
M  V30 1426 H 126.23 -0.821472 1.71324 0
M  V30 1427 H 124.38 -3.27352 2.0922 0
M  V30 1428 H 126.052 -1.80107 4.24687 0
M  V30 1429 H 124.295 -1.62958 4.02029 0
M  V30 1430 H 124.966 -3.18978 4.50508 0
M  V30 1431 H 127.442 -3.26485 2.57966 0
M  V30 1432 H 126.318 -4.56806 3.04334 0
M  V30 1433 H 126.579 -4.21202 1.34317 0
M  V30 1434 N 125.638 -1.25649 -0.95132 0
M  V30 1435 C 127.054 -1.02542 -1.223 0
M  V30 1436 C 127.254 0.255715 -1.99871 0
M  V30 1437 O 126.31 0.967558 -2.33226 0
M  V30 1438 C 127.623 -2.25065 -1.99415 0
M  V30 1439 C 129.171 -2.29861 -2.12446 0
M  V30 1440 C 129.646 -3.52048 -2.92961 0
M  V30 1441 N 131.137 -3.52465 -3.00538 0
M  V30 1442 C 131.872 -4.43672 -3.63239 0
M  V30 1443 N 131.368 -5.45157 -4.27523 0
M  V30 1444 N 133.161 -4.31346 -3.60412 0
M  V30 1445 H 125.312 -2.07951 -0.432471 0
M  V30 1446 H 127.575 -0.91339 -0.253816 0
M  V30 1447 H 127.281 -3.18194 -1.49817 0
M  V30 1448 H 127.155 -2.28502 -3.00111 0
M  V30 1449 H 129.542 -1.37252 -2.61239 0
M  V30 1450 H 129.623 -2.3044 -1.11044 0
M  V30 1451 H 129.267 -4.44981 -2.44856 0
M  V30 1452 H 129.197 -3.48715 -3.94596 0
M  V30 1453 H 131.688 -2.79056 -2.54826 0
M  V30 1454 H 132.001 -6.10958 -4.73234 0
M  V30 1455 H 130.346 -5.49025 -4.26141 0
M  V30 1456 H 133.537 -3.51288 -3.09377 0
M  V30 1457 H 133.71 -5.02624 -4.0899 0
M  V30 1458 N 127.117 1.15442 -1.07289 0
M  V30 1459 C 128.533 1.38201 -0.798288 0
M  V30 1460 C 128.733 1.92429 0.597769 0
M  V30 1461 O 127.789 2.12962 1.3566 0
M  V30 1462 C 129.102 2.35357 -1.87156 0
M  V30 1463 C 130.65 2.49021 -1.89624 0
M  V30 1464 C 131.125 3.49468 -2.96034 0
M  V30 1465 N 132.616 3.57003 -2.95132 0
M  V30 1466 C 133.351 4.34543 -3.74112 0
M  V30 1467 N 132.847 5.15421 -4.6294 0
M  V30 1468 N 134.64 4.29625 -3.62462 0
M  V30 1469 H 126.791 0.78584 -1.97328 0
M  V30 1470 H 129.054 0.408065 -0.855679 0
M  V30 1471 H 128.76 2.02626 -2.87464 0
M  V30 1472 H 128.634 3.35129 -1.73114 0
M  V30 1473 H 131.021 2.81051 -0.899687 0
M  V30 1474 H 131.102 1.4925 -2.07745 0
M  V30 1475 H 130.746 3.18173 -3.95889 0
M  V30 1476 H 130.676 4.48992 -2.75161 0
M  V30 1477 H 133.167 2.99276 -2.30743 0
M  V30 1478 H 133.48 5.7183 -5.19837 0
M  V30 1479 H 131.825 5.14729 -4.66989 0
M  V30 1480 H 135.016 3.65505 -2.92444 0
M  V30 1481 H 135.189 4.89807 -4.24256 0
M  V30 1482 N 128.595 0.856903 1.32268 0
M  V30 1483 C 129.841 0.462069 1.97466 0
M  V30 1484 C 130.174 -0.980298 1.67642 0
M  V30 1485 O 129.449 -1.68824 0.965858 0
M  V30 1486 C 129.732 0.704336 3.53145 0
M  V30 1487 C 129.585 2.19529 3.9259 0
M  V30 1488 C 130.904 0.1622 4.39801 0
M  V30 1489 H 128.023 0.169357 0.717278 0
M  V30 1490 H 130.665 1.07574 1.56614 0
M  V30 1491 H 128.815 0.181999 3.88073 0
M  V30 1492 H 130.487 2.78387 3.67829 0
M  V30 1493 H 128.73 2.67292 3.41668 0
M  V30 1494 H 129.401 2.31549 5.01088 0
M  V30 1495 H 131.877 0.608905 4.11621 0
M  V30 1496 H 130.753 0.361265 5.4771 0
M  V30 1497 H 131.014 -0.935158 4.32096 0
M  V30 1498 N 130.073 -1.45103 0.615059 0
M  V30 1499 C 131.006 -2.27717 -0.148408 0
M  V30 1500 C 131.984 -1.37584 -0.866572 0
M  V30 1501 O 133.168 -1.67017 -0.87393 0
M  V30 1502 C 130.295 -3.16136 -1.21557 0
M  V30 1503 C 129.341 -4.22263 -0.599712 0
M  V30 1504 S 130.174 -5.3215 0.598081 0
M  V30 1505 C 131.33 -6.24137 -0.469484 0
M  V30 1506 H 131.563 -2.92121 0.552483 0
M  V30 1507 H 129.096 -1.49054 0.402778 0
M  V30 1508 H 131.054 -3.67633 -1.82638 0
M  V30 1509 H 129.715 -2.50982 -1.88857 0
M  V30 1510 H 128.908 -4.84081 -1.4029 0
M  V30 1511 H 128.51 -3.73945 -0.063876 0
M  V30 1512 H 130.802 -6.63984 -1.34652 0
M  V30 1513 H 131.745 -7.0801 0.112725 0
M  V30 1514 H 132.153 -5.58971 -0.788168 0
M  V30 1515 N 131.551 -0.354651 -1.53558 0
M  V30 1516 C 132.797 0.238797 -2.01389 0
M  V30 1517 C 133.13 1.49309 -1.2418 0
M  V30 1518 O 132.405 1.91638 -0.332457 0
M  V30 1519 C 132.688 0.541771 -3.56001 0
M  V30 1520 C 132.541 -0.725388 -4.43912 0
M  V30 1521 C 133.86 1.34685 -4.18984 0
M  V30 1522 H 130.979 0.0853177 -0.732045 0
M  V30 1523 H 133.621 -0.477384 -1.83905 0
M  V30 1524 H 131.771 1.15189 -3.71031 0
M  V30 1525 H 133.443 -1.36313 -4.407 0
M  V30 1526 H 131.686 -1.34801 -4.12324 0
M  V30 1527 H 132.357 -0.468505 -5.50008 0
M  V30 1528 H 134.833 0.830837 -4.07721 0
M  V30 1529 H 133.709 1.52759 -5.27215 0
M  V30 1530 H 133.97 2.35221 -3.74331 0
M  V30 1531 N 133.029 1.57378 -0.0835403 0
M  V30 1532 C 134.275 1.94217 0.583733 0
M  V30 1533 C 134.608 0.964653 1.68547 0
M  V30 1534 O 133.883 -0.00422258 1.945 0
M  V30 1535 C 134.166 3.41253 1.14972 0
M  V30 1536 C 134.019 4.49768 0.0538277 0
M  V30 1537 C 135.338 3.89352 2.05166 0
M  V30 1538 H 132.457 0.706233 0.210724 0
M  V30 1539 H 135.099 1.89392 -0.1519 0
M  V30 1540 H 133.249 3.45496 1.77665 0
M  V30 1541 H 134.921 4.57641 -0.579851 0
M  V30 1542 H 133.164 4.29432 -0.614068 0
M  V30 1543 H 133.835 5.49817 0.490452 0
M  V30 1544 H 136.311 3.87189 1.52393 0
M  V30 1545 H 135.187 4.92822 2.41698 0
M  V30 1546 H 135.448 3.27973 2.96456 0
M  V30 1547 N 134.507 -0.190092 1.56449 0
M  V30 1548 C 135.454 -1.23557 1.94942 0
M  V30 1549 C 136.424 -1.44972 0.810696 0
M  V30 1550 O 137.609 -1.58023 1.06927 0
M  V30 1551 C 134.749 -2.57416 2.2985 0
M  V30 1552 C 133.862 -2.43537 3.5681 0
M  V30 1553 C 132.997 -3.70134 3.81017 0
M  V30 1554 C 132.036 -3.51109 5.01387 0
M  V30 1555 N 131.173 -4.6973 5.21822 0
M  V30 1556 H 136.013 -0.900304 2.84075 0
M  V30 1557 H 133.55 -0.43318 1.40577 0
M  V30 1558 H 135.508 -3.35409 2.48106 0
M  V30 1559 H 134.138 -2.88975 1.43852 0
M  V30 1560 H 133.19 -1.56816 3.46573 0
M  V30 1561 H 134.502 -2.25415 4.4496 0
M  V30 1562 H 133.656 -4.56566 3.9954 0
M  V30 1563 H 132.395 -3.91215 2.91207 0
M  V30 1564 H 131.4 -2.63063 4.82782 0
M  V30 1565 H 132.625 -3.31468 5.9271 0
M  V30 1566 H 130.571 -4.91065 4.34961 0
M  V30 1567 H 130.488 -4.54452 6.0416 0
M  V30 1568 H 131.756 -5.57499 5.44808 0
M  V30 1569 N 135.985 -1.50799 -0.457987 0
M  V30 1570 C 137.21 -1.66496 -1.23668 0
M  V30 1571 C 137.635 -0.353288 -1.84752 0
M  V30 1572 O 136.993 0.684346 -1.67888 0
M  V30 1573 C 137.041 -2.76763 -2.3116 0
M  V30 1574 O 136.145 -2.38928 -3.36136 0
M  V30 1575 H 135.486 -0.555828 -0.363252 0
M  V30 1576 H 138.016 -1.9725 -0.543474 0
M  V30 1577 H 138.026 -3.00232 -2.76269 0
M  V30 1578 H 136.701 -3.71954 -1.86073 0
M  V30 1579 H 135.278 -2.25953 -2.96647 0
M  V30 1580 N 137.463 0.71206 -1.40597 0
M  V30 1581 C 138.395 1.83704 -1.37061 0
M  V30 1582 C 139.408 1.60453 -0.275426 0
M  V30 1583 O 140.597 1.70262 -0.53602 0
M  V30 1584 C 137.697 3.20172 -1.11099 0
M  V30 1585 C 136.87 3.7059 -2.3234 0
M  V30 1586 C 135.929 4.85681 -2.02485 0
M  V30 1587 O 134.955 4.9815 -2.75382 0
M  V30 1588 N 136.157 5.71735 -1.00497 0
M  V30 1589 H 138.922 1.87235 -2.34016 0
M  V30 1590 H 136.483 0.893739 -1.34996 0
M  V30 1591 H 138.475 3.94768 -0.891064 0
M  V30 1592 H 137.045 3.11767 -0.227989 0
M  V30 1593 H 136.265 2.87085 -2.7014 0
M  V30 1594 H 137.553 4.01011 -3.13157 0
M  V30 1595 H 136.951 5.64275 -0.401298 0
M  V30 1596 H 135.508 6.463 -0.844942 0
M  V30 1597 N 138.941 1.26152 0.944643 0
M  V30 1598 C 139.851 1.09176 2.07648 0
M  V30 1599 C 140.867 0.0261935 1.7398 0
M  V30 1600 O 142.043 0.229208 2.00091 0
M  V30 1601 C 139.108 0.722915 3.39079 0
M  V30 1602 C 138.169 1.86752 3.86552 0
M  V30 1603 C 137.402 1.51617 5.11711 0
M  V30 1604 O 137.625 0.416331 5.68879 0
M  V30 1605 O 136.559 2.34975 5.54139 0
M  V30 1606 H 140.385 2.0412 2.24875 0
M  V30 1607 H 137.97 1.05182 1.061 0
M  V30 1608 H 139.852 0.529787 4.18056 0
M  V30 1609 H 138.527 -0.197159 3.23099 0
M  V30 1610 H 137.434 2.11558 3.08535 0
M  V30 1611 H 138.767 2.76719 4.07047 0
M  V30 1612 N 140.419 -1.14872 1.07899 0
M  V30 1613 C 141.83 -1.67367 0.827363 0
M  V30 1614 C 142.181 -1.85236 -0.646693 0
M  V30 1615 O 141.306 -1.55974 -1.50004 0
M  V30 1616 C 141.901 -3.04016 1.49532 0
M  V30 1617 C 140.46 -3.53566 1.29106 0
M  V30 1618 C 139.607 -2.29161 1.56143 0
M  V30 1619 H 142.558 -0.990083 1.24028 0
M  V30 1620 H 142.579 -3.69219 0.919643 0
M  V30 1621 H 142.091 -2.90978 2.56814 0
M  V30 1622 H 140.192 -3.71835 0.238713 0
M  V30 1623 H 140.305 -4.34661 2.01511 0
M  V30 1624 H 138.669 -2.34978 0.982717 0
M  V30 1625 H 139.452 -2.18705 2.64619 0
M  V30 1626 N 141.898 -0.863906 -1.31812 0
M  V30 1627 C 143.145 -0.471836 -1.96926 0
M  V30 1628 C 143.473 0.974578 -1.68322 0
M  V30 1629 O 142.728 1.7003 -0.968933 0
M  V30 1630 C 143.027 -0.668547 -3.51091 0
M  V30 1631 C 142.693 -2.08683 -3.99703 0
M  V30 1632 C 141.355 -2.47471 -4.12688 0
M  V30 1633 C 143.707 -3.01207 -4.25351 0
M  V30 1634 C 141.035 -3.78037 -4.4867 0
M  V30 1635 C 143.387 -4.31282 -4.62794 0
M  V30 1636 C 142.051 -4.69992 -4.73987 0
M  V30 1637 H 141.321 -0.172657 -0.720604 0
M  V30 1638 H 143.968 -1.09573 -1.57054 0
M  V30 1639 H 142.273 0.0385252 -3.91781 0
M  V30 1640 H 143.97 -0.345102 -3.99512 0
M  V30 1641 H 140.56 -1.77566 -3.90087 0
M  V30 1642 H 144.744 -2.72469 -4.14819 0
M  V30 1643 H 140 -4.078 -4.55532 0
M  V30 1644 H 144.174 -5.03031 -4.81594 0
M  V30 1645 H 141.801 -5.71207 -5.01624 0
M  V30 1646 N 143.376 1.44774 -0.622745 0
M  V30 1647 C 144.306 2.33382 0.0741861 0
M  V30 1648 C 145.287 1.47719 0.843387 0
M  V30 1649 O 146.472 1.76458 0.810934 0
M  V30 1650 C 143.602 3.30663 1.06204 0
M  V30 1651 C 142.556 4.26079 0.405037 0
M  V30 1652 C 141.882 5.13165 1.5022 0
M  V30 1653 C 143.182 5.1781 -0.683414 0
M  V30 1654 H 144.876 2.91905 -0.665713 0
M  V30 1655 H 142.422 1.40363 -0.321587 0
M  V30 1656 H 144.375 3.9153 1.55827 0
M  V30 1657 H 143.099 2.70331 1.83272 0
M  V30 1658 H 141.758 3.66532 -0.0704683 0
M  V30 1659 H 141.406 4.49191 2.26355 0
M  V30 1660 H 141.106 5.77812 1.06803 0
M  V30 1661 H 142.63 5.76902 2.00041 0
M  V30 1662 H 144.044 5.72661 -0.270631 0
M  V30 1663 H 142.441 5.91015 -1.04023 0
M  V30 1664 H 143.511 4.59326 -1.55395 0
M  V30 1665 N 144.854 0.36279 1.53368 0
M  V30 1666 C 145.817 -0.472679 2.24273 0
M  V30 1667 C 146.817 -1.012 1.24961 0
M  V30 1668 O 148.007 -0.898194 1.49259 0
M  V30 1669 C 145.139 -1.66039 2.97731 0
M  V30 1670 H 146.332 0.14773 2.99536 0
M  V30 1671 H 143.885 0.114434 1.55881 0
M  V30 1672 H 144.62 -2.31896 2.26704 0
M  V30 1673 H 144.405 -1.28066 3.70596 0
M  V30 1674 H 145.895 -2.25252 3.51641 0
M  V30 1675 N 146.332 -1.57332 0.0918853 0
M  V30 1676 C 147.28 -2.15075 -0.885747 0
M  V30 1677 C 148.274 -1.09277 -1.29441 0
M  V30 1678 O 149.48 -1.27627 -1.26931 0
M  V30 1679 H 145.855 -0.687966 -0.303656 0
M  V30 1680 H 147.826 -2.96047 -0.373995 0
M  V30 1681 C 146.575 -2.74325 -2.13638 0
M  V30 1682 H 145.898 -3.55418 -1.8308 0
M  V30 1683 H 147.338 -3.183 -2.80109 0
M  V30 1684 C 145.797 -1.70062 -2.90827 0
M  V30 1685 O 146.327 -1.13763 -3.85254 0
M  V30 1686 N 144.533 -1.40628 -2.54307 0
M  V30 1687 H 144.08 -1.866 -1.7759 0
M  V30 1688 H 144.038 -0.711043 -3.06254 0
M  V30 1689 N 147.81 0.181792 -1.56548 0
M  V30 1690 C 148.773 1.20894 -1.94724 0
M  V30 1691 C 149.773 1.37738 -0.829747 0
M  V30 1692 O 150.963 1.35323 -1.09697 0
M  V30 1693 C 148.095 2.57593 -2.23291 0
M  V30 1694 H 149.288 0.882275 -2.86629 0
M  V30 1695 H 146.841 0.423838 -1.50444 0
M  V30 1696 H 147.576 2.95291 -1.34067 0
M  V30 1697 H 147.361 2.46735 -3.04736 0
M  V30 1698 H 148.851 3.31637 -2.53785 0
M  V30 1699 O 149.327 1.58157 0.326881 0
M  V30 1700 H 150.018 1.6734 0.975558 0
M  V30 END ATOM
M  V30 BEGIN BOND
M  V30 END BOND
M  V30 END CTAB
M  END
$$$$
