drugbank_target|Q5SSJ5 Heterochromatin protein 1-binding protein 3 (DB11638)
 OpenBabel12092121093D

  0  0  0     0  0            999 V3000
M  V30 BEGIN CTAB
M  V30 COUNTS 8746 8822 0 0 0
M  V30 BEGIN ATOM
M  V30 1 H -0.908 1.98254 -0.117106 0
M  V30 2 N 0 1.576 0 0
M  V30 3 C 0.933 2.03868 1.02534 0
M  V30 4 C 1.911 0.928543 1.3348 0
M  V30 5 O 3.095 1.19667 1.45644 0
M  V30 6 C 0.222 2.43627 2.35294 0
M  V30 7 C -0.732 3.65373 2.2001 0
M  V30 8 S 0.101 5.13292 1.52614 0
M  V30 9 C 1.257 5.56322 2.86805 0
M  V30 10 H 1.49 2.90518 0.631377 0
M  V30 11 H -0.977 1.52953 0.210867 0
M  V30 12 H 0.981 2.67203 3.11629 0
M  V30 13 H -0.358 1.57376 2.7183 0
M  V30 14 H -1.165 3.90944 3.18086 0
M  V30 15 H -1.563 3.418 1.51819 0
M  V30 16 H 0.729 5.58782 3.83104 0
M  V30 17 H 1.672 6.56266 2.65933 0
M  V30 18 H 2.08 4.83886 2.90714 0
M  V30 19 N 1.4781 -0.272755 1.55222 0
M  V30 20 C 2.4411 -1.32041 1.87344 0
M  V30 21 C 3.4411 -1.42342 0.74803 0
M  V30 22 O 4.6311 -1.41488 1.0162 0
M  V30 23 C 1.7631 -2.70173 2.07893 0
M  V30 24 H 2.9561 -1.04789 2.80997 0
M  V30 25 H 0.5091 -0.51083 1.47717 0
M  V30 26 H 1.2441 -3.02605 1.16622 0
M  V30 27 H 1.0291 -2.64082 2.89833 0
M  V30 28 H 2.5191 -3.45869 2.34017 0
M  V30 29 N 2.9562 -1.48159 -0.537278 0
M  V30 30 C 4.1842 -1.59454 -1.31841 0
M  V30 31 C 4.5992 -0.252065 -1.8711 0
M  V30 32 O 3.9562 0.757621 -1.66031 0
M  V30 33 C 4.0072 -2.63546 -2.47439 0
M  V30 34 O 3.7282 -3.92583 -1.94449 0
M  V30 35 C 5.2292 -2.85212 -3.39366 0
M  V30 36 H 2.4492 -0.53785 -0.401196 0
M  V30 37 H 4.9932 -1.93932 -0.648891 0
M  V30 38 H 3.1482 -2.31946 -3.1029 0
M  V30 39 H 3.5622 -4.49629 -2.70063 0
M  V30 40 H 5.0362 -3.61863 -4.16844 0
M  V30 41 H 5.5132 -1.93765 -3.94147 0
M  V30 42 H 6.1192 -3.18086 -2.82314 0
M  V30 43 N 4.4343 0.785586 -1.36625 0
M  V30 44 C 5.7113 1.53198 -1.21613 0
M  V30 45 C 6.0913 2.10187 0.196113 0
M  V30 46 O 5.4393 1.94318 1.20219 0
M  V30 47 C 5.6493 2.62388 -2.30116 0
M  V30 48 C 6.9973 3.30167 -2.66974 0
M  V30 49 O 8.0213 2.72674 -2.29188 0
M  V30 50 O 6.8803 4.34077 -3.32023 0
M  V30 51 H 3.9743 0.677865 -0.473738 0
M  V30 52 H 6.5203 0.823739 -1.48367 0
M  V30 53 H 5.2923 2.18299 -3.24748 0
M  V30 54 H 4.9153 3.40827 -2.0475 0
M  V30 55 N 5.9124 1.20967 1.01018 0
M  V30 56 C 7.1404 1.04956 1.78303 0
M  V30 57 C 7.5554 -0.400915 1.84494 0
M  V30 58 O 6.9124 -1.27826 1.30257 0
M  V30 59 C 6.9634 1.63403 3.22462 0
M  V30 60 O 6.6844 3.02775 3.16637 0
M  V30 61 C 8.1854 1.52432 4.16268 0
M  V30 62 H 5.4054 0.368858 0.560522 0
M  V30 63 H 7.9494 1.60193 1.27116 0
M  V30 64 H 6.1044 1.1227 3.70775 0
M  V30 65 H 6.5184 3.30626 4.07169 0
M  V30 66 H 7.9924 1.98078 5.15237 0
M  V30 67 H 8.4694 0.477875 4.36592 0
M  V30 68 H 9.0754 2.02787 3.73841 0
M  V30 69 N 7.3905 -1.2043 1.01659 0
M  V30 70 C 8.6155 -1.94318 0.724942 0
M  V30 71 C 9.0405 -1.74266 -0.708034 0
M  V30 72 O 8.3985 -1.03694 -1.48719 0
M  V30 73 C 8.4465 -3.44486 1.06591 0
M  V30 74 O 7.5505 -4.12017 0.177599 0
M  V30 75 H 6.8915 -0.60708 0.26898 0
M  V30 76 H 9.4215 -1.52861 1.35995 0
M  V30 77 H 9.4315 -3.95106 1.01762 0
M  V30 78 H 8.1065 -3.58404 2.10997 0
M  V30 79 H 6.6835 -3.71821 0.283421 0
M  V30 80 N 8.8686 -0.792821 -1.36206 0
M  V30 81 C 9.8006 -0.151469 -2.28699 0
M  V30 82 C 10.8136 0.641262 -1.49638 0
M  V30 83 O 12.0026 0.475885 -1.72039 0
M  V30 84 C 9.1026 0.808424 -3.29117 0
M  V30 85 C 8.2756 0.0650202 -4.37352 0
M  V30 86 C 7.3346 0.941358 -5.17711 0
M  V30 87 O 6.3606 0.397352 -5.67811 0
M  V30 88 N 7.5626 2.2652 -5.3448 0
M  V30 89 H 10.3276 -0.945982 -2.84379 0
M  V30 90 H 7.8886 -0.647032 -1.48409 0
M  V30 91 H 9.8806 1.3986 -3.79765 0
M  V30 92 H 8.4506 1.5038 -2.74052 0
M  V30 93 H 7.6706 -0.706255 -3.87822 0
M  V30 94 H 8.9586 -0.447847 -5.06825 0
M  V30 95 H 8.3566 2.73128 -4.95396 0
M  V30 96 H 6.9136 2.80493 -5.88359 0
M  V30 97 N 10.3467 1.47872 -0.545128 0
M  V30 98 C 11.5947 2.02093 -0.016553 0
M  V30 99 C 11.9157 1.42305 1.3332 0
M  V30 100 O 11.1857 0.593853 1.86682 0
M  V30 101 H 9.7657 0.746993 -0.00313038 0
M  V30 102 H 12.4277 1.81414 -0.712397 0
M  V30 103 H 11.5237 3.11996 0.0805422 0
M  V30 104 N 11.8248 0.280983 1.55075 0
M  V30 105 C 12.7348 -0.61388 2.26426 0
M  V30 106 C 13.7508 -1.16521 1.29224 0
M  V30 107 O 14.9268 -1.19426 1.62171 0
M  V30 108 C 11.9918 -1.7788 2.9759 0
M  V30 109 C 11.0528 -1.26355 4.10284 0
M  V30 110 C 10.2858 -2.37295 4.78045 0
M  V30 111 O 10.5088 -3.56777 4.45047 0
M  V30 112 O 9.4428 -2.05119 5.65871 0
M  V30 113 H 13.2688 -0.0356932 3.03679 0
M  V30 114 H 10.8538 0.0481686 1.49322 0
M  V30 115 H 12.7358 -2.45791 3.42293 0
M  V30 116 H 11.4108 -2.34397 2.23249 0
M  V30 117 H 10.3178 -0.550735 3.70024 0
M  V30 118 H 11.6508 -0.744065 4.86543 0
M  V30 119 N 13.3029 -1.57598 0.00835791 0
M  V30 120 C 14.2329 -2.1198 -0.979113 0
M  V30 121 C 15.2139 -1.03091 -1.35301 0
M  V30 122 O 16.3989 -1.30818 -1.43528 0
M  V30 123 C 13.5289 -2.62995 -2.26828 0
M  V30 124 C 12.4829 -3.76485 -2.03576 0
M  V30 125 C 11.8089 -4.13846 -3.38579 0
M  V30 126 C 13.1089 -5.0342 -1.39161 0
M  V30 127 H 14.8029 -2.94738 -0.526281 0
M  V30 128 H 12.3489 -1.41783 -0.251704 0
M  V30 129 H 14.3019 -2.99669 -2.96271 0
M  V30 130 H 13.0259 -1.7737 -2.7424 0
M  V30 131 H 11.6849 -3.40217 -1.36557 0
M  V30 132 H 11.3329 -3.25232 -3.83709 0
M  V30 133 H 11.0329 -4.90312 -3.23834 0
M  V30 134 H 12.5569 -4.53086 -4.09323 0
M  V30 135 H 13.9709 -5.37812 -1.98573 0
M  V30 136 H 12.3679 -5.84746 -1.34878 0
M  V30 137 H 13.4379 -4.83548 -0.361868 0
M  V30 138 N 14.781 0.264519 -1.55364 0
M  V30 139 C 16.027 0.99646 -1.76631 0
M  V30 140 C 16.36 1.85632 -0.570478 0
M  V30 141 O 15.635 1.89647 0.43175 0
M  V30 142 C 15.918 1.87187 -3.07625 0
M  V30 143 C 15.771 1.04138 -4.37579 0
M  V30 144 C 17.09 2.85749 -3.34717 0
M  V30 145 H 14.209 0.360841 -0.642622 0
M  V30 146 H 16.851 0.268218 -1.88097 0
M  V30 147 H 15.001 2.49279 -2.9798 0
M  V30 148 H 16.673 0.440517 -4.59192 0
M  V30 149 H 14.916 0.345115 -4.32425 0
M  V30 150 H 15.587 1.68729 -5.2558 0
M  V30 151 H 18.063 2.33793 -3.4421 0
M  V30 152 H 16.939 3.44136 -4.27623 0
M  V30 153 H 17.2 3.61311 -2.54768 0
M  V30 154 N 16.2591 1.48442 0.529413 0
M  V30 155 C 17.2091 1.59407 1.63014 0
M  V30 156 C 18.1931 0.451166 1.54445 0
M  V30 157 O 19.3851 0.702635 1.62456 0
M  V30 158 C 16.5141 1.63746 3.01732 0
M  V30 159 C 15.6001 2.83518 3.15402 0
M  V30 160 N 15.9911 4.07929 2.99045 0
M  V30 161 C 14.2891 2.80862 3.46457 0
M  V30 162 C 14.9901 4.8829 3.16146 0
M  V30 163 N 13.9661 4.21117 3.43746 0
M  V30 164 H 17.7681 2.53343 1.48978 0
M  V30 165 H 15.2821 1.44821 0.734885 0
M  V30 166 H 17.2791 1.69695 3.80801 0
M  V30 167 H 15.9391 0.709264 3.16859 0
M  V30 168 H 16.9501 4.38357 2.75796 0
M  V30 169 H 13.6271 1.97301 3.67938 0
M  V30 170 H 15.0171 5.97028 3.08232 0
M  V30 171 N 17.7372 -0.778329 1.37039 0
M  V30 172 C 19.1482 -1.35421 1.28523 0
M  V30 173 C 19.4992 -1.96075 -0.0700901 0
M  V30 174 O 18.6242 -1.93352 -0.971801 0
M  V30 175 C 19.2192 -2.46211 2.32735 0
M  V30 176 C 17.7782 -2.99585 2.27873 0
M  V30 177 C 16.9252 -1.72748 2.16918 0
M  V30 178 H 19.8762 -0.5791 1.47757 0
M  V30 179 H 19.8972 -3.2552 1.9702 0
M  V30 180 H 19.4092 -2.02036 3.31365 0
M  V30 181 H 17.5102 -3.48152 1.32745 0
M  V30 182 H 17.6232 -3.55646 3.21018 0
M  V30 183 H 15.9872 -1.95416 1.63354 0
M  V30 184 H 16.7702 -1.30686 3.17452 0
M  V30 185 N 19.2153 -1.21501 -1.00376 0
M  V30 186 C 20.1623 -0.975387 -2.09177 0
M  V30 187 C 21.1323 0.0990615 -1.65804 0
M  V30 188 O 22.3173 -0.0483147 -1.90739 0
M  V30 189 C 19.4573 -0.547507 -3.40729 0
M  V30 190 C 18.5703 -1.69153 -3.97506 0
M  V30 191 C 17.7053 -1.2127 -5.17172 0
M  V30 192 C 16.7443 -2.32897 -5.66061 0
M  V30 193 N 15.8813 -1.86138 -6.76976 0
M  V30 194 H 20.7213 -1.9068 -2.29009 0
M  V30 195 H 18.2583 -0.950257 -1.12288 0
M  V30 196 H 20.2163 -0.280667 -4.16255 0
M  V30 197 H 18.8463 0.346904 -3.20931 0
M  V30 198 H 17.8983 -2.07298 -3.18954 0
M  V30 199 H 19.2103 -2.5316 -4.29781 0
M  V30 200 H 18.3643 -0.902591 -5.99948 0
M  V30 201 H 17.1033 -0.342692 -4.86495 0
M  V30 202 H 16.1083 -2.64709 -4.81881 0
M  V30 203 H 17.3333 -3.20396 -5.98768 0
M  V30 204 H 15.2793 -1.01484 -6.48103 0
M  V30 205 H 15.1963 -2.63717 -7.08512 0
M  V30 206 H 16.4643 -1.58165 -7.63285 0
M  V30 207 N 20.6934 1.19889 -1.02296 0
M  V30 208 C 21.6564 2.21116 -0.603351 0
M  V30 209 C 22.6564 1.5738 0.329884 0
M  V30 210 O 23.8464 1.73802 0.117702 0
M  V30 211 C 20.9784 3.40696 0.117992 0
M  V30 212 H 22.1714 2.59754 -1.49893 0
M  V30 213 H 19.7244 1.33463 -0.813468 0
M  V30 214 H 20.4594 3.07569 1.0282 0
M  V30 215 H 20.2444 3.88188 -0.552511 0
M  V30 216 H 21.7344 4.15692 0.398696 0
M  V30 217 N 22.1715 0.800033 1.35784 0
M  V30 218 C 23.1015 0.220184 2.3246 0
M  V30 219 C 24.0825 -0.65073 1.57161 0
M  V30 220 O 25.2675 -0.582359 1.85263 0
M  V30 221 C 22.3975 -0.637353 3.41402 0
M  V30 222 C 21.3515 0.134531 4.27789 0
M  V30 223 C 20.6775 -0.844285 5.27992 0
M  V30 224 C 21.9775 1.32979 5.05088 0
M  V30 225 H 23.6715 1.02787 2.81203 0
M  V30 226 H 21.2175 0.495717 1.35199 0
M  V30 227 H 23.1705 -1.05302 4.08031 0
M  V30 228 H 21.8945 -1.47785 2.91251 0
M  V30 229 H 20.5535 0.531296 3.6273 0
M  V30 230 H 20.2015 -1.68011 4.74111 0
M  V30 231 H 19.9015 -0.332184 5.8666 0
M  V30 232 H 21.4255 -1.2583 5.97494 0
M  V30 233 H 22.8395 0.98934 5.64699 0
M  V30 234 H 21.2365 1.77593 5.7322 0
M  V30 235 H 22.3065 2.11978 4.36111 0
M  V30 236 N 23.6496 -1.47581 0.552962 0
M  V30 237 C 25.0606 -1.86324 0.118463 0
M  V30 238 C 25.4116 -1.46006 -1.3106 0
M  V30 239 O 24.5366 -0.861182 -1.98526 0
M  V30 240 C 25.1316 -3.3816 0.20821 0
M  V30 241 C 23.6906 -3.7601 -0.171226 0
M  V30 242 C 22.8376 -2.71634 0.557686 0
M  V30 243 H 25.7886 -1.39159 0.762928 0
M  V30 244 H 25.8096 -3.76141 -0.574278 0
M  V30 245 H 25.3216 -3.67473 1.24841 0
M  V30 246 H 23.4226 -3.52313 -1.21269 0
M  V30 247 H 23.5356 -4.78745 0.184379 0
M  V30 248 H 21.8996 -2.547 0.00125792 0
M  V30 249 H 22.6826 -3.0379 1.59896 0
M  V30 250 N 25.1277 -0.289203 -1.54924 0
M  V30 251 C 26.0577 0.58549 -2.2604 0
M  V30 252 C 27.0387 1.14753 -1.25562 0
M  V30 253 O 28.2237 1.17906 -1.54311 0
M  V30 254 C 25.3537 1.76305 -2.99222 0
M  V30 255 C 24.3077 1.33191 -4.06748 0
M  V30 256 C 23.6337 2.5937 -4.6758 0
M  V30 257 C 24.9337 0.471775 -5.20165 0
M  V30 258 H 26.6277 -0.00763532 -2.99399 0
M  V30 259 H 24.1737 -0.00511229 -1.43999 0
M  V30 260 H 26.1267 2.38097 -3.47689 0
M  V30 261 H 24.8507 2.38223 -2.23422 0
M  V30 262 H 23.5097 0.737121 -3.59113 0
M  V30 263 H 23.1577 3.19576 -3.88433 0
M  V30 264 H 22.8577 2.31228 -5.40192 0
M  V30 265 H 24.3817 3.21985 -5.18804 0
M  V30 266 H 25.7957 0.995056 -5.64599 0
M  V30 267 H 24.1927 0.284639 -5.99425 0
M  V30 268 H 25.2627 -0.506041 -4.82252 0
M  V30 269 N 26.6058 1.57591 -0.0167156 0
M  V30 270 C 27.8548 1.90461 0.663877 0
M  V30 271 C 28.1678 0.893515 1.73999 0
M  V30 272 O 29.3738 1.11302 2.47637 0
M  V30 273 C 27.8298 3.38155 1.23204 0
M  V30 274 C 27.4378 4.47597 0.189866 0
M  V30 275 C 29.1818 3.80111 1.88986 0
M  V30 276 C 27.0888 5.86379 0.768964 0
M  V30 277 H 26.0188 0.710738 0.251729 0
M  V30 278 H 28.6698 1.83326 -0.0799926 0
M  V30 279 H 27.0518 3.40182 2.02712 0
M  V30 280 H 28.2258 4.57112 -0.581846 0
M  V30 281 H 26.5408 4.14766 -0.368475 0
M  V30 282 H 29.1378 4.81145 2.33247 0
M  V30 283 H 29.4808 3.14511 2.72743 0
M  V30 284 H 30.0138 3.80454 1.16187 0
M  V30 285 H 26.7528 6.55493 -0.0301957 0
M  V30 286 H 26.2728 5.80496 1.50945 0
M  V30 287 H 27.9518 6.34563 1.26251 0
M  V30 288 N 28.0839 -0.256276 1.55502 0
M  V30 289 C 29.3299 -0.987079 1.77157 0
M  V30 290 C 29.6629 -1.85327 0.580315 0
M  V30 291 O 28.9379 -1.89874 -0.421686 0
M  V30 292 C 29.2209 -1.85553 3.08613 0
M  V30 293 C 29.0739 -1.01816 4.38125 0
M  V30 294 C 30.3929 -2.8397 3.36228 0
M  V30 295 H 27.5119 -0.357428 0.644526 0
M  V30 296 H 30.1539 -0.258239 1.88237 0
M  V30 297 H 28.3039 -2.47695 2.99298 0
M  V30 298 H 29.9759 -0.416159 4.59419 0
M  V30 299 H 28.2189 -0.322178 4.32602 0
M  V30 300 H 28.8899 -1.65939 5.26468 0
M  V30 301 H 31.3659 -2.31964 3.45445 0
M  V30 302 H 30.2419 -3.41864 4.29442 0
M  V30 303 H 30.5029 -3.59955 2.56681 0
M  V30 304 N 29.562 -1.4872 -0.521534 0
M  V30 305 C 30.81 -1.56857 -1.27437 0
M  V30 306 C 31.131 -0.247982 -1.93417 0
M  V30 307 O 30.401 0.731151 -1.81744 0
M  V30 308 H 28.981 -0.577885 -0.473347 0
M  V30 309 H 31.643 -1.85233 -0.606205 0
M  V30 310 H 30.739 -2.35402 -2.0492 0
M  V30 311 N 31.0401 0.771051 -1.3745 0
M  V30 312 C 32.0031 1.86598 -1.33093 0
M  V30 313 C 33.0031 1.59076 -0.234845 0
M  V30 314 O 34.1931 1.67145 -0.490732 0
M  V30 315 C 31.3251 3.23747 -1.06773 0
M  V30 316 H 32.5181 1.91873 -2.30488 0
M  V30 317 H 30.0711 0.970876 -1.2249 0
M  V30 318 H 30.8061 3.24148 -0.099129 0
M  V30 319 H 30.5911 3.45115 -1.86112 0
M  V30 320 H 32.0811 4.03824 -1.06377 0
M  V30 321 N 32.5182 1.22032 0.997298 0
M  V30 322 C 33.4502 0.944263 2.08845 0
M  V30 323 C 34.4632 -0.0754663 1.62625 0
M  V30 324 O 35.6522 0.157994 1.77799 0
M  V30 325 C 32.7522 0.397723 3.36558 0
M  V30 326 C 31.9252 1.47362 4.11829 0
M  V30 327 C 30.9842 0.934951 5.17827 0
M  V30 328 O 30.0102 1.62016 5.45655 0
M  V30 329 N 31.2122 -0.245895 5.79979 0
M  V30 330 H 33.9772 1.88363 2.33109 0
M  V30 331 H 31.5382 1.12661 1.16272 0
M  V30 332 H 33.5302 0.0227771 4.04694 0
M  V30 333 H 32.1002 -0.446646 3.09393 0
M  V30 334 H 31.3202 2.02208 3.38386 0
M  V30 335 H 32.6082 2.19764 4.58891 0
M  V30 336 H 32.0062 -0.819475 5.59733 0
M  V30 337 H 30.5632 -0.562272 6.4937 0
M  V30 338 N 33.9963 -1.19345 1.0293 0
M  V30 339 C 34.9263 -2.2481 0.631105 0
M  V30 340 C 35.9073 -1.66245 -0.360104 0
M  V30 341 O 37.0923 -1.92677 -0.242726 0
M  V30 342 C 34.2223 -3.47295 -0.0184607 0
M  V30 343 C 33.1763 -4.18536 0.895073 0
M  V30 344 C 32.5023 -5.34586 0.110592 0
M  V30 345 C 33.8023 -4.73287 2.209 0
M  V30 346 H 35.4963 -2.58372 1.51275 0
M  V30 347 H 33.0423 -1.24194 0.728818 0
M  V30 348 H 34.9953 -4.20268 -0.308675 0
M  V30 349 H 33.7193 -3.12933 -0.934907 0
M  V30 350 H 32.3783 -3.47446 1.16949 0
M  V30 351 H 32.0263 -4.96469 -0.807902 0
M  V30 352 H 31.7263 -5.83183 0.719087 0
M  V30 353 H 33.2503 -6.10355 -0.172871 0
M  V30 354 H 34.6643 -5.38013 1.98028 0
M  V30 355 H 33.0613 -5.32373 2.76946 0
M  V30 356 H 34.1313 -3.91331 2.86336 0
M  V30 357 N 35.4744 -0.807222 -1.35358 0
M  V30 358 C 36.7234 -0.384376 -1.98004 0
M  V30 359 C 37.0364 1.0543 -1.64754 0
M  V30 360 O 38.2424 1.58029 -2.20769 0
M  V30 361 C 36.6984 -0.636326 -3.5423 0
M  V30 362 C 36.3064 -2.08759 -3.96388 0
M  V30 363 C 38.0504 -0.278869 -4.23583 0
M  V30 364 C 35.9574 -2.28525 -5.45463 0
M  V30 365 H 34.8874 -0.139986 -0.740891 0
M  V30 366 H 37.5384 -0.991369 -1.54415 0
M  V30 367 H 35.9204 0.0406256 -3.95979 0
M  V30 368 H 37.0944 -2.8024 -3.6579 0
M  V30 369 H 35.4094 -2.40497 -3.39926 0
M  V30 370 H 38.0064 -0.404599 -5.33167 0
M  V30 371 H 38.3494 0.775012 -4.09022 0
M  V30 372 H 38.8824 -0.909764 -3.87257 0
M  V30 373 H 35.6214 -3.32361 -5.64992 0
M  V30 374 H 35.1414 -1.61569 -5.77629 0
M  V30 375 H 36.8204 -2.10109 -6.11934 0
M  V30 376 N 36.9525 1.47285 -0.560781 0
M  V30 377 C 37.9025 2.27073 0.205384 0
M  V30 378 C 38.8865 1.34569 0.882044 0
M  V30 379 O 40.0785 1.58899 0.77976 0
M  V30 380 C 37.2075 3.20414 1.23247 0
M  V30 381 C 36.2935 4.20399 0.559041 0
M  V30 382 N 36.6845 5.04423 -0.372927 0
M  V30 383 C 34.9825 4.38536 0.812522 0
M  V30 384 C 35.6835 5.76655 -0.764446 0
M  V30 385 N 34.6595 5.43471 -0.11848 0
M  V30 386 H 38.4615 2.89422 -0.511117 0
M  V30 387 H 35.9755 1.57868 -0.380975 0
M  V30 388 H 37.9725 3.76262 1.79534 0
M  V30 389 H 36.6325 2.59623 1.95002 0
M  V30 390 H 37.6435 5.1248 -0.747287 0
M  V30 391 H 34.3205 3.88913 1.51832 0
M  V30 392 H 35.7105 6.54238 -1.53045 0
M  V30 393 N 38.4306 0.297415 1.54768 0
M  V30 394 C 39.3936 -0.567375 2.22066 0
M  V30 395 C 40.3936 -1.06409 1.20556 0
M  V30 396 O 41.5836 -0.960691 1.45315 0
M  V30 397 C 38.7156 -1.78517 2.90421 0
M  V30 398 H 39.9086 0.0205534 2.99893 0
M  V30 399 H 37.4616 0.0482163 1.56226 0
M  V30 400 H 38.1966 -2.41303 2.16664 0
M  V30 401 H 37.9816 -1.43669 3.64831 0
M  V30 402 H 39.4716 -2.39964 3.41771 0
M  V30 403 N 39.9087 -1.5758 0.0250728 0
M  V30 404 C 41.1857 -1.82917 -0.692873 0
M  V30 405 C 41.5657 -0.908137 -1.90568 0
M  V30 406 O 40.9137 0.0372298 -2.2847 0
M  V30 407 C 41.1237 -3.32034 -1.07492 0
M  V30 408 C 42.4717 -3.98406 -1.46826 0
M  V30 409 O 43.4957 -3.36505 -1.16801 0
M  V30 410 O 42.3547 -5.07497 -2.02754 0
M  V30 411 H 39.4487 -0.754079 -0.33955 0
M  V30 412 H 41.9947 -1.69619 0.0524456 0
M  V30 413 H 40.7667 -3.90728 -0.211552 0
M  V30 414 H 40.3897 -3.50424 -1.87854 0
M  V30 415 N 41.3868 0.248026 -1.55636 0
M  V30 416 C 42.3338 1.30707 -1.90222 0
M  V30 417 C 43.3038 1.47881 -0.756332 0
M  V30 418 O 44.4888 1.61883 -1.00988 0
M  V30 419 C 41.6288 2.65769 -2.20138 0
M  V30 420 C 40.7418 2.56612 -3.47526 0
M  V30 421 C 39.8768 3.8402 -3.67017 0
M  V30 422 C 38.9158 3.69476 -4.8801 0
M  V30 423 N 38.0528 4.88774 -5.04029 0
M  V30 424 H 42.8928 1.00512 -2.80538 0
M  V30 425 H 40.4298 0.485055 -1.38873 0
M  V30 426 H 42.3878 3.44386 -2.35487 0
M  V30 427 H 41.0178 2.94115 -1.33027 0
M  V30 428 H 40.0698 1.69571 -3.40514 0
M  V30 429 H 41.3818 2.41774 -4.36287 0
M  V30 430 H 40.5358 4.7108 -3.8232 0
M  V30 431 H 39.2748 4.01754 -2.76487 0
M  V30 432 H 38.2798 2.80799 -4.72686 0
M  V30 433 H 39.5048 3.53238 -5.8 0
M  V30 434 H 37.4508 5.0687 -4.16435 0
M  V30 435 H 37.3678 4.76562 -5.86877 0
M  V30 436 H 38.6358 5.77335 -5.23741 0
M  V30 437 N 42.8649 1.48995 0.513639 0
M  V30 438 C 43.7949 1.67636 1.62544 0
M  V30 439 C 44.7759 0.525087 1.61793 0
M  V30 440 O 45.9609 0.759502 1.78732 0
M  V30 441 C 43.0909 1.73114 3.01079 0
M  V30 442 C 42.0449 2.87905 3.16693 0
M  V30 443 C 41.3709 2.78486 4.56453 0
M  V30 444 C 42.6709 4.29005 2.97913 0
M  V30 445 H 44.3649 2.60716 1.47198 0
M  V30 446 H 41.9109 1.25465 0.706714 0
M  V30 447 H 43.8639 1.84742 3.78746 0
M  V30 448 H 42.5879 0.766241 3.17484 0
M  V30 449 H 41.2469 2.75859 2.41448 0
M  V30 450 H 40.8949 1.7993 4.69717 0
M  V30 451 H 40.5949 3.55523 4.67843 0
M  V30 452 H 42.1189 2.92104 5.36197 0
M  V30 453 H 43.5329 4.41798 3.65359 0
M  V30 454 H 41.9299 5.07166 3.20785 0
M  V30 455 H 42.9999 4.44329 1.94165 0
M  V30 456 N 44.343 -0.763751 1.37857 0
M  V30 457 C 45.591 -1.51957 1.33243 0
M  V30 458 C 45.912 -1.94835 -0.0801709 0
M  V30 459 O 45.182 -1.66894 -1.02582 0
M  V30 460 H 43.762 -0.563626 0.49024 0
M  V30 461 H 46.424 -0.908504 1.7243 0
M  V30 462 H 45.52 -2.41523 1.97669 0
M  V30 463 N 45.8211 -1.22559 -0.990812 0
M  V30 464 C 46.7311 -1.01394 -2.11557 0
M  V30 465 C 47.7471 0.0383962 -1.73958 0
M  V30 466 O 48.9231 -0.154787 -2.00804 0
M  V30 467 C 45.9881 -0.596569 -3.41529 0
M  V30 468 C 45.0491 -1.72276 -3.93217 0
M  V30 469 C 44.2821 -1.32521 -5.16985 0
M  V30 470 O 44.5051 -0.204909 -5.70032 0
M  V30 471 O 43.4391 -2.14247 -5.62478 0
M  V30 472 H 47.2651 -1.95633 -2.32296 0
M  V30 473 H 44.8501 -1.01172 -1.0993 0
M  V30 474 H 46.7321 -0.374263 -4.19735 0
M  V30 475 H 45.4071 0.316939 -3.22145 0
M  V30 476 H 44.3141 -1.99961 -3.16174 0
M  V30 477 H 45.6471 -2.61421 -4.17037 0
M  V30 478 N 47.2992 1.18797 -1.03562 0
M  V30 479 C 48.2462 2.22253 -0.622259 0
M  V30 480 C 49.2162 1.61987 0.36736 0
M  V30 481 O 50.4012 1.88986 0.262492 0
M  V30 482 C 47.5412 3.45097 0.0138462 0
M  V30 483 C 46.6542 4.19722 -1.02263 0
M  V30 484 C 45.7892 5.30009 -0.355573 0
M  V30 485 C 44.8282 5.96399 -1.37749 0
M  V30 486 N 43.9652 6.98234 -0.735766 0
M  V30 487 H 48.8052 2.56968 -1.50903 0
M  V30 488 H 46.3422 1.26245 -0.755017 0
M  V30 489 H 48.3002 4.15279 0.399948 0
M  V30 490 H 46.9302 3.11018 0.864158 0
M  V30 491 H 45.9822 3.48418 -1.52673 0
M  V30 492 H 47.2942 4.65227 -1.79903 0
M  V30 493 H 46.4482 6.0664 0.0850095 0
M  V30 494 H 45.1872 4.85592 0.452967 0
M  V30 495 H 44.1922 5.18512 -1.82826 0
M  V30 496 H 45.4172 6.42899 -2.18764 0
M  V30 497 H 43.3632 6.55979 0.0525597 0
M  V30 498 H 43.2802 7.41965 -1.44995 0
M  V30 499 H 44.5482 7.78845 -0.31941 0
M  V30 500 N 48.7773 0.814389 1.34928 0
M  V30 501 C 50.0233 0.399013 1.98836 0
M  V30 502 C 50.3563 -1.03314 1.64438 0
M  V30 503 O 49.6313 -1.71811 0.911659 0
M  V30 504 C 49.9143 0.591629 3.55207 0
M  V30 505 C 49.7673 2.06928 3.99376 0
M  V30 506 C 51.0863 0.022199 4.40094 0
M  V30 507 H 48.2053 0.146451 0.722303 0
M  V30 508 H 50.8473 1.02537 1.59957 0
M  V30 509 H 48.9973 0.0584441 3.88456 0
M  V30 510 H 50.6693 2.66544 3.76499 0
M  V30 511 H 48.9123 2.56287 3.49999 0
M  V30 512 H 49.5833 2.1549 5.08201 0
M  V30 513 H 52.0593 0.477643 4.13349 0
M  V30 514 H 50.9353 0.186832 5.48582 0
M  V30 515 H 51.1963 -1.07215 4.28902 0
M  V30 516 N 50.2554 -1.46986 0.568584 0
M  V30 517 C 51.1654 -2.33942 -0.17555 0
M  V30 518 C 52.1814 -1.48891 -0.90041 0
M  V30 519 O 53.3574 -1.81794 -0.86676 0
M  V30 520 C 50.4224 -3.25811 -1.18524 0
M  V30 521 C 49.4834 -4.26757 -0.466582 0
M  V30 522 C 48.7164 -5.14236 -1.42817 0
M  V30 523 O 48.9394 -5.04379 -2.66379 0
M  V30 524 O 47.8734 -5.94412 -0.946453 0
M  V30 525 H 51.6994 -2.98896 0.538036 0
M  V30 526 H 49.2844 -1.4573 0.329097 0
M  V30 527 H 51.1664 -3.82527 -1.76779 0
M  V30 528 H 49.8414 -2.63471 -1.88055 0
M  V30 529 H 48.7484 -3.73769 0.157451 0
M  V30 530 H 50.0814 -4.91843 0.187485 0
M  V30 531 N 51.7335 -0.305618 -1.54608 0
M  V30 532 C 53.0105 0.355652 -1.92339 0
M  V30 533 C 53.3905 1.71324 -1.23335 0
M  V30 534 O 52.7385 2.25473 -0.370702 0
M  V30 535 C 52.9485 0.46572 -3.45879 0
M  V30 536 C 54.2965 0.734426 -4.182 0
M  V30 537 O 55.3205 0.54935 -3.51938 0
M  V30 538 O 54.1795 1.09024 -5.35515 0
M  V30 539 H 51.2735 0.199666 -0.802535 0
M  V30 540 H 53.8195 -0.354017 -1.65966 0
M  V30 541 H 52.5915 -0.488461 -3.88239 0
M  V30 542 H 52.2145 1.22367 -3.78301 0
M  V30 543 N 53.2116 1.57565 -0.0334293 0
M  V30 544 C 54.4366 1.96689 0.657895 0
M  V30 545 C 54.8616 0.910057 1.64619 0
M  V30 546 O 54.2196 -0.128598 1.80843 0
M  V30 547 C 54.2676 3.34905 1.33683 0
M  V30 548 O 53.3716 3.31574 2.45219 0
M  V30 549 H 52.7126 0.641205 0.172489 0
M  V30 550 H 55.2426 2.04372 -0.0965621 0
M  V30 551 H 55.2526 3.71234 1.69262 0
M  V30 552 H 53.9276 4.11366 0.612411 0
M  V30 553 H 52.5046 3.06968 2.11719 0
M  V30 554 N 54.6897 -0.239769 1.55765 0
M  V30 555 C 55.9177 -0.98417 1.81994 0
M  V30 556 C 56.3327 -1.7867 0.610124 0
M  V30 557 O 55.6897 -1.77571 -0.421271 0
M  V30 558 C 55.7407 -1.91635 3.06526 0
M  V30 559 O 55.4617 -1.14629 4.22838 0
M  V30 560 C 56.9627 -2.77616 3.45607 0
M  V30 561 H 54.1827 -0.28928 0.605441 0
M  V30 562 H 56.7267 -0.260499 2.02834 0
M  V30 563 H 54.8817 -2.5942 2.87715 0
M  V30 564 H 55.2957 -1.77745 4.93464 0
M  V30 565 H 56.7697 -3.38759 4.35828 0
M  V30 566 H 57.2467 -3.4909 2.6652 0
M  V30 567 H 57.8527 -2.15271 3.66795 0
M  V30 568 N 56.1678 -1.49265 -0.50573 0
M  V30 569 C 57.1008 -1.60183 -1.62532 0
M  V30 570 C 58.0788 -0.451107 -1.56217 0
M  V30 571 O 59.2628 -0.666016 -1.76342 0
M  V30 572 C 56.3898 -1.55238 -3.01029 0
M  V30 573 C 55.4358 -2.7545 -3.25621 0
M  V30 574 S 56.2688 -4.37174 -3.09256 0
M  V30 575 C 57.4248 -4.34866 -4.50158 0
M  V30 576 H 57.6578 -2.54894 -1.53025 0
M  V30 577 H 55.1908 -1.38098 -0.690535 0
M  V30 578 H 57.1488 -1.53071 -3.80893 0
M  V30 579 H 55.8098 -0.618238 -3.07956 0
M  V30 580 H 55.0028 -2.68197 -4.26716 0
M  V30 581 H 54.6048 -2.75005 -2.53472 0
M  V30 582 H 56.8968 -4.06295 -5.42154 0
M  V30 583 H 57.8398 -5.36223 -4.62462 0
M  V30 584 H 58.2478 -3.65007 -4.30616 0
M  V30 585 N 57.6459 0.756429 -1.3826 0
M  V30 586 C 59.0569 1.33359 -1.30661 0
M  V30 587 C 59.4079 1.96161 0.0388875 0
M  V30 588 O 58.5329 1.94874 0.940918 0
M  V30 589 C 59.1279 2.42477 -2.36622 0
M  V30 590 C 57.6869 2.95922 -2.3261 0
M  V30 591 C 56.8339 1.69275 -2.19639 0
M  V30 592 H 59.7849 0.55552 -1.4866 0
M  V30 593 H 59.8059 3.22345 -2.02174 0
M  V30 594 H 59.3179 1.96739 -3.34538 0
M  V30 595 H 57.4189 3.45996 -1.38267 0
M  V30 596 H 57.5319 3.50494 -3.26636 0
M  V30 597 H 55.8959 1.92793 -1.66442 0
M  V30 598 H 56.6789 1.25619 -3.19491 0
M  V30 599 N 59.124 1.23083 0.984299 0
M  V30 600 C 60.373 1.05466 1.71929 0
M  V30 601 C 60.686 -0.409211 1.91272 0
M  V30 602 O 61.892 -0.705226 2.62181 0
M  V30 603 C 60.348 1.83874 3.09384 0
M  V30 604 C 59.956 3.34566 2.97943 0
M  V30 605 C 61.7 1.74734 3.8687 0
M  V30 606 C 59.607 4.05381 4.30605 0
M  V30 607 H 58.537 0.391039 0.644674 0
M  V30 608 H 61.188 1.47013 1.09815 0
M  V30 609 H 59.57 1.35131 3.72231 0
M  V30 610 H 60.744 3.90767 2.44209 0
M  V30 611 H 59.059 3.44476 2.33934 0
M  V30 612 H 61.656 2.24957 4.85076 0
M  V30 613 H 61.999 0.709372 4.10212 0
M  V30 614 H 62.532 2.21067 3.30717 0
M  V30 615 H 59.271 5.09467 4.1246 0
M  V30 616 H 58.791 3.53967 4.84218 0
M  V30 617 H 60.47 4.11458 4.99311 0
M  V30 618 N 60.6021 -1.18246 1.0419 0
M  V30 619 C 62.0181 -1.40269 0.761366 0
M  V30 620 C 62.2181 -1.90777 -0.648578 0
M  V30 621 O 61.2741 -2.0929 -1.41258 0
M  V30 622 C 62.5871 -2.40237 1.8085 0
M  V30 623 C 64.1351 -2.53961 1.82955 0
M  V30 624 C 64.6101 -3.57194 2.86664 0
M  V30 625 N 66.1011 -3.64702 2.85563 0
M  V30 626 C 66.8361 -4.44309 3.6246 0
M  V30 627 N 66.3321 -5.27514 4.49111 0
M  V30 628 N 68.1251 -4.39084 3.50944 0
M  V30 629 H 60.2761 -0.837882 1.95175 0
M  V30 630 H 62.5391 -0.430608 0.84456 0
M  V30 631 H 62.2451 -2.10176 2.81991 0
M  V30 632 H 62.1191 -3.39601 1.64168 0
M  V30 633 H 64.5061 -2.83338 0.824855 0
M  V30 634 H 64.5871 -1.54706 2.03715 0
M  V30 635 H 64.2311 -3.28558 3.87314 0
M  V30 636 H 64.1611 -4.5613 2.6316 0
M  V30 637 H 66.6521 -3.05289 2.22727 0
M  V30 638 H 66.9651 -5.85411 5.04493 0
M  V30 639 H 65.3101 -5.2693 4.53178 0
M  V30 640 H 68.5011 -3.7313 2.82651 0
M  V30 641 H 68.6741 -5.00883 4.11121 0
M  V30 642 N 62.0802 -0.821533 -1.34494 0
M  V30 643 C 63.4962 -0.507117 -1.51329 0
M  V30 644 C 63.6962 0.968964 -1.76673 0
M  V30 645 O 62.7522 1.75348 -1.81685 0
M  V30 646 C 64.0652 -1.36544 -2.67911 0
M  V30 647 C 65.6132 -1.36242 -2.81793 0
M  V30 648 C 66.0882 -2.2052 -4.01416 0
M  V30 649 N 67.5792 -2.18136 -4.08621 0
M  V30 650 C 68.3142 -2.80095 -5.00334 0
M  V30 651 N 67.8102 -3.51039 -5.9728 0
M  V30 652 N 69.6032 -2.69656 -4.93196 0
M  V30 653 H 61.7542 -1.77729 -1.16302 0
M  V30 654 H 64.0172 -0.757291 -0.570276 0
M  V30 655 H 63.7232 -2.41361 -2.55808 0
M  V30 656 H 63.5972 -1.02917 -3.62888 0
M  V30 657 H 65.9842 -0.322041 -2.93338 0
M  V30 658 H 66.0652 -1.73866 -1.87628 0
M  V30 659 H 65.7092 -3.24607 -3.90631 0
M  V30 660 H 65.6392 -1.80247 -4.94791 0
M  V30 661 H 68.1302 -1.6653 -3.39229 0
M  V30 662 H 68.4432 -3.95565 -6.63889 0
M  V30 663 H 66.7882 -3.55145 -5.97409 0
M  V30 664 H 69.9792 -2.13808 -4.16418 0
M  V30 665 H 70.1522 -3.1823 -5.64476 0
M  V30 666 N 63.5583 1.46682 -0.576371 0
M  V30 667 C 64.7863 2.06798 -0.0649635 0
M  V30 668 C 65.2013 1.42612 1.23723 0
M  V30 669 O 64.5583 0.529203 1.74659 0
M  V30 670 C 64.6093 3.6132 0.114202 0
M  V30 671 O 64.3303 4.23104 -1.13644 0
M  V30 672 C 65.8313 4.38349 0.66069 0
M  V30 673 H 63.0513 0.668778 -0.0545616 0
M  V30 674 H 65.5953 1.88404 -0.795237 0
M  V30 675 H 63.7503 3.79162 0.794673 0
M  V30 676 H 64.1643 5.15894 -0.946253 0
M  V30 677 H 65.6383 5.47081 0.73526 0
M  V30 678 H 66.1153 4.05953 1.67627 0
M  V30 679 H 66.7213 4.25297 0.0152951 0
M  V30 680 N 65.0364 0.313813 1.54444 0
M  V30 681 C 66.2824 -0.292108 2.00685 0
M  V30 682 C 66.6154 -1.52548 1.20177 0
M  V30 683 O 65.8904 -1.92452 0.281531 0
M  V30 684 C 66.1734 -0.635968 3.5444 0
M  V30 685 C 66.0264 0.607437 4.4568 0
M  V30 686 C 67.3454 -1.45747 4.15266 0
M  V30 687 H 64.4644 -0.104697 0.729526 0
M  V30 688 H 67.1064 0.428457 1.85106 0
M  V30 689 H 65.2564 -1.24986 3.67846 0
M  V30 690 H 66.9284 1.24581 4.44159 0
M  V30 691 H 65.1714 1.23822 4.15753 0
M  V30 692 H 65.8424 0.322515 5.51057 0
M  V30 693 H 68.3184 -0.938645 4.05375 0
M  V30 694 H 67.1944 -1.66683 5.2298 0
M  V30 695 H 67.4554 -2.45063 3.67963 0
M  V30 696 N 66.5145 -1.57545 0.0417849 0
M  V30 697 C 67.4625 -2.12148 -0.953723 0
M  V30 698 C 68.4565 -1.05104 -1.32852 0
M  V30 699 O 69.6625 -1.23524 -1.30927 0
M  V30 700 H 66.0375 -0.677957 -0.325389 0
M  V30 701 H 68.0085 -2.94707 -0.467991 0
M  V30 702 C 66.7575 -2.6739 -2.22257 0
M  V30 703 H 66.0805 -3.49413 -1.94295 0
M  V30 704 H 67.5205 -3.09227 -2.90094 0
M  V30 705 C 65.9795 -1.60723 -2.96091 0
M  V30 706 O 66.5095 -1.01449 -3.88679 0
M  V30 707 N 64.7155 -1.32466 -2.58652 0
M  V30 708 H 64.2625 -1.80856 -1.83437 0
M  V30 709 H 64.2205 -0.61325 -3.08361 0
M  V30 710 N 67.9926 0.231505 -1.5589 0
M  V30 711 C 69.2176 0.978689 -1.82856 0
M  V30 712 C 69.6426 1.77559 -0.620846 0
M  V30 713 O 69.0006 1.76119 0.430305 0
M  V30 714 C 69.0486 1.87997 -3.07716 0
M  V30 715 O 68.1526 2.97393 -2.85712 0
M  V30 716 H 67.4936 0.277663 -0.603158 0
M  V30 717 H 70.0236 0.24783 -2.03093 0
M  V30 718 H 70.0336 2.2917 -3.37558 0
M  V30 719 H 68.7086 1.29417 -3.95252 0
M  V30 720 H 67.2856 2.60238 -2.67078 0
M  V30 721 N 69.4707 1.49531 0.497807 0
M  V30 722 C 70.6987 1.62893 1.27567 0
M  V30 723 C 71.1137 0.301585 1.86376 0
M  V30 724 O 70.4707 -0.713335 1.67982 0
M  V30 725 C 70.5217 2.70013 2.40364 0
M  V30 726 O 70.2427 3.976 1.83972 0
M  V30 727 C 71.7437 2.94109 3.31685 0
M  V30 728 H 68.9637 0.548298 0.386794 0
M  V30 729 H 71.5077 1.95584 0.597245 0
M  V30 730 H 69.6627 2.40092 3.04031 0
M  V30 731 H 70.0767 4.56631 2.58047 0
M  V30 732 H 71.5507 3.72788 4.07104 0
M  V30 733 H 72.0277 2.04147 3.88871 0
M  V30 734 H 72.6337 3.2546 2.73781 0
M  V30 735 N 70.9488 -0.749086 1.3866 0
M  V30 736 C 72.3648 -1.05276 1.19955 0
M  V30 737 C 72.5648 -2.01435 0.05134 0
M  V30 738 O 71.6208 -2.45232 -0.60147 0
M  V30 739 C 72.9338 -1.62853 2.52783 0
M  V30 740 C 74.4818 -1.75002 2.59506 0
M  V30 741 C 74.9568 -2.35991 3.92521 0
M  V30 742 N 76.4478 -2.43416 3.94085 0
M  V30 743 C 77.1828 -2.91511 4.9377 0
M  V30 744 N 76.6788 -3.39608 6.03853 0
M  V30 745 N 78.4718 -2.90592 4.81157 0
M  V30 746 H 70.6228 -0.111066 2.12109 0
M  V30 747 H 72.8858 -0.111901 0.941373 0
M  V30 748 H 72.5918 -0.99664 3.37283 0
M  V30 749 H 72.4658 -2.61854 2.715 0
M  V30 750 H 74.8528 -2.37317 1.75398 0
M  V30 751 H 74.9338 -0.74693 2.44652 0
M  V30 752 H 74.5778 -1.74308 4.77053 0
M  V30 753 H 74.5078 -3.3695 4.04688 0
M  V30 754 H 76.9988 -2.09405 3.14576 0
M  V30 755 H 77.3118 -3.74775 6.75843 0
M  V30 756 H 75.6568 -3.37653 6.07466 0
M  V30 757 H 78.8478 -2.52332 3.94267 0
M  V30 758 H 79.0208 -3.27762 5.58996 0
M  V30 759 N 72.4269 -1.23603 -0.977757 0
M  V30 760 C 73.3369 -1.03632 -2.1047 0
M  V30 761 C 74.3529 0.0199435 -1.73989 0
M  V30 762 O 75.5289 -0.176076 -2.00629 0
M  V30 763 C 72.5939 -0.63276 -3.40877 0
M  V30 764 C 71.6549 -1.76437 -3.91367 0
M  V30 765 C 70.8879 -1.37997 -5.15551 0
M  V30 766 O 71.1109 -0.265357 -5.69782 0
M  V30 767 O 70.0449 -2.20201 -5.60174 0
M  V30 768 H 73.8709 -1.98086 -2.30208 0
M  V30 769 H 71.4559 -1.02332 -1.08851 0
M  V30 770 H 73.3379 -0.418761 -4.19314 0
M  V30 771 H 72.0129 0.282754 -3.22463 0
M  V30 772 H 70.9199 -2.03304 -3.14036 0
M  V30 773 H 72.2529 -2.6583 -4.14241 0
M  V30 774 N 73.905 1.17692 -1.04816 0
M  V30 775 C 75.133 1.91786 -0.776254 0
M  V30 776 C 75.548 1.76604 0.667577 0
M  V30 777 O 74.905 1.10067 1.45573 0
M  V30 778 C 74.956 3.42967 -1.14263 0
M  V30 779 O 74.677 3.57678 -2.52978 0
M  V30 780 C 76.178 4.34144 -0.896311 0
M  V30 781 H 73.398 0.608624 -0.282519 0
M  V30 782 H 75.942 1.49268 -1.39783 0
M  V30 783 H 74.097 3.83245 -0.565874 0
M  V30 784 H 74.511 4.51319 -2.67229 0
M  V30 785 H 75.985 5.38744 -1.20244 0
M  V30 786 H 76.462 4.38876 0.168636 0
M  V30 787 H 77.068 3.99574 -1.45672 0
M  V30 788 N 75.3831 0.828654 1.34056 0
M  V30 789 C 76.7941 0.477534 1.8049 0
M  V30 790 C 77.1451 -1.00258 1.6865 0
M  V30 791 O 76.2701 -1.78057 1.22982 0
M  V30 792 C 76.8651 0.860018 3.27703 0
M  V30 793 C 75.4241 0.561185 3.72193 0
M  V30 794 C 74.5711 1.07385 2.55663 0
M  V30 795 H 77.5221 1.0183 1.21722 0
M  V30 796 H 77.5431 0.166038 3.80138 0
M  V30 797 H 77.0551 1.93731 3.36288 0
M  V30 798 H 75.1561 -0.506465 3.69142 0
M  V30 799 H 75.2691 1.10926 4.66082 0
M  V30 800 H 73.6331 0.495149 2.49841 0
M  V30 801 H 74.4161 2.15771 2.67016 0
M  V30 802 N 76.8612 -1.46375 0.584142 0
M  V30 803 C 78.2722 -1.86031 0.157959 0
M  V30 804 C 78.6232 -1.48753 -1.27933 0
M  V30 805 O 77.7482 -0.903098 -1.96655 0
M  V30 806 C 78.3432 -3.37642 0.279892 0
M  V30 807 C 76.9022 -3.76289 -0.09143 0
M  V30 808 C 76.0492 -2.7039 0.615178 0
M  V30 809 H 79.0002 -1.37509 0.792274 0
M  V30 810 H 79.0212 -3.77275 -0.494364 0
M  V30 811 H 78.5332 -3.64742 1.32607 0
M  V30 812 H 76.6342 -3.54806 -1.13769 0
M  V30 813 H 76.7472 -4.78246 0.285886 0
M  V30 814 H 75.1112 -2.5464 0.0552833 0
M  V30 815 H 75.8942 -3.0033 1.66303 0
M  V30 816 N 78.3393 -0.321999 -1.54275 0
M  V30 817 C 79.2863 0.544664 -2.24281 0
M  V30 818 C 80.2563 1.1129 -1.23303 0
M  V30 819 O 81.4413 1.15354 -1.51981 0
M  V30 820 C 78.5813 1.70045 -3.00298 0
M  V30 821 C 77.6943 1.16159 -4.1609 0
M  V30 822 C 76.8293 2.28293 -4.79641 0
M  V30 823 C 75.8683 1.71648 -5.8754 0
M  V30 824 N 75.0053 2.77438 -6.44959 0
M  V30 825 H 79.8453 -0.0588907 -2.97942 0
M  V30 826 H 77.3823 -0.0408345 -1.47043 0
M  V30 827 H 79.3403 2.38054 -3.42616 0
M  V30 828 H 77.9703 2.27531 -2.28975 0
M  V30 829 H 77.0223 0.373092 -3.78566 0
M  V30 830 H 78.3343 0.707087 -4.93763 0
M  V30 831 H 77.4883 3.0421 -5.2492 0
M  V30 832 H 76.2273 2.77079 -4.01346 0
M  V30 833 H 75.2323 0.942282 -5.41665 0
M  V30 834 H 76.4573 1.23741 -6.67731 0
M  V30 835 H 74.4033 3.25519 -5.69538 0
M  V30 836 H 74.3203 2.36547 -7.1804 0
M  V30 837 H 75.5883 3.53189 -6.94894 0
M  V30 838 N 79.8174 1.5752 -0.0501392 0
M  V30 839 C 81.0424 1.97376 0.636997 0
M  V30 840 C 81.4674 0.927466 1.63645 0
M  V30 841 O 80.8254 -0.10941 1.8097 0
M  V30 842 C 80.8734 3.36304 1.30123 0
M  V30 843 O 79.9774 3.34156 2.41689 0
M  V30 844 H 79.3184 0.642998 0.165679 0
M  V30 845 H 81.8484 2.04258 -0.118233 0
M  V30 846 H 81.8584 3.73008 1.65315 0
M  V30 847 H 80.5334 4.11993 0.568746 0
M  V30 848 H 79.1104 3.09196 2.08451 0
M  V30 849 N 81.2955 -0.223234 1.56011 0
M  V30 850 C 82.2425 -1.27664 1.92277 0
M  V30 851 C 83.2125 -1.46659 0.779763 0
M  V30 852 O 84.3975 -1.60256 1.03551 0
M  V30 853 C 81.5375 -2.62234 2.24338 0
M  V30 854 C 80.6505 -2.51051 3.51564 0
M  V30 855 C 79.7855 -3.78133 3.7308 0
M  V30 856 C 78.8245 -3.61665 4.93827 0
M  V30 857 N 77.9615 -4.80693 5.11741 0
M  V30 858 H 82.8015 -0.960358 2.82101 0
M  V30 859 H 80.3385 -0.462901 1.39627 0
M  V30 860 H 82.2965 -3.40596 2.40936 0
M  V30 861 H 80.9265 -2.91961 1.3769 0
M  V30 862 H 79.9785 -1.64132 3.43169 0
M  V30 863 H 81.2905 -2.34803 4.40079 0
M  V30 864 H 80.4445 -4.64938 3.89766 0
M  V30 865 H 79.1835 -3.97304 2.82844 0
M  V30 866 H 78.1885 -2.73244 4.77093 0
M  V30 867 H 79.4135 -3.43966 5.85546 0
M  V30 868 H 77.3595 -5.00181 4.24446 0
M  V30 869 H 77.2765 -4.67165 5.94384 0
M  V30 870 H 78.5445 -5.6893 5.3286 0
M  V30 871 N 82.7736 -1.49793 -0.48987 0
M  V30 872 C 83.7036 -1.70201 -1.59856 0
M  V30 873 C 84.6846 -0.55076 -1.60937 0
M  V30 874 O 85.8696 -0.787841 -1.77501 0
M  V30 875 C 82.9996 -1.77882 -2.98287 0
M  V30 876 C 81.9536 -2.92907 -3.12073 0
M  V30 877 C 81.2796 -2.85712 -4.51965 0
M  V30 878 C 82.5796 -4.3369 -2.91051 0
M  V30 879 H 84.2736 -2.63025 -1.43032 0
M  V30 880 H 81.8196 -1.26574 -0.686664 0
M  V30 881 H 83.7726 -1.90744 -3.75759 0
M  V30 882 H 82.4966 -0.816653 -3.16225 0
M  V30 883 H 81.1556 -2.79665 -2.37029 0
M  V30 884 H 80.8036 -1.8738 -4.66795 0
M  V30 885 H 80.5036 -3.62921 -4.62128 0
M  V30 886 H 82.0276 -3.00598 -5.31482 0
M  V30 887 H 83.4416 -4.47555 -3.58284 0
M  V30 888 H 81.8386 -5.12205 -3.12675 0
M  V30 889 H 82.9086 -4.47362 -1.87071 0
M  V30 890 N 84.2517 0.741722 -1.39055 0
M  V30 891 C 85.2147 1.83733 -1.37021 0
M  V30 892 C 86.2147 1.58542 -0.268534 0
M  V30 893 O 87.4047 1.66067 -0.526076 0
M  V30 894 C 84.5367 3.2141 -1.13617 0
M  V30 895 H 85.7297 1.86941 -2.34506 0
M  V30 896 H 83.2827 0.944676 -1.24521 0
M  V30 897 H 84.0177 3.23865 -0.167863 0
M  V30 898 H 83.8027 3.4109 -1.93391 0
M  V30 899 H 85.2927 4.01477 -1.14918 0
M  V30 900 N 85.7298 1.2412 0.971189 0
M  V30 901 C 86.6398 1.04747 2.09917 0
M  V30 902 C 87.6558 -0.0107162 1.73997 0
M  V30 903 O 88.8318 0.186714 2.00533 0
M  V30 904 C 85.8968 0.650828 3.40537 0
M  V30 905 C 84.9578 1.7851 3.90426 0
M  V30 906 C 84.1908 1.40729 5.14812 0
M  V30 907 O 84.4138 0.29557 5.69634 0
M  V30 908 O 83.3478 2.23168 5.58999 0
M  V30 909 H 87.1738 1.99304 2.29154 0
M  V30 910 H 84.7588 1.02908 1.08307 0
M  V30 911 H 86.6408 0.440992 4.19086 0
M  V30 912 H 85.3158 -0.265649 3.22608 0
M  V30 913 H 84.2228 2.04966 3.12953 0
M  V30 914 H 85.5558 2.68023 4.12825 0
M  V30 915 N 87.2079 -1.17134 1.05439 0
M  V30 916 C 88.4559 -1.87085 0.764429 0
M  V30 917 C 88.7769 -1.81584 -0.710787 0
M  V30 918 O 88.0469 -1.24349 -1.51374 0
M  V30 919 H 86.6269 -0.692627 0.279779 0
M  V30 920 H 89.2889 -1.42087 1.33406 0
M  V30 921 H 88.3849 -2.92759 1.0816 0
M  V30 922 N 88.686 -0.835752 -1.33615 0
M  V30 923 C 89.596 -0.269088 -2.33052 0
M  V30 924 C 90.612 0.603251 -1.63208 0
M  V30 925 O 91.788 0.508112 -1.94885 0
M  V30 926 C 88.853 0.549091 -3.42324 0
M  V30 927 C 87.914 -0.347156 -4.27894 0
M  V30 928 C 87.147 0.43207 -5.31948 0
M  V30 929 O 87.37 1.66409 -5.45586 0
M  V30 930 O 86.304 -0.192298 -6.01593 0
M  V30 931 H 90.13 -1.09243 -2.83372 0
M  V30 932 H 87.715 -0.598198 -1.36901 0
M  V30 933 H 89.597 1.01414 -4.09015 0
M  V30 934 H 88.272 1.34955 -2.94226 0
M  V30 935 H 87.179 -0.859979 -3.64081 0
M  V30 936 H 88.512 -1.1123 -4.79467 0
M  V30 937 N 90.1641 1.46063 -0.591896 0
M  V30 938 C 91.0741 2.34192 0.13831 0
M  V30 939 C 92.0901 1.50305 0.876608 0
M  V30 940 O 93.2661 1.8315 0.837728 0
M  V30 941 C 90.3311 3.27656 1.13326 0
M  V30 942 C 89.3921 4.27445 0.39863 0
M  V30 943 C 88.6251 5.16443 1.34618 0
M  V30 944 O 88.8481 5.08553 2.58321 0
M  V30 945 O 87.7821 5.95843 0.851768 0
M  V30 946 H 91.6081 2.98002 -0.58552 0
M  V30 947 H 89.1931 1.45188 -0.352239 0
M  V30 948 H 91.0751 3.85291 1.70671 0
M  V30 949 H 89.7501 2.6643 1.83839 0
M  V30 950 H 88.6571 3.73471 -0.216895 0
M  V30 951 H 89.9901 4.91482 -0.265709 0
M  V30 952 N 91.6422 0.330177 1.54103 0
M  V30 953 C 92.5522 -0.541534 2.28264 0
M  V30 954 C 93.5682 -1.12351 1.32866 0
M  V30 955 O 94.7442 -1.14206 1.65888 0
M  V30 956 C 91.8092 -1.68322 3.03098 0
M  V30 957 C 90.8702 -1.13238 4.14096 0
M  V30 958 C 90.1032 -2.21966 4.85352 0
M  V30 959 O 90.3262 -3.42437 4.56172 0
M  V30 960 O 89.2602 -1.87013 5.7211 0
M  V30 961 H 93.0862 0.060938 3.03639 0
M  V30 962 H 90.6712 0.09565 1.49093 0
M  V30 963 H 92.5532 -2.34777 3.49939 0
M  V30 964 H 91.2282 -2.27176 2.30593 0
M  V30 965 H 90.1352 -0.432736 3.71589 0
M  V30 966 H 91.4682 -0.588898 4.88664 0
M  V30 967 N 93.1203 -1.57491 0.0584922 0
M  V30 968 C 94.0673 -2.11958 -0.913376 0
M  V30 969 C 95.0373 -1.02875 -1.30407 0
M  V30 970 O 96.2223 -1.30464 -1.39226 0
M  V30 971 C 93.3623 -2.67497 -2.18035 0
M  V30 972 C 92.4753 -3.90691 -1.84349 0
M  V30 973 C 91.6103 -4.3452 -3.05559 0
M  V30 974 C 90.6493 -5.50395 -2.67827 0
M  V30 975 N 89.7863 -5.89244 -3.81754 0
M  V30 976 H 94.6263 -2.94704 -0.442017 0
M  V30 977 H 92.1633 -1.45643 -0.206545 0
M  V30 978 H 94.1213 -2.978 -2.92183 0
M  V30 979 H 92.7513 -1.87537 -2.62735 0
M  V30 980 H 91.8033 -3.66934 -1.00319 0
M  V30 981 H 93.1153 -4.7489 -1.5258 0
M  V30 982 H 92.2693 -4.66414 -3.87998 0
M  V30 983 H 91.0083 -3.49147 -3.40511 0
M  V30 984 H 90.0133 -5.18165 -1.83806 0
M  V30 985 H 91.2383 -6.3749 -2.34059 0
M  V30 986 H 89.1843 -5.06823 -4.16493 0
M  V30 987 H 89.1013 -6.68151 -3.53708 0
M  V30 988 H 90.3693 -6.25756 -4.64811 0
M  V30 989 N 94.5984 0.214957 -1.56127 0
M  V30 990 C 96.0094 0.781386 -1.69562 0
M  V30 991 C 96.3604 1.84707 -0.66165 0
M  V30 992 O 95.4854 2.156 0.185927 0
M  V30 993 C 96.0804 1.42411 -3.07416 0
M  V30 994 C 94.6394 1.93786 -3.22683 0
M  V30 995 C 93.7864 0.800438 -2.65496 0
M  V30 996 H 96.7374 -0.00980633 -1.58697 0
M  V30 997 H 96.7584 2.29309 -3.0364 0
M  V30 998 H 96.2704 0.64826 -3.82648 0
M  V30 999 H 94.3714 2.74152 -2.52332 0
M  V30 1000 H 94.4844 2.1133 -4.29973 0
M  V30 1001 H 92.8484 1.2095 -2.2415 0
M  V30 1002 H 93.6314 0.0371471 -3.4328 0
M  V30 1003 N 96.0765 1.50051 0.48192 0
M  V30 1004 C 96.9865 1.7089 1.60728 0
M  V30 1005 C 98.0025 0.591788 1.63627 0
M  V30 1006 O 99.1785 0.868817 1.81696 0
M  V30 1007 C 96.2435 1.78855 2.97005 0
M  V30 1008 C 95.3045 3.02537 3.04581 0
M  V30 1009 C 94.5375 3.10112 4.34357 0
M  V30 1010 O 94.7605 2.24765 5.24249 0
M  V30 1011 O 93.6945 4.02747 4.47301 0
M  V30 1012 H 97.5205 2.66264 1.46072 0
M  V30 1013 H 95.1055 1.34018 0.660264 0
M  V30 1014 H 96.9875 1.86336 3.77964 0
M  V30 1015 H 95.6625 0.866628 3.11883 0
M  V30 1016 H 94.5695 3.00563 2.22739 0
M  V30 1017 H 95.9025 3.94272 2.94636 0
M  V30 1018 N 97.5546 -0.734337 1.39446 0
M  V30 1019 C 98.9656 -1.31264 1.32766 0
M  V30 1020 C 99.3166 -1.96198 -0.00767497 0
M  V30 1021 O 98.4416 -1.96346 -0.909796 0
M  V30 1022 C 99.0366 -2.38682 2.4045 0
M  V30 1023 C 97.5956 -2.92184 2.37288 0
M  V30 1024 C 96.7426 -1.6576 2.22304 0
M  V30 1025 H 99.6936 -0.531799 1.49525 0
M  V30 1026 H 99.7146 -3.19087 2.07276 0
M  V30 1027 H 99.2266 -1.91392 3.37625 0
M  V30 1028 H 97.3276 -3.43752 1.43754 0
M  V30 1029 H 97.4406 -3.45253 3.3217 0
M  V30 1030 H 95.8046 -1.9012 1.69489 0
M  V30 1031 H 96.5876 -1.20521 3.21449 0
M  V30 1032 N 99.0327 -1.24633 -0.964593 0
M  V30 1033 C 100.31 -0.995809 -1.68354 0
M  V30 1034 C 100.69 0.480964 -2.05548 0
M  V30 1035 O 100.038 1.45599 -1.76105 0
M  V30 1036 C 100.248 -1.92177 -2.91323 0
M  V30 1037 C 101.596 -2.19446 -3.63495 0
M  V30 1038 O 102.62 -1.89855 -3.01386 0
M  V30 1039 O 101.479 -2.69714 -4.75307 0
M  V30 1040 H 98.5727 -0.376854 -0.736146 0
M  V30 1041 H 101.119 -1.35745 -1.0184 0
M  V30 1042 H 99.8907 -2.91938 -2.60553 0
M  V30 1043 H 99.5137 -1.56349 -3.65569 0
M  V30 1044 N 100.511 1.16574 -1.06058 0
M  V30 1045 C 101.76 1.86385 -0.770944 0
M  V30 1046 C 102.073 1.82448 0.705129 0
M  V30 1047 O 103.279 2.47815 1.10905 0
M  V30 1048 C 101.735 3.34466 -1.32893 0
M  V30 1049 C 101.343 3.46883 -2.83507 0
M  V30 1050 C 103.087 4.09548 -1.11672 0
M  V30 1051 C 100.994 4.89036 -3.32562 0
M  V30 1052 H 99.9238 0.698181 -0.284709 0
M  V30 1053 H 102.575 1.31583 -1.27899 0
M  V30 1054 H 100.957 3.88859 -0.748662 0
M  V30 1055 H 102.131 3.02663 -3.47465 0
M  V30 1056 H 100.446 2.85232 -3.03368 0
M  V30 1057 H 103.043 5.14434 -1.45814 0
M  V30 1058 H 103.386 4.16264 -0.0549535 0
M  V30 1059 H 103.919 3.61387 -1.66265 0
M  V30 1060 H 100.658 4.87499 -4.38207 0
M  V30 1061 H 100.178 5.3389 -2.73351 0
M  V30 1062 H 101.857 5.57843 -3.2775 0
M  V30 1063 N 101.989 0.842826 1.3317 0
M  V30 1064 C 103.214 0.453129 2.02389 0
M  V30 1065 C 103.639 -0.939105 1.6298 0
M  V30 1066 O 102.997 -1.61472 0.8244 0
M  V30 1067 C 103.045 0.586094 3.55805 0
M  V30 1068 O 102.149 -0.386029 4.10589 0
M  V30 1069 H 101.49 0.183664 0.638094 0
M  V30 1070 H 104.02 1.13875 1.69981 0
M  V30 1071 H 104.03 0.469209 4.05293 0
M  V30 1072 H 102.705 1.6014 3.83833 0
M  V30 1073 H 101.282 -0.226371 3.72212 0
M  V30 1074 N 103.467 -1.45747 0.599634 0
M  V30 1075 C 104.692 -2.07178 0.0960198 0
M  V30 1076 C 105.117 -1.44268 -1.207 0
M  V30 1077 O 104.475 -0.532503 -1.73303 0
M  V30 1078 C 104.523 -3.60579 -0.0385348 0
M  V30 1079 O 103.627 -3.97713 -1.0908 0
M  V30 1080 H 102.968 -0.660251 0.0704593 0
M  V30 1081 H 105.498 -1.87124 0.827385 0
M  V30 1082 H 105.508 -4.07298 -0.239304 0
M  V30 1083 H 104.183 -4.05756 0.912947 0
M  V30 1084 H 102.76 -3.62678 -0.867135 0
M  V30 1085 N 104.945 -0.338344 -1.53925 0
M  V30 1086 C 105.855 0.529421 -2.28548 0
M  V30 1087 C 106.871 1.11645 -1.3346 0
M  V30 1088 O 108.047 1.13325 -1.66492 0
M  V30 1089 C 105.112 1.66713 -3.03987 0
M  V30 1090 C 104.173 1.11041 -4.14691 0
M  V30 1091 C 103.406 2.19389 -4.86522 0
M  V30 1092 O 103.629 3.40013 -4.57982 0
M  V30 1093 O 102.563 1.83976 -5.73094 0
M  V30 1094 H 106.389 -0.0770399 -3.03602 0
M  V30 1095 H 103.974 -0.103555 -1.49041 0
M  V30 1096 H 105.856 2.32918 -3.5118 0
M  V30 1097 H 104.531 2.25949 -2.31794 0
M  V30 1098 H 103.438 0.413024 -3.71813 0
M  V30 1099 H 104.771 0.562975 -4.8897 0
M  V30 1100 N 106.423 1.57458 -0.0668435 0
M  V30 1101 C 107.333 2.15937 0.916975 0
M  V30 1102 C 108.349 1.12123 1.33058 0
M  V30 1103 O 109.525 1.44366 1.40429 0
M  V30 1104 C 106.59 2.70547 2.16807 0
M  V30 1105 C 105.651 3.89215 1.81135 0
M  V30 1106 C 104.884 4.41211 3.0028 0
M  V30 1107 O 105.107 3.92225 4.14144 0
M  V30 1108 O 104.041 5.32605 2.80384 0
M  V30 1109 H 107.867 3.00354 0.449561 0
M  V30 1110 H 105.452 1.48584 0.155949 0
M  V30 1111 H 107.334 3.0557 2.90181 0
M  V30 1112 H 106.009 1.89192 2.62656 0
M  V30 1113 H 104.916 3.59054 1.05028 0
M  V30 1114 H 106.249 4.71848 1.40073 0
M  V30 1115 N 107.901 -0.206675 1.56239 0
M  V30 1116 C 109.126 -0.949474 1.8439 0
M  V30 1117 C 109.551 -1.76549 0.649016 0
M  V30 1118 O 108.909 -1.76782 -0.402231 0
M  V30 1119 C 108.957 -1.83078 3.10668 0
M  V30 1120 O 108.061 -2.9281 2.90407 0
M  V30 1121 H 107.402 -0.268033 0.607499 0
M  V30 1122 H 109.932 -0.215488 2.03462 0
M  V30 1123 H 109.942 -2.2377 3.41161 0
M  V30 1124 H 108.617 -1.23112 3.97261 0
M  V30 1125 H 107.194 -2.55956 2.71184 0
M  V30 1126 N 109.379 -1.50304 -0.473955 0
M  V30 1127 C 110.625 -1.61389 -1.22806 0
M  V30 1128 C 110.958 -0.311955 -1.91678 0
M  V30 1129 O 110.233 0.686384 -1.81986 0
M  V30 1130 C 110.516 -2.79219 -2.27396 0
M  V30 1131 C 110.369 -4.19286 -1.62848 0
M  V30 1132 C 111.688 -2.92614 -3.28732 0
M  V30 1133 H 108.807 -0.587399 -0.445119 0
M  V30 1134 H 111.449 -1.82681 -0.522265 0
M  V30 1135 H 109.599 -2.61195 -2.87592 0
M  V30 1136 H 111.271 -4.48892 -1.06271 0
M  V30 1137 H 109.514 -4.23677 -0.931693 0
M  V30 1138 H 110.185 -4.97655 -2.38838 0
M  V30 1139 H 112.661 -3.09105 -2.78556 0
M  V30 1140 H 111.537 -3.76688 -3.99246 0
M  V30 1141 H 111.798 -2.03107 -3.92683 0
M  V30 1142 N 110.857 0.726932 -1.39834 0
M  V30 1143 C 112.082 1.52121 -1.40976 0
M  V30 1144 C 112.507 1.88098 -0.00826029 0
M  V30 1145 O 111.865 1.52479 0.980807 0
M  V30 1146 C 111.913 2.78021 -2.29644 0
M  V30 1147 O 111.017 3.74272 -1.73188 0
M  V30 1148 H 110.358 0.45908 -0.479731 0
M  V30 1149 H 112.888 0.896207 -1.83927 0
M  V30 1150 H 112.898 3.26671 -2.44438 0
M  V30 1151 H 111.573 2.51169 -3.31492 0
M  V30 1152 H 110.15 3.33073 -1.6768 0
M  V30 1153 N 112.336 1.25143 0.95797 0
M  V30 1154 C 113.564 1.12424 1.73691 0
M  V30 1155 C 113.979 -0.322304 1.86029 0
M  V30 1156 O 113.336 -1.22186 1.35561 0
M  V30 1157 C 113.387 1.76933 3.15241 0
M  V30 1158 O 113.108 3.15932 3.03511 0
M  V30 1159 C 114.609 1.6995 4.09429 0
M  V30 1160 H 111.829 0.3923 0.544373 0
M  V30 1161 H 114.373 1.6544 1.20207 0
M  V30 1162 H 112.528 1.27895 3.6568 0
M  V30 1163 H 112.942 3.47598 3.9278 0
M  V30 1164 H 114.416 2.19753 5.06372 0
M  V30 1165 H 114.893 0.662619 4.34173 0
M  V30 1166 H 115.499 2.18461 3.64904 0
M  V30 1167 N 113.814 -1.1601 1.06675 0
M  V30 1168 C 115.06 -1.86909 0.786945 0
M  V30 1169 C 115.393 -1.81717 -0.685018 0
M  V30 1170 O 114.668 -1.23551 -1.50218 0
M  V30 1171 C 114.951 -3.36313 1.28707 0
M  V30 1172 C 114.804 -3.50175 2.82308 0
M  V30 1173 C 116.123 -4.3084 0.898071 0
M  V30 1174 H 113.242 -0.678677 0.287343 0
M  V30 1175 H 115.884 -1.36336 1.32334 0
M  V30 1176 H 114.034 -3.79513 0.830768 0
M  V30 1177 H 115.706 -3.15886 3.36175 0
M  V30 1178 H 113.949 -2.91959 3.20847 0
M  V30 1179 H 114.62 -4.55116 3.12368 0
M  V30 1180 H 117.096 -3.95561 1.29114 0
M  V30 1181 H 115.972 -5.33876 1.27543 0
M  V30 1182 H 116.233 -4.41662 -0.196651 0
M  V30 1183 N 115.292 -0.849877 -1.32721 0
M  V30 1184 C 116.202 -0.293791 -2.32753 0
M  V30 1185 C 117.218 0.585906 -1.63839 0
M  V30 1186 O 118.394 0.487413 -1.95413 0
M  V30 1187 C 115.459 0.512752 -3.42887 0
M  V30 1188 C 114.52 -0.39252 -4.27502 0
M  V30 1189 C 113.753 0.375625 -5.32377 0
M  V30 1190 O 113.976 1.60613 -5.4732 0
M  V30 1191 O 112.91 -0.256094 -6.01355 0
M  V30 1192 H 116.736 -1.12242 -2.82197 0
M  V30 1193 H 114.321 -0.612685 -1.36259 0
M  V30 1194 H 116.203 0.970704 -4.10067 0
M  V30 1195 H 114.878 1.31826 -2.95641 0
M  V30 1196 H 113.785 -0.898547 -3.63149 0
M  V30 1197 H 115.118 -1.16309 -4.7826 0
M  V30 1198 N 116.77 1.45427 -0.607355 0
M  V30 1199 C 117.68 2.34325 0.113463 0
M  V30 1200 C 118.696 1.51226 0.860617 0
M  V30 1201 O 119.872 1.84029 0.818255 0
M  V30 1202 C 116.937 3.28839 1.09844 0
M  V30 1203 C 115.998 4.27844 0.353271 0
M  V30 1204 C 115.231 5.17842 1.29133 0
M  V30 1205 O 115.454 5.11264 2.52913 0
M  V30 1206 O 114.388 5.96713 0.788523 0
M  V30 1207 H 118.214 2.97364 -0.617094 0
M  V30 1208 H 115.799 1.44807 -0.367619 0
M  V30 1209 H 117.681 3.8708 1.66575 0
M  V30 1210 H 116.356 2.68365 1.81003 0
M  V30 1211 H 115.263 3.7322 -0.256494 0
M  V30 1212 H 116.596 4.91173 -0.317822 0
M  V30 1213 N 118.248 0.346503 1.53744 0
M  V30 1214 C 119.18 -0.543316 2.22667 0
M  V30 1215 C 120.193 -1.06159 1.23427 0
M  V30 1216 O 121.382 -0.971235 1.49764 0
M  V30 1217 C 118.482 -1.76076 2.89569 0
M  V30 1218 C 117.655 -1.37727 4.15151 0
M  V30 1219 C 116.714 -2.45471 4.65436 0
M  V30 1220 O 115.74 -2.08655 5.29577 0
M  V30 1221 N 116.942 -3.7677 4.41616 0
M  V30 1222 H 119.707 0.0469703 2.99663 0
M  V30 1223 H 117.268 0.170766 1.60997 0
M  V30 1224 H 119.26 -2.47593 3.20125 0
M  V30 1225 H 117.83 -2.25835 2.16142 0
M  V30 1226 H 117.05 -0.492746 3.91108 0
M  V30 1227 H 118.338 -1.09708 4.96832 0
M  V30 1228 H 117.736 -4.09467 3.90325 0
M  V30 1229 H 116.293 -4.44448 4.7677 0
M  V30 1230 N 119.726 -1.57421 0.075193 0
M  V30 1231 C 120.636 -2.1642 -0.905511 0
M  V30 1232 C 121.652 -1.12828 -1.32461 0
M  V30 1233 O 122.828 -1.45109 -1.39661 0
M  V30 1234 C 119.893 -2.71693 -2.15369 0
M  V30 1235 C 118.954 -3.90171 -1.79068 0
M  V30 1236 C 118.187 -4.42798 -2.97936 0
M  V30 1237 O 118.41 -3.94416 -4.12058 0
M  V30 1238 O 117.344 -5.34085 -2.77555 0
M  V30 1239 H 121.17 -3.00588 -0.433626 0
M  V30 1240 H 118.755 -1.48664 -0.148067 0
M  V30 1241 H 120.637 -3.07104 -2.88557 0
M  V30 1242 H 119.312 -1.90582 -2.61649 0
M  V30 1243 H 118.219 -3.59606 -1.03122 0
M  V30 1244 H 119.552 -4.72584 -1.37569 0
M  V30 1245 N 121.204 0.198386 -1.56346 0
M  V30 1246 C 122.152 1.26538 -1.95169 0
M  V30 1247 C 123.146 1.47295 -0.836685 0
M  V30 1248 O 124.352 1.48195 -1.02167 0
M  V30 1249 H 120.727 0.424744 -0.620561 0
M  V30 1250 H 122.698 0.910904 -2.84157 0
M  V30 1251 C 121.447 2.6035 -2.30463 0
M  V30 1252 H 120.77 2.45192 -3.15786 0
M  V30 1253 H 122.21 3.33762 -2.61494 0
M  V30 1254 C 120.669 3.17096 -1.13806 0
M  V30 1255 O 121.199 3.99588 -0.41135 0
M  V30 1256 N 119.405 2.75795 -0.915736 0
M  V30 1257 H 118.952 2.08816 -1.50843 0
M  V30 1258 H 118.91 3.14101 -0.136979 0
M  V30 1259 N 122.682 1.50554 0.465978 0
M  V30 1260 C 123.592 1.72585 1.58907 0
M  V30 1261 C 124.608 0.60911 1.6299 0
M  V30 1262 O 125.784 0.88804 1.80765 0
M  V30 1263 C 122.849 1.81995 2.95091 0
M  V30 1264 C 121.91 3.05751 3.01355 0
M  V30 1265 C 121.143 3.14702 4.31043 0
M  V30 1266 O 121.366 2.30313 5.21835 0
M  V30 1267 O 120.3 4.07468 4.43005 0
M  V30 1268 H 124.126 2.67799 1.43239 0
M  V30 1269 H 121.711 1.34711 0.646013 0
M  V30 1270 H 123.593 1.90335 3.75966 0
M  V30 1271 H 122.268 0.899659 3.10947 0
M  V30 1272 H 121.175 3.02908 2.19539 0
M  V30 1273 H 122.508 3.97375 2.90437 0
M  V30 1274 N 124.16 -0.719506 1.40217 0
M  V30 1275 C 125.388 -1.50864 1.41589 0
M  V30 1276 C 125.803 -1.88794 0.0145275 0
M  V30 1277 O 125.16 -1.55174 -0.960594 0
M  V30 1278 C 125.211 -2.78646 2.30302 0
M  V30 1279 O 124.932 -2.42321 3.64983 0
M  V30 1280 C 126.433 -3.72569 2.40224 0
M  V30 1281 H 123.653 -0.465709 0.48307 0
M  V30 1282 H 126.197 -0.88785 1.84221 0
M  V30 1283 H 124.352 -3.37019 1.91042 0
M  V30 1284 H 124.766 -3.24514 4.12057 0
M  V30 1285 H 126.24 -4.5908 3.06512 0
M  V30 1286 H 126.717 -4.15403 1.42608 0
M  V30 1287 H 127.323 -3.20109 2.80019 0
M  V30 1288 N 125.638 -1.25649 -0.95132 0
M  V30 1289 C 127.049 -1.09654 -1.51106 0
M  V30 1290 C 127.4 0.326615 -1.93462 0
M  V30 1291 O 126.525 1.21697 -1.78938 0
M  V30 1292 C 127.12 -1.98437 -2.74605 0
M  V30 1293 C 125.679 -1.86618 -3.2688 0
M  V30 1294 C 124.826 -1.9239 -1.99703 0
M  V30 1295 H 127.777 -1.38887 -0.767865 0
M  V30 1296 H 127.798 -1.5263 -3.48546 0
M  V30 1297 H 127.31 -3.02009 -2.43746 0
M  V30 1298 H 125.411 -0.859421 -3.62553 0
M  V30 1299 H 125.524 -2.71607 -3.94673 0
M  V30 1300 H 123.888 -1.36317 -2.15151 0
M  V30 1301 H 124.671 -2.97573 -1.71188 0
M  V30 1302 N 127.117 1.15442 -1.07289 0
M  V30 1303 C 128.528 1.67803 -0.818475 0
M  V30 1304 C 128.879 1.8489 0.656507 0
M  V30 1305 O 128.004 1.55176 1.50829 0
M  V30 1306 C 128.599 3.04805 -1.47917 0
M  V30 1307 C 127.158 3.54245 -1.27229 0
M  V30 1308 C 126.305 2.29986 -1.54925 0
M  V30 1309 H 129.256 0.996646 -1.23502 0
M  V30 1310 H 129.277 3.69702 -0.90005 0
M  V30 1311 H 128.789 2.92336 -2.55267 0
M  V30 1312 H 126.89 3.71956 -0.21899 0
M  V30 1313 H 127.003 4.35723 -1.99203 0
M  V30 1314 H 125.367 2.35496 -0.970242 0
M  V30 1315 H 126.15 2.20105 -2.63455 0
M  V30 1316 N 128.595 0.856903 1.32268 0
M  V30 1317 C 129.558 0.308171 2.27119 0
M  V30 1318 C 130.558 -0.533421 1.51695 0
M  V30 1319 O 131.748 -0.344607 1.70757 0
M  V30 1320 C 128.88 -0.563757 3.36206 0
M  V30 1321 H 130.073 1.14535 2.77167 0
M  V30 1322 H 127.626 0.631421 1.42978 0
M  V30 1323 H 128.361 -1.42266 2.91429 0
M  V30 1324 H 128.146 0.0386749 3.92081 0
M  V30 1325 H 129.636 -0.940386 4.06874 0
M  V30 1326 N 130.073 -1.45103 0.615059 0
M  V30 1327 C 131.301 -2.06553 0.11977 0
M  V30 1328 C 131.716 -1.45842 -1.19898 0
M  V30 1329 O 131.073 -0.575325 -1.73194 0
M  V30 1330 C 131.124 -3.61495 -0.018364 0
M  V30 1331 O 130.845 -4.19942 1.24822 0
M  V30 1332 C 132.346 -4.39947 -0.544237 0
M  V30 1333 H 129.566 -0.667096 0.0722739 0
M  V30 1334 H 132.11 -1.8623 0.84491 0
M  V30 1335 H 130.265 -3.81135 -0.693865 0
M  V30 1336 H 130.679 -5.13204 1.0827 0
M  V30 1337 H 132.153 -5.48838 -0.589953 0
M  V30 1338 H 132.63 -4.10255 -1.56805 0
M  V30 1339 H 133.236 -4.25188 0.0974703 0
M  V30 1340 N 131.551 -0.354651 -1.53558 0
M  V30 1341 C 132.776 0.242153 -2.05981 0
M  V30 1342 C 133.201 1.42553 -1.2272 0
M  V30 1343 O 132.559 1.79656 -0.243604 0
M  V30 1344 C 132.607 0.624367 -3.55154 0
M  V30 1345 O 131.711 1.72301 -3.74681 0
M  V30 1346 H 131.052 0.0378432 -0.662921 0
M  V30 1347 H 133.582 -0.512087 -1.98088 0
M  V30 1348 H 133.592 0.898433 -3.97985 0
M  V30 1349 H 132.267 -0.240989 -4.15201 0
M  V30 1350 H 130.844 1.44535 -3.4375 0
M  V30 1351 N 133.029 1.57378 -0.0835403 0
M  V30 1352 C 134.254 1.98682 0.594987 0
M  V30 1353 C 134.679 0.961969 1.61641 0
M  V30 1354 O 134.037 -0.0709989 1.81161 0
M  V30 1355 C 134.085 3.38988 1.2296 0
M  V30 1356 O 133.189 3.39208 2.34546 0
M  V30 1357 H 132.53 0.646368 0.152002 0
M  V30 1358 H 135.06 2.03961 -0.161533 0
M  V30 1359 H 135.07 3.76431 1.57366 0
M  V30 1360 H 133.745 4.13107 0.481228 0
M  V30 1361 H 132.322 3.13548 2.01846 0
M  V30 1362 N 134.507 -0.190092 1.56449 0
M  V30 1363 C 135.417 -1.25591 1.98152 0
M  V30 1364 C 136.433 -1.49519 0.889944 0
M  V30 1365 O 137.609 -1.62036 1.19609 0
M  V30 1366 C 134.674 -2.57916 2.3169 0
M  V30 1367 C 133.735 -2.42015 3.5458 0
M  V30 1368 C 132.968 -3.6803 3.8651 0
M  V30 1369 O 133.191 -4.72413 3.1966 0
M  V30 1370 O 132.125 -3.6326 4.79923 0
M  V30 1371 H 135.951 -0.931988 2.89046 0
M  V30 1372 H 133.536 -0.395488 1.4407 0
M  V30 1373 H 135.418 -3.36008 2.54316 0
M  V30 1374 H 134.093 -2.89925 1.43963 0
M  V30 1375 H 133 -1.62017 3.37196 0
M  V30 1376 H 134.333 -2.14937 4.4279 0
M  V30 1377 N 135.985 -1.50799 -0.457987 0
M  V30 1378 C 136.948 -1.7005 -1.53674 0
M  V30 1379 C 137.948 -0.570881 -1.50325 0
M  V30 1380 O 139.138 -0.838126 -1.52712 0
M  V30 1381 C 136.27 -1.73788 -2.93276 0
M  V30 1382 H 137.463 -2.66306 -1.37917 0
M  V30 1383 H 135.016 -1.40477 -0.685271 0
M  V30 1384 H 135.751 -0.792717 -3.14462 0
M  V30 1385 H 135.536 -2.55864 -2.97113 0
M  V30 1386 H 137.026 -1.90591 -3.71571 0
M  V30 1387 N 137.463 0.71206 -1.40597 0
M  V30 1388 C 138.373 1.8562 -1.43466 0
M  V30 1389 C 139.389 1.70902 -0.326902 0
M  V30 1390 O 140.565 1.93105 -0.572043 0
M  V30 1391 C 137.63 3.21451 -1.29884 0
M  V30 1392 C 136.691 3.48398 -2.50833 0
M  V30 1393 C 135.924 4.77749 -2.3789 0
M  V30 1394 O 136.147 5.53089 -1.39459 0
M  V30 1395 O 135.081 5.05111 -3.27333 0
M  V30 1396 H 138.907 1.86155 -2.39958 0
M  V30 1397 H 136.492 0.86295 -1.21957 0
M  V30 1398 H 138.374 4.02579 -1.24531 0
M  V30 1399 H 137.049 3.21636 -0.364997 0
M  V30 1400 H 135.956 2.67265 -2.61763 0
M  V30 1401 H 137.289 3.53014 -3.4299 0
M  V30 1402 N 138.941 1.26152 0.944643 0
M  V30 1403 C 139.873 1.03199 2.04652 0
M  V30 1404 C 140.886 -0.00642356 1.62799 0
M  V30 1405 O 142.075 0.233263 1.76969 0
M  V30 1406 C 139.175 0.540111 3.34568 0
M  V30 1407 C 138.348 1.64697 4.05208 0
M  V30 1408 C 137.407 1.15374 5.13396 0
M  V30 1409 O 136.433 1.85013 5.38293 0
M  V30 1410 N 137.635 0.00031529 5.805 0
M  V30 1411 H 140.4 1.9808 2.2491 0
M  V30 1412 H 137.961 1.17491 1.11389 0
M  V30 1413 H 139.953 0.194401 4.04233 0
M  V30 1414 H 138.523 -0.315021 3.11009 0
M  V30 1415 H 137.743 2.16379 3.29506 0
M  V30 1416 H 139.031 2.3903 4.49157 0
M  V30 1417 H 138.429 -0.581336 5.62705 0
M  V30 1418 H 136.986 -0.286346 6.51171 0
M  V30 1419 N 140.419 -1.14872 1.07899 0
M  V30 1420 C 141.83 -1.67367 0.827363 0
M  V30 1421 C 142.181 -1.85236 -0.646693 0
M  V30 1422 O 141.306 -1.55974 -1.50004 0
M  V30 1423 C 141.901 -3.04016 1.49532 0
M  V30 1424 C 140.46 -3.53566 1.29106 0
M  V30 1425 C 139.607 -2.29161 1.56143 0
M  V30 1426 H 142.558 -0.990083 1.24028 0
M  V30 1427 H 142.579 -3.69219 0.919643 0
M  V30 1428 H 142.091 -2.90978 2.56814 0
M  V30 1429 H 140.192 -3.71835 0.238713 0
M  V30 1430 H 140.305 -4.34661 2.01511 0
M  V30 1431 H 138.669 -2.34978 0.982717 0
M  V30 1432 H 139.452 -2.18705 2.64619 0
M  V30 1433 N 141.898 -0.863906 -1.31812 0
M  V30 1434 C 142.845 -0.313303 -2.28664 0
M  V30 1435 C 143.815 0.584868 -1.55462 0
M  V30 1436 O 145 0.517805 -1.83639 0
M  V30 1437 C 142.14 0.48441 -3.41683 0
M  V30 1438 C 141.253 -0.440594 -4.29747 0
M  V30 1439 C 140.388 0.370652 -5.29905 0
M  V30 1440 C 139.427 -0.551164 -6.09613 0
M  V30 1441 N 138.564 0.223462 -7.01744 0
M  V30 1442 H 143.404 -1.14444 -2.75148 0
M  V30 1443 H 140.941 -0.575769 -1.35364 0
M  V30 1444 H 142.899 0.962627 -4.05943 0
M  V30 1445 H 141.529 1.28029 -2.96325 0
M  V30 1446 H 140.581 -1.03724 -3.65986 0
M  V30 1447 H 141.893 -1.14767 -4.85417 0
M  V30 1448 H 141.047 0.911638 -5.99812 0
M  V30 1449 H 139.786 1.11105 -4.74876 0
M  V30 1450 H 138.791 -1.10396 -5.38603 0
M  V30 1451 H 140.016 -1.29032 -6.66729 0
M  V30 1452 H 137.962 0.946787 -6.49132 0
M  V30 1453 H 137.879 -0.424399 -7.54808 0
M  V30 1454 H 139.147 0.745876 -7.75923 0
M  V30 1455 N 143.376 1.44774 -0.622745 0
M  V30 1456 C 144.624 2.01721 -0.123655 0
M  V30 1457 C 144.945 1.49172 1.25589 0
M  V30 1458 O 144.215 0.691974 1.83272 0
M  V30 1459 H 142.795 0.745777 -0.0427225 0
M  V30 1460 H 145.457 1.77382 -0.807559 0
M  V30 1461 H 144.553 3.11984 -0.0849534 0
M  V30 1462 N 144.854 0.36279 1.53368 0
M  V30 1463 C 145.764 -0.492994 2.29362 0
M  V30 1464 C 146.78 -1.09507 1.35219 0
M  V30 1465 O 147.956 -1.10662 1.68273 0
M  V30 1466 C 145.021 -1.61855 3.066 0
M  V30 1467 C 144.082 -1.04429 4.16405 0
M  V30 1468 C 143.315 -2.11621 4.89951 0
M  V30 1469 O 143.538 -3.32684 4.63333 0
M  V30 1470 O 142.472 -1.74835 5.75948 0
M  V30 1471 H 146.298 0.125331 3.03441 0
M  V30 1472 H 143.883 0.127253 1.48857 0
M  V30 1473 H 145.765 -2.27302 3.54841 0
M  V30 1474 H 144.44 -2.22233 2.3536 0
M  V30 1475 H 143.347 -0.353819 3.72423 0
M  V30 1476 H 144.68 -0.485113 4.89804 0
M  V30 1477 N 146.332 -1.57332 0.0918853 0
M  V30 1478 C 147.743 -1.81496 -0.437739 0
M  V30 1479 C 148.094 -1.00727 -1.6837 0
M  V30 1480 O 147.219 -0.235694 -2.15113 0
M  V30 1481 C 147.814 -3.29197 -0.800939 0
M  V30 1482 C 146.373 -3.54136 -1.27532 0
M  V30 1483 C 145.52 -2.75979 -0.270392 0
M  V30 1484 H 148.471 -1.55494 0.317366 0
M  V30 1485 H 148.492 -3.42344 -1.66074 0
M  V30 1486 H 148.004 -3.87955 0.106078 0
M  V30 1487 H 146.105 -3.00705 -2.20016 0
M  V30 1488 H 146.218 -4.62792 -1.23938 0
M  V30 1489 H 144.582 -2.43349 -0.751872 0
M  V30 1490 H 145.365 -3.37484 0.629248 0
M  V30 1491 N 147.81 0.181792 -1.56548 0
M  V30 1492 C 148.72 1.24538 -1.98815 0
M  V30 1493 C 149.736 1.49045 -0.897861 0
M  V30 1494 O 150.912 1.61399 -1.20467 0
M  V30 1495 C 147.977 2.56683 -2.33055 0
M  V30 1496 C 147.038 2.40131 -3.55859 0
M  V30 1497 C 146.271 3.65975 -3.88456 0
M  V30 1498 O 146.494 4.70711 -3.22161 0
M  V30 1499 O 145.428 3.6071 -4.81842 0
M  V30 1500 H 149.254 0.916647 -2.89536 0
M  V30 1501 H 146.839 0.387842 -1.44278 0
M  V30 1502 H 148.721 3.34655 -2.56094 0
M  V30 1503 H 147.396 2.89157 -1.45498 0
M  V30 1504 H 146.303 1.60226 -3.38051 0
M  V30 1505 H 147.636 2.12585 -4.43924 0
M  V30 1506 N 149.288 1.51039 0.449983 0
M  V30 1507 C 150.236 1.71995 1.5659 0
M  V30 1508 C 151.23 0.586029 1.5894 0
M  V30 1509 O 152.436 0.76709 1.62837 0
M  V30 1510 H 148.811 0.543233 0.520001 0
M  V30 1511 H 150.782 2.65562 1.36085 0
M  V30 1512 C 149.531 1.8506 2.9436 0
M  V30 1513 H 148.854 2.71712 2.93279 0
M  V30 1514 H 150.294 2.0374 3.71842 0
M  V30 1515 C 148.753 0.607277 3.31382 0
M  V30 1516 O 149.283 -0.243903 4.00959 0
M  V30 1517 N 147.489 0.455073 2.87015 0
M  V30 1518 H 147.036 1.14879 2.30566 0
M  V30 1519 H 146.994 -0.375611 3.12148 0
M  V30 1520 N 150.766 -0.704594 1.40972 0
M  V30 1521 C 151.676 -1.84856 1.44448 0
M  V30 1522 C 152.692 -1.70726 0.335961 0
M  V30 1523 O 153.868 -1.92799 0.582276 0
M  V30 1524 C 150.933 -3.20758 1.31587 0
M  V30 1525 C 149.994 -3.47063 2.52677 0
M  V30 1526 C 149.227 -4.76481 2.4042 0
M  V30 1527 O 149.45 -5.52341 1.42391 0
M  V30 1528 O 148.384 -5.03367 3.30007 0
M  V30 1529 H 152.21 -1.8488 2.40942 0
M  V30 1530 H 149.795 -0.85647 1.22413 0
M  V30 1531 H 151.677 -4.01913 1.26665 0
M  V30 1532 H 150.352 -3.21438 0.382049 0
M  V30 1533 H 149.259 -2.65873 2.63177 0
M  V30 1534 H 150.592 -3.5119 3.44858 0
M  V30 1535 N 152.244 -1.26651 -0.937939 0
M  V30 1536 C 153.154 -1.10276 -2.07066 0
M  V30 1537 C 154.17 -0.0354197 -1.73964 0
M  V30 1538 O 155.346 -0.239816 -1.99967 0
M  V30 1539 C 152.411 -0.740887 -3.38691 0
M  V30 1540 C 151.472 -1.88799 -3.85556 0
M  V30 1541 C 150.705 -1.54329 -5.10899 0
M  V30 1542 O 150.928 -0.446494 -5.6865 0
M  V30 1543 O 149.862 -2.37911 -5.52885 0
M  V30 1544 H 153.688 -2.05309 -2.23789 0
M  V30 1545 H 151.273 -1.05743 -1.0554 0
M  V30 1546 H 153.155 -0.55195 -4.1777 0
M  V30 1547 H 151.83 0.180022 -3.23199 0
M  V30 1548 H 150.737 -2.13191 -3.07409 0
M  V30 1549 H 152.07 -2.78874 -4.05574 0
M  V30 1550 N 153.722 1.14298 -1.08507 0
M  V30 1551 C 154.669 2.19414 -0.715965 0
M  V30 1552 C 155.639 1.63399 0.298326 0
M  V30 1553 O 156.824 1.89929 0.182101 0
M  V30 1554 C 153.964 3.44845 -0.132534 0
M  V30 1555 C 153.077 4.15007 -1.19973 0
M  V30 1556 C 152.212 5.28024 -0.580048 0
M  V30 1557 C 151.251 5.9002 -1.62921 0
M  V30 1558 N 150.388 6.94485 -1.03125 0
M  V30 1559 H 155.228 2.50336 -1.61666 0
M  V30 1560 H 152.765 1.2293 -0.807882 0
M  V30 1561 H 154.723 4.16601 0.223454 0
M  V30 1562 H 153.353 3.14403 0.731467 0
M  V30 1563 H 152.405 3.41629 -1.67313 0
M  V30 1564 H 153.717 4.57178 -1.99473 0
M  V30 1565 H 152.871 6.06455 -0.172364 0
M  V30 1566 H 151.61 4.87076 0.246603 0
M  V30 1567 H 150.615 5.10291 -2.04654 0
M  V30 1568 H 151.84 6.33042 -2.45835 0
M  V30 1569 H 149.786 6.55612 -0.225711 0
M  V30 1570 H 149.703 7.35148 -1.76334 0
M  V30 1571 H 150.971 7.7679 -0.649458 0
M  V30 1572 N 155.201 0.870884 1.31352 0
M  V30 1573 C 156.111 0.330783 2.32256 0
M  V30 1574 C 157.127 -0.559767 1.6475 0
M  V30 1575 O 158.303 -0.456263 1.96164 0
M  V30 1576 C 155.368 -0.458137 3.4366 0
M  V30 1577 C 154.429 0.460482 4.26823 0
M  V30 1578 C 153.662 -0.290881 5.32907 0
M  V30 1579 O 153.885 -1.51885 5.49806 0
M  V30 1580 O 152.819 0.351732 6.00871 0
M  V30 1581 H 156.645 1.16718 2.80376 0
M  V30 1582 H 154.23 0.634285 1.35267 0
M  V30 1583 H 156.112 -0.905343 4.1156 0
M  V30 1584 H 154.787 -1.27106 2.97701 0
M  V30 1585 H 153.694 0.956207 3.61673 0
M  V30 1586 H 155.027 1.23903 4.7635 0
M  V30 1587 N 156.679 -1.44442 0.630414 0
M  V30 1588 C 157.589 -2.34476 -0.0761693 0
M  V30 1589 C 158.605 -1.52576 -0.836449 0
M  V30 1590 O 159.781 -1.85307 -0.788874 0
M  V30 1591 C 156.846 -3.30545 -1.04599 0
M  V30 1592 C 155.907 -4.28352 -0.28516 0
M  V30 1593 C 155.14 -5.19831 -1.20878 0
M  V30 1594 O 155.363 -5.15223 -2.44747 0
M  V30 1595 O 154.297 -5.97892 -0.693491 0
M  V30 1596 H 158.123 -2.96345 0.664324 0
M  V30 1597 H 155.708 -1.44203 0.39061 0
M  V30 1598 H 157.59 -3.89681 -1.60396 0
M  V30 1599 H 156.265 -2.7121 -1.76711 0
M  V30 1600 H 155.172 -3.72764 0.315837 0
M  V30 1601 H 156.505 -4.90605 0.395924 0
M  V30 1602 N 158.157 -0.370918 -1.53173 0
M  V30 1603 C 159.105 0.488101 -2.27421 0
M  V30 1604 C 160.099 1.07884 -1.30604 0
M  V30 1605 O 161.305 1.02143 -1.48212 0
M  V30 1606 H 157.68 0.176134 -0.731082 0
M  V30 1607 H 159.651 -0.159815 -2.97972 0
M  V30 1608 C 158.4 1.61306 -3.08019 0
M  V30 1609 H 157.723 1.1678 -3.82364 0
M  V30 1610 H 159.163 2.18872 -3.63141 0
M  V30 1611 C 157.622 2.55848 -2.19188 0
M  V30 1612 O 158.152 3.58799 -1.80626 0
M  V30 1613 N 156.358 2.2516 -1.83715 0
M  V30 1614 H 155.905 1.41476 -2.15273 0
M  V30 1615 H 155.863 2.8867 -1.24567 0
M  V30 1616 N 159.635 1.57281 -0.100228 0
M  V30 1617 C 160.582 2.14305 0.856858 0
M  V30 1618 C 161.552 1.06296 1.27634 0
M  V30 1619 O 162.737 1.34109 1.35718 0
M  V30 1620 C 159.877 2.73184 2.10866 0
M  V30 1621 C 158.99 3.95442 1.73925 0
M  V30 1622 C 158.125 4.42468 2.93931 0
M  V30 1623 C 157.164 5.57303 2.5314 0
M  V30 1624 N 156.301 5.99158 3.65997 0
M  V30 1625 H 161.141 2.95772 0.363726 0
M  V30 1626 H 158.678 1.46139 0.167858 0
M  V30 1627 H 160.636 3.05442 2.84185 0
M  V30 1628 H 159.266 1.94437 2.57671 0
M  V30 1629 H 158.318 3.69464 0.905554 0
M  V30 1630 H 159.63 4.78769 1.39935 0
M  V30 1631 H 158.784 4.76537 3.75496 0
M  V30 1632 H 157.523 3.58052 3.31134 0
M  V30 1633 H 156.528 5.22857 1.70003 0
M  V30 1634 H 157.753 6.43471 2.17075 0
M  V30 1635 H 155.699 5.17687 4.02909 0
M  V30 1636 H 155.616 6.77295 3.35869 0
M  V30 1637 H 156.884 6.3786 4.48057 0
M  V30 1638 N 161.113 -0.173488 1.56642 0
M  V30 1639 C 162.338 -0.910149 1.86363 0
M  V30 1640 C 162.763 -1.75132 0.686318 0
M  V30 1641 O 162.121 -1.77595 -0.364643 0
M  V30 1642 C 162.169 -1.76447 3.14482 0
M  V30 1643 O 161.273 -2.86584 2.96553 0
M  V30 1644 H 160.614 -0.255086 0.613047 0
M  V30 1645 H 163.144 -0.172283 2.03873 0
M  V30 1646 H 163.154 -2.16483 3.45831 0
M  V30 1647 H 161.829 -1.14658 3.99783 0
M  V30 1648 H 160.406 -2.50146 2.76553 0
M  V30 1649 N 162.591 -1.51276 -0.441967 0
M  V30 1650 C 163.816 -1.67799 -1.21895 0
M  V30 1651 C 164.241 -0.372864 -1.84367 0
M  V30 1652 O 163.599 0.666501 -1.68604 0
M  V30 1653 C 163.647 -2.79199 -2.28211 0
M  V30 1654 O 162.751 -2.42479 -3.33583 0
M  V30 1655 H 162.092 -0.559649 -0.357336 0
M  V30 1656 H 164.622 -1.97815 -0.522522 0
M  V30 1657 H 164.632 -3.03146 -2.73069 0
M  V30 1658 H 163.307 -3.73906 -1.82118 0
M  V30 1659 H 161.884 -2.29087 -2.94234 0
M  V30 1660 N 164.069 0.697108 -1.41344 0
M  V30 1661 C 164.979 1.84088 -1.45427 0
M  V30 1662 C 165.995 1.70545 -0.34501 0
M  V30 1663 O 167.171 1.92488 -0.592492 0
M  V30 1664 C 164.236 3.20056 -1.33286 0
M  V30 1665 C 163.297 3.45718 -2.54514 0
M  V30 1666 C 162.53 4.75199 -2.42944 0
M  V30 1667 O 162.753 5.51579 -1.45318 0
M  V30 1668 O 161.687 5.0161 -3.32672 0
M  V30 1669 H 165.513 1.836 -2.41919 0
M  V30 1670 H 163.098 0.849966 -1.22866 0
M  V30 1671 H 164.98 4.01236 -1.28794 0
M  V30 1672 H 163.655 3.2123 -0.39909 0
M  V30 1673 H 162.562 2.64474 -2.64583 0
M  V30 1674 H 163.895 3.49356 -3.46715 0
M  V30 1675 N 165.547 1.27147 0.931209 0
M  V30 1676 C 166.457 1.11372 2.06478 0
M  V30 1677 C 167.473 0.044645 1.73943 0
M  V30 1678 O 168.649 0.250417 1.99837 0
M  V30 1679 C 165.714 0.758838 3.38294 0
M  V30 1680 C 164.775 1.90841 3.84549 0
M  V30 1681 C 164.008 1.57036 5.10074 0
M  V30 1682 O 164.231 0.476645 5.68405 0
M  V30 1683 O 163.165 2.40839 5.51616 0
M  V30 1684 H 166.991 2.06493 2.22698 0
M  V30 1685 H 164.576 1.06301 1.04978 0
M  V30 1686 H 166.458 0.574098 4.17471 0
M  V30 1687 H 165.133 -0.162879 3.2329 0
M  V30 1688 H 164.04 2.14819 3.06274 0
M  V30 1689 H 165.373 2.81021 4.04089 0
M  V30 1690 N 167.025 -1.13721 1.09112 0
M  V30 1691 C 168.253 -1.88773 0.846899 0
M  V30 1692 C 168.668 -1.7896 -0.601572 0
M  V30 1693 O 168.025 -1.15394 -1.41388 0
M  V30 1694 C 168.076 -3.3849 1.26913 0
M  V30 1695 O 167.797 -3.48043 2.66079 0
M  V30 1696 C 169.298 -4.30518 1.05682 0
M  V30 1697 H 166.518 -0.59772 0.304914 0
M  V30 1698 H 169.062 -1.43977 1.45227 0
M  V30 1699 H 167.217 -3.80881 0.707723 0
M  V30 1700 H 167.631 -4.4109 2.83795 0
M  V30 1701 H 169.105 -5.3391 1.40156 0
M  V30 1702 H 169.582 -4.392 -0.00563416 0
M  V30 1703 H 170.188 -3.93893 1.60402 0
M  V30 1704 N 168.503 -0.877838 -1.30888 0
M  V30 1705 C 169.45 -0.337538 -2.28318 0
M  V30 1706 C 170.42 0.568346 -1.56074 0
M  V30 1707 O 171.605 0.498298 -1.84178 0
M  V30 1708 C 168.745 0.448142 -3.42178 0
M  V30 1709 C 167.858 -0.48615 -4.29256 0
M  V30 1710 C 166.993 0.314427 -5.30269 0
M  V30 1711 C 166.032 -0.615791 -6.08995 0
M  V30 1712 N 165.169 0.14902 -7.01942 0
M  V30 1713 H 170.009 -1.17356 -2.73919 0
M  V30 1714 H 167.546 -0.590094 -1.34745 0
M  V30 1715 H 169.504 0.919517 -4.06941 0
M  V30 1716 H 168.134 1.24879 -2.97666 0
M  V30 1717 H 167.186 -1.076 -3.64865 0
M  V30 1718 H 168.498 -1.19909 -4.84173 0
M  V30 1719 H 167.652 0.847969 -6.00745 0
M  V30 1720 H 166.391 1.06062 -4.76027 0
M  V30 1721 H 165.396 -1.16102 -5.37401 0
M  V30 1722 H 166.621 -1.36097 -6.65323 0
M  V30 1723 H 164.567 0.877884 -6.50099 0
M  V30 1724 H 164.484 -0.504433 -7.54315 0
M  V30 1725 H 165.752 0.663537 -7.76671 0
M  V30 1726 N 169.982 1.44106 -0.638065 0
M  V30 1727 C 170.929 2.30715 0.062701 0
M  V30 1728 C 171.899 1.43882 0.829883 0
M  V30 1729 O 173.084 1.72775 0.809532 0
M  V30 1730 C 170.224 3.29258 1.03358 0
M  V30 1731 C 169.337 4.31192 0.26409 0
M  V30 1732 C 168.472 5.16825 1.22741 0
M  V30 1733 C 167.511 6.10462 0.447475 0
M  V30 1734 N 166.648 6.8877 1.36161 0
M  V30 1735 H 171.488 2.90096 -0.681781 0
M  V30 1736 H 169.025 1.42925 -0.347988 0
M  V30 1737 H 170.983 3.84886 1.60992 0
M  V30 1738 H 169.613 2.71562 1.74511 0
M  V30 1739 H 168.665 3.77981 -0.428295 0
M  V30 1740 H 169.977 4.97619 -0.343052 0
M  V30 1741 H 169.131 5.77004 1.87487 0
M  V30 1742 H 167.87 4.50488 1.86847 0
M  V30 1743 H 166.875 5.49386 -0.213433 0
M  V30 1744 H 168.1 6.78837 -0.188968 0
M  V30 1745 H 166.046 6.25096 1.98975 0
M  V30 1746 H 165.963 7.51663 0.808656 0
M  V30 1747 H 167.231 7.53467 1.99769 0
M  V30 1748 N 171.46 0.379036 1.52974 0
M  V30 1749 C 172.737 -0.263479 1.93817 0
M  V30 1750 C 173.117 -1.65244 1.31368 0
M  V30 1751 O 172.465 -2.23448 0.477856 0
M  V30 1752 C 172.675 -0.300166 3.47707 0
M  V30 1753 C 174.023 -0.534061 4.21228 0
M  V30 1754 O 175.047 -0.38081 3.54159 0
M  V30 1755 O 173.906 -0.833501 5.40106 0
M  V30 1756 H 171 -0.161149 0.811147 0
M  V30 1757 H 173.546 0.432798 1.64088 0
M  V30 1758 H 172.318 0.673138 3.85467 0
M  V30 1759 H 171.941 -1.04179 3.83709 0
M  V30 1760 N 172.938 -1.57226 0.108567 0
M  V30 1761 C 173.848 -2.18292 -0.859401 0
M  V30 1762 C 174.864 -1.15612 -1.30038 0
M  V30 1763 O 176.04 -1.48039 -1.36552 0
M  V30 1764 C 173.105 -2.762 -2.09558 0
M  V30 1765 C 172.166 -3.93881 -1.70752 0
M  V30 1766 C 171.399 -4.49018 -2.88477 0
M  V30 1767 O 171.622 -4.03068 -4.036 0
M  V30 1768 O 170.556 -5.39852 -2.66164 0
M  V30 1769 H 174.382 -3.01441 -0.369769 0
M  V30 1770 H 171.967 -1.48945 -0.1165 0
M  V30 1771 H 173.849 -3.13156 -2.81978 0
M  V30 1772 H 172.524 -1.96089 -2.57548 0
M  V30 1773 H 171.431 -3.61713 -0.954714 0
M  V30 1774 H 172.764 -4.75396 -1.27513 0
M  V30 1775 N 174.416 0.165178 -1.56732 0
M  V30 1776 C 175.363 1.2044 -1.96883 0
M  V30 1777 C 176.333 1.43664 -0.833657 0
M  V30 1778 O 177.518 1.56302 -1.09427 0
M  V30 1779 C 174.658 2.53727 -2.33916 0
M  V30 1780 C 173.771 2.3783 -3.6064 0
M  V30 1781 C 172.906 3.64026 -3.86857 0
M  V30 1782 C 171.945 3.43088 -5.06909 0
M  V30 1783 N 171.082 4.61369 -5.29229 0
M  V30 1784 H 175.922 0.854996 -2.85471 0
M  V30 1785 H 173.459 0.41076 -1.41249 0
M  V30 1786 H 175.417 3.31419 -2.53411 0
M  V30 1787 H 174.047 2.8665 -1.48431 0
M  V30 1788 H 173.099 1.51282 -3.49024 0
M  V30 1789 H 174.411 2.18308 -4.4849 0
M  V30 1790 H 173.565 4.50152 -4.06753 0
M  V30 1791 H 172.304 3.86533 -2.97394 0
M  V30 1792 H 171.309 2.55349 -4.86906 0
M  V30 1793 H 172.534 3.21997 -5.97909 0
M  V30 1794 H 170.48 4.84084 -4.42718 0
M  V30 1795 H 170.397 4.44783 -6.11313 0
M  V30 1796 H 171.665 5.48761 -5.53608 0
M  V30 1797 N 175.894 1.51508 0.433938 0
M  V30 1798 C 177.171 1.54888 1.19453 0
M  V30 1799 C 177.551 0.315154 2.08734 0
M  V30 1800 O 176.899 -0.699558 2.17528 0
M  V30 1801 C 177.109 2.86467 1.99342 0
M  V30 1802 C 178.457 3.38545 2.56267 0
M  V30 1803 O 179.481 2.88041 2.0955 0
M  V30 1804 O 178.34 4.26675 3.41483 0
M  V30 1805 H 175.434 0.622863 0.544032 0
M  V30 1806 H 177.98 1.63823 0.442732 0
M  V30 1807 H 176.752 3.67718 1.33788 0
M  V30 1808 H 176.375 2.8071 2.8158 0
M  V30 1809 N 177.372 -0.689602 1.41712 0
M  V30 1810 C 178.304 -1.815 1.39966 0
M  V30 1811 C 179.317 -1.59995 0.300917 0
M  V30 1812 O 180.506 -1.69387 0.563039 0
M  V30 1813 C 177.606 -3.18364 1.16179 0
M  V30 1814 C 176.779 -3.66847 2.38206 0
M  V30 1815 C 175.838 -4.82398 2.10186 0
M  V30 1816 O 174.864 -4.93706 2.83272 0
M  V30 1817 N 176.066 -5.70064 1.0958 0
M  V30 1818 H 178.831 -1.83488 2.36965 0
M  V30 1819 H 176.392 -0.872149 1.36401 0
M  V30 1820 H 178.384 -3.93301 0.953756 0
M  V30 1821 H 176.954 -3.11365 0.27756 0
M  V30 1822 H 176.174 -2.82751 2.74673 0
M  V30 1823 H 177.462 -3.95978 3.19498 0
M  V30 1824 H 176.86 -5.63565 0.491019 0
M  V30 1825 H 175.417 -6.44874 0.947656 0
M  V30 1826 N 178.85 -1.27639 -0.924453 0
M  V30 1827 C 180.075 -1.17101 -1.71179 0
M  V30 1828 C 180.5 0.268134 -1.86179 0
M  V30 1829 O 179.858 1.19415 -1.36418 0
M  V30 1830 C 179.906 -1.86313 -3.08739 0
M  V30 1831 O 179.01 -1.16331 -3.95652 0
M  V30 1832 H 178.351 -0.407091 -0.524569 0
M  V30 1833 H 180.881 -1.68767 -1.15666 0
M  V30 1834 H 180.891 -1.938 -3.59034 0
M  V30 1835 H 179.566 -2.91001 -2.97138 0
M  V30 1836 H 178.143 -1.16935 -3.54091 0
M  V30 1837 N 180.328 1.1314 -1.09713 0
M  V30 1838 C 181.275 2.18642 -0.739196 0
M  V30 1839 C 182.245 1.63706 0.280978 0
M  V30 1840 O 183.43 1.90111 0.161946 0
M  V30 1841 C 180.57 3.44685 -0.169102 0
M  V30 1842 C 179.683 4.13711 -1.24367 0
M  V30 1843 C 178.818 5.27379 -0.636019 0
M  V30 1844 C 177.857 5.88259 -1.69169 0
M  V30 1845 N 176.994 6.93352 -1.10485 0
M  V30 1846 H 181.834 2.48607 -1.64312 0
M  V30 1847 H 179.371 1.22066 -0.820875 0
M  V30 1848 H 181.329 4.16815 0.179256 0
M  V30 1849 H 179.959 3.15161 0.698079 0
M  V30 1850 H 179.011 3.39835 -1.70927 0
M  V30 1851 H 180.323 4.55037 -2.04311 0
M  V30 1852 H 179.477 6.06238 -0.236677 0
M  V30 1853 H 178.216 4.8731 0.194928 0
M  V30 1854 H 177.221 5.08092 -2.10055 0
M  V30 1855 H 178.446 6.30399 -2.52536 0
M  V30 1856 H 176.392 6.55335 -0.295234 0
M  V30 1857 H 176.309 7.33236 -1.84121 0
M  V30 1858 H 177.577 7.76057 -0.73181 0
M  V30 1859 N 181.806 0.884767 1.30421 0
M  V30 1860 C 182.716 0.355398 2.31892 0
M  V30 1861 C 183.732 -0.542261 1.65335 0
M  V30 1862 O 184.908 -0.435432 1.96637 0
M  V30 1863 C 181.973 -0.421661 3.44126 0
M  V30 1864 C 181.034 0.505727 4.26311 0
M  V30 1865 C 180.267 -0.234343 5.33185 0
M  V30 1866 O 180.49 -1.46045 5.51386 0
M  V30 1867 O 179.424 0.415443 6.00465 0
M  V30 1868 H 183.25 1.19685 2.79122 0
M  V30 1869 H 180.835 0.648596 1.34587 0
M  V30 1870 H 182.717 -0.861641 4.12497 0
M  V30 1871 H 181.392 -1.23942 2.99032 0
M  V30 1872 H 180.299 0.994513 3.60639 0
M  V30 1873 H 181.632 1.28948 4.75009 0
M  V30 1874 N 183.284 -1.43765 0.645699 0
M  V30 1875 C 184.231 -2.30745 -0.0504648 0
M  V30 1876 C 185.201 -1.4432 -0.822241 0
M  V30 1877 O 186.386 -1.73202 -0.800358 0
M  V30 1878 C 183.526 -3.29802 -1.0161 0
M  V30 1879 C 182.639 -4.31326 -0.241219 0
M  V30 1880 C 181.774 -5.17469 -1.19998 0
M  V30 1881 C 180.813 -6.10691 -0.415094 0
M  V30 1882 N 179.95 -6.89483 -1.32506 0
M  V30 1883 H 184.79 -2.8973 0.697155 0
M  V30 1884 H 182.327 -1.42738 0.355563 0
M  V30 1885 H 184.285 -3.85734 -1.58949 0
M  V30 1886 H 182.915 -2.72483 -1.73069 0
M  V30 1887 H 181.967 -3.77749 0.448334 0
M  V30 1888 H 183.279 -4.9743 0.369437 0
M  V30 1889 H 182.433 -5.7799 -1.84424 0
M  V30 1890 H 181.172 -4.51473 -1.84455 0
M  V30 1891 H 180.177 -5.49265 0.242565 0
M  V30 1892 H 181.402 -6.78727 0.224966 0
M  V30 1893 H 179.348 -6.26142 -1.95657 0
M  V30 1894 H 179.265 -7.52081 -0.768783 0
M  V30 1895 H 180.533 -7.54516 -1.9577 0
M  V30 1896 N 184.763 -0.387143 -1.52771 0
M  V30 1897 C 185.673 0.456442 -2.30117 0
M  V30 1898 C 186.689 1.07342 -1.36944 0
M  V30 1899 O 187.865 1.07971 -1.70013 0
M  V30 1900 C 184.93 1.56957 -3.09136 0
M  V30 1901 C 183.991 0.977916 -4.18014 0
M  V30 1902 C 183.224 2.038 -4.93256 0
M  V30 1903 O 183.447 3.25271 -4.68567 0
M  V30 1904 O 182.381 1.6565 -5.78657 0
M  V30 1905 H 186.207 -0.17359 -3.03203 0
M  V30 1906 H 183.792 -0.150919 -1.48636 0
M  V30 1907 H 185.674 2.21628 -3.58412 0
M  V30 1908 H 184.349 2.18461 -2.38865 0
M  V30 1909 H 183.256 0.294525 -3.72939 0
M  V30 1910 H 184.589 0.407128 -4.90513 0
M  V30 1911 N 186.241 1.57166 -0.116904 0
M  V30 1912 C 187.188 2.15202 0.83408 0
M  V30 1913 C 188.158 1.07644 1.26499 0
M  V30 1914 O 189.343 1.35541 1.34288 0
M  V30 1915 C 186.483 2.75405 2.07957 0
M  V30 1916 C 185.596 3.97264 1.69721 0
M  V30 1917 C 184.731 4.45561 2.89221 0
M  V30 1918 C 183.77 5.59956 2.47215 0
M  V30 1919 N 182.907 6.03006 3.59622 0
M  V30 1920 H 187.747 2.96141 0.332335 0
M  V30 1921 H 185.284 1.46309 0.152349 0
M  V30 1922 H 187.242 3.08439 2.80929 0
M  V30 1923 H 185.872 1.97159 2.55594 0
M  V30 1924 H 184.924 3.70404 0.866316 0
M  V30 1925 H 186.236 4.80226 1.34849 0
M  V30 1926 H 185.39 4.80493 3.7042 0
M  V30 1927 H 184.129 3.61544 3.27318 0
M  V30 1928 H 183.134 5.2463 1.64448 0
M  V30 1929 H 184.359 6.45738 2.10238 0
M  V30 1930 H 182.305 5.21931 3.97396 0
M  V30 1931 H 182.222 6.80819 3.28667 0
M  V30 1932 H 183.49 6.42576 4.41267 0
M  V30 1933 N 187.719 -0.156864 1.56817 0
M  V30 1934 C 188.666 -1.19394 1.97519 0
M  V30 1935 C 189.636 -1.4322 0.841265 0
M  V30 1936 O 190.821 -1.55719 1.10255 0
M  V30 1937 C 187.961 -2.52483 2.35258 0
M  V30 1938 C 187.074 -2.35914 3.61896 0
M  V30 1939 C 186.209 -3.61969 3.88782 0
M  V30 1940 C 185.248 -3.40395 5.08722 0
M  V30 1941 N 184.385 -4.58556 5.31668 0
M  V30 1942 H 189.225 -0.839845 2.85921 0
M  V30 1943 H 186.762 -0.403264 1.41464 0
M  V30 1944 H 188.72 -3.30071 2.55165 0
M  V30 1945 H 187.35 -2.85859 1.49949 0
M  V30 1946 H 186.402 -1.49429 3.49821 0
M  V30 1947 H 187.714 -2.15926 4.49641 0
M  V30 1948 H 186.868 -4.47989 4.09135 0
M  V30 1949 H 185.607 -3.84951 2.9944 0
M  V30 1950 H 184.612 -2.52763 4.88253 0
M  V30 1951 H 185.837 -3.18822 5.99608 0
M  V30 1952 H 183.783 -4.81729 4.45279 0
M  V30 1953 H 183.7 -4.41535 6.13664 0
M  V30 1954 H 184.968 -5.45817 5.5651 0
M  V30 1955 N 189.197 -1.51736 -0.425897 0
M  V30 1956 C 190.443 -1.65214 -1.1761 0
M  V30 1957 C 190.776 -0.372778 -1.90589 0
M  V30 1958 O 190.051 0.628139 -1.84078 0
M  V30 1959 C 190.334 -2.86312 -2.18398 0
M  V30 1960 C 190.187 -4.24254 -1.49426 0
M  V30 1961 C 191.506 -3.02925 -3.19256 0
M  V30 1962 H 188.625 -0.601263 -0.426206 0
M  V30 1963 H 191.267 -1.8425 -0.463882 0
M  V30 1964 H 189.417 -2.70213 -2.79137 0
M  V30 1965 H 191.089 -4.52046 -0.919362 0
M  V30 1966 H 189.332 -4.26426 -0.796432 0
M  V30 1967 H 190.003 -5.05001 -2.22885 0
M  V30 1968 H 192.479 -3.1781 -2.68581 0
M  V30 1969 H 191.355 -3.89199 -3.8706 0
M  V30 1970 H 191.616 -2.15497 -3.86023 0
M  V30 1971 N 190.675 0.682077 -1.42076 0
M  V30 1972 C 191.622 1.79578 -1.44984 0
M  V30 1973 C 192.592 1.6332 -0.302614 0
M  V30 1974 O 193.777 1.83978 -0.505633 0
M  V30 1975 C 190.917 3.1756 -1.35091 0
M  V30 1976 C 190.03 3.45156 -2.59791 0
M  V30 1977 C 189.165 4.72826 -2.42093 0
M  V30 1978 C 188.204 4.93433 -3.62202 0
M  V30 1979 N 187.341 6.12338 -3.43491 0
M  V30 1980 H 192.181 1.76427 -2.40161 0
M  V30 1981 H 189.718 0.861376 -1.19242 0
M  V30 1982 H 191.676 3.97287 -1.27354 0
M  V30 1983 H 190.306 3.19854 -0.435133 0
M  V30 1984 H 189.358 2.59736 -2.77923 0
M  V30 1985 H 190.67 3.5628 -3.49094 0
M  V30 1986 H 189.824 5.60631 -2.319 0
M  V30 1987 H 188.563 4.63973 -1.50268 0
M  V30 1988 H 187.568 4.04073 -3.72834 0
M  V30 1989 H 188.793 5.04136 -4.54998 0
M  V30 1990 H 186.739 6.04672 -2.54377 0
M  V30 1991 H 186.656 6.2429 -4.26377 0
M  V30 1992 H 187.924 7.02841 -3.37097 0
M  V30 1993 N 192.153 1.28127 0.917671 0
M  V30 1994 C 193.1 1.11717 2.0196 0
M  V30 1995 C 194.07 0.0153929 1.66093 0
M  V30 1996 O 195.255 0.179596 1.89953 0
M  V30 1997 C 192.395 0.780927 3.36148 0
M  V30 1998 C 191.508 1.96135 3.84909 0
M  V30 1999 C 190.643 1.56609 5.0759 0
M  V30 2000 C 189.682 2.71339 5.48673 0
M  V30 2001 N 188.819 2.32332 6.62545 0
M  V30 2002 H 193.659 2.06003 2.15329 0
M  V30 2003 H 191.196 1.02535 1.05475 0
M  V30 2004 H 193.154 0.56675 4.13333 0
M  V30 2005 H 191.784 -0.124998 3.22558 0
M  V30 2006 H 190.836 2.28777 3.03916 0
M  V30 2007 H 192.148 2.82165 4.1132 0
M  V30 2008 H 191.302 1.31374 5.92305 0
M  V30 2009 H 190.041 0.677014 4.82978 0
M  V30 2010 H 189.046 2.97276 4.62501 0
M  V30 2011 H 190.271 3.60882 5.75274 0
M  V30 2012 H 188.217 1.45889 6.39572 0
M  V30 2013 H 188.134 3.11899 6.88662 0
M  V30 2014 H 189.402 2.10371 7.50576 0
M  V30 2015 N 193.631 -1.12557 1.10312 0
M  V30 2016 C 194.859 -1.87864 0.866873 0
M  V30 2017 C 195.274 -1.79588 -0.582557 0
M  V30 2018 O 194.631 -1.16887 -1.40156 0
M  V30 2019 C 194.682 -3.37125 1.30496 0
M  V30 2020 O 194.403 -3.45201 2.69755 0
M  V30 2021 C 195.904 -4.29373 1.10243 0
M  V30 2022 H 193.124 -0.594452 0.311236 0
M  V30 2023 H 195.668 -1.42429 1.46745 0
M  V30 2024 H 193.823 -3.80109 0.748081 0
M  V30 2025 H 194.237 -4.38056 2.88457 0
M  V30 2026 H 195.711 -5.32394 1.45811 0
M  V30 2027 H 196.188 -4.39181 0.0409492 0
M  V30 2028 H 196.794 -3.92169 1.64571 0
M  V30 2029 N 195.109 -0.891671 -1.2995 0
M  V30 2030 C 196.358 -0.509521 -1.95158 0
M  V30 2031 C 196.671 0.947388 -1.71125 0
M  V30 2032 O 197.877 1.43669 -2.30372 0
M  V30 2033 C 196.333 -0.860315 -3.49466 0
M  V30 2034 C 195.941 -2.33545 -3.8231 0
M  V30 2035 C 197.685 -0.547687 -4.20952 0
M  V30 2036 C 195.592 -2.62752 -5.29826 0
M  V30 2037 H 194.522 -0.18682 -0.730489 0
M  V30 2038 H 197.173 -1.08756 -1.47798 0
M  V30 2039 H 195.555 -0.211285 -3.95436 0
M  V30 2040 H 196.729 -3.02936 -3.47227 0
M  V30 2041 H 195.044 -2.61629 -3.23944 0
M  V30 2042 H 197.641 -0.742854 -5.29515 0
M  V30 2043 H 197.984 0.51332 -4.13123 0
M  V30 2044 H 198.517 -1.1542 -3.80688 0
M  V30 2045 H 195.256 -3.6762 -5.42712 0
M  V30 2046 H 194.776 -1.97977 -5.66185 0
M  V30 2047 H 196.455 -2.48601 -5.97333 0
M  V30 2048 N 196.587 1.43421 -0.653314 0
M  V30 2049 C 197.998 1.85065 -0.246537 0
M  V30 2050 C 198.349 1.54688 1.2069 0
M  V30 2051 O 197.474 0.995896 1.92122 0
M  V30 2052 C 198.069 3.35922 -0.440666 0
M  V30 2053 C 196.628 3.76297 -0.0882064 0
M  V30 2054 C 195.775 2.67147 -0.743484 0
M  V30 2055 H 198.726 1.33572 -0.856979 0
M  V30 2056 H 198.747 3.79204 0.313798 0
M  V30 2057 H 198.259 3.58 -1.49858 0
M  V30 2058 H 196.36 3.5983 0.96711 0
M  V30 2059 H 196.473 4.76338 -0.513738 0
M  V30 2060 H 194.837 2.54086 -0.176712 0
M  V30 2061 H 195.62 2.92053 -1.80443 0
M  V30 2062 N 198.065 0.39524 1.52563 0
M  V30 2063 C 199.29 -0.187456 2.06551 0
M  V30 2064 C 199.715 -1.39249 1.26457 0
M  V30 2065 O 199.073 -1.78947 0.291151 0
M  V30 2066 C 199.121 -0.529985 3.56684 0
M  V30 2067 O 198.225 -1.62307 3.79118 0
M  V30 2068 H 197.566 -0.0202537 0.663691 0
M  V30 2069 H 200.096 0.564426 1.96661 0
M  V30 2070 H 200.106 -0.792598 4.00227 0
M  V30 2071 H 198.781 0.350987 4.14416 0
M  V30 2072 H 197.358 -1.3537 3.47461 0
M  V30 2073 N 199.544 -1.57102 0.125237 0
M  V30 2074 C 200.79 -1.96488 -0.525753 0
M  V30 2075 C 201.145 -1.00786 -1.6389 0
M  V30 2076 O 200.438 -0.038979 -1.9156 0
M  V30 2077 C 200.632 -3.40096 -1.09862 0
M  V30 2078 C 200.461 -4.4968 -0.0425004 0
M  V30 2079 C 199.231 -5.03781 0.391463 0
M  V30 2080 C 201.429 -5.08936 0.740829 0
M  V30 2081 N 199.411 -5.96948 1.4327 0
M  V30 2082 C 200.782 -5.98105 1.6331 0
M  V30 2083 C 202.837 -4.91576 0.791029 0
M  V30 2084 C 201.54 -6.71774 2.57122 0
M  V30 2085 C 203.566 -5.6593 1.71688 0
M  V30 2086 C 202.928 -6.5479 2.59672 0
M  V30 2087 H 199.027 -0.765072 -0.161831 0
M  V30 2088 H 201.611 -1.93511 0.214801 0
M  V30 2089 H 199.782 -3.43707 -1.80887 0
M  V30 2090 H 201.514 -3.66591 -1.71444 0
M  V30 2091 H 198.269 -4.736 -0.00213584 0
M  V30 2092 H 198.693 -6.48236 1.95243 0
M  V30 2093 H 203.335 -4.22615 0.124915 0
M  V30 2094 H 201.053 -7.39977 3.24744 0
M  V30 2095 H 204.639 -5.54501 1.76125 0
M  V30 2096 H 203.519 -7.11316 3.30149 0
M  V30 2097 N 201.022 0.148545 -1.56898 0
M  V30 2098 C 201.985 1.16736 -1.97244 0
M  V30 2099 C 202.985 1.35947 -0.858777 0
M  V30 2100 O 204.175 1.32966 -1.12542 0
M  V30 2101 C 201.307 2.52798 -2.28705 0
M  V30 2102 H 202.5 0.821279 -2.88435 0
M  V30 2103 H 200.053 0.391831 -1.51309 0
M  V30 2104 H 200.788 2.92381 -1.403 0
M  V30 2105 H 200.573 2.40216 -3.09901 0
M  V30 2106 H 202.063 3.26179 -2.60762 0
M  V30 2107 N 202.5 1.5196 0.417844 0
M  V30 2108 C 203.728 1.69426 1.18753 0
M  V30 2109 C 204.143 0.399955 1.84515 0
M  V30 2110 O 203.5 -0.623288 1.71527 0
M  V30 2111 C 203.551 2.82375 2.25714 0
M  V30 2112 O 203.272 4.06793 1.62638 0
M  V30 2113 C 204.773 3.11277 3.15628 0
M  V30 2114 H 201.993 0.568031 0.357186 0
M  V30 2115 H 204.537 1.98475 0.49273 0
M  V30 2116 H 202.692 2.5587 2.90877 0
M  V30 2117 H 203.106 4.69667 2.3348 0
M  V30 2118 H 204.58 3.93843 3.86771 0
M  V30 2119 H 205.057 2.24473 3.77503 0
M  V30 2120 H 205.663 3.39515 2.56144 0
M  V30 2121 N 203.978 -0.674533 1.42435 0
M  V30 2122 C 204.908 -1.80009 1.48724 0
M  V30 2123 C 205.889 -1.6659 0.343793 0
M  V30 2124 O 207.074 -1.86007 0.558137 0
M  V30 2125 C 204.204 -3.18306 1.38919 0
M  V30 2126 C 203.158 -3.46461 2.51294 0
M  V30 2127 C 202.484 -4.84335 2.26547 0
M  V30 2128 C 203.784 -3.43328 3.93603 0
M  V30 2129 H 205.478 -1.75004 2.42928 0
M  V30 2130 H 203.024 -0.840533 1.16923 0
M  V30 2131 H 204.977 -3.9678 1.41927 0
M  V30 2132 H 203.701 -3.2399 0.412094 0
M  V30 2133 H 202.36 -2.70348 2.47604 0
M  V30 2134 H 202.008 -4.86669 1.2713 0
M  V30 2135 H 201.708 -5.04136 3.01861 0
M  V30 2136 H 203.232 -5.65094 2.31304 0
M  V30 2137 H 204.646 -4.11772 3.98894 0
M  V30 2138 H 203.043 -3.74664 4.68771 0
M  V30 2139 H 204.113 -2.41897 4.20255 0
M  V30 2140 N 205.456 -1.28612 -0.910864 0
M  V30 2141 C 206.681 -1.1891 -1.69927 0
M  V30 2142 C 207.106 0.248372 -1.86453 0
M  V30 2143 O 206.464 1.17961 -1.37676 0
M  V30 2144 C 206.512 -1.89578 -3.06745 0
M  V30 2145 O 205.616 -1.20521 -3.94396 0
M  V30 2146 H 204.957 -0.412632 -0.520222 0
M  V30 2147 H 207.487 -1.69985 -1.1387 0
M  V30 2148 H 207.497 -1.97597 -3.56958 0
M  V30 2149 H 206.172 -2.94136 -2.94035 0
M  V30 2150 H 204.749 -1.20684 -3.52831 0
M  V30 2151 N 206.934 1.1197 -1.10907 0
M  V30 2152 C 207.897 2.16031 -0.765707 0
M  V30 2153 C 208.897 1.59393 0.212235 0
M  V30 2154 O 210.087 1.74196 -0.0115441 0
M  V30 2155 C 207.219 3.40632 -0.135053 0
M  V30 2156 H 208.412 2.47919 -1.68748 0
M  V30 2157 H 205.965 1.27061 -0.910226 0
M  V30 2158 H 206.7 3.14348 0.797218 0
M  V30 2159 H 206.485 3.8302 -0.838937 0
M  V30 2160 H 207.975 4.17505 0.0892469 0
M  V30 2161 N 208.412 0.89855 1.29475 0
M  V30 2162 C 209.637 0.538561 2.00285 0
M  V30 2163 C 210.062 -0.869135 1.66816 0
M  V30 2164 O 209.42 -1.57831 0.892145 0
M  V30 2165 C 209.468 0.736475 3.52999 0
M  V30 2166 O 208.572 -0.211537 4.11857 0
M  V30 2167 H 207.913 0.210563 0.62973 0
M  V30 2168 H 210.443 1.20982 1.64998 0
M  V30 2169 H 210.453 0.640685 4.02938 0
M  V30 2170 H 209.128 1.76276 3.76696 0
M  V30 2171 H 207.705 -0.0682991 3.72837 0
M  V30 2172 N 209.89 -1.43072 0.660911 0
M  V30 2173 C 210.822 -2.29108 -0.0647641 0
M  V30 2174 C 211.835 -1.42928 -0.779448 0
M  V30 2175 O 213.024 -1.66788 -0.635921 0
M  V30 2176 C 210.124 -3.20032 -1.11503 0
M  V30 2177 C 209.297 -4.34792 -0.476955 0
M  V30 2178 C 208.356 -5.06534 -1.42513 0
M  V30 2179 O 207.382 -5.61538 -0.930771 0
M  V30 2180 N 208.584 -5.1075 -2.75889 0
M  V30 2181 H 211.349 -2.92029 0.673731 0
M  V30 2182 H 208.91 -1.53846 0.50427 0
M  V30 2183 H 210.902 -3.64892 -1.75032 0
M  V30 2184 H 209.472 -2.58658 -1.75541 0
M  V30 2185 H 208.692 -3.92752 0.337572 0
M  V30 2186 H 209.98 -5.0879 -0.0318525 0
M  V30 2187 H 209.378 -4.67447 -3.18606 0
M  V30 2188 H 207.935 -5.59302 -3.347 0
M  V30 2189 N 211.368 -0.403325 -1.52352 0
M  V30 2190 C 212.298 0.416205 -2.29761 0
M  V30 2191 C 213.279 1.05123 -1.33728 0
M  V30 2192 O 214.464 1.06134 -1.62632 0
M  V30 2193 C 211.594 1.53624 -3.11475 0
M  V30 2194 C 210.548 1.02653 -4.15507 0
M  V30 2195 C 209.874 2.23971 -4.85532 0
M  V30 2196 C 211.174 0.08463 -5.22231 0
M  V30 2197 H 212.868 -0.229701 -2.98518 0
M  V30 2198 H 210.414 -0.111913 -1.43564 0
M  V30 2199 H 212.367 2.1165 -3.64393 0
M  V30 2200 H 211.091 2.20994 -2.40477 0
M  V30 2201 H 209.75 0.46871 -3.63591 0
M  V30 2202 H 209.398 2.89883 -4.11068 0
M  V30 2203 H 209.098 1.90521 -5.55856 0
M  V30 2204 H 210.622 2.82614 -5.41259 0
M  V30 2205 H 212.036 0.573509 -5.70424 0
M  V30 2206 H 210.433 -0.160783 -5.99885 0
M  V30 2207 H 211.503 -0.86237 -4.7717 0
M  V30 2208 N 212.846 1.57033 -0.133567 0
M  V30 2209 C 213.809 2.14897 0.796995 0
M  V30 2210 C 214.809 1.0874 1.18458 0
M  V30 2211 O 215.999 1.34446 1.1077 0
M  V30 2212 C 213.131 2.70112 2.07973 0
M  V30 2213 H 214.324 2.98457 0.293873 0
M  V30 2214 H 211.877 1.55871 0.115787 0
M  V30 2215 H 212.612 1.9018 2.62682 0
M  V30 2216 H 212.397 3.47764 1.81115 0
M  V30 2217 H 213.887 3.14738 2.74462 0
M  V30 2218 N 214.325 -0.140222 1.56975 0
M  V30 2219 C 215.741 -0.493088 1.51792 0
M  V30 2220 C 215.941 -1.83013 0.843116 0
M  V30 2221 O 214.997 -2.49041 0.416493 0
M  V30 2222 C 216.31 -0.497144 2.96562 0
M  V30 2223 C 217.858 -0.582186 3.07538 0
M  V30 2224 C 218.333 -0.616838 4.53827 0
M  V30 2225 N 219.824 -0.678873 4.58198 0
M  V30 2226 C 220.559 -0.726782 5.68775 0
M  V30 2227 N 220.055 -0.733623 6.88905 0
M  V30 2228 N 221.848 -0.768179 5.56826 0
M  V30 2229 H 213.999 0.736108 1.99237 0
M  V30 2230 H 216.262 0.269182 0.90898 0
M  V30 2231 H 215.968 0.417217 3.49217 0
M  V30 2232 H 215.842 -1.33263 3.52875 0
M  V30 2233 H 218.229 -1.48697 2.54899 0
M  V30 2234 H 218.31 0.280581 2.54257 0
M  V30 2235 H 217.954 0.283812 5.07106 0
M  V30 2236 H 217.884 -1.49619 5.04898 0
M  V30 2237 H 220.375 -0.68061 3.7172 0
M  V30 2238 H 220.688 -0.772215 7.68932 0
M  V30 2239 H 219.033 -0.701389 6.91452 0
M  V30 2240 H 222.224 -0.760051 4.61888 0
M  V30 2241 H 222.397 -0.80205 6.43017 0
M  V30 2242 N 215.803 -1.52179 -0.40978 0
M  V30 2243 C 216.766 -1.74853 -1.48186 0
M  V30 2244 C 217.766 -0.618417 -1.48433 0
M  V30 2245 O 218.956 -0.886286 -1.49969 0
M  V30 2246 C 216.088 -1.8303 -2.87598 0
M  V30 2247 H 217.281 -2.70559 -1.29374 0
M  V30 2248 H 214.834 -1.42586 -0.640233 0
M  V30 2249 H 215.569 -0.89236 -3.11781 0
M  V30 2250 H 215.354 -2.65187 -2.88822 0
M  V30 2251 H 216.844 -2.02316 -3.65319 0
M  V30 2252 N 217.281 0.66697 -1.42791 0
M  V30 2253 C 218.213 1.7925 -1.42836 0
M  V30 2254 C 219.226 1.59496 -0.326333 0
M  V30 2255 O 220.415 1.6847 -0.589916 0
M  V30 2256 C 217.515 3.16476 -1.21229 0
M  V30 2257 C 216.688 3.63011 -2.44013 0
M  V30 2258 C 215.747 4.78993 -2.17834 0
M  V30 2259 O 214.773 4.89137 -2.91091 0
M  V30 2260 N 215.975 5.68248 -1.18635 0
M  V30 2261 H 218.74 1.79695 -2.39854 0
M  V30 2262 H 216.301 0.850338 -1.37771 0
M  V30 2263 H 218.293 3.91734 -1.01621 0
M  V30 2264 H 216.863 3.10884 -0.32706 0
M  V30 2265 H 216.083 2.78346 -2.79137 0
M  V30 2266 H 217.371 3.90845 -3.25757 0
M  V30 2267 H 216.769 5.62712 -0.580615 0
M  V30 2268 H 215.326 6.43285 -1.05013 0
M  V30 2269 N 218.759 1.29093 0.90403 0
M  V30 2270 C 219.706 1.13853 2.00764 0
M  V30 2271 C 220.676 0.0330084 1.66067 0
M  V30 2272 O 221.861 0.199733 1.89752 0
M  V30 2273 C 219.001 0.816537 3.35301 0
M  V30 2274 C 218.114 2.00206 3.82807 0
M  V30 2275 C 217.249 1.61983 5.059 0
M  V30 2276 C 216.288 2.77143 5.45764 0
M  V30 2277 N 215.425 2.39346 6.60044 0
M  V30 2278 H 220.265 2.08276 2.13132 0
M  V30 2279 H 217.802 1.03648 1.04381 0
M  V30 2280 H 219.76 0.610557 4.12708 0
M  V30 2281 H 218.39 -0.090779 3.22672 0
M  V30 2282 H 217.442 2.31988 3.01473 0
M  V30 2283 H 218.754 2.86512 4.08304 0
M  V30 2284 H 217.908 1.37649 5.90879 0
M  V30 2285 H 216.647 0.728202 4.82233 0
M  V30 2286 H 215.652 3.02165 4.59322 0
M  V30 2287 H 216.877 3.66964 5.71414 0
M  V30 2288 H 214.823 1.52665 6.37989 0
M  V30 2289 H 214.74 3.19185 6.85315 0
M  V30 2290 H 216.008 2.1832 7.48303 0
M  V30 2291 N 220.237 -1.11381 1.11499 0
M  V30 2292 C 221.169 -2.17207 0.731704 0
M  V30 2293 C 222.182 -1.61066 -0.236957 0
M  V30 2294 O 223.371 -1.78489 -0.0197591 0
M  V30 2295 C 220.471 -3.38846 0.0607624 0
M  V30 2296 C 219.644 -4.24451 1.0564 0
M  V30 2297 C 218.703 -5.24562 0.4149 0
M  V30 2298 O 217.729 -5.59071 1.069 0
M  V30 2299 N 218.931 -5.74651 -0.821943 0
M  V30 2300 H 221.696 -2.50699 1.64225 0
M  V30 2301 H 219.257 -1.26908 1.00529 0
M  V30 2302 H 221.249 -4.02911 -0.380139 0
M  V30 2303 H 219.819 -3.03411 -0.752376 0
M  V30 2304 H 219.039 -3.56833 1.67524 0
M  V30 2305 H 220.327 -4.78486 1.72998 0
M  V30 2306 H 219.725 -5.48797 -1.37252 0
M  V30 2307 H 218.282 -6.40549 -1.20582 0
M  V30 2308 N 221.715 -0.905404 -1.28997 0
M  V30 2309 C 222.943 -0.549846 -1.9946 0
M  V30 2310 C 223.358 0.866834 -1.67724 0
M  V30 2311 O 222.715 1.57298 -0.925404 0
M  V30 2312 C 222.766 -0.739387 -3.53858 0
M  V30 2313 O 222.487 -2.10031 -3.84472 0
M  V30 2314 C 223.988 -0.389541 -4.41585 0
M  V30 2315 H 221.208 -0.210429 -0.637151 0
M  V30 2316 H 223.752 -1.21632 -1.64396 0
M  V30 2317 H 221.907 -0.120023 -3.87214 0
M  V30 2318 H 222.321 -2.13385 -4.79132 0
M  V30 2319 H 223.795 -0.572972 -5.49018 0
M  V30 2320 H 224.272 0.673756 -4.34001 0
M  V30 2321 H 224.878 -0.986089 -4.1371 0
M  V30 2322 N 223.193 1.4272 -0.668489 0
M  V30 2323 C 224.604 1.84793 -0.266151 0
M  V30 2324 C 224.955 1.55959 1.19043 0
M  V30 2325 O 224.08 1.01622 1.91055 0
M  V30 2326 C 224.675 3.35436 -0.476271 0
M  V30 2327 C 223.234 3.76182 -0.128113 0
M  V30 2328 C 222.381 2.66344 -0.771777 0
M  V30 2329 H 225.332 1.32656 -0.871098 0
M  V30 2330 H 225.353 3.79515 0.273561 0
M  V30 2331 H 224.865 3.5639 -1.53647 0
M  V30 2332 H 222.966 3.60836 0.928891 0
M  V30 2333 H 223.079 4.75766 -0.564231 0
M  V30 2334 H 221.443 2.53885 -0.203652 0
M  V30 2335 H 222.226 2.90123 -1.83531 0
M  V30 2336 N 224.671 0.411399 1.52136 0
M  V30 2337 C 225.604 -0.457614 2.23565 0
M  V30 2338 C 226.582 -1.04613 1.24478 0
M  V30 2339 O 227.766 -1.09356 1.53536 0
M  V30 2340 C 224.893 -1.6354 2.96602 0
M  V30 2341 C 223.939 -1.17005 4.10137 0
M  V30 2342 S 224.772 -0.13333 5.35334 0
M  V30 2343 C 225.928 -1.31638 6.119 0
M  V30 2344 H 226.161 0.148883 2.96927 0
M  V30 2345 H 223.694 0.195713 1.53155 0
M  V30 2346 H 225.652 -2.31074 3.39286 0
M  V30 2347 H 224.313 -2.21324 2.22878 0
M  V30 2348 H 223.506 -2.05005 4.60422 0
M  V30 2349 H 223.108 -0.573319 3.6958 0
M  V30 2350 H 225.4 -2.23957 6.39413 0
M  V30 2351 H 226.343 -0.854014 7.02931 0
M  V30 2352 H 226.751 -1.54321 5.42997 0
M  V30 2353 N 226.149 -1.5696 0.141893 0
M  V30 2354 C 227.112 -2.15316 -0.785587 0
M  V30 2355 C 228.112 -1.09366 -1.1788 0
M  V30 2356 O 229.302 -1.35031 -1.10056 0
M  V30 2357 C 226.434 -2.71211 -2.06537 0
M  V30 2358 H 227.627 -2.98608 -0.278041 0
M  V30 2359 H 225.18 -1.5593 -0.107519 0
M  V30 2360 H 225.915 -1.91571 -2.6167 0
M  V30 2361 H 225.7 -3.4872 -1.79268 0
M  V30 2362 H 227.19 -3.16189 -2.72789 0
M  V30 2363 N 227.627 0.131896 -1.57047 0
M  V30 2364 C 228.852 0.860418 -1.8871 0
M  V30 2365 C 229.277 1.73251 -0.73251 0
M  V30 2366 O 228.635 1.785 0.317429 0
M  V30 2367 C 228.683 1.68047 -3.19049 0
M  V30 2368 O 227.787 2.7862 -3.04047 0
M  V30 2369 H 227.128 0.238743 -0.619595 0
M  V30 2370 H 229.658 0.118169 -2.04258 0
M  V30 2371 H 229.668 2.07238 -3.51449 0
M  V30 2372 H 228.343 1.04018 -4.02682 0
M  V30 2373 H 226.92 2.42726 -2.83088 0
M  V30 2374 N 229.106 1.52395 0.401703 0
M  V30 2375 C 230.331 1.70972 1.17403 0
M  V30 2376 C 230.756 0.421615 1.83314 0
M  V30 2377 O 230.114 -0.621564 1.70312 0
M  V30 2378 C 230.162 2.85151 2.20728 0
M  V30 2379 O 229.266 2.51238 3.27037 0
M  V30 2380 H 228.607 0.568927 0.342372 0
M  V30 2381 H 231.137 1.99131 0.469891 0
M  V30 2382 H 231.147 3.10279 2.64936 0
M  V30 2383 H 229.822 3.78603 1.7214 0
M  V30 2384 H 228.399 2.36808 2.88057 0
M  V30 2385 N 230.584 -0.659388 1.43143 0
M  V30 2386 C 231.995 -1.24041 1.39537 0
M  V30 2387 C 232.346 -1.95963 0.0963364 0
M  V30 2388 O 231.471 -2.00892 -0.804438 0
M  V30 2389 C 232.066 -2.25601 2.52764 0
M  V30 2390 C 230.625 -2.79195 2.52443 0
M  V30 2391 C 229.772 -1.53743 2.30778 0
M  V30 2392 H 232.723 -0.451792 1.52133 0
M  V30 2393 H 232.744 -3.07651 2.23899 0
M  V30 2394 H 232.256 -1.73226 3.47296 0
M  V30 2395 H 230.357 -3.35649 1.61773 0
M  V30 2396 H 230.47 -3.2716 3.50004 0
M  V30 2397 H 228.834 -1.80869 1.79328 0
M  V30 2398 H 229.617 -1.03312 3.27386 0
M  V30 2399 N 232.062 -1.29571 -0.897171 0
M  V30 2400 C 233.478 -1.07637 -1.17841 0
M  V30 2401 C 233.678 0.170713 -2.00776 0
M  V30 2402 O 232.734 0.867768 -2.3712 0
M  V30 2403 C 234.047 -2.3332 -1.8969 0
M  V30 2404 C 235.595 -2.38664 -2.02505 0
M  V30 2405 C 236.07 -3.64157 -2.77765 0
M  V30 2406 N 237.561 -3.64894 -2.85318 0
M  V30 2407 C 238.296 -4.58679 -3.44094 0
M  V30 2408 N 237.792 -5.62799 -4.04017 0
M  V30 2409 N 239.585 -4.46245 -3.41793 0
M  V30 2410 H 231.736 -2.09598 -0.343883 0
M  V30 2411 H 233.999 -0.923333 -0.214848 0
M  V30 2412 H 233.705 -3.24262 -1.36187 0
M  V30 2413 H 233.579 -2.41025 -2.9015 0
M  V30 2414 H 235.966 -1.48208 -2.55183 0
M  V30 2415 H 236.047 -2.34943 -1.01171 0
M  V30 2416 H 235.691 -4.54965 -2.25763 0
M  V30 2417 H 235.621 -3.65137 -3.7945 0
M  V30 2418 H 238.112 -2.89613 -2.42761 0
M  V30 2419 H 238.425 -6.3048 -4.46895 0
M  V30 2420 H 236.77 -5.66605 -4.02472 0
M  V30 2421 H 239.961 -3.64094 -2.94199 0
M  V30 2422 H 240.134 -5.19518 -3.87304 0
M  V30 2423 N 233.54 1.10788 -1.12088 0
M  V30 2424 C 234.951 1.64181 -0.88891 0
M  V30 2425 C 235.302 1.87508 0.577498 0
M  V30 2426 O 234.427 1.61434 1.44112 0
M  V30 2427 C 235.022 2.98257 -1.60712 0
M  V30 2428 C 233.581 3.4853 -1.42139 0
M  V30 2429 C 232.728 2.23208 -1.6454 0
M  V30 2430 H 235.679 0.943368 -1.27618 0
M  V30 2431 H 235.7 3.65552 -1.05604 0
M  V30 2432 H 235.212 2.81246 -2.67436 0
M  V30 2433 H 233.313 3.70692 -0.376552 0
M  V30 2434 H 233.426 4.26882 -2.17505 0
M  V30 2435 H 231.79 2.31169 -1.06925 0
M  V30 2436 H 232.573 2.08733 -2.72554 0
M  V30 2437 N 235.018 0.912232 1.28515 0
M  V30 2438 C 235.965 0.397954 2.27343 0
M  V30 2439 C 236.935 -0.526766 1.57526 0
M  V30 2440 O 238.12 -0.449292 1.85435 0
M  V30 2441 C 235.26 -0.357263 3.43246 0
M  V30 2442 C 234.373 0.599788 4.27816 0
M  V30 2443 C 233.508 -0.173725 5.30916 0
M  V30 2444 C 232.547 0.777039 6.07148 0
M  V30 2445 N 231.684 0.0371398 7.0209 0
M  V30 2446 H 236.524 1.24577 2.70711 0
M  V30 2447 H 234.061 0.625612 1.33133 0
M  V30 2448 H 236.019 -0.8113 4.09236 0
M  V30 2449 H 234.649 -1.16943 3.00872 0
M  V30 2450 H 233.701 1.17235 3.61884 0
M  V30 2451 H 235.013 1.32704 4.80823 0
M  V30 2452 H 234.167 -0.688394 6.02782 0
M  V30 2453 H 232.906 -0.934041 4.78672 0
M  V30 2454 H 231.911 1.3031 5.34134 0
M  V30 2455 H 233.136 1.53689 6.61481 0
M  V30 2456 H 231.082 -0.705213 6.52198 0
M  V30 2457 H 230.999 0.704249 7.52713 0
M  V30 2458 H 232.267 -0.457383 7.78157 0
M  V30 2459 N 236.496 -1.42363 0.676048 0
M  V30 2460 C 237.429 -2.28141 -0.0516916 0
M  V30 2461 C 238.407 -1.41135 -0.807439 0
M  V30 2462 O 239.591 -1.70573 -0.802305 0
M  V30 2463 C 236.718 -3.21007 -1.08039 0
M  V30 2464 C 235.764 -4.24426 -0.420076 0
M  V30 2465 S 236.597 -5.29134 0.823246 0
M  V30 2466 C 237.753 -6.25566 -0.204344 0
M  V30 2467 H 237.986 -2.89515 0.675884 0
M  V30 2468 H 235.519 -1.47211 0.465635 0
M  V30 2469 H 237.477 -3.75048 -1.66881 0
M  V30 2470 H 236.138 -2.58766 -1.78042 0
M  V30 2471 H 235.331 -4.89596 -1.19633 0
M  V30 2472 H 234.933 -3.7388 0.0947845 0
M  V30 2473 H 237.225 -6.69098 -1.06369 0
M  V30 2474 H 238.168 -7.06895 0.412915 0
M  V30 2475 H 238.576 -5.61811 -0.55038 0
M  V30 2476 N 237.974 -0.419461 -1.51915 0
M  V30 2477 C 239.251 0.211999 -1.94448 0
M  V30 2478 C 239.631 1.61703 -1.35703 0
M  V30 2479 O 238.979 2.22102 -0.536931 0
M  V30 2480 C 239.189 0.207872 -3.4838 0
M  V30 2481 C 240.537 0.422192 -4.22496 0
M  V30 2482 O 241.561 0.286778 -3.55044 0
M  V30 2483 O 240.42 0.690009 -5.42126 0
M  V30 2484 H 237.514 0.139586 -0.815135 0
M  V30 2485 H 240.06 -0.476151 -1.62883 0
M  V30 2486 H 238.832 -0.775102 -3.83546 0
M  V30 2487 H 238.455 0.939688 -3.86336 0
M  V30 2488 N 239.452 1.56882 -0.150215 0
M  V30 2489 C 240.415 2.1573 0.774157 0
M  V30 2490 C 241.415 1.0999 1.17298 0
M  V30 2491 O 242.605 1.35613 1.09338 0
M  V30 2492 C 239.737 2.72302 2.05096 0
M  V30 2493 H 240.93 2.98752 0.262201 0
M  V30 2494 H 238.483 1.55985 0.099248 0
M  V30 2495 H 239.218 1.92956 2.6065 0
M  V30 2496 H 239.003 3.49665 1.77416 0
M  V30 2497 H 240.493 3.17632 2.71109 0
M  V30 2498 N 240.93 -0.123565 1.57115 0
M  V30 2499 C 242.179 -0.830704 1.83799 0
M  V30 2500 C 242.492 -1.81259 0.735158 0
M  V30 2501 O 243.698 -2.56558 0.888278 0
M  V30 2502 C 242.154 -1.52802 3.25852 0
M  V30 2503 C 241.762 -0.587356 4.44133 0
M  V30 2504 C 243.506 -2.22056 3.61789 0
M  V30 2505 C 241.413 -1.28764 5.77212 0
M  V30 2506 H 240.343 -0.313967 0.685522 0
M  V30 2507 H 242.994 -0.0834359 1.8331 0
M  V30 2508 H 241.376 -2.32175 3.20797 0
M  V30 2509 H 242.55 0.172829 4.60476 0
M  V30 2510 H 240.865 -0.00201892 4.164 0
M  V30 2511 H 243.462 -2.75131 4.58483 0
M  V30 2512 H 243.805 -2.99644 2.88997 0
M  V30 2513 H 244.338 -1.49576 3.68608 0
M  V30 2514 H 241.077 -0.55314 6.53162 0
M  V30 2515 H 240.597 -2.01995 5.64764 0
M  V30 2516 H 242.276 -1.8221 6.20813 0
M  V30 2517 N 242.408 -1.52605 -0.393616 0
M  V30 2518 C 243.338 -1.80022 -1.48709 0
M  V30 2519 C 244.319 -0.651995 -1.57108 0
M  V30 2520 O 245.504 -0.89913 -1.72132 0
M  V30 2521 C 242.634 -1.96492 -2.86371 0
M  V30 2522 C 241.588 -3.12161 -2.92813 0
M  V30 2523 C 240.914 -3.13877 -4.3288 0
M  V30 2524 C 242.214 -4.51322 -2.6288 0
M  V30 2525 H 243.908 -2.71589 -1.26015 0
M  V30 2526 H 241.454 -1.30684 -0.604778 0
M  V30 2527 H 243.407 -2.14255 -3.62867 0
M  V30 2528 H 242.131 -1.01611 -3.10391 0
M  V30 2529 H 240.79 -2.94173 -2.18764 0
M  V30 2530 H 240.438 -2.16687 -4.53933 0
M  V30 2531 H 240.138 -3.91576 -4.38112 0
M  V30 2532 H 241.662 -3.33789 -5.1129 0
M  V30 2533 H 243.076 -4.69435 -3.29096 0
M  V30 2534 H 241.473 -5.31053 -2.79468 0
M  V30 2535 H 242.543 -4.58353 -1.58242 0
M  V30 2536 N 243.887 0.651787 -1.4349 0
M  V30 2537 C 245.115 1.43937 -1.48626 0
M  V30 2538 C 245.53 1.8851 -0.104587 0
M  V30 2539 O 244.887 1.5958 0.885464 0
M  V30 2540 C 244.938 2.6734 -2.43334 0
M  V30 2541 O 244.659 2.24631 -3.76128 0
M  V30 2542 C 246.16 3.60683 -2.57726 0
M  V30 2543 H 243.38 0.44213 -0.504739 0
M  V30 2544 H 245.924 0.798944 -1.88248 0
M  V30 2545 H 244.079 3.2752 -2.06904 0
M  V30 2546 H 244.493 3.04485 -4.2707 0
M  V30 2547 H 245.967 4.43933 -3.28067 0
M  V30 2548 H 246.444 4.08126 -1.62265 0
M  V30 2549 H 247.05 3.06384 -2.94973 0
M  V30 2550 N 245.365 1.30045 0.890287 0
M  V30 2551 C 246.275 1.17885 2.02831 0
M  V30 2552 C 247.291 0.0999609 1.73713 0
M  V30 2553 O 248.467 0.313867 1.98939 0
M  V30 2554 C 245.532 0.866079 3.35708 0
M  V30 2555 C 244.593 2.02979 3.78283 0
M  V30 2556 C 243.826 1.73184 5.0482 0
M  V30 2557 O 244.049 0.657237 5.66601 0
M  V30 2558 O 242.983 2.58267 5.43674 0
M  V30 2559 H 246.809 2.13474 2.16015 0
M  V30 2560 H 244.394 1.09587 1.01543 0
M  V30 2561 H 246.276 0.706623 4.15433 0
M  V30 2562 H 244.951 -0.0599443 3.23644 0
M  V30 2563 H 243.858 2.24454 2.99285 0
M  V30 2564 H 245.191 2.93734 3.94944 0
M  V30 2565 N 246.843 -1.10192 1.12674 0
M  V30 2566 C 247.806 -2.14786 0.799979 0
M  V30 2567 C 248.806 -1.59711 -0.18685 0
M  V30 2568 O 249.996 -1.74156 0.0392558 0
M  V30 2569 C 247.128 -3.40374 0.189228 0
M  V30 2570 H 248.321 -2.45203 1.72671 0
M  V30 2571 H 245.874 -1.25597 0.930326 0
M  V30 2572 H 246.609 -3.15577 -0.747107 0
M  V30 2573 H 246.394 -3.81637 0.899766 0
M  V30 2574 H 247.884 -4.17594 -0.0228143 0
M  V30 2575 N 248.321 -0.919034 -1.28029 0
M  V30 2576 C 249.57 -0.550802 -1.94034 0
M  V30 2577 C 249.883 0.910877 -1.73096 0
M  V30 2578 O 251.089 1.3875 -2.33368 0
M  V30 2579 C 249.545 -0.934249 -3.47563 0
M  V30 2580 C 249.153 -2.41602 -3.7727 0
M  V30 2581 C 250.897 -0.636854 -4.19696 0
M  V30 2582 C 248.804 -2.73932 -5.24133 0
M  V30 2583 H 247.734 -0.202273 -0.726362 0
M  V30 2584 H 250.385 -1.11867 -1.45458 0
M  V30 2585 H 248.767 -0.295115 -3.94899 0
M  V30 2586 H 249.941 -3.10233 -3.40723 0
M  V30 2587 H 248.256 -2.68441 -3.18321 0
M  V30 2588 H 250.853 -0.855005 -5.2782 0
M  V30 2589 H 251.196 0.425575 -4.14119 0
M  V30 2590 H 251.729 -1.23469 -3.78154 0
M  V30 2591 H 248.468 -3.79049 -5.34792 0
M  V30 2592 H 247.988 -2.09942 -5.61858 0
M  V30 2593 H 249.667 -2.61215 -5.91925 0
M  V30 2594 N 249.799 1.42003 -0.683588 0
M  V30 2595 C 250.746 2.30798 -0.0107309 0
M  V30 2596 C 251.716 1.4645 0.783688 0
M  V30 2597 O 252.901 1.75263 0.754156 0
M  V30 2598 C 250.041 3.3238 0.928306 0
M  V30 2599 C 249.154 4.31814 0.126776 0
M  V30 2600 C 248.289 5.20468 1.06236 0
M  V30 2601 C 247.328 6.11577 0.253035 0
M  V30 2602 N 246.465 6.92754 1.14179 0
M  V30 2603 H 251.305 2.8778 -0.773727 0
M  V30 2604 H 248.842 1.41745 -0.393283 0
M  V30 2605 H 250.8 3.89813 1.48666 0
M  V30 2606 H 249.43 2.76976 1.65783 0
M  V30 2607 H 248.482 3.76427 -0.54833 0
M  V30 2608 H 249.794 4.96276 -0.501192 0
M  V30 2609 H 248.948 5.82677 1.69035 0
M  V30 2610 H 247.687 4.56204 1.7242 0
M  V30 2611 H 246.692 5.48428 -0.388108 0
M  V30 2612 H 247.917 6.77892 -0.404839 0
M  V30 2613 H 245.863 6.3111 1.78987 0
M  V30 2614 H 245.78 7.53855 0.569111 0
M  V30 2615 H 247.048 7.59441 1.75697 0
M  V30 2616 N 251.277 0.427512 1.51691 0
M  V30 2617 C 252.24 -0.377132 2.26076 0
M  V30 2618 C 253.24 -0.958089 1.29141 0
M  V30 2619 O 254.43 -0.83408 1.52934 0
M  V30 2620 C 251.562 -1.53262 3.04506 0
M  V30 2621 H 252.755 0.27464 2.9864 0
M  V30 2622 H 250.308 0.180445 1.55255 0
M  V30 2623 H 251.043 -2.22072 2.36335 0
M  V30 2624 H 250.828 -1.12232 3.75694 0
M  V30 2625 H 252.318 -2.10135 3.60878 0
M  V30 2626 N 252.755 -1.56801 0.158532 0
M  V30 2627 C 253.995 -1.98383 -0.49229 0
M  V30 2628 C 254.359 -1.04184 -1.61275 0
M  V30 2629 O 255.56 -1.34856 -2.32524 0
M  V30 2630 C 253.831 -3.4385 -0.974766 0
M  V30 2631 S 255.39 -4.07459 -1.62857 0
M  V30 2632 H 252.208 -0.693041 -0.158794 0
M  V30 2633 H 254.81 -1.93856 0.252974 0
M  V30 2634 H 253.514 -4.10131 -0.148688 0
M  V30 2635 H 253.045 -3.52115 -1.75438 0
M  V30 2636 H 255.06 -4.01458 -2.91627 0
M  V30 2637 N 254.233 0.115231 -1.57178 0
M  V30 2638 C 255.48 0.822351 -1.8505 0
M  V30 2639 C 255.808 1.79701 -0.744168 0
M  V30 2640 O 255.063 1.93909 0.26414 0
M  V30 2641 C 255.362 1.60324 -3.19423 0
M  V30 2642 C 255.028 0.772536 -4.44233 0
M  V30 2643 C 253.69 0.543468 -4.78121 0
M  V30 2644 C 256.042 0.193746 -5.2084 0
M  V30 2645 C 253.37 -0.274583 -5.86057 0
M  V30 2646 C 255.722 -0.611517 -6.29637 0
M  V30 2647 C 254.386 -0.850867 -6.62055 0
M  V30 2648 H 253.656 0.30092 -0.677147 0
M  V30 2649 H 256.303 0.0845802 -1.91313 0
M  V30 2650 H 254.608 2.41203 -3.08753 0
M  V30 2651 H 256.305 2.1544 -3.38211 0
M  V30 2652 H 252.895 0.96117 -4.17683 0
M  V30 2653 H 257.079 0.357926 -4.95008 0
M  V30 2654 H 252.335 -0.469206 -6.09597 0
M  V30 2655 H 256.509 -1.06697 -6.88178 0
M  V30 2656 H 254.136 -1.48657 -7.45523 0
M  V30 2657 N 255.711 1.52812 0.385517 0
M  V30 2658 C 256.643 1.74096 1.49074 0
M  V30 2659 C 257.656 0.621462 1.50472 0
M  V30 2660 O 258.845 0.897245 1.54311 0
M  V30 2661 C 255.945 1.78774 2.87911 0
M  V30 2662 C 255.118 3.08134 3.10439 0
M  V30 2663 C 254.177 3.04313 4.29278 0
M  V30 2664 O 253.203 3.78168 4.25415 0
M  V30 2665 N 254.405 2.23741 5.35649 0
M  V30 2666 H 257.17 2.69455 1.31202 0
M  V30 2667 H 254.731 1.51343 0.575065 0
M  V30 2668 H 256.723 1.73721 3.65518 0
M  V30 2669 H 255.293 0.907869 2.99126 0
M  V30 2670 H 254.513 3.26649 2.20667 0
M  V30 2671 H 255.801 3.93662 3.22347 0
M  V30 2672 H 255.199 1.63211 5.41645 0
M  V30 2673 H 253.756 2.24524 6.11909 0
M  V30 2674 N 257.189 -0.644168 1.43834 0
M  V30 2675 C 258.136 -1.75671 1.49694 0
M  V30 2676 C 259.106 -1.6246 0.345809 0
M  V30 2677 O 260.291 -1.82573 0.554234 0
M  V30 2678 C 257.431 -3.13867 1.43463 0
M  V30 2679 C 256.544 -3.38147 2.6885 0
M  V30 2680 C 255.679 -4.66241 2.54544 0
M  V30 2681 C 254.718 -4.83657 3.75157 0
M  V30 2682 N 253.855 -6.03016 3.59605 0
M  V30 2683 H 258.695 -1.69998 2.44754 0
M  V30 2684 H 256.232 -0.829458 1.21484 0
M  V30 2685 H 258.19 -3.9377 1.37843 0
M  V30 2686 H 256.82 -3.18588 0.519783 0
M  V30 2687 H 255.872 -2.52276 2.84712 0
M  V30 2688 H 257.184 -3.46899 3.58417 0
M  V30 2689 H 256.338 -5.54285 2.46683 0
M  V30 2690 H 255.077 -4.59826 1.62516 0
M  V30 2691 H 254.082 -3.94046 3.83416 0
M  V30 2692 H 255.307 -4.91896 4.68204 0
M  V30 2693 H 253.253 -5.97715 2.7032 0
M  V30 2694 H 253.17 -6.12766 4.42779 0
M  V30 2695 H 254.438 -6.93657 3.55613 0
M  V30 2696 N 258.668 -1.30515 -0.883378 0
M  V30 2697 C 259.893 -1.22487 -1.67367 0
M  V30 2698 C 260.318 0.208767 -1.86938 0
M  V30 2699 O 259.676 1.15015 -1.40148 0
M  V30 2700 C 259.724 -1.96041 -3.02655 0
M  V30 2701 O 258.828 -1.28859 -3.91751 0
M  V30 2702 H 258.169 -0.423573 -0.511353 0
M  V30 2703 H 260.699 -1.72362 -1.10239 0
M  V30 2704 H 260.709 -2.05124 -3.52687 0
M  V30 2705 H 259.384 -3.00307 -2.8773 0
M  V30 2706 H 257.961 -1.28141 -3.50192 0
M  V30 2707 N 260.146 1.09593 -1.13257 0
M  V30 2708 C 261.394 1.81375 -0.891492 0
M  V30 2709 C 261.715 1.86049 0.584009 0
M  V30 2710 O 260.985 1.34481 1.42449 0
M  V30 2711 H 259.565 0.671708 -0.326828 0
M  V30 2712 H 262.227 1.3256 -1.42877 0
M  V30 2713 H 261.323 2.84612 -1.28071 0
M  V30 2714 N 261.624 0.925811 1.2754 0
M  V30 2715 C 262.587 0.428129 2.25166 0
M  V30 2716 C 263.587 -0.452261 1.54309 0
M  V30 2717 O 264.777 -0.253608 1.72344 0
M  V30 2718 C 261.909 -0.384749 3.38722 0
M  V30 2719 H 263.102 1.29066 2.70706 0
M  V30 2720 H 260.655 0.706323 1.3943 0
M  V30 2721 H 261.39 -1.26618 2.98561 0
M  V30 2722 H 261.175 0.246454 3.91325 0
M  V30 2723 H 262.665 -0.723389 4.11287 0
M  V30 2724 N 263.102 -1.41638 0.69111 0
M  V30 2725 C 264.327 -2.06148 0.227583 0
M  V30 2726 C 264.752 -1.51652 -1.11281 0
M  V30 2727 O 264.11 -0.64164 -1.69566 0
M  V30 2728 C 264.158 -3.60095 0.190858 0
M  V30 2729 O 263.262 -4.03845 -0.835664 0
M  V30 2730 H 262.603 -0.654434 0.112306 0
M  V30 2731 H 265.133 -1.81484 0.944714 0
M  V30 2732 H 265.143 -4.07995 0.020207 0
M  V30 2733 H 263.818 -3.99129 1.16915 0
M  V30 2734 H 262.395 -3.67458 -0.63473 0
M  V30 2735 N 264.58 -0.43555 -1.51462 0
M  V30 2736 C 265.826 0.131709 -2.02372 0
M  V30 2737 C 266.159 1.42516 -1.3192 0
M  V30 2738 O 265.434 1.89606 -0.433573 0
M  V30 2739 C 265.717 0.352301 -3.58373 0
M  V30 2740 C 265.57 -0.959676 -4.39443 0
M  V30 2741 C 266.889 1.12286 -4.25535 0
M  V30 2742 H 264.008 0.0463936 -0.735538 0
M  V30 2743 H 266.65 -0.574197 -1.81116 0
M  V30 2744 H 264.8 0.9536 -3.76615 0
M  V30 2745 H 266.472 -1.59482 -4.32855 0
M  V30 2746 H 264.715 -1.56468 -4.04599 0
M  V30 2747 H 265.386 -0.759394 -5.46752 0
M  V30 2748 H 267.862 0.613545 -4.11552 0
M  V30 2749 H 266.738 1.24598 -5.34571 0
M  V30 2750 H 266.999 2.15048 -3.86273 0
M  V30 2751 N 266.058 1.56714 -0.166846 0
M  V30 2752 C 267.304 1.97039 0.479962 0
M  V30 2753 C 267.637 1.05264 1.63197 0
M  V30 2754 O 266.912 0.0988833 1.94248 0
M  V30 2755 C 267.195 3.46867 0.967212 0
M  V30 2756 C 267.048 4.49421 -0.18466 0
M  V30 2757 C 268.367 3.9968 1.84238 0
M  V30 2758 H 265.486 0.71641 0.172992 0
M  V30 2759 H 268.128 1.8832 -0.252079 0
M  V30 2760 H 266.278 3.54428 1.59101 0
M  V30 2761 H 267.95 4.53924 -0.821621 0
M  V30 2762 H 266.193 4.25573 -0.840837 0
M  V30 2763 H 266.864 5.51644 0.198317 0
M  V30 2764 H 269.34 3.94723 1.31655 0
M  V30 2765 H 268.216 5.04941 2.15234 0
M  V30 2766 H 268.477 3.43226 2.78654 0
M  V30 2767 N 267.536 -0.106894 1.57237 0
M  V30 2768 C 268.499 -1.11466 2.0027 0
M  V30 2769 C 269.499 -1.33623 0.894519 0
M  V30 2770 O 270.689 -1.29935 1.16028 0
M  V30 2771 C 267.821 -2.46646 2.35327 0
M  V30 2772 H 269.014 -0.744516 2.90512 0
M  V30 2773 H 266.567 -0.351576 1.52295 0
M  V30 2774 H 267.302 -2.88558 1.48003 0
M  V30 2775 H 267.087 -2.31915 3.16161 0
M  V30 2776 H 268.577 -3.19151 2.69318 0
M  V30 2777 N 269.014 -1.53014 -0.377408 0
M  V30 2778 C 270.263 -1.67845 -1.11853 0
M  V30 2779 C 270.576 -0.430625 -1.90801 0
M  V30 2780 O 271.782 -0.459261 -2.67587 0
M  V30 2781 C 270.238 -2.96668 -2.03756 0
M  V30 2782 C 269.846 -4.28671 -1.30175 0
M  V30 2783 C 271.59 -3.20865 -2.77932 0
M  V30 2784 C 269.497 -5.48591 -2.20911 0
M  V30 2785 H 268.427 -0.625343 -0.421263 0
M  V30 2786 H 271.078 -1.79514 -0.380409 0
M  V30 2787 H 269.46 -2.78773 -2.8125 0
M  V30 2788 H 270.634 -4.57157 -0.578259 0
M  V30 2789 H 268.949 -4.10825 -0.679108 0
M  V30 2790 H 271.546 -4.07642 -3.46024 0
M  V30 2791 H 271.889 -2.36424 -3.4265 0
M  V30 2792 H 272.422 -3.39379 -2.07525 0
M  V30 2793 H 269.161 -6.35474 -1.6079 0
M  V30 2794 H 268.681 -5.244 -2.91144 0
M  V30 2795 H 270.36 -5.8292 -2.80736 0
M  V30 2796 N 270.492 0.636531 -1.44174 0
M  V30 2797 C 271.908 0.954104 -1.27941 0
M  V30 2798 C 272.108 2.0039 -0.211248 0
M  V30 2799 O 271.164 2.49236 0.404695 0
M  V30 2800 C 272.477 1.4225 -2.64925 0
M  V30 2801 C 274.025 1.53827 -2.72592 0
M  V30 2802 C 274.5 2.04053 -4.10032 0
M  V30 2803 N 275.991 2.11331 -4.12182 0
M  V30 2804 C 276.726 2.51352 -5.15374 0
M  V30 2805 N 276.222 2.90549 -6.2893 0
M  V30 2806 N 278.015 2.51438 -5.02728 0
M  V30 2807 H 270.166 -0.0578386 -2.12321 0
M  V30 2808 H 272.429 0.0367406 -0.947288 0
M  V30 2809 H 272.135 0.725466 -3.44136 0
M  V30 2810 H 272.009 2.39451 -2.9145 0
M  V30 2811 H 274.396 2.22628 -1.93702 0
M  V30 2812 H 274.477 0.550154 -2.49814 0
M  V30 2813 H 274.121 1.35848 -4.89395 0
M  V30 2814 H 274.051 3.03726 -4.30184 0
M  V30 2815 H 276.542 1.83745 -3.30222 0
M  V30 2816 H 276.855 3.19884 -7.03487 0
M  V30 2817 H 275.2 2.88313 -6.32377 0
M  V30 2818 H 278.391 2.20203 -4.13072 0
M  V30 2819 H 278.564 2.82304 -5.83274 0
M  V30 2820 N 271.97 1.30982 0.876444 0
M  V30 2821 C 272.917 1.18085 1.98304 0
M  V30 2822 C 273.887 0.0682263 1.6596 0
M  V30 2823 O 275.072 0.239937 1.89285 0
M  V30 2824 C 272.212 0.887475 3.33493 0
M  V30 2825 C 271.325 2.08281 3.78475 0
M  V30 2826 C 270.46 1.72678 5.0235 0
M  V30 2827 C 269.499 2.88657 5.39762 0
M  V30 2828 N 268.636 2.53292 6.54819 0
M  V30 2829 H 273.476 2.1275 2.08666 0
M  V30 2830 H 271.013 1.05839 1.02159 0
M  V30 2831 H 272.971 0.697961 4.1132 0
M  V30 2832 H 271.601 -0.022315 3.22792 0
M  V30 2833 H 270.653 2.3833 2.96484 0
M  V30 2834 H 271.965 2.95108 4.02135 0
M  V30 2835 H 271.119 1.50151 5.87826 0
M  V30 2836 H 269.858 0.830327 4.8058 0
M  V30 2837 H 268.863 3.1184 4.52809 0
M  V30 2838 H 270.088 3.79002 5.63502 0
M  V30 2839 H 268.034 1.66163 6.34607 0
M  V30 2840 H 267.951 3.3365 6.7839 0
M  V30 2841 H 269.219 2.34143 7.43503 0
M  V30 2842 N 273.449 -1.08991 1.13837 0
M  V30 2843 C 274.679 -1.84743 0.924859 0
M  V30 2844 C 275.087 -1.81629 -0.529874 0
M  V30 2845 O 274.43 -1.21397 -1.37872 0
M  V30 2846 C 274.492 -3.33568 1.34061 0
M  V30 2847 C 274.156 -3.60425 2.80968 0
M  V30 2848 C 275.153 -3.55771 3.79108 0
M  V30 2849 C 272.838 -3.88627 3.18236 0
M  V30 2850 C 274.832 -3.78939 5.12527 0
M  V30 2851 C 272.519 -4.11449 4.51833 0
M  V30 2852 C 273.517 -4.06598 5.48787 0
M  V30 2853 O 273.205 -4.28826 6.79973 0
M  V30 2854 H 272.937 -0.590258 0.329502 0
M  V30 2855 H 275.491 -1.38598 1.51591 0
M  V30 2856 H 273.721 -3.80442 0.692853 0
M  V30 2857 H 275.41 -3.90743 1.09886 0
M  V30 2858 H 276.176 -3.34005 3.51661 0
M  V30 2859 H 272.055 -3.91526 2.43369 0
M  V30 2860 H 275.599 -3.75068 5.88192 0
M  V30 2861 H 271.496 -4.32698 4.79002 0
M  V30 2862 H 272.264 -4.46264 6.86142 0
M  V30 2863 N 274.927 -0.932562 -1.27047 0
M  V30 2864 C 276.176 -0.571351 -1.93439 0
M  V30 2865 C 276.489 0.892467 -1.74053 0
M  V30 2866 O 277.695 1.36267 -2.34826 0
M  V30 2867 C 276.151 -0.97106 -3.46552 0
M  V30 2868 C 275.759 -2.4559 -3.74686 0
M  V30 2869 C 277.503 -0.681333 -4.18997 0
M  V30 2870 C 275.41 -2.79475 -5.21198 0
M  V30 2871 H 274.34 -0.209966 -0.724176 0
M  V30 2872 H 276.991 -1.13403 -1.44263 0
M  V30 2873 H 275.373 -0.336983 -3.94564 0
M  V30 2874 H 276.547 -3.13829 -3.37414 0
M  V30 2875 H 274.862 -2.71802 -3.15456 0
M  V30 2876 H 277.459 -0.910939 -5.26883 0
M  V30 2877 H 277.802 0.381628 -4.14547 0
M  V30 2878 H 278.335 -1.27473 -3.76823 0
M  V30 2879 H 275.074 -3.847 -5.30741 0
M  V30 2880 H 274.594 -2.1589 -5.596 0
M  V30 2881 H 276.273 -2.67478 -5.89122 0
M  V30 2882 N 276.405 1.4127 -0.698611 0
M  V30 2883 C 277.654 2.00408 -0.227949 0
M  V30 2884 C 277.967 1.55981 1.18023 0
M  V30 2885 O 279.173 2.07699 1.74852 0
M  V30 2886 C 277.629 3.58129 -0.356636 0
M  V30 2887 C 277.237 4.11536 -1.77037 0
M  V30 2888 C 278.981 4.24466 0.0540969 0
M  V30 2889 C 276.888 5.61701 -1.85055 0
M  V30 2890 H 275.818 0.749586 -0.0814657 0
M  V30 2891 H 278.469 1.61713 -0.867249 0
M  V30 2892 H 276.851 3.94442 0.350965 0
M  V30 2893 H 278.025 3.86636 -2.50698 0
M  V30 2894 H 276.34 3.57736 -2.13105 0
M  V30 2895 H 278.937 5.34698 0.0146723 0
M  V30 2896 H 279.28 4.01687 1.09332 0
M  V30 2897 H 279.813 3.93198 -0.603337 0
M  V30 2898 H 276.552 5.89312 -2.8704 0
M  V30 2899 H 276.072 5.88519 -1.15783 0
M  V30 2900 H 277.751 6.26524 -1.61484 0
M  V30 2901 N 277.883 0.443576 1.51229 0
M  V30 2902 C 278.833 -0.382787 2.24764 0
M  V30 2903 C 279.817 -0.984836 1.27239 0
M  V30 2904 O 281.009 -0.901943 1.52296 0
M  V30 2905 C 278.138 -1.47989 3.09765 0
M  V30 2906 C 277.224 -0.886931 4.14722 0
M  V30 2907 N 277.615 -0.0237103 5.05794 0
M  V30 2908 C 275.913 -1.15385 4.30816 0
M  V30 2909 C 276.614 0.309971 5.80874 0
M  V30 2910 N 275.59 -0.307989 5.42727 0
M  V30 2911 H 279.392 0.282624 2.92538 0
M  V30 2912 H 276.906 0.256027 1.60369 0
M  V30 2913 H 278.903 -2.08482 3.61027 0
M  V30 2914 H 277.563 -2.14758 2.43535 0
M  V30 2915 H 278.574 0.34318 5.16762 0
M  V30 2916 H 275.251 -1.81857 3.75812 0
M  V30 2917 H 276.641 1.01279 6.64223 0
M  V30 2918 N 279.361 -1.56624 0.175154 0
M  V30 2919 C 280.308 -2.18149 -0.753634 0
M  V30 2920 C 281.278 -1.12265 -1.22417 0
M  V30 2921 O 282.463 -1.40432 -1.29165 0
M  V30 2922 C 279.603 -2.82933 -1.97592 0
M  V30 2923 C 278.716 -4.03289 -1.5486 0
M  V30 2924 C 277.851 -4.55988 -2.72485 0
M  V30 2925 C 276.89 -5.68746 -2.26262 0
M  V30 2926 N 276.027 -6.15938 -3.36994 0
M  V30 2927 H 280.867 -2.9717 -0.222195 0
M  V30 2928 H 278.404 -1.46774 -0.0979422 0
M  V30 2929 H 280.362 -3.18653 -2.69288 0
M  V30 2930 H 278.992 -2.06509 -2.481 0
M  V30 2931 H 278.044 -3.73364 -0.728246 0
M  V30 2932 H 279.356 -4.849 -1.16933 0
M  V30 2933 H 278.51 -4.9391 -3.52332 0
M  V30 2934 H 277.249 -3.73443 -3.13674 0
M  V30 2935 H 276.254 -5.30372 -1.44863 0
M  V30 2936 H 277.479 -6.53095 -1.86127 0
M  V30 2937 H 275.425 -5.36321 -3.77751 0
M  V30 2938 H 275.342 -6.92548 -3.03172 0
M  V30 2939 H 276.61 -6.58511 -4.17114 0
M  V30 2940 N 280.839 0.0985539 -1.57292 0
M  V30 2941 C 282.069 0.815135 -1.8984 0
M  V30 2942 C 282.477 1.7297 -0.766679 0
M  V30 2943 O 281.82 1.81698 0.270483 0
M  V30 2944 C 281.882 1.6842 -3.17608 0
M  V30 2945 C 281.546 0.94182 -4.4719 0
M  V30 2946 C 282.543 0.273212 -5.19182 0
M  V30 2947 C 280.228 0.916927 -4.9386 0
M  V30 2948 C 282.222 -0.410361 -6.36078 0
M  V30 2949 C 279.909 0.229567 -6.10669 0
M  V30 2950 C 280.907 -0.432902 -6.81627 0
M  V30 2951 O 280.595 -1.10925 -7.9621 0
M  V30 2952 H 280.327 0.238501 -0.632529 0
M  V30 2953 H 282.881 0.0812659 -2.05239 0
M  V30 2954 H 281.111 2.46022 -2.98345 0
M  V30 2955 H 282.8 2.27704 -3.36015 0
M  V30 2956 H 283.566 0.283927 -4.84168 0
M  V30 2957 H 279.445 1.42201 -4.3852 0
M  V30 2958 H 282.989 -0.928013 -6.914 0
M  V30 2959 H 278.886 0.216686 -6.45136 0
M  V30 2960 H 279.654 -1.01579 -8.12172 0
M  V30 2961 N 282.317 1.53212 0.369288 0
M  V30 2962 C 283.728 1.60943 0.946276 0
M  V30 2963 C 284.079 0.47452 1.90375 0
M  V30 2964 O 283.204 -0.399597 2.12679 0
M  V30 2965 C 283.799 2.91715 1.72302 0
M  V30 2966 C 282.358 3.01792 2.24941 0
M  V30 2967 C 281.505 2.56211 1.06072 0
M  V30 2968 H 284.456 1.58007 0.148198 0
M  V30 2969 H 284.477 2.79309 2.58393 0
M  V30 2970 H 283.989 3.74295 1.0259 0
M  V30 2971 H 282.09 2.23791 2.97906 0
M  V30 2972 H 282.203 4.06803 2.53077 0
M  V30 2973 H 280.567 2.10998 1.4266 0
M  V30 2974 H 281.35 3.41206 0.378639 0
M  V30 2975 N 283.795 -0.628877 1.44509 0
M  V30 2976 C 285.02 -1.42048 1.5112 0
M  V30 2977 C 285.445 -1.87594 0.137818 0
M  V30 2978 O 284.803 -1.58873 -0.873437 0
M  V30 2979 C 284.851 -2.61541 2.48251 0
M  V30 2980 O 283.955 -3.61453 1.98559 0
M  V30 2981 H 283.296 -0.424942 0.510216 0
M  V30 2982 H 285.826 -0.767374 1.89664 0
M  V30 2983 H 285.836 -3.09057 2.66361 0
M  V30 2984 H 284.511 -2.27736 3.48007 0
M  V30 2985 H 283.088 -3.20731 1.90227 0
M  V30 2986 N 285.273 -1.31445 -0.869486 0
M  V30 2987 C 286.203 -1.21727 -1.99261 0
M  V30 2988 C 287.184 -0.104359 -1.6978 0
M  V30 2989 O 288.369 -0.289038 -1.92037 0
M  V30 2990 C 285.499 -0.924317 -3.34774 0
M  V30 2991 C 284.453 -1.99685 -3.78563 0
M  V30 2992 C 283.779 -1.55658 -5.11541 0
M  V30 2993 C 285.079 -3.41003 -3.95619 0
M  V30 2994 H 286.773 -2.1569 -2.07649 0
M  V30 2995 H 284.319 -1.03839 -0.997675 0
M  V30 2996 H 286.272 -0.842934 -4.12883 0
M  V30 2997 H 284.996 0.0509793 -3.2656 0
M  V30 2998 H 283.655 -2.06813 -3.02694 0
M  V30 2999 H 283.303 -0.569132 -4.9977 0
M  V30 3000 H 283.003 -2.27409 -5.41811 0
M  V30 3001 H 284.527 -1.48928 -5.92159 0
M  V30 3002 H 285.941 -3.36547 -4.64122 0
M  V30 3003 H 284.338 -4.10975 -4.37286 0
M  V30 3004 H 285.408 -3.81754 -2.98985 0
M  V30 3005 N 286.751 1.08385 -1.14413 0
M  V30 3006 C 287.661 2.18856 -0.844951 0
M  V30 3007 C 288.677 1.73121 0.174668 0
M  V30 3008 O 289.853 2.014 0.00312857 0
M  V30 3009 C 286.918 3.45155 -0.32696 0
M  V30 3010 C 285.979 4.05513 -1.40916 0
M  V30 3011 C 285.212 5.25784 -0.915793 0
M  V30 3012 O 285.435 5.69884 0.242651 0
M  V30 3013 O 284.369 5.77545 -1.69487 0
M  V30 3014 H 288.195 2.46919 -1.76818 0
M  V30 3015 H 285.78 1.17524 -0.922411 0
M  V30 3016 H 287.662 4.21377 -0.0440211 0
M  V30 3017 H 286.337 3.18668 0.568539 0
M  V30 3018 H 285.244 3.30879 -1.74556 0
M  V30 3019 H 286.577 4.3625 -2.27919 0
M  V30 3020 N 288.23 0.939286 1.26551 0
M  V30 3021 C 289.16 0.465044 2.28822 0
M  V30 3022 C 290.141 -0.480692 1.63167 0
M  V30 3023 O 291.326 -0.382955 1.90387 0
M  V30 3024 C 288.456 -0.27234 3.46231 0
M  V30 3025 C 287.41 0.58666 4.2396 0
M  V30 3026 C 286.736 -0.280573 5.33963 0
M  V30 3027 C 288.036 1.85704 4.88171 0
M  V30 3028 H 289.73 1.31979 2.68741 0
M  V30 3029 H 287.276 0.636061 1.29191 0
M  V30 3030 H 289.229 -0.615133 4.16886 0
M  V30 3031 H 287.953 -1.16121 3.0526 0
M  V30 3032 H 286.612 0.91232 3.55067 0
M  V30 3033 H 286.26 -1.16874 4.89234 0
M  V30 3034 H 285.96 0.29076 5.8688 0
M  V30 3035 H 287.484 -0.618678 6.07458 0
M  V30 3036 H 288.898 1.58161 5.51052 0
M  V30 3037 H 287.295 2.37279 5.51197 0
M  V30 3038 H 288.365 2.56957 4.11219 0
M  V30 3039 N 289.708 -1.40897 0.706093 0
M  V30 3040 C 290.618 -2.3455 0.0482286 0
M  V30 3041 C 291.634 -1.56796 -0.754396 0
M  V30 3042 O 292.81 -1.89228 -0.689538 0
M  V30 3043 C 289.875 -3.35625 -0.869303 0
M  V30 3044 C 288.936 -4.29261 -0.0576994 0
M  V30 3045 C 288.169 -5.25508 -0.931531 0
M  V30 3046 O 288.392 -5.27472 -2.17092 0
M  V30 3047 O 287.326 -6.00727 -0.375587 0
M  V30 3048 H 291.152 -2.92407 0.820476 0
M  V30 3049 H 288.737 -1.4193 0.4665 0
M  V30 3050 H 290.619 -3.97635 -1.39514 0
M  V30 3051 H 289.294 -2.80196 -1.62086 0
M  V30 3052 H 288.201 -3.70566 0.512988 0
M  V30 3053 H 289.534 -4.87817 0.655426 0
M  V30 3054 N 291.186 -0.45159 -1.50991 0
M  V30 3055 C 292.602 -0.104647 -1.59257 0
M  V30 3056 C 292.802 1.38728 -1.4614 0
M  V30 3057 O 291.858 2.15866 -1.30989 0
M  V30 3058 C 293.171 -0.637468 -2.93865 0
M  V30 3059 C 294.719 -0.599166 -3.07212 0
M  V30 3060 C 295.194 -1.1092 -4.44366 0
M  V30 3061 N 296.685 -1.06778 -4.50725 0
M  V30 3062 C 297.42 -1.43314 -5.55201 0
M  V30 3063 N 296.916 -1.87204 -6.67028 0
M  V30 3064 N 298.709 -1.3504 -5.45638 0
M  V30 3065 H 290.86 -1.42214 -1.57762 0
M  V30 3066 H 293.123 -0.586921 -0.744465 0
M  V30 3067 H 292.829 -1.68187 -3.08879 0
M  V30 3068 H 292.703 -0.0702139 -3.77135 0
M  V30 3069 H 295.09 0.436277 -2.91857 0
M  V30 3070 H 295.171 -1.20299 -2.25747 0
M  V30 3071 H 294.815 -2.14318 -4.60467 0
M  V30 3072 H 294.745 -0.481773 -5.24392 0
M  V30 3073 H 297.236 -0.745643 -3.70471 0
M  V30 3074 H 297.549 -2.13282 -7.42786 0
M  V30 3075 H 295.894 -1.91142 -6.68199 0
M  V30 3076 H 299.085 -1.00607 -4.57161 0
M  V30 3077 H 299.258 -1.63841 -6.26945 0
M  V30 3078 N 292.664 1.56529 -0.183458 0
M  V30 3079 C 294.08 1.58664 0.172554 0
M  V30 3080 C 294.28 1.19925 1.61926 0
M  V30 3081 O 293.336 0.916534 2.35278 0
M  V30 3082 C 294.649 3.00463 -0.119262 0
M  V30 3083 C 296.197 3.12945 -0.0584396 0
M  V30 3084 C 296.672 4.56857 -0.323408 0
M  V30 3085 N 298.163 4.62403 -0.271612 0
M  V30 3086 C 298.898 5.71626 -0.450639 0
M  V30 3087 N 298.394 6.89362 -0.689384 0
M  V30 3088 N 300.187 5.60775 -0.385701 0
M  V30 3089 H 292.338 1.79994 -1.12765 0
M  V30 3090 H 294.601 0.834808 -0.449222 0
M  V30 3091 H 294.307 3.33326 -1.12192 0
M  V30 3092 H 294.181 3.72659 0.583544 0
M  V30 3093 H 296.568 2.79902 0.934805 0
M  V30 3094 H 296.649 2.4316 -0.794144 0
M  V30 3095 H 296.293 4.9061 -1.31392 0
M  V30 3096 H 296.223 5.24816 0.43305 0
M  V30 3097 H 298.714 3.77785 -0.0932256 0
M  V30 3098 H 299.027 7.68489 -0.815113 0
M  V30 3099 H 297.372 6.91196 -0.726142 0
M  V30 3100 H 300.563 4.67674 -0.199687 0
M  V30 3101 H 300.736 6.4584 -0.528646 0
M  V30 3102 N 294.142 -0.090211 1.57342 0
M  V30 3103 C 295.39 -0.791241 1.85967 0
M  V30 3104 C 295.711 -1.7903 0.772859 0
M  V30 3105 O 294.981 -1.94872 -0.200398 0
M  V30 3106 H 293.561 -0.295205 0.686195 0
M  V30 3107 H 296.223 -0.0706782 1.94772 0
M  V30 3108 H 295.319 -1.31882 2.82867 0
M  V30 3109 N 295.62 -1.53406 -0.361157 0
M  V30 3110 C 296.85 -1.73465 -1.1222 0
M  V30 3111 C 297.258 -0.465486 -1.83384 0
M  V30 3112 O 296.601 0.571611 -1.7458 0
M  V30 3113 C 296.663 -2.84834 -2.19339 0
M  V30 3114 C 296.327 -4.25038 -1.67903 0
M  V30 3115 C 297.324 -5.07231 -1.14074 0
M  V30 3116 C 295.009 -4.71464 -1.73282 0
M  V30 3117 C 297.003 -6.33942 -0.663068 0
M  V30 3118 C 294.69 -5.98153 -1.25127 0
M  V30 3119 C 295.688 -6.79223 -0.717296 0
M  V30 3120 O 295.376 -8.03533 -0.242865 0
M  V30 3121 H 295.108 -0.583526 -0.341283 0
M  V30 3122 H 297.662 -2.00964 -0.424591 0
M  V30 3123 H 295.892 -2.5282 -2.92607 0
M  V30 3124 H 297.581 -2.9303 -2.80871 0
M  V30 3125 H 298.347 -4.72534 -1.09254 0
M  V30 3126 H 294.226 -4.08432 -2.13786 0
M  V30 3127 H 297.77 -6.97167 -0.245612 0
M  V30 3128 H 293.667 -6.32347 -1.29642 0
M  V30 3129 H 294.435 -8.177 -0.361786 0
M  V30 3130 N 297.098 0.621204 -1.44841 0
M  V30 3131 C 298.028 1.74366 -1.55303 0
M  V30 3132 C 299.009 1.65199 -0.405385 0
M  V30 3133 O 300.194 1.83807 -0.626787 0
M  V30 3134 C 297.324 3.12931 -1.50637 0
M  V30 3135 C 296.278 3.36896 -2.63979 0
M  V30 3136 C 295.604 4.75594 -2.44366 0
M  V30 3137 C 296.904 3.28483 -4.06074 0
M  V30 3138 H 298.598 1.65867 -2.49256 0
M  V30 3139 H 296.144 0.796558 -1.19962 0
M  V30 3140 H 298.097 3.9124 -1.56555 0
M  V30 3141 H 296.821 3.22237 -0.532057 0
M  V30 3142 H 295.48 2.60972 -2.57467 0
M  V30 3143 H 295.128 4.81616 -1.45105 0
M  V30 3144 H 294.828 4.92586 -3.20364 0
M  V30 3145 H 296.352 5.5612 -2.52117 0
M  V30 3146 H 297.766 3.96684 -4.13902 0
M  V30 3147 H 296.163 3.57008 -4.82354 0
M  V30 3148 H 297.233 2.26133 -4.28943 0
M  V30 3149 N 298.576 1.31904 0.862503 0
M  V30 3150 C 299.506 1.22782 1.98612 0
M  V30 3151 C 300.487 0.113362 1.69722 0
M  V30 3152 O 301.672 0.299218 1.91881 0
M  V30 3153 C 298.802 0.942058 3.34279 0
M  V30 3154 C 297.756 2.0169 3.77499 0
M  V30 3155 C 297.082 1.58369 5.10709 0
M  V30 3156 C 298.382 3.43096 3.93805 0
M  V30 3157 H 300.076 2.16788 2.06502 0
M  V30 3158 H 297.622 1.04366 0.992154 0
M  V30 3159 H 299.575 0.864818 4.1243 0
M  V30 3160 H 298.299 -0.0336603 3.26583 0
M  V30 3161 H 296.958 2.08416 3.01593 0
M  V30 3162 H 296.606 0.595628 4.99461 0
M  V30 3163 H 296.306 2.30279 5.40597 0
M  V30 3164 H 297.83 1.52067 5.91361 0
M  V30 3165 H 299.244 3.39003 4.62331 0
M  V30 3166 H 297.641 4.13288 4.35101 0
M  V30 3167 H 298.711 3.83334 2.96957 0
M  V30 3168 N 300.054 -1.07777 1.14986 0
M  V30 3169 C 301.001 -2.14867 0.842672 0
M  V30 3170 C 301.971 -1.6486 -0.202552 0
M  V30 3171 O 303.156 -1.90668 -0.0710568 0
M  V30 3172 C 300.296 -3.43486 0.333363 0
M  V30 3173 C 299.409 -4.07306 1.43965 0
M  V30 3174 C 298.544 -5.23744 0.886914 0
M  V30 3175 C 297.583 -5.79517 1.97043 0
M  V30 3176 N 296.72 -6.87291 1.4344 0
M  V30 3177 H 301.56 -2.40485 1.75986 0
M  V30 3178 H 299.097 -1.1801 0.878179 0
M  V30 3179 H 301.055 -4.17195 0.0198163 0
M  V30 3180 H 299.685 -3.18133 -0.546916 0
M  V30 3181 H 298.737 -3.31293 1.86946 0
M  V30 3182 H 300.049 -4.44771 2.25788 0
M  V30 3183 H 299.203 -6.04419 0.525651 0
M  V30 3184 H 297.942 -4.87685 0.0377957 0
M  V30 3185 H 296.947 -4.97491 2.34057 0
M  V30 3186 H 298.172 -6.17632 2.82325 0
M  V30 3187 H 296.118 -6.5318 0.607567 0
M  V30 3188 H 296.035 -7.23617 2.18895 0
M  V30 3189 H 297.303 -7.71682 1.10124 0
M  V30 3190 N 301.532 -0.945985 -1.26051 0
M  V30 3191 C 302.464 -0.416662 -2.25381 0
M  V30 3192 C 303.477 0.462712 -1.56086 0
M  V30 3193 O 304.666 0.272383 -1.7641 0
M  V30 3194 C 301.766 0.419812 -3.3629 0
M  V30 3195 C 300.939 -0.444531 -4.35135 0
M  V30 3196 C 299.998 0.332305 -5.2515 0
M  V30 3197 O 299.024 -0.266324 -5.68577 0
M  V30 3198 N 300.226 1.62763 -5.57215 0
M  V30 3199 H 302.991 -1.27059 -2.71433 0
M  V30 3200 H 300.552 -0.815392 -1.39868 0
M  V30 3201 H 302.544 0.947013 -3.93464 0
M  V30 3202 H 301.114 1.17456 -2.89694 0
M  V30 3203 H 300.334 -1.15291 -3.76964 0
M  V30 3204 H 301.622 -1.03478 -4.98166 0
M  V30 3205 H 301.02 2.13603 -5.23823 0
M  V30 3206 H 299.577 2.10097 -6.17011 0
M  V30 3207 N 303.011 1.40521 -0.713556 0
M  V30 3208 C 303.974 2.29098 -0.0684347 0
M  V30 3209 C 304.974 1.45268 0.689472 0
M  V30 3210 O 306.164 1.66205 0.521677 0
M  V30 3211 C 303.296 3.28446 0.913024 0
M  V30 3212 H 304.489 2.87645 -0.84855 0
M  V30 3213 H 302.042 1.48809 -0.47809 0
M  V30 3214 H 302.777 2.74913 1.72027 0
M  V30 3215 H 302.562 3.90327 0.372472 0
M  V30 3216 H 304.052 3.94777 1.36165 0
M  V30 3217 N 304.489 0.459591 1.5075 0
M  V30 3218 C 305.419 -0.330644 2.31147 0
M  V30 3219 C 306.4 -1.00087 1.37538 0
M  V30 3220 O 307.585 -1.00025 1.66459 0
M  V30 3221 C 304.715 -1.41958 3.16962 0
M  V30 3222 C 303.669 -0.871608 4.19031 0
M  V30 3223 C 302.995 -2.05797 4.9351 0
M  V30 3224 C 304.295 0.109251 5.22186 0
M  V30 3225 H 305.989 0.340336 2.97459 0
M  V30 3226 H 303.535 0.165119 1.4305 0
M  V30 3227 H 305.488 -1.9798 3.71997 0
M  V30 3228 H 304.212 -2.11917 2.48513 0
M  V30 3229 H 302.871 -0.333442 3.6508 0
M  V30 3230 H 302.519 -2.74427 4.21544 0
M  V30 3231 H 302.219 -1.6976 5.62544 0
M  V30 3232 H 303.743 -2.62331 5.51375 0
M  V30 3233 H 305.157 -0.361405 5.7216 0
M  V30 3234 H 303.554 0.383316 5.98875 0
M  V30 3235 H 304.624 1.03887 4.73641 0
M  V30 3236 N 305.967 -1.56429 0.191757 0
M  V30 3237 C 306.914 -2.18936 -0.730454 0
M  V30 3238 C 307.884 -1.13557 -1.21219 0
M  V30 3239 O 309.069 -1.41794 -1.27668 0
M  V30 3240 C 306.209 -2.85013 -1.9458 0
M  V30 3241 C 305.322 -4.04909 -1.50574 0
M  V30 3242 C 304.457 -4.58853 -2.67634 0
M  V30 3243 C 303.496 -5.71114 -2.20217 0
M  V30 3244 N 302.633 -6.19478 -3.30442 0
M  V30 3245 H 307.473 -2.97389 -0.190664 0
M  V30 3246 H 305.01 -1.46869 -0.0823694 0
M  V30 3247 H 306.968 -3.21492 -2.65893 0
M  V30 3248 H 305.598 -2.09129 -2.45896 0
M  V30 3249 H 304.65 -3.74115 -0.688605 0
M  V30 3250 H 305.962 -4.86113 -1.11784 0
M  V30 3251 H 305.116 -4.97619 -3.47074 0
M  V30 3252 H 303.855 -3.76749 -3.09696 0
M  V30 3253 H 302.86 -5.31879 -1.3923 0
M  V30 3254 H 304.085 -6.55033 -1.79189 0
M  V30 3255 H 302.031 -5.40297 -3.72041 0
M  V30 3256 H 301.948 -6.95725 -2.9581 0
M  V30 3257 H 303.216 -6.62898 -4.10106 0
M  V30 3258 N 307.445 0.0818655 -1.57387 0
M  V30 3259 C 308.861 0.436412 -1.53517 0
M  V30 3260 C 309.061 1.79758 -0.910459 0
M  V30 3261 O 308.117 2.47324 -0.508636 0
M  V30 3262 C 309.43 0.386734 -2.98203 0
M  V30 3263 C 310.978 0.467644 -3.09487 0
M  V30 3264 C 311.453 0.447978 -4.55804 0
M  V30 3265 N 312.944 0.508348 -4.60402 0
M  V30 3266 C 313.679 0.515184 -5.71081 0
M  V30 3267 N 313.175 0.477435 -6.91153 0
M  V30 3268 N 314.968 0.560988 -5.59294 0
M  V30 3269 H 307.119 -0.809546 -1.96367 0
M  V30 3270 H 309.382 -0.302733 -0.898363 0
M  V30 3271 H 309.088 -0.546539 -3.47427 0
M  V30 3272 H 308.962 1.20075 -3.57578 0
M  V30 3273 H 311.349 1.39134 -2.60242 0
M  V30 3274 H 311.43 -0.374753 -2.5304 0
M  V30 3275 H 311.074 -0.471826 -5.05704 0
M  V30 3276 H 311.004 1.30777 -5.10103 0
M  V30 3277 H 313.495 0.54218 -3.7399 0
M  V30 3278 H 313.808 0.486299 -7.71268 0
M  V30 3279 H 312.153 0.444278 -6.93579 0
M  V30 3280 H 315.344 0.5881 -4.64391 0
M  V30 3281 H 315.517 0.562846 -6.45551 0
M  V30 3282 N 308.923 1.53595 0.353017 0
M  V30 3283 C 309.833 1.83897 1.45667 0
M  V30 3284 C 310.849 0.728334 1.58023 0
M  V30 3285 O 312.025 1.01968 1.73679 0
M  V30 3286 C 309.09 2.03383 2.80778 0
M  V30 3287 C 308.151 3.27262 2.77845 0
M  V30 3288 C 307.384 3.45809 4.06512 0
M  V30 3289 O 307.607 2.68387 5.03314 0
M  V30 3290 O 306.541 4.39207 4.11559 0
M  V30 3291 H 310.367 2.77686 1.2298 0
M  V30 3292 H 307.952 1.39132 0.544308 0
M  V30 3293 H 309.834 2.17698 3.60812 0
M  V30 3294 H 308.509 1.12783 3.03417 0
M  V30 3295 H 307.416 3.18359 1.96465 0
M  V30 3296 H 308.749 4.17824 2.60161 0
M  V30 3297 N 310.401 -0.613514 1.45168 0
M  V30 3298 C 311.331 -1.7354 1.56225 0
M  V30 3299 C 312.312 -1.64981 0.41414 0
M  V30 3300 O 313.497 -1.83472 0.636526 0
M  V30 3301 C 310.627 -3.12128 1.52295 0
M  V30 3302 C 309.581 -3.35491 2.65762 0
M  V30 3303 C 308.907 -4.74291 2.46885 0
M  V30 3304 C 310.207 -3.26325 4.0781 0
M  V30 3305 H 311.901 -1.64543 2.50132 0
M  V30 3306 H 309.447 -0.790185 1.20383 0
M  V30 3307 H 311.4 -3.90404 1.58628 0
M  V30 3308 H 310.124 -3.2195 0.549139 0
M  V30 3309 H 308.783 -2.59603 2.58847 0
M  V30 3310 H 308.431 -4.80839 1.47657 0
M  V30 3311 H 308.131 -4.9088 3.22972 0
M  V30 3312 H 309.655 -5.54775 2.55063 0
M  V30 3313 H 311.069 -3.94483 4.16 0
M  V30 3314 H 309.466 -3.54445 4.8424 0
M  V30 3315 H 310.536 -2.23855 4.30136 0
M  V30 3316 N 311.879 -1.3236 -0.855495 0
M  V30 3317 C 312.827 -1.2118 -1.9854 0
M  V30 3318 C 313.821 -0.116788 -1.68997 0
M  V30 3319 O 315.027 -0.279657 -1.77814 0
M  V30 3320 H 311.402 -0.375608 -0.651477 0
M  V30 3321 H 313.373 -2.16743 -2.05098 0
M  V30 3322 C 312.122 -0.950849 -3.34446 0
M  V30 3323 H 311.445 -1.78563 -3.57708 0
M  V30 3324 H 312.885 -0.912863 -4.14057 0
M  V30 3325 C 311.344 0.346404 -3.35114 0
M  V30 3326 O 311.874 1.35855 -3.7803 0
M  V30 3327 N 310.08 0.36808 -2.88259 0
M  V30 3328 H 309.627 -0.456102 -2.5353 0
M  V30 3329 H 309.585 1.23591 -2.89089 0
M  V30 3330 N 313.357 1.07166 -1.15556 0
M  V30 3331 C 314.773 1.31899 -0.898603 0
M  V30 3332 C 314.973 1.96333 0.453383 0
M  V30 3333 O 314.029 2.22438 1.19489 0
M  V30 3334 C 315.342 2.20826 -2.04099 0
M  V30 3335 C 316.89 2.34269 -2.07574 0
M  V30 3336 C 317.365 3.26546 -3.21141 0
M  V30 3337 N 318.856 3.34127 -3.20801 0
M  V30 3338 C 319.591 4.05595 -4.05315 0
M  V30 3339 N 319.087 4.79661 -4.99897 0
M  V30 3340 N 320.88 4.01555 -3.93332 0
M  V30 3341 H 313.031 0.637302 -2.02613 0
M  V30 3342 H 315.294 0.343468 -0.883591 0
M  V30 3343 H 315 1.80744 -3.01703 0
M  V30 3344 H 314.874 3.21364 -1.97496 0
M  V30 3345 H 317.261 2.73603 -1.10568 0
M  V30 3346 H 317.342 1.33429 -2.18244 0
M  V30 3347 H 316.986 2.87931 -4.184 0
M  V30 3348 H 316.916 4.27345 -3.07708 0
M  V30 3349 H 319.407 2.81336 -2.52306 0
M  V30 3350 H 319.72 5.31694 -5.60822 0
M  V30 3351 H 318.065 4.78671 -5.03884 0
M  V30 3352 H 321.256 3.42806 -3.18751 0
M  V30 3353 H 321.429 4.56987 -4.5942 0
M  V30 3354 N 314.835 0.952656 1.25548 0
M  V30 3355 C 316.083 0.605176 1.92826 0
M  V30 3356 C 316.404 -0.860261 1.74999 0
M  V30 3357 O 315.674 -1.6125 1.11244 0
M  V30 3358 H 314.254 0.220832 0.713612 0
M  V30 3359 H 316.916 1.21047 1.52754 0
M  V30 3360 H 316.012 0.832798 3.00784 0
M  V30 3361 N 316.313 -1.40141 0.720998 0
M  V30 3362 C 317.559 -2.01084 0.263231 0
M  V30 3363 C 317.892 -1.57052 -1.14229 0
M  V30 3364 O 317.167 -0.793027 -1.77599 0
M  V30 3365 C 317.45 -3.58401 0.349344 0
M  V30 3366 C 317.303 -4.12491 1.79363 0
M  V30 3367 C 318.622 -4.39231 -0.276351 0
M  V30 3368 H 315.741 -0.730572 0.0971228 0
M  V30 3369 H 318.383 -1.66543 0.914518 0
M  V30 3370 H 316.533 -3.87958 -0.205165 0
M  V30 3371 H 318.205 -3.93711 2.40394 0
M  V30 3372 H 316.448 -3.66576 2.31958 0
M  V30 3373 H 317.119 -5.21646 1.80524 0
M  V30 3374 H 319.595 -4.15637 0.196184 0
M  V30 3375 H 318.471 -5.48586 -0.185681 0
M  V30 3376 H 318.732 -4.20643 -1.36059 0
M  V30 3377 N 317.792 -0.46758 -1.50504 0
M  V30 3378 C 319.041 0.0902868 -2.01498 0
M  V30 3379 C 319.354 1.411 -1.35463 0
M  V30 3380 O 320.56 2.0536 -1.77594 0
M  V30 3381 C 319.016 0.21142 -3.59278 0
M  V30 3382 C 318.624 -1.10065 -4.34269 0
M  V30 3383 C 320.368 0.721433 -4.18325 0
M  V30 3384 C 318.275 -0.943505 -5.83825 0
M  V30 3385 H 317.205 0.037517 -0.753066 0
M  V30 3386 H 319.856 -0.601943 -1.73346 0
M  V30 3387 H 318.238 0.967352 -3.84003 0
M  V30 3388 H 319.412 -1.86726 -4.21272 0
M  V30 3389 H 317.727 -1.5415 -3.86816 0
M  V30 3390 H 320.324 0.85598 -5.27804 0
M  V30 3391 H 320.667 1.71186 -3.79475 0
M  V30 3392 H 321.2 0.0229843 -3.97793 0
M  V30 3393 H 317.939 -1.90719 -6.27141 0
M  V30 3394 H 317.459 -0.217213 -5.99407 0
M  V30 3395 H 319.138 -0.608715 -6.4413 0
M  V30 3396 N 319.27 1.56325 -0.20005 0
M  V30 3397 C 320.217 2.1932 0.718833 0
M  V30 3398 C 321.187 1.14198 1.20615 0
M  V30 3399 O 322.372 1.42469 1.26914 0
M  V30 3400 C 319.512 2.86041 1.93066 0
M  V30 3401 C 318.625 4.05702 1.48425 0
M  V30 3402 C 317.76 4.60266 2.65196 0
M  V30 3403 C 316.799 5.72273 2.17185 0
M  V30 3404 N 315.936 6.21221 3.27152 0
M  V30 3405 H 320.776 2.97486 0.17489 0
M  V30 3406 H 318.313 1.46911 0.0745794 0
M  V30 3407 H 320.271 3.22897 2.64184 0
M  V30 3408 H 318.901 2.1043 2.44783 0
M  V30 3409 H 317.953 3.74475 0.668755 0
M  V30 3410 H 319.265 4.86699 1.09204 0
M  V30 3411 H 318.419 4.99453 3.4443 0
M  V30 3412 H 317.158 3.78386 3.07693 0
M  V30 3413 H 316.163 5.3261 1.36407 0
M  V30 3414 H 317.388 6.55974 1.75713 0
M  V30 3415 H 315.334 5.42263 3.69171 0
M  V30 3416 H 315.251 6.97284 2.92116 0
M  V30 3417 H 316.519 6.65063 4.06585 0
M  V30 3418 N 320.748 -0.0735177 1.57428 0
M  V30 3419 C 321.68 -1.11423 2.00294 0
M  V30 3420 C 322.693 -1.35084 0.908637 0
M  V30 3421 O 323.882 -1.33355 1.18654 0
M  V30 3422 C 320.982 -2.46548 2.32523 0
M  V30 3423 C 320.155 -2.42867 3.63778 0
M  V30 3424 C 319.214 -3.60087 3.83697 0
M  V30 3425 O 318.24 -3.41595 4.55304 0
M  V30 3426 N 319.442 -4.80372 3.25919 0
M  V30 3427 H 322.207 -0.749206 2.90184 0
M  V30 3428 H 319.768 -0.262195 1.59763 0
M  V30 3429 H 321.76 -3.23607 2.43024 0
M  V30 3430 H 320.33 -2.75059 1.48531 0
M  V30 3431 H 319.55 -1.51206 3.64047 0
M  V30 3432 H 320.838 -2.37506 4.49965 0
M  V30 3433 H 320.236 -4.983 2.67795 0
M  V30 3434 H 318.793 -5.54948 3.41871 0
M  V30 3435 N 322.226 -1.5378 -0.344866 0
M  V30 3436 C 323.472 -1.71216 -1.08687 0
M  V30 3437 C 323.805 -0.473281 -1.88345 0
M  V30 3438 O 323.08 0.52968 -1.87149 0
M  V30 3439 C 323.363 -2.97486 -2.02914 0
M  V30 3440 C 323.216 -4.31579 -1.26727 0
M  V30 3441 C 324.535 -3.19422 -3.0275 0
M  V30 3442 H 321.654 -0.62301 -0.393735 0
M  V30 3443 H 324.296 -1.8645 -0.365563 0
M  V30 3444 H 322.446 -2.84629 -2.64421 0
M  V30 3445 H 324.118 -4.56284 -0.67845 0
M  V30 3446 H 322.361 -4.30049 -0.569273 0
M  V30 3447 H 323.032 -5.16106 -1.95803 0
M  V30 3448 H 325.508 -3.316 -2.51357 0
M  V30 3449 H 324.384 -4.09169 -3.65885 0
M  V30 3450 H 324.645 -2.35656 -3.74057 0
M  V30 3451 N 323.704 0.605807 -1.45491 0
M  V30 3452 C 324.651 1.7164 -1.54299 0
M  V30 3453 C 325.621 1.61486 -0.388761 0
M  V30 3454 O 326.806 1.81039 -0.602445 0
M  V30 3455 C 323.946 3.09953 -1.51734 0
M  V30 3456 C 323.059 3.309 -2.77721 0
M  V30 3457 C 322.194 4.59329 -2.66816 0
M  V30 3458 C 321.233 4.7354 -3.87848 0
M  V30 3459 N 320.37 5.9327 -3.75467 0
M  V30 3460 H 325.21 1.63449 -2.49176 0
M  V30 3461 H 322.747 0.796957 -1.23641 0
M  V30 3462 H 324.705 3.89977 -1.48235 0
M  V30 3463 H 323.335 3.17098 -0.604068 0
M  V30 3464 H 322.387 2.44639 -2.913 0
M  V30 3465 H 323.699 3.37274 -3.67488 0
M  V30 3466 H 322.853 5.4755 -2.61292 0
M  V30 3467 H 321.592 4.55355 -1.74651 0
M  V30 3468 H 320.597 3.83741 -3.93729 0
M  V30 3469 H 321.822 4.79309 -4.81082 0
M  V30 3470 H 319.768 5.90338 -2.86072 0
M  V30 3471 H 319.685 6.00811 -4.5887 0
M  V30 3472 H 320.953 6.83984 -3.73879 0
M  V30 3473 N 325.182 1.32811 0.848464 0
M  V30 3474 C 326.43 1.23479 1.59991 0
M  V30 3475 C 326.751 -0.201853 1.93952 0
M  V30 3476 O 326.021 -1.12818 1.60153 0
M  V30 3477 H 324.601 0.454034 0.593179 0
M  V30 3478 H 327.263 1.66412 1.01455 0
M  V30 3479 H 326.359 1.82178 2.53412 0
M  V30 3480 N 326.66 -1.06551 1.16123 0
M  V30 3481 C 327.607 -2.13961 0.865414 0
M  V30 3482 C 328.577 -1.65066 -0.185055 0
M  V30 3483 O 329.762 -1.90732 -0.05083 0
M  V30 3484 C 326.902 -3.43113 0.369776 0
M  V30 3485 C 326.015 -4.05756 1.48276 0
M  V30 3486 C 325.15 -5.22773 0.942414 0
M  V30 3487 C 324.189 -5.77395 2.03179 0
M  V30 3488 N 323.326 -6.85731 1.50721 0
M  V30 3489 H 328.166 -2.38605 1.78527 0
M  V30 3490 H 325.703 -1.17072 0.890646 0
M  V30 3491 H 327.661 -4.17151 0.0640643 0
M  V30 3492 H 326.291 -3.18695 -0.513143 0
M  V30 3493 H 325.343 -3.29292 1.9045 0
M  V30 3494 H 326.655 -4.42351 2.30493 0
M  V30 3495 H 325.809 -6.03827 0.589729 0
M  V30 3496 H 324.548 -4.87618 0.0895191 0
M  V30 3497 H 323.553 -4.94981 2.3932 0
M  V30 3498 H 324.778 -6.14603 2.8886 0
M  V30 3499 H 322.724 -6.52499 0.676811 0
M  V30 3500 H 322.641 -7.21254 2.26557 0
M  V30 3501 H 323.909 -7.7047 1.18303 0
M  V30 3502 N 328.138 -0.959301 -1.25041 0
M  V30 3503 C 329.386 -0.615393 -1.92503 0
M  V30 3504 C 329.707 0.850969 -1.75452 0
M  V30 3505 O 328.977 1.60658 -1.12098 0
M  V30 3506 H 327.557 -0.224613 -0.712431 0
M  V30 3507 H 330.219 -1.21855 -1.5211 0
M  V30 3508 H 329.315 -0.848738 -3.00338 0
M  V30 3509 N 329.616 1.39756 -0.72842 0
M  V30 3510 C 330.579 2.29012 -0.0927297 0
M  V30 3511 C 331.579 1.45992 0.674025 0
M  V30 3512 O 332.769 1.66749 0.50402 0
M  V30 3513 C 329.901 3.29396 0.878137 0
M  V30 3514 H 331.094 2.86729 -0.879011 0
M  V30 3515 H 328.647 1.48293 -0.493847 0
M  V30 3516 H 329.382 2.76722 1.69101 0
M  V30 3517 H 329.167 3.907 0.331051 0
M  V30 3518 H 330.657 3.96199 1.3197 0
M  V30 3519 N 331.094 0.475555 1.50254 0
M  V30 3520 C 332.319 -0.0777042 2.07254 0
M  V30 3521 C 332.744 -1.3235 1.3366 0
M  V30 3522 O 332.102 -1.77152 0.385597 0
M  V30 3523 C 332.15 -0.340169 3.58992 0
M  V30 3524 O 331.254 -1.41982 3.87188 0
M  V30 3525 H 330.595 0.0149556 0.663832 0
M  V30 3526 H 333.125 0.667878 1.93392 0
M  V30 3527 H 333.135 -0.579332 4.03866 0
M  V30 3528 H 331.81 0.570167 4.11973 0
M  V30 3529 H 330.387 -1.16762 3.54148 0
M  V30 3530 N 332.573 -1.56217 0.208337 0
M  V30 3531 C 333.821 -1.97558 -0.426076 0
M  V30 3532 C 334.142 -1.09683 -1.61229 0
M  V30 3533 O 333.412 -0.170956 -1.95153 0
M  V30 3534 H 331.992 -0.729575 -0.160405 0
M  V30 3535 H 334.654 -1.92606 0.298155 0
M  V30 3536 H 333.75 -3.02672 -0.761312 0
M  V30 3537 N 334.051 0.0651679 -1.57465 0
M  V30 3538 C 335.276 0.779605 -1.9219 0
M  V30 3539 C 335.701 1.69988 -0.805333 0
M  V30 3540 O 335.059 1.79685 0.241435 0
M  V30 3541 C 335.107 1.54364 -3.2589 0
M  V30 3542 O 334.211 2.65474 -3.1559 0
M  V30 3543 H 333.552 0.212249 -0.629163 0
M  V30 3544 H 336.082 0.0314294 -2.04576 0
M  V30 3545 H 336.092 1.92146 -3.59922 0
M  V30 3546 H 334.767 0.868457 -4.06732 0
M  V30 3547 H 333.344 2.30501 -2.93128 0
M  V30 3548 N 335.529 1.53961 0.336706 0
M  V30 3549 C 336.776 1.71536 1.07618 0
M  V30 3550 C 337.104 0.482125 1.8843 0
M  V30 3551 O 336.359 -0.536142 1.88213 0
M  V30 3552 C 336.658 2.93493 2.03953 0
M  V30 3553 C 336.324 4.28811 1.39399 0
M  V30 3554 C 334.986 4.65602 1.21523 0
M  V30 3555 C 337.338 5.12844 0.929541 0
M  V30 3556 C 334.666 5.84037 0.558312 0
M  V30 3557 C 337.018 6.31951 0.286505 0
M  V30 3558 C 335.682 6.67432 0.0954869 0
M  V30 3559 H 334.952 0.627696 0.393801 0
M  V30 3560 H 337.599 1.88186 0.354715 0
M  V30 3561 H 335.904 2.71475 2.82504 0
M  V30 3562 H 337.601 3.04285 2.61174 0
M  V30 3563 H 334.191 3.99858 1.54311 0
M  V30 3564 H 338.375 4.84947 1.05548 0
M  V30 3565 H 333.631 6.10097 0.398995 0
M  V30 3566 H 337.805 6.96352 -0.0814376 0
M  V30 3567 H 335.432 7.59063 -0.415579 0
M  V30 3568 N 337.007 -0.598083 1.45811 0
M  V30 3569 C 338.253 -1.35882 1.50545 0
M  V30 3570 C 338.586 -1.93616 0.150445 0
M  V30 3571 O 337.861 -1.75604 -0.83628 0
M  V30 3572 C 338.144 -2.49966 2.59208 0
M  V30 3573 C 337.997 -1.97367 4.04186 0
M  V30 3574 C 339.316 -3.52068 2.64076 0
M  V30 3575 H 336.435 -0.492717 0.548087 0
M  V30 3576 H 339.077 -0.673319 1.77669 0
M  V30 3577 H 337.227 -3.08443 2.3621 0
M  V30 3578 H 338.899 -1.43466 4.38423 0
M  V30 3579 H 337.142 -1.283 4.14393 0
M  V30 3580 H 337.813 -2.79649 4.75921 0
M  V30 3581 H 340.289 -3.03448 2.84708 0
M  V30 3582 H 339.165 -4.2937 3.41954 0
M  V30 3583 H 339.426 -4.08304 1.69531 0
M  V30 3584 N 338.485 -1.33259 -0.841409 0
M  V30 3585 C 339.731 -1.24757 -1.59886 0
M  V30 3586 C 340.064 0.186913 -1.93298 0
M  V30 3587 O 339.339 1.12757 -1.5848 0
M  V30 3588 C 339.622 -2.12036 -2.91055 0
M  V30 3589 C 339.475 -3.63929 -2.6434 0
M  V30 3590 C 340.794 -1.9916 -3.92458 0
M  V30 3591 H 337.913 -0.454542 -0.580138 0
M  V30 3592 H 340.555 -1.63335 -0.970647 0
M  V30 3593 H 338.705 -1.79265 -3.44669 0
M  V30 3594 H 340.377 -4.06978 -2.17178 0
M  V30 3595 H 338.62 -3.85935 -1.98082 0
M  V30 3596 H 339.291 -4.20341 -3.57796 0
M  V30 3597 H 341.767 -2.27895 -3.48143 0
M  V30 3598 H 340.643 -2.62484 -4.82072 0
M  V30 3599 H 340.904 -0.963082 -4.31482 0
M  V30 3600 N 339.963 1.05934 -1.16686 0
M  V30 3601 C 341.209 1.79065 -0.95203 0
M  V30 3602 C 341.542 1.87147 0.518629 0
M  V30 3603 O 340.817 1.36574 1.38484 0
M  V30 3604 C 341.1 3.23359 -1.58464 0
M  V30 3605 C 340.953 3.23336 -3.12689 0
M  V30 3606 C 342.272 4.21004 -1.28232 0
M  V30 3607 H 339.391 0.65005 -0.34728 0
M  V30 3608 H 342.033 1.23868 -1.44072 0
M  V30 3609 H 340.183 3.70493 -1.16908 0
M  V30 3610 H 341.855 2.84336 -3.6325 0
M  V30 3611 H 340.098 2.61886 -3.4583 0
M  V30 3612 H 340.769 4.25144 -3.52075 0
M  V30 3613 H 343.245 3.8233 -1.64203 0
M  V30 3614 H 342.121 5.20225 -1.75092 0
M  V30 3615 H 342.382 4.41639 -0.201791 0
M  V30 3616 N 341.441 0.965919 1.2453 0
M  V30 3617 C 342.373 0.452465 2.2469 0
M  V30 3618 C 343.386 -0.437821 1.56802 0
M  V30 3619 O 344.575 -0.244283 1.76821 0
M  V30 3620 C 341.675 -0.366258 3.36915 0
M  V30 3621 C 340.848 0.513701 4.34373 0
M  V30 3622 C 339.907 -0.248716 5.25612 0
M  V30 3623 O 338.933 0.356745 5.68081 0
M  V30 3624 N 340.135 -1.53877 5.59734 0
M  V30 3625 H 342.9 1.31361 2.69378 0
M  V30 3626 H 340.461 0.837541 1.38553 0
M  V30 3627 H 342.453 -0.884297 3.94921 0
M  V30 3628 H 341.023 -1.12832 2.91526 0
M  V30 3629 H 340.243 1.21273 3.75082 0
M  V30 3630 H 341.531 1.11391 4.96457 0
M  V30 3631 H 340.929 -2.05243 5.27154 0
M  V30 3632 H 339.486 -2.00254 6.20275 0
M  V30 3633 N 342.919 -1.39368 0.735821 0
M  V30 3634 C 343.866 -2.30599 0.0963825 0
M  V30 3635 C 344.836 -1.49257 -0.728794 0
M  V30 3636 O 346.021 -1.77941 -0.688588 0
M  V30 3637 C 343.161 -3.35596 -0.804305 0
M  V30 3638 C 342.274 -4.31987 0.0335761 0
M  V30 3639 C 341.409 -5.24053 -0.868461 0
M  V30 3640 C 340.448 -6.12095 -0.0258776 0
M  V30 3641 N 339.585 -6.96514 -0.883893 0
M  V30 3642 H 344.425 -2.8471 0.880002 0
M  V30 3643 H 341.962 -1.40188 0.445619 0
M  V30 3644 H 343.92 -3.95062 -1.34096 0
M  V30 3645 H 342.55 -2.82938 -1.55389 0
M  V30 3646 H 341.602 -3.74133 0.68766 0
M  V30 3647 H 342.914 -4.94074 0.685036 0
M  V30 3648 H 342.068 -5.88549 -1.47293 0
M  V30 3649 H 340.807 -4.62289 -1.5537 0
M  V30 3650 H 339.812 -5.4661 0.591386 0
M  V30 3651 H 341.037 -6.75923 0.656156 0
M  V30 3652 H 338.983 -6.37318 -1.55441 0
M  V30 3653 H 338.9 -7.55448 -0.288931 0
M  V30 3654 H 340.168 -7.65439 -1.4739 0
M  V30 3655 N 344.397 -0.483516 -1.5 0
M  V30 3656 C 345.622 0.0667119 -2.07293 0
M  V30 3657 C 346.047 1.3164 -1.3436 0
M  V30 3658 O 345.405 1.76945 -0.394987 0
M  V30 3659 C 345.453 0.321126 -3.59167 0
M  V30 3660 O 344.557 1.39927 -3.87936 0
M  V30 3661 H 343.898 -0.0184758 -0.663743 0
M  V30 3662 H 346.428 -0.678125 -1.93035 0
M  V30 3663 H 346.438 0.557906 -4.04168 0
M  V30 3664 H 345.113 -0.592007 -4.11665 0
M  V30 3665 H 343.69 1.14882 -3.54763 0
M  V30 3666 N 345.875 1.56104 -0.216619 0
M  V30 3667 C 347.291 1.58995 0.13886 0
M  V30 3668 C 347.491 1.23333 1.59346 0
M  V30 3669 O 346.547 0.966234 2.33281 0
M  V30 3670 C 347.86 3.00143 -0.182968 0
M  V30 3671 C 349.408 3.12751 -0.124807 0
M  V30 3672 C 349.883 4.56068 -0.420241 0
M  V30 3673 N 351.374 4.61723 -0.369634 0
M  V30 3674 C 352.109 5.70542 -0.571789 0
M  V30 3675 N 351.605 6.87744 -0.835453 0
M  V30 3676 N 353.398 5.59831 -0.504563 0
M  V30 3677 H 345.549 1.77562 -1.16557 0
M  V30 3678 H 347.812 0.825091 -0.466828 0
M  V30 3679 H 347.518 3.30871 -1.19237 0
M  V30 3680 H 347.392 3.73813 0.504367 0
M  V30 3681 H 349.779 2.81822 0.875223 0
M  V30 3682 H 349.86 2.41421 -0.845544 0
M  V30 3683 H 349.504 4.87713 -1.41769 0
M  V30 3684 H 349.434 5.25617 0.321631 0
M  V30 3685 H 351.925 3.77502 -0.173338 0
M  V30 3686 H 352.238 7.66587 -0.977938 0
M  V30 3687 H 350.583 6.895 -0.872592 0
M  V30 3688 H 353.774 4.67145 -0.298842 0
M  V30 3689 H 353.947 6.44573 -0.665519 0
M  V30 3690 N 347.353 -0.0568162 1.57498 0
M  V30 3691 C 348.3 -1.06591 2.04712 0
M  V30 3692 C 349.27 -1.3758 0.930644 0
M  V30 3693 O 350.455 -1.48392 1.19935 0
M  V30 3694 C 347.595 -2.3701 2.50839 0
M  V30 3695 C 346.708 -2.12421 3.76167 0
M  V30 3696 C 345.843 -3.36511 4.11015 0
M  V30 3697 C 344.882 -3.07353 5.2934 0
M  V30 3698 N 344.019 -4.23816 5.59754 0
M  V30 3699 H 348.859 -0.65631 2.90683 0
M  V30 3700 H 346.396 -0.312481 1.43743 0
M  V30 3701 H 348.354 -3.13175 2.7564 0
M  V30 3702 H 346.984 -2.75744 1.67825 0
M  V30 3703 H 346.036 -1.2688 3.58616 0
M  V30 3704 H 347.348 -1.86894 4.62463 0
M  V30 3705 H 346.502 -4.21062 4.36797 0
M  V30 3706 H 345.241 -3.65128 3.23315 0
M  V30 3707 H 344.246 -2.212 5.03339 0
M  V30 3708 H 345.471 -2.80043 6.1867 0
M  V30 3709 H 343.417 -4.52436 4.75014 0
M  V30 3710 H 343.334 -4.01614 6.40501 0
M  V30 3711 H 344.602 -5.0932 5.90096 0
M  V30 3712 N 348.832 -1.54138 -0.328536 0
M  V30 3713 C 350.06 -1.76062 -1.08673 0
M  V30 3714 C 350.475 -0.506852 -1.81869 0
M  V30 3715 O 349.832 0.522223 -1.74869 0
M  V30 3716 C 349.883 -2.95054 -2.08866 0
M  V30 3717 O 349.604 -4.15583 -1.38644 0
M  V30 3718 C 351.105 -3.2915 -2.96943 0
M  V30 3719 H 348.325 -0.587889 -0.323461 0
M  V30 3720 H 350.869 -2.0101 -0.376175 0
M  V30 3721 H 349.024 -2.72394 -2.75464 0
M  V30 3722 H 349.438 -4.82481 -2.05699 0
M  V30 3723 H 350.912 -4.15723 -3.63151 0
M  V30 3724 H 351.389 -2.461 -3.63774 0
M  V30 3725 H 351.995 -3.53871 -2.35914 0
M  V30 3726 N 350.31 0.590341 -1.46126 0
M  V30 3727 C 351.721 1.17243 -1.45296 0
M  V30 3728 C 352.072 1.95281 -0.189723 0
M  V30 3729 O 351.197 2.04502 0.707674 0
M  V30 3730 C 351.792 2.13284 -2.6324 0
M  V30 3731 C 350.351 2.66832 -2.65476 0
M  V30 3732 C 349.498 1.42557 -2.3785 0
M  V30 3733 H 352.449 0.378692 -1.54116 0
M  V30 3734 H 352.47 2.96619 -2.38323 0
M  V30 3735 H 351.982 1.56459 -3.55165 0
M  V30 3736 H 350.083 3.27548 -1.77603 0
M  V30 3737 H 350.196 3.10088 -3.65215 0
M  V30 3738 H 348.56 1.72107 -1.87753 0
M  V30 3739 H 349.343 0.875741 -3.31942 0
M  V30 3740 N 351.788 1.33704 0.83433 0
M  V30 3741 C 352.72 1.20172 1.9517 0
M  V30 3742 C 353.733 0.131572 1.62267 0
M  V30 3743 O 354.922 0.382406 1.74356 0
M  V30 3744 C 352.022 0.821716 3.28787 0
M  V30 3745 C 351.195 1.98446 3.89792 0
M  V30 3746 C 350.254 1.58469 5.01771 0
M  V30 3747 O 349.28 2.29968 5.20676 0
M  V30 3748 N 350.482 0.492291 5.78409 0
M  V30 3749 H 353.247 2.16429 2.07313 0
M  V30 3750 H 350.808 1.26509 1.0103 0
M  V30 3751 H 352.8 0.536291 4.01131 0
M  V30 3752 H 351.37 -0.0503058 3.1256 0
M  V30 3753 H 350.59 2.43526 3.09982 0
M  V30 3754 H 351.878 2.76236 4.27283 0
M  V30 3755 H 351.276 -0.102349 5.65607 0
M  V30 3756 H 349.833 0.266555 6.51255 0
M  V30 3757 N 353.266 -1.05314 1.17247 0
M  V30 3758 C 354.213 -2.13031 0.888058 0
M  V30 3759 C 355.183 -1.65253 -0.167537 0
M  V30 3760 O 356.368 -1.90775 -0.0305974 0
M  V30 3761 C 353.508 -3.42702 0.406147 0
M  V30 3762 C 352.621 -4.04161 1.52572 0
M  V30 3763 C 351.756 -5.21744 0.997808 0
M  V30 3764 C 350.795 -5.75207 2.09291 0
M  V30 3765 N 349.932 -6.84094 1.57986 0
M  V30 3766 H 354.772 -2.36698 1.81048 0
M  V30 3767 H 352.309 -1.16121 0.903013 0
M  V30 3768 H 354.267 -4.17059 0.108305 0
M  V30 3769 H 352.897 -3.19222 -0.479313 0
M  V30 3770 H 351.949 -3.27253 1.93931 0
M  V30 3771 H 353.261 -4.39881 2.35172 0
M  V30 3772 H 352.415 -6.03168 0.653739 0
M  V30 3773 H 351.154 -4.87495 0.141232 0
M  V30 3774 H 350.159 -4.92414 2.44557 0
M  V30 3775 H 351.384 -6.11505 2.95362 0
M  V30 3776 H 349.33 -6.51745 0.74598 0
M  V30 3777 H 349.247 -7.18811 2.34195 0
M  V30 3778 H 350.515 -7.69172 1.26468 0
M  V30 3779 N 354.744 -0.972509 -1.24016 0
M  V30 3780 C 355.969 -0.654417 -1.96805 0
M  V30 3781 C 356.394 0.770398 -1.716 0
M  V30 3782 O 355.752 1.52361 -0.982647 0
M  V30 3783 C 355.8 -0.941031 -3.48105 0
M  V30 3784 O 354.904 -0.0289472 -4.1239 0
M  V30 3785 H 354.245 -0.24692 -0.616382 0
M  V30 3786 H 356.775 -1.30396 -1.57664 0
M  V30 3787 H 356.785 -0.87452 -3.98517 0
M  V30 3788 H 355.46 -1.97939 -3.65777 0
M  V30 3789 H 354.037 -0.149192 -3.72601 0
M  V30 3790 N 356.222 1.38976 -0.743202 0
M  V30 3791 C 357.638 1.53984 -0.419664 0
M  V30 3792 C 357.838 1.70837 1.0685 0
M  V30 3793 O 356.894 1.7135 1.8546 0
M  V30 3794 C 358.207 2.75287 -1.20985 0
M  V30 3795 C 359.755 2.89129 -1.19889 0
M  V30 3796 C 360.23 4.13381 -1.97181 0
M  V30 3797 N 361.721 4.20437 -1.94389 0
M  V30 3798 C 362.456 5.15547 -2.50996 0
M  V30 3799 N 361.952 6.16395 -3.16274 0
M  V30 3800 N 363.745 5.07822 -2.40984 0
M  V30 3801 H 355.896 1.26285 -1.7078 0
M  V30 3802 H 358.159 0.612689 -0.723406 0
M  V30 3803 H 357.865 2.69204 -2.26323 0
M  V30 3804 H 357.739 3.68184 -0.819759 0
M  V30 3805 H 360.126 2.947 -0.153606 0
M  V30 3806 H 360.207 1.97272 -1.62841 0
M  V30 3807 H 359.851 4.08572 -3.01714 0
M  V30 3808 H 359.781 5.04298 -1.51629 0
M  V30 3809 H 362.272 3.48205 -1.46839 0
M  V30 3810 H 362.585 6.85443 -3.56915 0
M  V30 3811 H 360.93 6.16758 -3.20367 0
M  V30 3812 H 364.121 4.27973 -1.89622 0
M  V30 3813 H 364.294 5.81767 -2.85397 0
M  V30 3814 N 357.7 0.491464 1.49741 0
M  V30 3815 C 358.648 -0.305837 2.30581 0
M  V30 3816 C 359.642 -0.971642 1.38764 0
M  V30 3817 O 360.848 -0.90042 1.5586 0
M  V30 3818 H 357.223 -0.117482 0.742767 0
M  V30 3819 H 359.194 0.396093 2.95759 0
M  V30 3820 C 357.943 -1.36319 3.19863 0
M  V30 3821 H 357.266 -0.860258 3.90435 0
M  V30 3822 H 358.706 -1.89323 3.79385 0
M  V30 3823 C 357.165 -2.37621 2.38826 0
M  V30 3824 O 357.695 -3.43311 2.08567 0
M  V30 3825 N 355.901 -2.09849 2.01026 0
M  V30 3826 H 355.448 -1.23922 2.25834 0
M  V30 3827 H 355.406 -2.77859 1.47112 0
M  V30 3828 N 359.178 -1.55987 0.224894 0
M  V30 3829 C 360.594 -1.59066 -0.130426 0
M  V30 3830 C 360.794 -1.24176 -1.5869 0
M  V30 3831 O 359.85 -0.978592 -2.32766 0
M  V30 3832 C 361.163 -3.00042 0.198883 0
M  V30 3833 C 362.711 -3.1268 0.141391 0
M  V30 3834 C 363.186 -4.55839 0.444422 0
M  V30 3835 N 364.677 -4.6152 0.394115 0
M  V30 3836 C 365.412 -5.70231 0.602038 0
M  V30 3837 N 364.908 -6.87291 0.871914 0
M  V30 3838 N 366.701 -5.59555 0.534245 0
M  V30 3839 H 358.852 -1.76941 1.17497 0
M  V30 3840 H 361.115 -0.822604 0.471197 0
M  V30 3841 H 360.821 -3.30234 1.2099 0
M  V30 3842 H 360.695 -3.74075 -0.484535 0
M  V30 3843 H 363.082 -2.82283 -0.860265 0
M  V30 3844 H 363.163 -2.40969 0.858335 0
M  V30 3845 H 362.807 -4.86954 1.44353 0
M  V30 3846 H 362.737 -5.2578 -0.293752 0
M  V30 3847 H 365.228 -3.77405 0.193356 0
M  V30 3848 H 365.541 -7.66058 1.01858 0
M  V30 3849 H 363.886 -6.89028 0.909145 0
M  V30 3850 H 367.077 -4.6698 0.323612 0
M  V30 3851 H 367.25 -6.44211 0.699693 0
M  V30 3852 N 360.656 0.0484629 -1.57525 0
M  V30 3853 C 361.603 1.05504 -2.05275 0
M  V30 3854 C 362.573 1.37084 -0.937927 0
M  V30 3855 O 363.758 1.47754 -1.2072 0
M  V30 3856 C 360.898 2.35676 -2.52093 0
M  V30 3857 C 360.011 2.10423 -3.77288 0
M  V30 3858 C 359.146 3.34327 -4.12794 0
M  V30 3859 C 358.185 3.04542 -5.30962 0
M  V30 3860 N 357.322 4.20841 -5.61994 0
M  V30 3861 H 362.162 0.640885 -2.91027 0
M  V30 3862 H 359.699 0.304854 -1.43906 0
M  V30 3863 H 361.657 3.11709 -2.77297 0
M  V30 3864 H 360.287 2.7485 -1.69285 0
M  V30 3865 H 359.339 1.24976 -3.59284 0
M  V30 3866 H 360.651 1.84438 -4.63448 0
M  V30 3867 H 359.805 4.1874 -4.39024 0
M  V30 3868 H 358.544 3.63408 -3.25247 0
M  V30 3869 H 357.549 2.18528 -5.04505 0
M  V30 3870 H 358.774 2.76758 -6.20146 0
M  V30 3871 H 356.72 4.4991 -4.77406 0
M  V30 3872 H 356.637 3.98212 -6.42622 0
M  V30 3873 H 357.905 5.06184 -5.92789 0
M  V30 3874 N 362.134 1.5431 0.320358 0
M  V30 3875 C 363.082 1.84647 1.4145 0
M  V30 3876 C 364.076 0.718624 1.53402 0
M  V30 3877 O 365.282 0.902335 1.5575 0
M  V30 3878 H 361.657 0.585349 0.472091 0
M  V30 3879 H 363.628 2.7614 1.13089 0
M  V30 3880 C 362.377 2.09341 2.77617 0
M  V30 3881 H 361.7 2.9559 2.69196 0
M  V30 3882 H 363.14 2.3452 3.53237 0
M  V30 3883 C 361.599 0.885939 3.25043 0
M  V30 3884 O 362.129 0.0967891 4.01583 0
M  V30 3885 N 360.335 0.696682 2.82125 0
M  V30 3886 H 359.882 1.34006 2.2 0
M  V30 3887 H 359.84 -0.109712 3.14209 0
M  V30 3888 N 363.613 -0.582584 1.46437 0
M  V30 3889 C 365.029 -0.905962 1.31394 0
M  V30 3890 C 365.229 -1.99468 0.285476 0
M  V30 3891 O 364.285 -2.50566 -0.311914 0
M  V30 3892 C 365.598 -1.3232 2.70022 0
M  V30 3893 C 367.146 -1.43604 2.78113 0
M  V30 3894 C 367.621 -1.88694 4.17323 0
M  V30 3895 N 369.112 -1.95887 4.19741 0
M  V30 3896 C 369.847 -2.32051 5.24347 0
M  V30 3897 N 369.343 -2.67006 6.39281 0
M  V30 3898 N 371.136 -2.32606 5.11713 0
M  V30 3899 H 363.287 0.1366 2.1196 0
M  V30 3900 H 365.55 -0.00155736 0.947999 0
M  V30 3901 H 365.256 -0.597242 3.46592 0
M  V30 3902 H 365.13 -2.28469 3.00136 0
M  V30 3903 H 367.517 -2.15286 2.01832 0
M  V30 3904 H 367.598 -0.457059 2.51684 0
M  V30 3905 H 367.242 -1.1759 4.941 0
M  V30 3906 H 367.172 -2.8755 4.4116 0
M  V30 3907 H 369.663 -1.71362 3.36814 0
M  V30 3908 H 369.976 -2.93554 7.14875 0
M  V30 3909 H 368.321 -2.64644 6.42642 0
M  V30 3910 H 371.512 -2.04721 4.2096 0
M  V30 3911 H 371.685 -2.60462 5.93349 0
M  V30 3912 N 365.091 -1.34144 -0.827227 0
M  V30 3913 C 366.316 -1.29476 -1.62021 0
M  V30 3914 C 366.741 0.129292 -1.87655 0
M  V30 3915 O 366.099 1.08967 -1.449 0
M  V30 3916 C 366.147 -2.08702 -2.94068 0
M  V30 3917 O 365.251 -1.45359 -3.85933 0
M  V30 3918 H 364.592 -0.444881 -0.492927 0
M  V30 3919 H 367.122 -1.76882 -1.02829 0
M  V30 3920 H 367.132 -2.19898 -3.43669 0
M  V30 3921 H 365.807 -3.12241 -2.74734 0
M  V30 3922 H 364.384 -1.42879 -3.44442 0
M  V30 3923 N 366.569 1.04691 -1.17803 0
M  V30 3924 C 367.794 1.81984 -0.994813 0
M  V30 3925 C 368.219 1.82586 0.452112 0
M  V30 3926 O 367.577 1.23854 1.324 0
M  V30 3927 C 367.625 3.2575 -1.54659 0
M  V30 3928 O 366.729 4.05267 -0.763728 0
M  V30 3929 H 366.07 0.562483 -0.352857 0
M  V30 3930 H 368.6 1.3189 -1.56417 0
M  V30 3931 H 368.61 3.76541 -1.57102 0
M  V30 3932 H 367.285 3.24627 -2.59981 0
M  V30 3933 H 365.862 3.63972 -0.811108 0
M  V30 3934 N 368.047 0.979072 1.23499 0
M  V30 3935 C 369.01 0.523244 2.23147 0
M  V30 3936 C 370.01 -0.386406 1.56088 0
M  V30 3937 O 371.2 -0.180283 1.73265 0
M  V30 3938 C 368.332 -0.240739 3.40049 0
M  V30 3939 H 369.525 1.40432 2.64989 0
M  V30 3940 H 367.078 0.764824 1.36309 0
M  V30 3941 H 367.813 -1.13841 3.03662 0
M  V30 3942 H 367.598 0.412207 3.89927 0
M  V30 3943 H 369.088 -0.548297 4.13985 0
M  V30 3944 N 369.525 -1.3858 0.750561 0
M  V30 3945 C 370.771 -2.00481 0.305825 0
M  V30 3946 C 371.104 -1.5944 -1.10872 0
M  V30 3947 O 370.379 -0.83052 -1.75877 0
M  V30 3948 C 370.662 -3.5758 0.425287 0
M  V30 3949 C 370.515 -4.08594 1.88072 0
M  V30 3950 C 371.834 -4.39719 -0.183122 0
M  V30 3951 H 368.953 -0.728348 0.112598 0
M  V30 3952 H 371.595 -1.64566 0.949638 0
M  V30 3953 H 369.745 -3.88306 -0.122828 0
M  V30 3954 H 371.417 -3.88523 2.48691 0
M  V30 3955 H 369.66 -3.61574 2.39681 0
M  V30 3956 H 370.331 -5.177 1.91548 0
M  V30 3957 H 372.807 -4.15128 0.284303 0
M  V30 3958 H 371.683 -5.48856 -0.0692757 0
M  V30 3959 H 371.944 -4.23434 -1.27106 0
M  V30 3960 N 371.003 -0.499398 -1.49478 0
M  V30 3961 C 372.28 0.108629 -1.95298 0
M  V30 3962 C 372.66 1.54282 -1.44084 0
M  V30 3963 O 372.008 2.18944 -0.653908 0
M  V30 3964 C 372.218 0.0229111 -3.48992 0
M  V30 3965 C 373.566 0.197643 -4.2414 0
M  V30 3966 O 374.59 0.0981735 -3.56065 0
M  V30 3967 O 373.449 0.401669 -5.45022 0
M  V30 3968 H 370.543 0.096181 -0.821388 0
M  V30 3969 H 373.089 -0.561822 -1.6013 0
M  V30 3970 H 371.861 -0.977321 -3.78899 0
M  V30 3971 H 371.484 0.733579 -3.90774 0
M  V30 3972 N 372.481 1.55866 -0.233164 0
M  V30 3973 C 373.892 1.847 0.272554 0
M  V30 3974 C 374.243 1.15477 1.58617 0
M  V30 3975 O 373.368 0.42841 2.12117 0
M  V30 3976 C 373.963 3.35071 0.501299 0
M  V30 3977 C 372.522 3.6418 0.951304 0
M  V30 3978 C 371.669 2.77292 0.0208209 0
M  V30 3979 H 374.62 1.52005 -0.456074 0
M  V30 3980 H 374.641 3.55906 1.34577 0
M  V30 3981 H 374.153 3.85424 -0.454936 0
M  V30 3982 H 372.254 3.19293 1.92049 0
M  V30 3983 H 372.367 4.72071 0.817675 0
M  V30 3984 H 370.731 2.49131 0.529723 0
M  V30 3985 H 371.514 3.30448 -0.93054 0
M  V30 3986 N 373.959 -0.0401083 1.57549 0
M  V30 3987 C 374.869 -1.06133 2.0922 0
M  V30 3988 C 375.885 -1.40356 1.0284 0
M  V30 3989 O 377.061 -1.49897 1.34509 0
M  V30 3990 C 374.126 -2.34658 2.55218 0
M  V30 3991 C 373.187 -2.07117 3.76033 0
M  V30 3992 C 372.42 -3.29514 4.19829 0
M  V30 3993 O 372.643 -4.39794 3.63232 0
M  V30 3994 O 371.577 -3.15863 5.12362 0
M  V30 3995 H 375.403 -0.652244 2.96613 0
M  V30 3996 H 372.988 -0.256368 1.47184 0
M  V30 3997 H 374.87 -3.10239 2.85184 0
M  V30 3998 H 373.545 -2.74883 1.70941 0
M  V30 3999 H 372.452 -1.29139 3.51104 0
M  V30 4000 H 373.785 -1.71754 4.61261 0
M  V30 4001 N 375.437 -1.54477 -0.31217 0
M  V30 4002 C 376.848 -1.64344 -0.885891 0
M  V30 4003 C 377.199 -0.54485 -1.88483 0
M  V30 4004 O 376.324 0.320387 -2.14015 0
M  V30 4005 C 376.919 -2.97908 -1.61357 0
M  V30 4006 C 375.478 -3.09933 -2.13585 0
M  V30 4007 C 374.625 -2.59971 -0.964897 0
M  V30 4008 H 377.576 -1.58448 -0.0894528 0
M  V30 4009 H 377.597 -2.88706 -2.47848 0
M  V30 4010 H 377.109 -3.77845 -0.886277 0
M  V30 4011 H 375.21 -2.34694 -2.89395 0
M  V30 4012 H 375.323 -4.15916 -2.37804 0
M  V30 4013 H 373.687 -2.16147 -1.34731 0
M  V30 4014 H 374.47 -3.42376 -0.251742 0
M  V30 4015 N 376.915 0.57481 -1.46744 0
M  V30 4016 C 377.847 1.69804 -1.53946 0
M  V30 4017 C 378.86 1.57098 -0.427106 0
M  V30 4018 O 380.049 1.64378 -0.695863 0
M  V30 4019 C 377.149 3.08125 -1.4111 0
M  V30 4020 C 376.322 3.46757 -2.66605 0
M  V30 4021 C 375.381 4.6417 -2.47855 0
M  V30 4022 O 374.407 4.69634 -3.21609 0
M  V30 4023 N 375.609 5.59553 -1.54534 0
M  V30 4024 H 378.374 1.64077 -2.50796 0
M  V30 4025 H 375.935 0.761 -1.429 0
M  V30 4026 H 377.927 3.84478 -1.26328 0
M  V30 4027 H 376.497 3.08175 -0.524109 0
M  V30 4028 H 375.717 2.6003 -2.96274 0
M  V30 4029 H 377.005 3.69337 -3.49954 0
M  V30 4030 H 376.403 5.57881 -0.937304 0
M  V30 4031 H 374.96 6.35304 -1.45711 0
M  V30 4032 N 378.394 1.34581 0.820102 0
M  V30 4033 C 379.64 1.27285 1.57881 0
M  V30 4034 C 379.973 -0.156137 1.93571 0
M  V30 4035 O 379.248 -1.10222 1.60254 0
M  V30 4036 C 379.531 2.16639 2.87645 0
M  V30 4037 C 379.384 3.68088 2.58517 0
M  V30 4038 C 380.703 2.05378 3.8924 0
M  V30 4039 H 377.822 0.463714 0.572833 0
M  V30 4040 H 380.464 1.64859 0.944539 0
M  V30 4041 H 378.614 1.84725 3.41773 0
M  V30 4042 H 380.286 4.10382 2.10676 0
M  V30 4043 H 378.529 3.89038 1.91917 0
M  V30 4044 H 379.2 4.2598 3.51063 0
M  V30 4045 H 381.676 2.33404 3.44473 0
M  V30 4046 H 380.552 2.7012 4.77835 0
M  V30 4047 H 380.813 1.0316 4.29896 0
M  V30 4048 N 379.872 -1.04064 1.18357 0
M  V30 4049 C 380.819 -2.12077 0.910603 0
M  V30 4050 C 381.789 -1.65421 -0.15 0
M  V30 4051 O 382.974 -1.90797 -0.0103614 0
M  V30 4052 C 380.114 -3.42252 0.442472 0
M  V30 4053 C 379.227 -4.0252 1.5685 0
M  V30 4054 C 378.362 -5.20657 1.05309 0
M  V30 4055 C 377.401 -5.72955 2.1538 0
M  V30 4056 N 376.538 -6.8238 1.65233 0
M  V30 4057 H 381.378 -2.34764 1.83548 0
M  V30 4058 H 378.915 -1.15157 0.915279 0
M  V30 4059 H 380.873 -4.16921 0.152534 0
M  V30 4060 H 379.503 -3.19712 -0.445428 0
M  V30 4061 H 378.555 -3.25178 1.97391 0
M  V30 4062 H 379.867 -4.37362 2.39824 0
M  V30 4063 H 379.021 -6.0244 0.717677 0
M  V30 4064 H 377.76 -4.87318 0.19293 0
M  V30 4065 H 376.765 -4.89793 2.49766 0
M  V30 4066 H 377.99 -6.08337 3.01832 0
M  V30 4067 H 375.936 -6.50917 0.815064 0
M  V30 4068 H 375.853 -7.16286 2.41805 0
M  V30 4069 H 377.121 -7.67788 1.34619 0
M  V30 4070 N 381.35 -0.985608 -1.22978 0
M  V30 4071 C 382.28 -0.549649 -2.26939 0
M  V30 4072 C 383.261 0.419803 -1.64838 0
M  V30 4073 O 384.446 0.31203 -1.91677 0
M  V30 4074 C 381.576 0.143652 -3.47003 0
M  V30 4075 C 380.53 -0.743606 -4.21491 0
M  V30 4076 C 379.856 0.0822027 -5.34637 0
M  V30 4077 C 381.156 -2.03694 -4.80943 0
M  V30 4078 H 382.85 -1.41862 -2.63658 0
M  V30 4079 H 380.396 -0.683571 -1.26741 0
M  V30 4080 H 382.349 0.459985 -4.18882 0
M  V30 4081 H 381.073 1.04711 -3.09359 0
M  V30 4082 H 379.732 -1.04347 -3.51436 0
M  V30 4083 H 379.38 0.986359 -4.93234 0
M  V30 4084 H 379.08 -0.508377 -5.85397 0
M  V30 4085 H 380.604 0.392797 -6.09335 0
M  V30 4086 H 382.018 -1.78504 -5.44802 0
M  V30 4087 H 380.415 -2.57573 -5.42011 0
M  V30 4088 H 381.485 -2.72042 -4.01399 0
M  V30 4089 N 382.828 1.3818 -0.7579 0
M  V30 4090 C 383.738 2.3421 -0.135247 0
M  V30 4091 C 384.754 1.59487 0.695683 0
M  V30 4092 O 385.93 1.91657 0.618832 0
M  V30 4093 C 382.995 3.3862 0.744139 0
M  V30 4094 C 382.056 4.2918 -0.101658 0
M  V30 4095 C 381.289 5.28603 0.735851 0
M  V30 4096 O 381.512 5.35166 1.97366 0
M  V30 4097 O 380.446 6.01707 0.152372 0
M  V30 4098 H 384.272 2.8916 -0.928436 0
M  V30 4099 H 381.857 1.40101 -0.518855 0
M  V30 4100 H 383.739 4.02539 1.2466 0
M  V30 4101 H 382.414 2.86019 1.51575 0
M  V30 4102 H 381.321 3.68407 -0.650167 0
M  V30 4103 H 382.654 4.85048 -0.836024 0
M  V30 4104 N 384.306 0.507319 1.49211 0
M  V30 4105 C 385.583 -0.0982702 1.95353 0
M  V30 4106 C 385.963 -1.53516 1.449 0
M  V30 4107 O 385.311 -2.18594 0.66551 0
M  V30 4108 C 385.521 -0.00440283 3.49 0
M  V30 4109 C 386.869 -0.175147 4.24239 0
M  V30 4110 O 387.893 -0.0792891 3.56112 0
M  V30 4111 O 386.752 -0.37276 5.45227 0
M  V30 4112 H 383.846 -0.0918236 0.821887 0
M  V30 4113 H 386.392 0.570307 1.5983 0
M  V30 4114 H 385.164 0.997402 3.78375 0
M  V30 4115 H 384.787 -0.712845 3.91158 0
M  V30 4116 N 385.784 -1.5574 0.241426 0
M  V30 4117 C 387.03 -1.99104 -0.385406 0
M  V30 4118 C 387.363 -1.1293 -1.57988 0
M  V30 4119 O 386.638 -0.191449 -1.93555 0
M  V30 4120 C 386.921 -3.51087 -0.800616 0
M  V30 4121 C 386.774 -4.48028 0.398874 0
M  V30 4122 C 388.093 -4.08015 -1.64959 0
M  V30 4123 H 385.212 -0.723848 -0.138614 0
M  V30 4124 H 387.854 -1.86903 0.341642 0
M  V30 4125 H 386.004 -3.61615 -1.4201 0
M  V30 4126 H 387.676 -4.49487 1.03726 0
M  V30 4127 H 385.919 -4.21077 1.04293 0
M  V30 4128 H 386.59 -5.51962 0.0651056 0
M  V30 4129 H 389.066 -4.00555 -1.12672 0
M  V30 4130 H 387.942 -5.14635 -1.90898 0
M  V30 4131 H 388.203 -3.56131 -2.61961 0
M  V30 4132 N 387.262 0.0317525 -1.57568 0
M  V30 4133 C 388.192 1.03274 -2.0942 0
M  V30 4134 C 389.173 1.3788 -0.996143 0
M  V30 4135 O 390.358 1.46811 -1.27122 0
M  V30 4136 C 387.488 2.33448 -2.57137 0
M  V30 4137 C 386.442 2.13091 -3.71182 0
M  V30 4138 C 385.768 3.49001 -4.05095 0
M  V30 4139 C 387.068 1.51928 -4.99715 0
M  V30 4140 H 388.762 0.60112 -2.93303 0
M  V30 4141 H 386.308 0.287705 -1.41097 0
M  V30 4142 H 388.261 3.03802 -2.92032 0
M  V30 4143 H 386.985 2.78665 -1.70333 0
M  V30 4144 H 385.644 1.45171 -3.36632 0
M  V30 4145 H 385.292 3.91862 -3.15362 0
M  V30 4146 H 384.992 3.36207 -4.81911 0
M  V30 4147 H 386.516 4.20721 -4.42522 0
M  V30 4148 H 387.93 2.12196 -5.32584 0
M  V30 4149 H 386.327 1.49716 -5.81124 0
M  V30 4150 H 387.397 0.484811 -4.8247 0
M  V30 4151 N 388.74 1.54641 0.303973 0
M  V30 4152 C 390.151 1.64811 0.877163 0
M  V30 4153 C 390.502 0.554838 1.88191 0
M  V30 4154 O 389.627 -0.309033 2.14182 0
M  V30 4155 C 390.222 2.9876 1.59775 0
M  V30 4156 C 388.781 3.11061 2.11938 0
M  V30 4157 C 387.928 2.60479 0.951097 0
M  V30 4158 H 390.879 1.58493 0.0810486 0
M  V30 4159 H 390.9 2.90017 2.46314 0
M  V30 4160 H 390.412 3.7831 0.866226 0
M  V30 4161 H 388.513 2.36225 2.88146 0
M  V30 4162 H 388.626 4.17171 2.35595 0
M  V30 4163 H 386.99 2.16859 1.33583 0
M  V30 4164 H 387.773 3.42504 0.233581 0
M  V30 4165 N 390.218 -0.567019 1.47046 0
M  V30 4166 C 391.148 -1.68482 1.61667 0
M  V30 4167 C 392.129 -1.6358 0.466418 0
M  V30 4168 O 393.314 -1.81354 0.694574 0
M  V30 4169 C 390.444 -3.07124 1.62148 0
M  V30 4170 C 389.398 -3.26867 2.76301 0
M  V30 4171 C 388.724 -4.66196 2.61849 0
M  V30 4172 C 390.024 -3.13186 4.17986 0
M  V30 4173 H 391.718 -1.56502 2.5524 0
M  V30 4174 H 389.264 -0.751486 1.22836 0
M  V30 4175 H 391.217 -3.8516 1.70968 0
M  V30 4176 H 389.941 -3.2004 0.651287 0
M  V30 4177 H 388.6 -2.51237 2.66975 0
M  V30 4178 H 388.248 -4.75898 1.62879 0
M  V30 4179 H 387.948 -4.80356 3.38425 0
M  V30 4180 H 389.472 -5.46379 2.72584 0
M  V30 4181 H 390.886 -3.81049 4.2834 0
M  V30 4182 H 389.283 -3.3886 4.95272 0
M  V30 4183 H 390.353 -2.10057 4.3704 0
M  V30 4184 N 391.696 -1.35014 -0.812953 0
M  V30 4185 C 392.659 -1.27292 -1.90602 0
M  V30 4186 C 393.659 -0.185817 -1.59723 0
M  V30 4187 O 394.849 -0.439102 -1.68575 0
M  V30 4188 C 391.981 -0.967676 -3.26877 0
M  V30 4189 H 393.174 -2.24479 -1.9887 0
M  V30 4190 H 390.727 -1.19446 -1.00808 0
M  V30 4191 H 391.462 0.0005954 -3.243 0
M  V30 4192 H 391.247 -1.75412 -3.50675 0
M  V30 4193 H 392.737 -0.939085 -4.06904 0
M  V30 4194 N 393.175 1.03435 -1.18907 0
M  V30 4195 C 394.422 1.76743 -0.988334 0
M  V30 4196 C 394.75 1.88447 0.481441 0
M  V30 4197 O 394.005 1.39383 1.37371 0
M  V30 4198 C 394.304 3.19792 -1.59586 0
M  V30 4199 C 393.97 3.28108 -3.09283 0
M  V30 4200 C 392.632 3.30084 -3.5014 0
M  V30 4201 C 394.984 3.27696 -4.05296 0
M  V30 4202 C 392.312 3.29299 -4.85571 0
M  V30 4203 C 394.664 3.28451 -5.4065 0
M  V30 4204 C 393.328 3.28723 -5.80946 0
M  V30 4205 H 392.598 0.64675 -0.361657 0
M  V30 4206 H 395.245 1.21442 -1.48068 0
M  V30 4207 H 393.55 3.78136 -1.02568 0
M  V30 4208 H 395.247 3.75171 -1.41589 0
M  V30 4209 H 391.837 3.27294 -2.76725 0
M  V30 4210 H 396.021 3.25354 -3.74778 0
M  V30 4211 H 391.277 3.2783 -5.16079 0
M  V30 4212 H 395.451 3.27082 -6.14809 0
M  V30 4213 H 393.078 3.27868 -6.85862 0
M  V30 4214 N 394.653 0.992116 1.22453 0
M  V30 4215 C 395.881 0.685944 1.95198 0
M  V30 4216 C 396.296 -0.749233 1.73297 0
M  V30 4217 O 395.653 -1.50549 1.03156 0
M  V30 4218 C 395.704 0.981395 3.47924 0
M  V30 4219 O 395.425 2.36018 3.6909 0
M  V30 4220 C 396.926 0.692815 4.37853 0
M  V30 4221 H 394.146 0.253821 0.621141 0
M  V30 4222 H 396.69 1.32668 1.55626 0
M  V30 4223 H 394.845 0.386481 3.85467 0
M  V30 4224 H 395.259 2.45884 4.63294 0
M  V30 4225 H 396.733 0.949818 5.43767 0
M  V30 4226 H 397.21 -0.373181 4.37612 0
M  V30 4227 H 397.816 1.26874 4.05935 0
M  V30 4228 N 396.131 -1.37776 0.765217 0
M  V30 4229 C 397.547 -1.53297 0.444108 0
M  V30 4230 C 397.747 -1.72515 -1.04119 0
M  V30 4231 O 396.803 -1.74278 -1.82711 0
M  V30 4232 C 398.116 -2.73328 1.25349 0
M  V30 4233 C 399.664 -2.87185 1.24473 0
M  V30 4234 C 400.139 -4.10191 2.03733 0
M  V30 4235 N 401.63 -4.17291 2.01053 0
M  V30 4236 C 402.365 -5.11488 2.59166 0
M  V30 4237 N 401.861 -6.11285 3.26041 0
M  V30 4238 N 403.654 -5.03924 2.49032 0
M  V30 4239 H 395.805 -1.23552 1.72768 0
M  V30 4240 H 398.068 -0.601103 0.733062 0
M  V30 4241 H 397.774 -2.6557 2.30577 0
M  V30 4242 H 397.648 -3.66834 0.87823 0
M  V30 4243 H 400.035 -2.94418 0.20047 0
M  V30 4244 H 400.116 -1.94657 1.65959 0
M  V30 4245 H 399.76 -4.0372 3.08176 0
M  V30 4246 H 399.69 -5.01821 1.59633 0
M  V30 4247 H 402.181 -3.45825 1.5236 0
M  V30 4248 H 402.494 -6.79678 3.67774 0
M  V30 4249 H 400.839 -6.11583 3.30138 0
M  V30 4250 H 404.03 -4.24902 1.96407 0
M  V30 4251 H 404.203 -5.77152 2.94617 0
M  V30 4252 N 397.609 -0.515225 -1.4894 0
M  V30 4253 C 398.539 0.244628 -2.32215 0
M  V30 4254 C 399.52 0.949136 -1.41157 0
M  V30 4255 O 400.705 0.937783 -1.70057 0
M  V30 4256 C 397.835 1.30096 -3.22013 0
M  V30 4257 C 396.789 0.715486 -4.21977 0
M  V30 4258 C 396.115 1.87339 -5.00808 0
M  V30 4259 C 397.415 -0.302982 -5.2142 0
M  V30 4260 H 399.109 -0.450501 -2.95991 0
M  V30 4261 H 396.655 -0.218098 -1.42339 0
M  V30 4262 H 398.608 1.84037 -3.79089 0
M  V30 4263 H 397.332 2.02547 -2.56207 0
M  V30 4264 H 395.991 0.197715 -3.66066 0
M  V30 4265 H 395.639 2.58592 -4.31438 0
M  V30 4266 H 395.339 1.48764 -5.68457 0
M  V30 4267 H 396.863 2.41686 -5.60732 0
M  V30 4268 H 398.277 0.148802 -5.73107 0
M  V30 4269 H 396.674 -0.60532 -5.97039 0
M  V30 4270 H 397.744 -1.21395 -4.69459 0
M  V30 4271 N 399.087 1.5561 -0.249682 0
M  V30 4272 C 400.327 2.00916 0.37579 0
M  V30 4273 C 400.691 1.13409 1.54927 0
M  V30 4274 O 401.892 1.48183 2.24266 0
M  V30 4275 C 400.163 3.48949 0.772633 0
M  V30 4276 S 401.722 4.16261 1.38824 0
M  V30 4277 H 398.54 0.70112 0.118117 0
M  V30 4278 H 401.142 1.92052 -0.365567 0
M  V30 4279 H 399.846 4.103 -0.090683 0
M  V30 4280 H 399.377 3.61745 1.5461 0
M  V30 4281 H 401.392 4.17778 2.67724 0
M  V30 4282 N 400.565 -0.0233959 1.57583 0
M  V30 4283 C 401.475 -1.03907 2.10334 0
M  V30 4284 C 402.491 -1.39257 1.04323 0
M  V30 4285 O 403.667 -1.48462 1.36091 0
M  V30 4286 C 400.732 -2.31938 2.57693 0
M  V30 4287 C 399.793 -2.03117 3.78209 0
M  V30 4288 C 399.026 -3.25043 4.233 0
M  V30 4289 O 399.249 -4.35916 3.67876 0
M  V30 4290 O 398.183 -3.10411 5.15683 0
M  V30 4291 H 402.009 -0.620748 2.97288 0
M  V30 4292 H 399.594 -0.240743 1.47448 0
M  V30 4293 H 401.476 -3.07196 2.88458 0
M  V30 4294 H 400.151 -2.73055 1.73847 0
M  V30 4295 H 399.058 -1.25408 3.52454 0
M  V30 4296 H 400.391 -1.66852 4.63056 0
M  V30 4297 N 402.043 -1.548 -0.295768 0
M  V30 4298 C 403.454 -1.65274 -0.868411 0
M  V30 4299 C 403.805 -0.56481 -1.87894 0
M  V30 4300 O 402.93 0.29767 -2.14343 0
M  V30 4301 C 403.525 -2.99603 -1.58188 0
M  V30 4302 C 402.084 -3.12181 -2.10286 0
M  V30 4303 C 401.231 -2.6098 -0.93727 0
M  V30 4304 H 404.182 -1.58534 -0.0726422 0
M  V30 4305 H 404.203 -2.91319 -2.44772 0
M  V30 4306 H 403.715 -3.78764 -0.846151 0
M  V30 4307 H 401.816 -2.3775 -2.8689 0
M  V30 4308 H 401.929 -4.18415 -2.33379 0
M  V30 4309 H 400.293 -2.17564 -1.32431 0
M  V30 4310 H 401.076 -3.42623 -0.215414 0
M  V30 4311 N 403.521 0.559213 -1.47345 0
M  V30 4312 C 404.468 1.66645 -1.59682 0
M  V30 4313 C 405.438 1.60168 -0.43994 0
M  V30 4314 O 406.623 1.79031 -0.659736 0
M  V30 4315 C 403.763 3.04969 -1.61518 0
M  V30 4316 C 402.876 3.21897 -2.88108 0
M  V30 4317 C 402.011 4.50608 -2.81294 0
M  V30 4318 C 401.05 4.60961 -4.02717 0
M  V30 4319 N 400.187 5.81024 -3.94151 0
M  V30 4320 H 405.027 1.55439 -2.54249 0
M  V30 4321 H 402.564 0.757219 -1.26113 0
M  V30 4322 H 404.522 3.85064 -1.60566 0
M  V30 4323 H 403.152 3.15015 -0.704645 0
M  V30 4324 H 402.204 2.35248 -2.98936 0
M  V30 4325 H 403.516 3.25412 -3.78032 0
M  V30 4326 H 402.67 5.3896 -2.7858 0
M  V30 4327 H 401.409 4.49568 -1.89049 0
M  V30 4328 H 400.414 3.71021 -4.05738 0
M  V30 4329 H 401.639 4.63761 -4.96087 0
M  V30 4330 H 399.585 5.80938 -3.04708 0
M  V30 4331 H 399.502 5.85909 -4.77752 0
M  V30 4332 H 400.77 6.71744 -3.9545 0
M  V30 4333 N 404.999 1.35443 0.805782 0
M  V30 4334 C 405.909 1.30546 1.94923 0
M  V30 4335 C 406.925 0.210233 1.72725 0
M  V30 4336 O 408.101 0.43975 1.9654 0
M  V30 4337 C 405.166 1.07782 3.29521 0
M  V30 4338 C 404.227 2.26625 3.64609 0
M  V30 4339 C 403.46 2.04938 4.92784 0
M  V30 4340 O 403.683 1.01624 5.61274 0
M  V30 4341 O 402.617 2.9232 5.26149 0
M  V30 4342 H 406.443 2.26779 2.02002 0
M  V30 4343 H 404.028 1.15823 0.943682 0
M  V30 4344 H 405.91 0.969392 4.10098 0
M  V30 4345 H 404.585 0.146003 3.23371 0
M  V30 4346 H 403.492 2.43033 2.84404 0
M  V30 4347 H 404.825 3.18257 3.75464 0
M  V30 4348 N 406.477 -1.02803 1.19454 0
M  V30 4349 C 407.44 -2.09264 0.934955 0
M  V30 4350 C 408.44 -1.60576 -0.0849015 0
M  V30 4351 O 409.63 -1.73554 0.149933 0
M  V30 4352 C 406.762 -3.38482 0.40531 0
M  V30 4353 H 407.955 -2.33726 1.87916 0
M  V30 4354 H 405.508 -1.19426 1.00832 0
M  V30 4355 H 406.243 -3.19689 -0.544899 0
M  V30 4356 H 406.028 -3.75142 1.14065 0
M  V30 4357 H 407.518 -4.16894 0.242806 0
M  V30 4358 N 407.956 -0.998596 -1.21925 0
M  V30 4359 C 409.181 -0.696015 -1.95372 0
M  V30 4360 C 409.606 0.733826 -1.73195 0
M  V30 4361 O 408.964 1.50242 -1.01474 0
M  V30 4362 C 409.012 -1.01466 -3.4603 0
M  V30 4363 O 408.116 -0.116415 -4.12236 0
M  V30 4364 H 407.457 -0.259938 -0.611006 0
M  V30 4365 H 409.987 -1.33711 -1.54863 0
M  V30 4366 H 409.997 -0.958855 -3.96573 0
M  V30 4367 H 408.672 -2.05653 -3.61497 0
M  V30 4368 H 407.249 -0.228193 -3.72201 0
M  V30 4369 N 409.434 1.37368 -0.772513 0
M  V30 4370 C 410.664 2.03647 -0.348082 0
M  V30 4371 C 411.072 1.58392 1.03482 0
M  V30 4372 O 410.415 0.760921 1.672 0
M  V30 4373 C 410.477 3.58131 -0.313404 0
M  V30 4374 C 410.141 4.2652 -1.64102 0
M  V30 4375 C 411.138 4.50587 -2.5936 0
M  V30 4376 C 408.823 4.64335 -1.91567 0
M  V30 4377 C 410.817 5.11526 -3.80289 0
M  V30 4378 C 408.504 5.24996 -3.12766 0
M  V30 4379 C 409.502 5.48529 -4.06946 0
M  V30 4380 O 409.19 6.07921 -5.26011 0
M  V30 4381 H 408.922 0.660538 -0.143753 0
M  V30 4382 H 411.476 1.76669 -1.04772 0
M  V30 4383 H 409.706 3.84159 0.442617 0
M  V30 4384 H 411.395 4.05813 0.0840613 0
M  V30 4385 H 412.161 4.21784 -2.39423 0
M  V30 4386 H 408.04 4.45353 -1.19088 0
M  V30 4387 H 411.584 5.29811 -4.53813 0
M  V30 4388 H 407.481 5.53223 -3.32588 0
M  V30 4389 H 408.249 6.26398 -5.26847 0
M  V30 4390 N 410.912 0.523116 1.48665 0
M  V30 4391 C 412.137 -0.0117284 2.07397 0
M  V30 4392 C 412.562 -1.28031 1.37803 0
M  V30 4393 O 411.92 -1.75836 0.441762 0
M  V30 4394 C 411.968 -0.225786 3.59892 0
M  V30 4395 O 411.072 -1.29592 3.91509 0
M  V30 4396 H 410.413 0.0360673 0.66302 0
M  V30 4397 H 412.943 0.729066 1.9117 0
M  V30 4398 H 412.953 -0.450552 4.05505 0
M  V30 4399 H 411.628 0.700944 4.09951 0
M  V30 4400 H 410.205 -1.05436 3.57684 0
M  V30 4401 N 412.39 -1.55475 0.257931 0
M  V30 4402 C 413.32 -2.24815 -0.630912 0
M  V30 4403 C 414.301 -1.23224 -1.17259 0
M  V30 4404 O 415.486 -1.51904 -1.20991 0
M  V30 4405 C 412.616 -2.95609 -1.82298 0
M  V30 4406 C 411.57 -4.03982 -1.41359 0
M  V30 4407 C 410.896 -4.6226 -2.68738 0
M  V30 4408 C 412.196 -5.19109 -0.57648 0
M  V30 4409 H 413.89 -2.99354 -0.0526878 0
M  V30 4410 H 411.436 -1.4398 -0.023901 0
M  V30 4411 H 413.389 -3.42822 -2.45054 0
M  V30 4412 H 412.113 -2.18577 -2.42676 0
M  V30 4413 H 410.772 -3.57555 -0.809324 0
M  V30 4414 H 410.42 -3.81915 -3.27338 0
M  V30 4415 H 410.12 -5.35424 -2.42065 0
M  V30 4416 H 411.644 -5.12212 -3.32372 0
M  V30 4417 H 413.058 -5.62479 -1.10861 0
M  V30 4418 H 411.455 -5.98729 -0.405351 0
M  V30 4419 H 412.525 -4.83174 0.408776 0
M  V30 4420 N 413.868 0.0150385 -1.57593 0
M  V30 4421 C 415.117 0.702115 -1.89085 0
M  V30 4422 C 415.43 1.75764 -0.858277 0
M  V30 4423 O 416.636 2.49829 -1.0629 0
M  V30 4424 C 415.092 1.29992 -3.35604 0
M  V30 4425 C 414.7 0.280007 -4.47124 0
M  V30 4426 C 416.444 1.96606 -3.76227 0
M  V30 4427 C 414.351 0.886949 -5.84711 0
M  V30 4428 H 413.281 0.265997 -0.705522 0
M  V30 4429 H 415.932 -0.0430408 -1.8345 0
M  V30 4430 H 414.314 2.09525 -3.36029 0
M  V30 4431 H 415.488 -0.489631 -4.58191 0
M  V30 4432 H 413.803 -0.284835 -4.15425 0
M  V30 4433 H 416.4 2.42893 -4.76347 0
M  V30 4434 H 416.743 2.79024 -3.08952 0
M  V30 4435 H 417.276 1.23828 -3.78036 0
M  V30 4436 H 414.015 0.101876 -6.55421 0
M  V30 4437 H 413.535 1.6261 -5.77337 0
M  V30 4438 H 415.214 1.39011 -6.3189 0
M  V30 4439 N 415.346 1.54954 0.287554 0
M  V30 4440 C 416.762 1.46469 0.633964 0
M  V30 4441 C 416.962 0.666865 1.90145 0
M  V30 4442 O 416.018 0.179906 2.51858 0
M  V30 4443 C 417.331 2.90556 0.774454 0
M  V30 4444 C 418.879 3.00681 0.869462 0
M  V30 4445 C 419.354 4.45993 1.04184 0
M  V30 4446 N 420.845 4.4976 1.10772 0
M  V30 4447 C 421.58 5.59393 1.25964 0
M  V30 4448 N 421.076 6.78923 1.37968 0
M  V30 4449 N 422.869 5.47107 1.28959 0
M  V30 4450 H 415.02 2.05288 -0.545041 0
M  V30 4451 H 417.283 0.930305 -0.182308 0
M  V30 4452 H 416.989 3.51594 -0.086207 0
M  V30 4453 H 416.863 3.38743 1.6593 0
M  V30 4454 H 419.25 2.39749 1.7206 0
M  V30 4455 H 419.331 2.55769 -0.0396831 0
M  V30 4456 H 418.975 5.07524 0.195422 0
M  V30 4457 H 418.905 4.88548 1.96542 0
M  V30 4458 H 421.396 3.63651 1.02794 0
M  V30 4459 H 421.709 7.58231 1.49353 0
M  V30 4460 H 420.054 6.81763 1.34999 0
M  V30 4461 H 423.245 4.52668 1.19202 0
M  V30 4462 H 423.418 6.32595 1.40455 0
M  V30 4463 N 416.824 -0.551391 1.4764 0
M  V30 4464 C 417.771 -1.65796 1.60563 0
M  V30 4465 C 418.741 -1.59932 0.448428 0
M  V30 4466 O 419.926 -1.78679 0.669222 0
M  V30 4467 C 417.066 -3.04108 1.63133 0
M  V30 4468 C 416.179 -3.20365 2.89811 0
M  V30 4469 C 415.314 -4.49109 2.8368 0
M  V30 4470 C 414.353 -4.58819 4.05156 0
M  V30 4471 N 413.49 -5.78926 3.97227 0
M  V30 4472 H 418.33 -1.54088 2.5507 0
M  V30 4473 H 415.867 -0.75052 1.26513 0
M  V30 4474 H 417.825 -3.84207 1.62606 0
M  V30 4475 H 416.455 -3.14637 0.721341 0
M  V30 4476 H 415.507 -2.33659 3.00179 0
M  V30 4477 H 416.819 -3.23402 3.79753 0
M  V30 4478 H 415.973 -5.37475 2.81434 0
M  V30 4479 H 414.712 -4.4856 1.91431 0
M  V30 4480 H 413.717 -3.68864 4.077 0
M  V30 4481 H 414.942 -4.61124 4.98539 0
M  V30 4482 H 412.888 -5.79314 3.07785 0
M  V30 4483 H 412.805 -5.83367 4.80853 0
M  V30 4484 H 414.073 -6.69637 3.99007 0
M  V30 4485 N 418.302 -1.35869 -0.798587 0
M  V30 4486 C 419.532 -1.32529 -1.58491 0
M  V30 4487 C 419.94 0.0975405 -1.88948 0
M  V30 4488 O 419.283 1.06224 -1.49874 0
M  V30 4489 C 419.345 -2.07247 -2.9375 0
M  V30 4490 C 419.009 -3.56391 -2.86068 0
M  V30 4491 C 420.006 -4.50824 -2.58947 0
M  V30 4492 C 417.691 -3.9915 -3.04933 0
M  V30 4493 C 419.685 -5.85993 -2.5078 0
M  V30 4494 C 417.372 -5.34413 -2.96389 0
M  V30 4495 C 418.37 -6.27646 -2.69349 0
M  V30 4496 O 418.058 -7.60426 -2.60782 0
M  V30 4497 H 417.79 -0.456529 -0.498556 0
M  V30 4498 H 420.344 -1.79425 -0.999799 0
M  V30 4499 H 418.574 -1.55001 -3.54276 0
M  V30 4500 H 420.263 -1.96883 -3.54954 0
M  V30 4501 H 421.029 -4.19104 -2.44084 0
M  V30 4502 H 416.908 -3.26961 -3.24989 0
M  V30 4503 H 420.452 -6.58735 -2.29595 0
M  V30 4504 H 416.349 -5.65743 -3.10813 0
M  V30 4505 H 417.117 -7.70444 -2.76331 0
M  V30 4506 N 419.78 1.02168 -1.19998 0
M  V30 4507 C 421.026 1.75945 -1.00852 0
M  V30 4508 C 421.359 1.88702 0.458828 0
M  V30 4509 O 420.634 1.40911 1.34069 0
M  V30 4510 C 420.917 3.18154 -1.68671 0
M  V30 4511 C 420.77 3.13224 -3.22817 0
M  V30 4512 C 422.089 4.16711 -1.41561 0
M  V30 4513 H 419.208 0.638673 -0.367785 0
M  V30 4514 H 421.85 1.19222 -1.4794 0
M  V30 4515 H 420 3.66586 -1.28636 0
M  V30 4516 H 421.672 2.72635 -3.72112 0
M  V30 4517 H 419.915 2.50751 -3.53986 0
M  V30 4518 H 420.586 4.13728 -3.65422 0
M  V30 4519 H 423.062 3.76913 -1.76284 0
M  V30 4520 H 421.938 5.14391 -1.91553 0
M  V30 4521 H 422.199 4.40774 -0.342193 0
M  V30 4522 N 421.258 1.00505 1.21394 0
M  V30 4523 C 422.483 0.706367 1.95001 0
M  V30 4524 C 422.908 -0.72463 1.73582 0
M  V30 4525 O 422.266 -1.49702 1.0227 0
M  V30 4526 C 422.314 1.03299 3.45487 0
M  V30 4527 O 421.418 0.138275 4.12168 0
M  V30 4528 H 420.759 0.263175 0.609619 0
M  V30 4529 H 423.289 1.34531 1.54151 0
M  V30 4530 H 423.299 0.979872 3.96059 0
M  V30 4531 H 421.974 2.07567 3.60401 0
M  V30 4532 H 420.551 0.247928 3.72075 0
M  V30 4533 N 422.737 -1.36956 0.779787 0
M  V30 4534 C 423.669 -2.28833 0.129639 0
M  V30 4535 C 424.682 -1.4902 -0.655511 0
M  V30 4536 O 425.871 -1.71578 -0.492279 0
M  V30 4537 C 422.971 -3.2833 -0.839792 0
M  V30 4538 C 422.144 -4.3727 -0.10675 0
M  V30 4539 C 421.203 -5.16789 -0.990717 0
M  V30 4540 O 420.229 -5.67406 -0.451516 0
M  V30 4541 N 421.431 -5.32294 -2.3161 0
M  V30 4542 H 424.196 -2.85268 0.918803 0
M  V30 4543 H 421.757 -1.49019 0.632841 0
M  V30 4544 H 423.749 -3.78413 -1.43477 0
M  V30 4545 H 422.319 -2.72605 -1.52988 0
M  V30 4546 H 421.539 -3.88478 0.669216 0
M  V30 4547 H 422.827 -5.07229 0.399464 0
M  V30 4548 H 422.225 -4.92768 -2.77843 0
M  V30 4549 H 420.782 -5.85656 -2.86095 0
M  V30 4550 N 424.215 -0.530993 -1.48385 0
M  V30 4551 C 425.445 -0.00133928 -2.066 0
M  V30 4552 C 425.853 1.28599 -1.38777 0
M  V30 4553 O 425.196 1.77599 -0.469495 0
M  V30 4554 C 425.258 0.292137 -3.58311 0
M  V30 4555 C 424.922 -0.901864 -4.48013 0
M  V30 4556 C 425.919 -1.80053 -4.87726 0
M  V30 4557 C 423.604 -1.10915 -4.89901 0
M  V30 4558 C 425.598 -2.89038 -5.68098 0
M  V30 4559 C 423.285 -2.20213 -5.70043 0
M  V30 4560 C 424.283 -3.09107 -6.0905 0
M  V30 4561 O 423.971 -4.16514 -6.87583 0
M  V30 4562 H 423.703 -0.0308475 -0.675296 0
M  V30 4563 H 426.257 -0.736335 -1.91748 0
M  V30 4564 H 424.487 1.08112 -3.7128 0
M  V30 4565 H 426.176 0.763994 -3.98645 0
M  V30 4566 H 426.942 -1.65234 -4.55986 0
M  V30 4567 H 422.821 -0.426498 -4.59023 0
M  V30 4568 H 426.365 -3.58451 -5.98464 0
M  V30 4569 H 422.262 -2.35016 -6.01197 0
M  V30 4570 H 423.03 -4.14237 -7.05939 0
M  V30 4571 N 425.693 1.55336 -0.266172 0
M  V30 4572 C 426.923 2.03506 0.356239 0
M  V30 4573 C 427.331 1.14426 1.50676 0
M  V30 4574 O 426.674 0.155043 1.83045 0
M  V30 4575 C 426.736 3.47848 0.90785 0
M  V30 4576 C 426.4 4.56861 -0.112888 0
M  V30 4577 C 427.397 5.11528 -0.929264 0
M  V30 4578 C 425.082 5.01704 -0.244546 0
M  V30 4579 C 427.076 6.09549 -1.86357 0
M  V30 4580 C 424.763 5.99553 -1.18234 0
M  V30 4581 C 425.761 6.53356 -1.99036 0
M  V30 4582 O 425.449 7.49293 -2.91231 0
M  V30 4583 H 425.181 0.670444 0.08649 0
M  V30 4584 H 427.735 2.01598 -0.39337 0
M  V30 4585 H 425.965 3.46967 1.70737 0
M  V30 4586 H 427.654 3.79407 1.44239 0
M  V30 4587 H 428.42 4.77701 -0.838237 0
M  V30 4588 H 424.299 4.59477 0.374359 0
M  V30 4589 H 427.843 6.51469 -2.49467 0
M  V30 4590 H 423.74 6.32799 -1.27421 0
M  V30 4591 H 424.508 7.66978 -2.8581 0
M  V30 4592 N 427.171 -0.0066808 1.57599 0
M  V30 4593 C 428.582 -0.550379 1.78403 0
M  V30 4594 C 428.933 -1.74339 0.900014 0
M  V30 4595 O 428.058 -2.16166 0.100713 0
M  V30 4596 C 428.653 -1.00523 3.23544 0
M  V30 4597 C 427.212 -1.49428 3.45468 0
M  V30 4598 C 426.359 -0.442444 2.73748 0
M  V30 4599 H 429.31 0.219508 1.57175 0
M  V30 4600 H 429.331 -1.87157 3.31289 0
M  V30 4601 H 428.843 -0.136735 3.87859 0
M  V30 4602 H 426.944 -2.3839 2.86358 0
M  V30 4603 H 427.057 -1.52635 4.54136 0
M  V30 4604 H 425.421 -0.902578 2.38171 0
M  V30 4605 H 426.204 0.416973 3.40758 0
M  V30 4606 N 428.649 -1.55105 -0.279332 0
M  V30 4607 C 429.596 -1.8755 -1.34513 0
M  V30 4608 C 430.566 -0.726384 -1.49375 0
M  V30 4609 O 431.751 -0.977063 -1.63884 0
M  V30 4610 C 428.891 -2.14738 -2.70151 0
M  V30 4611 C 428.004 -3.42285 -2.63562 0
M  V30 4612 C 427.139 -3.59206 -3.91337 0
M  V30 4613 C 426.178 -4.80467 -3.79233 0
M  V30 4614 N 425.315 -4.94079 -4.98829 0
M  V30 4615 H 430.155 -2.78456 -1.06143 0
M  V30 4616 H 427.692 -1.37867 -0.512936 0
M  V30 4617 H 429.65 -2.28501 -3.49061 0
M  V30 4618 H 428.28 -1.27075 -2.96735 0
M  V30 4619 H 427.332 -3.37029 -1.76397 0
M  V30 4620 H 428.644 -4.31328 -2.50515 0
M  V30 4621 H 427.798 -3.72751 -4.78687 0
M  V30 4622 H 426.537 -2.68337 -4.07243 0
M  V30 4623 H 425.542 -4.66932 -2.90266 0
M  V30 4624 H 426.767 -5.72765 -3.64852 0
M  V30 4625 H 424.713 -4.06139 -5.15158 0
M  V30 4626 H 424.63 -5.77156 -4.8829 0
M  V30 4627 H 425.898 -5.12003 -5.8777 0
M  V30 4628 N 430.127 0.543554 -1.4793 0
M  V30 4629 C 431.057 1.65888 -1.64327 0
M  V30 4630 C 432.038 1.62818 -0.492383 0
M  V30 4631 O 433.223 1.80226 -0.723338 0
M  V30 4632 C 430.353 3.04506 -1.67013 0
M  V30 4633 C 429.307 3.2243 -2.81466 0
M  V30 4634 C 428.633 4.61972 -2.69233 0
M  V30 4635 C 429.933 3.06496 -4.22915 0
M  V30 4636 H 431.627 1.52421 -2.57698 0
M  V30 4637 H 429.173 0.731849 -1.24016 0
M  V30 4638 H 431.126 3.82391 -1.77074 0
M  V30 4639 H 429.85 3.18964 -0.70212 0
M  V30 4640 H 428.509 2.46957 -2.70938 0
M  V30 4641 H 428.157 4.73247 -1.7043 0
M  V30 4642 H 427.857 4.74911 -3.46025 0
M  V30 4643 H 429.381 5.41974 -2.81242 0
M  V30 4644 H 430.795 3.74186 -4.34348 0
M  V30 4645 H 429.192 3.30938 -5.006 0
M  V30 4646 H 430.262 2.03077 -4.40327 0
M  V30 4647 N 431.605 1.3629 0.791371 0
M  V30 4648 C 433.021 1.16661 1.08914 0
M  V30 4649 C 433.221 -0.0106266 2.01497 0
M  V30 4650 O 432.277 -0.676596 2.43266 0
M  V30 4651 C 433.59 2.47656 1.70549 0
M  V30 4652 C 435.138 2.54002 1.82899 0
M  V30 4653 C 435.613 3.85078 2.47949 0
M  V30 4654 N 437.104 3.86413 2.5542 0
M  V30 4655 C 437.839 4.84572 3.06557 0
M  V30 4656 N 437.335 5.93124 3.58016 0
M  V30 4657 N 439.128 4.71994 3.05251 0
M  V30 4658 H 431.279 2.11668 0.176238 0
M  V30 4659 H 433.542 0.937486 0.140796 0
M  V30 4660 H 433.248 3.34059 1.09989 0
M  V30 4661 H 433.122 2.63319 2.70079 0
M  V30 4662 H 435.509 1.68018 2.42598 0
M  V30 4663 H 435.59 2.42239 0.821808 0
M  V30 4664 H 435.234 4.71467 1.88895 0
M  V30 4665 H 435.164 3.94135 3.49235 0
M  V30 4666 H 437.655 3.07988 2.18979 0
M  V30 4667 H 437.968 6.63999 3.95381 0
M  V30 4668 H 436.313 5.96796 3.56173 0
M  V30 4669 H 439.504 3.86321 2.64336 0
M  V30 4670 H 439.677 5.48653 3.44796 0
M  V30 4671 N 433.083 -1.0153 1.20538 0
M  V30 4672 C 434.329 -1.75408 1.01783 0
M  V30 4673 C 434.662 -1.88943 -0.448814 0
M  V30 4674 O 433.937 -1.4162 -1.33319 0
M  V30 4675 C 434.22 -3.17255 1.70356 0
M  V30 4676 C 434.073 -3.11508 3.24473 0
M  V30 4677 C 435.392 -4.15955 1.43769 0
M  V30 4678 H 432.511 -0.636713 0.371167 0
M  V30 4679 H 435.153 -1.18436 1.4857 0
M  V30 4680 H 433.303 -3.65898 1.30578 0
M  V30 4681 H 434.975 -2.70658 3.73553 0
M  V30 4682 H 433.218 -2.4887 3.55311 0
M  V30 4683 H 433.889 -4.11784 3.67611 0
M  V30 4684 H 436.365 -3.75973 1.7828 0
M  V30 4685 H 435.241 -5.13368 1.94279 0
M  V30 4686 H 435.502 -4.40586 0.365564 0
M  V30 4687 N 434.561 -1.01147 -1.20859 0
M  V30 4688 C 435.838 -0.613136 -1.85742 0
M  V30 4689 C 436.218 0.909004 -1.90526 0
M  V30 4690 O 435.566 1.79862 -1.40932 0
M  V30 4691 C 435.776 -1.255 -3.25654 0
M  V30 4692 C 437.124 -1.3672 -4.01986 0
M  V30 4693 O 438.148 -1.21082 -3.34989 0
M  V30 4694 O 437.007 -1.6194 -5.21956 0
M  V30 4695 H 434.101 -0.210878 -0.799662 0
M  V30 4696 H 436.647 -1.10853 -1.2849 0
M  V30 4697 H 435.419 -2.29532 -3.16908 0
M  V30 4698 H 435.042 -0.746369 -3.90532 0
M  V30 4699 N 436.039 1.36541 -0.78704 0
M  V30 4700 C 437.288 1.98552 -0.35494 0
M  V30 4701 C 437.601 1.63171 1.07864 0
M  V30 4702 O 438.807 2.18399 1.61289 0
M  V30 4703 C 437.263 3.55136 -0.583671 0
M  V30 4704 C 436.871 3.99444 -2.02851 0
M  V30 4705 C 438.615 4.2395 -0.215957 0
M  V30 4706 C 436.522 5.48796 -2.20403 0
M  V30 4707 H 435.452 0.742888 -0.128972 0
M  V30 4708 H 438.103 1.5587 -0.968337 0
M  V30 4709 H 436.485 3.95875 0.0994046 0
M  V30 4710 H 437.659 3.6991 -2.74779 0
M  V30 4711 H 435.974 3.43459 -2.35425 0
M  V30 4712 H 438.571 5.33709 -0.325405 0
M  V30 4713 H 438.914 4.07827 0.835646 0
M  V30 4714 H 439.447 3.88565 -0.852175 0
M  V30 4715 H 436.186 5.69864 -3.23937 0
M  V30 4716 H 435.706 5.79964 -1.52977 0
M  V30 4717 H 437.385 6.14986 -2.01002 0
M  V30 4718 N 437.518 0.538854 1.48102 0
M  V30 4719 C 438.934 0.19732 1.58376 0
M  V30 4720 C 439.134 -1.29971 1.5398 0
M  V30 4721 O 438.19 -2.07861 1.43352 0
M  V30 4722 C 439.503 0.807716 2.89649 0
M  V30 4723 C 441.051 0.77726 3.03196 0
M  V30 4724 C 441.526 1.36639 4.37143 0
M  V30 4725 N 443.017 1.32875 4.43732 0
M  V30 4726 C 443.752 1.7544 5.45901 0
M  V30 4727 N 443.248 2.25776 6.54979 0
M  V30 4728 N 445.041 1.66623 5.36836 0
M  V30 4729 H 437.192 1.5117 1.49202 0
M  V30 4730 H 439.455 0.629327 0.708979 0
M  V30 4731 H 439.161 1.85909 2.98548 0
M  V30 4732 H 439.035 0.289975 3.76084 0
M  V30 4733 H 441.422 -0.265374 2.93904 0
M  V30 4734 H 441.503 1.33256 2.18349 0
M  V30 4735 H 441.147 2.408 4.47189 0
M  V30 4736 H 441.077 0.786689 5.20691 0
M  V30 4737 H 443.568 0.96037 3.65493 0
M  V30 4738 H 443.881 2.56226 7.29087 0
M  V30 4739 H 442.226 2.29775 6.55918 0
M  V30 4740 H 445.417 1.27089 4.50517 0
M  V30 4741 H 445.59 2.00115 6.16326 0
M  V30 4742 N 438.996 -1.55193 0.274407 0
M  V30 4743 C 440.407 -1.85358 -0.223488 0
M  V30 4744 C 440.758 -1.19642 -1.555 0
M  V30 4745 O 439.883 -0.484498 -2.10907 0
M  V30 4746 C 440.478 -3.36282 -0.412285 0
M  V30 4747 C 439.037 -3.66574 -0.854413 0
M  V30 4748 C 438.184 -2.7725 0.0527056 0
M  V30 4749 H 441.135 -1.50743 0.496215 0
M  V30 4750 H 441.156 -3.59349 -1.25094 0
M  V30 4751 H 440.668 -3.84083 0.556965 0
M  V30 4752 H 438.769 -3.24273 -1.83516 0
M  V30 4753 H 438.882 -4.74073 -0.692226 0
M  V30 4754 H 437.246 -2.50447 -0.463484 0
M  V30 4755 H 438.029 -3.27865 1.01783 0
M  V30 4756 N 440.474 -0.00167713 -1.576 0
M  V30 4757 C 441.406 1.0174 -2.05382 0
M  V30 4758 C 442.419 1.30595 -0.972052 0
M  V30 4759 O 443.608 1.27542 -1.24882 0
M  V30 4760 C 440.708 2.35174 -2.44022 0
M  V30 4761 C 439.881 2.25234 -3.74951 0
M  V30 4762 C 438.94 3.4137 -4.00441 0
M  V30 4763 O 437.966 3.19483 -4.71083 0
M  V30 4764 N 439.168 4.64275 -3.48467 0
M  V30 4765 H 441.933 0.609902 -2.93428 0
M  V30 4766 H 439.494 0.185672 -1.60832 0
M  V30 4767 H 441.486 3.11643 -2.58187 0
M  V30 4768 H 440.056 2.67659 -1.61485 0
M  V30 4769 H 439.276 1.33664 -3.70847 0
M  V30 4770 H 440.564 2.15767 -4.60784 0
M  V30 4771 H 439.962 4.84955 -2.91264 0
M  V30 4772 H 438.519 5.38005 -3.67959 0
M  V30 4773 N 441.952 1.55251 0.271103 0
M  V30 4774 C 442.882 1.9127 1.33933 0
M  V30 4775 C 443.863 0.77478 1.5143 0
M  V30 4776 O 445.048 1.03307 1.64442 0
M  V30 4777 C 442.178 2.18627 2.69851 0
M  V30 4778 C 441.132 3.34442 2.67081 0
M  V30 4779 C 440.458 3.47284 4.06569 0
M  V30 4780 C 441.758 4.70784 2.26185 0
M  V30 4781 H 443.452 2.80744 1.04035 0
M  V30 4782 H 440.998 1.35077 0.499017 0
M  V30 4783 H 442.951 2.42413 3.44694 0
M  V30 4784 H 441.675 1.25955 3.01335 0
M  V30 4785 H 440.334 3.10627 1.94695 0
M  V30 4786 H 439.982 2.52074 4.35279 0
M  V30 4787 H 439.682 4.25152 4.0561 0
M  V30 4788 H 441.206 3.73363 4.83148 0
M  V30 4789 H 442.62 4.94102 2.90751 0
M  V30 4790 H 441.017 5.51582 2.36384 0
M  V30 4791 H 442.087 4.69478 1.21319 0
M  V30 4792 N 443.43 -0.535701 1.48216 0
M  V30 4793 C 444.36 -1.65014 1.65204 0
M  V30 4794 C 445.341 -1.62554 0.501011 0
M  V30 4795 O 446.526 -1.7984 0.732886 0
M  V30 4796 C 443.656 -3.03616 1.68626 0
M  V30 4797 C 442.61 -3.20932 2.83172 0
M  V30 4798 C 441.936 -4.60537 2.71679 0
M  V30 4799 C 443.236 -3.04249 4.24535 0
M  V30 4800 H 444.93 -1.51053 2.58502 0
M  V30 4801 H 442.476 -0.725262 1.24402 0
M  V30 4802 H 444.429 -3.81446 1.79099 0
M  V30 4803 H 443.153 -3.18587 0.719026 0
M  V30 4804 H 441.812 -2.45517 2.72244 0
M  V30 4805 H 441.46 -4.72336 1.72937 0
M  V30 4806 H 441.16 -4.73069 3.48538 0
M  V30 4807 H 442.684 -5.40475 2.84112 0
M  V30 4808 H 444.098 -3.71877 4.36326 0
M  V30 4809 H 442.495 -3.28278 5.02348 0
M  V30 4810 H 443.565 -2.00739 4.41397 0
M  V30 4811 N 444.908 -1.36708 -0.784132 0
M  V30 4812 C 445.855 -1.31466 -1.89698 0
M  V30 4813 C 446.825 -0.18239 -1.65096 0
M  V30 4814 O 448.01 -0.369762 -1.87183 0
M  V30 4815 C 445.15 -1.1151 -3.26588 0
M  V30 4816 C 444.263 -2.33859 -3.63227 0
M  V30 4817 C 443.398 -2.06873 -4.89262 0
M  V30 4818 C 442.437 -3.25154 -5.18595 0
M  V30 4819 N 441.574 -2.978 -6.35814 0
M  V30 4820 H 446.414 -2.26619 -1.93515 0
M  V30 4821 H 443.951 -1.12625 -0.946256 0
M  V30 4822 H 445.909 -0.979653 -4.05535 0
M  V30 4823 H 444.539 -0.200103 -3.22179 0
M  V30 4824 H 443.591 -2.58188 -2.79362 0
M  V30 4825 H 444.903 -3.22109 -3.8085 0
M  V30 4826 H 444.057 -1.90289 -5.76086 0
M  V30 4827 H 442.796 -1.15942 -4.73718 0
M  V30 4828 H 441.801 -3.42292 -4.30251 0
M  V30 4829 H 443.026 -4.1692 -5.36055 0
M  V30 4830 H 440.972 -2.09485 -6.21653 0
M  V30 4831 H 440.889 -3.7959 -6.53794 0
M  V30 4832 H 442.157 -2.84805 -7.25607 0
M  V30 4833 N 446.386 1.0089 -1.21074 0
M  V30 4834 C 447.334 2.11707 -0.963476 0
M  V30 4835 C 448.328 1.69172 0.0879032 0
M  V30 4836 O 449.534 1.79889 -0.0631415 0
M  V30 4837 H 445.909 0.692026 -0.294287 0
M  V30 4838 H 447.88 2.29743 -1.90422 0
M  V30 4839 C 446.629 3.43473 -0.540509 0
M  V30 4840 H 445.952 3.76634 -1.34114 0
M  V30 4841 H 447.392 4.22044 -0.406777 0
M  V30 4842 C 445.851 3.2849 0.748079 0
M  V30 4843 O 446.381 3.58883 1.8046 0
M  V30 4844 N 444.587 2.81715 0.713081 0
M  V30 4845 H 444.134 2.5718 -0.146973 0
M  V30 4846 H 444.092 2.72071 1.57558 0
M  V30 4847 N 447.864 1.01787 1.20321 0
M  V30 4848 C 448.827 0.593972 2.2137 0
M  V30 4849 C 449.827 -0.336553 1.57239 0
M  V30 4850 O 451.017 -0.125069 1.7375 0
M  V30 4851 C 448.149 -0.132433 3.40643 0
M  V30 4852 H 449.342 1.48791 2.60387 0
M  V30 4853 H 446.895 0.807803 1.33807 0
M  V30 4854 H 447.63 -1.04123 3.0713 0
M  V30 4855 H 447.415 0.53605 3.88418 0
M  V30 4856 H 448.905 -0.416314 4.1552 0
M  V30 4857 N 449.342 -1.36122 0.79427 0
M  V30 4858 C 450.272 -2.32551 0.210328 0
M  V30 4859 C 451.253 -1.56884 -0.657386 0
M  V30 4860 O 452.438 -1.85014 -0.590207 0
M  V30 4861 C 449.568 -3.41128 -0.651819 0
M  V30 4862 C 448.522 -4.27842 0.116395 0
M  V30 4863 C 447.848 -5.2763 -0.86666 0
M  V30 4864 C 449.148 -5.05647 1.30837 0
M  V30 4865 H 450.842 -2.81636 1.01594 0
M  V30 4866 H 448.388 -1.35407 0.489981 0
M  V30 4867 H 450.341 -4.07581 -1.07031 0
M  V30 4868 H 449.065 -2.90622 -1.49019 0
M  V30 4869 H 447.724 -3.62952 0.515915 0
M  V30 4870 H 447.372 -4.73395 -1.70019 0
M  V30 4871 H 447.072 -5.86514 -0.35705 0
M  V30 4872 H 448.596 -5.96955 -1.28361 0
M  V30 4873 H 450.01 -5.65113 0.965393 0
M  V30 4874 H 448.407 -5.73967 1.75161 0
M  V30 4875 H 449.477 -4.37006 2.10128 0
M  V30 4876 N 450.82 -0.546701 -1.47814 0
M  V30 4877 C 451.752 0.244196 -2.27895 0
M  V30 4878 C 452.765 0.88911 -1.36377 0
M  V30 4879 O 453.954 0.764733 -1.61289 0
M  V30 4880 C 451.054 1.36252 -3.10304 0
M  V30 4881 C 450.227 0.816382 -4.29714 0
M  V30 4882 C 449.286 1.81789 -4.93801 0
M  V30 4883 O 448.312 1.36818 -5.52512 0
M  V30 4884 N 449.514 3.15085 -4.87547 0
M  V30 4885 H 452.279 -0.442694 -2.96412 0
M  V30 4886 H 449.84 -0.382095 -1.57327 0
M  V30 4887 H 451.832 2.03102 -3.50045 0
M  V30 4888 H 450.402 1.95281 -2.44099 0
M  V30 4889 H 449.622 -0.0285981 -3.9419 0
M  V30 4890 H 450.91 0.430668 -5.06974 0
M  V30 4891 H 450.308 3.54275 -4.41028 0
M  V30 4892 H 448.865 3.77522 -5.31339 0
M  V30 4893 N 452.299 1.55045 -0.282633 0
M  V30 4894 C 453.715 1.59441 0.0712997 0
M  V30 4895 C 453.915 1.2998 1.53972 0
M  V30 4896 O 452.971 1.06431 2.28973 0
M  V30 4897 C 454.284 2.99097 -0.310104 0
M  V30 4898 C 455.832 3.1194 -0.257343 0
M  V30 4899 C 456.307 4.53875 -0.613297 0
M  V30 4900 N 457.798 4.5974 -0.565134 0
M  V30 4901 C 458.533 5.67603 -0.81326 0
M  V30 4902 N 458.029 6.83582 -1.1264 0
M  V30 4903 N 459.822 5.57187 -0.741553 0
M  V30 4904 H 451.973 1.72458 -1.23984 0
M  V30 4905 H 454.236 0.804549 -0.501403 0
M  V30 4906 H 453.942 3.25516 -1.33163 0
M  V30 4907 H 453.816 3.75616 0.345366 0
M  V30 4908 H 456.203 2.85281 0.754905 0
M  V30 4909 H 456.284 2.37618 -0.947178 0
M  V30 4910 H 455.928 4.81261 -1.62327 0
M  V30 4911 H 455.858 5.26508 0.09841 0
M  V30 4912 H 458.349 3.76427 -0.333294 0
M  V30 4913 H 458.662 7.6175 -1.30219 0
M  V30 4914 H 457.007 6.85179 -1.16425 0
M  V30 4915 H 460.198 4.65457 -0.496705 0
M  V30 4916 H 460.371 6.41171 -0.938306 0
M  V30 4917 N 453.777 0.010035 1.57597 0
M  V30 4918 C 454.74 -0.963029 2.07986 0
M  V30 4919 C 455.74 -1.26619 0.991173 0
M  V30 4920 O 456.93 -1.2097 1.25347 0
M  V30 4921 C 454.062 -2.2851 2.52974 0
M  V30 4922 H 455.255 -0.526971 2.95234 0
M  V30 4923 H 452.808 -0.237639 1.54483 0
M  V30 4924 H 453.543 -2.76784 1.69 0
M  V30 4925 H 453.328 -2.07824 3.32493 0
M  V30 4926 H 454.818 -2.98294 2.9225 0
M  V30 4927 N 455.255 -1.55392 -0.262866 0
M  V30 4928 C 456.501 -1.76737 -0.99458 0
M  V30 4929 C 456.834 -0.572453 -1.85571 0
M  V30 4930 O 456.109 0.429732 -1.89693 0
M  V30 4931 C 456.392 -3.07824 -1.8686 0
M  V30 4932 C 456.245 -4.3769 -1.03672 0
M  V30 4933 C 457.564 -3.35021 -2.85393 0
M  V30 4934 H 454.683 -0.643005 -0.360157 0
M  V30 4935 H 457.325 -1.88126 -0.266216 0
M  V30 4936 H 455.475 -2.98245 -2.48962 0
M  V30 4937 H 457.147 -4.59238 -0.43563 0
M  V30 4938 H 455.39 -4.32461 -0.340513 0
M  V30 4939 H 456.061 -5.25759 -1.6817 0
M  V30 4940 H 458.537 -3.44458 -2.33426 0
M  V30 4941 H 457.413 -4.27989 -3.43681 0
M  V30 4942 H 457.674 -2.55153 -3.61039 0
M  V30 4943 N 456.733 0.527833 -1.48498 0
M  V30 4944 C 457.643 1.65907 -1.65867 0
M  V30 4945 C 458.659 1.6537 -0.541192 0
M  V30 4946 O 459.835 1.84282 -0.812534 0
M  V30 4947 C 456.9 3.02364 -1.69637 0
M  V30 4948 C 455.961 3.1374 -2.93028 0
M  V30 4949 C 455.194 4.43688 -2.96609 0
M  V30 4950 O 455.417 5.30913 -2.08538 0
M  V30 4951 O 454.351 4.59475 -3.88802 0
M  V30 4952 H 458.177 1.5419 -2.61647 0
M  V30 4953 H 455.762 0.701163 -1.31924 0
M  V30 4954 H 457.644 3.83515 -1.74625 0
M  V30 4955 H 456.319 3.14401 -0.770312 0
M  V30 4956 H 455.226 2.31877 -2.93571 0
M  V30 4957 H 456.559 3.06621 -3.85026 0
M  V30 4958 N 458.211 1.37122 0.776871 0
M  V30 4959 C 459.627 1.1781 1.07671 0
M  V30 4960 C 459.827 0.0107454 2.01497 0
M  V30 4961 O 458.883 -0.650756 2.4397 0
M  V30 4962 C 460.196 2.49451 1.67913 0
M  V30 4963 C 461.744 2.55927 1.80195 0
M  V30 4964 C 462.219 3.87686 2.43851 0
M  V30 4965 N 463.71 3.891 2.51307 0
M  V30 4966 C 464.445 4.87797 3.014 0
M  V30 4967 N 463.941 5.96888 3.51705 0
M  V30 4968 N 465.734 4.75205 3.00227 0
M  V30 4969 H 457.885 2.11843 0.153778 0
M  V30 4970 H 460.148 0.938927 0.130844 0
M  V30 4971 H 459.854 3.35207 1.06439 0
M  V30 4972 H 459.728 2.66169 2.67271 0
M  V30 4973 H 462.115 1.70582 2.40803 0
M  V30 4974 H 462.196 2.43097 0.796069 0
M  V30 4975 H 461.84 4.73444 1.83884 0
M  V30 4976 H 461.77 3.97817 3.45035 0
M  V30 4977 H 464.261 3.10293 2.157 0
M  V30 4978 H 464.574 6.68155 3.88316 0
M  V30 4979 H 462.919 6.0054 3.49824 0
M  V30 4980 H 466.11 3.89103 2.60224 0
M  V30 4981 H 466.283 5.52279 3.38957 0
M  V30 4982 N 459.689 -1.00246 1.21608 0
M  V30 4983 C 460.937 -1.73717 1.0328 0
M  V30 4984 C 461.258 -1.90102 -0.434318 0
M  V30 4985 O 460.528 -1.45376 -1.31311 0
M  V30 4986 H 459.108 -0.643613 0.379172 0
M  V30 4987 H 461.77 -1.20787 1.52959 0
M  V30 4988 H 460.866 -2.73535 1.50283 0
M  V30 4989 N 461.167 -1.02423 -1.1978 0
M  V30 4990 C 462.099 -0.559152 -2.22275 0
M  V30 4991 C 463.112 0.36251 -1.58713 0
M  V30 4992 O 464.301 0.159641 -1.77785 0
M  V30 4993 C 461.401 0.205094 -3.38279 0
M  V30 4994 C 460.574 -0.720361 -4.31427 0
M  V30 4995 C 459.633 -0.00234368 -5.262 0
M  V30 4996 O 458.659 -0.627378 -5.65732 0
M  V30 4997 N 459.861 1.26996 -5.66438 0
M  V30 4998 H 462.626 -1.44064 -2.62804 0
M  V30 4999 H 460.187 -0.902692 -1.34399 0
M  V30 5000 H 462.179 0.694868 -3.9869 0
M  V30 5001 H 460.749 0.987947 -2.96578 0
M  V30 5002 H 459.969 -1.39031 -3.68869 0
M  V30 5003 H 461.257 -1.3495 -4.90577 0
M  V30 5004 H 460.655 1.79858 -5.36347 0
M  V30 5005 H 459.212 1.70432 -6.29123 0
M  V30 5006 N 462.645 1.35699 -0.801477 0
M  V30 5007 C 463.575 2.32436 -0.222658 0
M  V30 5008 C 464.556 1.5723 0.649057 0
M  V30 5009 O 465.741 1.85324 0.580387 0
M  V30 5010 C 462.871 3.41469 0.633719 0
M  V30 5011 C 461.825 4.27774 -0.139083 0
M  V30 5012 C 461.151 5.28082 0.838666 0
M  V30 5013 C 462.451 5.04946 -1.33517 0
M  V30 5014 H 464.145 2.81094 -1.03086 0
M  V30 5015 H 461.691 1.35146 -0.497155 0
M  V30 5016 H 463.644 4.08143 1.04868 0
M  V30 5017 H 462.368 2.91408 1.47475 0
M  V30 5018 H 461.027 3.62673 -0.535156 0
M  V30 5019 H 460.675 4.7429 1.67506 0
M  V30 5020 H 460.375 5.86695 0.32594 0
M  V30 5021 H 461.899 5.97628 1.25194 0
M  V30 5022 H 463.313 5.64593 -0.995349 0
M  V30 5023 H 461.71 5.7303 -1.78202 0
M  V30 5024 H 462.78 4.35886 -2.12442 0
M  V30 5025 N 464.123 0.554532 1.47522 0
M  V30 5026 C 465.033 -0.197865 2.33764 0
M  V30 5027 C 466.049 -0.914576 1.48025 0
M  V30 5028 O 467.225 -0.884067 1.80959 0
M  V30 5029 C 464.29 -1.21628 3.24665 0
M  V30 5030 C 463.351 -0.507283 4.26292 0
M  V30 5031 C 462.584 -1.47718 5.1285 0
M  V30 5032 O 462.807 -2.7118 5.01814 0
M  V30 5033 O 461.741 -1.00313 5.93482 0
M  V30 5034 H 465.567 0.50949 2.99396 0
M  V30 5035 H 463.152 0.315176 1.46038 0
M  V30 5036 H 465.034 -1.80421 3.80823 0
M  V30 5037 H 463.709 -1.9056 2.61665 0
M  V30 5038 H 462.616 0.121778 3.73902 0
M  V30 5039 H 463.949 0.140544 4.91999 0
M  V30 5040 N 465.601 -1.54893 0.290851 0
M  V30 5041 C 466.533 -2.20564 -0.623236 0
M  V30 5042 C 467.546 -1.19519 -1.1054 0
M  V30 5043 O 468.735 -1.46165 -1.02459 0
M  V30 5044 C 465.835 -2.83033 -1.86401 0
M  V30 5045 C 465.008 -4.09916 -1.52604 0
M  V30 5046 C 464.067 -4.56284 -2.62091 0
M  V30 5047 O 463.093 -5.2171 -2.27612 0
M  V30 5048 N 464.295 -4.27746 -3.92446 0
M  V30 5049 H 467.06 -2.99638 -0.0610915 0
M  V30 5050 H 464.621 -1.61508 0.112615 0
M  V30 5051 H 466.613 -3.1099 -2.58973 0
M  V30 5052 H 465.183 -2.0786 -2.33481 0
M  V30 5053 H 464.403 -3.89078 -0.633424 0
M  V30 5054 H 465.691 -4.92554 -1.27547 0
M  V30 5055 H 465.089 -3.7531 -4.23272 0
M  V30 5056 H 463.646 -4.60437 -4.61347 0
M  V30 5057 N 467.08 -0.0183926 -1.57589 0
M  V30 5058 C 468.329 0.66185 -1.90532 0
M  V30 5059 C 468.642 1.73904 -0.895366 0
M  V30 5060 O 469.848 2.47518 -1.11566 0
M  V30 5061 C 468.304 1.22844 -3.38286 0
M  V30 5062 C 467.912 0.185103 -4.47617 0
M  V30 5063 C 469.656 1.88581 -3.80312 0
M  V30 5064 C 467.563 0.762723 -5.86461 0
M  V30 5065 H 466.493 0.250972 -0.711006 0
M  V30 5066 H 469.144 -0.0819435 -1.83317 0
M  V30 5067 H 467.526 2.0235 -3.40398 0
M  V30 5068 H 468.7 -0.58671 -4.5705 0
M  V30 5069 H 467.015 -0.372889 -4.14727 0
M  V30 5070 H 469.612 2.32735 -4.81392 0
M  V30 5071 H 469.955 2.72408 -3.14801 0
M  V30 5072 H 470.488 1.15782 -3.80578 0
M  V30 5073 H 467.227 -0.0371713 -6.55489 0
M  V30 5074 H 466.747 1.50327 -5.80656 0
M  V30 5075 H 468.426 1.25576 -6.34697 0
M  V30 5076 N 468.558 1.5553 0.254621 0
M  V30 5077 C 469.786 1.81046 1.00149 0
M  V30 5078 C 470.201 0.593047 1.79244 0
M  V30 5079 O 469.558 -0.438196 1.77161 0
M  V30 5080 C 469.609 3.04684 1.94551 0
M  V30 5081 O 469.33 4.21725 1.18658 0
M  V30 5082 C 470.831 3.42943 2.80901 0
M  V30 5083 H 468.051 0.602653 0.295044 0
M  V30 5084 H 470.595 2.02576 0.279842 0
M  V30 5085 H 468.75 2.85226 2.62154 0
M  V30 5086 H 469.164 4.91746 1.82445 0
M  V30 5087 H 470.638 4.32576 3.42902 0
M  V30 5088 H 471.115 2.63176 3.51617 0
M  V30 5089 H 471.721 3.64724 2.18762 0
M  V30 5090 N 470.036 -0.519951 1.48776 0
M  V30 5091 C 471.284 -1.2727 1.56993 0
M  V30 5092 C 471.605 -1.9339 0.25004 0
M  V30 5093 O 470.875 -1.81822 -0.729216 0
M  V30 5094 H 469.455 -0.472732 0.578389 0
M  V30 5095 H 472.117 -0.604234 1.85297 0
M  V30 5096 H 471.213 -2.04669 2.3562 0
M  V30 5097 N 471.514 -1.37532 -0.769588 0
M  V30 5098 C 472.461 -1.3347 -1.88293 0
M  V30 5099 C 473.431 -0.199891 -1.64893 0
M  V30 5100 O 474.616 -0.389594 -1.8678 0
M  V30 5101 C 471.756 -1.14968 -3.25387 0
M  V30 5102 C 470.869 -2.37698 -3.60727 0
M  V30 5103 C 470.004 -2.12051 -4.8704 0
M  V30 5104 C 469.043 -3.30636 -5.15117 0
M  V30 5105 N 468.18 -3.04527 -6.3262 0
M  V30 5106 H 473.02 -2.28658 -1.911 0
M  V30 5107 H 470.557 -1.13622 -0.934257 0
M  V30 5108 H 472.515 -1.02261 -4.04473 0
M  V30 5109 H 471.145 -0.234263 -3.21949 0
M  V30 5110 H 470.197 -2.61137 -2.76608 0
M  V30 5111 H 471.509 -3.26131 -3.77413 0
M  V30 5112 H 470.663 -1.96388 -5.74035 0
M  V30 5113 H 469.402 -1.20959 -4.72462 0
M  V30 5114 H 468.407 -3.46836 -4.26597 0
M  V30 5115 H 469.632 -4.22582 -5.31603 0
M  V30 5116 H 467.578 -2.16067 -6.19396 0
M  V30 5117 H 467.495 -3.86503 -6.49732 0
M  V30 5118 H 468.763 -2.92485 -7.22546 0
M  V30 5119 N 472.992 0.995999 -1.22138 0
M  V30 5120 C 474.24 1.73167 -1.042 0
M  V30 5121 C 474.561 1.90329 0.42423 0
M  V30 5122 O 473.831 1.4607 1.30539 0
M  V30 5123 H 472.411 0.641593 -0.38258 0
M  V30 5124 H 475.073 1.19974 -1.53598 0
M  V30 5125 H 474.169 2.72734 -1.51731 0
M  V30 5126 N 474.47 1.03057 1.19235 0
M  V30 5127 C 475.433 0.617418 2.20727 0
M  V30 5128 C 476.433 -0.319856 1.57587 0
M  V30 5129 O 477.623 -0.106633 1.73873 0
M  V30 5130 C 474.755 -0.096296 3.40764 0
M  V30 5131 H 475.948 1.51544 2.58794 0
M  V30 5132 H 473.501 0.821949 1.32942 0
M  V30 5133 H 474.236 -1.00859 3.08217 0
M  V30 5134 H 474.021 0.577217 3.87828 0
M  V30 5135 H 475.511 -0.372219 4.15938 0
M  V30 5136 N 475.948 -1.35272 0.808662 0
M  V30 5137 C 477.173 -2.03477 0.401475 0
M  V30 5138 C 477.598 -1.60537 -0.980279 0
M  V30 5139 O 476.956 -0.78304 -1.63518 0
M  V30 5140 C 477.004 -3.57181 0.495354 0
M  V30 5141 O 476.108 -4.09474 -0.490397 0
M  V30 5142 H 475.449 -0.642561 0.167366 0
M  V30 5143 H 477.979 -1.72824 1.09512 0
M  V30 5144 H 477.989 -4.06356 0.365912 0
M  V30 5145 H 476.664 -3.87784 1.5032 0
M  V30 5146 H 475.241 -3.71516 -0.321023 0
M  V30 5147 N 477.426 -0.562348 -1.47226 0
M  V30 5148 C 478.674 -0.0401371 -2.0206 0
M  V30 5149 C 478.995 1.3165 -1.43852 0
M  V30 5150 O 478.265 1.85976 -0.615599 0
M  V30 5151 H 476.845 -0.0118479 -0.746906 0
M  V30 5152 H 479.507 -0.73352 -1.8057 0
M  V30 5153 H 478.603 0.0441254 -3.12069 0
M  V30 5154 N 478.904 1.54736 -0.299062 0
M  V30 5155 C 480.132 2.04512 0.313447 0
M  V30 5156 C 480.547 1.17643 1.47667 0
M  V30 5157 O 479.904 0.20164 1.81383 0
M  V30 5158 C 479.955 3.53171 0.771542 0
M  V30 5159 O 479.676 4.36736 -0.345379 0
M  V30 5160 C 481.177 4.18936 1.4494 0
M  V30 5161 H 478.397 0.667507 0.0683784 0
M  V30 5162 H 480.941 1.99752 -0.438129 0
M  V30 5163 H 479.096 3.58298 1.47314 0
M  V30 5164 H 479.51 5.24499 0.0109219 0
M  V30 5165 H 480.984 5.24482 1.72111 0
M  V30 5166 H 481.461 3.68554 2.38883 0
M  V30 5167 H 482.067 4.17879 0.791028 0
M  V30 5168 N 480.382 0.0267497 1.57577 0
M  V30 5169 C 481.629 -0.652404 1.91703 0
M  V30 5170 C 481.957 -1.72271 0.902936 0
M  V30 5171 O 481.212 -1.955 -0.0884843 0
M  V30 5172 C 481.511 -1.30914 3.3256 0
M  V30 5173 C 481.177 -0.369441 4.49384 0
M  V30 5174 C 479.839 -0.110791 4.81072 0
M  V30 5175 C 482.191 0.275971 5.20469 0
M  V30 5176 C 479.519 0.801116 5.81205 0
M  V30 5177 C 481.871 1.17592 6.21575 0
M  V30 5178 C 480.535 1.44348 6.51705 0
M  V30 5179 H 479.805 -0.238732 0.70149 0
M  V30 5180 H 482.452 0.0880091 1.91298 0
M  V30 5181 H 480.757 -2.12425 3.29216 0
M  V30 5182 H 482.454 -1.84115 3.56234 0
M  V30 5183 H 479.044 -0.581211 4.24641 0
M  V30 5184 H 483.228 0.0892 4.9622 0
M  V30 5185 H 478.484 1.01614 6.02897 0
M  V30 5186 H 482.658 1.68223 6.75777 0
M  V30 5187 H 480.285 2.15176 7.29111 0
M  V30 5188 N 481.861 -1.55662 -0.24637 0
M  V30 5189 C 482.793 -1.86811 -1.32794 0
M  V30 5190 C 483.806 -0.754413 -1.44265 0
M  V30 5191 O 484.995 -1.03253 -1.45606 0
M  V30 5192 C 482.095 -2.0397 -2.70646 0
M  V30 5193 C 481.268 -3.34832 -2.81436 0
M  V30 5194 C 480.327 -3.41727 -4.00136 0
M  V30 5195 O 479.353 -4.14934 -3.89639 0
M  V30 5196 N 480.555 -2.71058 -5.1333 0
M  V30 5197 H 483.32 -2.80174 -1.06409 0
M  V30 5198 H 480.881 -1.55906 -0.43647 0
M  V30 5199 H 482.873 -2.05924 -3.48393 0
M  V30 5200 H 481.443 -1.1735 -2.89738 0
M  V30 5201 H 480.663 -3.4519 -1.90361 0
M  V30 5202 H 481.951 -4.21085 -2.85595 0
M  V30 5203 H 481.349 -2.11314 -5.2475 0
M  V30 5204 H 479.906 -2.78704 -5.89209 0
M  V30 5205 N 483.339 0.512053 -1.4905 0
M  V30 5206 C 484.269 1.62365 -1.67809 0
M  V30 5207 C 485.25 1.61737 -0.526809 0
M  V30 5208 O 486.435 1.78651 -0.761404 0
M  V30 5209 C 483.565 3.00895 -1.73435 0
M  V30 5210 C 482.519 3.16387 -2.88242 0
M  V30 5211 C 481.845 4.56157 -2.78971 0
M  V30 5212 C 483.145 2.97457 -4.29321 0
M  V30 5213 H 484.839 1.46921 -2.60873 0
M  V30 5214 H 482.385 0.705379 -1.2554 0
M  V30 5215 H 484.338 3.78549 -1.85145 0
M  V30 5216 H 483.062 3.17403 -0.769619 0
M  V30 5217 H 481.721 2.41155 -2.76116 0
M  V30 5218 H 481.369 4.69525 -1.8043 0
M  V30 5219 H 481.069 4.67465 -3.5602 0
M  V30 5220 H 482.593 5.35886 -2.92675 0
M  V30 5221 H 484.007 3.64888 -4.42187 0
M  V30 5222 H 482.404 3.20245 -5.07507 0
M  V30 5223 H 483.474 1.93692 -4.44535 0
M  V30 5224 N 484.817 1.37938 0.762283 0
M  V30 5225 C 485.764 1.34467 1.87583 0
M  V30 5226 C 486.734 0.208633 1.64785 0
M  V30 5227 O 487.919 0.399494 1.86571 0
M  V30 5228 C 485.059 1.16692 3.24772 0
M  V30 5229 C 484.172 2.39608 3.59461 0
M  V30 5230 C 483.307 2.14631 4.85908 0
M  V30 5231 C 482.346 3.33364 5.13357 0
M  V30 5232 N 481.483 3.07877 6.30996 0
M  V30 5233 H 486.323 2.29669 1.89885 0
M  V30 5234 H 483.86 1.14116 0.928219 0
M  V30 5235 H 485.818 1.04405 4.03925 0
M  V30 5236 H 484.448 0.251333 3.2182 0
M  V30 5237 H 483.5 2.626 2.75219 0
M  V30 5238 H 484.812 3.28128 3.75678 0
M  V30 5239 H 483.966 1.99429 5.72986 0
M  V30 5240 H 482.705 1.23463 4.71814 0
M  V30 5241 H 481.71 3.49094 4.24751 0
M  V30 5242 H 482.935 4.25395 5.29354 0
M  V30 5243 H 480.881 2.19348 6.18241 0
M  V30 5244 H 480.798 3.89944 6.47673 0
M  V30 5245 H 482.066 2.96313 7.20985 0
M  V30 5246 N 486.295 -0.989507 1.22664 0
M  V30 5247 C 487.242 -2.08024 0.999733 0
M  V30 5248 C 488.212 -1.65909 -0.0797047 0
M  V30 5249 O 489.397 -1.90669 0.0705715 0
M  V30 5250 C 486.537 -3.40067 0.587234 0
M  V30 5251 C 485.65 -3.95505 1.73781 0
M  V30 5252 C 484.785 -5.15722 1.27297 0
M  V30 5253 C 483.824 -5.63305 2.39488 0
M  V30 5254 N 482.961 -6.74758 1.94026 0
M  V30 5255 H 487.801 -2.26768 1.9334 0
M  V30 5256 H 485.338 -1.11171 0.963297 0
M  V30 5257 H 487.296 -4.15899 0.329227 0
M  V30 5258 H 485.926 -3.21314 -0.309426 0
M  V30 5259 H 484.978 -3.16513 2.11006 0
M  V30 5260 H 486.29 -4.26797 2.58158 0
M  V30 5261 H 485.444 -5.98854 0.972546 0
M  V30 5262 H 484.183 -4.86061 0.399445 0
M  V30 5263 H 483.188 -4.78759 2.70315 0
M  V30 5264 H 484.413 -5.94988 3.27362 0
M  V30 5265 H 482.359 -6.46874 1.09041 0
M  V30 5266 H 482.276 -7.05386 2.71968 0
M  V30 5267 H 483.544 -7.61387 1.67062 0
M  V30 5268 N 487.773 -1.03688 -1.18687 0
M  V30 5269 C 488.998 -0.757819 -1.93059 0
M  V30 5270 C 489.423 0.678353 -1.75442 0
M  V30 5271 O 488.781 1.46938 -1.06203 0
M  V30 5272 C 488.829 -1.12423 -3.42627 0
M  V30 5273 O 487.933 -0.247505 -4.11657 0
M  V30 5274 H 487.274 -0.279245 -0.602427 0
M  V30 5275 H 489.804 -1.3857 -1.5053 0
M  V30 5276 H 489.814 -1.08454 -3.93322 0
M  V30 5277 H 488.489 -2.17049 -3.54771 0
M  V30 5278 H 487.066 -0.34649 -3.71287 0
M  V30 5279 N 489.251 1.34841 -0.815825 0
M  V30 5280 C 490.499 1.98107 -0.399744 0
M  V30 5281 C 490.82 1.65019 1.03894 0
M  V30 5282 O 490.09 0.937311 1.72021 0
M  V30 5283 H 488.67 0.732827 -0.144823 0
M  V30 5284 H 491.332 1.64599 -1.0437 0
M  V30 5285 H 490.428 3.07856 -0.512965 0
M  V30 5286 N 490.729 0.570148 1.46925 0
M  V30 5287 C 491.639 -0.173061 2.33961 0
M  V30 5288 C 492.655 -0.898825 1.48987 0
M  V30 5289 O 493.831 -0.864825 1.81887 0
M  V30 5290 C 490.896 -1.18177 3.25937 0
M  V30 5291 C 489.957 -0.462041 4.26806 0
M  V30 5292 C 489.19 -1.4227 5.14388 0
M  V30 5293 O 489.413 -2.65842 5.04662 0
M  V30 5294 O 488.347 -0.940127 5.94513 0
M  V30 5295 H 492.173 0.541216 2.98839 0
M  V30 5296 H 489.758 0.330647 1.45695 0
M  V30 5297 H 491.64 -1.76372 3.82715 0
M  V30 5298 H 490.315 -1.87774 2.63671 0
M  V30 5299 H 489.222 0.161429 3.73752 0
M  V30 5300 H 490.555 0.192719 4.91823 0
M  V30 5301 N 492.207 -1.54576 0.307264 0
M  V30 5302 C 493.154 -2.23751 -0.56604 0
M  V30 5303 C 494.124 -1.22235 -1.12462 0
M  V30 5304 O 495.309 -1.50873 -1.16799 0
M  V30 5305 C 492.449 -2.98661 -1.72903 0
M  V30 5306 C 491.562 -4.14963 -1.20124 0
M  V30 5307 C 490.697 -4.77441 -2.3286 0
M  V30 5308 C 489.736 -5.85875 -1.77247 0
M  V30 5309 N 488.873 -6.42282 -2.8358 0
M  V30 5310 H 493.713 -2.97984 0.0304578 0
M  V30 5311 H 491.25 -1.47076 0.0268015 0
M  V30 5312 H 493.208 -3.40329 -2.41313 0
M  V30 5313 H 491.838 -2.26793 -2.29706 0
M  V30 5314 H 490.89 -3.78193 -0.409198 0
M  V30 5315 H 492.202 -4.93066 -0.754171 0
M  V30 5316 H 491.356 -5.21993 -3.09205 0
M  V30 5317 H 490.095 -3.98684 -2.80896 0
M  V30 5318 H 489.1 -5.40741 -0.993926 0
M  V30 5319 H 490.325 -6.6652 -1.30107 0
M  V30 5320 H 488.271 -5.66406 -3.30939 0
M  V30 5321 H 488.188 -7.1575 -2.43388 0
M  V30 5322 H 489.456 -6.91492 -3.59804 0
M  V30 5323 N 493.685 -0.035106 -1.57561 0
M  V30 5324 C 495.096 0.502885 -1.798 0
M  V30 5325 C 495.447 1.71892 -0.945921 0
M  V30 5326 O 494.572 2.15822 -0.157991 0
M  V30 5327 C 495.167 0.919097 -3.26095 0
M  V30 5328 C 493.726 1.40216 -3.49308 0
M  V30 5329 C 492.873 0.369709 -2.74824 0
M  V30 5330 H 495.824 -0.261102 -1.56537 0
M  V30 5331 H 495.845 1.78308 -3.36135 0
M  V30 5332 H 495.357 0.0338526 -3.88085 0
M  V30 5333 H 493.458 2.30714 -2.92578 0
M  V30 5334 H 493.571 1.40541 -4.58023 0
M  V30 5335 H 491.935 0.839113 -2.40481 0
M  V30 5336 H 492.718 -0.507173 -3.39533 0
M  V30 5337 N 495.163 1.55791 0.238111 0
M  V30 5338 C 496.093 1.94068 1.29846 0
M  V30 5339 C 497.074 0.806726 1.49753 0
M  V30 5340 O 498.259 1.06772 1.62214 0
M  V30 5341 C 495.389 2.24302 2.65153 0
M  V30 5342 C 494.343 3.40032 2.59927 0
M  V30 5343 C 493.669 3.55829 3.99111 0
M  V30 5344 C 494.969 4.75476 2.16148 0
M  V30 5345 H 496.663 2.82887 0.980563 0
M  V30 5346 H 494.209 1.36105 0.470253 0
M  V30 5347 H 496.162 2.4967 3.39475 0
M  V30 5348 H 494.886 1.32318 2.98596 0
M  V30 5349 H 493.545 3.14687 1.88063 0
M  V30 5350 H 493.193 2.6125 4.29834 0
M  V30 5351 H 492.893 4.3366 3.96501 0
M  V30 5352 H 494.417 3.83528 4.7512 0
M  V30 5353 H 495.831 5.00158 2.80205 0
M  V30 5354 H 494.228 5.56472 2.24631 0
M  V30 5355 H 495.298 4.71946 1.11333 0
M  V30 5356 N 496.642 -0.504142 1.49319 0
M  V30 5357 C 497.572 -1.61473 1.68667 0
M  V30 5358 C 498.553 -1.61455 0.535378 0
M  V30 5359 O 499.738 -1.78245 0.770868 0
M  V30 5360 C 496.868 -2.99971 1.75028 0
M  V30 5361 C 495.822 -3.14854 2.89916 0
M  V30 5362 C 495.148 -4.54671 2.81387 0
M  V30 5363 C 496.448 -2.95176 4.30893 0
M  V30 5364 H 498.142 -1.45535 2.61648 0
M  V30 5365 H 495.688 -0.698711 1.25913 0
M  V30 5366 H 497.641 -3.77562 1.8715 0
M  V30 5367 H 496.365 -3.1699 0.786441 0
M  V30 5368 H 495.024 -2.39687 2.77391 0
M  V30 5369 H 494.672 -4.68562 1.82917 0
M  V30 5370 H 494.372 -4.6557 3.58494 0
M  V30 5371 H 495.896 -5.34327 2.95512 0
M  V30 5372 H 497.31 -3.62538 4.44116 0
M  V30 5373 H 495.707 -3.17549 5.09198 0
M  V30 5374 H 496.777 -1.91332 4.45556 0
M  V30 5375 N 498.12 -1.38341 -0.754957 0
M  V30 5376 C 499.368 -1.34208 -1.51105 0
M  V30 5377 C 499.689 0.0677634 -1.94882 0
M  V30 5378 O 498.959 1.01517 -1.67544 0
M  V30 5379 H 497.539 -0.493819 -0.560493 0
M  V30 5380 H 500.201 -1.73005 -0.897507 0
M  V30 5381 H 499.297 -1.99203 -2.4026 0
M  V30 5382 N 499.598 0.982988 -1.23187 0
M  V30 5383 C 500.846 1.72052 -1.06031 0
M  V30 5384 C 501.167 1.90769 0.404019 0
M  V30 5385 O 500.437 1.47446 1.28982 0
M  V30 5386 H 499.017 0.637499 -0.389363 0
M  V30 5387 H 501.679 1.18338 -1.54862 0
M  V30 5388 H 500.775 2.7111 -1.54615 0
M  V30 5389 N 501.076 1.04316 1.18135 0
M  V30 5390 C 502.301 0.768047 1.92655 0
M  V30 5391 C 502.726 -0.66904 1.758 0
M  V30 5392 O 502.084 -1.46372 1.06981 0
M  V30 5393 C 502.132 1.14239 3.42026 0
M  V30 5394 O 501.236 0.269333 4.1152 0
M  V30 5395 H 500.577 0.282436 0.600937 0
M  V30 5396 H 503.107 1.39367 1.49793 0
M  V30 5397 H 503.117 1.10538 3.92741 0
M  V30 5398 H 501.792 2.18928 3.53615 0
M  V30 5399 H 500.369 0.366175 3.71098 0
M  V30 5400 N 502.554 -1.34406 0.822964 0
M  V30 5401 C 503.484 -2.32052 0.259608 0
M  V30 5402 C 504.465 -1.58243 -0.623961 0
M  V30 5403 O 505.65 -1.86224 -0.55083 0
M  V30 5404 C 502.78 -3.42434 -0.579314 0
M  V30 5405 C 501.734 -4.27499 0.20712 0
M  V30 5406 C 501.06 -5.29349 -0.754547 0
M  V30 5407 C 502.36 -5.02758 1.41533 0
M  V30 5408 H 504.054 -2.79418 1.07545 0
M  V30 5409 H 501.6 -1.34338 0.518593 0
M  V30 5410 H 503.553 -4.0976 -0.983612 0
M  V30 5411 H 502.277 -2.93717 -1.4282 0
M  V30 5412 H 500.936 -3.61776 0.592787 0
M  V30 5413 H 500.584 -4.76895 -1.59939 0
M  V30 5414 H 500.284 -5.8714 -0.232561 0
M  V30 5415 H 501.808 -5.99544 -1.1567 0
M  V30 5416 H 503.222 -5.62938 1.08504 0
M  V30 5417 H 501.619 -5.70123 1.87296 0
M  V30 5418 H 502.689 -4.32451 2.1935 0
M  V30 5419 N 504.032 -0.577932 -1.46621 0
M  V30 5420 C 504.965 0.206312 -2.27265 0
M  V30 5421 C 505.943 0.901306 -1.35334 0
M  V30 5422 O 507.127 0.916151 -1.64739 0
M  V30 5423 C 504.254 1.29563 -3.1294 0
M  V30 5424 C 503.3 0.706981 -4.206 0
M  V30 5425 S 504.133 -0.462459 -5.33499 0
M  V30 5426 C 505.289 0.628171 -6.2274 0
M  V30 5427 H 505.522 -0.477961 -2.93433 0
M  V30 5428 H 503.055 -0.364715 -1.50031 0
M  V30 5429 H 505.013 1.91935 -3.62865 0
M  V30 5430 H 503.674 1.95183 -2.46095 0
M  V30 5431 H 502.867 1.52565 -4.80354 0
M  V30 5432 H 502.469 0.159022 -3.73662 0
M  V30 5433 H 504.761 1.51506 -6.60342 0
M  V30 5434 H 505.704 0.0674961 -7.08068 0
M  V30 5435 H 506.112 0.930167 -5.56784 0
M  V30 5436 N 505.51 1.54411 -0.315457 0
M  V30 5437 C 506.42 2.27737 0.56329 0
M  V30 5438 C 507.436 1.31787 1.13614 0
M  V30 5439 O 508.612 1.64791 1.15784 0
M  V30 5440 C 505.677 3.01478 1.71207 0
M  V30 5441 C 504.738 4.12997 1.17185 0
M  V30 5442 C 503.971 4.83212 2.26588 0
M  V30 5443 O 504.194 4.52884 3.46775 0
M  V30 5444 O 503.128 5.70299 1.92463 0
M  V30 5445 H 506.954 3.03683 -0.0319614 0
M  V30 5446 H 504.539 1.49178 -0.0814188 0
M  V30 5447 H 506.421 3.47683 2.38106 0
M  V30 5448 H 505.096 2.28414 2.29366 0
M  V30 5449 H 504.003 3.71159 0.468174 0
M  V30 5450 H 505.336 4.8808 0.635501 0
M  V30 5451 N 506.988 0.0434614 1.5754 0
M  V30 5452 C 508.218 -0.640905 1.96408 0
M  V30 5453 C 508.626 -1.65365 0.919297 0
M  V30 5454 O 507.969 -1.83395 -0.105795 0
M  V30 5455 C 508.031 -1.39141 3.31482 0
M  V30 5456 C 507.695 -0.535375 4.53853 0
M  V30 5457 C 508.692 0.195335 5.19533 0
M  V30 5458 C 506.377 -0.468564 5.0011 0
M  V30 5459 C 508.371 0.981377 6.298 0
M  V30 5460 C 506.058 0.321171 6.10255 0
M  V30 5461 C 507.056 1.04484 6.74961 0
M  V30 5462 O 506.744 1.8216 7.8299 0
M  V30 5463 H 506.476 -0.180584 0.651433 0
M  V30 5464 H 509.03 0.103848 2.05137 0
M  V30 5465 H 507.26 -2.18162 3.19284 0
M  V30 5466 H 508.949 -1.96526 3.55151 0
M  V30 5467 H 509.715 0.15314 4.84758 0
M  V30 5468 H 505.594 -1.02142 4.49542 0
M  V30 5469 H 509.138 1.54674 6.80237 0
M  V30 5470 H 505.035 0.365032 6.44467 0
M  V30 5471 H 505.803 1.74289 7.99728 0
M  V30 5472 N 508.466 -1.55915 -0.229846 0
M  V30 5473 C 509.429 -1.90914 -1.26824 0
M  V30 5474 C 510.429 -0.786999 -1.40225 0
M  V30 5475 O 511.619 -1.05484 -1.38632 0
M  V30 5476 C 508.751 -2.15264 -2.64337 0
M  V30 5477 H 509.944 -2.8378 -0.969998 0
M  V30 5478 H 507.497 -1.49069 -0.4699 0
M  V30 5479 H 508.232 -1.24923 -2.99274 0
M  V30 5480 H 508.017 -2.97005 -2.55989 0
M  V30 5481 H 509.507 -2.43467 -3.39284 0
M  V30 5482 N 509.944 0.496216 -1.49584 0
M  V30 5483 C 511.193 1.24668 -1.58558 0
M  V30 5484 C 511.506 1.9359 -0.279703 0
M  V30 5485 O 512.712 2.70365 -0.248048 0
M  V30 5486 C 511.168 2.26388 -2.79779 0
M  V30 5487 C 510.776 1.63384 -4.17145 0
M  V30 5488 C 512.52 3.02233 -2.98086 0
M  V30 5489 C 510.427 2.63243 -5.29582 0
M  V30 5490 H 509.357 0.468995 -0.590389 0
M  V30 5491 H 512.008 0.519985 -1.75978 0
M  V30 5492 H 510.39 3.02241 -2.55863 0
M  V30 5493 H 511.564 0.93491 -4.51216 0
M  V30 5494 H 509.879 0.999121 -4.04236 0
M  V30 5495 H 512.476 3.76919 -3.79257 0
M  V30 5496 H 512.819 3.60132 -2.08831 0
M  V30 5497 H 513.352 2.33495 -3.22063 0
M  V30 5498 H 510.091 2.10119 -6.20911 0
M  V30 5499 H 509.611 3.31363 -4.99959 0
M  V30 5500 H 511.29 3.25575 -5.59115 0
M  V30 5501 N 511.423 1.38739 0.74761 0
M  V30 5502 C 512.353 1.39173 1.87492 0
M  V30 5503 C 513.334 0.256794 1.6815 0
M  V30 5504 O 514.519 0.460762 1.88655 0
M  V30 5505 C 511.649 1.22197 3.25093 0
M  V30 5506 C 510.603 2.32957 3.59047 0
M  V30 5507 C 509.929 2.01082 4.95449 0
M  V30 5508 C 511.229 3.75237 3.6331 0
M  V30 5509 H 512.923 2.3351 1.87386 0
M  V30 5510 H 510.469 1.12399 0.900134 0
M  V30 5511 H 512.422 1.21124 4.03617 0
M  V30 5512 H 511.146 0.243241 3.25693 0
M  V30 5513 H 509.805 2.33226 2.82845 0
M  V30 5514 H 509.453 1.01678 4.92616 0
M  V30 5515 H 509.153 2.75267 5.19136 0
M  V30 5516 H 510.677 2.01638 5.76346 0
M  V30 5517 H 512.091 3.76966 4.31937 0
M  V30 5518 H 510.488 4.48677 3.98509 0
M  V30 5519 H 511.558 4.07122 2.634 0
M  V30 5520 N 512.901 -0.976442 1.23707 0
M  V30 5521 C 514.126 -1.75875 1.09922 0
M  V30 5522 C 514.551 -1.84911 -0.34489 0
M  V30 5523 O 513.909 -1.31363 -1.24954 0
M  V30 5524 C 513.957 -3.16179 1.73388 0
M  V30 5525 O 513.061 -4.00124 0.99871 0
M  V30 5526 H 512.402 -0.540954 0.385052 0
M  V30 5527 H 514.932 -1.22546 1.6384 0
M  V30 5528 H 514.942 -3.66741 1.78788 0
M  V30 5529 H 513.617 -3.08917 2.78466 0
M  V30 5530 H 512.194 -3.58624 1.02193 0
M  V30 5531 N 514.379 -1.04941 -1.1758 0
M  V30 5532 C 515.342 -0.652456 -2.19717 0
M  V30 5533 C 516.342 0.294745 -1.58076 0
M  V30 5534 O 517.532 0.0789579 -1.74021 0
M  V30 5535 C 514.664 0.0420712 -3.40874 0
M  V30 5536 H 515.857 -1.55642 -2.5635 0
M  V30 5537 H 513.41 -0.842995 -1.31618 0
M  V30 5538 H 514.145 0.95943 -3.09783 0
M  V30 5539 H 513.93 -0.638844 -3.86861 0
M  V30 5540 H 515.42 0.306 -4.16477 0
M  V30 5541 N 515.857 1.33968 -0.830081 0
M  V30 5542 C 517.106 1.97323 -0.417928 0
M  V30 5543 C 517.419 1.6652 1.02618 0
M  V30 5544 O 518.625 2.2342 1.54259 0
M  V30 5545 C 517.081 3.53099 -0.696359 0
M  V30 5546 C 516.689 3.92788 -2.15457 0
M  V30 5547 C 518.433 4.23049 -0.350724 0
M  V30 5548 C 516.34 5.41506 -2.37751 0
M  V30 5549 H 515.27 0.738409 -0.152541 0
M  V30 5550 H 517.921 1.52711 -1.01744 0
M  V30 5551 H 516.303 3.95991 -0.0265904 0
M  V30 5552 H 517.477 3.6098 -2.86408 0
M  V30 5553 H 515.792 3.35795 -2.46232 0
M  V30 5554 H 518.389 5.32403 -0.495036 0
M  V30 5555 H 518.732 4.10279 0.705476 0
M  V30 5556 H 519.265 3.85657 -0.975362 0
M  V30 5557 H 516.004 5.5927 -3.41903 0
M  V30 5558 H 515.524 5.74804 -1.7135 0
M  V30 5559 H 517.203 6.0828 -2.20465 0
M  V30 5560 N 517.335 0.585699 1.46312 0
M  V30 5561 C 518.298 -0.135673 2.28798 0
M  V30 5562 C 519.298 -0.815988 1.38558 0
M  V30 5563 O 520.488 -0.667487 1.60904 0
M  V30 5564 C 517.62 -1.20163 3.1902 0
M  V30 5565 H 518.813 0.589257 2.94054 0
M  V30 5566 H 516.366 0.343794 1.52472 0
M  V30 5567 H 517.101 -1.95804 2.58517 0
M  V30 5568 H 516.886 -0.718282 3.85465 0
M  V30 5569 H 518.376 -1.70749 3.81096 0
M  V30 5570 N 518.813 -1.54241 0.323641 0
M  V30 5571 C 519.776 -2.22997 -0.529602 0
M  V30 5572 C 520.776 -1.22345 -1.04347 0
M  V30 5573 O 521.966 -1.46924 -0.935889 0
M  V30 5574 C 519.098 -2.93409 -1.73562 0
M  V30 5575 H 520.291 -2.99815 0.0714518 0
M  V30 5576 H 517.844 -1.56121 0.0747258 0
M  V30 5577 H 518.579 -2.20729 -2.37591 0
M  V30 5578 H 518.364 -3.67217 -1.37456 0
M  V30 5579 H 519.854 -3.45794 -2.34128 0
M  V30 5580 N 520.291 -0.0518155 -1.57515 0
M  V30 5581 C 521.224 0.957758 -2.07129 0
M  V30 5582 C 522.202 1.30355 -0.971927 0
M  V30 5583 O 523.386 1.41631 -1.2439 0
M  V30 5584 C 520.513 2.27157 -2.51232 0
M  V30 5585 C 519.559 2.07879 -3.72409 0
M  V30 5586 S 520.392 1.35656 -5.18033 0
M  V30 5587 C 521.548 2.68359 -5.65451 0
M  V30 5588 H 521.781 0.53552 -2.92437 0
M  V30 5589 H 519.314 0.160465 -1.53564 0
M  V30 5590 H 521.272 3.02676 -2.77304 0
M  V30 5591 H 519.933 2.66509 -1.66228 0
M  V30 5592 H 519.126 3.05061 -4.01191 0
M  V30 5593 H 518.728 1.40499 -3.46606 0
M  V30 5594 H 521.02 3.64526 -5.71076 0
M  V30 5595 H 521.963 2.44213 -6.64654 0
M  V30 5596 H 522.371 2.74647 -4.93183 0
M  V30 5597 N 521.769 1.56035 0.221574 0
M  V30 5598 C 522.717 1.93269 1.29421 0
M  V30 5599 C 523.711 0.814727 1.48521 0
M  V30 5600 O 524.917 0.999559 1.49696 0
M  V30 5601 H 521.292 0.614188 0.43391 0
M  V30 5602 H 523.263 2.82773 0.952987 0
M  V30 5603 C 522.012 2.26573 2.63742 0
M  V30 5604 H 521.335 3.12112 2.49853 0
M  V30 5605 H 522.775 2.5651 3.37607 0
M  V30 5606 C 521.234 1.09086 3.1875 0
M  V30 5607 O 521.764 0.351985 4.00155 0
M  V30 5608 N 519.97 0.874693 2.77124 0
M  V30 5609 H 519.517 1.47726 2.11033 0
M  V30 5610 H 519.475 0.0903349 3.1427 0
M  V30 5611 N 523.247 -0.488276 1.49845 0
M  V30 5612 C 524.157 -1.61451 1.70207 0
M  V30 5613 C 525.173 -1.63877 0.584846 0
M  V30 5614 O 526.349 -1.82063 0.861107 0
M  V30 5615 C 523.414 -2.9776 1.77594 0
M  V30 5616 C 522.475 -3.05861 3.01243 0
M  V30 5617 C 521.708 -4.35668 3.08268 0
M  V30 5618 O 521.931 -5.25197 2.22541 0
M  V30 5619 O 520.865 -4.49005 4.00847 0
M  V30 5620 H 524.691 -1.47199 2.65643 0
M  V30 5621 H 522.276 -0.665939 1.33737 0
M  V30 5622 H 524.158 -3.7875 1.84732 0
M  V30 5623 H 522.833 -3.12248 0.8534 0
M  V30 5624 H 521.74 -2.24012 2.99616 0
M  V30 5625 H 523.073 -2.96304 3.9302 0
M  V30 5626 N 524.725 -1.39134 -0.740242 0
M  V30 5627 C 526.136 -1.32208 -1.31825 0
M  V30 5628 C 526.487 0.0159919 -1.96193 0
M  V30 5629 O 525.612 0.918111 -1.95958 0
M  V30 5630 C 526.207 -2.39436 -2.39699 0
M  V30 5631 C 524.766 -2.36048 -2.93187 0
M  V30 5632 C 523.913 -2.21599 -1.66701 0
M  V30 5633 H 526.864 -1.49298 -0.538133 0
M  V30 5634 H 526.885 -2.05922 -3.19963 0
M  V30 5635 H 526.397 -3.36811 -1.92821 0
M  V30 5636 H 524.498 -1.42295 -3.44359 0
M  V30 5637 H 524.611 -3.30704 -3.46658 0
M  V30 5638 H 522.975 -1.68681 -1.90837 0
M  V30 5639 H 523.758 -3.20936 -1.21882 0
M  V30 5640 N 526.204 0.969867 -1.24223 0
M  V30 5641 C 527.151 2.06407 -1.0327 0
M  V30 5642 C 528.121 1.66014 0.0533 0
M  V30 5643 O 529.306 1.90533 -0.100896 0
M  V30 5644 C 526.446 3.3909 -0.641262 0
M  V30 5645 C 525.559 3.9269 -1.80051 0
M  V30 5646 C 524.694 5.13631 -1.35486 0
M  V30 5647 C 523.733 5.59423 -2.48419 0
M  V30 5648 N 522.87 6.71586 -2.04737 0
M  V30 5649 H 527.71 2.23663 -1.96923 0
M  V30 5650 H 525.247 1.09624 -0.980862 0
M  V30 5651 H 527.205 4.15323 -0.395351 0
M  V30 5652 H 525.835 3.21765 0.258269 0
M  V30 5653 H 524.887 3.13116 -2.16014 0
M  V30 5654 H 526.199 4.22636 -2.64916 0
M  V30 5655 H 525.353 5.97231 -1.0677 0
M  V30 5656 H 524.092 4.85364 -0.476722 0
M  V30 5657 H 523.097 4.74398 -2.77897 0
M  V30 5658 H 524.322 5.89705 -3.36786 0
M  V30 5659 H 522.268 6.45058 -1.19318 0
M  V30 5660 H 522.185 7.0097 -2.83156 0
M  V30 5661 H 523.453 7.58633 -1.79154 0
M  V30 5662 N 527.682 1.05563 1.17022 0
M  V30 5663 C 528.91 0.78845 1.91288 0
M  V30 5664 C 529.325 -0.656318 1.77025 0
M  V30 5665 O 528.682 -1.44869 1.10992 0
M  V30 5666 C 528.733 1.16444 3.42232 0
M  V30 5667 O 528.454 2.5525 3.5606 0
M  V30 5668 C 529.955 0.923937 4.33565 0
M  V30 5669 H 527.175 0.286389 0.606813 0
M  V30 5670 H 529.719 1.4073 1.48375 0
M  V30 5671 H 527.874 0.590266 3.82877 0
M  V30 5672 H 528.288 2.70097 4.49609 0
M  V30 5673 H 529.762 1.23672 5.37968 0
M  V30 5674 H 530.239 -0.140688 4.38975 0
M  V30 5675 H 530.845 1.48214 3.98639 0
M  V30 5676 N 529.16 -1.33526 0.837174 0
M  V30 5677 C 530.4 -1.99649 0.438115 0
M  V30 5678 C 530.764 -1.64879 -0.983816 0
M  V30 5679 O 531.965 -2.23956 -1.48651 0
M  V30 5680 C 530.236 -3.51431 0.650461 0
M  V30 5681 S 531.795 -4.37431 0.346371 0
M  V30 5682 H 528.613 -0.69162 0.164872 0
M  V30 5683 H 531.215 -1.62556 1.08609 0
M  V30 5684 H 529.919 -3.74225 1.68475 0
M  V30 5685 H 529.45 -3.93398 -0.0117309 0
M  V30 5686 H 531.465 -4.89132 -0.834504 0
M  V30 5687 N 530.638 -0.59345 -1.46 0
M  V30 5688 C 531.863 -0.0872365 -2.07216 0
M  V30 5689 C 532.288 1.2131 -1.43755 0
M  V30 5690 O 531.646 1.73528 -0.525152 0
M  V30 5691 C 531.694 0.0538197 -3.6056 0
M  V30 5692 O 530.798 1.10765 -3.97247 0
M  V30 5693 H 530.139 -0.0676598 -0.660544 0
M  V30 5694 H 532.669 -0.819445 -1.87473 0
M  V30 5695 H 532.679 0.256567 -4.07193 0
M  V30 5696 H 531.354 -0.895739 -4.0614 0
M  V30 5697 H 529.931 0.882501 -3.62307 0
M  V30 5698 N 532.116 1.54067 -0.331816 0
M  V30 5699 C 533.344 2.05131 0.269996 0
M  V30 5700 C 533.759 1.20749 1.45138 0
M  V30 5701 O 533.116 0.240069 1.80914 0
M  V30 5702 C 533.167 3.54728 0.696456 0
M  V30 5703 O 532.888 4.35906 -0.43794 0
M  V30 5704 C 534.389 4.21916 1.36021 0
M  V30 5705 H 531.609 0.668807 0.0542042 0
M  V30 5706 H 534.153 1.98777 -0.4804 0
M  V30 5707 H 532.308 3.61342 1.39681 0
M  V30 5708 H 532.722 5.24404 -0.100334 0
M  V30 5709 H 534.196 5.28015 1.60947 0
M  V30 5710 H 534.673 3.73538 2.31011 0
M  V30 5711 H 535.279 4.19463 0.702212 0
M  V30 5712 N 533.594 0.0601682 1.57485 0
M  V30 5713 C 534.822 -0.620937 1.97363 0
M  V30 5714 C 535.237 -1.63846 0.938082 0
M  V30 5715 O 534.594 -1.82339 -0.0766578 0
M  V30 5716 C 534.645 -1.29987 3.37321 0
M  V30 5717 O 534.366 -0.323081 4.36907 0
M  V30 5718 C 535.867 -2.06989 3.92008 0
M  V30 5719 H 533.087 -0.169135 0.649334 0
M  V30 5720 H 535.631 0.129132 2.04092 0
M  V30 5721 H 533.786 -2.0011 3.31715 0
M  V30 5722 H 534.2 -0.808754 5.18227 0
M  V30 5723 H 535.674 -2.49901 4.92192 0
M  V30 5724 H 536.151 -2.92173 3.2792 0
M  V30 5725 H 536.757 -1.41757 4.0098 0
M  V30 5726 N 535.072 -1.5615 -0.213296 0
M  V30 5727 C 536.035 -1.92249 -1.24792 0
M  V30 5728 C 537.035 -0.801828 -1.39382 0
M  V30 5729 O 538.225 -1.06948 -1.37506 0
M  V30 5730 C 535.357 -2.18056 -2.62039 0
M  V30 5731 H 536.55 -2.84793 -0.939845 0
M  V30 5732 H 534.103 -1.49559 -0.454062 0
M  V30 5733 H 534.838 -1.2809 -2.97932 0
M  V30 5734 H 534.623 -2.99703 -2.52825 0
M  V30 5735 H 536.113 -2.47051 -3.36683 0
M  V30 5736 N 536.55 0.480323 -1.50102 0
M  V30 5737 C 537.48 1.58769 -1.71215 0
M  V30 5738 C 538.461 1.60583 -0.560997 0
M  V30 5739 O 539.646 1.76996 -0.799127 0
M  V30 5740 C 536.776 2.97148 -1.79778 0
M  V30 5741 C 535.73 3.10201 -2.94888 0
M  V30 5742 C 535.056 4.50137 -2.88584 0
M  V30 5743 C 536.356 2.88283 -4.35534 0
M  V30 5744 H 538.05 1.41354 -2.6393 0
M  V30 5745 H 535.596 0.678591 -1.27008 0
M  V30 5746 H 537.549 3.74536 -1.93133 0
M  V30 5747 H 536.273 3.15699 -0.836772 0
M  V30 5748 H 534.932 2.35244 -2.81169 0
M  V30 5749 H 534.58 4.65593 -1.90349 0
M  V30 5750 H 534.28 4.59808 -3.65856 0
M  V30 5751 H 535.804 5.29558 -3.03976 0
M  V30 5752 H 537.218 3.55427 -4.49827 0
M  V30 5753 H 535.615 3.09408 -5.14186 0
M  V30 5754 H 536.685 1.84219 -4.48544 0
M  V30 5755 N 538.028 1.39524 0.732853 0
M  V30 5756 C 538.975 1.38416 1.84688 0
M  V30 5757 C 539.945 0.243539 1.64305 0
M  V30 5758 O 541.13 0.438979 1.85681 0
M  V30 5759 C 538.27 1.23555 3.22224 0
M  V30 5760 C 537.383 2.47179 3.54298 0
M  V30 5761 C 536.518 2.2489 4.81246 0
M  V30 5762 C 535.557 3.44178 5.0617 0
M  V30 5763 N 534.694 3.21192 6.24323 0
M  V30 5764 H 539.534 2.33645 1.84971 0
M  V30 5765 H 537.071 1.16059 0.903804 0
M  V30 5766 H 539.029 1.12949 4.0162 0
M  V30 5767 H 537.659 0.31954 3.21215 0
M  V30 5768 H 536.711 2.68379 2.69587 0
M  V30 5769 H 538.023 3.36022 3.68633 0
M  V30 5770 H 537.177 2.11538 5.68627 0
M  V30 5771 H 535.916 1.33443 4.69089 0
M  V30 5772 H 534.921 3.58025 4.17251 0
M  V30 5773 H 536.146 4.36528 5.20212 0
M  V30 5774 H 534.092 2.32413 6.1345 0
M  V30 5775 H 534.009 4.03594 6.39256 0
M  V30 5776 H 535.277 3.1154 7.14537 0
M  V30 5777 N 539.506 -0.963266 1.24736 0
M  V30 5778 C 540.453 -2.05857 1.04363 0
M  V30 5779 C 541.423 -1.6604 -0.0444951 0
M  V30 5780 O 542.608 -1.90477 0.110999 0
M  V30 5781 C 539.748 -3.38745 0.659235 0
M  V30 5782 C 538.861 -3.9173 1.82131 0
M  V30 5783 C 537.996 -5.12906 1.38208 0
M  V30 5784 C 537.035 -5.58098 2.51382 0
M  V30 5785 N 536.172 -6.7049 2.08295 0
M  V30 5786 H 541.012 -2.22616 1.98107 0
M  V30 5787 H 538.549 -1.09103 0.986661 0
M  V30 5788 H 540.507 -4.15107 0.417371 0
M  V30 5789 H 539.137 -3.21898 -0.241201 0
M  V30 5790 H 538.189 -3.11966 2.17672 0
M  V30 5791 H 539.501 -4.21225 2.67153 0
M  V30 5792 H 538.655 -5.96657 1.09935 0
M  V30 5793 H 537.394 -4.85105 0.502456 0
M  V30 5794 H 536.399 -4.72917 2.80409 0
M  V30 5795 H 537.624 -5.87911 3.39909 0
M  V30 5796 H 535.57 -6.44416 1.22737 0
M  V30 5797 H 535.487 -6.99458 2.86869 0
M  V30 5798 H 536.755 -7.57672 1.83175 0
M  V30 5799 N 540.985 -1.06182 -1.16461 0
M  V30 5800 C 542.215 -0.797425 -1.9059 0
M  V30 5801 C 542.623 0.651845 -1.77616 0
M  V30 5802 O 541.966 1.45788 -1.11766 0
M  V30 5803 C 542.028 -1.11128 -3.41893 0
M  V30 5804 C 541.692 -2.55874 -3.78652 0
M  V30 5805 C 542.689 -3.54104 -3.80665 0
M  V30 5806 C 540.374 -2.91144 -4.09317 0
M  V30 5807 C 542.368 -4.85645 -4.12829 0
M  V30 5808 C 540.055 -4.22885 -4.41148 0
M  V30 5809 C 541.053 -5.19945 -4.42883 0
M  V30 5810 O 540.741 -6.49322 -4.73959 0
M  V30 5811 H 540.473 -0.288709 -0.611247 0
M  V30 5812 H 543.027 -1.41841 -1.4856 0
M  V30 5813 H 541.257 -0.433217 -3.84266 0
M  V30 5814 H 542.946 -0.831306 -3.97296 0
M  V30 5815 H 543.712 -3.28197 -3.57088 0
M  V30 5816 H 539.591 -2.16252 -4.07131 0
M  V30 5817 H 543.135 -5.61398 -4.14099 0
M  V30 5818 H 539.032 -4.48551 -4.6419 0
M  V30 5819 H 539.8 -6.54294 -4.91774 0
M  V30 5820 N 542.463 1.3308 -0.844243 0
M  V30 5821 C 543.709 1.97898 -0.443206 0
M  V30 5822 C 544.042 1.66699 0.99625 0
M  V30 5823 O 543.317 0.949704 1.69738 0
M  V30 5824 C 543.6 3.53801 -0.670606 0
M  V30 5825 C 543.453 3.94667 -2.15772 0
M  V30 5826 C 544.772 4.39936 -0.120226 0
M  V30 5827 H 541.891 0.718861 -0.162504 0
M  V30 5828 H 544.533 1.57633 -1.06075 0
M  V30 5829 H 542.683 3.88229 -0.14496 0
M  V30 5830 H 544.355 3.70469 -2.74865 0
M  V30 5831 H 542.598 3.44203 -2.6402 0
M  V30 5832 H 543.269 5.03275 -2.26757 0
M  V30 5833 H 545.745 4.12183 -0.5696 0
M  V30 5834 H 544.621 5.4803 -0.308984 0
M  V30 5835 H 544.882 4.31184 0.976347 0
M  V30 5836 N 543.941 0.601185 1.45683 0
M  V30 5837 C 544.871 -0.108824 2.33246 0
M  V30 5838 C 545.852 -0.865223 1.46451 0
M  V30 5839 O 547.037 -0.83704 1.75235 0
M  V30 5840 C 544.167 -1.11101 3.2905 0
M  V30 5841 C 543.121 -0.468244 4.25431 0
M  V30 5842 C 542.447 -1.57822 5.10878 0
M  V30 5843 C 543.747 0.606469 5.18767 0
M  V30 5844 H 545.441 0.622306 2.92861 0
M  V30 5845 H 542.987 0.300714 1.40825 0
M  V30 5846 H 544.94 -1.61622 3.89174 0
M  V30 5847 H 543.664 -1.87265 2.67581 0
M  V30 5848 H 542.323 0.0160484 3.66596 0
M  V30 5849 H 541.971 -2.32998 4.45781 0
M  V30 5850 H 541.671 -1.15369 5.76163 0
M  V30 5851 H 543.195 -2.08583 5.73869 0
M  V30 5852 H 544.609 0.185589 5.73 0
M  V30 5853 H 543.006 0.952381 5.92494 0
M  V30 5854 H 544.076 1.48559 4.61582 0
M  V30 5855 N 545.419 -1.53889 0.339982 0
M  V30 5856 C 546.329 -2.28604 -0.526988 0
M  V30 5857 C 547.345 -1.33578 -1.11503 0
M  V30 5858 O 548.521 -1.66612 -1.13148 0
M  V30 5859 C 545.586 -3.04164 -1.66389 0
M  V30 5860 C 544.647 -4.14809 -1.10599 0
M  V30 5861 C 543.88 -4.86756 -2.18871 0
M  V30 5862 O 544.103 -4.58343 -3.39526 0
M  V30 5863 O 543.037 -5.73289 -1.83366 0
M  V30 5864 H 546.863 -3.03594 0.0802707 0
M  V30 5865 H 544.448 -1.4903 0.105141 0
M  V30 5866 H 546.33 -3.51427 -2.32544 0
M  V30 5867 H 545.005 -2.32035 -2.25703 0
M  V30 5868 H 543.912 -3.71857 -0.409067 0
M  V30 5869 H 545.245 -4.89029 -0.557771 0
M  V30 5870 N 546.897 -0.0685191 -1.57451 0
M  V30 5871 C 547.845 0.917577 -2.13736 0
M  V30 5872 C 548.839 1.31049 -1.07344 0
M  V30 5873 O 550.045 1.28811 -1.25728 0
M  V30 5874 H 546.42 0.313835 -0.683382 0
M  V30 5875 H 548.391 0.417903 -2.95459 0
M  V30 5876 C 547.14 2.17686 -2.71123 0
M  V30 5877 H 546.463 1.88336 -3.52661 0
M  V30 5878 H 547.903 2.84803 -3.14107 0
M  V30 5879 C 546.362 2.9332 -1.65726 0
M  V30 5880 O 546.892 3.86901 -1.08031 0
M  V30 5881 N 545.098 2.56367 -1.36837 0
M  V30 5882 H 544.645 1.80341 -1.83943 0
M  V30 5883 H 544.603 3.07276 -0.665501 0
M  V30 5884 N 548.375 1.56261 0.205012 0
M  V30 5885 C 549.325 1.90155 1.25798 0
M  V30 5886 C 550.309 0.766227 1.41484 0
M  V30 5887 O 551.501 1.02893 1.44021 0
M  V30 5888 C 548.63 2.23603 2.60493 0
M  V30 5889 C 547.716 3.43568 2.48639 0
M  V30 5890 N 548.107 4.61747 2.06455 0
M  V30 5891 C 546.405 3.4751 2.79558 0
M  V30 5892 C 547.106 5.43907 2.06253 0
M  V30 5893 N 546.082 4.84051 2.47377 0
M  V30 5894 H 549.884 2.79031 0.922986 0
M  V30 5895 H 547.398 1.57048 0.413501 0
M  V30 5896 H 549.395 2.46067 3.36537 0
M  V30 5897 H 548.055 1.36049 2.94823 0
M  V30 5898 H 549.066 4.86598 1.77321 0
M  V30 5899 H 545.743 2.70345 3.18151 0
M  V30 5900 H 547.133 6.48542 1.75622 0
M  V30 5901 N 549.853 -0.472356 1.50355 0
M  V30 5902 C 551.264 -1.05326 1.54154 0
M  V30 5903 C 551.615 -1.93155 0.344303 0
M  V30 5904 O 550.74 -2.09479 -0.542928 0
M  V30 5905 C 551.335 -1.91691 2.79356 0
M  V30 5906 C 549.894 -2.44892 2.8584 0
M  V30 5907 C 549.041 -1.23205 2.48426 0
M  V30 5908 H 551.992 -0.255027 1.56637 0
M  V30 5909 H 552.013 -2.76742 2.6114 0
M  V30 5910 H 551.525 -1.27741 3.66475 0
M  V30 5911 H 549.626 -3.12399 2.0307 0
M  V30 5912 H 549.739 -2.80086 3.88701 0
M  V30 5913 H 548.103 -1.56643 2.00836 0
M  V30 5914 H 548.886 -0.609194 3.37852 0
M  V30 5915 N 551.331 -1.39911 -0.725443 0
M  V30 5916 C 552.579 -1.37382 -1.48224 0
M  V30 5917 C 552.9 0.0264107 -1.94982 0
M  V30 5918 O 552.17 0.979408 -1.6966 0
M  V30 5919 H 550.75 -0.505596 -0.549892 0
M  V30 5920 H 553.412 -1.7487 -0.860608 0
M  V30 5921 H 552.508 -2.04254 -2.3598 0
M  V30 5922 N 552.809 0.956637 -1.25245 0
M  V30 5923 C 554.037 1.73571 -1.12608 0
M  V30 5924 C 554.452 1.86063 0.320324 0
M  V30 5925 O 553.809 1.35691 1.22042 0
M  V30 5926 C 553.86 3.15053 -1.77268 0
M  V30 5927 O 553.581 3.03174 -3.16255 0
M  V30 5928 C 555.082 4.09248 -1.70386 0
M  V30 5929 H 552.302 0.543955 -0.392879 0
M  V30 5930 H 554.846 1.20031 -1.65568 0
M  V30 5931 H 553.001 3.65543 -1.28284 0
M  V30 5932 H 553.415 3.9241 -3.48015 0
M  V30 5933 H 554.889 5.06138 -2.20291 0
M  V30 5934 H 555.366 4.34102 -0.667239 0
M  V30 5935 H 555.972 3.64672 -2.18849 0
M  V30 5936 N 554.287 1.06798 1.15896 0
M  V30 5937 C 555.235 0.677525 2.22514 0
M  V30 5938 C 556.229 -0.308994 1.66558 0
M  V30 5939 O 557.435 -0.173308 1.79164 0
M  V30 5940 H 553.81 0.200994 0.724642 0
M  V30 5941 H 555.781 1.5865 2.52731 0
M  V30 5942 C 554.53 0.0854153 3.47595 0
M  V30 5943 H 553.853 0.835645 3.90969 0
M  V30 5944 H 555.293 -0.150199 4.23734 0
M  V30 5945 C 553.752 -1.1724 3.15843 0
M  V30 5946 O 554.282 -2.25965 3.32119 0
M  V30 5947 N 552.488 -1.07636 2.69931 0
M  V30 5948 H 552.035 -0.191559 2.56887 0
M  V30 5949 H 551.993 -1.91876 2.4906 0
M  V30 5950 N 555.766 -1.3263 0.851289 0
M  V30 5951 C 556.991 -2.02097 0.466006 0
M  V30 5952 C 557.416 -1.63574 -0.928709 0
M  V30 5953 O 556.774 -0.834665 -1.60944 0
M  V30 5954 C 556.822 -3.55425 0.608737 0
M  V30 5955 O 555.926 -4.10827 -0.359878 0
M  V30 5956 H 555.267 -0.636911 0.187724 0
M  V30 5957 H 557.797 -1.69253 1.14955 0
M  V30 5958 H 557.807 -4.04986 0.495006 0
M  V30 5959 H 556.482 -3.82806 1.62581 0
M  V30 5960 H 555.059 -3.72349 -0.202666 0
M  V30 5961 N 557.244 -0.608902 -1.45362 0
M  V30 5962 C 558.192 0.121639 -2.32282 0
M  V30 5963 C 559.186 0.858301 -1.46046 0
M  V30 5964 O 560.392 0.773718 -1.62523 0
M  V30 5965 H 556.767 0.058086 -0.749753 0
M  V30 5966 H 558.738 -0.629866 -2.91677 0
M  V30 5967 C 557.487 1.1047 -3.29684 0
M  V30 5968 H 556.81 0.547278 -3.96036 0
M  V30 5969 H 558.25 1.58576 -3.9323 0
M  V30 5970 C 556.709 2.17891 -2.56954 0
M  V30 5971 O 557.239 3.25652 -2.35189 0
M  V30 5972 N 555.445 1.93211 -2.17066 0
M  V30 5973 H 554.992 1.05584 -2.34967 0
M  V30 5974 H 554.95 2.6529 -1.68727 0
M  V30 5975 N 558.722 1.53707 -0.348139 0
M  V30 5976 C 559.952 2.05108 0.247864 0
M  V30 5977 C 560.36 1.22252 1.44399 0
M  V30 5978 O 559.703 0.251853 1.81965 0
M  V30 5979 C 559.765 3.52171 0.722187 0
M  V30 5980 C 559.429 4.5562 -0.354902 0
M  V30 5981 C 560.426 5.05883 -1.19911 0
M  V30 5982 C 558.111 4.99703 -0.510145 0
M  V30 5983 C 560.105 5.98814 -2.18406 0
M  V30 5984 C 557.792 5.92443 -1.49848 0
M  V30 5985 C 558.79 6.41887 -2.33389 0
M  V30 5986 O 558.478 7.32802 -3.3054 0
M  V30 5987 H 558.21 0.674086 0.0508296 0
M  V30 5988 H 560.764 1.99229 -0.49968 0
M  V30 5989 H 558.994 3.55529 1.52105 0
M  V30 5990 H 560.683 3.8652 1.23925 0
M  V30 5991 H 561.449 4.72586 -1.09028 0
M  V30 5992 H 557.328 4.60816 0.130274 0
M  V30 5993 H 560.872 6.3733 -2.83649 0
M  V30 5994 H 556.769 6.25155 -1.60786 0
M  V30 5995 H 557.537 7.50749 -3.26064 0
M  V30 5996 N 560.2 0.0768682 1.57412 0
M  V30 5997 C 561.132 -0.918248 2.10002 0
M  V30 5998 C 562.145 -1.25808 1.03325 0
M  V30 5999 O 563.334 -1.21438 1.30824 0
M  V30 6000 C 560.434 -2.23263 2.54964 0
M  V30 6001 C 559.607 -2.07088 3.8527 0
M  V30 6002 C 558.666 -3.21876 4.16272 0
M  V30 6003 O 557.692 -2.96643 4.8579 0
M  V30 6004 N 558.894 -4.4712 3.70221 0
M  V30 6005 H 561.659 -0.469209 2.96004 0
M  V30 6006 H 559.22 -0.108725 1.61535 0
M  V30 6007 H 561.212 -2.9897 2.72762 0
M  V30 6008 H 559.782 -2.59649 1.74072 0
M  V30 6009 H 559.002 -1.15818 3.76802 0
M  V30 6010 H 560.29 -1.93537 4.70554 0
M  V30 6011 H 559.688 -4.70506 3.1407 0
M  V30 6012 H 558.245 -5.19837 3.93209 0
M  V30 6013 N 561.678 -1.56367 -0.196722 0
M  V30 6014 C 562.611 -1.89475 -1.2718 0
M  V30 6015 C 563.589 -0.754667 -1.44026 0
M  V30 6016 O 564.773 -1.00551 -1.59442 0
M  V30 6017 C 561.9 -2.12352 -2.63864 0
M  V30 6018 C 560.946 -3.35053 -2.63897 0
M  V30 6019 S 561.779 -4.90228 -2.15492 0
M  V30 6020 C 562.935 -5.16171 -3.54004 0
M  V30 6021 H 563.168 -2.80365 -0.989075 0
M  V30 6022 H 560.701 -1.49125 -0.40014 0
M  V30 6023 H 562.659 -2.26214 -3.42545 0
M  V30 6024 H 561.32 -1.22214 -2.89349 0
M  V30 6025 H 560.513 -3.48182 -3.64397 0
M  V30 6026 H 560.115 -3.20176 -1.93296 0
M  V30 6027 H 562.407 -5.06591 -4.49857 0
M  V30 6028 H 563.35 -6.17938 -3.45771 0
M  V30 6029 H 563.758 -4.43814 -3.48841 0
M  V30 6030 N 563.156 0.464375 -1.50603 0
M  V30 6031 C 564.106 1.55929 -1.66343 0
M  V30 6032 C 565.09 1.52338 -0.517887 0
M  V30 6033 O 566.282 1.59248 -0.772601 0
M  V30 6034 C 563.411 2.94327 -1.7671 0
M  V30 6035 C 562.497 3.02777 -2.96962 0
M  V30 6036 N 562.888 2.81026 -4.20545 0
M  V30 6037 C 561.186 3.33919 -2.95659 0
M  V30 6038 C 561.887 2.94618 -5.01573 0
M  V30 6039 N 560.863 3.25112 -4.35664 0
M  V30 6040 H 564.665 1.37822 -2.59581 0
M  V30 6041 H 562.179 0.671227 -1.47879 0
M  V30 6042 H 564.176 3.73063 -1.86091 0
M  V30 6043 H 562.836 3.13476 -0.846353 0
M  V30 6044 H 563.847 2.56477 -4.49933 0
M  V30 6045 H 560.524 3.59013 -2.13111 0
M  V30 6046 H 561.914 2.81984 -6.09865 0
M  V30 6047 N 564.634 1.40294 0.718013 0
M  V30 6048 C 565.564 1.43118 1.84498 0
M  V30 6049 C 566.545 0.292403 1.67568 0
M  V30 6050 O 567.73 0.500675 1.87635 0
M  V30 6051 C 564.86 1.29065 3.22427 0
M  V30 6052 C 563.814 2.40521 3.54025 0
M  V30 6053 C 563.14 2.11546 4.91073 0
M  V30 6054 C 564.44 3.82859 3.55269 0
M  V30 6055 H 566.134 2.37432 1.82391 0
M  V30 6056 H 563.68 1.14283 0.87609 0
M  V30 6057 H 565.633 1.29658 4.00957 0
M  V30 6058 H 564.357 0.312271 3.25104 0
M  V30 6059 H 563.016 2.39173 2.77834 0
M  V30 6060 H 562.664 1.12104 4.90348 0
M  V30 6061 H 562.364 2.86216 5.1318 0
M  V30 6062 H 563.888 2.13817 5.71939 0
M  V30 6063 H 565.302 3.86044 4.23843 0
M  V30 6064 H 563.699 4.57029 3.88902 0
M  V30 6065 H 564.769 4.12617 2.54706 0
M  V30 6066 N 566.112 -0.949982 1.2575 0
M  V30 6067 C 567.042 -2.06483 1.09028 0
M  V30 6068 C 568.023 -1.701 -0.00201532 0
M  V30 6069 O 569.208 -1.93469 0.168383 0
M  V30 6070 C 566.338 -3.39899 0.71316 0
M  V30 6071 C 565.292 -3.90309 1.75621 0
M  V30 6072 C 564.618 -5.20274 1.23365 0
M  V30 6073 C 565.918 -4.16169 3.15596 0
M  V30 6074 H 567.612 -2.20731 2.02283 0
M  V30 6075 H 565.158 -1.06066 0.973964 0
M  V30 6076 H 567.111 -4.17346 0.58309 0
M  V30 6077 H 565.835 -3.25602 -0.255091 0
M  V30 6078 H 564.494 -3.15035 1.8748 0
M  V30 6079 H 564.142 -5.02351 0.255491 0
M  V30 6080 H 563.842 -5.54971 1.93082 0
M  V30 6081 H 565.366 -6.00314 1.11607 0
M  V30 6082 H 566.78 -4.84259 3.06864 0
M  V30 6083 H 565.177 -4.62131 3.82825 0
M  V30 6084 H 566.247 -3.22273 3.6231 0
M  V30 6085 N 567.59 -1.07411 -1.15328 0
M  V30 6086 C 568.537 -0.694995 -2.20087 0
M  V30 6087 C 569.507 0.313904 -1.63107 0
M  V30 6088 O 570.692 0.200216 -1.89747 0
M  V30 6089 C 567.832 -0.0996218 -3.44956 0
M  V30 6090 C 566.945 -1.16007 -4.16133 0
M  V30 6091 C 566.08 -0.529636 -5.28553 0
M  V30 6092 C 565.119 -1.57283 -5.91548 0
M  V30 6093 N 564.256 -0.964932 -6.95438 0
M  V30 6094 H 569.096 -1.5927 -2.51867 0
M  V30 6095 H 566.633 -0.796115 -1.23695 0
M  V30 6096 H 568.591 0.263197 -4.16369 0
M  V30 6097 H 567.221 0.761435 -3.13691 0
M  V30 6098 H 566.273 -1.64045 -3.4321 0
M  V30 6099 H 567.585 -1.95101 -4.59061 0
M  V30 6100 H 566.739 -0.114487 -6.06592 0
M  V30 6101 H 565.478 0.29307 -4.86819 0
M  V30 6102 H 564.483 -1.99775 -5.12221 0
M  V30 6103 H 565.708 -2.39783 -6.35359 0
M  V30 6104 H 563.654 -0.16314 -6.55797 0
M  V30 6105 H 563.571 -1.69311 -7.36797 0
M  V30 6106 H 564.839 -0.575305 -7.77374 0
M  V30 6107 N 569.068 1.32177 -0.85831 0
M  V30 6108 C 570.015 2.28794 -0.303607 0
M  V30 6109 C 570.985 1.55213 0.591453 0
M  V30 6110 O 572.17 1.83418 0.525585 0
M  V30 6111 C 569.31 3.41475 0.49889 0
M  V30 6112 C 568.423 4.2993 -0.422373 0
M  V30 6113 C 567.558 5.29743 0.393111 0
M  V30 6114 C 566.597 6.09842 -0.525317 0
M  V30 6115 N 565.734 7.01643 0.253208 0
M  V30 6116 H 570.574 2.75631 -1.13276 0
M  V30 6117 H 568.111 1.35606 -0.570026 0
M  V30 6118 H 570.069 4.05531 0.979826 0
M  V30 6119 H 568.699 2.95779 1.29284 0
M  V30 6120 H 567.751 3.66422 -1.02171 0
M  V30 6121 H 569.063 4.85899 -1.12709 0
M  V30 6122 H 568.217 5.9942 0.937056 0
M  V30 6123 H 566.956 4.744 1.13117 0
M  V30 6124 H 565.961 5.39066 -1.08112 0
M  V30 6125 H 567.186 6.6727 -1.26205 0
M  V30 6126 H 565.132 6.48725 0.974295 0
M  V30 6127 H 565.049 7.54981 -0.392398 0
M  V30 6128 H 566.317 7.756 0.778761 0
M  V30 6129 N 570.547 0.616602 1.45037 0
M  V30 6130 C 571.775 0.121968 2.0654 0
M  V30 6131 C 572.19 -1.19743 1.45969 0
M  V30 6132 O 571.547 -1.73133 0.577168 0
M  V30 6133 C 571.598 -0.0145171 3.61497 0
M  V30 6134 O 571.319 1.25269 4.19809 0
M  V30 6135 C 572.82 -0.539555 4.40004 0
M  V30 6136 H 570.04 0.0729837 0.667019 0
M  V30 6137 H 572.584 0.846891 1.8614 0
M  V30 6138 H 570.739 -0.689809 3.81209 0
M  V30 6139 H 571.153 1.08816 5.13088 0
M  V30 6140 H 572.627 -0.584112 5.48901 0
M  V30 6141 H 573.104 -1.56368 4.10421 0
M  V30 6142 H 573.71 0.101995 4.25178 0
M  V30 6143 N 572.025 -1.5352 0.356285 0
M  V30 6144 C 572.955 -2.28372 -0.486661 0
M  V30 6145 C 573.936 -1.30432 -1.09185 0
M  V30 6146 O 575.121 -1.59291 -1.11085 0
M  V30 6147 C 572.251 -3.06604 -1.63129 0
M  V30 6148 C 571.205 -4.12154 -1.15381 0
M  V30 6149 C 570.531 -4.78415 -2.38796 0
M  V30 6150 C 571.831 -5.21724 -0.245179 0
M  V30 6151 H 573.525 -2.99083 0.137797 0
M  V30 6152 H 571.071 -1.43841 0.0677134 0
M  V30 6153 H 573.024 -3.57712 -2.22755 0
M  V30 6154 H 571.748 -2.33568 -2.28284 0
M  V30 6155 H 570.407 -3.61978 -0.580294 0
M  V30 6156 H 570.055 -4.01959 -3.02387 0
M  V30 6157 H 569.755 -5.49734 -2.07524 0
M  V30 6158 H 571.279 -5.32313 -2.99125 0
M  V30 6159 H 572.693 -5.68391 -0.748646 0
M  V30 6160 H 571.09 -6.00095 -0.0237608 0
M  V30 6161 H 572.16 -4.79596 0.715229 0
M  V30 6162 N 573.503 -0.0852151 -1.57369 0
M  V30 6163 C 574.435 0.907099 -2.10486 0
M  V30 6164 C 575.448 1.25259 -1.03991 0
M  V30 6165 O 576.637 1.20743 -1.31467 0
M  V30 6166 C 573.737 2.21908 -2.56145 0
M  V30 6167 C 572.91 2.05042 -3.86363 0
M  V30 6168 C 571.969 3.19664 -4.17973 0
M  V30 6169 O 570.995 2.94062 -4.87356 0
M  V30 6170 N 572.197 4.45151 -3.72587 0
M  V30 6171 H 574.962 0.453505 -2.96249 0
M  V30 6172 H 572.523 0.100157 -1.6159 0
M  V30 6173 H 574.515 2.97519 -2.74343 0
M  V30 6174 H 573.085 2.58723 -1.75446 0
M  V30 6175 H 572.305 1.13819 -3.77411 0
M  V30 6176 H 573.593 1.91039 -4.71574 0
M  V30 6177 H 572.991 4.68834 -3.16561 0
M  V30 6178 H 571.548 5.17744 -3.9596 0
M  V30 6179 N 574.981 1.5647 0.188427 0
M  V30 6180 C 575.928 1.95073 1.23349 0
M  V30 6181 C 576.898 0.812238 1.44886 0
M  V30 6182 O 578.083 1.07095 1.57909 0
M  V30 6183 C 575.223 2.30124 2.57171 0
M  V30 6184 C 574.336 3.57069 2.43157 0
M  V30 6185 C 573.471 3.81411 3.69729 0
M  V30 6186 C 572.51 5.0176 3.50575 0
M  V30 6187 N 571.647 5.22321 4.69175 0
M  V30 6188 H 576.487 2.84171 0.89728 0
M  V30 6189 H 574.024 1.40623 0.431683 0
M  V30 6190 H 575.982 2.48463 3.35145 0
M  V30 6191 H 574.612 1.44159 2.88822 0
M  V30 6192 H 573.664 3.4674 1.56447 0
M  V30 6193 H 574.976 4.452 2.24942 0
M  V30 6194 H 574.13 4.00026 4.56141 0
M  V30 6195 H 572.869 2.91624 3.90905 0
M  V30 6196 H 571.874 4.83061 2.62549 0
M  V30 6197 H 573.099 5.93063 3.30837 0
M  V30 6198 H 571.045 4.35483 4.90602 0
M  V30 6199 H 570.962 6.04643 4.53809 0
M  V30 6200 H 572.23 5.45401 5.56919 0
M  V30 6201 N 576.459 -0.456382 1.50847 0
M  V30 6202 C 577.699 -1.21704 1.64218 0
M  V30 6203 C 578.063 -1.88932 0.341859 0
M  V30 6204 O 579.264 -2.66497 0.351137 0
M  V30 6205 C 577.535 -2.22162 2.79962 0
M  V30 6206 S 579.094 -3.0697 3.13552 0
M  V30 6207 H 575.912 -0.412995 0.578754 0
M  V30 6208 H 578.514 -0.511637 1.88686 0
M  V30 6209 H 577.218 -1.71379 3.72904 0
M  V30 6210 H 576.749 -2.9731 2.57624 0
M  V30 6211 H 578.764 -4.23539 2.58513 0
M  V30 6212 N 577.937 -1.40673 -0.710563 0
M  V30 6213 C 578.847 -1.43663 -1.85467 0
M  V30 6214 C 579.863 -0.328721 -1.70867 0
M  V30 6215 O 581.039 -0.574098 -1.93044 0
M  V30 6216 C 578.104 -1.30226 -3.21313 0
M  V30 6217 C 577.165 -2.51204 -3.48131 0
M  V30 6218 C 576.398 -2.38398 -4.77495 0
M  V30 6219 O 576.621 -1.40048 -5.5294 0
M  V30 6220 O 575.555 -3.2787 -5.04762 0
M  V30 6221 H 579.381 -2.40156 -1.859 0
M  V30 6222 H 576.966 -1.22049 -0.861652 0
M  V30 6223 H 578.848 -1.2496 -4.02446 0
M  V30 6224 H 577.523 -0.368419 -3.21597 0
M  V30 6225 H 576.43 -2.62048 -2.66987 0
M  V30 6226 H 577.763 -3.43366 -3.52648 0
M  V30 6227 N 579.415 0.9433 -1.26252 0
M  V30 6228 C 580.362 2.0417 -1.07625 0
M  V30 6229 C 581.332 1.6609 0.0180738 0
M  V30 6230 O 582.517 1.90276 -0.141289 0
M  V30 6231 C 579.657 3.37653 -0.713043 0
M  V30 6232 C 578.77 3.88783 -1.8834 0
M  V30 6233 C 577.905 5.10642 -1.4635 0
M  V30 6234 C 576.944 5.54028 -2.60229 0
M  V30 6235 N 576.081 6.67092 -2.18936 0
M  V30 6236 H 580.921 2.19436 -2.01623 0
M  V30 6237 H 578.458 1.07519 -1.00389 0
M  V30 6238 H 580.416 4.14391 -0.483358 0
M  V30 6239 H 579.046 3.22241 0.18996 0
M  V30 6240 H 578.098 3.08464 -2.22608 0
M  V30 6241 H 579.41 4.16922 -2.73821 0
M  V30 6242 H 578.564 5.94832 -1.19414 0
M  V30 6243 H 577.303 4.84244 -0.579568 0
M  V30 6244 H 576.308 4.68396 -2.87898 0
M  V30 6245 H 577.533 5.82429 -3.49219 0
M  V30 6246 H 575.479 6.42381 -1.32974 0
M  V30 6247 H 575.396 6.94806 -2.97961 0
M  V30 6248 H 576.664 7.54662 -1.95206 0
M  V30 6249 N 580.893 1.08022 1.14757 0
M  V30 6250 C 581.841 0.701088 2.21783 0
M  V30 6251 C 582.835 -0.291311 1.66876 0
M  V30 6252 O 584.041 -0.154296 1.79337 0
M  V30 6253 H 580.416 0.208668 0.722469 0
M  V30 6254 H 582.387 1.61321 2.51034 0
M  V30 6255 C 581.136 0.122278 3.47485 0
M  V30 6256 H 580.459 0.877065 3.90061 0
M  V30 6257 H 581.899 -0.105248 4.23869 0
M  V30 6258 C 580.358 -1.13883 3.17068 0
M  V30 6259 O 580.888 -2.22429 3.34497 0
M  V30 6260 N 579.094 -1.04767 2.71058 0
M  V30 6261 H 578.641 -0.164302 2.57075 0
M  V30 6262 H 578.599 -1.89224 2.51081 0
M  V30 6263 N 582.371 -1.3172 0.865308 0
M  V30 6264 C 583.619 -1.96487 0.472995 0
M  V30 6265 C 583.94 -1.68761 -0.976975 0
M  V30 6266 O 583.21 -1.00051 -1.68424 0
M  V30 6267 H 581.79 -0.726947 0.171922 0
M  V30 6268 H 584.452 -1.60612 1.10407 0
M  V30 6269 H 583.548 -3.0574 0.62687 0
M  V30 6270 N 583.85 -0.624285 -1.44708 0
M  V30 6271 C 585.096 -0.13473 -2.02953 0
M  V30 6272 C 585.451 1.22724 -1.48178 0
M  V30 6273 O 584.744 1.80109 -0.653542 0
M  V30 6274 C 584.938 -0.0546353 -3.57358 0
M  V30 6275 C 584.767 -1.40729 -4.27113 0
M  V30 6276 C 583.537 -1.99231 -4.64365 0
M  V30 6277 C 585.735 -2.33968 -4.58 0
M  V30 6278 N 583.716 -3.27803 -5.19055 0
M  V30 6279 C 585.088 -3.47149 -5.137 0
M  V30 6280 C 587.143 -2.33132 -4.39948 0
M  V30 6281 C 585.846 -4.59682 -5.53249 0
M  V30 6282 C 587.872 -3.44724 -4.8054 0
M  V30 6283 C 587.234 -4.56629 -5.36348 0
M  V30 6284 H 583.332 -0.0930617 -0.776443 0
M  V30 6285 H 585.917 -0.826286 -1.76297 0
M  V30 6286 H 584.088 0.606183 -3.8364 0
M  V30 6287 H 585.82 0.443116 -4.02267 0
M  V30 6288 H 582.575 -1.52251 -4.4846 0
M  V30 6289 H 582.999 -3.93519 -5.50883 0
M  V30 6290 H 587.641 -1.47868 -3.961 0
M  V30 6291 H 585.359 -5.4566 -5.96054 0
M  V30 6292 H 588.945 -3.45245 -4.68291 0
M  V30 6293 H 587.825 -5.41551 -5.67179 0
M  V30 6294 N 585.328 1.53329 -0.364422 0
M  V30 6295 C 586.261 2.22052 0.526145 0
M  V30 6296 C 587.239 1.21203 1.08391 0
M  V30 6297 O 588.423 1.50101 1.14026 0
M  V30 6298 C 585.55 2.91432 1.72583 0
M  V30 6299 C 584.596 4.06345 1.29562 0
M  V30 6300 S 585.429 5.34671 0.297885 0
M  V30 6301 C 586.585 6.07563 1.50392 0
M  V30 6302 H 586.818 2.97244 -0.0575055 0
M  V30 6303 H 584.351 1.53684 -0.148525 0
M  V30 6304 H 586.309 3.3202 2.41398 0
M  V30 6305 H 584.97 2.15966 2.28073 0
M  V30 6306 H 584.163 4.53901 2.19067 0
M  V30 6307 H 583.765 3.67642 0.686696 0
M  V30 6308 H 586.057 6.32224 2.43513 0
M  V30 6309 H 587 6.99973 1.06977 0
M  V30 6310 H 587.408 5.37994 1.70945 0
M  V30 6311 N 586.806 0.0935595 1.57322 0
M  V30 6312 C 587.716 -0.880192 2.17462 0
M  V30 6313 C 588.732 -1.31135 1.14366 0
M  V30 6314 O 589.908 -1.37958 1.46729 0
M  V30 6315 C 586.973 -2.12184 2.74188 0
M  V30 6316 C 586.034 -1.74503 3.92234 0
M  V30 6317 C 585.267 -2.92748 4.46245 0
M  V30 6318 O 585.49 -4.07427 3.99198 0
M  V30 6319 O 584.424 -2.71303 5.37288 0
M  V30 6320 H 588.25 -0.398516 3.01074 0
M  V30 6321 H 585.835 -0.130707 1.48827 0
M  V30 6322 H 587.717 -2.84953 3.10451 0
M  V30 6323 H 586.392 -2.59407 1.93623 0
M  V30 6324 H 585.299 -0.989186 3.60785 0
M  V30 6325 H 586.632 -1.32044 4.74157 0
M  V30 6326 N 588.284 -1.56567 -0.180126 0
M  V30 6327 C 589.216 -1.92275 -1.24751 0
M  V30 6328 C 590.229 -0.814922 -1.40936 0
M  V30 6329 O 591.418 -1.09336 -1.41095 0
M  V30 6330 C 588.518 -2.15265 -2.61752 0
M  V30 6331 C 587.691 -3.46467 -2.66981 0
M  V30 6332 C 586.75 -3.58391 -3.85283 0
M  V30 6333 O 585.776 -4.31086 -3.7169 0
M  V30 6334 N 586.978 -2.92587 -5.01371 0
M  V30 6335 H 589.743 -2.84435 -0.944302 0
M  V30 6336 H 587.304 -1.57617 -0.369952 0
M  V30 6337 H 589.296 -2.20515 -3.39345 0
M  V30 6338 H 587.866 -1.29533 -2.845 0
M  V30 6339 H 587.086 -3.52953 -1.75549 0
M  V30 6340 H 588.374 -4.32819 -2.67479 0
M  V30 6341 H 587.772 -2.3338 -5.15316 0
M  V30 6342 H 586.329 -3.03444 -5.76858 0
M  V30 6343 N 589.762 0.448376 -1.51087 0
M  V30 6344 C 591.011 1.19561 -1.62444 0
M  V30 6345 C 591.324 1.92602 -0.341151 0
M  V30 6346 O 592.53 2.69439 -0.333936 0
M  V30 6347 C 590.986 2.17373 -2.8684 0
M  V30 6348 C 590.594 1.5003 -4.22131 0
M  V30 6349 C 592.338 2.92597 -3.0755 0
M  V30 6350 C 590.245 2.46262 -5.37689 0
M  V30 6351 H 589.175 0.449975 -0.605011 0
M  V30 6352 H 591.826 0.463735 -1.77544 0
M  V30 6353 H 590.208 2.93948 -2.65349 0
M  V30 6354 H 591.382 0.790886 -4.53962 0
M  V30 6355 H 589.697 0.870011 -4.0721 0
M  V30 6356 H 592.294 3.64663 -3.91056 0
M  V30 6357 H 592.637 3.53306 -2.20183 0
M  V30 6358 H 593.17 2.23131 -3.29329 0
M  V30 6359 H 589.909 1.90258 -6.27281 0
M  V30 6360 H 589.429 3.15289 -5.10248 0
M  V30 6361 H 591.108 3.07623 -5.6919 0
M  V30 6362 N 591.24 1.41047 0.703093 0
M  V30 6363 C 592.465 1.43537 1.49706 0
M  V30 6364 C 592.89 0.0401853 1.88057 0
M  V30 6365 O 592.248 -0.954785 1.54122 0
M  V30 6366 C 592.296 2.3433 2.74084 0
M  V30 6367 O 591.4 1.79515 3.71279 0
M  V30 6368 H 590.741 0.487454 0.450871 0
M  V30 6369 H 593.271 1.85422 0.86486 0
M  V30 6370 H 593.281 2.49947 3.22476 0
M  V30 6371 H 591.956 3.35708 2.45506 0
M  V30 6372 H 590.533 1.7331 3.30179 0
M  V30 6373 N 592.718 -0.936591 1.26751 0
M  V30 6374 C 593.966 -1.67998 1.12343 0
M  V30 6375 C 594.287 -1.92137 -0.332938 0
M  V30 6376 O 593.557 -1.52132 -1.23421 0
M  V30 6377 H 592.137 -0.622609 0.412756 0
M  V30 6378 H 594.799 -1.12509 1.59147 0
M  V30 6379 H 593.895 -2.65185 1.64571 0
M  V30 6380 N 594.196 -1.08629 -1.14182 0
M  V30 6381 C 595.143 -0.718299 -2.19338 0
M  V30 6382 C 596.113 0.296587 -1.63431 0
M  V30 6383 O 597.298 0.180079 -1.89948 0
M  V30 6384 C 594.438 -0.136203 -3.44831 0
M  V30 6385 C 593.551 -1.20414 -4.14879 0
M  V30 6386 C 592.686 -0.585666 -5.27962 0
M  V30 6387 C 591.725 -1.63548 -5.89846 0
M  V30 6388 N 590.862 -1.03864 -6.94375 0
M  V30 6389 H 595.702 -1.61932 -2.50164 0
M  V30 6390 H 593.239 -0.80919 -1.22844 0
M  V30 6391 H 595.197 0.219021 -4.16625 0
M  V30 6392 H 593.827 0.728121 -3.14481 0
M  V30 6393 H 592.879 -1.67676 -3.41451 0
M  V30 6394 H 594.191 -1.99959 -4.56966 0
M  V30 6395 H 593.345 -0.178818 -6.06436 0
M  V30 6396 H 592.084 0.24142 -4.87102 0
M  V30 6397 H 591.089 -2.05197 -5.10073 0
M  V30 6398 H 592.314 -2.46509 -6.3278 0
M  V30 6399 H 590.26 -0.232687 -6.55587 0
M  V30 6400 H 590.177 -1.77116 -7.3496 0
M  V30 6401 H 591.445 -0.657724 -7.7672 0
M  V30 6402 N 595.674 1.31259 -0.872281 0
M  V30 6403 C 596.922 1.96233 -0.483409 0
M  V30 6404 C 597.243 1.69276 0.968012 0
M  V30 6405 O 596.513 1.00943 1.67891 0
M  V30 6406 H 595.093 0.726025 -0.175774 0
M  V30 6407 H 597.755 1.60024 -1.11258 0
M  V30 6408 H 596.851 3.05403 -0.643075 0
M  V30 6409 N 597.152 0.631951 1.44375 0
M  V30 6410 C 598.399 0.136767 2.02038 0
M  V30 6411 C 598.727 -1.24168 1.49709 0
M  V30 6412 O 597.982 -1.83809 0.671763 0
M  V30 6413 C 598.281 0.0735861 3.57324 0
M  V30 6414 C 597.947 1.39092 4.28911 0
M  V30 6415 C 596.609 1.75171 4.48184 0
M  V30 6416 C 598.961 2.26042 4.69632 0
M  V30 6417 C 596.289 2.97907 5.05439 0
M  V30 6418 C 598.641 3.4805 5.28246 0
M  V30 6419 C 597.305 3.84351 5.45738 0
M  V30 6420 H 596.575 0.0500466 0.739308 0
M  V30 6421 H 599.222 0.818429 1.7313 0
M  V30 6422 H 597.527 -0.691449 3.8565 0
M  V30 6423 H 599.224 -0.326091 3.99672 0
M  V30 6424 H 595.814 1.10015 4.1424 0
M  V30 6425 H 599.998 1.99463 4.54454 0
M  V30 6426 H 595.254 3.26108 5.17169 0
M  V30 6427 H 599.428 4.15658 5.5875 0
M  V30 6428 H 597.055 4.79538 5.8987 0
M  V30 6429 N 598.631 -1.53133 0.372548 0
M  V30 6430 C 599.856 -2.0625 -0.218098 0
M  V30 6431 C 600.281 -1.24375 -1.41111 0
M  V30 6432 O 599.639 -0.264554 -1.79359 0
M  V30 6433 C 599.687 -3.55858 -0.582876 0
M  V30 6434 O 598.791 -3.76667 -1.67917 0
M  V30 6435 H 598.132 -0.663317 -0.030104 0
M  V30 6436 H 600.662 -1.97477 0.535169 0
M  V30 6437 H 600.672 -3.99007 -0.851925 0
M  V30 6438 H 599.347 -4.14892 0.289428 0
M  V30 6439 H 597.924 -3.45413 -1.40513 0
M  V30 6440 N 600.109 -0.101901 -1.5727 0
M  V30 6441 C 601.357 0.559091 -1.94213 0
M  V30 6442 C 601.678 1.68297 -0.984948 0
M  V30 6443 O 600.948 1.95863 -0.0381975 0
M  V30 6444 H 599.528 0.20952 -0.717015 0
M  V30 6445 H 602.19 -0.166831 -1.94185 0
M  V30 6446 H 601.286 0.96485 -2.96811 0
M  V30 6447 N 601.587 1.56661 0.17182 0
M  V30 6448 C 602.815 1.861 0.904115 0
M  V30 6449 C 603.23 0.687227 1.75848 0
M  V30 6450 O 602.587 -0.343671 1.79235 0
M  V30 6451 C 602.638 3.14568 1.78127 0
M  V30 6452 O 602.359 4.27422 0.961366 0
M  V30 6453 C 603.86 3.5735 2.62327 0
M  V30 6454 H 601.08 0.617445 0.262684 0
M  V30 6455 H 603.624 2.03775 0.172068 0
M  V30 6456 H 601.779 2.98721 2.46666 0
M  V30 6457 H 602.193 5.00725 1.56123 0
M  V30 6458 H 603.667 4.50144 3.1949 0
M  V30 6459 H 604.144 2.81445 3.37173 0
M  V30 6460 H 604.75 3.75807 1.99121 0
M  V30 6461 N 603.065 -0.440357 1.51323 0
M  V30 6462 C 604.312 -1.19004 1.63842 0
M  V30 6463 C 604.64 -1.91266 0.35321 0
M  V30 6464 O 603.895 -1.84143 -0.662565 0
M  V30 6465 C 604.194 -2.2339 2.78984 0
M  V30 6466 C 603.86 -1.68162 4.18369 0
M  V30 6467 C 602.522 -1.52823 4.56288 0
M  V30 6468 C 604.874 -1.27524 5.05358 0
M  V30 6469 C 602.202 -0.953157 5.78906 0
M  V30 6470 C 604.554 -0.714474 6.28552 0
M  V30 6471 C 603.218 -0.547961 6.65247 0
M  V30 6472 H 602.488 -0.435468 0.59954 0
M  V30 6473 H 605.135 -0.481538 1.85347 0
M  V30 6474 H 603.44 -3.00267 2.51688 0
M  V30 6475 H 605.137 -2.81211 2.85869 0
M  V30 6476 H 601.727 -1.81077 3.8847 0
M  V30 6477 H 605.911 -1.38197 4.76671 0
M  V30 6478 H 601.167 -0.811882 6.05986 0
M  V30 6479 H 605.341 -0.391059 6.95301 0
M  V30 6480 H 602.968 -0.100222 7.60134 0
M  V30 6481 N 604.543 -1.41418 -0.695603 0
M  V30 6482 C 605.475 -1.39195 -1.82092 0
M  V30 6483 C 606.488 -0.294132 -1.60121 0
M  V30 6484 O 607.677 -0.555854 -1.69625 0
M  V30 6485 C 604.777 -1.14828 -3.18854 0
M  V30 6486 C 603.95 -2.36649 -3.67853 0
M  V30 6487 C 603.009 -2.08139 -4.83285 0
M  V30 6488 O 602.035 -2.81177 -4.94902 0
M  V30 6489 N 603.237 -1.07162 -5.70523 0
M  V30 6490 H 606.002 -2.36185 -1.84491 0
M  V30 6491 H 603.563 -1.3603 -0.877923 0
M  V30 6492 H 605.555 -0.937075 -3.93702 0
M  V30 6493 H 604.125 -0.264358 -3.1148 0
M  V30 6494 H 603.345 -2.73472 -2.83913 0
M  V30 6495 H 604.633 -3.17816 -3.97329 0
M  V30 6496 H 604.031 -0.467124 -5.63768 0
M  V30 6497 H 602.588 -0.920311 -6.4527 0
M  V30 6498 N 606.021 0.929856 -1.27246 0
M  V30 6499 C 606.951 2.04722 -1.12299 0
M  V30 6500 C 607.932 1.70082 -0.0250464 0
M  V30 6501 O 609.117 1.93176 -0.199141 0
M  V30 6502 C 606.247 3.38721 -0.767145 0
M  V30 6503 C 605.201 3.87466 -1.81808 0
M  V30 6504 C 604.527 5.18246 -1.31626 0
M  V30 6505 C 605.827 4.11095 -3.22177 0
M  V30 6506 H 607.521 2.17485 -2.05769 0
M  V30 6507 H 605.067 1.04503 -0.990715 0
M  V30 6508 H 607.02 4.16366 -0.649413 0
M  V30 6509 H 605.744 3.25967 0.203259 0
M  V30 6510 H 604.403 3.12012 -1.92468 0
M  V30 6511 H 604.051 5.01881 -0.335378 0
M  V30 6512 H 603.751 5.51829 -2.01887 0
M  V30 6513 H 605.275 5.98462 -1.21143 0
M  V30 6514 H 606.689 4.79316 -3.1453 0
M  V30 6515 H 605.086 4.55982 -3.90129 0
M  V30 6516 H 606.156 3.16468 -3.67391 0
M  V30 6517 N 607.499 1.09233 1.13605 0
M  V30 6518 C 608.739 0.836786 1.86487 0
M  V30 6519 C 609.103 -0.626191 1.81502 0
M  V30 6520 O 610.304 -0.99758 2.49603 0
M  V30 6521 C 608.575 1.35476 3.30728 0
M  V30 6522 S 610.134 1.2328 4.21126 0
M  V30 6523 H 606.952 0.302702 0.643345 0
M  V30 6524 H 609.554 1.3953 1.36936 0
M  V30 6525 H 608.258 2.41381 3.31909 0
M  V30 6526 H 607.789 0.792286 3.85339 0
M  V30 6527 H 609.804 0.182468 4.95864 0
M  V30 6528 N 608.977 -1.30795 0.87923 0
M  V30 6529 C 610.224 -1.96362 0.494786 0
M  V30 6530 C 610.552 -1.69448 -0.954868 0
M  V30 6531 O 609.807 -0.988711 -1.68888 0
M  V30 6532 C 610.106 -3.50287 0.709476 0
M  V30 6533 C 609.772 -3.9724 2.13333 0
M  V30 6534 C 608.434 -4.09772 2.52271 0
M  V30 6535 C 610.786 -4.21807 3.06151 0
M  V30 6536 C 608.114 -4.44227 3.83248 0
M  V30 6537 C 610.466 -4.5773 4.36654 0
M  V30 6538 C 609.13 -4.68469 4.75492 0
M  V30 6539 H 608.4 -0.71854 0.181055 0
M  V30 6540 H 611.047 -1.55764 1.11399 0
M  V30 6541 H 609.352 -3.91799 0.0072 0
M  V30 6542 H 611.049 -3.99082 0.391703 0
M  V30 6543 H 607.639 -3.87988 1.82107 0
M  V30 6544 H 611.823 -4.11611 2.77291 0
M  V30 6545 H 607.079 -4.50741 4.13089 0
M  V30 6546 H 611.253 -4.7569 5.08617 0
M  V30 6547 H 608.88 -4.94923 5.77022 0
M  V30 6548 N 610.455 -0.639598 -1.44038 0
M  V30 6549 C 611.866 -0.228866 -1.85292 0
M  V30 6550 C 612.217 1.22161 -1.53529 0
M  V30 6551 O 611.342 1.93064 -0.977518 0
M  V30 6552 C 611.937 -0.408592 -3.36327 0
M  V30 6553 C 610.496 -0.0522953 -3.76364 0
M  V30 6554 C 609.643 -0.717959 -2.67844 0
M  V30 6555 H 612.594 -0.844194 -1.34384 0
M  V30 6556 H 612.615 0.349968 -3.78887 0
M  V30 6557 H 612.127 -1.46435 -3.59414 0
M  V30 6558 H 610.228 1.0014 -3.58891 0
M  V30 6559 H 610.341 -0.468261 -4.76806 0
M  V30 6560 H 608.705 -0.152459 -2.54243 0
M  V30 6561 H 609.488 -1.77648 -2.93762 0
M  V30 6562 N 611.933 1.52934 -0.380664 0
M  V30 6563 C 613.163 2.05587 0.204302 0
M  V30 6564 C 613.571 1.25288 1.41773 0
M  V30 6565 O 612.914 0.290394 1.8139 0
M  V30 6566 C 612.976 3.53624 0.647324 0
M  V30 6567 C 612.64 4.54765 -0.451465 0
M  V30 6568 C 613.637 5.03226 -1.30614 0
M  V30 6569 C 611.322 4.98508 -0.616025 0
M  V30 6570 C 613.316 5.94046 -2.31058 0
M  V30 6571 C 611.003 5.89131 -1.62381 0
M  V30 6572 C 612.001 6.36792 -2.46952 0
M  V30 6573 O 611.689 7.25626 -3.46009 0
M  V30 6574 H 611.421 0.675013 0.0365198 0
M  V30 6575 H 613.975 1.98125 -0.541827 0
M  V30 6576 H 612.205 3.58676 1.44529 0
M  V30 6577 H 613.894 3.89061 1.15698 0
M  V30 6578 H 614.66 4.70167 -1.19027 0
M  V30 6579 H 610.539 4.60989 0.0324987 0
M  V30 6580 H 614.083 6.3117 -2.97104 0
M  V30 6581 H 609.98 6.21603 -1.7401 0
M  V30 6582 H 610.748 7.43664 -3.41916 0
M  V30 6583 N 613.412 0.11024 1.57214 0
M  V30 6584 C 614.642 -0.557025 1.98949 0
M  V30 6585 C 615.05 -1.61317 0.988606 0
M  V30 6586 O 614.393 -1.83679 -0.0279159 0
M  V30 6587 C 614.455 -1.24956 3.37085 0
M  V30 6588 C 614.119 -0.342398 4.55716 0
M  V30 6589 C 615.116 0.415511 5.18237 0
M  V30 6590 C 612.801 -0.256029 5.01647 0
M  V30 6591 C 614.795 1.24761 6.25071 0
M  V30 6592 C 612.482 0.579713 6.08344 0
M  V30 6593 C 613.48 1.33017 6.69922 0
M  V30 6594 O 613.168 2.15205 7.74559 0
M  V30 6595 H 612.9 -0.152792 0.658506 0
M  V30 6596 H 615.454 0.19076 2.04512 0
M  V30 6597 H 613.684 -2.04424 3.2825 0
M  V30 6598 H 615.373 -1.81286 3.63167 0
M  V30 6599 H 616.139 0.358605 4.83672 0
M  V30 6600 H 612.018 -0.829831 4.5347 0
M  V30 6601 H 615.562 1.83386 6.73064 0
M  V30 6602 H 611.459 0.638044 6.42339 0
M  V30 6603 H 612.227 2.08052 7.91617 0
M  V30 6604 N 614.89 -1.56749 -0.16351 0
M  V30 6605 C 616.301 -1.72039 -0.725216 0
M  V30 6606 C 616.652 -0.72202 -1.82432 0
M  V30 6607 O 615.777 0.114942 -2.16095 0
M  V30 6608 C 616.372 -3.11932 -1.32227 0
M  V30 6609 C 614.931 -3.28879 -1.83072 0
M  V30 6610 C 614.078 -2.67984 -0.712716 0
M  V30 6611 H 617.029 -1.58579 0.0619772 0
M  V30 6612 H 617.05 -3.11015 -2.19202 0
M  V30 6613 H 616.562 -3.84572 -0.522103 0
M  V30 6614 H 614.663 -2.61209 -2.65708 0
M  V30 6615 H 614.776 -4.36688 -1.97079 0
M  V30 6616 H 613.14 -2.28005 -1.13515 0
M  V30 6617 H 613.923 -3.43216 0.0757361 0
M  V30 6618 N 616.368 0.432326 -1.51554 0
M  V30 6619 C 617.593 1.20824 -1.68571 0
M  V30 6620 C 618.018 1.84126 -0.384596 0
M  V30 6621 O 617.376 1.69025 0.655751 0
M  V30 6622 C 617.424 2.26429 -2.80646 0
M  V30 6623 O 616.528 3.32032 -2.44598 0
M  V30 6624 H 615.869 0.353765 -0.561913 0
M  V30 6625 H 618.399 0.509916 -1.98144 0
M  V30 6626 H 618.409 2.71133 -3.04878 0
M  V30 6627 H 617.084 1.79733 -3.75058 0
M  V30 6628 H 615.661 2.92769 -2.30956 0
M  V30 6629 N 617.846 1.41785 0.688094 0
M  V30 6630 C 619.257 1.3701 1.26828 0
M  V30 6631 C 619.608 0.056835 1.96118 0
M  V30 6632 O 618.733 -0.84475 1.99231 0
M  V30 6633 C 619.328 2.48168 2.30648 0
M  V30 6634 C 617.887 2.46766 2.84224 0
M  V30 6635 C 617.034 2.27633 1.58361 0
M  V30 6636 H 619.985 1.51192 0.482351 0
M  V30 6637 H 620.006 2.17655 3.121 0
M  V30 6638 H 619.518 3.43735 1.80188 0
M  V30 6639 H 617.619 1.54978 3.3884 0
M  V30 6640 H 617.732 3.43342 3.34145 0
M  V30 6641 H 616.096 1.75648 1.84445 0
M  V30 6642 H 616.879 3.25238 1.09887 0
M  V30 6643 N 619.324 -0.923095 1.27737 0
M  V30 6644 C 620.572 -1.66797 1.14119 0
M  V30 6645 C 620.893 -1.92479 -0.312541 0
M  V30 6646 O 620.163 -1.53432 -1.218 0
M  V30 6647 H 618.743 -0.618196 0.419336 0
M  V30 6648 H 621.405 -1.10815 1.60331 0
M  V30 6649 H 620.501 -2.63424 1.67374 0
M  V30 6650 N 620.802 -1.09834 -1.13024 0
M  V30 6651 C 622.048 -0.83819 -1.84668 0
M  V30 6652 C 622.381 0.634645 -1.83537 0
M  V30 6653 O 621.656 1.46753 -1.27647 0
M  V30 6654 C 621.939 -1.37933 -3.32636 0
M  V30 6655 C 621.792 -2.91857 -3.42257 0
M  V30 6656 C 623.111 -1.01654 -4.28199 0
M  V30 6657 H 620.23 -0.30595 -0.670495 0
M  V30 6658 H 622.872 -1.36044 -1.32635 0
M  V30 6659 H 621.022 -0.935111 -3.77078 0
M  V30 6660 H 622.694 -3.44759 -3.06495 0
M  V30 6661 H 620.937 -3.28776 -2.83 0
M  V30 6662 H 621.608 -3.24799 -4.46329 0
M  V30 6663 H 624.084 -1.39973 -3.9185 0
M  V30 6664 H 622.96 -1.42217 -5.30156 0
M  V30 6665 H 623.221 0.0747794 -4.42037 0
M  V30 6666 N 622.28 1.30327 -0.886154 0
M  V30 6667 C 623.21 2.30549 -0.370028 0
M  V30 6668 C 624.191 1.61039 0.547751 0
M  V30 6669 O 625.376 1.8864 0.461353 0
M  V30 6670 C 622.506 3.44808 0.415275 0
M  V30 6671 C 621.46 4.26024 -0.41085 0
M  V30 6672 C 620.786 5.32347 0.501128 0
M  V30 6673 C 622.086 4.95433 -1.65359 0
M  V30 6674 H 623.78 2.73969 -1.20754 0
M  V30 6675 H 621.326 1.3171 -0.582097 0
M  V30 6676 H 623.279 4.13986 0.78699 0
M  V30 6677 H 622.003 3.00197 1.28644 0
M  V30 6678 H 620.662 3.58535 -0.764719 0
M  V30 6679 H 620.31 4.83982 1.37004 0
M  V30 6680 H 620.01 5.87581 -0.0478356 0
M  V30 6681 H 621.534 6.0438 0.869333 0
M  V30 6682 H 622.948 5.5712 -1.35239 0
M  V30 6683 H 621.345 5.60537 -2.14284 0
M  V30 6684 H 622.415 4.21493 -2.39733 0
M  V30 6685 N 623.758 0.647228 1.43697 0
M  V30 6686 C 625.005 0.158188 2.01881 0
M  V30 6687 C 625.333 -1.22573 1.51017 0
M  V30 6688 O 624.588 -1.83086 0.69122 0
M  V30 6689 C 624.887 0.111481 3.57226 0
M  V30 6690 C 624.553 1.43633 4.27411 0
M  V30 6691 C 623.215 1.79915 4.463 0
M  V30 6692 C 625.567 2.31011 4.67208 0
M  V30 6693 C 622.895 3.03251 5.02251 0
M  V30 6694 C 625.247 3.53633 5.24525 0
M  V30 6695 C 623.911 3.90118 5.41631 0
M  V30 6696 H 623.181 0.0578851 0.738736 0
M  V30 6697 H 625.828 0.836746 1.72252 0
M  V30 6698 H 624.133 -0.650507 3.86362 0
M  V30 6699 H 625.83 -0.283682 3.99995 0
M  V30 6700 H 622.42 1.14403 4.1305 0
M  V30 6701 H 626.604 2.04272 4.52313 0
M  V30 6702 H 621.86 3.31575 5.13681 0
M  V30 6703 H 626.034 4.21561 5.5431 0
M  V30 6704 H 623.661 4.85768 5.84751 0
M  V30 6705 N 625.236 -1.5273 0.388769 0
M  V30 6706 C 626.647 -1.86505 -0.0853788 0
M  V30 6707 C 626.998 -1.30847 -1.46197 0
M  V30 6708 O 626.123 -0.639609 -2.06732 0
M  V30 6709 C 626.718 -3.38414 -0.161703 0
M  V30 6710 C 625.277 -3.71902 -0.580144 0
M  V30 6711 C 624.424 -2.76095 0.258218 0
M  V30 6712 H 627.375 -1.46647 0.606665 0
M  V30 6713 H 627.396 -3.67638 -0.980936 0
M  V30 6714 H 626.908 -3.78893 0.840333 0
M  V30 6715 H 625.009 -3.36992 -1.58957 0
M  V30 6716 H 625.122 -4.77902 -0.338663 0
M  V30 6717 H 623.486 -2.53195 -0.276432 0
M  V30 6718 H 624.269 -3.19411 1.25822 0
M  V30 6719 N 626.714 -0.118576 -1.57153 0
M  V30 6720 C 627.661 0.831789 -2.1529 0
M  V30 6721 C 628.631 1.26385 -1.07778 0
M  V30 6722 O 629.816 1.34144 -1.35684 0
M  V30 6723 C 626.956 2.07664 -2.75626 0
M  V30 6724 C 626.069 1.69298 -3.97444 0
M  V30 6725 C 625.204 2.88747 -4.45868 0
M  V30 6726 C 624.243 2.46619 -5.60219 0
M  V30 6727 N 623.38 3.5898 -6.03389 0
M  V30 6728 H 628.22 0.329183 -2.96176 0
M  V30 6729 H 625.757 0.150792 -1.46325 0
M  V30 6730 H 627.715 2.80601 -3.08738 0
M  V30 6731 H 626.345 2.55384 -1.97431 0
M  V30 6732 H 625.397 0.862374 -3.70496 0
M  V30 6733 H 626.709 1.34338 -4.80369 0
M  V30 6734 H 625.863 3.69909 -4.80887 0
M  V30 6735 H 624.602 3.26933 -3.61892 0
M  V30 6736 H 623.607 1.63889 -5.24805 0
M  V30 6737 H 624.832 2.0955 -6.45961 0
M  V30 6738 H 622.778 3.9684 -5.22354 0
M  V30 6739 H 622.695 3.27942 -6.81168 0
M  V30 6740 H 623.963 4.40583 -6.43045 0
M  V30 6741 N 628.193 1.56834 0.155195 0
M  V30 6742 C 629.14 1.97646 1.19184 0
M  V30 6743 C 630.11 0.842788 1.4313 0
M  V30 6744 O 631.295 1.1042 1.55602 0
M  V30 6745 C 628.435 2.35527 2.52232 0
M  V30 6746 C 627.548 3.62147 2.35529 0
M  V30 6747 C 626.683 3.89167 3.61555 0
M  V30 6748 C 625.722 5.09084 3.39853 0
M  V30 6749 N 624.859 5.32156 4.5799 0
M  V30 6750 H 629.699 2.8601 0.836802 0
M  V30 6751 H 627.236 1.41507 0.401758 0
M  V30 6752 H 629.194 2.55516 3.29799 0
M  V30 6753 H 627.824 1.50253 2.85699 0
M  V30 6754 H 626.876 3.4998 1.49057 0
M  V30 6755 H 628.188 4.49871 2.15448 0
M  V30 6756 H 627.342 4.09611 4.47553 0
M  V30 6757 H 626.081 2.9985 3.84632 0
M  V30 6758 H 625.086 4.88522 2.52243 0
M  V30 6759 H 626.311 5.99947 3.18183 0
M  V30 6760 H 624.257 4.45791 4.81255 0
M  V30 6761 H 624.174 6.14133 4.40882 0
M  V30 6762 H 625.442 5.57091 5.45225 0
M  V30 6763 N 629.671 -0.424282 1.51781 0
M  V30 6764 C 630.581 -1.54087 1.76902 0
M  V30 6765 C 631.597 -1.61249 0.653826 0
M  V30 6766 O 632.773 -1.78247 0.937552 0
M  V30 6767 C 629.838 -2.8996 1.90063 0
M  V30 6768 C 628.899 -2.92809 3.13945 0
M  V30 6769 C 628.132 -4.22201 3.26469 0
M  V30 6770 O 628.355 -5.15286 2.44616 0
M  V30 6771 O 627.289 -4.31599 4.1953 0
M  V30 6772 H 631.115 -1.358 2.71647 0
M  V30 6773 H 628.7 -0.608618 1.36441 0
M  V30 6774 H 630.582 -3.70575 2.0063 0
M  V30 6775 H 629.257 -3.08347 0.985067 0
M  V30 6776 H 628.164 -2.11102 3.08847 0
M  V30 6777 H 629.497 -2.79369 4.05233 0
M  V30 6778 N 631.149 -1.42148 -0.680565 0
M  V30 6779 C 632.56 -1.3768 -1.26099 0
M  V30 6780 C 632.911 -0.0672348 -1.96085 0
M  V30 6781 O 632.036 0.834172 -1.99676 0
M  V30 6782 C 632.631 -2.49387 -2.29328 0
M  V30 6783 C 631.19 -2.4827 -2.82911 0
M  V30 6784 C 630.337 -2.2847 -1.57152 0
M  V30 6785 H 633.288 -1.51446 -0.474326 0
M  V30 6786 H 633.309 -2.19307 -3.10941 0
M  V30 6787 H 632.821 -3.44686 -1.78363 0
M  V30 6788 H 630.922 -1.56773 -3.38013 0
M  V30 6789 H 631.035 -3.45109 -3.3232 0
M  V30 6790 H 629.399 -1.76623 -1.83511 0
M  V30 6791 H 630.182 -3.25816 -1.0816 0
M  V30 6792 N 632.627 0.916307 -1.28225 0
M  V30 6793 C 633.904 1.64429 -1.05936 0
M  V30 6794 C 634.284 2.07234 0.402139 0
M  V30 6795 O 633.632 1.81535 1.3877 0
M  V30 6796 C 633.842 2.83773 -2.03159 0
M  V30 6797 C 635.19 3.54852 -2.33164 0
M  V30 6798 O 636.214 2.93918 -2.01223 0
M  V30 6799 O 635.073 4.64663 -2.87664 0
M  V30 6800 H 632.167 0.721221 -0.404683 0
M  V30 6801 H 634.713 0.965838 -1.39534 0
M  V30 6802 H 633.485 2.49217 -3.01673 0
M  V30 6803 H 633.108 3.59333 -1.70192 0
M  V30 6804 N 634.105 1.10431 1.1244 0
M  V30 6805 C 635.382 0.758797 1.80282 0
M  V30 6806 C 635.762 -0.754727 1.97147 0
M  V30 6807 O 635.11 -1.68094 1.54779 0
M  V30 6808 C 635.32 1.50982 3.14651 0
M  V30 6809 C 636.668 1.68232 3.8985 0
M  V30 6810 O 637.692 1.47319 3.24308 0
M  V30 6811 O 636.551 2.02905 5.07437 0
M  V30 6812 H 633.645 0.273756 0.780376 0
M  V30 6813 H 636.191 1.20713 1.19275 0
M  V30 6814 H 634.963 2.53989 2.97666 0
M  V30 6815 H 634.586 1.05435 3.83366 0
M  V30 6816 N 635.583 -1.29855 0.893053 0
M  V30 6817 C 636.808 -2.00512 0.530066 0
M  V30 6818 C 637.233 -1.66446 -0.876199 0
M  V30 6819 O 636.591 -0.885446 -1.58207 0
M  V30 6820 C 636.639 -3.53308 0.721505 0
M  V30 6821 O 635.743 -4.11764 -0.228994 0
M  V30 6822 H 635.084 -0.630617 0.207891 0
M  V30 6823 H 637.614 -1.6551 1.20282 0
M  V30 6824 H 637.624 -4.03206 0.623599 0
M  V30 6825 H 636.299 -3.77439 1.74678 0
M  V30 6826 H 634.876 -3.72805 -0.0841034 0
M  V30 6827 N 637.061 -0.65484 -1.43351 0
M  V30 6828 C 638.477 -0.32255 -1.56307 0
M  V30 6829 C 638.677 1.17324 -1.63821 0
M  V30 6830 O 637.733 1.95813 -1.59417 0
M  V30 6831 C 639.046 -1.03533 -2.82314 0
M  V30 6832 C 640.594 -1.01574 -2.9606 0
M  V30 6833 C 641.069 -1.70945 -4.24902 0
M  V30 6834 N 642.56 -1.67716 -4.3177 0
M  V30 6835 C 643.295 -2.18265 -5.30234 0
M  V30 6836 N 642.791 -2.7711 -6.34966 0
M  V30 6837 N 644.584 -2.08756 -5.21898 0
M  V30 6838 H 636.735 -1.62549 -1.36717 0
M  V30 6839 H 638.998 -0.683676 -0.656727 0
M  V30 6840 H 638.704 -2.09045 -2.8283 0
M  V30 6841 H 638.578 -0.587913 -3.7259 0
M  V30 6842 H 640.965 0.0309834 -2.95084 0
M  V30 6843 H 641.046 -1.50186 -2.07069 0
M  V30 6844 H 640.69 -2.75574 -4.26639 0
M  V30 6845 H 640.62 -1.19797 -5.12793 0
M  V30 6846 H 643.111 -1.24777 -3.56706 0
M  V30 6847 H 643.424 -3.13353 -7.06421 0
M  V30 6848 H 641.769 -2.81171 -6.35585 0
M  V30 6849 H 644.96 -1.62488 -4.38994 0
M  V30 6850 H 645.133 -2.48459 -5.98475 0
M  V30 6851 N 638.539 1.52521 -0.396863 0
M  V30 6852 C 639.816 1.94112 0.240842 0
M  V30 6853 C 640.196 1.33288 1.637 0
M  V30 6854 O 639.544 0.503901 2.22875 0
M  V30 6855 C 639.754 3.48033 0.259567 0
M  V30 6856 C 641.102 4.21822 0.484866 0
M  V30 6857 O 642.126 3.54579 0.339453 0
M  V30 6858 O 640.985 5.41042 0.770412 0
M  V30 6859 H 638.079 0.812973 0.151671 0
M  V30 6860 H 640.625 1.63572 -0.451918 0
M  V30 6861 H 639.397 3.84655 -0.718078 0
M  V30 6862 H 639.02 3.84899 0.996937 0
M  V30 6863 N 640.017 0.126909 1.57088 0
M  V30 6864 C 640.927 -0.833867 2.1928 0
M  V30 6865 C 641.943 -1.2868 1.17122 0
M  V30 6866 O 643.119 -1.34815 1.49622 0
M  V30 6867 C 640.184 -2.0632 2.78627 0
M  V30 6868 C 639.245 -1.66143 3.95847 0
M  V30 6869 C 638.478 -2.83217 4.52354 0
M  V30 6870 O 638.701 -3.98868 4.0775 0
M  V30 6871 O 637.635 -2.59846 5.42922 0
M  V30 6872 H 641.461 -0.334564 3.01852 0
M  V30 6873 H 639.046 -0.0991091 1.49071 0
M  V30 6874 H 640.928 -2.78304 3.16425 0
M  V30 6875 H 639.603 -2.55242 1.99082 0
M  V30 6876 H 638.51 -0.912435 3.62802 0
M  V30 6877 H 639.843 -1.21957 4.76852 0
M  V30 6878 N 641.495 -1.56914 -0.146875 0
M  V30 6879 C 642.772 -1.74273 -0.888165 0
M  V30 6880 C 643.152 -0.69496 -1.99333 0
M  V30 6881 O 642.5 0.286093 -2.26702 0
M  V30 6882 C 642.71 -3.18336 -1.43051 0
M  V30 6883 C 644.058 -3.80024 -1.89387 0
M  V30 6884 O 645.082 -3.21765 -1.52792 0
M  V30 6885 O 643.941 -4.82367 -2.56874 0
M  V30 6886 H 641.035 -0.712565 -0.419738 0
M  V30 6887 H 643.581 -1.6918 -0.132791 0
M  V30 6888 H 642.353 -3.86092 -0.636274 0
M  V30 6889 H 641.976 -3.27854 -2.24938 0
M  V30 6890 N 642.974 0.416227 -1.52004 0
M  V30 6891 C 643.884 1.53147 -1.77717 0
M  V30 6892 C 644.9 1.609 -0.662368 0
M  V30 6893 O 646.076 1.77747 -0.946991 0
M  V30 6894 C 643.141 2.88948 -1.91598 0
M  V30 6895 C 642.202 2.9114 -3.15493 0
M  V30 6896 C 641.435 4.20464 -3.28703 0
M  V30 6897 O 641.658 5.13981 -2.47345 0
M  V30 6898 O 640.592 4.29368 -4.21813 0
M  V30 6899 H 644.418 1.34357 -2.72363 0
M  V30 6900 H 642.003 0.601373 -1.36762 0
M  V30 6901 H 643.885 3.69505 -2.02593 0
M  V30 6902 H 642.56 3.07821 -1.00141 0
M  V30 6903 H 641.467 2.09461 -3.09962 0
M  V30 6904 H 642.8 2.77216 -4.06709 0
M  V30 6905 N 644.452 1.42507 0.673017 0
M  V30 6906 C 645.729 1.33554 1.42908 0
M  V30 6907 C 646.109 -0.0262211 2.11084 0
M  V30 6908 O 645.457 -1.04181 2.03368 0
M  V30 6909 C 645.667 2.50498 2.43006 0
M  V30 6910 C 647.015 2.92694 3.07596 0
M  V30 6911 O 648.039 2.50401 2.53333 0
M  V30 6912 O 646.898 3.65899 4.05931 0
M  V30 6913 H 643.992 0.526785 0.637516 0
M  V30 6914 H 646.538 1.54518 0.701591 0
M  V30 6915 H 645.31 3.41272 1.9144 0
M  V30 6916 H 644.933 2.3153 3.23233 0
M  V30 6917 N 645.93 -0.909495 1.28709 0
M  V30 6918 C 646.84 -2.04558 1.14861 0
M  V30 6919 C 647.856 -1.73842 0.0741621 0
M  V30 6920 O 649.032 -1.99383 0.2843 0
M  V30 6921 C 646.097 -3.36957 0.816148 0
M  V30 6922 C 645.158 -3.81255 1.97341 0
M  V30 6923 C 644.391 -5.07335 1.65671 0
M  V30 6924 O 644.614 -5.67514 0.573053 0
M  V30 6925 O 643.548 -5.47449 2.50167 0
M  V30 6926 H 647.374 -2.19161 2.10243 0
M  V30 6927 H 644.959 -1.03159 1.08068 0
M  V30 6928 H 646.841 -4.16436 0.644873 0
M  V30 6929 H 645.516 -3.2352 -0.107983 0
M  V30 6930 H 644.423 -3.02584 2.19986 0
M  V30 6931 H 645.756 -3.99261 2.87839 0
M  V30 6932 N 647.408 -1.11026 -1.11852 0
M  V30 6933 C 648.685 -0.768347 -1.79877 0
M  V30 6934 C 649.065 0.744261 -1.97545 0
M  V30 6935 O 648.413 1.67271 -1.55669 0
M  V30 6936 C 648.623 -1.52648 -3.13846 0
M  V30 6937 C 649.971 -1.70297 -3.88953 0
M  V30 6938 O 650.995 -1.49037 -3.23522 0
M  V30 6939 O 649.854 -2.05593 -5.06353 0
M  V30 6940 H 646.948 -0.277891 -0.778913 0
M  V30 6941 H 649.494 -1.21343 -1.18633 0
M  V30 6942 H 648.266 -2.55564 -2.96315 0
M  V30 6943 H 647.889 -1.07466 -3.82801 0
M  V30 6944 N 648.886 1.2938 -0.899927 0
M  V30 6945 C 649.796 2.31462 -0.382437 0
M  V30 6946 C 650.812 1.65956 0.522929 0
M  V30 6947 O 651.988 1.97131 0.412454 0
M  V30 6948 C 649.053 3.44595 0.381472 0
M  V30 6949 C 648.114 4.25692 -0.555444 0
M  V30 6950 C 647.347 5.33422 0.172102 0
M  V30 6951 O 647.57 5.53053 1.396 0
M  V30 6952 O 646.504 5.99939 -0.485491 0
M  V30 6953 H 650.33 2.77706 -1.22934 0
M  V30 6954 H 647.915 1.33821 -0.664259 0
M  V30 6955 H 649.797 4.13474 0.813442 0
M  V30 6956 H 648.472 3.00458 1.20443 0
M  V30 6957 H 647.379 3.59453 -1.03653 0
M  V30 6958 H 648.712 4.73471 -1.34483 0
M  V30 6959 N 650.364 0.662433 1.43002 0
M  V30 6960 C 651.589 0.186003 2.06564 0
M  V30 6961 C 652.014 -1.14314 1.49379 0
M  V30 6962 O 651.372 -1.70824 0.607346 0
M  V30 6963 C 651.42 0.118269 3.60406 0
M  V30 6964 O 650.524 -0.916859 4.02079 0
M  V30 6965 H 649.865 0.0990981 0.656563 0
M  V30 6966 H 652.395 0.907958 1.8335 0
M  V30 6967 H 652.405 -0.0619981 4.07953 0
M  V30 6968 H 651.08 1.08849 4.01403 0
M  V30 6969 H 649.657 -0.708635 3.66105 0
M  V30 6970 N 651.842 -1.52309 0.404946 0
M  V30 6971 C 653.067 -2.06666 -0.1743 0
M  V30 6972 C 653.492 -1.27341 -1.38441 0
M  V30 6973 O 652.85 -0.302539 -1.78758 0
M  V30 6974 C 652.898 -3.57014 -0.507262 0
M  V30 6975 O 652.002 -3.80144 -1.59889 0
M  V30 6976 H 651.343 -0.663807 -0.0160273 0
M  V30 6977 H 653.873 -1.96297 0.576937 0
M  V30 6978 H 653.883 -4.00724 -0.767098 0
M  V30 6979 H 652.558 -4.14184 0.377368 0
M  V30 6980 H 651.135 -3.48316 -1.33155 0
M  V30 6981 N 653.32 -0.135238 -1.57019 0
M  V30 6982 C 654.23 0.822226 -2.19719 0
M  V30 6983 C 655.246 1.28057 -1.17802 0
M  V30 6984 O 656.422 1.3402 -1.50335 0
M  V30 6985 C 653.487 2.0484 -2.79717 0
M  V30 6986 C 652.548 1.64042 -3.96723 0
M  V30 6987 C 651.781 2.80814 -4.53849 0
M  V30 6988 O 652.004 3.967 -4.0986 0
M  V30 6989 O 650.938 2.56963 -5.44292 0
M  V30 6990 H 654.764 0.318552 -3.02025 0
M  V30 6991 H 652.349 0.0912021 -1.49121 0
M  V30 6992 H 654.231 2.76622 -3.17897 0
M  V30 6993 H 652.906 2.54182 -2.00432 0
M  V30 6994 H 651.813 0.893182 -3.63281 0
M  V30 6995 H 653.146 1.19426 -4.77492 0
M  V30 6996 N 654.798 1.5699 0.138552 0
M  V30 6997 C 655.708 2.02174 1.19008 0
M  V30 6998 C 656.724 0.938622 1.46512 0
M  V30 6999 O 657.9 1.24872 1.58016 0
M  V30 7000 C 654.965 2.40045 2.50159 0
M  V30 7001 C 654.026 3.62346 2.30226 0
M  V30 7002 C 653.259 3.98401 3.55123 0
M  V30 7003 O 653.482 3.35019 4.61647 0
M  V30 7004 O 652.416 4.91606 3.47285 0
M  V30 7005 H 656.242 2.91954 0.836452 0
M  V30 7006 H 653.827 1.45293 0.347907 0
M  V30 7007 H 655.709 2.65225 3.27465 0
M  V30 7008 H 654.384 1.53417 2.85035 0
M  V30 7009 H 653.291 3.42341 1.50843 0
M  V30 7010 H 654.624 4.49617 2.00262 0
M  V30 7011 N 656.276 -0.40816 1.52223 0
M  V30 7012 C 657.553 -1.16807 1.56893 0
M  V30 7013 C 657.933 -2.08169 0.350537 0
M  V30 7014 O 657.281 -2.18684 -0.662536 0
M  V30 7015 C 657.491 -1.94451 2.8981 0
M  V30 7016 C 658.839 -2.50484 3.42845 0
M  V30 7017 O 659.863 -2.0463 2.91556 0
M  V30 7018 O 658.722 -3.34192 4.3241 0
M  V30 7019 H 655.816 -0.533382 0.632007 0
M  V30 7020 H 658.362 -0.414862 1.64551 0
M  V30 7021 H 657.134 -1.27527 3.69936 0
M  V30 7022 H 656.757 -2.76775 2.85449 0
M  V30 7023 N 657.755 -1.42862 -0.66545 0
M  V30 7024 C 658.98 -1.47456 -1.45848 0
M  V30 7025 C 659.405 -0.0900312 -1.87884 0
M  V30 7026 O 658.763 0.913587 -1.56599 0
M  V30 7027 C 658.811 -2.41514 -2.67774 0
M  V30 7028 O 657.915 -1.89296 -3.66389 0
M  V30 7029 H 657.256 -0.499236 -0.437789 0
M  V30 7030 H 659.786 -1.8765 -0.815394 0
M  V30 7031 H 659.796 -2.58409 -3.15735 0
M  V30 7032 H 658.471 -3.42099 -2.36519 0
M  V30 7033 H 657.048 -1.82003 -3.25468 0
M  V30 7034 N 659.233 0.902656 -1.29189 0
M  V30 7035 C 660.143 2.03946 -1.15944 0
M  V30 7036 C 661.159 1.738 -0.0833803 0
M  V30 7037 O 662.335 1.9923 -0.29487 0
M  V30 7038 C 659.4 3.36519 -0.834006 0
M  V30 7039 C 658.461 3.80203 -1.9936 0
M  V30 7040 C 657.694 5.06449 -1.68359 0
M  V30 7041 O 657.917 5.67202 -0.603141 0
M  V30 7042 O 656.851 5.46114 -2.53067 0
M  V30 7043 H 660.677 2.18043 -2.11403 0
M  V30 7044 H 658.262 1.02584 -1.08613 0
M  V30 7045 H 660.144 4.16089 -0.666949 0
M  V30 7046 H 658.819 3.23573 0.0908245 0
M  V30 7047 H 657.726 3.01413 -2.21588 0
M  V30 7048 H 659.059 3.97729 -2.89952 0
M  V30 7049 N 660.711 1.11618 1.11262 0
M  V30 7050 C 661.988 0.777876 1.79467 0
M  V30 7051 C 662.368 -0.733774 1.97937 0
M  V30 7052 O 661.716 -1.66443 1.56554 0
M  V30 7053 C 661.926 1.5431 3.13032 0
M  V30 7054 C 663.274 1.72357 3.88044 0
M  V30 7055 O 664.298 1.5075 3.22727 0
M  V30 7056 O 663.157 2.08276 5.05256 0
M  V30 7057 H 660.251 0.282018 0.777428 0
M  V30 7058 H 662.797 1.21971 1.17988 0
M  V30 7059 H 661.569 2.57132 2.94956 0
M  V30 7060 H 661.192 1.09495 3.82226 0
M  V30 7061 N 662.189 -1.289 0.906776 0
M  V30 7062 C 663.099 -2.31256 0.394707 0
M  V30 7063 C 664.115 -1.66231 -0.514121 0
M  V30 7064 O 665.291 -1.97347 -0.401994 0
M  V30 7065 C 662.356 -3.44792 -0.363191 0
M  V30 7066 C 661.417 -4.25391 0.578012 0
M  V30 7067 C 660.65 -5.33506 -0.143811 0
M  V30 7068 O 660.873 -5.53786 -1.36665 0
M  V30 7069 O 659.807 -5.99673 0.5173 0
M  V30 7070 H 663.633 -2.77051 1.24405 0
M  V30 7071 H 661.218 -1.33466 0.671346 0
M  V30 7072 H 663.1 -4.139 -0.791503 0
M  V30 7073 H 661.775 -3.01093 -1.18848 0
M  V30 7074 H 660.682 -3.58899 1.05558 0
M  V30 7075 H 662.015 -4.72752 1.36992 0
M  V30 7076 N 663.667 -0.670007 -1.42649 0
M  V30 7077 C 664.577 0.0114788 -2.34597 0
M  V30 7078 C 665.593 0.794055 -1.54825 0
M  V30 7079 O 666.769 0.737472 -1.87412 0
M  V30 7080 C 663.834 0.954436 -3.33304 0
M  V30 7081 C 662.895 0.166925 -4.28975 0
M  V30 7082 C 662.128 1.06497 -5.22967 0
M  V30 7083 O 662.351 2.30446 -5.21777 0
M  V30 7084 O 661.285 0.528347 -5.99577 0
M  V30 7085 H 665.111 -0.745794 -2.944 0
M  V30 7086 H 662.696 -0.430228 -1.43071 0
M  V30 7087 H 664.578 1.49589 -3.93956 0
M  V30 7088 H 663.253 1.69164 -2.7598 0
M  V30 7089 H 662.16 -0.418515 -3.71752 0
M  V30 7090 H 663.493 -0.531067 -4.89327 0
M  V30 7091 N 665.145 1.52092 -0.413018 0
M  V30 7092 C 666.556 1.86617 0.0556967 0
M  V30 7093 C 666.907 1.33156 1.44097 0
M  V30 7094 O 666.032 0.672417 2.05688 0
M  V30 7095 C 666.627 3.38628 0.107844 0
M  V30 7096 C 665.186 3.72778 0.520904 0
M  V30 7097 C 664.333 2.75649 -0.302109 0
M  V30 7098 H 667.284 1.45663 -0.629919 0
M  V30 7099 H 667.305 3.69152 0.922324 0
M  V30 7100 H 666.817 3.77508 -0.900506 0
M  V30 7101 H 664.918 3.39478 1.53575 0
M  V30 7102 H 665.031 4.7838 0.262591 0
M  V30 7103 H 663.395 2.53603 0.236115 0
M  V30 7104 H 664.178 3.17369 -1.30888 0
M  V30 7105 N 666.623 0.143563 1.56945 0
M  V30 7106 C 668.034 -0.37783 1.82837 0
M  V30 7107 C 668.385 -1.64967 1.06209 0
M  V30 7108 O 667.51 -2.14221 0.306291 0
M  V30 7109 C 668.105 -0.692274 3.31652 0
M  V30 7110 C 666.664 -1.1582 3.58138 0
M  V30 7111 C 665.811 -0.17951 2.76718 0
M  V30 7112 H 668.762 0.368317 1.54367 0
M  V30 7113 H 668.783 -1.54729 3.47619 0
M  V30 7114 H 668.295 0.233572 3.87397 0
M  V30 7115 H 666.396 -2.10011 3.07776 0
M  V30 7116 H 666.509 -1.08655 4.66616 0
M  V30 7117 H 664.873 -0.671458 2.4569 0
M  V30 7118 H 665.656 0.739865 3.35233 0
M  V30 7119 N 668.101 -1.57061 -0.130224 0
M  V30 7120 C 669.512 -1.73539 -0.68856 0
M  V30 7121 C 669.863 -0.760554 -1.80859 0
M  V30 7122 O 668.988 0.0690796 -2.1629 0
M  V30 7123 C 669.583 -3.14666 -1.25581 0
M  V30 7124 C 668.142 -3.32689 -1.76055 0
M  V30 7125 C 667.289 -2.69436 -0.655712 0
M  V30 7126 H 670.24 -1.58412 0.0956002 0
M  V30 7127 H 670.261 -3.15595 -2.12556 0
M  V30 7128 H 669.773 -3.85593 -0.440412 0
M  V30 7129 H 667.874 -2.66786 -2.60108 0
M  V30 7130 H 667.987 -4.4077 -1.87772 0
M  V30 7131 H 666.351 -2.30362 -1.08654 0
M  V30 7132 H 667.134 -3.42979 0.14852 0
M  V30 7133 N 669.579 0.400081 -1.52437 0
M  V30 7134 C 670.526 1.48803 -1.76426 0
M  V30 7135 C 671.496 1.5461 -0.607032 0
M  V30 7136 O 672.681 1.71041 -0.845563 0
M  V30 7137 C 669.821 2.86156 -1.92896 0
M  V30 7138 C 668.934 2.89587 -3.20567 0
M  V30 7139 C 668.069 4.18296 -3.27417 0
M  V30 7140 C 667.108 4.15736 -4.49255 0
M  V30 7141 N 666.245 5.36032 -4.53447 0
M  V30 7142 H 671.085 1.27649 -2.69276 0
M  V30 7143 H 668.622 0.619451 -1.33421 0
M  V30 7144 H 670.58 3.65901 -2.00429 0
M  V30 7145 H 669.21 3.05785 -1.03418 0
M  V30 7146 H 668.262 2.02278 -3.22161 0
M  V30 7147 H 669.574 2.83562 -4.10358 0
M  V30 7148 H 668.728 5.06439 -3.34072 0
M  V30 7149 H 667.467 4.27028 -2.35581 0
M  V30 7150 H 666.472 3.25982 -4.42737 0
M  V30 7151 H 667.697 4.08636 -5.42396 0
M  V30 7152 H 665.643 5.45415 -3.64498 0
M  V30 7153 H 665.56 5.32038 -5.37096 0
M  V30 7154 H 666.828 6.26104 -4.64343 0
M  V30 7155 N 671.057 1.43213 0.657864 0
M  V30 7156 C 672.473 1.26511 0.972992 0
M  V30 7157 C 672.673 0.181477 2.00681 0
M  V30 7158 O 671.729 -0.441649 2.48608 0
M  V30 7159 C 673.042 2.62784 1.46168 0
M  V30 7160 C 674.59 2.70278 1.57857 0
M  V30 7161 C 675.065 4.06958 2.10117 0
M  V30 7162 N 676.556 4.08999 2.17426 0
M  V30 7163 C 677.291 5.11585 2.58975 0
M  V30 7164 N 676.787 6.24548 2.99853 0
M  V30 7165 N 678.58 4.9894 2.58873 0
M  V30 7166 H 670.731 2.12384 -0.0263129 0
M  V30 7167 H 672.994 0.946638 0.0507992 0
M  V30 7168 H 672.7 3.43022 0.776474 0
M  V30 7169 H 672.574 2.87863 2.43751 0
M  V30 7170 H 674.961 1.90376 2.25479 0
M  V30 7171 H 675.042 2.4897 0.587179 0
M  V30 7172 H 674.686 4.87325 1.43098 0
M  V30 7173 H 674.616 4.25628 3.10078 0
M  V30 7174 H 677.107 3.27457 1.88627 0
M  V30 7175 H 677.42 6.98661 3.30292 0
M  V30 7176 H 675.765 6.28027 2.97669 0
M  V30 7177 H 678.956 4.09757 2.26311 0
M  V30 7178 H 679.129 5.79019 2.90932 0
M  V30 7179 N 672.536 -0.895792 1.29666 0
M  V30 7180 C 673.952 -1.17726 1.07763 0
M  V30 7181 C 674.152 -2.00794 -0.168576 0
M  V30 7182 O 673.208 -2.37213 -0.865244 0
M  V30 7183 C 674.521 -1.89441 2.33522 0
M  V30 7184 C 676.069 -2.02251 2.3888 0
M  V30 7185 C 676.544 -2.77378 3.64452 0
M  V30 7186 N 678.035 -2.8493 3.65198 0
M  V30 7187 C 678.77 -3.43606 4.59045 0
M  V30 7188 N 678.266 -4.03417 5.63228 0
M  V30 7189 N 680.059 -3.41317 4.46608 0
M  V30 7190 H 672.21 -0.341652 2.09634 0
M  V30 7191 H 674.473 -0.213865 0.923561 0
M  V30 7192 H 674.179 -1.35842 3.24407 0
M  V30 7193 H 674.053 -2.89893 2.41334 0
M  V30 7194 H 676.44 -2.55025 1.4848 0
M  V30 7195 H 676.521 -1.0092 2.3505 0
M  V30 7196 H 676.165 -2.25279 4.55205 0
M  V30 7197 H 676.095 -3.79062 3.65541 0
M  V30 7198 H 678.586 -2.42453 2.89871 0
M  V30 7199 H 678.899 -4.46224 6.30955 0
M  V30 7200 H 677.244 -4.01868 5.67033 0
M  V30 7201 H 680.435 -2.93812 3.64407 0
M  V30 7202 H 680.608 -3.86751 5.1993 0
M  V30 7203 N 674.014 -1.12206 -1.10668 0
M  V30 7204 C 674.944 -0.810086 -2.18997 0
M  V30 7205 C 675.925 0.225065 -1.68604 0
M  V30 7206 O 677.11 0.086783 -1.94006 0
M  V30 7207 C 674.24 -0.261262 -3.46316 0
M  V30 7208 C 673.194 -1.2292 -4.09969 0
M  V30 7209 C 672.52 -0.540713 -5.31959 0
M  V30 7210 C 673.82 -2.58295 -4.53962 0
M  V30 7211 H 675.514 -1.7159 -2.45352 0
M  V30 7212 H 673.06 -0.82646 -1.17922 0
M  V30 7213 H 675.013 -0.0307522 -4.21389 0
M  V30 7214 H 673.737 0.679879 -3.19445 0
M  V30 7215 H 672.396 -1.44548 -3.369 0
M  V30 7216 H 672.044 0.405492 -5.01363 0
M  V30 7217 H 671.744 -1.18637 -5.75499 0
M  V30 7218 H 673.268 -0.319184 -6.09765 0
M  V30 7219 H 674.682 -2.40709 -5.20319 0
M  V30 7220 H 673.079 -3.18916 -5.08343 0
M  V30 7221 H 674.149 -3.16918 -3.67002 0
M  V30 7222 N 675.492 1.28418 -0.913599 0
M  V30 7223 C 676.424 2.26368 -0.359169 0
M  V30 7224 C 677.437 1.54858 0.502285 0
M  V30 7225 O 678.626 1.75659 0.31719 0
M  V30 7226 C 675.726 3.35112 0.50526 0
M  V30 7227 C 674.899 4.36126 -0.333648 0
M  V30 7228 C 673.958 5.24134 0.465845 0
M  V30 7229 O 672.984 5.6907 -0.121538 0
M  V30 7230 N 674.186 5.52892 1.76891 0
M  V30 7231 H 676.951 2.74579 -1.2011 0
M  V30 7232 H 674.512 1.41898 -0.779532 0
M  V30 7233 H 676.504 3.90926 1.04684 0
M  V30 7234 H 675.074 2.86611 1.2479 0
M  V30 7235 H 674.294 3.79776 -1.0566 0
M  V30 7236 H 675.582 5.00638 -0.907669 0
M  V30 7237 H 674.98 5.18217 2.26865 0
M  V30 7238 H 673.537 6.11464 2.25732 0
M  V30 7239 N 676.97 0.677563 1.42291 0
M  V30 7240 C 677.917 0.000947061 2.308 0
M  V30 7241 C 678.887 -0.789889 1.46116 0
M  V30 7242 O 680.072 -0.761578 1.74942 0
M  V30 7243 C 677.212 -0.942387 3.31984 0
M  V30 7244 C 676.325 -0.14508 4.31756 0
M  V30 7245 C 675.46 -1.08442 5.20013 0
M  V30 7246 C 674.499 -0.278958 6.11464 0
M  V30 7247 N 673.636 -1.17115 6.92263 0
M  V30 7248 H 678.476 0.761521 2.88106 0
M  V30 7249 H 676.013 0.38727 1.41911 0
M  V30 7250 H 677.971 -1.50317 3.89179 0
M  V30 7251 H 676.601 -1.66956 2.76271 0
M  V30 7252 H 675.653 0.532368 3.76656 0
M  V30 7253 H 676.965 0.48015 4.96484 0
M  V30 7254 H 676.119 -1.71504 5.81955 0
M  V30 7255 H 674.858 -1.74353 4.55469 0
M  V30 7256 H 673.863 0.364856 5.48588 0
M  V30 7257 H 675.088 0.376099 6.78058 0
M  V30 7258 H 673.034 -1.81661 6.30345 0
M  V30 7259 H 672.951 -0.601063 7.53607 0
M  V30 7260 H 674.219 -1.78915 7.58689 0
M  V30 7261 N 678.448 -1.51871 0.421078 0
M  V30 7262 C 679.395 -2.27334 -0.398508 0
M  V30 7263 C 680.365 -1.30241 -1.03085 0
M  V30 7264 O 681.55 -1.59121 -1.05285 0
M  V30 7265 C 678.69 -3.10664 -1.50272 0
M  V30 7266 C 677.803 -4.2273 -0.890122 0
M  V30 7267 C 676.938 -4.93399 -1.96803 0
M  V30 7268 C 675.977 -5.97409 -1.333 0
M  V30 7269 N 675.114 -6.61548 -2.35156 0
M  V30 7270 H 679.954 -2.96938 0.251411 0
M  V30 7271 H 677.491 -1.46472 0.135825 0
M  V30 7272 H 679.449 -3.57292 -2.15403 0
M  V30 7273 H 678.079 -2.43207 -2.1225 0
M  V30 7274 H 677.131 -3.80186 -0.127537 0
M  V30 7275 H 678.443 -4.97302 -0.386349 0
M  V30 7276 H 677.597 -5.43491 -2.69633 0
M  V30 7277 H 676.336 -4.18421 -2.50549 0
M  V30 7278 H 675.341 -5.46624 -0.59008 0
M  V30 7279 H 676.566 -6.74335 -0.803076 0
M  V30 7280 H 674.512 -5.89394 -2.88012 0
M  V30 7281 H 674.429 -7.31832 -1.89624 0
M  V30 7282 H 675.697 -7.16276 -3.0752 0
M  V30 7283 N 679.926 -0.151884 -1.56866 0
M  V30 7284 C 681.154 0.504813 -2.00647 0
M  V30 7285 C 681.569 1.58098 -1.03201 0
M  V30 7286 O 680.926 1.82476 -0.0297814 0
M  V30 7287 C 680.977 1.10099 -3.44326 0
M  V30 7288 O 680.698 0.0678021 -4.38048 0
M  V30 7289 C 682.199 1.83782 -4.03409 0
M  V30 7290 H 679.419 0.130989 -0.65809 0
M  V30 7291 H 681.963 -0.247903 -2.02992 0
M  V30 7292 H 680.118 1.8043 -3.42817 0
M  V30 7293 H 680.532 0.505237 -5.22061 0
M  V30 7294 H 682.006 2.2078 -5.05925 0
M  V30 7295 H 682.483 2.72557 -3.44397 0
M  V30 7296 H 683.089 1.18138 -4.08563 0
M  V30 7297 N 681.404 1.57128 0.121893 0
M  V30 7298 C 682.815 1.73902 0.679348 0
M  V30 7299 C 683.166 0.770135 1.80453 0
M  V30 7300 O 682.291 -0.0576083 2.16323 0
M  V30 7301 C 682.886 3.15328 1.2391 0
M  V30 7302 C 681.445 3.33618 1.74288 0
M  V30 7303 C 680.592 2.6978 0.641414 0
M  V30 7304 H 683.543 1.58359 -0.104 0
M  V30 7305 H 683.564 3.16718 2.10879 0
M  V30 7306 H 683.076 3.85821 0.419957 0
M  V30 7307 H 681.177 2.68162 2.58689 0
M  V30 7308 H 681.29 4.4176 1.85432 0
M  V30 7309 H 679.654 2.30935 1.0743 0
M  V30 7310 H 680.437 3.42895 -0.166707 0
M  V30 7311 N 682.882 -0.391992 1.52647 0
M  V30 7312 C 683.845 -1.46135 1.7657 0
M  V30 7313 C 684.845 -1.47701 0.635698 0
M  V30 7314 O 686.035 -1.48924 0.903728 0
M  V30 7315 C 683.167 -2.85443 1.86374 0
M  V30 7316 H 684.36 -1.26208 2.72051 0
M  V30 7317 H 681.913 -0.623549 1.43323 0
M  V30 7318 H 682.648 -3.10718 0.928685 0
M  V30 7319 H 682.433 -2.85708 2.68539 0
M  V30 7320 H 683.923 -3.62933 2.06566 0
M  V30 7321 N 684.36 -1.4356 -0.65026 0
M  V30 7322 C 685.307 -1.48948 -1.76304 0
M  V30 7323 C 686.277 -0.338919 -1.62605 0
M  V30 7324 O 687.462 -0.54649 -1.82806 0
M  V30 7325 C 684.602 -1.42131 -3.14472 0
M  V30 7326 C 683.715 -2.67415 -3.39284 0
M  V30 7327 C 682.85 -2.52565 -4.67316 0
M  V30 7328 C 681.889 -3.73103 -4.85243 0
M  V30 7329 N 681.026 -3.57046 -6.04535 0
M  V30 7330 H 685.866 -2.44032 -1.71034 0
M  V30 7331 H 683.403 -1.21131 -0.834601 0
M  V30 7332 H 685.361 -1.36172 -3.94351 0
M  V30 7333 H 683.991 -0.506273 -3.18805 0
M  V30 7334 H 683.043 -2.8364 -2.53481 0
M  V30 7335 H 684.355 -3.56943 -3.48415 0
M  V30 7336 H 683.509 -2.44331 -5.55326 0
M  V30 7337 H 682.248 -1.60566 -4.60511 0
M  V30 7338 H 681.253 -3.81743 -3.95667 0
M  V30 7339 H 682.478 -4.66115 -4.93876 0
M  V30 7340 H 680.424 -2.67783 -5.98856 0
M  V30 7341 H 680.341 -4.40178 -6.14638 0
M  V30 7342 H 681.609 -3.52669 -6.95158 0
M  V30 7343 N 685.838 0.888903 -1.30139 0
M  V30 7344 C 687.063 1.67884 -1.21777 0
M  V30 7345 C 687.488 1.86848 0.216689 0
M  V30 7346 O 686.846 1.39659 1.15608 0
M  V30 7347 C 686.894 3.03483 -1.94757 0
M  V30 7348 O 685.998 3.92294 -1.27198 0
M  V30 7349 H 685.339 0.513144 -0.421402 0
M  V30 7350 H 687.869 1.10968 -1.71893 0
M  V30 7351 H 687.879 3.53553 -2.03627 0
M  V30 7352 H 686.554 2.89 -2.99085 0
M  V30 7353 H 685.131 3.50732 -1.26655 0
M  V30 7354 N 687.317 1.12792 1.10072 0
M  V30 7355 C 688.728 0.899346 1.63611 0
M  V30 7356 C 689.079 -0.565547 1.87872 0
M  V30 7357 O 688.204 -1.43081 1.62348 0
M  V30 7358 C 688.799 1.62608 2.97227 0
M  V30 7359 C 687.358 1.44356 3.47618 0
M  V30 7360 C 686.505 1.65958 2.22156 0
M  V30 7361 H 689.456 1.28216 0.935223 0
M  V30 7362 H 689.477 1.0793 3.64872 0
M  V30 7363 H 688.989 2.69221 2.79538 0
M  V30 7364 H 687.09 0.400148 3.70445 0
M  V30 7365 H 687.203 2.20218 4.25489 0
M  V30 7366 H 685.567 1.08395 2.30484 0
M  V30 7367 H 686.35 2.73877 2.06993 0
M  V30 7368 N 688.795 -1.27931 0.920396 0
M  V30 7369 C 690.043 -1.94304 0.555906 0
M  V30 7370 C 690.364 -1.72753 -0.904519 0
M  V30 7371 O 689.634 -1.07104 -1.64029 0
M  V30 7372 H 688.214 -0.719001 0.202599 0
M  V30 7373 H 690.876 -1.55785 1.1712 0
M  V30 7374 H 689.972 -3.02806 0.755981 0
M  V30 7375 N 690.273 -0.685099 -1.4193 0
M  V30 7376 C 691.22 -0.0131869 -2.30796 0
M  V30 7377 C 692.19 0.782129 -1.46533 0
M  V30 7378 O 693.375 0.75229 -1.75343 0
M  V30 7379 C 690.515 0.924768 -3.32479 0
M  V30 7380 C 689.628 0.122181 -4.31827 0
M  V30 7381 C 688.763 1.05682 -5.20581 0
M  V30 7382 C 687.802 0.246526 -6.11603 0
M  V30 7383 N 686.939 1.13442 -6.92875 0
M  V30 7384 H 691.779 -0.776789 -2.87698 0
M  V30 7385 H 689.316 -0.394791 -1.41703 0
M  V30 7386 H 691.274 1.48251 -3.89971 0
M  V30 7387 H 689.904 1.65488 -2.77152 0
M  V30 7388 H 688.956 -0.552335 -3.76369 0
M  V30 7389 H 690.268 -0.506473 -4.96222 0
M  V30 7390 H 689.422 1.68415 -5.82856 0
M  V30 7391 H 688.161 1.71935 -4.56388 0
M  V30 7392 H 687.166 -0.393944 -5.48387 0
M  V30 7393 H 688.391 -0.412053 -6.77849 0
M  V30 7394 H 686.337 1.78316 -6.313 0
M  V30 7395 H 686.254 0.561089 -7.53915 0
M  V30 7396 H 687.522 1.74889 -7.59628 0
M  V30 7397 N 691.751 1.51645 -0.429126 0
M  V30 7398 C 692.714 2.26116 0.374726 0
M  V30 7399 C 693.714 1.29242 0.956714 0
M  V30 7400 O 694.904 1.53022 0.832452 0
M  V30 7401 C 692.036 3.04669 1.52937 0
M  V30 7402 H 693.229 2.9861 -0.277818 0
M  V30 7403 H 690.782 1.55236 -0.182097 0
M  V30 7404 H 691.517 2.36571 2.21821 0
M  V30 7405 H 691.302 3.75814 1.11833 0
M  V30 7406 H 692.792 3.61102 2.09751 0
M  V30 7407 N 693.229 0.160201 1.56784 0
M  V30 7408 C 694.192 -0.760405 2.16219 0
M  V30 7409 C 695.192 -1.16595 1.10735 0
M  V30 7410 O 696.382 -1.08472 1.36306 0
M  V30 7411 C 693.514 -2.03358 2.73603 0
M  V30 7412 H 694.707 -0.243173 2.98912 0
M  V30 7413 H 692.26 -0.0893139 1.56045 0
M  V30 7414 H 692.995 -2.59416 1.94612 0
M  V30 7415 H 692.78 -1.75186 3.50788 0
M  V30 7416 H 694.27 -2.69081 3.19351 0
M  V30 7417 N 694.707 -1.5719 -0.113559 0
M  V30 7418 C 695.932 -1.89702 -0.838336 0
M  V30 7419 C 696.357 -0.752679 -1.72384 0
M  V30 7420 O 695.715 0.296575 -1.78858 0
M  V30 7421 C 695.763 -3.20989 -1.64312 0
M  V30 7422 O 694.867 -3.07278 -2.75053 0
M  V30 7423 H 694.208 -0.622339 -0.231496 0
M  V30 7424 H 696.738 -2.04382 -0.0943228 0
M  V30 7425 H 696.748 -3.53843 -2.03123 0
M  V30 7426 H 695.423 -4.03869 -0.993119 0
M  V30 7427 H 694 -2.85901 -2.39406 0
M  V30 7428 N 696.185 0.383891 -1.52853 0
M  V30 7429 C 697.431 1.13009 -1.68395 0
M  V30 7430 C 697.764 1.89488 -0.425195 0
M  V30 7431 O 697.039 1.8574 0.577136 0
M  V30 7432 C 697.322 2.10419 -2.92226 0
M  V30 7433 C 697.175 1.3767 -4.28214 0
M  V30 7434 C 698.494 3.10781 -3.11614 0
M  V30 7435 H 695.613 0.409463 -0.612788 0
M  V30 7436 H 698.255 0.412895 -1.85459 0
M  V30 7437 H 696.405 2.71579 -2.77808 0
M  V30 7438 H 698.077 0.794352 -4.54409 0
M  V30 7439 H 696.32 0.678533 -4.2846 0
M  V30 7440 H 696.991 2.08874 -5.10956 0
M  V30 7441 H 699.467 2.59715 -3.25096 0
M  V30 7442 H 698.343 3.76179 -3.99725 0
M  V30 7443 H 698.604 3.79933 -2.2606 0
M  V30 7444 N 697.663 1.43903 0.642637 0
M  V30 7445 C 698.61 1.49881 1.75512 0
M  V30 7446 C 699.58 0.347538 1.62423 0
M  V30 7447 O 700.765 0.556177 1.82514 0
M  V30 7448 C 697.905 1.43797 3.13714 0
M  V30 7449 C 697.018 2.6921 3.37861 0
M  V30 7450 C 696.153 2.5504 4.6597 0
M  V30 7451 C 695.192 3.75671 4.83257 0
M  V30 7452 N 694.329 3.60247 6.02633 0
M  V30 7453 H 699.169 2.44935 1.69737 0
M  V30 7454 H 696.706 1.21572 0.828165 0
M  V30 7455 H 698.664 1.38262 3.93624 0
M  V30 7456 H 697.294 0.523173 3.18532 0
M  V30 7457 H 696.346 2.8498 2.51973 0
M  V30 7458 H 697.658 3.58786 3.46517 0
M  V30 7459 H 696.812 2.47273 5.54023 0
M  V30 7460 H 695.551 1.63006 4.59653 0
M  V30 7461 H 694.556 3.83836 3.93637 0
M  V30 7462 H 695.781 4.68728 4.91397 0
M  V30 7463 H 693.727 2.70955 5.97427 0
M  V30 7464 H 693.644 4.43431 6.12295 0
M  V30 7465 H 694.912 3.56351 6.93278 0
M  V30 7466 N 699.141 -0.881989 1.30609 0
M  V30 7467 C 700.073 -1.99375 1.13058 0
M  V30 7468 C 701.086 -1.62636 0.0729879 0
M  V30 7469 O 702.275 -1.75621 0.319301 0
M  V30 7470 C 699.375 -3.31536 0.702651 0
M  V30 7471 C 698.548 -3.96693 1.84265 0
M  V30 7472 C 697.607 -5.07158 1.40277 0
M  V30 7473 O 696.633 -5.28628 2.11048 0
M  V30 7474 N 697.835 -5.79808 0.283449 0
M  V30 7475 H 700.6 -2.14981 2.08814 0
M  V30 7476 H 698.161 -1.05526 1.22784 0
M  V30 7477 H 700.153 -4.02804 0.391331 0
M  V30 7478 H 698.723 -3.12175 -0.162954 0
M  V30 7479 H 697.943 -3.1856 2.32192 0
M  V30 7480 H 699.231 -4.36964 2.60653 0
M  V30 7481 H 698.629 -5.64871 -0.306189 0
M  V30 7482 H 697.186 -6.51792 0.0315985 0
M  V30 7483 N 700.619 -1.13374 -1.09472 0
M  V30 7484 C 702.035 -0.871846 -1.33682 0
M  V30 7485 C 702.235 0.492847 -1.9538 0
M  V30 7486 O 701.291 1.23946 -2.19985 0
M  V30 7487 C 702.604 -1.99608 -2.24893 0
M  V30 7488 C 704.152 -2.02812 -2.38404 0
M  V30 7489 C 704.627 -3.14497 -3.3295 0
M  V30 7490 N 706.118 -3.14004 -3.40523 0
M  V30 7491 C 706.853 -3.97061 -4.13679 0
M  V30 7492 N 706.349 -4.90131 -4.89636 0
M  V30 7493 N 708.142 -3.85162 -4.09398 0
M  V30 7494 H 700.293 -2.01288 -0.677995 0
M  V30 7495 H 702.556 -0.876492 -0.361201 0
M  V30 7496 H 702.262 -2.98 -1.86786 0
M  V30 7497 H 702.136 -1.90981 -3.25278 0
M  V30 7498 H 704.523 -1.05034 -2.75775 0
M  V30 7499 H 704.604 -2.15511 -1.37799 0
M  V30 7500 H 704.248 -4.12514 -2.96302 0
M  V30 7501 H 704.178 -2.99035 -4.33458 0
M  V30 7502 H 706.669 -2.46587 -2.86362 0
M  V30 7503 H 706.982 -5.49996 -5.42885 0
M  V30 7504 H 705.327 -4.94138 -4.88726 0
M  V30 7505 H 708.518 -3.11779 -3.49158 0
M  V30 7506 H 708.691 -4.5012 -4.6615 0
M  V30 7507 N 702.098 1.27442 -0.927168 0
M  V30 7508 C 703.346 1.94007 -0.566203 0
M  V30 7509 C 703.667 1.7323 0.895345 0
M  V30 7510 O 702.937 1.07973 1.63459 0
M  V30 7511 H 701.517 0.717917 -0.206409 0
M  V30 7512 H 704.179 1.55161 -1.17945 0
M  V30 7513 H 703.275 3.02401 -0.772028 0
M  V30 7514 N 703.576 0.692616 1.41565 0
M  V30 7515 C 704.801 0.229776 2.06123 0
M  V30 7516 C 705.226 -1.11119 1.5177 0
M  V30 7517 O 704.584 -1.69498 0.643444 0
M  V30 7518 C 704.632 0.19469 3.60074 0
M  V30 7519 O 703.736 -0.831366 4.03933 0
M  V30 7520 H 703.077 0.113002 0.654314 0
M  V30 7521 H 705.607 0.946645 1.81383 0
M  V30 7522 H 705.617 0.0245487 4.07993 0
M  V30 7523 H 704.292 1.17339 3.99004 0
M  V30 7524 H 702.869 -0.630819 3.67526 0
M  V30 7525 N 705.054 -1.51416 0.437162 0
M  V30 7526 C 706.001 -2.27743 -0.374374 0
M  V30 7527 C 706.971 -1.31327 -1.01698 0
M  V30 7528 O 708.156 -1.60229 -1.03592 0
M  V30 7529 C 705.296 -3.12241 -1.46969 0
M  V30 7530 C 704.409 -4.23651 -0.845236 0
M  V30 7531 C 703.544 -4.95458 -1.91559 0
M  V30 7532 C 702.583 -5.98789 -1.26956 0
M  V30 7533 N 701.72 -6.64005 -2.28126 0
M  V30 7534 H 706.56 -2.96654 0.282892 0
M  V30 7535 H 704.097 -1.46319 0.151352 0
M  V30 7536 H 706.055 -3.59556 -2.11602 0
M  V30 7537 H 704.685 -2.45445 -2.09659 0
M  V30 7538 H 703.737 -3.803 -0.0872059 0
M  V30 7539 H 705.049 -4.97683 -0.333582 0
M  V30 7540 H 704.203 -5.46321 -2.63854 0
M  V30 7541 H 702.942 -4.21055 -2.46097 0
M  V30 7542 H 701.947 -5.47219 -0.53207 0
M  V30 7543 H 703.172 -6.75149 -0.731509 0
M  V30 7544 H 701.118 -5.92415 -2.81745 0
M  V30 7545 H 701.035 -7.33802 -1.81852 0
M  V30 7546 H 702.303 -7.19498 -2.99905 0
M  V30 7547 N 706.532 -0.168513 -1.56696 0
M  V30 7548 C 707.943 0.348694 -1.83415 0
M  V30 7549 C 708.294 1.63257 -1.0882 0
M  V30 7550 O 707.419 2.13707 -0.340333 0
M  V30 7551 C 708.014 0.639423 -3.32711 0
M  V30 7552 C 706.573 1.10108 -3.59935 0
M  V30 7553 C 705.72 0.135464 -2.76969 0
M  V30 7554 H 708.671 -0.392829 -1.53761 0
M  V30 7555 H 708.692 1.49179 -3.50037 0
M  V30 7556 H 708.204 -0.295173 -3.86976 0
M  V30 7557 H 706.305 2.05088 -3.11079 0
M  V30 7558 H 706.418 1.01218 -4.68286 0
M  V30 7559 H 704.782 0.632286 -2.46727 0
M  V30 7560 H 705.565 -0.793104 -3.34013 0
M  V30 7561 N 708.01 1.57248 0.105221 0
M  V30 7562 C 708.973 2.00388 1.11252 0
M  V30 7563 C 709.973 0.89594 1.33527 0
M  V30 7564 O 711.163 1.16166 1.29811 0
M  V30 7565 C 708.295 2.35589 2.46395 0
M  V30 7566 H 709.488 2.90591 0.741424 0
M  V30 7567 H 707.041 1.52332 0.349956 0
M  V30 7568 H 707.776 1.4831 2.884 0
M  V30 7569 H 707.561 3.16408 2.31578 0
M  V30 7570 H 709.051 2.69658 3.18864 0
M  V30 7571 N 709.488 -0.375779 1.53054 0
M  V30 7572 C 710.899 -0.95309 1.6054 0
M  V30 7573 C 711.25 -1.90575 0.466446 0
M  V30 7574 O 710.375 -2.12507 -0.408609 0
M  V30 7575 C 710.97 -1.73537 2.90982 0
M  V30 7576 C 709.529 -2.26218 3.00836 0
M  V30 7577 C 708.676 -1.07157 2.55759 0
M  V30 7578 H 711.627 -0.154895 1.57942 0
M  V30 7579 H 711.648 -2.59574 2.78211 0
M  V30 7580 H 711.16 -1.04176 3.73857 0
M  V30 7581 H 709.261 -2.98852 2.22527 0
M  V30 7582 H 709.374 -2.54799 4.05727 0
M  V30 7583 H 707.738 -1.43553 2.10391 0
M  V30 7584 H 708.521 -0.393099 3.41042 0
M  V30 7585 N 710.966 -1.44241 -0.634997 0
M  V30 7586 C 711.913 -1.5081 -1.74714 0
M  V30 7587 C 712.883 -0.356147 -1.62237 0
M  V30 7588 O 714.068 -0.565848 -1.82216 0
M  V30 7589 C 711.208 -1.45458 -3.12947 0
M  V30 7590 C 710.321 -2.70998 -3.36428 0
M  V30 7591 C 709.456 -2.57507 -4.64611 0
M  V30 7592 C 708.495 -3.78229 -4.81258 0
M  V30 7593 N 707.632 -3.63438 -6.00714 0
M  V30 7594 H 712.472 -2.45832 -1.68436 0
M  V30 7595 H 710.009 -1.2201 -0.821706 0
M  V30 7596 H 711.967 -1.40347 -3.92885 0
M  V30 7597 H 710.597 -0.540058 -3.1825 0
M  V30 7598 H 709.649 -2.86312 -2.50458 0
M  V30 7599 H 710.961 -3.60619 -3.44609 0
M  V30 7600 H 710.115 -2.50207 -5.52703 0
M  V30 7601 H 708.854 -1.65441 -4.58782 0
M  V30 7602 H 707.859 -3.85918 -3.91596 0
M  V30 7603 H 709.084 -4.71327 -4.88904 0
M  V30 7604 H 707.03 -2.7412 -5.95982 0
M  V30 7605 H 706.947 -4.46672 -6.09934 0
M  V30 7606 H 708.215 -3.60022 -6.91378 0
M  V30 7607 N 712.444 0.87505 -1.31075 0
M  V30 7608 C 713.69 1.63009 -1.20647 0
M  V30 7609 C 714.023 1.9276 0.236045 0
M  V30 7610 O 713.298 1.55559 1.16754 0
M  V30 7611 C 713.581 2.96357 -2.0456 0
M  V30 7612 C 713.434 2.73516 -3.57084 0
M  V30 7613 C 714.753 3.974 -1.89107 0
M  V30 7614 H 711.872 0.591518 -0.439631 0
M  V30 7615 H 714.514 1.0119 -1.60812 0
M  V30 7616 H 712.664 3.49119 -1.70435 0
M  V30 7617 H 714.336 2.27465 -4.01319 0
M  V30 7618 H 712.579 2.0784 -3.80769 0
M  V30 7619 H 713.25 3.68377 -4.11099 0
M  V30 7620 H 715.726 3.5383 -2.18961 0
M  V30 7621 H 714.602 4.88596 -2.5013 0
M  V30 7622 H 714.863 4.33794 -0.85296 0
M  V30 7623 N 713.922 1.13953 1.08869 0
M  V30 7624 C 715.147 0.928559 1.85452 0
M  V30 7625 C 715.572 -0.517642 1.80837 0
M  V30 7626 O 714.93 -1.36779 1.19001 0
M  V30 7627 C 714.978 1.42814 3.31114 0
M  V30 7628 O 714.082 0.617129 4.07756 0
M  V30 7629 H 713.423 0.33235 0.574839 0
M  V30 7630 H 715.953 1.5156 1.37443 0
M  V30 7631 H 715.963 1.43425 3.8196 0
M  V30 7632 H 714.638 2.48109 3.33788 0
M  V30 7633 H 713.215 0.679365 3.66659 0
M  V30 7634 N 715.4 -1.26948 0.933913 0
M  V30 7635 C 716.363 -2.24889 0.442457 0
M  V30 7636 C 717.363 -1.54594 -0.442426 0
M  V30 7637 O 718.553 -1.72502 -0.242629 0
M  V30 7638 C 715.685 -3.3896 -0.363173 0
M  V30 7639 H 716.878 -2.69879 1.30787 0
M  V30 7640 H 714.431 -1.38978 0.715187 0
M  V30 7641 H 715.166 -2.99361 -1.24714 0
M  V30 7642 H 714.951 -3.9116 0.271366 0
M  V30 7643 H 716.441 -4.11739 -0.697186 0
M  V30 7644 N 716.879 -0.700114 -1.41195 0
M  V30 7645 C 717.842 -0.0465706 -2.29153 0
M  V30 7646 C 718.842 0.703302 -1.44604 0
M  V30 7647 O 720.032 0.537513 -1.657 0
M  V30 7648 C 717.164 0.944324 -3.2756 0
M  V30 7649 H 718.357 -0.821064 -2.88442 0
M  V30 7650 H 715.91 -0.463869 -1.49258 0
M  V30 7651 H 716.645 1.74642 -2.73259 0
M  V30 7652 H 716.43 0.409701 -3.89954 0
M  V30 7653 H 717.92 1.39925 -3.9346 0
M  V30 7654 N 718.357 1.51182 -0.445186 0
M  V30 7655 C 719.289 2.25714 0.398206 0
M  V30 7656 C 720.302 1.30032 0.979562 0
M  V30 7657 O 721.491 1.55731 0.872368 0
M  V30 7658 C 718.591 3.00348 1.56985 0
M  V30 7659 C 717.764 4.23187 1.10596 0
M  V30 7660 C 716.823 4.80334 2.14863 0
M  V30 7661 O 715.849 5.4196 1.73977 0
M  V30 7662 N 717.051 4.65053 3.47427 0
M  V30 7663 H 719.816 2.98732 -0.240629 0
M  V30 7664 H 717.377 1.59556 -0.274507 0
M  V30 7665 H 719.369 3.35464 2.26376 0
M  V30 7666 H 717.939 2.30291 2.11387 0
M  V30 7667 H 717.159 3.93476 0.238832 0
M  V30 7668 H 718.447 5.02886 0.773537 0
M  V30 7669 H 717.845 4.15984 3.83372 0
M  V30 7670 H 716.402 5.04509 4.12691 0
M  V30 7671 N 719.835 0.176821 1.56605 0
M  V30 7672 C 721.251 -0.179278 1.5859 0
M  V30 7673 C 721.451 -1.62433 1.19238 0
M  V30 7674 O 720.507 -2.35665 0.906552 0
M  V30 7675 C 721.82 0.106524 3.00511 0
M  V30 7676 C 723.368 0.0451731 3.12967 0
M  V30 7677 C 723.843 0.304038 4.5699 0
M  V30 7678 N 725.334 0.252008 4.62514 0
M  V30 7679 C 726.069 0.426404 5.71812 0
M  V30 7680 N 725.565 0.660155 6.89648 0
M  V30 7681 N 727.358 0.361926 5.60934 0
M  V30 7682 H 719.509 1.12001 1.8047 0
M  V30 7683 H 721.772 0.445679 0.836704 0
M  V30 7684 H 721.478 1.10778 3.33798 0
M  V30 7685 H 721.352 -0.599337 3.72408 0
M  V30 7686 H 723.739 -0.946662 2.79504 0
M  V30 7687 H 723.82 0.78383 2.43495 0
M  V30 7688 H 723.464 1.29311 4.91163 0
M  V30 7689 H 723.394 -0.455294 5.24628 0
M  V30 7690 H 725.885 0.0772102 3.77821 0
M  V30 7691 H 726.198 0.782529 7.68828 0
M  V30 7692 H 724.543 0.696835 6.91498 0
M  V30 7693 H 727.734 0.17986 4.67754 0
M  V30 7694 H 727.907 0.501263 6.46058 0
M  V30 7695 N 721.313 -1.57302 -0.09688 0
M  V30 7696 C 722.561 -1.8563 -0.799117 0
M  V30 7697 C 722.882 -0.765263 -1.79356 0
M  V30 7698 O 722.152 0.208657 -1.94786 0
M  V30 7699 H 720.732 -0.684937 -0.298111 0
M  V30 7700 H 723.394 -1.9474 -0.0789341 0
M  V30 7701 H 722.49 -2.82305 -1.3308 0
M  V30 7702 N 722.791 0.367657 -1.53252 0
M  V30 7703 C 723.738 1.45028 -1.79543 0
M  V30 7704 C 724.708 1.53288 -0.63969 0
M  V30 7705 O 725.893 1.69209 -0.881653 0
M  V30 7706 C 723.033 2.82 -1.98923 0
M  V30 7707 C 722.146 2.82722 -3.26638 0
M  V30 7708 C 721.281 4.11257 -3.36216 0
M  V30 7709 C 720.32 4.06113 -4.57972 0
M  V30 7710 N 719.457 5.26293 -4.64715 0
M  V30 7711 H 724.297 1.21908 -2.71923 0
M  V30 7712 H 721.834 0.591011 -1.34705 0
M  V30 7713 H 723.792 3.61568 -2.08146 0
M  V30 7714 H 722.422 3.03523 -1.09881 0
M  V30 7715 H 721.474 1.95399 -3.26379 0
M  V30 7716 H 722.786 2.74794 -4.16281 0
M  V30 7717 H 721.94 4.99239 -3.44739 0
M  V30 7718 H 720.679 4.21935 -2.44586 0
M  V30 7719 H 719.684 3.16517 -4.49552 0
M  V30 7720 H 720.909 3.97039 -5.50942 0
M  V30 7721 H 718.855 5.37561 -3.75985 0
M  V30 7722 H 718.772 5.20526 -5.4826 0
M  V30 7723 H 720.04 6.16113 -4.77519 0
M  V30 7724 N 724.269 1.44576 0.627338 0
M  V30 7725 C 725.232 1.51372 1.72102 0
M  V30 7726 C 726.232 0.395329 1.55865 0
M  V30 7727 O 727.422 0.658094 1.61291 0
M  V30 7728 C 724.554 1.39129 3.11217 0
M  V30 7729 H 725.747 2.48798 1.6745 0
M  V30 7730 H 723.3 1.31724 0.841336 0
M  V30 7731 H 724.035 0.428114 3.21462 0
M  V30 7732 H 723.82 2.20229 3.24409 0
M  V30 7733 H 725.31 1.46874 3.90919 0
M  V30 7734 N 725.747 -0.868086 1.31537 0
M  V30 7735 C 727.163 -1.15414 1.10235 0
M  V30 7736 C 727.363 -2.01106 -0.125947 0
M  V30 7737 O 726.419 -2.38994 -0.814734 0
M  V30 7738 C 727.732 -1.84445 2.37488 0
M  V30 7739 C 729.28 -1.97139 2.43116 0
M  V30 7740 C 729.755 -2.69585 3.70254 0
M  V30 7741 N 731.246 -2.77119 3.71159 0
M  V30 7742 C 731.981 -3.33791 4.6623 0
M  V30 7743 N 731.477 -3.9138 5.71659 0
M  V30 7744 N 733.27 -3.31767 4.53747 0
M  V30 7745 H 725.421 -0.297109 2.10312 0
M  V30 7746 H 727.684 -0.194227 0.92789 0
M  V30 7747 H 727.39 -1.2893 3.27215 0
M  V30 7748 H 727.264 -2.84709 2.47428 0
M  V30 7749 H 729.651 -2.51818 1.53856 0
M  V30 7750 H 729.732 -0.95912 2.37138 0
M  V30 7751 H 729.376 -2.15572 4.59881 0
M  V30 7752 H 729.306 -3.71223 3.73499 0
M  V30 7753 H 731.797 -2.3625 2.94948 0
M  V30 7754 H 732.11 -4.3274 6.40278 0
M  V30 7755 H 730.455 -3.8975 5.7543 0
M  V30 7756 H 733.646 -2.86016 3.70557 0
M  V30 7757 H 733.819 -3.75636 5.28017 0
M  V30 7758 N 727.225 -1.14528 -1.08264 0
M  V30 7759 C 728.636 -0.925261 -1.6216 0
M  V30 7760 C 728.987 0.535587 -1.88748 0
M  V30 7761 O 728.112 1.4048 -1.64604 0
M  V30 7762 C 728.707 -1.67316 -2.94603 0
M  V30 7763 C 727.266 -1.49868 -3.45278 0
M  V30 7764 C 726.413 -1.69471 -2.19487 0
M  V30 7765 H 729.364 -1.29687 -0.914707 0
M  V30 7766 H 729.385 -1.13721 -3.63109 0
M  V30 7767 H 728.897 -2.73635 -2.75219 0
M  V30 7768 H 726.998 -0.459032 -3.69762 0
M  V30 7769 H 727.111 -2.2696 -4.21931 0
M  V30 7770 H 725.475 -1.12048 -2.2873 0
M  V30 7771 H 726.258 -2.77136 -2.0261 0
M  V30 7772 N 728.703 1.26451 -0.940633 0
M  V30 7773 C 729.633 2.28773 -0.467479 0
M  V30 7774 C 730.614 1.63218 0.478955 0
M  V30 7775 O 731.799 1.90427 0.380929 0
M  V30 7776 C 728.929 3.46259 0.268656 0
M  V30 7777 C 727.883 4.23898 -0.591171 0
M  V30 7778 C 727.209 5.33993 0.274891 0
M  V30 7779 C 728.509 4.87974 -1.86223 0
M  V30 7780 H 730.203 2.68601 -1.32265 0
M  V30 7781 H 727.749 1.29123 -0.637436 0
M  V30 7782 H 729.702 4.16951 0.610696 0
M  V30 7783 H 728.426 3.05383 1.15796 0
M  V30 7784 H 727.085 3.54969 -0.916098 0
M  V30 7785 H 726.733 4.89358 1.16353 0
M  V30 7786 H 726.433 5.86849 -0.297006 0
M  V30 7787 H 727.957 6.07523 0.612213 0
M  V30 7788 H 729.371 5.50883 -1.58747 0
M  V30 7789 H 727.768 5.50945 -2.37866 0
M  V30 7790 H 728.838 4.10945 -2.57394 0
M  V30 7791 N 730.181 0.707592 1.40822 0
M  V30 7792 C 731.592 0.317011 1.83989 0
M  V30 7793 C 731.943 -1.14697 1.59182 0
M  V30 7794 O 731.068 -1.8818 1.06852 0
M  V30 7795 C 731.663 0.568593 3.33995 0
M  V30 7796 C 730.222 0.231804 3.75686 0
M  V30 7797 C 729.369 0.844933 2.64114 0
M  V30 7798 H 732.32 0.907349 1.30203 0
M  V30 7799 H 732.341 -0.168798 3.80125 0
M  V30 7800 H 731.853 1.63417 3.52018 0
M  V30 7801 H 729.954 -0.82903 3.6326 0
M  V30 7802 H 730.067 0.695219 4.74029 0
M  V30 7803 H 728.431 0.273588 2.53226 0
M  V30 7804 H 729.214 1.91462 2.84951 0
M  V30 7805 N 731.66 -1.50943 0.453197 0
M  V30 7806 C 732.607 -2.28128 -0.350197 0
M  V30 7807 C 733.577 -1.32398 -1.00299 0
M  V30 7808 O 734.762 -1.61319 -1.01887 0
M  V30 7809 C 731.902 -3.13782 -1.43649 0
M  V30 7810 C 731.015 -4.24523 -0.800255 0
M  V30 7811 C 730.15 -4.97462 -1.86293 0
M  V30 7812 C 729.189 -6.00102 -1.20598 0
M  V30 7813 N 728.326 -6.66387 -2.21071 0
M  V30 7814 H 733.166 -2.96337 0.31434 0
M  V30 7815 H 730.703 -1.46151 0.166863 0
M  V30 7816 H 732.661 -3.6178 -2.07776 0
M  V30 7817 H 731.291 -2.47655 -2.07044 0
M  V30 7818 H 730.343 -3.80371 -0.0468651 0
M  V30 7819 H 731.655 -4.98009 -0.280777 0
M  V30 7820 H 730.809 -5.49088 -2.58044 0
M  V30 7821 H 729.548 -4.23642 -2.41617 0
M  V30 7822 H 728.553 -5.47753 -0.474 0
M  V30 7823 H 729.778 -6.75887 -0.659859 0
M  V30 7824 H 727.724 -5.9537 -2.75446 0
M  V30 7825 H 727.641 -7.3569 -1.74058 0
M  V30 7826 H 728.909 -7.22638 -2.92257 0
M  V30 7827 N 733.138 -0.185124 -1.56509 0
M  V30 7828 C 734.085 0.739729 -2.18624 0
M  V30 7829 C 735.055 1.217 -1.13042 0
M  V30 7830 O 736.24 1.28268 -1.41251 0
M  V30 7831 C 733.38 1.95787 -2.84186 0
M  V30 7832 C 732.493 1.52289 -4.04267 0
M  V30 7833 C 731.628 2.69576 -4.57714 0
M  V30 7834 C 730.667 2.22636 -5.70175 0
M  V30 7835 N 729.804 3.33065 -6.18071 0
M  V30 7836 H 734.644 0.203269 -2.97306 0
M  V30 7837 H 732.181 0.0885946 -1.46833 0
M  V30 7838 H 734.139 2.67253 -3.20361 0
M  V30 7839 H 732.769 2.4678 -2.08085 0
M  V30 7840 H 731.821 0.704458 -3.7382 0
M  V30 7841 H 733.133 1.13843 -4.85635 0
M  V30 7842 H 732.287 3.4918 -4.96143 0
M  V30 7843 H 731.026 3.1129 -3.75433 0
M  V30 7844 H 730.031 1.41483 -5.31284 0
M  V30 7845 H 731.256 1.81964 -6.54267 0
M  V30 7846 H 729.202 3.74328 -5.38715 0
M  V30 7847 H 729.119 2.98756 -6.94464 0
M  V30 7848 H 730.387 4.12912 -6.61153 0
M  V30 7849 N 734.616 1.57351 0.0885366 0
M  V30 7850 C 735.579 2.01557 1.09121 0
M  V30 7851 C 736.579 0.910052 1.3257 0
M  V30 7852 O 737.769 1.17537 1.28572 0
M  V30 7853 C 734.901 2.38189 2.43883 0
M  V30 7854 H 736.094 2.91361 0.710562 0
M  V30 7855 H 733.647 1.52694 0.333779 0
M  V30 7856 H 734.382 1.5136 2.86811 0
M  V30 7857 H 734.167 3.18846 2.28209 0
M  V30 7858 H 735.657 2.73025 3.15986 0
M  V30 7859 N 736.094 -0.359525 1.53444 0
M  V30 7860 C 737.505 -0.936009 1.61542 0
M  V30 7861 C 737.856 -1.90069 0.486633 0
M  V30 7862 O 736.981 -2.12929 -0.386047 0
M  V30 7863 C 737.576 -1.70441 2.92806 0
M  V30 7864 C 736.135 -2.23015 3.03218 0
M  V30 7865 C 735.282 -1.04438 2.56881 0
M  V30 7866 H 738.233 -0.138134 1.58098 0
M  V30 7867 H 738.254 -2.56609 2.80948 0
M  V30 7868 H 737.766 -1.00205 3.74941 0
M  V30 7869 H 735.867 -2.96475 2.25684 0
M  V30 7870 H 735.98 -2.50481 4.08407 0
M  V30 7871 H 734.344 -1.41314 2.11902 0
M  V30 7872 H 735.127 -0.356905 3.4144 0
M  V30 7873 N 737.572 -1.44907 -0.619662 0
M  V30 7874 C 738.983 -1.42905 -1.20146 0
M  V30 7875 C 739.334 -0.150341 -1.95623 0
M  V30 7876 O 738.459 0.748732 -2.03034 0
M  V30 7877 C 739.054 -2.58889 -2.18545 0
M  V30 7878 C 737.613 -2.60046 -2.72127 0
M  V30 7879 C 736.76 -2.3493 -1.4732 0
M  V30 7880 H 739.711 -1.53321 -0.409666 0
M  V30 7881 H 739.732 -2.32298 -3.0136 0
M  V30 7882 H 739.244 -3.51941 -1.63583 0
M  V30 7883 H 737.345 -1.70968 -3.3106 0
M  V30 7884 H 737.458 -3.58893 -3.17384 0
M  V30 7885 H 735.822 -1.84248 -1.75855 0
M  V30 7886 H 736.605 -3.3011 -0.942442 0
M  V30 7887 N 739.05 0.861098 -1.31996 0
M  V30 7888 C 739.997 1.96912 -1.20392 0
M  V30 7889 C 740.967 1.65869 -0.0875899 0
M  V30 7890 O 742.152 1.88992 -0.262011 0
M  V30 7891 C 739.292 3.32435 -0.926335 0
M  V30 7892 C 738.405 3.76018 -2.12684 0
M  V30 7893 C 737.54 5.00301 -1.78529 0
M  V30 7894 C 736.579 5.36357 -2.94937 0
M  V30 7895 N 735.716 6.51818 -2.60917 0
M  V30 7896 H 740.556 2.06169 -2.1517 0
M  V30 7897 H 738.093 1.00917 -1.07024 0
M  V30 7898 H 740.051 4.10478 -0.745917 0
M  V30 7899 H 738.681 3.22796 -0.0153578 0
M  V30 7900 H 737.733 2.93683 -2.41774 0
M  V30 7901 H 739.045 3.98664 -2.99781 0
M  V30 7902 H 738.199 5.86034 -1.57001 0
M  V30 7903 H 736.938 4.79578 -0.886356 0
M  V30 7904 H 735.943 4.49139 -3.17103 0
M  V30 7905 H 737.168 5.59041 -3.85552 0
M  V30 7906 H 735.114 6.32624 -1.73558 0
M  V30 7907 H 735.031 6.7445 -3.41544 0
M  V30 7908 H 736.299 7.4072 -2.42804 0
M  V30 7909 N 740.528 1.15101 1.07655 0
M  V30 7910 C 741.491 0.847625 2.12951 0
M  V30 7911 C 742.491 -0.151227 1.60087 0
M  V30 7912 O 743.681 0.0780399 1.74025 0
M  V30 7913 C 740.813 0.265 3.39868 0
M  V30 7914 H 742.006 1.7809 2.41296 0
M  V30 7915 H 739.559 0.958072 1.23494 0
M  V30 7916 H 740.294 -0.676625 3.17163 0
M  V30 7917 H 740.079 0.984554 3.79538 0
M  V30 7918 H 741.569 0.0702121 4.17541 0
M  V30 7919 N 742.006 -1.2595 0.947325 0
M  V30 7920 C 742.953 -2.26159 0.460497 0
M  V30 7921 C 743.923 -1.58919 -0.483125 0
M  V30 7922 O 745.108 -1.86603 -0.397983 0
M  V30 7923 C 742.248 -3.441 -0.26247 0
M  V30 7924 C 741.361 -4.25999 0.717539 0
M  V30 7925 C 740.496 -5.31193 -0.0272486 0
M  V30 7926 C 739.535 -6.04774 0.944177 0
M  V30 7927 N 738.672 -7.01721 0.230741 0
M  V30 7928 H 743.512 -2.67173 1.31995 0
M  V30 7929 H 741.049 -1.31358 0.662088 0
M  V30 7930 H 743.007 -4.11317 -0.698137 0
M  V30 7931 H 741.637 -3.03983 -1.08602 0
M  V30 7932 H 740.689 -3.58513 1.27171 0
M  V30 7933 H 742.001 -4.76981 1.45913 0
M  V30 7934 H 741.155 -6.04451 -0.521903 0
M  V30 7935 H 739.894 -4.81066 -0.801682 0
M  V30 7936 H 738.899 -5.30338 1.4499 0
M  V30 7937 H 740.124 -6.56991 1.71872 0
M  V30 7938 H 738.07 -6.53895 -0.525088 0
M  V30 7939 H 737.987 -7.50484 0.911556 0
M  V30 7940 H 739.255 -7.79122 -0.242616 0
M  V30 7941 N 743.484 -0.715051 -1.40445 0
M  V30 7942 C 744.712 -0.263959 -2.05209 0
M  V30 7943 C 745.127 1.09403 -1.53871 0
M  V30 7944 O 744.484 1.68746 -0.695064 0
M  V30 7945 C 744.535 -0.234545 -3.60738 0
M  V30 7946 O 744.256 -1.53891 -4.10182 0
M  V30 7947 C 745.757 0.235164 -4.42676 0
M  V30 7948 H 742.977 -0.11876 -0.660407 0
M  V30 7949 H 745.521 -0.973107 -1.79864 0
M  V30 7950 H 743.676 0.425563 -3.85055 0
M  V30 7951 H 744.09 -1.43903 -5.04373 0
M  V30 7952 H 745.564 0.204598 -5.51621 0
M  V30 7953 H 746.041 1.27724 -4.20218 0
M  V30 7954 H 746.647 -0.394649 -4.23465 0
M  V30 7955 N 744.962 1.50701 -0.461195 0
M  V30 7956 C 746.373 1.867 -0.00370227 0
M  V30 7957 C 746.724 1.37673 1.39787 0
M  V30 7958 O 745.849 0.737515 2.03445 0
M  V30 7959 C 746.444 3.388 5.75786e-05 0
M  V30 7960 C 745.003 3.74247 0.402044 0
M  V30 7961 C 744.15 2.74549 -0.389652 0
M  V30 7962 H 747.101 1.43585 -0.675942 0
M  V30 7963 H 747.122 3.719 0.804414 0
M  V30 7964 H 746.634 3.74452 -1.02015 0
M  V30 7965 H 744.735 3.44192 1.42697 0
M  V30 7966 H 744.848 4.78973 0.110265 0
M  V30 7967 H 743.212 2.54226 0.155314 0
M  V30 7968 H 743.995 3.13044 -1.40919 0
M  V30 7969 N 746.441 0.193421 1.56409 0
M  V30 7970 C 747.404 -0.714371 2.17783 0
M  V30 7971 C 748.404 -1.1422 1.13183 0
M  V30 7972 O 749.594 -1.05557 1.38576 0
M  V30 7973 C 746.726 -1.97509 2.77855 0
M  V30 7974 H 747.919 -0.179714 2.99361 0
M  V30 7975 H 745.472 -0.0561944 1.56199 0
M  V30 7976 H 746.207 -2.5523 2.0007 0
M  V30 7977 H 745.992 -1.67706 3.54425 0
M  V30 7978 H 747.482 -2.62246 3.24987 0
M  V30 7979 N 747.919 -1.57396 -0.0801906 0
M  V30 7980 C 748.866 -2.03107 -1.09618 0
M  V30 7981 C 749.836 -0.910118 -1.38946 0
M  V30 7982 O 751.021 -1.17719 -1.50156 0
M  V30 7983 C 748.161 -2.47293 -2.40708 0
M  V30 7984 C 747.274 -3.72972 -2.17982 0
M  V30 7985 C 746.409 -4.05975 -3.42576 0
M  V30 7986 C 745.448 -5.24719 -3.15177 0
M  V30 7987 N 744.585 -5.53401 -4.32078 0
M  V30 7988 H 749.425 -2.89677 -0.69939 0
M  V30 7989 H 746.962 -1.43263 -0.333785 0
M  V30 7990 H 748.92 -2.7096 -3.17232 0
M  V30 7991 H 747.55 -1.63713 -2.78205 0
M  V30 7992 H 746.602 -3.56693 -1.32189 0
M  V30 7993 H 747.914 -4.59638 -1.93738 0
M  V30 7994 H 747.068 -4.30498 -4.275 0
M  V30 7995 H 745.807 -3.17859 -3.69887 0
M  V30 7996 H 744.812 -5 -2.28648 0
M  V30 7997 H 746.037 -6.14445 -2.89197 0
M  V30 7998 H 743.983 -4.68245 -4.59437 0
M  V30 7999 H 743.9 -6.34469 -4.11078 0
M  V30 8000 H 745.168 -5.8247 -5.18024 0
M  V30 8001 N 749.397 0.351382 -1.53633 0
M  V30 8002 C 750.344 1.43115 -1.81071 0
M  V30 8003 C 751.314 1.52601 -0.655913 0
M  V30 8004 O 752.499 1.68264 -0.89955 0
M  V30 8005 C 749.639 2.79874 -2.01903 0
M  V30 8006 C 748.752 2.79242 -3.29618 0
M  V30 8007 C 747.887 4.07667 -3.40559 0
M  V30 8008 C 746.926 4.01233 -4.62254 0
M  V30 8009 N 746.063 5.21334 -4.70271 0
M  V30 8010 H 750.903 1.19017 -2.73201 0
M  V30 8011 H 748.44 0.576691 -1.35324 0
M  V30 8012 H 750.398 3.5934 -2.11969 0
M  V30 8013 H 749.028 3.0234 -1.13094 0
M  V30 8014 H 748.08 1.91927 -3.28433 0
M  V30 8015 H 749.392 2.70363 -4.19172 0
M  V30 8016 H 748.546 4.95555 -3.50015 0
M  V30 8017 H 747.285 4.19317 -2.49047 0
M  V30 8018 H 746.29 3.11732 -4.52884 0
M  V30 8019 H 747.515 3.91173 -5.55122 0
M  V30 8020 H 745.461 5.33543 -3.81665 0
M  V30 8021 H 745.378 5.14681 -5.5375 0
M  V30 8022 H 746.646 6.11014 -4.84027 0
M  V30 8023 N 750.875 1.45233 0.611969 0
M  V30 8024 C 752.103 1.52539 1.39784 0
M  V30 8025 C 752.518 0.156533 1.8815 0
M  V30 8026 O 751.875 -0.84112 1.61961 0
M  V30 8027 C 751.926 2.50614 2.60528 0
M  V30 8028 O 751.647 3.8218 2.14173 0
M  V30 8029 C 753.148 2.67574 3.53439 0
M  V30 8030 H 750.368 0.51674 0.428043 0
M  V30 8031 H 752.912 1.90379 0.746727 0
M  V30 8032 H 751.067 2.15858 3.2169 0
M  V30 8033 H 751.481 4.35305 2.92592 0
M  V30 8034 H 752.955 3.40184 4.34717 0
M  V30 8035 H 753.432 1.73458 4.03496 0
M  V30 8036 H 754.038 3.0331 2.98133 0
M  V30 8037 N 752.353 -0.854086 1.3245 0
M  V30 8038 C 753.769 -1.14238 1.11453 0
M  V30 8039 C 753.969 -2.01228 -0.10461 0
M  V30 8040 O 753.025 -2.39845 -0.789339 0
M  V30 8041 C 754.338 -1.81916 2.39431 0
M  V30 8042 C 755.886 -1.94549 2.45193 0
M  V30 8043 C 756.361 -2.65642 3.73093 0
M  V30 8044 N 757.852 -2.73167 3.74078 0
M  V30 8045 C 758.587 -3.28828 4.69744 0
M  V30 8046 N 758.083 -3.85295 5.75778 0
M  V30 8047 N 759.876 -3.26936 4.57241 0
M  V30 8048 H 752.027 -0.274786 2.10615 0
M  V30 8049 H 754.29 -0.184375 0.929898 0
M  V30 8050 H 753.996 -1.25452 3.28565 0
M  V30 8051 H 753.87 -2.82068 2.50434 0
M  V30 8052 H 756.257 -2.50172 1.56518 0
M  V30 8053 H 756.338 -0.933914 2.38142 0
M  V30 8054 H 755.982 -2.10683 4.62142 0
M  V30 8055 H 755.912 -3.6724 3.77415 0
M  V30 8056 H 758.403 -2.33108 2.97438 0
M  V30 8057 H 758.716 -4.25925 6.44832 0
M  V30 8058 H 757.061 -3.83625 5.79531 0
M  V30 8059 H 760.252 -2.8207 3.7357 0
M  V30 8060 H 760.425 -3.70014 5.31971 0
M  V30 8061 N 753.831 -1.1567 -1.07043 0
M  V30 8062 C 755.242 -0.942408 -1.61169 0
M  V30 8063 C 755.593 0.515537 -1.89306 0
M  V30 8064 O 754.718 1.38726 -1.66084 0
M  V30 8065 C 755.313 -1.70431 -2.92812 0
M  V30 8066 C 753.872 -1.53521 -3.43669 0
M  V30 8067 C 753.019 -1.7179 -2.17678 0
M  V30 8068 H 755.97 -1.3065 -0.9009 0
M  V30 8069 H 755.991 -1.17566 -3.61882 0
M  V30 8070 H 755.503 -2.76538 -2.72302 0
M  V30 8071 H 753.604 -0.498224 -3.69254 0
M  V30 8072 H 753.717 -2.31422 -4.19501 0
M  V30 8073 H 752.081 -1.14468 -2.27529 0
M  V30 8074 H 752.864 -2.79269 -1.99659 0
M  V30 8075 N 755.309 1.25446 -0.953992 0
M  V30 8076 C 756.534 1.97755 -0.625129 0
M  V30 8077 C 756.959 1.70437 0.795787 0
M  V30 8078 O 756.317 0.95992 1.53803 0
M  V30 8079 C 756.365 3.49463 -0.889251 0
M  V30 8080 O 755.469 4.12387 0.0322757 0
M  V30 8081 H 754.81 0.61998 -0.237742 0
M  V30 8082 H 757.34 1.59582 -1.28041 0
M  V30 8083 H 757.35 3.99772 -0.815263 0
M  V30 8084 H 756.025 3.68676 -1.92487 0
M  V30 8085 H 754.602 3.72782 -0.0938625 0
M  V30 8086 N 756.787 0.722489 1.40064 0
M  V30 8087 C 758.012 0.273446 2.05589 0
M  V30 8088 C 758.437 -1.07875 1.54093 0
M  V30 8089 O 757.795 -1.68095 0.679252 0
M  V30 8090 C 757.843 0.271023 3.5958 0
M  V30 8091 O 756.947 -0.745499 4.05606 0
M  V30 8092 H 756.288 0.126856 0.65177 0
M  V30 8093 H 758.818 0.984906 1.79334 0
M  V30 8094 H 758.828 0.111084 4.07849 0
M  V30 8095 H 757.503 1.25776 3.96425 0
M  V30 8096 H 756.08 -0.552719 3.68781 0
M  V30 8097 N 758.265 -1.50454 0.469181 0
M  V30 8098 C 759.493 -2.06729 -0.0842134 0
M  V30 8099 C 759.908 -1.33326 -1.33677 0
M  V30 8100 O 759.265 -0.401977 -1.78018 0
M  V30 8101 C 759.316 -3.59557 -0.374253 0
M  V30 8102 O 759.037 -4.30192 0.828622 0
M  V30 8103 C 760.538 -4.32449 -0.974824 0
M  V30 8104 H 757.758 -0.670971 0.006231 0
M  V30 8105 H 760.302 -1.93645 0.657415 0
M  V30 8106 H 758.457 -3.7245 -1.06581 0
M  V30 8107 H 758.871 -5.21371 0.572066 0
M  V30 8108 H 760.345 -5.40361 -1.12755 0
M  V30 8109 H 760.822 -3.92819 -1.96442 0
M  V30 8110 H 761.428 -4.24082 -0.321703 0
M  V30 8111 N 759.743 -0.201713 -1.56304 0
M  V30 8112 C 760.989 0.435952 -1.98059 0
M  V30 8113 C 761.322 1.60811 -1.08873 0
M  V30 8114 O 760.597 1.9398 -0.142128 0
M  V30 8115 C 760.88 0.889706 -3.48936 0
M  V30 8116 C 760.733 -0.284725 -4.48898 0
M  V30 8117 C 762.052 1.7529 -4.03685 0
M  V30 8118 H 759.171 0.15699 -0.720085 0
M  V30 8119 H 761.813 -0.293965 -1.87712 0
M  V30 8120 H 759.963 1.51166 -3.57884 0
M  V30 8121 H 761.635 -0.922531 -4.51981 0
M  V30 8122 H 759.878 -0.935427 -4.23594 0
M  V30 8123 H 760.549 0.0753865 -5.51949 0
M  V30 8124 H 763.025 1.2283 -3.97558 0
M  V30 8125 H 761.901 2.03933 -5.0961 0
M  V30 8126 H 762.162 2.70939 -3.49348 0
M  V30 8127 N 761.222 1.57436 0.0718424 0
M  V30 8128 C 762.471 1.86431 0.769826 0
M  V30 8129 C 762.784 0.794355 1.78744 0
M  V30 8130 O 763.99 0.972148 2.53499 0
M  V30 8131 C 762.446 3.307 1.42006 0
M  V30 8132 C 762.054 4.45824 0.441017 0
M  V30 8133 C 763.798 3.68894 2.10041 0
M  V30 8134 C 761.705 5.81134 1.09717 0
M  V30 8135 H 760.635 0.695474 0.291259 0
M  V30 8136 H 763.286 1.83485 0.0231224 0
M  V30 8137 H 761.668 3.28257 2.21502 0
M  V30 8138 H 762.842 4.59659 -0.32413 0
M  V30 8139 H 761.157 4.16181 -0.134886 0
M  V30 8140 H 763.754 4.67281 2.59908 0
M  V30 8141 H 764.097 2.98692 2.89981 0
M  V30 8142 H 764.63 3.73326 1.37376 0
M  V30 8143 H 761.369 6.54628 0.338095 0
M  V30 8144 H 760.889 5.711 1.83317 0
M  V30 8145 H 762.568 6.26468 1.617 0
M  V30 8146 N 762.7 -0.34323 1.53817 0
M  V30 8147 C 763.647 -1.42153 1.81827 0
M  V30 8148 C 764.617 -1.52251 0.663996 0
M  V30 8149 O 765.802 -1.67784 0.908461 0
M  V30 8150 C 762.942 -2.78799 2.03384 0
M  V30 8151 C 762.055 -2.7749 3.31094 0
M  V30 8152 C 761.19 -4.05856 3.42717 0
M  V30 8153 C 760.229 -3.98776 4.64375 0
M  V30 8154 N 759.366 -5.18833 4.73029 0
M  V30 8155 H 764.206 -1.17567 2.73829 0
M  V30 8156 H 761.743 -0.569506 1.35628 0
M  V30 8157 H 763.701 -3.58211 2.13872 0
M  V30 8158 H 762.331 -3.01736 1.14696 0
M  V30 8159 H 761.383 -1.90182 3.29446 0
M  V30 8160 H 762.695 -2.68137 4.206 0
M  V30 8161 H 761.849 -4.93691 3.52638 0
M  V30 8162 H 760.588 -4.1799 2.51267 0
M  V30 8163 H 759.593 -3.09325 4.5453 0
M  V30 8164 H 760.818 -3.88224 5.57189 0
M  V30 8165 H 758.764 -5.31511 3.84489 0
M  V30 8166 H 758.681 -5.11737 5.56472 0
M  V30 8167 H 759.949 -6.08439 4.87261 0
M  V30 8168 N 764.178 -1.45556 -0.604258 0
M  V30 8169 C 765.125 -1.54482 -1.71476 0
M  V30 8170 C 766.095 -0.390479 -1.61445 0
M  V30 8171 O 767.28 -0.604371 -1.80975 0
M  V30 8172 C 764.42 -1.52064 -3.09791 0
M  V30 8173 C 763.533 -2.78073 -3.30604 0
M  V30 8174 C 762.668 -2.67304 -4.59044 0
M  V30 8175 C 761.707 -3.88352 -4.73127 0
M  V30 8176 N 760.844 -3.76098 -5.9287 0
M  V30 8177 H 765.684 -2.49349 -1.63184 0
M  V30 8178 H 763.221 -1.23725 -0.795641 0
M  V30 8179 H 765.179 -1.48649 -3.89819 0
M  V30 8180 H 763.809 -0.607442 -3.17033 0
M  V30 8181 H 762.861 -2.91561 -2.44329 0
M  V30 8182 H 764.173 -3.67847 -3.36883 0
M  V30 8183 H 763.327 -2.61875 -5.47272 0
M  V30 8184 H 762.066 -1.75135 -4.55169 0
M  V30 8185 H 761.071 -3.94137 -3.83322 0
M  V30 8186 H 762.296 -4.81591 -4.78797 0
M  V30 8187 H 760.242 -2.867 -5.90033 0
M  V30 8188 H 760.159 -4.59509 -6.00323 0
M  V30 8189 H 761.427 -3.74607 -6.83586 0
M  V30 8190 N 765.656 0.84705 -1.32902 0
M  V30 8191 C 767.067 1.41785 -1.21466 0
M  V30 8192 C 767.418 1.95464 0.169767 0
M  V30 8193 O 766.543 1.88157 1.06892 0
M  V30 8194 C 767.138 2.57734 -2.19906 0
M  V30 8195 C 765.697 3.10791 -2.12334 0
M  V30 8196 C 764.844 1.83562 -2.07847 0
M  V30 8197 H 767.795 0.653532 -1.44619 0
M  V30 8198 H 767.816 3.35123 -1.80202 0
M  V30 8199 H 767.328 2.18635 -3.20656 0
M  V30 8200 H 765.429 3.54455 -1.14858 0
M  V30 8201 H 765.542 3.71519 -3.02506 0
M  V30 8202 H 763.906 2.03475 -1.53199 0
M  V30 8203 H 764.689 1.4667 -3.10392 0
M  V30 8204 N 767.134 1.16236 1.06428 0
M  V30 8205 C 768.359 0.967688 1.83441 0
M  V30 8206 C 768.784 -0.479167 1.81894 0
M  V30 8207 O 768.142 -1.34224 1.21875 0
M  V30 8208 C 768.19 1.49806 3.2801 0
M  V30 8209 O 767.294 0.703481 4.06356 0
M  V30 8210 H 766.635 0.344468 0.56766 0
M  V30 8211 H 769.165 1.54442 1.34197 0
M  V30 8212 H 769.175 1.51495 3.78831 0
M  V30 8213 H 767.85 2.55133 3.2845 0
M  V30 8214 H 766.427 0.756986 3.65136 0
M  V30 8215 N 768.612 -1.24939 0.960631 0
M  V30 8216 C 769.86 -1.92437 0.617441 0
M  V30 8217 C 770.181 -1.75543 -0.849101 0
M  V30 8218 O 769.451 -1.12269 -1.60538 0
M  V30 8219 H 768.031 -0.712192 0.225371 0
M  V30 8220 H 770.693 -1.5198 1.22017 0
M  V30 8221 H 769.789 -3.00247 0.851933 0
M  V30 8222 N 770.09 -0.729906 -1.39679 0
M  V30 8223 C 771.338 -0.275077 -2.00219 0
M  V30 8224 C 771.659 1.1401 -1.58199 0
M  V30 8225 O 770.929 1.77546 -0.827904 0
M  V30 8226 H 769.509 -0.0987127 -0.740449 0
M  V30 8227 H 772.171 -0.93873 -1.70804 0
M  V30 8228 H 771.267 -0.319446 -3.10461 0
M  V30 8229 N 771.568 1.50203 -0.477153 0
M  V30 8230 C 772.793 2.07263 0.0754986 0
M  V30 8231 C 773.218 1.33801 1.32208 0
M  V30 8232 O 772.576 0.387482 1.77111 0
M  V30 8233 C 772.624 3.59028 0.336348 0
M  V30 8234 O 771.728 3.87339 1.4157 0
M  V30 8235 H 771.069 0.663815 -0.015662 0
M  V30 8236 H 773.599 1.93321 -0.669936 0
M  V30 8237 H 773.609 4.03927 0.575034 0
M  V30 8238 H 772.284 4.11912 -0.574551 0
M  V30 8239 H 770.861 3.54272 1.16385 0
M  V30 8240 N 773.046 0.209999 1.56195 0
M  V30 8241 C 774.271 -0.433064 2.02828 0
M  V30 8242 C 774.696 -1.5337 1.08901 0
M  V30 8243 O 774.054 -1.81144 0.0751132 0
M  V30 8244 C 774.102 -0.952635 3.47789 0
M  V30 8245 O 773.206 -2.0647 3.56993 0
M  V30 8246 H 772.547 -0.0994594 0.656509 0
M  V30 8247 H 775.077 0.32525 2.01998 0
M  V30 8248 H 775.087 -1.26542 3.8788 0
M  V30 8249 H 773.762 -0.147007 4.1564 0
M  V30 8250 H 772.339 -1.75942 3.28784 0
M  V30 8251 N 774.524 -1.57472 -0.0634922 0
M  V30 8252 C 775.471 -2.04258 -1.07457 0
M  V30 8253 C 776.441 -0.924804 -1.37973 0
M  V30 8254 O 777.626 -1.19305 -1.48899 0
M  V30 8255 C 774.766 -2.49832 -2.38071 0
M  V30 8256 C 773.879 -3.75263 -2.14014 0
M  V30 8257 C 773.014 -4.09585 -3.38251 0
M  V30 8258 C 772.053 -5.28032 -3.09594 0
M  V30 8259 N 771.19 -5.57953 -4.26185 0
M  V30 8260 H 776.03 -2.90402 -0.668626 0
M  V30 8261 H 773.567 -1.43609 -0.318572 0
M  V30 8262 H 775.525 -2.7431 -3.14341 0
M  V30 8263 H 774.155 -1.66654 -2.76453 0
M  V30 8264 H 773.207 -3.58075 -1.28399 0
M  V30 8265 H 774.519 -4.61667 -1.88852 0
M  V30 8266 H 773.673 -4.35008 -4.2291 0
M  V30 8267 H 772.412 -3.21765 -3.66495 0
M  V30 8268 H 771.417 -5.02397 -2.23332 0
M  V30 8269 H 772.642 -6.17477 -2.82663 0
M  V30 8270 H 770.588 -4.73092 -4.54445 0
M  V30 8271 H 770.505 -6.38793 -4.04326 0
M  V30 8272 H 771.773 -5.87931 -5.11817 0
M  V30 8273 N 776.003 0.335068 -1.53997 0
M  V30 8274 C 776.95 1.41187 -1.82579 0
M  V30 8275 C 777.92 1.51897 -0.672061 0
M  V30 8276 O 779.105 1.673 -0.917346 0
M  V30 8277 C 776.245 2.77717 -2.0486 0
M  V30 8278 C 775.358 2.7573 -3.32561 0
M  V30 8279 C 774.493 4.04032 -3.44864 0
M  V30 8280 C 773.532 3.96308 -4.66483 0
M  V30 8281 N 772.669 5.16317 -4.75774 0
M  V30 8282 H 777.509 1.16113 -2.74448 0
M  V30 8283 H 775.046 0.562305 -1.35928 0
M  V30 8284 H 777.004 3.57071 -2.15768 0
M  V30 8285 H 775.634 3.01124 -1.16294 0
M  V30 8286 H 774.686 1.88432 -3.3045 0
M  V30 8287 H 775.998 2.65902 -4.22016 0
M  V30 8288 H 775.152 4.91814 -3.55251 0
M  V30 8289 H 773.891 4.16652 -2.53481 0
M  V30 8290 H 772.896 3.06911 -4.56164 0
M  V30 8291 H 774.121 3.85263 -5.5924 0
M  V30 8292 H 772.067 5.29464 -3.87303 0
M  V30 8293 H 771.984 5.08779 -5.59178 0
M  V30 8294 H 773.252 6.05846 -4.9048 0
M  V30 8295 N 777.481 1.45874 0.596531 0
M  V30 8296 C 778.892 1.44798 1.17857 0
M  V30 8297 C 779.243 0.181443 1.95359 0
M  V30 8298 O 778.368 -0.716336 2.042 0
M  V30 8299 C 778.963 2.62333 2.14398 0
M  V30 8300 C 777.522 2.64342 2.67955 0
M  V30 8301 C 776.669 2.37244 1.43564 0
M  V30 8302 H 779.62 1.53954 0.385222 0
M  V30 8303 H 779.641 2.37063 2.97626 0
M  V30 8304 H 779.153 3.54499 1.57963 0
M  V30 8305 H 777.254 1.76213 3.28298 0
M  V30 8306 H 777.367 3.63897 3.11634 0
M  V30 8307 H 775.731 1.87022 1.72901 0
M  V30 8308 H 776.514 3.31568 0.889805 0
M  V30 8309 N 778.959 -0.83999 1.33349 0
M  V30 8310 C 779.922 -1.93128 1.23426 0
M  V30 8311 C 780.922 -1.60065 0.153599 0
M  V30 8312 O 782.112 -1.69425 0.405049 0
M  V30 8313 C 779.244 -3.28761 0.901622 0
M  V30 8314 H 780.437 -2.03352 2.20427 0
M  V30 8315 H 777.99 -1.03194 1.17391 0
M  V30 8316 H 778.725 -3.24233 -0.0659337 0
M  V30 8317 H 778.51 -3.54138 1.68311 0
M  V30 8318 H 780 -4.08714 0.856913 0
M  V30 8319 N 780.437 -1.16799 -1.0581 0
M  V30 8320 C 781.665 -0.97687 -1.82387 0
M  V30 8321 C 782.08 0.474917 -1.82729 0
M  V30 8322 O 781.437 1.3297 -1.25001 0
M  V30 8323 C 781.488 -1.50279 -3.28783 0
M  V30 8324 O 781.209 -2.89772 -3.28578 0
M  V30 8325 C 782.71 -1.35538 -4.22071 0
M  V30 8326 H 779.93 -0.345977 -0.574927 0
M  V30 8327 H 782.474 -1.54942 -1.33466 0
M  V30 8328 H 780.629 -0.972414 -3.74997 0
M  V30 8329 H 781.043 -3.13954 -4.20159 0
M  V30 8330 H 782.517 -1.7716 -5.22799 0
M  V30 8331 H 782.994 -0.301598 -4.38163 0
M  V30 8332 H 783.6 -1.87562 -3.81708 0
M  V30 8333 N 781.915 1.24427 -0.967243 0
M  V30 8334 C 783.14 1.9708 -0.646069 0
M  V30 8335 C 783.565 1.71272 0.777665 0
M  V30 8336 O 782.923 0.976179 1.52776 0
M  V30 8337 C 782.971 3.48501 -0.926266 0
M  V30 8338 O 782.075 4.12398 -0.0114653 0
M  V30 8339 H 781.416 0.617423 -0.244304 0
M  V30 8340 H 783.946 1.58215 -1.29727 0
M  V30 8341 H 783.956 3.98885 -0.857619 0
M  V30 8342 H 782.631 3.66613 -1.96386 0
M  V30 8343 H 781.208 3.72661 -0.133396 0
M  V30 8344 N 783.393 0.737304 1.3929 0
M  V30 8345 C 784.356 0.10731 2.28949 0
M  V30 8346 C 785.356 -0.664716 1.46418 0
M  V30 8347 O 786.546 -0.493392 1.67067 0
M  V30 8348 C 783.678 -0.857145 3.29948 0
M  V30 8349 H 784.871 0.89725 2.86163 0
M  V30 8350 H 782.424 0.503279 1.47976 0
M  V30 8351 H 783.159 -1.67336 2.77794 0
M  V30 8352 H 782.944 -0.306167 3.90903 0
M  V30 8353 H 784.434 -1.29444 3.97031 0
M  V30 8354 N 784.871 -1.49948 0.485112 0
M  V30 8355 C 786.287 -1.58984 0.140096 0
M  V30 8356 C 786.487 -1.49194 -1.35438 0
M  V30 8357 O 785.543 -1.35765 -2.12894 0
M  V30 8358 C 786.856 -2.92372 0.702769 0
M  V30 8359 C 788.404 -3.05801 0.66745 0
M  V30 8360 C 788.879 -4.41785 1.20791 0
M  V30 8361 N 790.37 -4.48234 1.16792 0
M  V30 8362 C 791.105 -5.51871 1.55646 0
M  V30 8363 N 790.601 -6.62692 2.02016 0
M  V30 8364 N 792.394 -5.42494 1.47161 0
M  V30 8365 H 784.545 -1.54555 1.45693 0
M  V30 8366 H 786.808 -0.731206 0.603359 0
M  V30 8367 H 786.514 -3.05056 1.75025 0
M  V30 8368 H 786.388 -3.76885 0.154205 0
M  V30 8369 H 788.775 -2.92757 -0.371157 0
M  V30 8370 H 788.856 -2.23011 1.25298 0
M  V30 8371 H 788.5 -4.55579 2.24522 0
M  V30 8372 H 788.43 -5.23188 0.598464 0
M  V30 8373 H 790.921 -3.68718 0.827982 0
M  V30 8374 H 791.234 -7.3785 2.29775 0
M  V30 8375 H 789.579 -6.63775 2.05979 0
M  V30 8376 H 792.77 -4.54806 1.10765 0
M  V30 8377 H 792.943 -6.2314 1.77766 0
M  V30 8378 N 786.349 -0.21828 -1.56081 0
M  V30 8379 C 787.296 0.693189 -2.20144 0
M  V30 8380 C 788.266 1.19274 -1.15598 0
M  V30 8381 O 789.451 1.25243 -1.4394 0
M  V30 8382 C 786.591 1.89715 -2.88275 0
M  V30 8383 C 785.704 1.4368 -4.07407 0
M  V30 8384 C 784.839 2.59807 -4.63329 0
M  V30 8385 C 783.878 2.10492 -5.74769 0
M  V30 8386 N 783.015 3.1988 -6.24997 0
M  V30 8387 H 787.855 0.14016 -2.9767 0
M  V30 8388 H 785.392 0.0574292 -1.46988 0
M  V30 8389 H 787.35 2.60398 -3.25958 0
M  V30 8390 H 785.98 2.42311 -2.13273 0
M  V30 8391 H 785.032 0.625007 -3.7523 0
M  V30 8392 H 786.344 1.03517 -4.8794 0
M  V30 8393 H 785.498 3.38577 -5.03438 0
M  V30 8394 H 784.237 3.03256 -3.81951 0
M  V30 8395 H 783.242 1.30182 -5.34165 0
M  V30 8396 H 784.467 1.68045 -6.5798 0
M  V30 8397 H 782.413 3.62817 -5.46534 0
M  V30 8398 H 782.33 2.83958 -7.00645 0
M  V30 8399 H 783.598 3.98796 -6.69763 0
M  V30 8400 N 787.827 1.57504 0.0551401 0
M  V30 8401 C 788.737 2.08198 1.08124 0
M  V30 8402 C 789.753 1.01496 1.41331 0
M  V30 8403 O 790.929 1.33073 1.51174 0
M  V30 8404 C 787.994 2.52968 2.37083 0
M  V30 8405 C 787.055 3.7404 2.10696 0
M  V30 8406 C 786.288 4.16665 3.33505 0
M  V30 8407 O 786.511 3.59019 4.4324 0
M  V30 8408 O 785.445 5.09324 3.20737 0
M  V30 8409 H 789.271 2.95977 0.680518 0
M  V30 8410 H 786.856 1.46933 0.270401 0
M  V30 8411 H 788.738 2.82211 3.12946 0
M  V30 8412 H 787.413 1.6831 2.76502 0
M  V30 8413 H 786.32 3.49855 1.32484 0
M  V30 8414 H 787.653 4.59601 1.76148 0
M  V30 8415 N 789.305 -0.326896 1.54172 0
M  V30 8416 C 790.551 -1.06681 1.72473 0
M  V30 8417 C 790.884 -1.87779 0.49523 0
M  V30 8418 O 790.159 -1.87754 -0.507803 0
M  V30 8419 C 790.442 -1.99429 2.99834 0
M  V30 8420 C 790.295 -1.21682 4.33028 0
M  V30 8421 C 791.614 -2.99002 3.22933 0
M  V30 8422 H 788.733 -0.386438 0.627563 0
M  V30 8423 H 791.375 -0.343779 1.86864 0
M  V30 8424 H 789.525 -2.61081 2.87696 0
M  V30 8425 H 791.197 -0.625153 4.57044 0
M  V30 8426 H 789.44 -0.519045 4.30684 0
M  V30 8427 H 790.111 -1.89766 5.18356 0
M  V30 8428 H 792.587 -2.4747 3.34511 0
M  V30 8429 H 791.463 -3.61085 4.13412 0
M  V30 8430 H 791.724 -3.71281 2.40006 0
M  V30 8431 N 790.784 -1.46188 -0.588786 0
M  V30 8432 C 791.731 -1.56292 -1.69828 0
M  V30 8433 C 792.701 -0.407581 -1.61022 0
M  V30 8434 O 793.886 -0.623532 -1.80324 0
M  V30 8435 C 791.026 -1.55341 -3.08161 0
M  V30 8436 C 790.139 -2.81564 -3.27636 0
M  V30 8437 C 789.274 -2.72158 -4.56183 0
M  V30 8438 C 788.313 -3.93348 -4.68981 0
M  V30 8439 N 787.45 -3.82365 -5.88848 0
M  V30 8440 H 792.29 -2.51066 -1.6053 0
M  V30 8441 H 789.827 -1.24562 -0.782474 0
M  V30 8442 H 791.785 -1.52776 -3.88221 0
M  V30 8443 H 790.415 -0.641034 -3.16371 0
M  V30 8444 H 789.467 -2.94136 -2.41223 0
M  V30 8445 H 790.779 -3.714 -3.32962 0
M  V30 8446 H 789.933 -2.67665 -5.44464 0
M  V30 8447 H 788.672 -1.79953 -4.53286 0
M  V30 8448 H 787.677 -3.98181 -3.7912 0
M  V30 8449 H 788.902 -4.86643 -4.73662 0
M  V30 8450 H 786.848 -2.92942 -5.86959 0
M  V30 8451 H 786.765 -4.65851 -5.95415 0
M  V30 8452 H 788.033 -3.81836 -6.79575 0
M  V30 8453 N 792.262 0.832906 -1.33792 0
M  V30 8454 C 793.192 1.95828 -1.27176 0
M  V30 8455 C 794.173 1.69427 -0.15114 0
M  V30 8456 O 795.358 1.91167 -0.341886 0
M  V30 8457 C 792.488 3.32098 -1.01629 0
M  V30 8458 C 791.442 3.72912 -2.10049 0
M  V30 8459 C 790.768 5.07054 -1.69706 0
M  V30 8460 C 792.068 3.86064 -3.51783 0
M  V30 8461 H 793.762 2.01622 -2.21334 0
M  V30 8462 H 791.308 0.96866 -1.0655 0
M  V30 8463 H 793.261 4.10402 -0.956474 0
M  V30 8464 H 791.985 3.26577 -0.0390956 0
M  V30 8465 H 790.644 2.96876 -2.15082 0
M  V30 8466 H 790.292 4.9801 -0.706737 0
M  V30 8467 H 789.992 5.35333 -2.42264 0
M  V30 8468 H 791.516 5.87827 -1.65202 0
M  V30 8469 H 792.93 4.54665 -3.49218 0
M  V30 8470 H 791.327 4.25787 -4.22878 0
M  V30 8471 H 792.397 2.88344 -3.89854 0
M  V30 8472 N 793.74 1.17359 1.05189 0
M  V30 8473 C 795.151 0.96793 1.5965 0
M  V30 8474 C 795.502 -0.485355 1.90102 0
M  V30 8475 O 794.627 -1.36066 1.6827 0
M  V30 8476 C 795.222 1.75068 2.90063 0
M  V30 8477 C 793.781 1.58969 3.41183 0
M  V30 8478 C 792.928 1.75231 2.14917 0
M  V30 8479 H 795.879 1.32067 0.880001 0
M  V30 8480 H 795.9 1.23308 3.59966 0
M  V30 8481 H 795.412 2.80835 2.67868 0
M  V30 8482 H 793.513 0.556906 3.68415 0
M  V30 8483 H 793.626 2.38067 4.15766 0
M  V30 8484 H 791.99 1.18073 2.25679 0
M  V30 8485 H 792.773 2.8241 1.95191 0
M  V30 8486 N 795.218 -1.23913 0.973828 0
M  V30 8487 C 796.466 -1.91771 0.637817 0
M  V30 8488 C 796.787 -1.76434 -0.830435 0
M  V30 8489 O 796.057 -1.13965 -1.59339 0
M  V30 8490 H 794.637 -0.709761 0.232912 0
M  V30 8491 H 797.299 -1.50677 1.23622 0
M  V30 8492 H 796.395 -2.99327 0.883731 0
M  V30 8493 N 796.696 -0.74468 -1.38897 0
M  V30 8494 C 797.643 -0.111064 -2.30533 0
M  V30 8495 C 798.613 0.719276 -1.49719 0
M  V30 8496 O 799.798 0.677244 -1.78376 0
M  V30 8497 C 796.938 0.78292 -3.36102 0
M  V30 8498 C 796.051 -0.0610817 -4.31957 0
M  V30 8499 C 795.186 0.835075 -5.24595 0
M  V30 8500 C 794.225 -0.0130974 -6.12099 0
M  V30 8501 N 793.362 0.839525 -6.97063 0
M  V30 8502 H 798.202 -0.898113 -2.84144 0
M  V30 8503 H 795.739 -0.454537 -1.39901 0
M  V30 8504 H 797.697 1.31578 -3.95908 0
M  V30 8505 H 796.327 1.53585 -2.83922 0
M  V30 8506 H 795.379 -0.711469 -3.73687 0
M  V30 8507 H 796.691 -0.716482 -4.93627 0
M  V30 8508 H 795.845 1.43542 -5.89475 0
M  V30 8509 H 794.584 1.52423 -4.63269 0
M  V30 8510 H 793.589 -0.626179 -5.46223 0
M  V30 8511 H 794.814 -0.699181 -6.75491 0
M  V30 8512 H 792.76 1.5138 -6.38295 0
M  V30 8513 H 792.677 0.240823 -7.55616 0
M  V30 8514 H 793.945 1.42513 -7.66362 0
M  V30 8515 N 798.174 1.49689 -0.493057 0
M  V30 8516 C 799.422 2.02027 0.0541642 0
M  V30 8517 C 799.743 1.37554 1.38217 0
M  V30 8518 O 799.013 0.528174 1.88646 0
M  V30 8519 H 797.593 0.746646 0.0230069 0
M  V30 8520 H 800.255 1.83795 -0.648489 0
M  V30 8521 H 799.351 3.11523 0.189652 0
M  V30 8522 N 799.652 0.226554 1.55963 0
M  V30 8523 C 800.599 -0.681504 2.20509 0
M  V30 8524 C 801.569 -1.1866 1.16229 0
M  V30 8525 O 802.754 -1.24478 1.44602 0
M  V30 8526 C 799.894 -1.88183 2.89277 0
M  V30 8527 C 799.007 -1.41517 4.08163 0
M  V30 8528 C 798.142 -2.57346 4.647 0
M  V30 8529 C 797.181 -2.07441 5.75877 0
M  V30 8530 N 796.318 -3.16561 6.26685 0
M  V30 8531 H 801.158 -0.124372 2.9774 0
M  V30 8532 H 798.695 -0.0496333 1.47016 0
M  V30 8533 H 800.653 -2.58666 3.27335 0
M  V30 8534 H 799.283 -2.41177 2.14555 0
M  V30 8535 H 798.335 -0.605099 3.75557 0
M  V30 8536 H 799.647 -1.00928 4.88482 0
M  V30 8537 H 798.801 -3.35903 5.05227 0
M  V30 8538 H 797.54 -3.01227 3.83554 0
M  V30 8539 H 796.545 -1.27347 5.34848 0
M  V30 8540 H 797.77 -1.64554 6.58862 0
M  V30 8541 H 795.716 -3.59914 5.48451 0
M  V30 8542 H 795.633 -2.80239 7.02141 0
M  V30 8543 H 796.901 -3.95238 6.71868 0
M  V30 8544 N 801.13 -1.57531 -0.0467866 0
M  V30 8545 C 802.355 -1.93087 -0.757123 0
M  V30 8546 C 802.78 -0.825116 -1.69037 0
M  V30 8547 O 802.138 0.220449 -1.79955 0
M  V30 8548 C 802.186 -3.27669 -1.5055 0
M  V30 8549 O 801.29 -3.18667 -2.61773 0
M  V30 8550 H 800.631 -0.631597 -0.204892 0
M  V30 8551 H 803.161 -2.04599 -0.00755232 0
M  V30 8552 H 803.171 -3.6214 -1.87932 0
M  V30 8553 H 801.846 -4.07717 -0.820931 0
M  V30 8554 H 800.423 -2.95798 -2.27064 0
M  V30 8555 N 802.608 0.318715 -1.54344 0
M  V30 8556 C 803.836 1.0755 -1.7675 0
M  V30 8557 C 804.251 1.81543 -0.518422 0
M  V30 8558 O 803.608 1.75198 0.511078 0
M  V30 8559 C 803.659 2.06983 -2.96378 0
M  V30 8560 O 803.38 1.35995 -4.16458 0
M  V30 8561 C 804.881 2.94841 -3.31034 0
M  V30 8562 H 802.101 0.319711 -0.589937 0
M  V30 8563 H 804.645 0.363369 -2.01246 0
M  V30 8564 H 802.8 2.73724 -2.74142 0
M  V30 8565 H 803.214 2.02623 -4.83781 0
M  V30 8566 H 804.688 3.60496 -4.18027 0
M  V30 8567 H 805.165 3.62199 -2.48412 0
M  V30 8568 H 805.771 2.33656 -3.55366 0
M  V30 8569 N 804.086 1.46499 0.581025 0
M  V30 8570 C 805.019 1.51706 1.70472 0
M  V30 8571 C 805.997 0.371036 1.5831 0
M  V30 8572 O 807.181 0.575426 1.79502 0
M  V30 8573 C 804.308 1.3972 3.08538 0
M  V30 8574 C 803.354 2.58525 3.39215 0
M  V30 8575 S 804.187 4.20872 3.311 0
M  V30 8576 C 805.343 4.11398 4.71702 0
M  V30 8577 H 805.576 2.46777 1.65796 0
M  V30 8578 H 803.109 1.34405 0.759908 0
M  V30 8579 H 805.067 1.33492 3.88188 0
M  V30 8580 H 803.728 0.460742 3.10702 0
M  V30 8581 H 802.921 2.46137 4.3981 0
M  V30 8582 H 802.523 2.61752 2.67136 0
M  V30 8583 H 804.815 3.78182 5.62125 0
M  V30 8584 H 805.758 5.11997 4.89147 0
M  V30 8585 H 806.166 3.42624 4.48631 0
M  V30 8586 N 805.565 -0.825799 1.34232 0
M  V30 8587 C 806.512 -1.93651 1.2557 0
M  V30 8588 C 807.482 -1.65578 0.131536 0
M  V30 8589 O 808.667 -1.88231 0.312027 0
M  V30 8590 C 805.807 -3.29862 1.01415 0
M  V30 8591 C 804.92 -3.70247 2.22579 0
M  V30 8592 C 804.055 -4.95392 1.91731 0
M  V30 8593 C 803.094 -5.28349 3.09053 0
M  V30 8594 N 802.231 -6.44671 2.78107 0
M  V30 8595 H 807.071 -2.00392 2.20561 0
M  V30 8596 H 804.608 -0.980441 1.09662 0
M  V30 8597 H 806.566 -4.08356 0.854485 0
M  V30 8598 H 805.196 -3.22642 0.100936 0
M  V30 8599 H 804.248 -2.87169 2.49476 0
M  V30 8600 H 805.56 -3.90575 3.10246 0
M  V30 8601 H 804.714 -5.81665 1.72484 0
M  V30 8602 H 803.453 -4.77059 1.0132 0
M  V30 8603 H 802.458 -4.40574 3.289 0
M  V30 8604 H 803.683 -5.48622 4.00239 0
M  V30 8605 H 801.629 -6.278 1.9027 0
M  V30 8606 H 801.546 -6.65158 3.59306 0
M  V30 8607 H 802.814 -7.34022 2.62358 0
M  V30 8608 N 807.043 -1.17915 -1.04565 0
M  V30 8609 C 807.99 -0.901605 -2.12461 0
M  V30 8610 C 808.96 0.157011 -1.65356 0
M  V30 8611 O 810.145 0.0184494 -1.90791 0
M  V30 8612 C 807.285 -0.42796 -3.42436 0
M  V30 8613 C 806.398 -1.55142 -4.03181 0
M  V30 8614 C 805.533 -1.03101 -5.21098 0
M  V30 8615 C 804.572 -2.1295 -5.73863 0
M  V30 8616 N 803.709 -1.62339 -6.83074 0
M  V30 8617 H 808.549 -1.82551 -2.3554 0
M  V30 8618 H 806.086 -0.910389 -1.15544 0
M  V30 8619 H 808.044 -0.134859 -4.16982 0
M  V30 8620 H 806.674 0.458977 -3.1952 0
M  V30 8621 H 805.726 -1.96011 -3.26012 0
M  V30 8622 H 807.038 -2.37968 -4.38375 0
M  V30 8623 H 806.192 -0.692132 -6.02739 0
M  V30 8624 H 804.931 -0.17227 -4.87396 0
M  V30 8625 H 803.936 -2.47687 -4.90847 0
M  V30 8626 H 805.161 -2.9925 -6.09611 0
M  V30 8627 H 803.107 -0.787464 -6.51256 0
M  V30 8628 H 803.024 -2.38767 -7.17305 0
M  V30 8629 H 804.292 -1.31363 -7.68351 0
M  V30 8630 N 808.521 1.23394 -0.980386 0
M  V30 8631 C 809.746 1.96384 -0.666935 0
M  V30 8632 C 810.171 1.72087 0.759456 0
M  V30 8633 O 809.529 0.992328 1.51732 0
M  V30 8634 C 809.577 3.47499 -0.963177 0
M  V30 8635 O 808.681 4.12363 -0.0552051 0
M  V30 8636 H 808.022 0.614797 -0.250839 0
M  V30 8637 H 810.552 1.56831 -1.31398 0
M  V30 8638 H 810.562 3.97953 -0.899877 0
M  V30 8639 H 809.237 3.6451 -2.00264 0
M  V30 8640 H 807.814 3.72499 -0.172914 0
M  V30 8641 N 809.999 0.752036 1.385 0
M  V30 8642 C 811.246 0.307503 2.00152 0
M  V30 8643 C 811.574 -1.11033 1.59693 0
M  V30 8644 O 810.829 -1.77455 0.825125 0
M  V30 8645 C 811.128 0.376155 3.55415 0
M  V30 8646 C 810.794 1.74942 4.15579 0
M  V30 8647 C 809.456 2.12525 4.31725 0
M  V30 8648 C 811.808 2.65031 4.48785 0
M  V30 8649 C 809.136 3.39671 4.78373 0
M  V30 8650 C 811.488 3.91567 4.96848 0
M  V30 8651 C 810.152 4.2922 5.11201 0
M  V30 8652 H 809.422 0.112523 0.732407 0
M  V30 8653 H 812.069 0.962213 1.65571 0
M  V30 8654 H 810.374 -0.362121 3.90123 0
M  V30 8655 H 812.071 0.0138065 4.00998 0
M  V30 8656 H 808.661 1.44726 4.03426 0
M  V30 8657 H 812.845 2.3726 4.35914 0
M  V30 8658 H 808.101 3.68765 4.8767 0
M  V30 8659 H 812.275 4.61517 5.21512 0
M  V30 8660 H 809.902 5.27805 5.47107 0
M  V30 8661 N 811.477 -1.49425 0.500989 0
M  V30 8662 C 812.893 -1.58826 0.156951 0
M  V30 8663 C 813.093 -1.50622 -1.33848 0
M  V30 8664 O 812.149 -1.38016 -2.11442 0
M  V30 8665 C 813.462 -2.91611 0.73374 0
M  V30 8666 C 815.01 -3.05076 0.699846 0
M  V30 8667 C 815.485 -4.40479 1.2547 0
M  V30 8668 N 816.976 -4.4697 1.2154 0
M  V30 8669 C 817.711 -5.50189 1.6149 0
M  V30 8670 N 817.207 -6.60512 2.09034 0
M  V30 8671 N 819 -5.40903 1.52907 0
M  V30 8672 H 811.151 -1.53001 1.47324 0
M  V30 8673 H 813.414 -0.724765 0.61108 0
M  V30 8674 H 813.12 -3.03182 1.78251 0
M  V30 8675 H 812.994 -3.767 0.19417 0
M  V30 8676 H 815.381 -2.93134 -0.340085 0
M  V30 8677 H 815.462 -2.2167 1.27656 0
M  V30 8678 H 815.106 -4.53172 2.29341 0
M  V30 8679 H 815.036 -5.22524 0.653921 0
M  V30 8680 H 817.527 -3.67819 0.867043 0
M  V30 8681 H 817.84 -7.35372 2.37588 0
M  V30 8682 H 816.185 -6.61553 2.13008 0
M  V30 8683 H 819.376 -4.53606 1.15583 0
M  V30 8684 H 819.549 -6.21219 1.84365 0
M  V30 8685 N 812.955 -0.234822 -1.55841 0
M  V30 8686 C 814.201 0.393843 -1.98939 0
M  V30 8687 C 814.534 1.58466 -1.1226 0
M  V30 8688 O 813.809 1.93635 -0.183242 0
M  V30 8689 C 814.092 0.815492 -3.50745 0
M  V30 8690 C 813.945 -0.379878 -4.48193 0
M  V30 8691 C 815.264 1.66687 -4.07312 0
M  V30 8692 H 812.383 0.141681 -0.723253 0
M  V30 8693 H 815.025 -0.333716 -1.87046 0
M  V30 8694 H 813.175 1.43541 -3.6101 0
M  V30 8695 H 814.847 -1.0182 -4.49923 0
M  V30 8696 H 813.09 -1.02507 -4.21515 0
M  V30 8697 H 813.761 -0.0417069 -5.51984 0
M  V30 8698 H 816.237 1.14369 -4.00074 0
M  V30 8699 H 815.113 1.93078 -5.13821 0
M  V30 8700 H 815.374 2.63468 -3.55017 0
M  V30 8701 N 814.433 1.57553 0.0384317 0
M  V30 8702 C 815.38 2.05942 1.04194 0
M  V30 8703 C 816.35 0.946637 1.36484 0
M  V30 8704 O 817.535 1.21658 1.46983 0
M  V30 8705 C 814.675 2.53588 2.34066 0
M  V30 8706 C 813.788 3.7862 2.08017 0
M  V30 8707 C 812.923 4.14915 3.31692 0
M  V30 8708 C 811.962 5.32891 3.01155 0
M  V30 8709 N 811.099 5.64662 4.17254 0
M  V30 8710 H 815.939 2.91429 0.622341 0
M  V30 8711 H 813.476 1.44098 0.295684 0
M  V30 8712 H 815.434 2.79276 3.09937 0
M  V30 8713 H 814.064 1.71031 2.73767 0
M  V30 8714 H 813.116 3.60073 1.22686 0
M  V30 8715 H 814.428 4.64613 1.81484 0
M  V30 8716 H 813.582 4.41681 4.15936 0
M  V30 8717 H 812.321 3.27555 3.6133 0
M  V30 8718 H 811.326 5.05887 2.15311 0
M  V30 8719 H 812.551 6.21896 2.72804 0
M  V30 8720 H 810.497 4.80261 4.46861 0
M  V30 8721 H 810.414 6.45145 3.94112 0
M  V30 8722 H 811.682 5.96 5.02399 0
M  V30 8723 N 815.911 -0.310526 1.54511 0
M  V30 8724 C 816.858 -1.38264 1.84802 0
M  V30 8725 C 817.828 -1.50808 0.696141 0
M  V30 8726 O 819.013 -1.6582 0.943846 0
M  V30 8727 C 816.153 -2.74422 2.09252 0
M  V30 8728 C 815.266 -2.70405 3.36906 0
M  V30 8729 C 814.401 -3.98495 3.51248 0
M  V30 8730 C 813.44 -3.88836 4.72729 0
M  V30 8731 N 812.577 -5.08683 4.83928 0
M  V30 8732 H 817.417 -1.11732 2.76261 0
M  V30 8733 H 814.954 -0.540609 1.36806 0
M  V30 8734 H 816.912 -3.53593 2.21422 0
M  V30 8735 H 815.542 -2.99235 1.2107 0
M  V30 8736 H 814.594 -1.83151 3.33406 0
M  V30 8737 H 815.906 -2.59155 4.26193 0
M  V30 8738 H 815.06 -4.861 3.63031 0
M  V30 8739 H 813.799 -4.12567 2.60077 0
M  V30 8740 H 812.804 -2.99615 4.60989 0
M  V30 8741 H 814.029 -3.76318 5.65298 0
M  V30 8742 H 811.975 -5.23236 3.95677 0
M  V30 8743 H 811.892 -4.99819 5.67201 0
M  V30 8744 H 813.16 -5.97966 5.00057 0
M  V30 8745 O 817.428 -1.54915 -0.456448 0
M  V30 8746 H 818.119 -1.58706 -1.11049 0
M  V30 END ATOM
M  V30 BEGIN BOND
M  V30 END BOND
M  V30 END CTAB
M  END
$$$$
