drugbank_target|Q5T1J1 HCG20471, isoform CRA_c (DB00514; DB00704; DB05792)
 OpenBabel12092119283D

  0  0  0     0  0            999 V3000
M  V30 BEGIN CTAB
M  V30 COUNTS 2058 2089 0 0 0
M  V30 BEGIN ATOM
M  V30 1 H -0.908 1.98254 -0.117106 0
M  V30 2 N 0 1.576 0 0
M  V30 3 C 0.933 2.03868 1.02534 0
M  V30 4 C 1.911 0.928543 1.3348 0
M  V30 5 O 3.095 1.19667 1.45644 0
M  V30 6 C 0.222 2.43627 2.35294 0
M  V30 7 C -0.732 3.65373 2.2001 0
M  V30 8 S 0.101 5.13292 1.52614 0
M  V30 9 C 1.257 5.56322 2.86805 0
M  V30 10 H 1.49 2.90518 0.631377 0
M  V30 11 H -0.977 1.52953 0.210867 0
M  V30 12 H 0.981 2.67203 3.11629 0
M  V30 13 H -0.358 1.57376 2.7183 0
M  V30 14 H -1.165 3.90944 3.18086 0
M  V30 15 H -1.563 3.418 1.51819 0
M  V30 16 H 0.729 5.58782 3.83104 0
M  V30 17 H 1.672 6.56266 2.65933 0
M  V30 18 H 2.08 4.83886 2.90714 0
M  V30 19 N 1.4781 -0.272755 1.55222 0
M  V30 20 C 2.7261 -1.00234 1.75492 0
M  V30 21 C 3.0471 -1.8681 0.5592 0
M  V30 22 O 2.3171 -1.91215 -0.425882 0
M  V30 23 H 0.8971 -0.373076 0.647166 0
M  V30 24 H 3.5591 -0.296926 1.92625 0
M  V30 25 H 2.6551 -1.63913 2.65592 0
M  V30 26 N 2.9562 -1.48159 -0.537278 0
M  V30 27 C 3.9192 -1.61665 -1.62472 0
M  V30 28 C 4.9192 -0.490395 -1.5314 0
M  V30 29 O 6.1092 -0.755998 -1.5694 0
M  V30 30 C 3.2412 -1.57997 -3.02076 0
M  V30 31 H 4.4342 -2.58621 -1.51839 0
M  V30 32 H 1.9872 -1.36647 -0.758771 0
M  V30 33 H 2.7222 -0.624913 -3.18222 0
M  V30 34 H 2.5072 -2.39755 -3.10258 0
M  V30 35 H 3.9972 -1.70627 -3.81151 0
M  V30 36 N 4.4343 0.785586 -1.36625 0
M  V30 37 C 5.3673 1.90509 -1.25625 0
M  V30 38 C 6.3453 1.62 -0.139607 0
M  V30 39 O 7.5293 1.8591 -0.31141 0
M  V30 40 C 4.6563 3.25419 -0.939158 0
M  V30 41 C 3.7023 3.72856 -2.07077 0
M  V30 42 S 4.5353 3.88162 -3.68904 0
M  V30 43 C 5.6913 5.25942 -3.39317 0
M  V30 44 H 5.9243 1.99549 -2.20381 0
M  V30 45 H 3.4573 0.945226 -1.22085 0
M  V30 46 H 5.4153 4.03346 -0.763029 0
M  V30 47 H 4.0763 3.14099 -0.00931402 0
M  V30 48 H 3.2693 4.70624 -1.80357 0
M  V30 49 H 2.8713 3.01989 -2.20632 0
M  V30 50 H 5.1633 6.10651 -2.93447 0
M  V30 51 H 6.1063 5.57668 -4.36363 0
M  V30 52 H 6.5143 4.93224 -2.74573 0
M  V30 53 N 5.9124 1.20967 1.01018 0
M  V30 54 C 7.1524 1.03511 1.76252 0
M  V30 55 C 7.5164 -0.42458 1.87247 0
M  V30 56 O 8.7174 -0.719508 2.58991 0
M  V30 57 C 6.9884 1.70726 3.13986 0
M  V30 58 S 8.5474 1.68458 4.05176 0
M  V30 59 H 5.3654 0.371037 0.606508 0
M  V30 60 H 7.9674 1.53628 1.20908 0
M  V30 61 H 6.6714 2.76128 3.03614 0
M  V30 62 H 6.2024 1.20767 3.74405 0
M  V30 63 H 8.2174 0.721987 4.90919 0
M  V30 64 N 7.3905 -1.2043 1.01659 0
M  V30 65 C 8.3205 -2.25466 0.607226 0
M  V30 66 C 9.3015 -1.65853 -0.377716 0
M  V30 67 O 10.4865 -1.92409 -0.263149 0
M  V30 68 C 7.6165 -3.47256 -0.0552949 0
M  V30 69 C 6.5705 -4.19462 0.850632 0
M  V30 70 C 5.8965 -5.34673 0.0538859 0
M  V30 71 C 7.1965 -4.75603 2.15868 0
M  V30 72 H 8.8905 -2.59962 1.48526 0
M  V30 73 H 6.4365 -1.2496 0.715605 0
M  V30 74 H 8.3895 -4.19917 -0.353233 0
M  V30 75 H 7.1135 -3.11924 -0.968045 0
M  V30 76 H 5.7725 -3.48667 1.13257 0
M  V30 77 H 5.4205 -4.95585 -0.860514 0
M  V30 78 H 5.1205 -5.83913 0.657192 0
M  V30 79 H 6.6445 -6.10138 -0.237598 0
M  V30 80 H 8.0585 -5.40083 1.92311 0
M  V30 81 H 6.4555 -5.3528 2.71284 0
M  V30 82 H 7.5255 -3.94346 2.82169 0
M  V30 83 N 8.8686 -0.792821 -1.36206 0
M  V30 84 C 9.7986 -0.207853 -2.32573 0
M  V30 85 C 10.7796 0.659055 -1.56813 0
M  V30 86 O 11.9646 0.592176 -1.84951 0
M  V30 87 C 9.0946 0.655449 -3.41059 0
M  V30 88 C 8.0486 -0.111842 -4.27854 0
M  V30 89 C 7.3746 0.872274 -5.27537 0
M  V30 90 C 8.6746 -1.30299 -5.05786 0
M  V30 91 H 10.3686 -1.01294 -2.81744 0
M  V30 92 H 7.9146 -0.48854 -1.3546 0
M  V30 93 H 9.8676 1.07464 -4.07467 0
M  V30 94 H 8.5916 1.49328 -2.90463 0
M  V30 95 H 7.2506 -0.512053 -3.63006 0
M  V30 96 H 6.8986 1.70523 -4.73214 0
M  V30 97 H 6.5986 0.363291 -5.86476 0
M  V30 98 H 8.1226 1.28996 -5.96818 0
M  V30 99 H 9.5366 -0.959379 -5.65216 0
M  V30 100 H 7.9336 -1.7455 -5.74154 0
M  V30 101 H 9.0036 -2.09663 -4.37229 0
M  V30 102 N 10.3467 1.47872 -0.545128 0
M  V30 103 C 11.2967 2.26842 0.229456 0
M  V30 104 C 12.2807 1.33626 0.896267 0
M  V30 105 O 13.4727 1.58063 0.79657 0
M  V30 106 C 10.6017 3.19089 1.26638 0
M  V30 107 C 9.6877 4.19783 0.603598 0
M  V30 108 N 10.0787 5.0479 -0.319405 0
M  V30 109 C 8.3767 4.3765 0.858989 0
M  V30 110 C 9.0777 5.77433 -0.703241 0
M  V30 111 N 8.0537 5.43566 -0.0608309 0
M  V30 112 H 11.8557 2.89947 -0.480391 0
M  V30 113 H 9.3697 1.58263 -0.364209 0
M  V30 114 H 11.3667 3.74337 1.83515 0
M  V30 115 H 10.0267 2.5754 1.97745 0
M  V30 116 H 11.0377 5.13244 -0.692889 0
M  V30 117 H 7.7147 3.87281 1.55948 0
M  V30 118 H 9.1047 6.55824 -1.46098 0
M  V30 119 N 11.8248 0.280983 1.55075 0
M  V30 120 C 12.7878 -0.590896 2.21452 0
M  V30 121 C 13.7878 -1.07682 1.19421 0
M  V30 122 O 14.9778 -0.97605 1.44288 0
M  V30 123 C 12.1098 -1.81587 2.88511 0
M  V30 124 H 13.3028 -0.0112554 2.99898 0
M  V30 125 H 10.8558 0.0316438 1.56268 0
M  V30 126 H 11.5908 -2.43587 2.14093 0
M  V30 127 H 11.3758 -1.4753 3.63287 0
M  V30 128 H 12.8658 -2.43575 3.39206 0
M  V30 129 N 13.3029 -1.57598 0.00835791 0
M  V30 130 C 14.5279 -1.95617 -0.689103 0
M  V30 131 C 14.9529 -0.883753 -1.66046 0
M  V30 132 O 14.3109 0.157352 -1.80616 0
M  V30 133 C 14.3589 -3.32736 -1.38994 0
M  V30 134 O 13.4629 -3.27631 -2.50463 0
M  V30 135 H 12.8039 -0.638379 -0.182668 0
M  V30 136 H 15.3339 -2.045 0.064036 0
M  V30 137 H 15.3439 -3.68494 -1.75147 0
M  V30 138 H 14.0189 -4.1034 -0.677778 0
M  V30 139 H 12.5959 -3.03561 -2.16576 0
M  V30 140 N 14.781 0.264519 -1.55364 0
M  V30 141 C 15.711 1.33121 -1.91836 0
M  V30 142 C 16.692 1.51101 -0.781192 0
M  V30 143 O 17.877 1.64003 -1.04003 0
M  V30 144 C 15.007 2.68921 -2.19769 0
M  V30 145 C 13.961 2.65661 -3.35571 0
M  V30 146 C 13.287 4.05093 -3.49004 0
M  V30 147 C 14.587 2.24187 -4.71739 0
M  V30 148 H 16.281 1.02844 -2.81182 0
M  V30 149 H 13.827 0.493286 -1.35287 0
M  V30 150 H 15.78 3.43663 -2.43872 0
M  V30 151 H 14.504 3.00799 -1.27231 0
M  V30 152 H 13.163 1.93377 -3.1145 0
M  V30 153 H 12.811 4.34206 -2.53917 0
M  V30 154 H 12.511 4.03804 -4.26868 0
M  V30 155 H 14.035 4.81561 -3.75408 0
M  V30 156 H 15.449 2.88654 -4.9533 0
M  V30 157 H 13.846 2.34044 -5.52579 0
M  V30 158 H 14.916 1.19327 -4.69988 0
M  V30 159 N 16.2591 1.48442 0.529413 0
M  V30 160 C 17.4841 1.60406 1.31471 0
M  V30 161 C 17.9091 0.264738 1.86228 0
M  V30 162 O 17.2671 -0.763668 1.64432 0
M  V30 163 C 17.3151 2.65419 2.44101 0
M  V30 164 O 16.4191 2.22618 3.47153 0
M  V30 165 H 15.7601 0.537863 0.389357 0
M  V30 166 H 18.2901 1.94432 0.636965 0
M  V30 167 H 18.3001 2.86709 2.90279 0
M  V30 168 H 16.9751 3.62652 2.03608 0
M  V30 169 H 15.5521 2.11543 3.0709 0
M  V30 170 N 17.7372 -0.778329 1.37039 0
M  V30 171 C 18.6472 -1.92253 1.34446 0
M  V30 172 C 19.6632 -1.72267 0.244991 0
M  V30 173 O 20.8392 -1.95615 0.479258 0
M  V30 174 C 17.9042 -3.27282 1.144 0
M  V30 175 C 16.9652 -3.59969 2.33925 0
M  V30 176 C 16.1982 -4.88555 2.14825 0
M  V30 177 O 16.4212 -5.59113 1.12912 0
M  V30 178 O 15.3552 -5.20153 3.02861 0
M  V30 179 H 19.1812 -1.97392 2.30803 0
M  V30 180 H 16.7662 -0.920154 1.17701 0
M  V30 181 H 18.6482 -4.08062 1.05182 0
M  V30 182 H 17.3232 -3.23011 0.211124 0
M  V30 183 H 16.2302 -2.7945 2.48714 0
M  V30 184 H 17.5632 -3.68976 3.25757 0
M  V30 185 N 19.2153 -1.21501 -1.00376 0
M  V30 186 C 20.4453 -1.05746 -1.77486 0
M  V30 187 C 20.8533 0.395655 -1.85017 0
M  V30 188 O 20.1963 1.28626 -1.31152 0
M  V30 189 C 20.2583 -1.58092 -3.22873 0
M  V30 190 C 19.9223 -3.06568 -3.38917 0
M  V30 191 C 20.9193 -4.04106 -3.271 0
M  V30 192 C 18.6043 -3.45799 -3.64319 0
M  V30 193 C 20.5983 -5.38862 -3.40451 0
M  V30 194 C 18.2853 -4.80707 -3.77311 0
M  V30 195 C 19.2833 -5.77047 -3.65384 0
M  V30 196 O 18.9713 -7.09507 -3.77961 0
M  V30 197 H 18.7033 -0.371778 -0.564586 0
M  V30 198 H 21.2573 -1.61319 -1.27143 0
M  V30 199 H 19.4873 -0.969163 -3.74358 0
M  V30 200 H 21.1763 -1.38162 -3.81662 0
M  V30 201 H 21.9423 -3.75141 -3.07399 0
M  V30 202 H 17.8213 -2.71344 -3.72684 0
M  V30 203 H 21.3653 -6.14041 -3.31058 0
M  V30 204 H 17.2623 -5.09357 -3.96517 0
M  V30 205 H 18.0303 -7.16935 -3.94901 0
M  V30 206 N 20.6934 1.19889 -1.02296 0
M  V30 207 C 21.9394 1.89701 -0.717033 0
M  V30 208 C 22.2724 1.7905 0.751989 0
M  V30 209 O 21.5474 1.17891 1.547 0
M  V30 210 C 21.8304 3.40858 -1.16136 0
M  V30 211 C 21.6834 3.60411 -2.69117 0
M  V30 212 C 23.0024 4.33876 -0.737549 0
M  V30 213 H 20.1214 0.688874 -0.261957 0
M  V30 214 H 22.7634 1.41154 -1.27183 0
M  V30 215 H 20.9134 3.82335 -0.689342 0
M  V30 216 H 22.5854 3.28145 -3.2422 0
M  V30 217 H 20.8284 3.03665 -3.0979 0
M  V30 218 H 21.4994 4.66396 -2.95261 0
M  V30 219 H 23.9754 4.00081 -1.14344 0
M  V30 220 H 22.8514 5.38242 -1.0764 0
M  V30 221 H 23.1124 4.40628 0.360436 0
M  V30 222 N 22.1715 0.800033 1.35784 0
M  V30 223 C 23.1015 0.220184 2.3246 0
M  V30 224 C 24.0825 -0.65073 1.57161 0
M  V30 225 O 25.2675 -0.582359 1.85263 0
M  V30 226 C 22.3975 -0.637353 3.41402 0
M  V30 227 C 21.3515 0.134531 4.27789 0
M  V30 228 C 20.6775 -0.844285 5.27992 0
M  V30 229 C 21.9775 1.32979 5.05088 0
M  V30 230 H 23.6715 1.02787 2.81203 0
M  V30 231 H 21.2175 0.495717 1.35199 0
M  V30 232 H 23.1705 -1.05302 4.08031 0
M  V30 233 H 21.8945 -1.47785 2.91251 0
M  V30 234 H 20.5535 0.531296 3.6273 0
M  V30 235 H 20.2015 -1.68011 4.74111 0
M  V30 236 H 19.9015 -0.332184 5.8666 0
M  V30 237 H 21.4255 -1.2583 5.97494 0
M  V30 238 H 22.8395 0.98934 5.64699 0
M  V30 239 H 21.2365 1.77593 5.7322 0
M  V30 240 H 22.3065 2.11978 4.36111 0
M  V30 241 N 23.6496 -1.47581 0.552962 0
M  V30 242 C 24.5796 -2.32762 -0.185451 0
M  V30 243 C 25.5606 -1.43527 -0.912905 0
M  V30 244 O 26.7456 -1.72388 -0.894201 0
M  V30 245 C 23.8756 -3.25219 -1.21859 0
M  V30 246 C 22.8296 -4.23661 -0.607864 0
M  V30 247 C 22.1556 -5.05413 -1.74533 0
M  V30 248 C 23.4556 -5.20481 0.435582 0
M  V30 249 H 25.1496 -2.94749 0.525684 0
M  V30 250 H 22.6956 -1.41738 0.254251 0
M  V30 251 H 24.6486 -3.8365 -1.7433 0
M  V30 252 H 23.3726 -2.61279 -1.95961 0
M  V30 253 H 22.0316 -3.66451 -0.104489 0
M  V30 254 H 21.6796 -4.3788 -2.47529 0
M  V30 255 H 21.3796 -5.72059 -1.34249 0
M  V30 256 H 22.9036 -5.66701 -2.27338 0
M  V30 257 H 24.3176 -5.733 -0.00290157 0
M  V30 258 H 22.7146 -5.95305 0.757067 0
M  V30 259 H 23.7846 -4.66217 1.33303 0
M  V30 260 N 25.1277 -0.289203 -1.54924 0
M  V30 261 C 26.3747 0.323519 -1.99899 0
M  V30 262 C 26.7027 1.54797 -1.17762 0
M  V30 263 O 25.9577 1.94237 -0.238835 0
M  V30 264 C 26.2567 0.736119 -3.49737 0
M  V30 265 C 25.9227 -0.385276 -4.49251 0
M  V30 266 C 24.5847 -0.693156 -4.76181 0
M  V30 267 C 26.9367 -1.14021 -5.08575 0
M  V30 268 C 24.2647 -1.7593 -5.59701 0
M  V30 269 C 26.6167 -2.19619 -5.93254 0
M  V30 270 C 25.2807 -2.51026 -6.185 0
M  V30 271 H 24.5507 0.118384 -0.731482 0
M  V30 272 H 27.1977 -0.405847 -1.8715 0
M  V30 273 H 25.5027 1.54539 -3.60035 0
M  V30 274 H 27.1997 1.22118 -3.81953 0
M  V30 275 H 23.7897 -0.135202 -4.28387 0
M  V30 276 H 27.9737 -0.915611 -4.87781 0
M  V30 277 H 23.2297 -2.0075 -5.77503 0
M  V30 278 H 27.4037 -2.78581 -6.38252 0
M  V30 279 H 25.0307 -3.33772 -6.83008 0
M  V30 280 N 26.6058 1.57591 -0.0167156 0
M  V30 281 C 27.8538 1.90906 0.663285 0
M  V30 282 C 28.1748 0.892509 1.73376 0
M  V30 283 O 27.4448 -0.0677623 1.95783 0
M  V30 284 H 26.0248 0.704637 0.247983 0
M  V30 285 H 28.6868 1.94803 -0.0615909 0
M  V30 286 H 27.7828 2.9116 1.12393 0
M  V30 287 N 28.0839 -0.256276 1.55502 0
M  V30 288 C 29.3119 -1.00342 1.8094 0
M  V30 289 C 29.7269 -1.79307 0.59114 0
M  V30 290 O 29.0839 -1.77114 -0.440081 0
M  V30 291 C 29.1349 -1.94875 3.04476 0
M  V30 292 O 28.8559 -1.19107 4.21598 0
M  V30 293 C 30.3569 -2.81266 3.42644 0
M  V30 294 H 27.5769 -0.295685 0.602338 0
M  V30 295 H 30.1209 -0.281998 2.02546 0
M  V30 296 H 28.2759 -2.62457 2.84947 0
M  V30 297 H 28.6899 -1.82969 4.91551 0
M  V30 298 H 30.1639 -3.43362 4.32211 0
M  V30 299 H 30.6409 -3.51897 2.62802 0
M  V30 300 H 31.2469 -2.1915 3.64491 0
M  V30 301 N 29.562 -1.4872 -0.521534 0
M  V30 302 C 30.525 -1.63379 -1.60748 0
M  V30 303 C 31.525 -0.50661 -1.52611 0
M  V30 304 O 32.715 -0.772601 -1.5613 0
M  V30 305 C 29.847 -1.61192 -3.00383 0
M  V30 306 H 31.04 -2.60217 -1.49087 0
M  V30 307 H 28.593 -1.37444 -0.744235 0
M  V30 308 H 29.328 -0.65863 -3.17541 0
M  V30 309 H 29.113 -2.43032 -3.07698 0
M  V30 310 H 30.603 -1.7466 -3.7932 0
M  V30 311 N 31.0401 0.771051 -1.3745 0
M  V30 312 C 31.9701 1.89827 -1.3597 0
M  V30 313 C 32.9511 1.68562 -0.228216 0
M  V30 314 O 34.1361 1.8941 -0.428675 0
M  V30 315 C 31.2661 3.2712 -1.16662 0
M  V30 316 C 30.2201 3.6295 -2.2683 0
M  V30 317 C 29.5461 4.98791 -1.92644 0
M  V30 318 C 30.8461 3.69627 -3.69017 0
M  V30 319 H 32.5401 1.91323 -2.30295 0
M  V30 320 H 30.0861 0.919082 -1.10855 0
M  V30 321 H 32.0391 4.05615 -1.14256 0
M  V30 322 H 30.7631 3.26059 -0.187926 0
M  V30 323 H 29.4221 2.86763 -2.28392 0
M  V30 324 H 29.0701 4.94271 -0.933021 0
M  V30 325 H 28.7701 5.23733 -2.66416 0
M  V30 326 H 30.2941 5.79685 -1.91826 0
M  V30 327 H 31.7081 4.38273 -3.69581 0
M  V30 328 H 30.1051 4.06067 -4.41848 0
M  V30 329 H 31.1751 2.70273 -4.02592 0
M  V30 330 N 32.5182 1.22032 0.997298 0
M  V30 331 C 33.7662 1.04016 1.73278 0
M  V30 332 C 34.0872 -0.426255 1.90284 0
M  V30 333 O 33.3572 -1.30694 1.45931 0
M  V30 334 H 31.9372 0.381897 0.642 0
M  V30 335 H 34.5992 1.5347 1.20137 0
M  V30 336 H 33.6952 1.51441 2.72896 0
M  V30 337 N 33.9963 -1.19345 1.0293 0
M  V30 338 C 35.2213 -1.93538 0.745511 0
M  V30 339 C 35.6463 -1.75007 -0.689511 0
M  V30 340 O 35.0043 -1.05265 -1.47611 0
M  V30 341 C 35.0523 -3.43336 1.10239 0
M  V30 342 O 34.1563 -4.11806 0.221289 0
M  V30 343 H 33.4973 -0.604193 0.275404 0
M  V30 344 H 36.0273 -1.5141 1.37609 0
M  V30 345 H 36.0373 -3.94004 1.05947 0
M  V30 346 H 34.7123 -3.56146 2.14786 0
M  V30 347 H 33.2893 -3.715 0.322842 0
M  V30 348 N 35.4744 -0.807222 -1.35358 0
M  V30 349 C 36.8904 -0.491038 -1.51858 0
M  V30 350 C 37.0904 0.987648 -1.75635 0
M  V30 351 O 36.1464 1.77265 -1.79815 0
M  V30 352 C 37.4594 -1.33695 -2.69344 0
M  V30 353 C 39.0074 -1.33246 -2.83222 0
M  V30 354 C 39.4824 -2.1625 -4.03733 0
M  V30 355 N 40.9734 -2.1379 -4.10911 0
M  V30 356 C 41.7084 -2.74772 -5.03277 0
M  V30 357 N 41.2044 -3.44684 -6.0097 0
M  V30 358 N 42.9974 -2.6441 -4.96028 0
M  V30 359 H 35.1484 -1.76485 -1.18181 0
M  V30 360 H 37.4114 -0.751199 -0.578276 0
M  V30 361 H 37.1174 -2.38634 -2.58354 0
M  V30 362 H 36.9914 -0.990618 -3.6396 0
M  V30 363 H 39.3784 -0.290911 -2.93663 0
M  V30 364 H 39.4594 -1.71866 -1.89461 0
M  V30 365 H 39.1034 -3.20445 -3.94052 0
M  V30 366 H 39.0334 -1.74989 -4.96675 0
M  V30 367 H 41.5244 -1.62923 -3.40976 0
M  V30 368 H 41.8374 -3.88501 -6.68047 0
M  V30 369 H 40.1824 -3.48788 -6.01142 0
M  V30 370 H 43.3734 -2.0938 -4.18662 0
M  V30 371 H 43.5464 -3.12225 -5.6782 0
M  V30 372 N 36.9525 1.47285 -0.560781 0
M  V30 373 C 38.2005 2.02064 -0.0379868 0
M  V30 374 C 38.5215 1.43711 1.31803 0
M  V30 375 O 37.7915 0.61362 1.86042 0
M  V30 376 H 36.3715 0.746918 -0.0110531 0
M  V30 377 H 39.0335 1.80648 -0.731598 0
M  V30 378 H 38.1295 3.12064 0.0474463 0
M  V30 379 N 38.4306 0.297415 1.54768 0
M  V30 380 C 39.3806 -0.595275 2.20092 0
M  V30 381 C 40.3646 -1.10163 1.17273 0
M  V30 382 O 41.5566 -1.043 1.43006 0
M  V30 383 C 38.6856 -1.7684 2.94249 0
M  V30 384 C 37.7716 -1.27818 4.0438 0
M  V30 385 N 38.1626 -0.505695 5.03266 0
M  V30 386 C 36.4606 -1.55923 4.17857 0
M  V30 387 C 37.1616 -0.245094 5.81183 0
M  V30 388 N 36.1376 -0.823881 5.3732 0
M  V30 389 H 39.9396 0.00250837 2.939 0
M  V30 390 H 37.4536 0.102007 1.62079 0
M  V30 391 H 39.4506 -2.41944 3.39513 0
M  V30 392 H 38.1106 -2.36992 2.21957 0
M  V30 393 H 39.1216 -0.150928 5.1768 0
M  V30 394 H 35.7986 -2.16849 3.56767 0
M  V30 395 H 37.1886 0.375084 6.70852 0
M  V30 396 N 39.9087 -1.5758 0.0250728 0
M  V30 397 C 41.1337 -1.96337 -0.668317 0
M  V30 398 C 41.5587 -0.901314 -1.651 0
M  V30 399 O 40.9167 0.138187 -1.80773 0
M  V30 400 C 40.9647 -3.34191 -1.35457 0
M  V30 401 O 40.0687 -3.30269 -2.46974 0
M  V30 402 H 39.4097 -0.640281 -0.175887 0
M  V30 403 H 41.9397 -2.0442 0.0857224 0
M  V30 404 H 41.9497 -3.70331 -1.71228 0
M  V30 405 H 40.6247 -4.11036 -0.634218 0
M  V30 406 H 39.2017 -3.05841 -2.13344 0
M  V30 407 N 41.3868 0.248026 -1.55636 0
M  V30 408 C 42.6348 0.974295 -1.77065 0
M  V30 409 C 42.9558 1.85897 -0.588849 0
M  V30 410 O 42.2258 1.91868 0.395407 0
M  V30 411 H 40.8058 0.362733 -0.653019 0
M  V30 412 H 43.4678 0.266244 -1.93073 0
M  V30 413 H 42.5638 1.59667 -2.68166 0
M  V30 414 N 42.8649 1.48995 0.513639 0
M  V30 415 C 44.2809 1.35478 0.843682 0
M  V30 416 C 44.4809 0.378213 1.97919 0
M  V30 417 O 43.5369 -0.194689 2.51748 0
M  V30 418 C 44.8499 2.75901 1.1958 0
M  V30 419 C 46.3979 2.84509 1.30474 0
M  V30 420 C 46.8729 4.25671 1.69021 0
M  V30 421 N 48.3639 4.28422 1.76094 0
M  V30 422 C 49.0989 5.34601 2.07338 0
M  V30 423 N 48.5949 6.5104 2.36894 0
M  V30 424 N 50.3879 5.22007 2.08483 0
M  V30 425 H 42.5389 2.11092 -0.235328 0
M  V30 426 H 44.8019 0.947039 -0.0426669 0
M  V30 427 H 44.5079 3.49001 0.434913 0
M  V30 428 H 44.3819 3.10467 2.1422 0
M  V30 429 H 46.7689 2.11655 2.05637 0
M  V30 430 H 46.8499 2.53542 0.339155 0
M  V30 431 H 46.4939 4.99048 0.944135 0
M  V30 432 H 46.4239 4.54094 2.66658 0
M  V30 433 H 48.9149 3.44441 1.55464 0
M  V30 434 H 49.2279 7.2779 2.59887 0
M  V30 435 H 47.5729 6.54287 2.34378 0
M  V30 436 H 50.7639 4.30051 1.84861 0
M  V30 437 H 50.9369 6.04854 2.325 0
M  V30 438 N 44.343 -0.763751 1.37857 0
M  V30 439 C 45.573 -1.55067 1.3652 0
M  V30 440 C 45.981 -1.89135 -0.0494227 0
M  V30 441 O 45.324 -1.52529 -1.02375 0
M  V30 442 C 45.386 -2.8838 2.14656 0
M  V30 443 C 45.05 -2.76905 3.63555 0
M  V30 444 C 46.047 -2.4739 4.57268 0
M  V30 445 C 43.732 -2.94676 4.06781 0
M  V30 446 C 45.726 -2.35786 5.92186 0
M  V30 447 C 43.413 -2.82692 5.41782 0
M  V30 448 C 44.411 -2.53289 6.34298 0
M  V30 449 O 44.099 -2.41345 7.66817 0
M  V30 450 H 43.831 -0.486776 0.469069 0
M  V30 451 H 46.385 -0.953812 1.81911 0
M  V30 452 H 44.615 -3.50217 1.63967 0
M  V30 453 H 46.304 -3.49828 2.05852 0
M  V30 454 H 47.07 -2.33339 4.2518 0
M  V30 455 H 42.949 -3.16563 3.35126 0
M  V30 456 H 46.493 -2.12757 6.64365 0
M  V30 457 H 42.39 -2.96314 5.7347 0
M  V30 458 H 43.158 -2.56634 7.77226 0
M  V30 459 N 45.8211 -1.22559 -0.990812 0
M  V30 460 C 47.0671 -1.06303 -1.73411 0
M  V30 461 C 47.4221 0.397442 -1.8825 0
M  V30 462 O 46.7151 1.29062 -1.41611 0
M  V30 463 C 46.9091 -1.71011 -3.13831 0
M  V30 464 C 46.7381 -3.232 -3.12685 0
M  V30 465 C 45.5081 -3.92314 -3.18461 0
M  V30 466 C 47.7061 -4.20107 -2.96673 0
M  V30 467 N 45.6881 -5.31571 -3.07091 0
M  V30 468 C 47.0591 -5.46208 -2.93354 0
M  V30 469 C 49.1141 -4.10973 -2.8108 0
M  V30 470 C 47.8171 -6.64225 -2.76039 0
M  V30 471 C 49.8431 -5.28642 -2.65126 0
M  V30 472 C 49.2051 -6.53663 -2.62496 0
M  V30 473 H 45.3041 -0.443441 -0.644115 0
M  V30 474 H 47.8881 -1.55131 -1.17654 0
M  V30 475 H 46.0591 -1.2473 -3.67827 0
M  V30 476 H 47.7911 -1.47828 -3.76735 0
M  V30 477 H 44.5461 -3.43326 -3.26227 0
M  V30 478 H 44.9701 -6.0455 -3.0471 0
M  V30 479 H 49.6121 -3.15098 -2.8191 0
M  V30 480 H 47.3301 -7.60246 -2.73954 0
M  V30 481 H 50.9161 -5.23407 -2.54039 0
M  V30 482 H 49.7961 -7.43182 -2.50302 0
M  V30 483 N 47.2992 1.18797 -1.03562 0
M  V30 484 C 48.2622 2.20464 -0.626769 0
M  V30 485 C 49.2622 1.57721 0.313173 0
M  V30 486 O 50.4522 1.73917 0.0992615 0
M  V30 487 C 47.5842 3.40802 0.0818498 0
M  V30 488 H 48.7772 2.58149 -1.5264 0
M  V30 489 H 46.3302 1.32593 -0.827578 0
M  V30 490 H 47.0652 3.08642 0.995518 0
M  V30 491 H 46.8502 3.8758 -0.593652 0
M  V30 492 H 48.3402 4.16092 0.354584 0
M  V30 493 N 48.7773 0.814389 1.34928 0
M  V30 494 C 49.6873 0.231978 2.3345 0
M  V30 495 C 50.7033 -0.629139 1.62228 0
M  V30 496 O 51.8793 -0.539052 1.94052 0
M  V30 497 C 48.9443 -0.603482 3.41407 0
M  V30 498 C 48.0053 0.279037 4.28392 0
M  V30 499 C 47.2383 -0.516643 5.31193 0
M  V30 500 O 47.4613 -1.75068 5.4287 0
M  V30 501 O 46.3953 0.0965652 6.01823 0
M  V30 502 H 50.2213 1.04721 2.85074 0
M  V30 503 H 47.8063 0.576343 1.37836 0
M  V30 504 H 49.6883 -1.07908 4.0735 0
M  V30 505 H 48.3633 -1.39618 2.92042 0
M  V30 506 H 47.2703 0.801948 3.65403 0
M  V30 507 H 48.6033 1.03588 4.81176 0
M  V30 508 N 50.2554 -1.46986 0.568584 0
M  V30 509 C 51.5044 -2.01646 0.0465894 0
M  V30 510 C 51.8174 -1.44721 -1.31587 0
M  V30 511 O 53.0234 -1.91113 -1.92842 0
M  V30 512 C 51.4794 -3.59885 0.032752 0
M  V30 513 C 51.0874 -4.25804 1.39266 0
M  V30 514 C 52.8314 -4.22255 -0.436038 0
M  V30 515 C 50.7384 -5.76081 1.33732 0
M  V30 516 H 49.6684 -0.753876 0.013647 0
M  V30 517 H 52.3194 -1.68864 0.718131 0
M  V30 518 H 50.7014 -3.8968 -0.704669 0
M  V30 519 H 51.8754 -4.07637 2.1487 0
M  V30 520 H 50.1904 -3.7547 1.80032 0
M  V30 521 H 52.7874 -5.32394 -0.49602 0
M  V30 522 H 53.1304 -3.90212 -1.45053 0
M  V30 523 H 53.6634 -3.97033 0.246877 0
M  V30 524 H 50.4024 -6.12761 2.32817 0
M  V30 525 H 49.9224 -5.96553 0.623267 0
M  V30 526 H 51.6014 -6.38518 1.0442 0
M  V30 527 N 51.7335 -0.305618 -1.54608 0
M  V30 528 C 52.9585 0.307562 -2.05107 0
M  V30 529 C 53.3835 1.46385 -1.18123 0
M  V30 530 O 52.7415 1.8034 -0.186324 0
M  V30 531 C 52.7895 0.73704 -3.52987 0
M  V30 532 O 51.8935 1.84134 -3.6901 0
M  V30 533 H 51.2345 0.0589143 -0.661381 0
M  V30 534 H 53.7645 -0.448807 -1.99617 0
M  V30 535 H 53.7745 1.02459 -3.94925 0
M  V30 536 H 52.4495 -0.108773 -4.15758 0
M  V30 537 H 51.0265 1.55398 -3.38978 0
M  V30 538 N 53.2116 1.57565 -0.0334293 0
M  V30 539 C 54.4886 1.83282 0.683163 0
M  V30 540 C 54.8686 0.91823 1.90084 0
M  V30 541 O 54.2166 -0.025113 2.28486 0
M  V30 542 C 54.4266 3.32599 1.0573 0
M  V30 543 C 55.7746 3.99179 1.44711 0
M  V30 544 O 56.7986 3.3712 1.15015 0
M  V30 545 O 55.6576 5.08565 2.0006 0
M  V30 546 H 52.7516 0.755869 0.335546 0
M  V30 547 H 55.2976 1.69589 -0.0614402 0
M  V30 548 H 54.0696 3.90834 0.190828 0
M  V30 549 H 53.6926 3.51415 1.85993 0
M  V30 550 N 54.6897 -0.239769 1.55765 0
M  V30 551 C 55.9177 -0.98417 1.81994 0
M  V30 552 C 56.3327 -1.7867 0.610124 0
M  V30 553 O 55.6897 -1.77571 -0.421271 0
M  V30 554 C 55.7407 -1.91635 3.06526 0
M  V30 555 O 55.4617 -1.14629 4.22838 0
M  V30 556 C 56.9627 -2.77616 3.45607 0
M  V30 557 H 54.1827 -0.28928 0.605441 0
M  V30 558 H 56.7267 -0.260499 2.02834 0
M  V30 559 H 54.8817 -2.5942 2.87715 0
M  V30 560 H 55.2957 -1.77745 4.93464 0
M  V30 561 H 56.7697 -3.38759 4.35828 0
M  V30 562 H 57.2467 -3.4909 2.6652 0
M  V30 563 H 57.8527 -2.15271 3.66795 0
M  V30 564 N 56.1678 -1.49265 -0.50573 0
M  V30 565 C 57.4168 -1.57761 -1.25675 0
M  V30 566 C 57.7298 -0.267371 -1.93764 0
M  V30 567 O 58.9358 -0.230827 -2.70517 0
M  V30 568 C 57.3918 -2.78332 -2.28165 0
M  V30 569 C 56.9998 -4.16096 -1.66037 0
M  V30 570 C 58.7438 -2.96155 -3.04125 0
M  V30 571 C 56.6508 -5.27895 -2.6661 0
M  V30 572 H 55.5808 -0.587391 -0.472745 0
M  V30 573 H 58.2318 -1.75644 -0.53118 0
M  V30 574 H 56.6138 -2.53934 -3.03865 0
M  V30 575 H 57.7878 -4.50612 -0.963622 0
M  V30 576 H 56.1028 -4.03591 -1.02484 0
M  V30 577 H 58.6998 -3.76849 -3.79327 0
M  V30 578 H 59.0428 -2.06534 -3.61455 0
M  V30 579 H 59.5758 -3.2057 -2.35541 0
M  V30 580 H 56.3148 -6.1956 -2.14068 0
M  V30 581 H 55.8348 -4.97839 -3.34539 0
M  V30 582 H 57.5138 -5.57031 -3.29129 0
M  V30 583 N 57.6459 0.756429 -1.3826 0
M  V30 584 C 58.8949 1.51082 -1.3363 0
M  V30 585 C 59.2079 1.95467 0.0720068 0
M  V30 586 O 60.4139 2.7043 0.240834 0
M  V30 587 C 58.8699 2.72893 -2.34644 0
M  V30 588 C 58.4779 2.35544 -3.81081 0
M  V30 589 C 60.2219 3.50791 -2.39052 0
M  V30 590 C 58.1289 3.53948 -4.73787 0
M  V30 591 H 57.0589 0.56727 -0.49671 0
M  V30 592 H 59.7099 0.827147 -1.638 0
M  V30 593 H 58.0919 3.43227 -1.97513 0
M  V30 594 H 59.2659 1.72894 -4.27135 0
M  V30 595 H 57.5809 1.70786 -3.79764 0
M  V30 596 H 60.1779 4.38823 -3.05513 0
M  V30 597 H 60.5209 3.91745 -1.40861 0
M  V30 598 H 61.0539 2.87467 -2.74968 0
M  V30 599 H 57.7929 3.18064 -5.73163 0
M  V30 600 H 57.3129 4.15651 -4.32428 0
M  V30 601 H 58.9919 4.20566 -4.91663 0
M  V30 602 N 59.124 1.23083 0.984299 0
M  V30 603 C 60.349 1.088 1.76571 0
M  V30 604 C 60.774 -0.356657 1.84688 0
M  V30 605 O 60.132 -1.25788 1.30565 0
M  V30 606 C 60.18 1.71371 3.17277 0
M  V30 607 O 59.284 0.973213 4.00752 0
M  V30 608 H 58.625 0.381599 0.543395 0
M  V30 609 H 61.155 1.63057 1.23587 0
M  V30 610 H 61.165 1.76449 3.67872 0
M  V30 611 H 59.84 2.76493 3.10684 0
M  V30 612 H 58.417 0.999078 3.59267 0
M  V30 613 N 60.6021 -1.18246 1.0419 0
M  V30 614 C 61.8501 -1.87886 0.744543 0
M  V30 615 C 62.1711 -1.8082 -0.730006 0
M  V30 616 O 61.4411 -1.22736 -1.52685 0
M  V30 617 H 60.0211 -0.695556 0.272417 0
M  V30 618 H 62.6831 -1.43494 1.31892 0
M  V30 619 H 61.7791 -2.9389 1.05049 0
M  V30 620 N 62.0802 -0.821533 -1.34494 0
M  V30 621 C 63.3082 -0.421884 -2.02553 0
M  V30 622 C 63.7232 0.971745 -1.61872 0
M  V30 623 O 63.0802 1.62864 -0.823496 0
M  V30 624 C 63.1312 -0.51285 -3.57844 0
M  V30 625 O 62.8522 -1.85155 -3.97051 0
M  V30 626 C 64.3532 -0.107921 -4.43169 0
M  V30 627 H 61.5732 -0.169482 -0.649243 0
M  V30 628 H 64.1172 -1.1093 -1.71798 0
M  V30 629 H 62.2722 0.126474 -3.87193 0
M  V30 630 H 62.6862 -1.82482 -4.91732 0
M  V30 631 H 64.1602 -0.222657 -5.51551 0
M  V30 632 H 64.6372 0.948401 -4.28838 0
M  V30 633 H 65.2432 -0.720989 -4.19144 0
M  V30 634 N 63.5583 1.46682 -0.576371 0
M  V30 635 C 64.8053 2.02412 -0.0595339 0
M  V30 636 C 65.1333 1.44859 1.29793 0
M  V30 637 O 64.3883 0.601099 1.8624 0
M  V30 638 C 64.6873 3.57345 0.062886 0
M  V30 639 C 64.3533 4.33908 -1.22616 0
M  V30 640 C 63.0153 4.54544 -1.57933 0
M  V30 641 C 65.3673 4.77919 -2.07948 0
M  V30 642 C 62.6953 5.16444 -2.78393 0
M  V30 643 C 65.0473 5.41149 -3.27629 0
M  V30 644 C 63.7113 5.60014 -3.63236 0
M  V30 645 H 62.9813 0.74068 -0.021785 0
M  V30 646 H 65.6283 1.76128 -0.751735 0
M  V30 647 H 63.9333 3.82729 0.838178 0
M  V30 648 H 65.6303 3.98136 0.478439 0
M  V30 649 H 62.2203 4.18138 -0.941202 0
M  V30 650 H 66.4043 4.61738 -1.81967 0
M  V30 651 H 61.6603 5.29242 -3.06126 0
M  V30 652 H 65.8343 5.74211 -3.94023 0
M  V30 653 H 63.4613 6.07748 -4.56669 0
M  V30 654 N 65.0364 0.313813 1.54444 0
M  V30 655 C 65.9864 -0.571898 2.20711 0
M  V30 656 C 66.9704 -1.08913 1.18435 0
M  V30 657 O 68.1624 -1.02777 1.44104 0
M  V30 658 C 65.2914 -1.7371 2.96108 0
M  V30 659 C 64.3774 -1.23522 4.05713 0
M  V30 660 N 64.7684 -0.452288 5.03774 0
M  V30 661 C 63.0664 -1.51482 4.19487 0
M  V30 662 C 63.7674 -0.183438 5.81411 0
M  V30 663 N 62.7434 -0.766845 5.38164 0
M  V30 664 H 66.5454 0.0336802 2.93881 0
M  V30 665 H 64.0594 0.119192 1.61962 0
M  V30 666 H 66.0564 -2.38329 3.4206 0
M  V30 667 H 64.7164 -2.34625 2.24458 0
M  V30 668 H 65.7274 -0.0960131 5.17811 0
M  V30 669 H 62.4044 -2.13053 3.59047 0
M  V30 670 H 63.7944 0.446216 6.70417 0
M  V30 671 N 66.5145 -1.57545 0.0417849 0
M  V30 672 C 67.4465 -2.07904 -0.964799 0
M  V30 673 C 68.4595 -1.00497 -1.28079 0
M  V30 674 O 69.6485 -1.28087 -1.24322 0
M  V30 675 C 66.7485 -2.49928 -2.28887 0
M  V30 676 C 65.9215 -3.80562 -2.15619 0
M  V30 677 C 64.9805 -4.08999 -3.31069 0
M  V30 678 O 64.0065 -4.79061 -3.0739 0
M  V30 679 N 65.2085 -3.6017 -4.55256 0
M  V30 680 H 67.9735 -2.94886 -0.535029 0
M  V30 681 H 65.5345 -1.61252 -0.144681 0
M  V30 682 H 67.5265 -2.66034 -3.04972 0
M  V30 683 H 66.0965 -1.68245 -2.63463 0
M  V30 684 H 65.3165 -3.74129 -1.24183 0
M  V30 685 H 66.6045 -4.66126 -2.03971 0
M  V30 686 H 66.0025 -3.03512 -4.77386 0
M  V30 687 H 64.5595 -3.81532 -5.28466 0
M  V30 688 N 67.9926 0.231505 -1.5589 0
M  V30 689 C 69.2386 0.954429 -1.79617 0
M  V30 690 C 69.5936 1.82367 -0.613199 0
M  V30 691 O 68.8866 1.87524 0.393094 0
M  V30 692 C 69.0806 1.83577 -3.0665 0
M  V30 693 C 68.9096 1.05334 -4.3719 0
M  V30 694 C 67.6796 0.75225 -4.99669 0
M  V30 695 C 69.8776 0.423444 -5.12554 0
M  V30 696 N 67.8596 -0.052627 -6.13877 0
M  V30 697 C 69.2306 -0.245287 -6.19515 0
M  V30 698 C 71.2856 0.335466 -4.96769 0
M  V30 699 C 69.9886 -0.993566 -7.12405 0
M  V30 700 C 72.0146 -0.399321 -5.9005 0
M  V30 701 C 71.3766 -1.05663 -6.9643 0
M  V30 702 H 67.4756 0.329846 -0.709031 0
M  V30 703 H 70.0596 0.226172 -1.93382 0
M  V30 704 H 68.2306 2.53592 -2.94186 0
M  V30 705 H 69.9626 2.49541 -3.18608 0
M  V30 706 H 66.7176 1.06783 -4.61405 0
M  V30 707 H 67.1416 -0.443609 -6.75545 0
M  V30 708 H 71.7836 0.829311 -4.14587 0
M  V30 709 H 69.5016 -1.49896 -7.94076 0
M  V30 710 H 73.0876 -0.468265 -5.79913 0
M  V30 711 H 71.9676 -1.61612 -7.67366 0
M  V30 712 N 69.4707 1.49531 0.497807 0
M  V30 713 C 70.8867 1.36365 0.829266 0
M  V30 714 C 71.0867 0.399184 1.97506 0
M  V30 715 O 70.1427 -0.167977 2.51941 0
M  V30 716 C 71.4557 2.77153 1.16647 0
M  V30 717 C 73.0037 2.85877 1.27449 0
M  V30 718 C 73.4787 4.2744 1.64497 0
M  V30 719 N 74.9697 4.30265 1.7154 0
M  V30 720 C 75.7047 5.3677 2.01656 0
M  V30 721 N 75.2007 6.53516 2.29976 0
M  V30 722 N 76.9937 5.24189 2.02934 0
M  V30 723 H 69.1447 2.10831 -0.257703 0
M  V30 724 H 71.4077 0.946534 -0.0527091 0
M  V30 725 H 71.1137 3.49442 0.397872 0
M  V30 726 H 70.9877 3.12722 2.10915 0
M  V30 727 H 73.3747 2.13824 2.0338 0
M  V30 728 H 73.4557 2.53887 0.312244 0
M  V30 729 H 73.0997 5.00021 0.891151 0
M  V30 730 H 73.0297 4.56896 2.61827 0
M  V30 731 H 75.5207 3.4607 1.51802 0
M  V30 732 H 75.8337 7.30506 2.52153 0
M  V30 733 H 74.1787 6.56737 2.27425 0
M  V30 734 H 77.3697 4.31988 1.80289 0
M  V30 735 H 77.5427 6.07286 2.26071 0
M  V30 736 N 70.9488 -0.749086 1.3866 0
M  V30 737 C 71.8588 -1.89358 1.38494 0
M  V30 738 C 72.8748 -1.71708 0.281476 0
M  V30 739 O 74.0508 -1.94554 0.520643 0
M  V30 740 C 71.1158 -3.24782 1.21316 0
M  V30 741 C 70.1768 -3.54926 2.41508 0
M  V30 742 C 69.4098 -4.83888 2.2514 0
M  V30 743 O 69.6328 -5.56592 1.24746 0
M  V30 744 O 68.5668 -5.13612 3.13826 0
M  V30 745 H 72.3928 -1.92452 2.34938 0
M  V30 746 H 69.9778 -0.894981 1.19626 0
M  V30 747 H 71.8598 -4.05739 1.13814 0
M  V30 748 H 70.5348 -3.2249 0.279592 0
M  V30 749 H 69.4418 -2.74112 2.54585 0
M  V30 750 H 70.7748 -3.61983 3.3351 0
M  V30 751 N 72.4269 -1.23603 -0.977757 0
M  V30 752 C 73.6749 -1.06759 -1.71601 0
M  V30 753 C 73.9959 0.395929 -1.90938 0
M  V30 754 O 73.2659 1.28356 -1.47992 0
M  V30 755 H 71.8459 -0.392062 -0.635843 0
M  V30 756 H 74.5079 -1.55362 -1.1768 0
M  V30 757 H 73.6039 -1.55763 -2.70452 0
M  V30 758 N 73.905 1.17692 -1.04816 0
M  V30 759 C 75.133 1.91786 -0.776254 0
M  V30 760 C 75.548 1.76604 0.667577 0
M  V30 761 O 74.905 1.10067 1.45573 0
M  V30 762 C 74.956 3.42967 -1.14263 0
M  V30 763 O 74.677 3.57678 -2.52978 0
M  V30 764 C 76.178 4.34144 -0.896311 0
M  V30 765 H 73.398 0.608624 -0.282519 0
M  V30 766 H 75.942 1.49268 -1.39783 0
M  V30 767 H 74.097 3.83245 -0.565874 0
M  V30 768 H 74.511 4.51319 -2.67229 0
M  V30 769 H 75.985 5.38744 -1.20244 0
M  V30 770 H 76.462 4.38876 0.168636 0
M  V30 771 H 77.068 3.99574 -1.45672 0
M  V30 772 N 75.3831 0.828654 1.34056 0
M  V30 773 C 76.6111 0.43262 2.02326 0
M  V30 774 C 77.0261 -0.963147 1.62385 0
M  V30 775 O 76.3831 -1.62425 0.832121 0
M  V30 776 C 76.4341 0.53182 3.57567 0
M  V30 777 O 76.1551 1.87258 3.96063 0
M  V30 778 C 77.6561 0.131422 4.43105 0
M  V30 779 H 74.8761 0.172923 0.648335 0
M  V30 780 H 77.4201 1.1184 1.71208 0
M  V30 781 H 75.5751 -0.105938 3.87255 0
M  V30 782 H 75.9891 1.85087 4.90758 0
M  V30 783 H 77.4631 0.251904 5.51425 0
M  V30 784 H 77.9401 -0.925645 4.29335 0
M  V30 785 H 78.5461 0.743207 4.18756 0
M  V30 786 N 76.8612 -1.46375 0.584142 0
M  V30 787 C 77.8082 -2.30323 -0.148286 0
M  V30 788 C 78.7782 -1.40703 -0.882713 0
M  V30 789 O 79.9632 -1.69651 -0.873099 0
M  V30 790 C 77.1032 -3.25196 -1.15507 0
M  V30 791 C 76.2162 -4.29915 -0.423943 0
M  V30 792 C 75.3512 -5.11914 -1.41838 0
M  V30 793 C 74.3902 -6.08381 -0.673736 0
M  V30 794 N 73.5272 -6.83242 -1.6163 0
M  V30 795 H 78.3672 -2.92427 0.573644 0
M  V30 796 H 75.9042 -1.44118 0.294703 0
M  V30 797 H 77.8622 -3.78646 -1.75166 0
M  V30 798 H 76.4922 -2.64898 -1.8447 0
M  V30 799 H 75.5442 -3.7931 0.287714 0
M  V30 800 H 76.8562 -4.98549 0.158128 0
M  V30 801 H 76.0102 -5.69648 -2.08773 0
M  V30 802 H 74.7492 -4.43243 -2.03438 0
M  V30 803 H 73.7542 -5.49799 0.00938483 0
M  V30 804 H 74.9792 -6.79071 -0.0631082 0
M  V30 805 H 72.9252 -6.1728 -2.22038 0
M  V30 806 H 72.8422 -7.48144 -1.08707 0
M  V30 807 H 74.1102 -7.45534 -2.27596 0
M  V30 808 N 78.3393 -0.321999 -1.54275 0
M  V30 809 C 79.5643 0.285791 -2.05422 0
M  V30 810 C 79.9893 1.45124 -1.19669 0
M  V30 811 O 79.3473 1.80132 -0.205441 0
M  V30 812 C 79.3953 0.69956 -3.53749 0
M  V30 813 O 78.4993 1.8021 -3.70942 0
M  V30 814 H 77.8403 0.0518962 -0.661969 0
M  V30 815 H 80.3703 -0.469954 -1.9913 0
M  V30 816 H 80.3803 0.982649 -3.9599 0
M  V30 817 H 79.0553 -0.152864 -4.15619 0
M  V30 818 H 77.6323 1.51794 -3.40607 0
M  V30 819 N 79.8174 1.5752 -0.0501392 0
M  V30 820 C 80.7274 2.14952 0.939827 0
M  V30 821 C 81.7434 1.10706 1.34239 0
M  V30 822 O 82.9194 1.42869 1.41952 0
M  V30 823 C 79.9844 2.68232 2.19665 0
M  V30 824 C 79.0454 3.87272 1.85253 0
M  V30 825 C 78.2784 4.38002 3.04943 0
M  V30 826 O 78.5014 3.87811 4.18281 0
M  V30 827 O 77.4354 5.29602 2.86017 0
M  V30 828 H 81.2614 2.9986 0.481392 0
M  V30 829 H 78.8464 1.4841 0.171699 0
M  V30 830 H 80.7284 3.02475 2.93406 0
M  V30 831 H 79.4034 1.86395 2.64648 0
M  V30 832 H 78.3104 3.5792 1.0883 0
M  V30 833 H 79.6434 4.70336 1.4507 0
M  V30 834 N 81.2955 -0.223234 1.56011 0
M  V30 835 C 82.5415 -0.949279 1.79211 0
M  V30 836 C 82.8745 -1.84054 0.619494 0
M  V30 837 O 82.1495 -1.90726 -0.381317 0
M  V30 838 C 82.4325 -1.78965 3.12479 0
M  V30 839 C 82.2855 -0.924997 4.40186 0
M  V30 840 C 83.6045 -2.76774 3.42175 0
M  V30 841 H 80.7235 -0.343676 0.651963 0
M  V30 842 H 83.3655 -0.218253 1.88742 0
M  V30 843 H 81.5155 -2.41291 3.04485 0
M  V30 844 H 83.1875 -0.318615 4.60198 0
M  V30 845 H 81.4305 -0.230344 4.33188 0
M  V30 846 H 82.1015 -1.54735 5.29869 0
M  V30 847 H 84.5775 -2.24584 3.50287 0
M  V30 848 H 83.4535 -3.32678 4.36597 0
M  V30 849 H 83.7145 -3.54429 2.64258 0
M  V30 850 N 82.7736 -1.49793 -0.48987 0
M  V30 851 C 84.0206 -1.59841 -1.24327 0
M  V30 852 C 84.3486 -0.290135 -1.92324 0
M  V30 853 O 83.6036 0.722749 -1.81865 0
M  V30 854 C 83.9026 -2.71488 -2.32441 0
M  V30 855 C 83.5686 -4.12614 -1.81826 0
M  V30 856 C 82.2306 -4.51017 -1.67742 0
M  V30 857 C 84.5826 -5.00892 -1.4407 0
M  V30 858 C 81.9106 -5.75459 -1.14297 0
M  V30 859 C 84.2626 -6.25863 -0.920742 0
M  V30 860 C 82.9266 -6.63086 -0.766383 0
M  V30 861 H 82.1966 -0.584899 -0.454944 0
M  V30 862 H 84.8436 -1.83663 -0.542215 0
M  V30 863 H 83.1486 -2.4168 -3.0838 0
M  V30 864 H 84.8456 -2.76469 -2.90458 0
M  V30 865 H 81.4356 -3.82307 -1.93751 0
M  V30 866 H 85.6196 -4.7187 -1.53794 0
M  V30 867 H 80.8756 -6.02989 -1.01068 0
M  V30 868 H 85.0496 -6.9364 -0.619448 0
M  V30 869 H 82.6766 -7.59393 -0.350083 0
M  V30 870 N 84.2517 0.741722 -1.39055 0
M  V30 871 C 85.4817 1.52876 -1.3897 0
M  V30 872 C 85.8897 1.8919 0.0193266 0
M  V30 873 O 85.2327 1.54138 0.999356 0
M  V30 874 C 85.2947 2.84929 -2.19216 0
M  V30 875 C 84.9587 2.71086 -3.67915 0
M  V30 876 C 85.9557 2.40084 -4.61146 0
M  V30 877 C 83.6407 2.88168 -4.11418 0
M  V30 878 C 85.6347 2.26335 -5.95862 0
M  V30 879 C 83.3217 2.74037 -5.46211 0
M  V30 880 C 84.3197 2.43166 -6.38247 0
M  V30 881 O 84.0077 2.29115 -7.70559 0
M  V30 882 H 83.7397 0.479252 -0.476753 0
M  V30 883 H 86.2937 0.924751 -1.83405 0
M  V30 884 H 84.5237 3.47564 -1.69518 0
M  V30 885 H 86.2127 3.46509 -2.11392 0
M  V30 886 H 86.9787 2.26545 -4.28838 0
M  V30 887 H 82.8577 3.11191 -3.40119 0
M  V30 888 H 86.4017 2.0216 -6.67665 0
M  V30 889 H 82.2987 2.87153 -5.78112 0
M  V30 890 H 83.0667 2.44237 -7.81211 0
M  V30 891 N 85.7298 1.2412 0.971189 0
M  V30 892 C 87.1408 1.07236 1.52831 0
M  V30 893 C 87.4918 -0.357352 1.92918 0
M  V30 894 O 86.6168 -1.24528 1.76979 0
M  V30 895 C 87.2118 1.94043 2.77728 0
M  V30 896 C 85.7708 1.81394 3.29808 0
M  V30 897 C 84.9178 1.89189 2.02738 0
M  V30 898 H 87.8688 1.37648 0.789864 0
M  V30 899 H 87.8898 1.47066 3.5093 0
M  V30 900 H 87.4018 2.98093 2.4852 0
M  V30 901 H 85.5028 0.801634 3.63874 0
M  V30 902 H 85.6158 2.65294 3.98944 0
M  V30 903 H 83.9798 1.32877 2.17292 0
M  V30 904 H 84.7628 2.94812 1.759 0
M  V30 905 N 87.2079 -1.17134 1.05439 0
M  V30 906 C 88.4559 -1.87085 0.764429 0
M  V30 907 C 88.7769 -1.81584 -0.710787 0
M  V30 908 O 88.0469 -1.24349 -1.51374 0
M  V30 909 H 86.6269 -0.692627 0.279779 0
M  V30 910 H 89.2889 -1.42087 1.33406 0
M  V30 911 H 88.3849 -2.92759 1.0816 0
M  V30 912 N 88.686 -0.835752 -1.33615 0
M  V30 913 C 89.596 -0.269088 -2.33052 0
M  V30 914 C 90.612 0.603251 -1.63208 0
M  V30 915 O 91.788 0.508112 -1.94885 0
M  V30 916 C 88.853 0.549091 -3.42324 0
M  V30 917 C 87.914 -0.347156 -4.27894 0
M  V30 918 C 87.147 0.43207 -5.31948 0
M  V30 919 O 87.37 1.66409 -5.45586 0
M  V30 920 O 86.304 -0.192298 -6.01593 0
M  V30 921 H 90.13 -1.09243 -2.83372 0
M  V30 922 H 87.715 -0.598198 -1.36901 0
M  V30 923 H 89.597 1.01414 -4.09015 0
M  V30 924 H 88.272 1.34955 -2.94226 0
M  V30 925 H 87.179 -0.859979 -3.64081 0
M  V30 926 H 88.512 -1.1123 -4.79467 0
M  V30 927 N 90.1641 1.46063 -0.591896 0
M  V30 928 C 91.3921 2.06717 -0.0868936 0
M  V30 929 C 91.8071 1.43916 1.22203 0
M  V30 930 O 91.1641 0.547698 1.74088 0
M  V30 931 C 91.2151 3.6142 0.0758725 0
M  V30 932 O 90.9361 4.21874 -1.18126 0
M  V30 933 C 92.4371 4.39025 0.61416 0
M  V30 934 H 89.6571 0.668162 -0.0616518 0
M  V30 935 H 92.2011 1.8755 -0.815175 0
M  V30 936 H 90.3561 3.79983 0.754413 0
M  V30 937 H 90.7701 5.14861 -1.00092 0
M  V30 938 H 92.2441 5.4783 0.677193 0
M  V30 939 H 92.7211 4.07708 1.63312 0
M  V30 940 H 93.3271 4.2529 -0.0298142 0
M  V30 941 N 91.6422 0.330177 1.54103 0
M  V30 942 C 92.8882 -0.270806 2.00984 0
M  V30 943 C 93.2212 -1.51265 1.21789 0
M  V30 944 O 92.4962 -1.92142 0.301927 0
M  V30 945 C 92.7792 -0.598339 3.55094 0
M  V30 946 C 92.6322 0.654674 4.4501 0
M  V30 947 C 93.9512 -1.41334 4.16789 0
M  V30 948 H 91.0702 -0.0969531 0.730595 0
M  V30 949 H 93.7122 0.448066 1.84641 0
M  V30 950 H 91.8622 -1.21078 3.69151 0
M  V30 951 H 93.5342 1.29285 4.42813 0
M  V30 952 H 91.7772 1.28224 4.14416 0
M  V30 953 H 92.4482 0.380944 5.50684 0
M  V30 954 H 94.9242 -0.895597 4.06347 0
M  V30 955 H 93.8002 -1.61127 5.24718 0
M  V30 956 H 94.0612 -2.41146 3.70541 0
M  V30 957 N 93.1203 -1.57491 0.0584922 0
M  V30 958 C 94.3663 -1.93264 -0.614558 0
M  V30 959 C 94.6993 -0.937717 -1.7006 0
M  V30 960 O 93.9743 0.0351652 -1.94468 0
M  V30 961 C 94.2573 -3.3938 -1.20386 0
M  V30 962 C 94.1103 -4.49625 -0.125375 0
M  V30 963 C 95.4293 -3.86039 -2.11334 0
M  V30 964 H 92.5483 -0.702791 -0.221933 0
M  V30 965 H 95.1903 -1.8961 0.12175 0
M  V30 966 H 93.3403 -3.42626 -1.83139 0
M  V30 967 H 95.0123 -4.58506 0.506971 0
M  V30 968 H 93.2553 -4.30354 0.545672 0
M  V30 969 H 93.9263 -5.48967 -0.577861 0
M  V30 970 H 96.4023 -3.84716 -1.58534 0
M  V30 971 H 95.2783 -4.88914 -2.49507 0
M  V30 972 H 95.5393 -3.23215 -3.01636 0
M  V30 973 N 94.5984 0.214957 -1.56127 0
M  V30 974 C 95.5484 1.27006 -1.8935 0
M  V30 975 C 96.5324 1.41969 -0.757202 0
M  V30 976 O 97.7244 1.44673 -1.01973 0
M  V30 977 C 94.8534 2.61911 -2.2194 0
M  V30 978 C 93.9394 2.50822 -3.41978 0
M  V30 979 N 94.3304 2.09391 -4.60423 0
M  V30 980 C 92.6284 2.81765 -3.45723 0
M  V30 981 C 93.3294 2.09712 -5.42582 0
M  V30 982 N 92.3054 2.50454 -4.82466 0
M  V30 983 H 96.1074 0.940734 -2.78437 0
M  V30 984 H 93.6214 0.423492 -1.56781 0
M  V30 985 H 95.6184 3.38096 -2.43919 0
M  V30 986 H 94.2784 2.95684 -1.34169 0
M  V30 987 H 95.2894 1.80416 -4.85459 0
M  V30 988 H 91.9664 3.19865 -2.68314 0
M  V30 989 H 93.3564 1.79748 -6.4741 0
M  V30 990 N 96.0765 1.50051 0.48192 0
M  V30 991 C 97.3245 1.60181 1.23234 0
M  V30 992 C 97.6455 0.299176 1.92691 0
M  V30 993 O 96.9155 -0.682708 1.83619 0
M  V30 994 H 95.4955 0.590232 0.457859 0
M  V30 995 H 98.1575 1.86775 0.556881 0
M  V30 996 H 97.2535 2.40753 1.98607 0
M  V30 997 N 97.5546 -0.734337 1.39446 0
M  V30 998 C 98.9656 -1.31264 1.32766 0
M  V30 999 C 99.3166 -1.96198 -0.00767497 0
M  V30 1000 O 98.4416 -1.96346 -0.909796 0
M  V30 1001 C 99.0366 -2.38682 2.4045 0
M  V30 1002 C 97.5956 -2.92184 2.37288 0
M  V30 1003 C 96.7426 -1.6576 2.22304 0
M  V30 1004 H 99.6936 -0.531799 1.49525 0
M  V30 1005 H 99.7146 -3.19087 2.07276 0
M  V30 1006 H 99.2266 -1.91392 3.37625 0
M  V30 1007 H 97.3276 -3.43752 1.43754 0
M  V30 1008 H 97.4406 -3.45253 3.3217 0
M  V30 1009 H 95.8046 -1.9012 1.69489 0
M  V30 1010 H 96.5876 -1.20521 3.21449 0
M  V30 1011 N 99.0327 -1.24633 -0.964593 0
M  V30 1012 C 100.281 -1.08573 -1.70459 0
M  V30 1013 C 100.602 0.375655 -1.91347 0
M  V30 1014 O 99.8717 1.26779 -1.49345 0
M  V30 1015 H 98.4517 -0.398784 -0.631649 0
M  V30 1016 H 101.114 -1.56601 -1.16026 0
M  V30 1017 H 100.21 -1.58623 -2.68785 0
M  V30 1018 N 100.511 1.16574 -1.06058 0
M  V30 1019 C 101.421 2.2452 -0.680282 0
M  V30 1020 C 102.437 1.71348 0.302604 0
M  V30 1021 O 103.613 2.00822 0.152513 0
M  V30 1022 C 100.678 3.46629 -0.0700315 0
M  V30 1023 C 99.7388 4.14849 -1.10448 0
M  V30 1024 C 98.9718 5.31129 -0.523256 0
M  V30 1025 O 99.1948 5.66514 0.664709 0
M  V30 1026 O 98.1288 5.88526 -1.26179 0
M  V30 1027 H 101.955 2.59355 -1.58015 0
M  V30 1028 H 99.5398 1.24043 -0.832694 0
M  V30 1029 H 101.422 4.20543 0.268667 0
M  V30 1030 H 100.097 3.13573 0.803353 0
M  V30 1031 H 99.0038 3.42916 -1.49532 0
M  V30 1032 H 100.337 4.51954 -1.94931 0
M  V30 1033 N 101.989 0.842826 1.3317 0
M  V30 1034 C 102.952 0.284065 2.27433 0
M  V30 1035 C 103.952 -0.54948 1.5112 0
M  V30 1036 O 105.142 -0.362699 1.70382 0
M  V30 1037 C 102.274 -0.599384 3.35589 0
M  V30 1038 H 103.467 1.11589 2.78366 0
M  V30 1039 H 101.02 0.616221 1.4364 0
M  V30 1040 H 101.755 -1.45349 2.89904 0
M  V30 1041 H 101.54 -0.00291266 3.921 0
M  V30 1042 H 103.03 -0.983488 4.05854 0
M  V30 1043 N 103.467 -1.45747 0.599634 0
M  V30 1044 C 104.695 -2.06668 0.0978551 0
M  V30 1045 C 105.11 -1.44562 -1.21439 0
M  V30 1046 O 104.467 -0.556923 -1.73795 0
M  V30 1047 C 104.518 -3.61456 -0.0567044 0
M  V30 1048 O 104.239 -4.21242 1.20361 0
M  V30 1049 C 105.74 -4.39345 -0.590869 0
M  V30 1050 H 102.96 -0.667825 0.0651943 0
M  V30 1051 H 105.504 -1.87115 0.82511 0
M  V30 1052 H 103.659 -3.80378 -0.734251 0
M  V30 1053 H 104.073 -5.14323 1.02821 0
M  V30 1054 H 105.547 -5.48182 -0.648131 0
M  V30 1055 H 106.024 -4.08568 -1.61147 0
M  V30 1056 H 106.63 -4.25268 0.0523679 0
M  V30 1057 N 104.945 -0.338344 -1.53925 0
M  V30 1058 C 105.908 0.508299 -2.23493 0
M  V30 1059 C 106.908 1.03175 -1.23335 0
M  V30 1060 O 108.098 0.921826 -1.47811 0
M  V30 1061 C 105.23 1.70754 -2.95052 0
M  V30 1062 H 106.423 -0.100058 -2.99733 0
M  V30 1063 H 103.976 -0.0896198 -1.56043 0
M  V30 1064 H 104.711 2.35474 -2.22986 0
M  V30 1065 H 104.496 1.33946 -3.68512 0
M  V30 1066 H 105.986 2.30818 -3.48013 0
M  V30 1067 N 106.423 1.57458 -0.0668435 0
M  V30 1068 C 107.669 1.93587 0.6043 0
M  V30 1069 C 108.002 0.946722 1.69561 0
M  V30 1070 O 107.277 -0.0248516 1.94484 0
M  V30 1071 C 107.56 3.40014 1.18585 0
M  V30 1072 C 107.413 4.49685 0.101529 0
M  V30 1073 C 108.732 3.87154 2.09284 0
M  V30 1074 H 105.851 0.703958 0.218202 0
M  V30 1075 H 108.493 1.89542 -0.131804 0
M  V30 1076 H 106.643 3.43592 1.81319 0
M  V30 1077 H 108.315 4.5823 -0.531279 0
M  V30 1078 H 106.558 4.30059 -0.568487 0
M  V30 1079 H 107.229 5.49266 0.54874 0
M  V30 1080 H 109.705 3.85551 1.56491 0
M  V30 1081 H 108.581 4.90231 2.46911 0
M  V30 1082 H 108.842 3.2481 2.99918 0
M  V30 1083 N 107.901 -0.206675 1.56239 0
M  V30 1084 C 108.811 -1.27686 1.96808 0
M  V30 1085 C 109.827 -1.50455 0.874035 0
M  V30 1086 O 111.003 -1.63295 1.17884 0
M  V30 1087 C 108.068 -2.60358 2.28942 0
M  V30 1088 C 107.129 -2.45762 3.51994 0
M  V30 1089 C 106.362 -3.72108 3.82585 0
M  V30 1090 O 106.585 -4.75776 3.14631 0
M  V30 1091 O 105.519 -3.6833 4.76043 0
M  V30 1092 H 109.345 -0.962593 2.88041 0
M  V30 1093 H 106.93 -0.410746 1.43643 0
M  V30 1094 H 108.812 -3.38687 2.50737 0
M  V30 1095 H 107.487 -2.91435 1.4088 0
M  V30 1096 H 106.394 -1.65584 3.35459 0
M  V30 1097 H 107.727 -2.19621 4.40486 0
M  V30 1098 N 109.379 -1.50304 -0.473955 0
M  V30 1099 C 110.625 -1.62358 -1.22521 0
M  V30 1100 C 110.98 -0.318555 -1.89745 0
M  V30 1101 O 110.273 0.683315 -1.79001 0
M  V30 1102 C 110.467 -2.73938 -2.29549 0
M  V30 1103 C 110.296 -4.15165 -1.72825 0
M  V30 1104 C 109.066 -4.81604 -1.52924 0
M  V30 1105 C 111.264 -4.99503 -1.22481 0
M  V30 1106 N 109.246 -6.07056 -0.91413 0
M  V30 1107 C 110.617 -6.15655 -0.732743 0
M  V30 1108 C 112.672 -4.85299 -1.11308 0
M  V30 1109 C 111.375 -7.19164 -0.139976 0
M  V30 1110 C 113.401 -5.88982 -0.534258 0
M  V30 1111 C 112.763 -7.0438 -0.0525562 0
M  V30 1112 H 108.862 -0.648286 -0.437321 0
M  V30 1113 H 111.446 -1.87413 -0.527692 0
M  V30 1114 H 109.617 -2.50611 -2.9673 0
M  V30 1115 H 111.349 -2.75366 -2.96573 0
M  V30 1116 H 108.104 -4.3885 -1.78067 0
M  V30 1117 H 108.528 -6.74108 -0.625071 0
M  V30 1118 H 113.17 -3.96369 -1.47144 0
M  V30 1119 H 110.888 -8.07771 0.230591 0
M  V30 1120 H 114.474 -5.80055 -0.450219 0
M  V30 1121 H 113.354 -7.83238 0.388324 0
M  V30 1122 N 110.857 0.726932 -1.39834 0
M  V30 1123 C 112.105 1.4837 -1.37225 0
M  V30 1124 C 112.426 1.94979 0.0284857 0
M  V30 1125 O 111.696 1.69555 0.981213 0
M  V30 1126 H 110.276 0.55043 -0.505011 0
M  V30 1127 H 112.938 0.862468 -1.74778 0
M  V30 1128 H 112.034 2.36198 -2.04003 0
M  V30 1129 N 112.336 1.25143 0.95797 0
M  V30 1130 C 113.747 1.08851 1.51685 0
M  V30 1131 C 114.098 -0.33687 1.93286 0
M  V30 1132 O 113.223 -1.22644 1.7829 0
M  V30 1133 C 113.818 1.96978 2.75654 0
M  V30 1134 C 112.377 1.84881 3.27866 0
M  V30 1135 C 111.524 1.91329 2.0072 0
M  V30 1136 H 114.475 1.38478 0.77522 0
M  V30 1137 H 114.496 1.5078 3.4935 0
M  V30 1138 H 114.008 3.00712 2.45345 0
M  V30 1139 H 112.109 0.840182 3.63004 0
M  V30 1140 H 112.222 2.6951 3.96107 0
M  V30 1141 H 110.586 1.35174 2.15871 0
M  V30 1142 H 111.369 2.96661 1.72764 0
M  V30 1143 N 113.814 -1.1601 1.06675 0
M  V30 1144 C 114.762 -2.22586 0.675157 0
M  V30 1145 C 115.756 -1.66525 -0.310766 0
M  V30 1146 O 116.962 -1.79145 -0.175215 0
M  V30 1147 H 113.337 -0.724855 0.200223 0
M  V30 1148 H 115.308 -2.52899 1.58381 0
M  V30 1149 C 114.057 -3.47604 0.0817162 0
M  V30 1150 H 113.38 -3.91058 0.831484 0
M  V30 1151 H 114.82 -4.23718 -0.154708 0
M  V30 1152 C 113.279 -3.15718 -1.17576 0
M  V30 1153 O 113.809 -3.31878 -2.26318 0
M  V30 1154 N 112.015 -2.69816 -1.07923 0
M  V30 1155 H 111.562 -2.56866 -0.194293 0
M  V30 1156 H 111.52 -2.48855 -1.92141 0
M  V30 1157 N 115.292 -0.849877 -1.32721 0
M  V30 1158 C 116.52 -0.464754 -2.01613 0
M  V30 1159 C 116.935 0.937191 -1.63897 0
M  V30 1160 O 116.292 1.61081 -0.857856 0
M  V30 1161 C 116.343 -0.588638 -3.56675 0
M  V30 1162 O 116.064 -1.93535 -3.93034 0
M  V30 1163 C 117.565 -0.2019 -4.4284 0
M  V30 1164 H 114.785 -0.183215 -0.645502 0
M  V30 1165 H 117.329 -1.1455 -1.69407 0
M  V30 1166 H 115.484 0.0443159 -3.87375 0
M  V30 1167 H 115.898 -1.92871 -4.87751 0
M  V30 1168 H 117.372 -0.339599 -5.50954 0
M  V30 1169 H 117.849 0.857224 -4.30753 0
M  V30 1170 H 118.455 -0.809733 -4.17521 0
M  V30 1171 N 116.77 1.45427 -0.607355 0
M  V30 1172 C 118.016 2.03097 -0.111035 0
M  V30 1173 C 118.371 1.46735 1.24445 0
M  V30 1174 O 117.664 0.632478 1.8086 0
M  V30 1175 C 117.858 3.57398 -0.0129263 0
M  V30 1176 C 117.687 4.28726 -1.35735 0
M  V30 1177 C 116.457 4.66659 -1.93798 0
M  V30 1178 C 118.655 4.60699 -2.28607 0
M  V30 1179 N 116.637 5.22845 -3.21723 0
M  V30 1180 C 118.008 5.17716 -3.41131 0
M  V30 1181 C 120.063 4.42638 -2.27982 0
M  V30 1182 C 118.766 5.58576 -4.53194 0
M  V30 1183 C 120.792 4.84531 -3.39093 0
M  V30 1184 C 120.154 5.4164 -4.50339 0
M  V30 1185 H 116.253 0.777476 -0.083994 0
M  V30 1186 H 118.837 1.77249 -0.805655 0
M  V30 1187 H 117.008 3.82907 0.650914 0
M  V30 1188 H 118.74 4.01722 0.490033 0
M  V30 1189 H 115.495 4.50207 -1.47007 0
M  V30 1190 H 115.919 5.55438 -3.87063 0
M  V30 1191 H 120.561 3.97798 -1.43235 0
M  V30 1192 H 118.279 6.02382 -5.38667 0
M  V30 1193 H 121.865 4.72289 -3.39757 0
M  V30 1194 H 120.745 5.73461 -5.34895 0
M  V30 1195 N 118.248 0.346503 1.53744 0
M  V30 1196 C 119.181 -0.552023 2.21423 0
M  V30 1197 C 120.159 -1.09798 1.19929 0
M  V30 1198 O 121.343 -1.1577 1.4876 0
M  V30 1199 C 118.47 -1.75972 2.89398 0
M  V30 1200 C 117.516 -1.34295 4.04805 0
M  V30 1201 S 118.349 -0.360263 5.34287 0
M  V30 1202 C 119.505 -1.57473 6.05767 0
M  V30 1203 H 119.738 0.0228119 2.97291 0
M  V30 1204 H 117.271 0.130579 1.53847 0
M  V30 1205 H 119.229 -2.45256 3.2918 0
M  V30 1206 H 117.89 -2.30578 2.1329 0
M  V30 1207 H 117.083 -2.24349 4.51313 0
M  V30 1208 H 116.685 -0.729555 3.66815 0
M  V30 1209 H 118.977 -2.50875 6.29339 0
M  V30 1210 H 119.92 -1.15138 6.98676 0
M  V30 1211 H 120.328 -1.77212 5.35963 0
M  V30 1212 N 119.726 -1.57421 0.075193 0
M  V30 1213 C 120.972 -1.93905 -0.594025 0
M  V30 1214 C 121.305 -0.955701 -1.69056 0
M  V30 1215 O 120.58 0.0145373 -1.94495 0
M  V30 1216 C 120.863 -3.40638 -1.1678 0
M  V30 1217 C 120.716 -4.49733 -0.0776792 0
M  V30 1218 C 122.035 -3.88259 -2.07228 0
M  V30 1219 H 119.154 -0.705105 -0.214466 0
M  V30 1220 H 121.796 -1.8947 0.141854 0
M  V30 1221 H 119.946 -3.44549 -1.79494 0
M  V30 1222 H 121.618 -4.57942 0.555573 0
M  V30 1223 H 119.861 -4.29751 0.591286 0
M  V30 1224 H 120.532 -5.49549 -0.519603 0
M  V30 1225 H 123.008 -3.86376 -1.54445 0
M  V30 1226 H 121.884 -4.91533 -2.44308 0
M  V30 1227 H 122.145 -3.26396 -2.98191 0
M  V30 1228 N 121.204 0.198386 -1.56346 0
M  V30 1229 C 122.114 1.2664 -1.97483 0
M  V30 1230 C 123.13 1.49989 -0.882002 0
M  V30 1231 O 124.306 1.62668 -1.18748 0
M  V30 1232 C 121.371 2.59141 -2.30319 0
M  V30 1233 C 120.432 2.43892 -3.53292 0
M  V30 1234 C 119.665 3.70074 -3.84553 0
M  V30 1235 O 119.888 4.74101 -3.1715 0
M  V30 1236 O 118.822 3.658 -4.7799 0
M  V30 1237 H 122.648 0.947304 -2.88548 0
M  V30 1238 H 120.233 0.403123 -1.43859 0
M  V30 1239 H 122.115 3.37352 -2.5253 0
M  V30 1240 H 120.79 2.90684 -1.42423 0
M  V30 1241 H 119.697 1.63803 -3.36332 0
M  V30 1242 H 121.03 2.17282 -4.41644 0
M  V30 1243 N 122.682 1.50554 0.465978 0
M  V30 1244 C 123.912 1.65323 1.23903 0
M  V30 1245 C 124.32 0.338051 1.86155 0
M  V30 1246 O 123.663 -0.690518 1.70228 0
M  V30 1247 C 123.725 2.69048 2.3844 0
M  V30 1248 C 123.389 4.12462 1.96784 0
M  V30 1249 C 124.386 4.98168 1.48745 0
M  V30 1250 C 122.071 4.58407 2.05349 0
M  V30 1251 C 124.065 6.27868 1.0982 0
M  V30 1252 C 121.752 5.88112 1.66035 0
M  V30 1253 C 122.75 6.72668 1.18349 0
M  V30 1254 O 122.438 7.99951 0.795825 0
M  V30 1255 H 122.17 0.558629 0.38067 0
M  V30 1256 H 124.724 1.97561 0.562022 0
M  V30 1257 H 122.954 2.32062 3.09328 0
M  V30 1258 H 124.643 2.72985 3.0039 0
M  V30 1259 H 125.409 4.63885 1.41546 0
M  V30 1260 H 121.288 3.92735 2.41414 0
M  V30 1261 H 124.832 6.93819 0.725293 0
M  V30 1262 H 120.729 6.21914 1.72895 0
M  V30 1263 H 121.497 8.13265 0.924222 0
M  V30 1264 N 124.16 -0.719506 1.40217 0
M  V30 1265 C 125.408 -1.47641 1.3801 0
M  V30 1266 C 125.729 -1.94992 -0.018145 0
M  V30 1267 O 124.999 -1.70073 -0.972207 0
M  V30 1268 H 123.579 -0.547744 0.507923 0
M  V30 1269 H 126.241 -0.853187 1.75233 0
M  V30 1270 H 125.337 -2.35112 2.05253 0
M  V30 1271 N 125.638 -1.25649 -0.95132 0
M  V30 1272 C 127.054 -1.02542 -1.223 0
M  V30 1273 C 127.254 0.255715 -1.99871 0
M  V30 1274 O 126.31 0.967558 -2.33226 0
M  V30 1275 C 127.623 -2.25065 -1.99415 0
M  V30 1276 C 129.171 -2.29861 -2.12446 0
M  V30 1277 C 129.646 -3.52048 -2.92961 0
M  V30 1278 N 131.137 -3.52465 -3.00538 0
M  V30 1279 C 131.872 -4.43672 -3.63239 0
M  V30 1280 N 131.368 -5.45157 -4.27523 0
M  V30 1281 N 133.161 -4.31346 -3.60412 0
M  V30 1282 H 125.312 -2.07951 -0.432471 0
M  V30 1283 H 127.575 -0.91339 -0.253816 0
M  V30 1284 H 127.281 -3.18194 -1.49817 0
M  V30 1285 H 127.155 -2.28502 -3.00111 0
M  V30 1286 H 129.542 -1.37252 -2.61239 0
M  V30 1287 H 129.623 -2.3044 -1.11044 0
M  V30 1288 H 129.267 -4.44981 -2.44856 0
M  V30 1289 H 129.197 -3.48715 -3.94596 0
M  V30 1290 H 131.688 -2.79056 -2.54826 0
M  V30 1291 H 132.001 -6.10958 -4.73234 0
M  V30 1292 H 130.346 -5.49025 -4.26141 0
M  V30 1293 H 133.537 -3.51288 -3.09377 0
M  V30 1294 H 133.71 -5.02624 -4.0899 0
M  V30 1295 N 127.117 1.15442 -1.07289 0
M  V30 1296 C 128.365 1.85845 -0.794096 0
M  V30 1297 C 128.686 1.82692 0.681809 0
M  V30 1298 O 127.956 1.26741 1.49377 0
M  V30 1299 H 126.536 0.688089 -0.290763 0
M  V30 1300 H 129.198 1.39947 -1.3565 0
M  V30 1301 H 128.294 2.91001 -1.12804 0
M  V30 1302 N 128.595 0.856903 1.32268 0
M  V30 1303 C 129.841 0.462069 1.97466 0
M  V30 1304 C 130.174 -0.980298 1.67642 0
M  V30 1305 O 129.449 -1.68824 0.965858 0
M  V30 1306 C 129.732 0.704336 3.53145 0
M  V30 1307 C 129.585 2.19529 3.9259 0
M  V30 1308 C 130.904 0.1622 4.39801 0
M  V30 1309 H 128.023 0.169357 0.717278 0
M  V30 1310 H 130.665 1.07574 1.56614 0
M  V30 1311 H 128.815 0.181999 3.88073 0
M  V30 1312 H 130.487 2.78387 3.67829 0
M  V30 1313 H 128.73 2.67292 3.41668 0
M  V30 1314 H 129.401 2.31549 5.01088 0
M  V30 1315 H 131.877 0.608905 4.11621 0
M  V30 1316 H 130.753 0.361265 5.4771 0
M  V30 1317 H 131.014 -0.935158 4.32096 0
M  V30 1318 N 130.073 -1.45103 0.615059 0
M  V30 1319 C 131.322 -2.01396 0.110718 0
M  V30 1320 C 131.635 -1.48834 -1.26916 0
M  V30 1321 O 132.841 -1.97152 -1.86664 0
M  V30 1322 C 131.297 -3.59599 0.14723 0
M  V30 1323 C 130.905 -4.21158 1.52743 0
M  V30 1324 C 132.649 -4.23428 -0.30148 0
M  V30 1325 C 130.556 -5.71535 1.51992 0
M  V30 1326 H 129.486 -0.753061 0.0376241 0
M  V30 1327 H 132.137 -1.66494 0.77149 0
M  V30 1328 H 130.519 -3.91724 -0.580339 0
M  V30 1329 H 131.693 -4.00594 2.2773 0
M  V30 1330 H 130.008 -3.69552 1.91886 0
M  V30 1331 H 132.605 -5.33703 -0.326392 0
M  V30 1332 H 132.948 -3.94629 -1.32565 0
M  V30 1333 H 133.481 -3.96047 0.373065 0
M  V30 1334 H 130.22 -6.05044 2.52193 0
M  V30 1335 H 129.74 -5.94268 0.81274 0
M  V30 1336 H 131.419 -6.34873 1.24681 0
M  V30 1337 N 131.551 -0.354651 -1.53558 0
M  V30 1338 C 132.962 0.126902 -1.86268 0
M  V30 1339 C 133.313 1.49075 -1.27558 0
M  V30 1340 O 132.438 2.08105 -0.5934 0
M  V30 1341 C 133.033 0.237046 -3.3797 0
M  V30 1342 C 131.592 0.662842 -3.70518 0
M  V30 1343 C 130.739 -0.196652 -2.76602 0
M  V30 1344 H 133.69 -0.573849 -1.47962 0
M  V30 1345 H 133.711 1.06259 -3.65362 0
M  V30 1346 H 133.223 -0.755725 -3.80671 0
M  V30 1347 H 131.324 1.66424 -3.33367 0
M  V30 1348 H 131.437 0.445034 -4.77029 0
M  V30 1349 H 129.801 0.332763 -2.52517 0
M  V30 1350 H 130.584 -1.18676 -3.22135 0
M  V30 1351 N 133.029 1.57378 -0.0835403 0
M  V30 1352 C 134.254 1.98682 0.594987 0
M  V30 1353 C 134.679 0.961969 1.61641 0
M  V30 1354 O 134.037 -0.0709989 1.81161 0
M  V30 1355 C 134.085 3.38988 1.2296 0
M  V30 1356 O 133.189 3.39208 2.34546 0
M  V30 1357 H 132.53 0.646368 0.152002 0
M  V30 1358 H 135.06 2.03961 -0.161533 0
M  V30 1359 H 135.07 3.76431 1.57366 0
M  V30 1360 H 133.745 4.13107 0.481228 0
M  V30 1361 H 132.322 3.13548 2.01846 0
M  V30 1362 N 134.507 -0.190092 1.56449 0
M  V30 1363 C 135.735 -0.925772 1.85033 0
M  V30 1364 C 136.15 -1.76638 0.666658 0
M  V30 1365 O 135.507 -1.78822 -0.364565 0
M  V30 1366 C 135.558 -1.81786 3.12468 0
M  V30 1367 O 135.279 -1.01118 4.26271 0
M  V30 1368 C 136.78 -2.6648 3.54265 0
M  V30 1369 H 134 -0.269872 0.614337 0
M  V30 1370 H 136.544 -0.195837 2.0356 0
M  V30 1371 H 134.699 -2.50136 2.95822 0
M  V30 1372 H 135.113 -1.61956 4.98869 0
M  V30 1373 H 136.587 -3.24722 4.46385 0
M  V30 1374 H 137.064 -3.40434 2.77491 0
M  V30 1375 H 137.67 -2.03493 3.73458 0
M  V30 1376 N 135.985 -1.50799 -0.457987 0
M  V30 1377 C 136.915 -1.73553 -1.5621 0
M  V30 1378 C 137.896 -0.584774 -1.59732 0
M  V30 1379 O 139.081 -0.825314 -1.7579 0
M  V30 1380 C 136.211 -1.84169 -2.94447 0
M  V30 1381 C 135.165 -2.99461 -3.0579 0
M  V30 1382 C 134.491 -2.95235 -4.45803 0
M  V30 1383 C 135.791 -4.39766 -2.81786 0
M  V30 1384 H 137.485 -2.66 -1.37421 0
M  V30 1385 H 135.031 -1.28002 -0.659662 0
M  V30 1386 H 136.984 -1.98672 -3.71628 0
M  V30 1387 H 135.708 -0.883545 -3.14422 0
M  V30 1388 H 134.367 -2.8463 -2.31044 0
M  V30 1389 H 134.015 -1.97239 -4.62715 0
M  V30 1390 H 133.715 -3.72642 -4.54326 0
M  V30 1391 H 135.239 -3.11803 -5.24987 0
M  V30 1392 H 136.653 -4.55054 -3.4871 0
M  V30 1393 H 135.05 -5.18722 -3.0174 0
M  V30 1394 H 136.12 -4.51229 -1.7754 0
M  V30 1395 N 137.463 0.71206 -1.40597 0
M  V30 1396 C 138.426 1.80785 -1.40888 0
M  V30 1397 C 139.426 1.57937 -0.302103 0
M  V30 1398 O 140.616 1.64913 -0.561182 0
M  V30 1399 C 137.748 3.18927 -1.20409 0
M  V30 1400 H 138.941 1.81924 -2.38419 0
M  V30 1401 H 136.494 0.91805 -1.26497 0
M  V30 1402 H 137.229 3.23436 -0.236522 0
M  V30 1403 H 137.014 3.36911 -2.00582 0
M  V30 1404 H 138.504 3.98949 -1.23408 0
M  V30 1405 N 138.941 1.26152 0.944643 0
M  V30 1406 C 140.188 1.11492 1.69044 0
M  V30 1407 C 140.516 -0.342366 1.91463 0
M  V30 1408 O 139.771 -1.26812 1.49054 0
M  V30 1409 C 140.07 1.82541 3.07268 0
M  V30 1410 C 139.736 3.32445 3.04616 0
M  V30 1411 C 138.398 3.73337 3.036 0
M  V30 1412 C 140.75 4.28171 2.97185 0
M  V30 1413 C 138.078 5.08348 2.92915 0
M  V30 1414 C 140.43 5.63218 2.88041 0
M  V30 1415 C 139.094 6.03426 2.85366 0
M  V30 1416 H 138.364 0.407977 0.618576 0
M  V30 1417 H 141.011 1.56551 1.10291 0
M  V30 1418 H 139.316 1.29941 3.69625 0
M  V30 1419 H 141.013 1.68642 3.63815 0
M  V30 1420 H 137.603 2.99915 3.06185 0
M  V30 1421 H 141.787 3.97563 2.97081 0
M  V30 1422 H 137.043 5.38667 2.89219 0
M  V30 1423 H 141.217 6.37078 2.81254 0
M  V30 1424 H 138.844 7.07999 2.76842 0
M  V30 1425 N 140.419 -1.14872 1.07899 0
M  V30 1426 C 141.382 -2.17986 0.708161 0
M  V30 1427 C 142.382 -1.58775 -0.25442 0
M  V30 1428 O 143.572 -1.74166 -0.034645 0
M  V30 1429 C 140.704 -3.40871 0.0446929 0
M  V30 1430 H 141.897 -2.52306 1.62116 0
M  V30 1431 H 139.45 -1.2943 0.876218 0
M  V30 1432 H 140.185 -3.12124 -0.880281 0
M  V30 1433 H 139.97 -3.8511 0.737091 0
M  V30 1434 H 141.46 -4.17121 -0.19991 0
M  V30 1435 N 141.898 -0.863906 -1.31812 0
M  V30 1436 C 142.828 -0.330843 -2.31144 0
M  V30 1437 C 143.809 0.575005 -1.60087 0
M  V30 1438 O 144.994 0.493304 -1.8783 0
M  V30 1439 C 142.124 0.47374 -3.44054 0
M  V30 1440 C 141.078 -0.338481 -4.26659 0
M  V30 1441 C 140.404 0.591412 -5.31419 0
M  V30 1442 C 141.704 -1.56926 -4.98168 0
M  V30 1443 H 143.398 -1.16086 -2.75979 0
M  V30 1444 H 140.944 -0.559657 -1.32679 0
M  V30 1445 H 142.897 0.857143 -4.12591 0
M  V30 1446 H 141.621 1.33721 -2.9797 0
M  V30 1447 H 140.28 -0.703754 -3.59782 0
M  V30 1448 H 139.928 1.45199 -4.81587 0
M  V30 1449 H 139.628 0.0519022 -5.87577 0
M  V30 1450 H 141.152 0.97179 -6.02817 0
M  V30 1451 H 142.566 -1.25764 -5.59336 0
M  V30 1452 H 140.963 -2.04739 -5.64094 0
M  V30 1453 H 142.033 -2.32544 -4.25501 0
M  V30 1454 N 143.376 1.44774 -0.622745 0
M  V30 1455 C 144.339 2.29069 0.0774015 0
M  V30 1456 C 145.339 1.4059 0.780461 0
M  V30 1457 O 146.529 1.62551 0.626322 0
M  V30 1458 C 143.661 3.21974 1.12006 0
M  V30 1459 H 144.854 2.92459 -0.663901 0
M  V30 1460 H 142.407 1.51548 -0.382486 0
M  V30 1461 H 143.142 2.63417 1.89162 0
M  V30 1462 H 142.927 3.87168 0.619951 0
M  V30 1463 H 144.417 3.85318 1.60995 0
M  V30 1464 N 144.854 0.36279 1.53368 0
M  V30 1465 C 146.131 -0.284021 1.93527 0
M  V30 1466 C 146.511 -1.66628 1.29608 0
M  V30 1467 O 145.859 -2.23942 0.45413 0
M  V30 1468 C 146.069 -0.337028 3.47369 0
M  V30 1469 C 147.417 -0.578708 4.20638 0
M  V30 1470 O 148.441 -0.418352 3.53735 0
M  V30 1471 O 147.3 -0.89074 5.39192 0
M  V30 1472 H 144.394 -0.169743 0.809393 0
M  V30 1473 H 146.94 0.41537 1.64538 0
M  V30 1474 H 145.712 0.632217 3.86159 0
M  V30 1475 H 145.335 -1.08243 3.82582 0
M  V30 1476 N 146.332 -1.57332 0.0918853 0
M  V30 1477 C 147.56 -1.98574 -0.581048 0
M  V30 1478 C 147.975 -0.970903 -1.61923 0
M  V30 1479 O 147.332 0.0399054 -1.82456 0
M  V30 1480 C 147.383 -3.39872 -1.23164 0
M  V30 1481 O 147.104 -4.37469 -0.234989 0
M  V30 1482 C 148.605 -3.96099 -1.99049 0
M  V30 1483 H 145.825 -0.65261 -0.156018 0
M  V30 1484 H 148.369 -2.0379 0.170225 0
M  V30 1485 H 146.524 -3.35679 -1.93386 0
M  V30 1486 H 146.938 -5.19751 -0.70418 0
M  V30 1487 H 148.412 -4.97127 -2.39934 0
M  V30 1488 H 148.889 -3.3374 -2.85507 0
M  V30 1489 H 149.495 -4.03755 -1.3365 0
M  V30 1490 N 147.81 0.181792 -1.56548 0
M  V30 1491 C 149.056 0.901431 -1.81665 0
M  V30 1492 C 149.389 1.82347 -0.668075 0
M  V30 1493 O 148.664 1.91669 0.330615 0
M  V30 1494 C 148.947 1.70618 -3.17115 0
M  V30 1495 C 148.8 0.807964 -4.42484 0
M  V30 1496 C 150.119 2.67605 -3.49393 0
M  V30 1497 H 147.238 0.32627 -0.660846 0
M  V30 1498 H 149.88 0.168134 -1.89255 0
M  V30 1499 H 148.03 2.33133 -3.10775 0
M  V30 1500 H 149.702 0.19649 -4.60881 0
M  V30 1501 H 147.945 0.115411 -4.33646 0
M  V30 1502 H 148.616 1.40632 -5.33785 0
M  V30 1503 H 151.092 2.15218 -3.56118 0
M  V30 1504 H 149.968 3.20985 -4.45264 0
M  V30 1505 H 150.229 3.47298 -2.73563 0
M  V30 1506 N 149.288 1.51039 0.449983 0
M  V30 1507 C 150.535 1.63081 1.20045 0
M  V30 1508 C 150.863 0.341024 1.91487 0
M  V30 1509 O 150.118 -0.674276 1.83717 0
M  V30 1510 C 150.417 2.77556 2.25161 0
M  V30 1511 C 150.083 4.17289 1.70823 0
M  V30 1512 C 148.745 4.55305 1.55725 0
M  V30 1513 C 151.097 5.04536 1.3074 0
M  V30 1514 C 148.425 5.78287 0.989999 0
M  V30 1515 C 150.777 6.28085 0.754482 0
M  V30 1516 C 149.441 6.64885 0.590308 0
M  V30 1517 H 148.711 0.596755 0.439277 0
M  V30 1518 H 151.358 1.85037 0.49333 0
M  V30 1519 H 149.663 2.49771 3.01863 0
M  V30 1520 H 151.36 2.84073 2.83026 0
M  V30 1521 H 147.95 3.8731 1.83546 0
M  V30 1522 H 152.134 4.75782 1.41229 0
M  V30 1523 H 147.39 6.05456 0.850451 0
M  V30 1524 H 151.564 6.95038 0.435324 0
M  V30 1525 H 149.191 7.60055 0.14862 0
M  V30 1526 N 150.766 -0.704594 1.40972 0
M  V30 1527 C 151.991 -1.49858 1.43378 0
M  V30 1528 C 152.416 -1.88061 0.038184 0
M  V30 1529 O 151.774 -1.5402 -0.956425 0
M  V30 1530 C 151.822 -2.74333 2.34038 0
M  V30 1531 O 150.926 -3.7147 1.7912 0
M  V30 1532 H 150.267 -0.45139 0.486974 0
M  V30 1533 H 152.797 -0.866832 1.8533 0
M  V30 1534 H 152.807 -3.22741 2.49604 0
M  V30 1535 H 151.482 -2.45863 3.35446 0
M  V30 1536 H 150.059 -3.30363 1.72958 0
M  V30 1537 N 152.244 -1.26651 -0.937939 0
M  V30 1538 C 153.472 -1.15173 -1.7188 0
M  V30 1539 C 153.887 0.292668 -1.86518 0
M  V30 1540 O 153.244 1.20014 -1.37488 0
M  V30 1541 C 153.295 -1.81925 -3.12387 0
M  V30 1542 O 153.016 -3.2072 -2.98446 0
M  V30 1543 C 154.517 -1.76442 -4.06673 0
M  V30 1544 H 151.737 -0.400911 -0.538063 0
M  V30 1545 H 154.281 -1.67332 -1.1756 0
M  V30 1546 H 152.436 -1.33696 -3.63599 0
M  V30 1547 H 152.85 -3.53802 -3.872 0
M  V30 1548 H 154.324 -2.27781 -5.02812 0
M  V30 1549 H 154.801 -0.731608 -4.33064 0
M  V30 1550 H 155.407 -2.24238 -3.61382 0
M  V30 1551 N 153.722 1.14298 -1.08507 0
M  V30 1552 C 154.654 2.1907 -0.673859 0
M  V30 1553 C 155.667 1.60381 0.279577 0
M  V30 1554 O 156.856 1.78374 0.0670754 0
M  V30 1555 C 153.956 3.38888 0.0290979 0
M  V30 1556 C 153.129 4.27103 -0.943494 0
M  V30 1557 C 152.188 5.25477 -0.275676 0
M  V30 1558 O 151.214 5.61709 -0.920401 0
M  V30 1559 N 152.416 5.7227 0.974013 0
M  V30 1560 H 155.181 2.54965 -1.57521 0
M  V30 1561 H 152.742 1.29528 -0.971287 0
M  V30 1562 H 154.734 4.01761 0.48683 0
M  V30 1563 H 153.304 3.01309 0.832555 0
M  V30 1564 H 152.524 3.61149 -1.58004 0
M  V30 1565 H 153.812 4.82905 -1.60251 0
M  V30 1566 H 153.21 5.44965 1.51755 0
M  V30 1567 H 151.767 6.37127 1.37522 0
M  V30 1568 N 155.201 0.870884 1.31352 0
M  V30 1569 C 156.478 0.402907 1.91405 0
M  V30 1570 C 156.858 -1.11512 1.79244 0
M  V30 1571 O 156.206 -1.94411 1.2007 0
M  V30 1572 C 156.416 0.885301 3.37585 0
M  V30 1573 C 157.764 0.911971 4.14691 0
M  V30 1574 O 158.788 0.831016 3.46371 0
M  V30 1575 O 157.647 1.02927 5.3672 0
M  V30 1576 H 154.741 0.120698 0.818145 0
M  V30 1577 H 157.287 0.958857 1.40014 0
M  V30 1578 H 156.059 1.92889 3.40455 0
M  V30 1579 H 155.682 0.307714 3.96407 0
M  V30 1580 N 156.679 -1.44442 0.630414 0
M  V30 1581 C 157.926 -2.02052 0.134617 0
M  V30 1582 C 158.254 -1.49576 -1.24327 0
M  V30 1583 O 157.509 -0.669806 -1.83881 0
M  V30 1584 C 157.808 -3.57332 0.0697835 0
M  V30 1585 C 157.474 -4.29058 1.38635 0
M  V30 1586 C 156.136 -4.4837 1.74694 0
M  V30 1587 C 158.488 -4.69872 2.25543 0
M  V30 1588 C 155.816 -5.05756 2.97369 0
M  V30 1589 C 158.168 -5.28616 3.47487 0
M  V30 1590 C 156.832 -5.46147 3.8377 0
M  V30 1591 H 156.102 -0.739361 0.0492598 0
M  V30 1592 H 158.749 -1.73217 0.816586 0
M  V30 1593 H 157.054 -3.85577 -0.695553 0
M  V30 1594 H 158.751 -3.99637 -0.330344 0
M  V30 1595 H 155.341 -4.14357 1.09574 0
M  V30 1596 H 159.525 -4.54666 1.98979 0
M  V30 1597 H 154.781 -5.17515 3.25558 0
M  V30 1598 H 158.955 -5.59192 4.15063 0
M  V30 1599 H 156.582 -5.9038 4.7891 0
M  V30 1600 N 158.157 -0.370918 -1.53173 0
M  V30 1601 C 159.087 0.464847 -2.28826 0
M  V30 1602 C 160.068 1.07936 -1.31468 0
M  V30 1603 O 161.253 1.0956 -1.60344 0
M  V30 1604 C 158.383 1.60196 -3.08147 0
M  V30 1605 C 157.337 1.11443 -4.13237 0
M  V30 1606 C 156.663 2.3422 -4.80672 0
M  V30 1607 C 157.963 0.195384 -5.21934 0
M  V30 1608 H 159.657 -0.166329 -2.98938 0
M  V30 1609 H 157.203 -0.0814359 -1.4377 0
M  V30 1610 H 159.156 2.19332 -3.59822 0
M  V30 1611 H 157.88 2.26045 -2.35735 0
M  V30 1612 H 156.539 0.545727 -3.62515 0
M  V30 1613 H 156.187 2.98537 -4.04827 0
M  V30 1614 H 155.887 2.02269 -5.51689 0
M  V30 1615 H 157.411 2.94032 -5.35143 0
M  V30 1616 H 158.825 0.694375 -5.69079 0
M  V30 1617 H 157.222 -0.0335027 -6.00091 0
M  V30 1618 H 158.292 -0.760961 -4.78892 0
M  V30 1619 N 159.635 1.57281 -0.100228 0
M  V30 1620 C 160.863 1.98879 0.570509 0
M  V30 1621 C 161.278 0.979476 1.61405 0
M  V30 1622 O 160.635 -0.0302288 1.82475 0
M  V30 1623 C 160.686 3.4052 1.2136 0
M  V30 1624 O 160.407 4.37588 0.211786 0
M  V30 1625 C 161.908 3.97149 1.96945 0
M  V30 1626 H 159.128 0.653428 0.152555 0
M  V30 1627 H 161.672 2.03697 -0.18103 0
M  V30 1628 H 159.827 3.367 1.91603 0
M  V30 1629 H 160.241 5.20118 0.676607 0
M  V30 1630 H 161.715 4.98393 2.37294 0
M  V30 1631 H 162.192 3.3525 2.83733 0
M  V30 1632 H 162.798 4.04458 1.31506 0
M  V30 1633 N 161.113 -0.173488 1.56642 0
M  V30 1634 C 162.043 -1.2171 1.99271 0
M  V30 1635 C 163.024 -1.46289 0.867959 0
M  V30 1636 O 164.209 -1.5766 1.13388 0
M  V30 1637 C 161.339 -2.55651 2.35074 0
M  V30 1638 C 160.293 -2.45645 3.50489 0
M  V30 1639 C 159.619 -3.84056 3.72028 0
M  V30 1640 C 160.919 -1.96302 4.84007 0
M  V30 1641 H 162.613 -0.86275 2.867 0
M  V30 1642 H 160.159 -0.413571 1.37933 0
M  V30 1643 H 162.112 -3.2886 2.63494 0
M  V30 1644 H 160.836 -2.92869 1.44552 0
M  V30 1645 H 159.495 -1.7489 3.22194 0
M  V30 1646 H 159.143 -4.18664 2.788 0
M  V30 1647 H 158.843 -3.7823 4.49684 0
M  V30 1648 H 160.367 -4.58854 4.02846 0
M  V30 1649 H 161.781 -2.59284 5.11317 0
M  V30 1650 H 160.178 -2.01429 5.65284 0
M  V30 1651 H 161.248 -0.917226 4.76146 0
M  V30 1652 N 162.591 -1.51276 -0.441967 0
M  V30 1653 C 163.838 -1.63715 -1.19179 0
M  V30 1654 C 164.166 -0.351175 -1.91303 0
M  V30 1655 O 163.421 0.664524 -1.84072 0
M  V30 1656 C 163.72 -2.78746 -2.23686 0
M  V30 1657 C 163.386 -4.18189 -1.68607 0
M  V30 1658 C 162.048 -4.56125 -1.53308 0
M  V30 1659 C 164.4 -5.05222 -1.28062 0
M  V30 1660 C 161.728 -5.78804 -0.959317 0
M  V30 1661 C 164.08 -6.28476 -0.721162 0
M  V30 1662 C 162.744 -6.65188 -0.55504 0
M  V30 1663 H 162.014 -0.599076 -0.436106 0
M  V30 1664 H 164.661 -1.85296 -0.48351 0
M  V30 1665 H 162.966 -2.51369 -3.00535 0
M  V30 1666 H 164.663 -2.8557 -2.81515 0
M  V30 1667 H 161.253 -3.88277 -1.8149 0
M  V30 1668 H 165.437 -4.76524 -1.38704 0
M  V30 1669 H 160.693 -6.05899 -0.81833 0
M  V30 1670 H 164.867 -6.95259 -0.398458 0
M  V30 1671 H 162.494 -7.60123 -0.108311 0
M  V30 1672 N 164.069 0.697108 -1.41344 0
M  V30 1673 C 165.299 1.48377 -1.43763 0
M  V30 1674 C 165.707 1.89156 -0.0408726 0
M  V30 1675 O 165.05 1.57239 0.949812 0
M  V30 1676 C 165.112 2.7781 -2.2817 0
M  V30 1677 C 164.776 2.59244 -3.76353 0
M  V30 1678 C 165.773 2.25292 -4.68551 0
M  V30 1679 C 163.458 2.74933 -4.20378 0
M  V30 1680 C 165.452 2.07264 -6.02761 0
M  V30 1681 C 163.139 2.56521 -5.54653 0
M  V30 1682 C 164.137 2.22737 -6.4566 0
M  V30 1683 O 163.825 2.04485 -7.77458 0
M  V30 1684 H 163.557 0.463842 -0.491759 0
M  V30 1685 H 166.111 0.865934 -1.86255 0
M  V30 1686 H 164.341 3.41995 -1.8049 0
M  V30 1687 H 166.03 3.39608 -2.22309 0
M  V30 1688 H 166.796 2.12787 -4.35829 0
M  V30 1689 H 162.675 3.00213 -3.49848 0
M  V30 1690 H 166.219 1.80817 -6.73759 0
M  V30 1691 H 162.116 2.68616 -5.86955 0
M  V30 1692 H 162.884 2.1926 -7.88586 0
M  V30 1693 N 165.547 1.27147 0.931209 0
M  V30 1694 C 166.775 1.16082 1.71267 0
M  V30 1695 C 167.19 -0.282772 1.8667 0
M  V30 1696 O 166.547 -1.19283 1.38122 0
M  V30 1697 C 166.598 1.8358 3.11417 0
M  V30 1698 O 166.319 3.22299 2.96741 0
M  V30 1699 C 167.82 1.78597 4.05732 0
M  V30 1700 H 165.04 0.403758 0.535929 0
M  V30 1701 H 167.584 1.67953 1.16671 0
M  V30 1702 H 165.739 1.35623 3.62885 0
M  V30 1703 H 166.153 3.55851 3.85319 0
M  V30 1704 H 167.627 2.30444 5.01597 0
M  V30 1705 H 168.104 0.754564 4.3267 0
M  V30 1706 H 168.71 2.26152 3.60188 0
M  V30 1707 N 167.025 -1.13721 1.09112 0
M  V30 1708 C 167.955 -2.21148 0.749385 0
M  V30 1709 C 168.936 -1.6792 -0.271475 0
M  V30 1710 O 170.121 -1.93693 -0.140251 0
M  V30 1711 C 167.251 -3.46905 0.165659 0
M  V30 1712 C 166.205 -4.13203 1.11567 0
M  V30 1713 C 165.531 -5.33248 0.393809 0
M  V30 1714 C 166.831 -4.60912 2.45678 0
M  V30 1715 H 168.525 -2.4999 1.64758 0
M  V30 1716 H 166.071 -1.20156 0.793626 0
M  V30 1717 H 168.024 -4.21313 -0.085466 0
M  V30 1718 H 166.748 -3.17449 -0.767714 0
M  V30 1719 H 165.407 -3.40758 1.35202 0
M  V30 1720 H 165.055 -5.00054 -0.543599 0
M  V30 1721 H 164.755 -5.78552 1.02721 0
M  V30 1722 H 166.279 -6.10413 0.150908 0
M  V30 1723 H 167.693 -5.26759 2.26269 0
M  V30 1724 H 166.09 -5.16944 3.04776 0
M  V30 1725 H 167.16 -3.75603 3.06677 0
M  V30 1726 N 168.503 -0.877838 -1.30888 0
M  V30 1727 C 169.919 -0.570844 -1.49042 0
M  V30 1728 C 170.119 0.893159 -1.80624 0
M  V30 1729 O 169.175 1.67485 -1.88958 0
M  V30 1730 C 170.488 -1.47784 -2.61878 0
M  V30 1731 C 172.036 -1.48071 -2.75761 0
M  V30 1732 C 172.511 -2.37347 -3.91702 0
M  V30 1733 N 174.002 -2.35271 -3.99001 0
M  V30 1734 C 174.737 -3.01063 -4.88004 0
M  V30 1735 N 174.233 -3.76055 -5.81854 0
M  V30 1736 N 176.026 -2.90332 -4.81315 0
M  V30 1737 H 168.177 -1.82502 -1.0866 0
M  V30 1738 H 170.44 -0.780797 -0.537644 0
M  V30 1739 H 170.146 -2.51993 -2.45341 0
M  V30 1740 H 170.02 -1.18215 -3.58197 0
M  V30 1741 H 172.407 -0.446166 -2.91708 0
M  V30 1742 H 172.488 -1.81668 -1.80085 0
M  V30 1743 H 172.132 -3.40883 -3.76512 0
M  V30 1744 H 172.062 -2.01071 -4.86701 0
M  V30 1745 H 174.553 -1.80768 -3.3186 0
M  V30 1746 H 174.866 -4.23366 -6.46514 0
M  V30 1747 H 173.211 -3.80163 -5.81808 0
M  V30 1748 H 176.402 -2.31278 -4.06974 0
M  V30 1749 H 176.575 -3.41885 -5.50471 0
M  V30 1750 N 169.982 1.44106 -0.638065 0
M  V30 1751 C 171.207 2.0685 -0.150916 0
M  V30 1752 C 171.632 1.47417 1.16833 0
M  V30 1753 O 170.99 0.578264 1.71831 0
M  V30 1754 C 171.038 3.60555 -0.05708 0
M  V30 1755 O 170.142 4.00465 0.984972 0
M  V30 1756 H 169.483 0.658151 -0.0879399 0
M  V30 1757 H 172.013 1.84865 -0.876707 0
M  V30 1758 H 172.023 4.07789 0.131232 0
M  V30 1759 H 170.698 4.03193 -1.02021 0
M  V30 1760 H 169.275 3.64849 0.770672 0
M  V30 1761 N 171.46 0.379036 1.52974 0
M  V30 1762 C 172.69 -0.20649 2.05566 0
M  V30 1763 C 173.098 -1.41906 1.25137 0
M  V30 1764 O 172.441 -1.81421 0.288464 0
M  V30 1765 C 172.503 -0.651086 3.53555 0
M  V30 1766 C 172.167 0.446626 4.54812 0
M  V30 1767 C 173.164 1.30079 5.03364 0
M  V30 1768 C 170.849 0.610719 4.98573 0
M  V30 1769 C 172.843 2.30426 5.94292 0
M  V30 1770 C 170.53 1.61754 5.89304 0
M  V30 1771 C 171.528 2.46274 6.37054 0
M  V30 1772 O 171.216 3.45237 7.25994 0
M  V30 1773 H 170.948 -0.0372381 0.674974 0
M  V30 1774 H 173.502 0.539718 1.98182 0
M  V30 1775 H 171.732 -1.44911 3.58522 0
M  V30 1776 H 173.421 -1.16112 3.88938 0
M  V30 1777 H 174.187 1.18527 4.70294 0
M  V30 1778 H 170.066 -0.0374044 4.60985 0
M  V30 1779 H 173.61 2.96432 6.31485 0
M  V30 1780 H 169.507 1.73348 6.21788 0
M  V30 1781 H 170.275 3.41124 7.44027 0
M  V30 1782 N 172.938 -1.57226 0.108567 0
M  V30 1783 C 173.901 -2.13602 -0.831082 0
M  V30 1784 C 174.901 -1.06841 -1.20173 0
M  V30 1785 O 176.091 -1.32666 -1.12895 0
M  V30 1786 C 173.223 -2.66769 -2.12243 0
M  V30 1787 H 174.416 -2.97951 -0.341317 0
M  V30 1788 H 171.969 -1.55667 -0.14057 0
M  V30 1789 H 172.704 -1.85977 -2.65675 0
M  V30 1790 H 172.489 -3.44839 -1.86625 0
M  V30 1791 H 173.979 -3.10332 -2.79435 0
M  V30 1792 N 174.416 0.165178 -1.56732 0
M  V30 1793 C 175.832 0.517174 -1.50988 0
M  V30 1794 C 176.032 1.84331 -0.813894 0
M  V30 1795 O 175.088 2.49672 -0.37682 0
M  V30 1796 C 176.401 0.544261 -2.95733 0
M  V30 1797 C 177.949 0.631039 -3.06573 0
M  V30 1798 C 178.424 0.68896 -4.52788 0
M  V30 1799 N 179.915 0.751683 -4.5706 0
M  V30 1800 C 180.65 0.817177 -5.67547 0
M  V30 1801 N 180.146 0.843129 -6.8765 0
M  V30 1802 N 181.939 0.856668 -5.55534 0
M  V30 1803 H 174.09 -0.704318 -2.00382 0
M  V30 1804 H 176.353 -0.254687 -0.913148 0
M  V30 1805 H 176.059 -0.361607 -3.49836 0
M  V30 1806 H 175.933 1.3886 -3.5071 0
M  V30 1807 H 178.32 1.52733 -2.52501 0
M  V30 1808 H 178.401 -0.240095 -2.54671 0
M  V30 1809 H 178.045 -0.2031 -5.07494 0
M  V30 1810 H 177.975 1.57633 -5.02454 0
M  V30 1811 H 180.466 0.739661 -3.70591 0
M  V30 1812 H 180.779 0.894448 -7.67606 0
M  V30 1813 H 179.124 0.811304 -6.90248 0
M  V30 1814 H 182.315 0.833437 -4.60621 0
M  V30 1815 H 182.488 0.904247 -6.4166 0
M  V30 1816 N 175.894 1.51508 0.433938 0
M  V30 1817 C 177.142 1.6402 1.18075 0
M  V30 1818 C 177.463 0.360328 1.91642 0
M  V30 1819 O 176.733 -0.623945 1.85698 0
M  V30 1820 H 175.313 0.6045 0.43885 0
M  V30 1821 H 177.975 1.88452 0.497178 0
M  V30 1822 H 177.071 2.46949 1.90847 0
M  V30 1823 N 177.372 -0.689602 1.41712 0
M  V30 1824 C 178.302 -1.81577 1.46806 0
M  V30 1825 C 179.283 -1.66945 0.326105 0
M  V30 1826 O 180.468 -1.86588 0.538377 0
M  V30 1827 C 177.598 -3.19762 1.35535 0
M  V30 1828 C 176.552 -3.49107 2.47605 0
M  V30 1829 C 175.878 -4.86711 2.21397 0
M  V30 1830 C 177.178 -3.47483 3.89939 0
M  V30 1831 H 178.872 -1.7757 2.41058 0
M  V30 1832 H 176.418 -0.852887 1.16025 0
M  V30 1833 H 178.371 -3.98263 1.3771 0
M  V30 1834 H 177.095 -3.24409 0.377708 0
M  V30 1835 H 175.754 -2.72959 2.44722 0
M  V30 1836 H 175.402 -4.8799 1.21961 0
M  V30 1837 H 175.102 -5.0731 2.96497 0
M  V30 1838 H 176.626 -5.67515 2.25297 0
M  V30 1839 H 178.04 -4.1598 3.94505 0
M  V30 1840 H 176.437 -3.79615 4.64771 0
M  V30 1841 H 177.507 -2.46341 4.17665 0
M  V30 1842 N 178.85 -1.27639 -0.924453 0
M  V30 1843 C 180.266 -1.05113 -1.20097 0
M  V30 1844 C 180.466 0.213262 -2.00368 0
M  V30 1845 O 179.522 0.91787 -2.35226 0
M  V30 1846 C 180.835 -2.29244 -1.94596 0
M  V30 1847 C 182.383 -2.34315 -2.07522 0
M  V30 1848 C 182.858 -3.58183 -2.85427 0
M  V30 1849 N 184.349 -3.5876 -2.92994 0
M  V30 1850 C 185.084 -4.51277 -3.53746 0
M  V30 1851 N 184.58 -5.54102 -4.15863 0
M  V30 1852 N 186.373 -4.38894 -3.51181 0
M  V30 1853 H 178.524 -2.08821 -0.388264 0
M  V30 1854 H 180.787 -0.918568 -0.234385 0
M  V30 1855 H 180.493 -3.21301 -1.43034 0
M  V30 1856 H 180.367 -2.34816 -2.95197 0
M  V30 1857 H 182.754 -1.42762 -2.58269 0
M  V30 1858 H 182.835 -2.32744 -1.06131 0
M  V30 1859 H 182.479 -4.50074 -2.35363 0
M  V30 1860 H 182.409 -3.57006 -3.8711 0
M  V30 1861 H 184.9 -2.84398 -2.4885 0
M  V30 1862 H 185.213 -6.20859 -4.60168 0
M  V30 1863 H 183.558 -5.57941 -4.144 0
M  V30 1864 H 186.749 -3.57772 -3.01856 0
M  V30 1865 H 186.922 -5.11186 -3.98237 0
M  V30 1866 N 180.328 1.1314 -1.09713 0
M  V30 1867 C 181.258 2.20748 -0.761102 0
M  V30 1868 C 182.239 1.68061 0.262566 0
M  V30 1869 O 183.424 1.93765 0.129977 0
M  V30 1870 C 180.554 3.46812 -0.184054 0
M  V30 1871 C 179.508 4.12606 -1.13757 0
M  V30 1872 C 178.834 5.33031 -0.422083 0
M  V30 1873 C 180.134 4.59603 -2.48118 0
M  V30 1874 H 181.828 2.49113 -1.66082 0
M  V30 1875 H 179.374 1.19734 -0.799987 0
M  V30 1876 H 181.327 4.21353 0.0631215 0
M  V30 1877 H 180.051 3.17851 0.750868 0
M  V30 1878 H 178.71 3.40036 -1.37007 0
M  V30 1879 H 178.358 5.00335 0.517072 0
M  V30 1880 H 178.058 5.77999 -1.05788 0
M  V30 1881 H 179.582 6.10325 -0.183277 0
M  V30 1882 H 180.996 5.25552 -2.29059 0
M  V30 1883 H 179.393 5.15321 -3.07514 0
M  V30 1884 H 180.463 3.73971 -3.08665 0
M  V30 1885 N 181.806 0.884767 1.30421 0
M  V30 1886 C 182.716 0.355398 2.31892 0
M  V30 1887 C 183.732 -0.542261 1.65335 0
M  V30 1888 O 184.908 -0.435432 1.96637 0
M  V30 1889 C 181.973 -0.421661 3.44126 0
M  V30 1890 C 181.034 0.505727 4.26311 0
M  V30 1891 C 180.267 -0.234343 5.33185 0
M  V30 1892 O 180.49 -1.46045 5.51386 0
M  V30 1893 O 179.424 0.415443 6.00465 0
M  V30 1894 H 183.25 1.19685 2.79122 0
M  V30 1895 H 180.835 0.648596 1.34587 0
M  V30 1896 H 182.717 -0.861641 4.12497 0
M  V30 1897 H 181.392 -1.23942 2.99032 0
M  V30 1898 H 180.299 0.994513 3.60639 0
M  V30 1899 H 181.632 1.28948 4.75009 0
M  V30 1900 N 183.284 -1.43765 0.645699 0
M  V30 1901 C 184.214 -2.33471 -0.0370477 0
M  V30 1902 C 185.195 -1.49042 -0.819779 0
M  V30 1903 O 186.38 -1.77726 -0.782758 0
M  V30 1904 C 183.51 -3.32311 -1.0093 0
M  V30 1905 C 182.464 -4.2667 -0.337201 0
M  V30 1906 C 181.79 -5.1549 -1.42037 0
M  V30 1907 C 183.09 -5.16657 0.765706 0
M  V30 1908 H 184.784 -2.90809 0.712069 0
M  V30 1909 H 182.33 -1.39834 0.343876 0
M  V30 1910 H 184.283 -3.9396 -1.49578 0
M  V30 1911 H 183.007 -2.73213 -1.78948 0
M  V30 1912 H 181.666 -3.66374 0.128771 0
M  V30 1913 H 181.314 -4.52735 -2.1918 0
M  V30 1914 H 181.014 -5.79438 -0.975966 0
M  V30 1915 H 182.538 -5.80012 -1.90838 0
M  V30 1916 H 183.952 -5.72158 0.361702 0
M  V30 1917 H 182.349 -5.89286 1.13413 0
M  V30 1918 H 183.419 -4.56796 1.62683 0
M  V30 1919 N 184.763 -0.387143 -1.52771 0
M  V30 1920 C 185.991 0.195869 -2.05971 0
M  V30 1921 C 186.406 1.40691 -1.25903 0
M  V30 1922 O 185.763 1.79931 -0.305134 0
M  V30 1923 C 185.814 0.56812 -3.57008 0
M  V30 1924 O 185.535 -0.594803 -4.34043 0
M  V30 1925 C 187.036 1.20723 -4.26545 0
M  V30 1926 H 184.256 0.0300578 -0.670326 0
M  V30 1927 H 186.8 -0.551749 -1.96916 0
M  V30 1928 H 184.955 1.26564 -3.66143 0
M  V30 1929 H 185.369 -0.289322 -5.23701 0
M  V30 1930 H 186.843 1.41807 -5.33474 0
M  V30 1931 H 187.32 2.17395 -3.81623 0
M  V30 1932 H 187.926 0.550535 -4.21722 0
M  V30 1933 N 186.241 1.57166 -0.116904 0
M  V30 1934 C 187.469 1.99473 0.549383 0
M  V30 1935 C 187.884 0.996541 1.60357 0
M  V30 1936 O 187.241 -0.0108731 1.82497 0
M  V30 1937 C 187.292 3.41788 1.17741 0
M  V30 1938 O 187.013 4.37788 0.165362 0
M  V30 1939 C 188.514 3.99216 1.92722 0
M  V30 1940 H 185.734 0.655009 0.145616 0
M  V30 1941 H 188.278 2.03494 -0.202625 0
M  V30 1942 H 186.433 3.38713 1.88021 0
M  V30 1943 H 186.847 5.20806 0.621403 0
M  V30 1944 H 188.321 5.00882 2.31995 0
M  V30 1945 H 188.798 3.3824 2.80161 0
M  V30 1946 H 189.404 4.0583 1.27209 0
M  V30 1947 N 187.719 -0.156864 1.56817 0
M  V30 1948 C 188.949 -0.885031 1.86684 0
M  V30 1949 C 189.357 -1.75696 0.701954 0
M  V30 1950 O 188.7 -1.80569 -0.337732 0
M  V30 1951 C 188.762 -1.80092 3.11138 0
M  V30 1952 C 188.426 -1.10714 4.43386 0
M  V30 1953 C 189.423 -0.465714 5.1781 0
M  V30 1954 C 187.108 -1.09959 4.90117 0
M  V30 1955 C 189.102 0.174002 6.37162 0
M  V30 1956 C 186.789 -0.456055 6.09396 0
M  V30 1957 C 187.787 0.179622 6.82764 0
M  V30 1958 O 187.475 0.812975 7.99779 0
M  V30 1959 H 187.207 -0.261813 0.623242 0
M  V30 1960 H 189.761 -0.157383 2.04796 0
M  V30 1961 H 187.991 -2.56926 2.89009 0
M  V30 1962 H 189.68 -2.40018 3.27332 0
M  V30 1963 H 190.446 -0.463427 4.82781 0
M  V30 1964 H 186.325 -1.58378 4.3294 0
M  V30 1965 H 189.869 0.670765 6.94368 0
M  V30 1966 H 185.766 -0.455975 6.43888 0
M  V30 1967 H 186.534 0.71366 8.15383 0
M  V30 1968 N 189.197 -1.51736 -0.425897 0
M  V30 1969 C 190.127 -1.76827 -1.52494 0
M  V30 1970 C 191.108 -0.618524 -1.58456 0
M  V30 1971 O 192.293 -0.862416 -1.74 0
M  V30 1972 C 189.423 -1.90374 -2.90474 0
M  V30 1973 C 188.377 -3.0588 -2.99369 0
M  V30 1974 C 187.703 -3.04625 -4.3944 0
M  V30 1975 C 189.003 -4.45644 -2.72394 0
M  V30 1976 H 190.697 -2.68855 -1.31748 0
M  V30 1977 H 188.243 -1.29372 -0.632362 0
M  V30 1978 H 190.196 -2.0651 -3.6733 0
M  V30 1979 H 188.92 -0.95004 -3.12477 0
M  V30 1980 H 187.579 -2.89467 -2.24954 0
M  V30 1981 H 187.227 -2.0701 -4.58428 0
M  V30 1982 H 186.927 -3.82195 -4.46319 0
M  V30 1983 H 188.451 -3.22869 -5.18255 0
M  V30 1984 H 189.865 -4.62348 -3.38979 0
M  V30 1985 H 188.262 -5.25006 -2.9067 0
M  V30 1986 H 189.332 -4.54893 -1.67929 0
M  V30 1987 N 190.675 0.682077 -1.42076 0
M  V30 1988 C 191.922 1.44215 -1.42156 0
M  V30 1989 C 192.25 1.94468 -0.0354186 0
M  V30 1990 O 191.505 1.70816 0.955002 0
M  V30 1991 C 191.804 2.66036 -2.38662 0
M  V30 1992 C 191.47 2.34366 -3.85206 0
M  V30 1993 C 190.132 2.25439 -4.25124 0
M  V30 1994 C 192.484 2.08513 -4.77673 0
M  V30 1995 C 189.812 1.88775 -5.55501 0
M  V30 1996 C 192.164 1.73354 -6.08384 0
M  V30 1997 C 190.828 1.62933 -6.47309 0
M  V30 1998 H 190.098 0.527718 -0.520187 0
M  V30 1999 H 192.745 0.778387 -1.74967 0
M  V30 2000 H 191.05 3.3741 -1.99152 0
M  V30 2001 H 192.747 3.24205 -2.35991 0
M  V30 2002 H 189.337 2.42213 -3.53597 0
M  V30 2003 H 193.521 2.14346 -4.47626 0
M  V30 2004 H 188.777 1.7927 -5.84527 0
M  V30 2005 H 192.951 1.52373 -6.79526 0
M  V30 2006 H 190.578 1.34292 -7.48244 0
M  V30 2007 N 192.153 1.28127 0.917671 0
M  V30 2008 C 193.401 1.14825 1.66312 0
M  V30 2009 C 193.722 -0.304379 1.9261 0
M  V30 2010 O 192.992 -1.21149 1.53947 0
M  V30 2011 H 191.572 0.421953 0.616413 0
M  V30 2012 H 194.234 1.608 1.10134 0
M  V30 2013 H 193.33 1.68489 2.62712 0
M  V30 2014 N 193.631 -1.12557 1.10312 0
M  V30 2015 C 194.563 -2.17971 0.708625 0
M  V30 2016 C 195.576 -1.60806 -0.254027 0
M  V30 2017 O 196.765 -1.78458 -0.0386891 0
M  V30 2018 C 193.865 -3.38891 0.0248198 0
M  V30 2019 C 193.038 -4.25548 1.01132 0
M  V30 2020 C 192.097 -5.24972 0.35924 0
M  V30 2021 O 191.123 -5.60174 1.00965 0
M  V30 2022 N 192.325 -5.73747 -0.882847 0
M  V30 2023 H 195.09 -2.52427 1.61557 0
M  V30 2024 H 192.651 -1.27967 0.991771 0
M  V30 2025 H 194.643 -4.02485 -0.422852 0
M  V30 2026 H 193.213 -3.02596 -0.784514 0
M  V30 2027 H 192.433 -3.58589 1.6373 0
M  V30 2028 H 193.721 -4.80294 1.67914 0
M  V30 2029 H 193.119 -5.4731 -1.43065 0
M  V30 2030 H 191.676 -6.39234 -1.27369 0
M  V30 2031 N 195.109 -0.891671 -1.2995 0
M  V30 2032 C 196.386 -0.433307 -1.9074 0
M  V30 2033 C 196.766 1.08646 -1.80995 0
M  V30 2034 O 196.114 1.92476 -1.23147 0
M  V30 2035 C 196.324 -0.938895 -3.36134 0
M  V30 2036 C 197.672 -0.977829 -4.13187 0
M  V30 2037 O 198.696 -0.886015 -3.45005 0
M  V30 2038 O 197.555 -1.11453 -5.35015 0
M  V30 2039 H 194.649 -0.133699 -0.816121 0
M  V30 2040 H 197.195 -0.981011 -1.38471 0
M  V30 2041 H 195.967 -1.98281 -3.37343 0
M  V30 2042 H 195.59 -0.37074 -3.95868 0
M  V30 2043 N 196.587 1.43421 -0.653314 0
M  V30 2044 C 197.998 1.85065 -0.246537 0
M  V30 2045 C 198.349 1.54688 1.2069 0
M  V30 2046 O 197.474 0.995896 1.92122 0
M  V30 2047 C 198.069 3.35922 -0.440666 0
M  V30 2048 C 196.628 3.76297 -0.0882064 0
M  V30 2049 C 195.775 2.67147 -0.743484 0
M  V30 2050 H 198.726 1.33572 -0.856979 0
M  V30 2051 H 198.747 3.79204 0.313798 0
M  V30 2052 H 198.259 3.58 -1.49858 0
M  V30 2053 H 196.36 3.5983 0.96711 0
M  V30 2054 H 196.473 4.76338 -0.513738 0
M  V30 2055 H 194.837 2.54086 -0.176712 0
M  V30 2056 H 195.62 2.92053 -1.80443 0
M  V30 2057 O 198.104 0.537413 1.52296 0
M  V30 2058 H 198.795 0.0295046 1.93678 0
M  V30 END ATOM
M  V30 BEGIN BOND
M  V30 END BOND
M  V30 END CTAB
M  END
$$$$
