drugbank_target|Q5T601 Adhesion G-protein coupled receptor F1 (DB05255)
 OpenBabel12092120143D

  0  0  0     0  0            999 V3000
M  V30 BEGIN CTAB
M  V30 COUNTS 14395 14558 0 0 0
M  V30 BEGIN ATOM
M  V30 1 H -0.908 1.98254 -0.117106 0
M  V30 2 N 0 1.576 0 0
M  V30 3 C 0.933 2.03868 1.02534 0
M  V30 4 C 1.911 0.928543 1.3348 0
M  V30 5 O 3.095 1.19667 1.45644 0
M  V30 6 C 0.222 2.43627 2.35294 0
M  V30 7 C -0.732 3.65373 2.2001 0
M  V30 8 S 0.101 5.13292 1.52614 0
M  V30 9 C 1.257 5.56322 2.86805 0
M  V30 10 H 1.49 2.90518 0.631377 0
M  V30 11 H -0.977 1.52953 0.210867 0
M  V30 12 H 0.981 2.67203 3.11629 0
M  V30 13 H -0.358 1.57376 2.7183 0
M  V30 14 H -1.165 3.90944 3.18086 0
M  V30 15 H -1.563 3.418 1.51819 0
M  V30 16 H 0.729 5.58782 3.83104 0
M  V30 17 H 1.672 6.56266 2.65933 0
M  V30 18 H 2.08 4.83886 2.90714 0
M  V30 19 N 1.4781 -0.272755 1.55222 0
M  V30 20 C 2.4251 -1.33716 1.88119 0
M  V30 21 C 3.3951 -1.49066 0.73271 0
M  V30 22 O 4.5801 -1.63469 0.984002 0
M  V30 23 C 1.7201 -2.69238 2.15882 0
M  V30 24 C 0.8331 -2.62108 3.43399 0
M  V30 25 C -0.0319 -3.89811 3.60861 0
M  V30 26 C -0.9929 -3.77193 4.8207 0
M  V30 27 N -1.8559 -4.9673 4.96189 0
M  V30 28 H 2.9841 -1.04962 2.78903 0
M  V30 29 H 0.5211 -0.507088 1.38083 0
M  V30 30 H 2.4791 -3.48089 2.29978 0
M  V30 31 H 1.1091 -2.96194 1.28331 0
M  V30 32 H 0.1611 -1.74967 3.37773 0
M  V30 33 H 1.4731 -2.48685 4.32386 0
M  V30 34 H 0.6271 -4.77103 3.74777 0
M  V30 35 H -0.6339 -4.06102 2.7006 0
M  V30 36 H -1.6289 -2.88284 4.68159 0
M  V30 37 H -0.4039 -3.62421 5.74307 0
M  V30 38 H -2.4579 -5.13431 4.08319 0
M  V30 39 H -2.5409 -4.85839 5.79221 0
M  V30 40 H -1.2729 -5.85594 5.1449 0
M  V30 41 N 2.9562 -1.48159 -0.537278 0
M  V30 42 C 4.2022 -1.56035 -1.29541 0
M  V30 43 C 4.5352 -0.230377 -1.92829 0
M  V30 44 O 3.8102 0.762952 -1.78911 0
M  V30 45 C 4.0932 -2.69323 -2.39034 0
M  V30 46 C 3.9462 -4.12002 -1.80485 0
M  V30 47 C 5.2652 -2.78408 -3.40847 0
M  V30 48 H 2.3842 -0.567992 -0.469632 0
M  V30 49 H 5.0262 -1.80302 -0.599277 0
M  V30 50 H 3.1762 -2.48763 -2.98412 0
M  V30 51 H 4.8482 -4.43981 -1.25215 0
M  V30 52 H 3.0912 -4.19344 -1.11055 0
M  V30 53 H 3.7622 -4.87077 -2.59731 0
M  V30 54 H 6.2382 -2.97012 -2.91416 0
M  V30 55 H 5.1142 -3.59416 -4.14863 0
M  V30 56 H 5.3752 -1.86269 -4.00944 0
M  V30 57 N 4.4343 0.785586 -1.36625 0
M  V30 58 C 5.6823 1.54057 -1.30808 0
M  V30 59 C 6.0033 1.94683 0.111157 0
M  V30 60 O 5.2733 1.65241 1.05224 0
M  V30 61 H 3.8533 0.571354 -0.481211 0
M  V30 62 H 6.5153 0.935821 -1.70963 0
M  V30 63 H 5.6113 2.44637 -1.93801 0
M  V30 64 N 5.9124 1.20967 1.01018 0
M  V30 65 C 7.1584 1.02526 1.74975 0
M  V30 66 C 7.4914 -0.4408 1.89131 0
M  V30 67 O 6.7664 -1.32718 1.42184 0
M  V30 68 C 7.0494 1.71699 3.1653 0
M  V30 69 C 6.9024 3.25791 3.10129 0
M  V30 70 C 8.2214 1.45531 4.15342 0
M  V30 71 H 5.3404 0.373863 0.635134 0
M  V30 72 H 7.9824 1.49071 1.17805 0
M  V30 73 H 6.1324 1.32128 3.65341 0
M  V30 74 H 7.8044 3.74697 2.69072 0
M  V30 75 H 6.0474 3.56363 2.47362 0
M  V30 76 H 6.7184 3.69353 4.10222 0
M  V30 77 H 9.1944 1.79872 3.75213 0
M  V30 78 H 8.0704 1.96453 5.1254 0
M  V30 79 H 8.3314 0.384237 4.40427 0
M  V30 80 N 7.3905 -1.2043 1.01659 0
M  V30 81 C 8.3205 -2.25466 0.607226 0
M  V30 82 C 9.3015 -1.65853 -0.377716 0
M  V30 83 O 10.4865 -1.92409 -0.263149 0
M  V30 84 C 7.6165 -3.47256 -0.0552949 0
M  V30 85 C 6.5705 -4.19462 0.850632 0
M  V30 86 C 5.8965 -5.34673 0.0538859 0
M  V30 87 C 7.1965 -4.75603 2.15868 0
M  V30 88 H 8.8905 -2.59962 1.48526 0
M  V30 89 H 6.4365 -1.2496 0.715605 0
M  V30 90 H 8.3895 -4.19917 -0.353233 0
M  V30 91 H 7.1135 -3.11924 -0.968045 0
M  V30 92 H 5.7725 -3.48667 1.13257 0
M  V30 93 H 5.4205 -4.95585 -0.860514 0
M  V30 94 H 5.1205 -5.83913 0.657192 0
M  V30 95 H 6.6445 -6.10138 -0.237598 0
M  V30 96 H 8.0585 -5.40083 1.92311 0
M  V30 97 H 6.4555 -5.3528 2.71284 0
M  V30 98 H 7.5255 -3.94346 2.82169 0
M  V30 99 N 8.8686 -0.792821 -1.36206 0
M  V30 100 C 10.1146 -0.376415 -1.99887 0
M  V30 101 C 10.4696 1.04127 -1.61788 0
M  V30 102 O 9.7626 1.71004 -0.864193 0
M  V30 103 C 9.9566 -0.481501 -3.54142 0
M  V30 104 C 9.7856 -1.90786 -4.07223 0
M  V30 105 C 8.5556 -2.53322 -4.37214 0
M  V30 106 C 10.7536 -2.87048 -4.26741 0
M  V30 107 N 8.7356 -3.8751 -4.7614 0
M  V30 108 C 10.1066 -4.06077 -4.6851 0
M  V30 109 C 12.1616 -2.8406 -4.08918 0
M  V30 110 C 10.8646 -5.22532 -4.94321 0
M  V30 111 C 12.8906 -3.99705 -4.35878 0
M  V30 112 C 12.2526 -5.1748 -4.77906 0
M  V30 113 H 8.3516 -0.185226 -0.759747 0
M  V30 114 H 10.9356 -1.03114 -1.65153 0
M  V30 115 H 9.1066 0.143154 -3.88136 0
M  V30 116 H 10.8386 -0.0410128 -4.04679 0
M  V30 117 H 7.5936 -2.04777 -4.2704 0
M  V30 118 H 8.0176 -4.5656 -4.99882 0
M  V30 119 H 12.6596 -1.94165 -3.75579 0
M  V30 120 H 10.3776 -6.1301 -5.2654 0
M  V30 121 H 13.9636 -3.98758 -4.23655 0
M  V30 122 H 12.8436 -6.05478 -4.98363 0
M  V30 123 N 10.3467 1.47872 -0.545128 0
M  V30 124 C 11.2767 2.32661 0.197793 0
M  V30 125 C 12.2577 1.43041 0.920504 0
M  V30 126 O 13.4427 1.71912 0.90333 0
M  V30 127 C 10.5727 3.24569 1.23582 0
M  V30 128 C 9.5267 4.23333 0.630323 0
M  V30 129 C 8.8527 5.0448 1.77211 0
M  V30 130 C 10.1527 5.20704 -0.407974 0
M  V30 131 H 11.8467 2.95024 -0.510045 0
M  V30 132 H 9.3927 1.4187 -0.246731 0
M  V30 133 H 11.3457 3.8272 1.76362 0
M  V30 134 H 10.0697 2.60236 1.97344 0
M  V30 135 H 8.7287 3.6639 0.123922 0
M  V30 136 H 8.3767 4.36561 2.49847 0
M  V30 137 H 8.0767 5.71339 1.37281 0
M  V30 138 H 9.6007 5.65487 2.3034 0
M  V30 139 H 11.0147 5.7329 0.033305 0
M  V30 140 H 9.4117 5.95699 -0.725486 0
M  V30 141 H 10.4817 4.66917 -1.30828 0
M  V30 142 N 11.8248 0.280983 1.55075 0
M  V30 143 C 13.0738 -0.334784 1.98902 0
M  V30 144 C 13.3868 -1.56534 1.17288 0
M  V30 145 O 14.5928 -2.25443 1.51287 0
M  V30 146 C 13.0488 -0.646994 3.54037 0
M  V30 147 C 12.6568 0.564085 4.44435 0
M  V30 148 C 14.4008 -1.22506 4.06439 0
M  V30 149 C 12.3078 0.226137 5.90967 0
M  V30 150 H 11.2378 -0.128866 0.742906 0
M  V30 151 H 13.8888 0.386556 1.79382 0
M  V30 152 H 12.2708 -1.42739 3.6938 0
M  V30 153 H 13.4448 1.34082 4.40861 0
M  V30 154 H 11.7598 1.0594 4.02698 0
M  V30 155 H 14.3568 -1.49182 5.13468 0
M  V30 156 H 14.6998 -2.16085 3.55827 0
M  V30 157 H 15.2328 -0.50682 3.94558 0
M  V30 158 H 11.9718 1.12996 6.45687 0
M  V30 159 H 11.4918 -0.513717 5.97596 0
M  V30 160 H 13.1708 -0.179539 6.46751 0
M  V30 161 N 13.3029 -1.57598 0.00835791 0
M  V30 162 C 14.5279 -1.95617 -0.689103 0
M  V30 163 C 14.9529 -0.883753 -1.66046 0
M  V30 164 O 14.3109 0.157352 -1.80616 0
M  V30 165 C 14.3589 -3.32736 -1.38994 0
M  V30 166 O 13.4629 -3.27631 -2.50463 0
M  V30 167 H 12.8039 -0.638379 -0.182668 0
M  V30 168 H 15.3339 -2.045 0.064036 0
M  V30 169 H 15.3439 -3.68494 -1.75147 0
M  V30 170 H 14.0189 -4.1034 -0.677778 0
M  V30 171 H 12.5959 -3.03561 -2.16576 0
M  V30 172 N 14.781 0.264519 -1.55364 0
M  V30 173 C 16.028 0.994986 -1.7637 0
M  V30 174 C 16.356 1.85976 -0.5695 0
M  V30 175 O 15.611 1.90509 0.44776 0
M  V30 176 C 15.91 1.9004 -3.02687 0
M  V30 177 C 15.576 1.19243 -4.34847 0
M  V30 178 C 14.238 0.996709 -4.70764 0
M  V30 179 C 16.59 0.689296 -5.16622 0
M  V30 180 C 13.918 0.285261 -5.86006 0
M  V30 181 C 16.27 -0.00860079 -6.32599 0
M  V30 182 C 14.934 -0.215963 -6.67151 0
M  V30 183 H 14.204 0.364091 -0.645383 0
M  V30 184 H 16.851 0.266543 -1.89636 0
M  V30 185 H 15.156 2.69533 -2.84357 0
M  V30 186 H 16.853 2.46695 -3.16137 0
M  V30 187 H 13.443 1.3549 -4.06621 0
M  V30 188 H 17.627 0.828108 -4.89342 0
M  V30 189 H 12.883 0.113961 -6.11294 0
M  V30 190 H 17.057 -0.406186 -6.95214 0
M  V30 191 H 14.684 -0.769217 -7.56298 0
M  V30 192 N 16.2591 1.48442 0.529413 0
M  V30 193 C 17.5061 1.56488 1.28521 0
M  V30 194 C 17.8341 0.239042 1.93025 0
M  V30 195 O 17.0891 -0.770713 1.79885 0
M  V30 196 C 17.3881 2.6523 2.39558 0
M  V30 197 C 17.0541 4.07648 1.92702 0
M  V30 198 C 15.7161 4.46411 1.79641 0
M  V30 199 C 18.0681 4.96896 1.573 0
M  V30 200 C 15.3961 5.72226 1.29514 0
M  V30 201 C 17.7481 6.23202 1.08636 0
M  V30 202 C 16.4121 6.60821 0.941919 0
M  V30 203 H 15.6821 0.572631 0.470292 0
M  V30 204 H 18.3291 1.82161 0.59072 0
M  V30 205 H 16.6341 2.33419 3.14679 0
M  V30 206 H 18.3311 2.68671 2.97686 0
M  V30 207 H 14.9211 3.77036 2.03819 0
M  V30 208 H 19.1051 4.67626 1.66251 0
M  V30 209 H 14.3611 6.00097 1.17019 0
M  V30 210 H 18.5351 6.91753 0.803136 0
M  V30 211 H 16.1621 7.58198 0.5513 0
M  V30 212 N 17.7372 -0.778329 1.37039 0
M  V30 213 C 18.9652 -1.56734 1.35063 0
M  V30 214 C 19.3802 -1.88686 -0.0655597 0
M  V30 215 O 18.7372 -1.5096 -1.02554 0
M  V30 216 C 18.7882 -2.88163 2.18276 0
M  V30 217 O 18.5092 -2.57583 3.54376 0
M  V30 218 C 20.0102 -3.82422 2.24206 0
M  V30 219 H 17.2302 -0.485778 0.462883 0
M  V30 220 H 19.7742 -0.965185 1.8029 0
M  V30 221 H 17.9292 -3.44818 1.76576 0
M  V30 222 H 18.3432 -3.41699 3.97922 0
M  V30 223 H 19.8172 -4.71667 2.86765 0
M  V30 224 H 20.2942 -4.21078 1.24861 0
M  V30 225 H 20.9002 -3.31697 2.6619 0
M  V30 226 N 19.2153 -1.21501 -1.00376 0
M  V30 227 C 20.4623 -1.03299 -1.74171 0
M  V30 228 C 20.7903 0.433326 -1.89612 0
M  V30 229 O 20.0453 1.33779 -1.42834 0
M  V30 230 C 20.3443 -1.67673 -3.15627 0
M  V30 231 C 20.0103 -3.17533 -3.2013 0
M  V30 232 C 18.6723 -3.58427 -3.21067 0
M  V30 233 C 21.0243 -4.13504 -3.17275 0
M  V30 234 C 18.3523 -4.93794 -3.16835 0
M  V30 235 C 20.7043 -5.48834 -3.14585 0
M  V30 236 C 19.3683 -5.89123 -3.13831 0
M  V30 237 H 18.6383 -0.377999 -0.637336 0
M  V30 238 H 21.2853 -1.51111 -1.17634 0
M  V30 239 H 19.5903 -1.12158 -3.75404 0
M  V30 240 H 21.2873 -1.51091 -3.71446 0
M  V30 241 H 17.8773 -2.84965 -3.20145 0
M  V30 242 H 22.0613 -3.82936 -3.15711 0
M  V30 243 H 17.3173 -5.24255 -3.1459 0
M  V30 244 H 21.4913 -6.22934 -3.1133 0
M  V30 245 H 19.1183 -6.93984 -3.10307 0
M  V30 246 N 20.6934 1.19889 -1.02296 0
M  V30 247 C 21.9214 1.9339 -0.735399 0
M  V30 248 C 22.3364 1.75148 0.704887 0
M  V30 249 O 21.6934 1.06954 1.47875 0
M  V30 250 C 21.7444 3.45313 -1.06962 0
M  V30 251 O 21.4654 3.62964 -2.45334 0
M  V30 252 C 22.9664 4.35948 -0.804021 0
M  V30 253 H 20.1864 0.61448 -0.269546 0
M  V30 254 H 22.7304 1.522 -1.36585 0
M  V30 255 H 20.8854 3.84359 -0.484455 0
M  V30 256 H 21.2994 4.56886 -2.57595 0
M  V30 257 H 22.7734 5.41174 -1.0879 0
M  V30 258 H 23.2504 4.3842 0.261691 0
M  V30 259 H 23.8564 4.02574 -1.37164 0
M  V30 260 N 22.1715 0.800033 1.35784 0
M  V30 261 C 23.4485 0.30088 1.93272 0
M  V30 262 C 23.8285 -1.20857 1.73081 0
M  V30 263 O 23.1765 -2.00502 1.09596 0
M  V30 264 C 23.3865 0.70511 3.41803 0
M  V30 265 C 24.7345 0.690871 4.18942 0
M  V30 266 O 25.7585 0.646244 3.50289 0
M  V30 267 O 24.6175 0.74332 5.41421 0
M  V30 268 H 21.7115 0.0771605 0.823393 0
M  V30 269 H 24.2575 0.88329 1.449 0
M  V30 270 H 23.0295 1.74571 3.50201 0
M  V30 271 H 22.6525 0.0971541 3.97481 0
M  V30 272 N 23.6496 -1.47581 0.552962 0
M  V30 273 C 24.8976 -2.02082 0.0272703 0
M  V30 274 C 25.2186 -1.4301 -1.32563 0
M  V30 275 O 24.4886 -0.603745 -1.86365 0
M  V30 276 H 23.0686 -0.746966 0.00709182 0
M  V30 277 H 25.7306 -1.81033 0.722008 0
M  V30 278 H 24.8266 -3.12034 -0.0639951 0
M  V30 279 N 25.1277 -0.289203 -1.54924 0
M  V30 280 C 26.0777 0.606939 -2.19773 0
M  V30 281 C 27.0617 1.10783 -1.16687 0
M  V30 282 O 28.2537 1.05057 -1.4245 0
M  V30 283 C 25.3827 1.78398 -2.93307 0
M  V30 284 C 24.4687 1.29961 -4.03697 0
M  V30 285 N 24.8597 0.532377 -5.0299 0
M  V30 286 C 23.1577 1.58136 -4.17024 0
M  V30 287 C 23.8587 0.275912 -5.81045 0
M  V30 288 N 22.8347 0.852365 -5.36876 0
M  V30 289 H 26.6367 0.0130779 -2.93897 0
M  V30 290 H 24.1507 -0.09341 -1.62131 0
M  V30 291 H 26.1477 2.43741 -3.38225 0
M  V30 292 H 24.8077 2.38166 -2.20697 0
M  V30 293 H 25.8187 0.17838 -5.17593 0
M  V30 294 H 22.4957 2.18738 -3.55612 0
M  V30 295 H 23.8857 -0.339502 -6.71042 0
M  V30 296 N 26.6058 1.57591 -0.0167156 0
M  V30 297 C 27.8538 1.90906 0.663285 0
M  V30 298 C 28.1748 0.892509 1.73376 0
M  V30 299 O 27.4448 -0.0677623 1.95783 0
M  V30 300 H 26.0248 0.704637 0.247983 0
M  V30 301 H 28.6868 1.94803 -0.0615909 0
M  V30 302 H 27.7828 2.9116 1.12393 0
M  V30 303 N 28.0839 -0.256276 1.55502 0
M  V30 304 C 29.3319 -0.983672 1.76545 0
M  V30 305 C 29.6529 -1.86206 0.578982 0
M  V30 306 O 28.9229 -1.91656 -0.405577 0
M  V30 307 H 27.5029 -0.366191 0.651086 0
M  V30 308 H 30.1649 -0.276479 1.92929 0
M  V30 309 H 29.2609 -1.61087 2.67315 0
M  V30 310 N 29.562 -1.4872 -0.521534 0
M  V30 311 C 30.809 -1.57168 -1.27689 0
M  V30 312 C 31.137 -0.249275 -1.92896 0
M  V30 313 O 30.392 0.761162 -1.80291 0
M  V30 314 C 30.691 -2.66497 -2.38148 0
M  V30 315 C 30.357 -4.08664 -1.90538 0
M  V30 316 C 29.019 -4.47357 -1.77271 0
M  V30 317 C 31.371 -4.97724 -1.54663 0
M  V30 318 C 28.699 -5.72905 -1.26478 0
M  V30 319 C 31.051 -6.2377 -1.05329 0
M  V30 320 C 29.715 -6.61311 -0.906861 0
M  V30 321 H 28.985 -0.575117 -0.467249 0
M  V30 322 H 31.632 -1.82472 -0.581051 0
M  V30 323 H 29.937 -2.35085 -3.13437 0
M  V30 324 H 31.634 -2.70246 -2.96257 0
M  V30 325 H 28.224 -3.78111 -2.01816 0
M  V30 326 H 32.408 -4.68501 -1.63768 0
M  V30 327 H 27.664 -6.00709 -1.13835 0
M  V30 328 H 31.838 -6.9217 -0.76644 0
M  V30 329 H 29.465 -7.5848 -0.511083 0
M  V30 330 N 31.0401 0.771051 -1.3745 0
M  V30 331 C 31.9701 1.89827 -1.3597 0
M  V30 332 C 32.9511 1.68562 -0.228216 0
M  V30 333 O 34.1361 1.8941 -0.428675 0
M  V30 334 C 31.2661 3.2712 -1.16662 0
M  V30 335 C 30.2201 3.6295 -2.2683 0
M  V30 336 C 29.5461 4.98791 -1.92644 0
M  V30 337 C 30.8461 3.69627 -3.69017 0
M  V30 338 H 32.5401 1.91323 -2.30295 0
M  V30 339 H 30.0861 0.919082 -1.10855 0
M  V30 340 H 32.0391 4.05615 -1.14256 0
M  V30 341 H 30.7631 3.26059 -0.187926 0
M  V30 342 H 29.4221 2.86763 -2.28392 0
M  V30 343 H 29.0701 4.94271 -0.933021 0
M  V30 344 H 28.7701 5.23733 -2.66416 0
M  V30 345 H 30.2941 5.79685 -1.91826 0
M  V30 346 H 31.7081 4.38273 -3.69581 0
M  V30 347 H 30.1051 4.06067 -4.41848 0
M  V30 348 H 31.1751 2.70273 -4.02592 0
M  V30 349 N 32.5182 1.22032 0.997298 0
M  V30 350 C 33.7662 1.04016 1.73278 0
M  V30 351 C 34.0872 -0.426255 1.90284 0
M  V30 352 O 33.3572 -1.30694 1.45931 0
M  V30 353 H 31.9372 0.381897 0.642 0
M  V30 354 H 34.5992 1.5347 1.20137 0
M  V30 355 H 33.6952 1.51441 2.72896 0
M  V30 356 N 33.9963 -1.19345 1.0293 0
M  V30 357 C 34.9433 -2.2258 0.610464 0
M  V30 358 C 35.9133 -1.6179 -0.375946 0
M  V30 359 O 37.0983 -1.88844 -0.272511 0
M  V30 360 C 34.2383 -3.45085 -0.0321473 0
M  V30 361 C 33.3513 -4.20258 1.00035 0
M  V30 362 C 32.4863 -5.3019 0.32746 0
M  V30 363 C 31.5253 -5.97121 1.34584 0
M  V30 364 N 30.6623 -6.98615 0.698726 0
M  V30 365 H 35.5023 -2.57764 1.49538 0
M  V30 366 H 33.0393 -1.26644 0.748311 0
M  V30 367 H 34.9973 -4.15061 -0.421966 0
M  V30 368 H 33.6273 -3.10555 -0.88064 0
M  V30 369 H 32.6793 -3.49223 1.50823 0
M  V30 370 H 33.9913 -4.66175 1.77433 0
M  V30 371 H 33.1453 -6.06587 -0.11718 0
M  V30 372 H 31.8843 -4.85345 -0.478713 0
M  V30 373 H 30.8893 -5.19474 1.80074 0
M  V30 374 H 32.1143 -6.4405 2.15352 0
M  V30 375 H 30.0603 -6.55942 -0.0873471 0
M  V30 376 H 29.9773 -7.42724 1.41058 0
M  V30 377 H 31.2453 -7.79004 0.278102 0
M  V30 378 N 35.4744 -0.807222 -1.35358 0
M  V30 379 C 36.4224 -0.20614 -2.31685 0
M  V30 380 C 37.4164 0.644445 -1.56663 0
M  V30 381 O 38.6224 0.537538 -1.71786 0
M  V30 382 H 34.9974 -0.0479006 -0.750473 0
M  V30 383 H 36.9684 -1.03369 -2.79924 0
M  V30 384 C 35.7174 0.630212 -3.41941 0
M  V30 385 H 35.0404 -0.0149558 -3.99797 0
M  V30 386 H 36.4804 1.01716 -4.11619 0
M  V30 387 C 34.9394 1.79601 -2.85035 0
M  V30 388 O 35.4694 2.89351 -2.78637 0
M  V30 389 N 33.6754 1.60774 -2.42074 0
M  V30 390 H 33.2224 0.715009 -2.47478 0
M  V30 391 H 33.1804 2.38933 -2.04349 0
M  V30 392 N 36.9525 1.47285 -0.560781 0
M  V30 393 C 38.2295 1.9558 0.0277798 0
M  V30 394 C 38.6095 1.5034 1.48192 0
M  V30 395 O 37.9575 0.743882 2.16052 0
M  V30 396 C 38.1675 3.48789 -0.121418 0
M  V30 397 C 39.5155 4.24594 0.0220912 0
M  V30 398 O 40.5395 3.56166 -0.0491439 0
M  V30 399 O 39.3985 5.46217 0.175958 0
M  V30 400 H 36.4925 0.824663 0.0621342 0
M  V30 401 H 39.0385 1.5767 -0.627556 0
M  V30 402 H 37.8105 3.74533 -1.13316 0
M  V30 403 H 37.4335 3.93473 0.571366 0
M  V30 404 N 38.4306 0.297415 1.54768 0
M  V30 405 C 39.6786 -0.312295 1.99673 0
M  V30 406 C 39.9996 -1.54686 1.18732 0
M  V30 407 O 39.2696 -1.93854 0.282382 0
M  V30 408 H 37.8496 -0.118381 0.73756 0
M  V30 409 H 40.5116 0.407915 1.90583 0
M  V30 410 H 39.6076 -0.586813 3.06534 0
M  V30 411 N 39.9087 -1.5758 0.0250728 0
M  V30 412 C 41.1577 -1.90811 -0.653767 0
M  V30 413 C 41.4707 -0.90273 -1.73523 0
M  V30 414 O 42.6767 -1.12614 -2.47043 0
M  V30 415 C 41.1327 -3.38804 -1.21409 0
M  V30 416 C 40.7407 -4.47692 -0.166126 0
M  V30 417 C 42.4847 -3.81108 -1.86967 0
M  V30 418 C 40.3917 -5.86779 -0.737856 0
M  V30 419 H 39.3217 -0.712063 -0.247956 0
M  V30 420 H 41.9727 -1.83281 0.0897137 0
M  V30 421 H 40.3547 -3.41252 -2.00905 0
M  V30 422 H 41.5287 -4.56797 0.606079 0
M  V30 423 H 39.8437 -4.14565 0.390466 0
M  V30 424 H 42.4407 -4.82375 -2.30692 0
M  V30 425 H 42.7837 -3.15953 -2.71071 0
M  V30 426 H 43.3167 -3.81065 -1.14167 0
M  V30 427 H 40.0557 -6.55468 0.0649577 0
M  V30 428 H 39.5757 -5.81288 -1.47864 0
M  V30 429 H 41.2547 -6.35223 -1.22884 0
M  V30 430 N 41.3868 0.248026 -1.55636 0
M  V30 431 C 42.3338 1.30707 -1.90222 0
M  V30 432 C 43.3038 1.47881 -0.756332 0
M  V30 433 O 44.4888 1.61883 -1.00988 0
M  V30 434 C 41.6288 2.65769 -2.20138 0
M  V30 435 C 40.7418 2.56612 -3.47526 0
M  V30 436 C 39.8768 3.8402 -3.67017 0
M  V30 437 C 38.9158 3.69476 -4.8801 0
M  V30 438 N 38.0528 4.88774 -5.04029 0
M  V30 439 H 42.8928 1.00512 -2.80538 0
M  V30 440 H 40.4298 0.485055 -1.38873 0
M  V30 441 H 42.3878 3.44386 -2.35487 0
M  V30 442 H 41.0178 2.94115 -1.33027 0
M  V30 443 H 40.0698 1.69571 -3.40514 0
M  V30 444 H 41.3818 2.41774 -4.36287 0
M  V30 445 H 40.5358 4.7108 -3.8232 0
M  V30 446 H 39.2748 4.01754 -2.76487 0
M  V30 447 H 38.2798 2.80799 -4.72686 0
M  V30 448 H 39.5048 3.53238 -5.8 0
M  V30 449 H 37.4508 5.0687 -4.16435 0
M  V30 450 H 37.3678 4.76562 -5.86877 0
M  V30 451 H 38.6358 5.77335 -5.23741 0
M  V30 452 N 42.8649 1.48995 0.513639 0
M  V30 453 C 44.0929 1.61531 1.29288 0
M  V30 454 C 44.5079 0.281801 1.86685 0
M  V30 455 O 43.8649 -0.731111 1.67215 0
M  V30 456 C 43.9159 2.67449 2.43215 0
M  V30 457 O 43.6369 3.95626 1.88179 0
M  V30 458 C 45.1379 2.90575 3.34785 0
M  V30 459 H 42.3579 0.544165 0.392588 0
M  V30 460 H 44.9019 1.9494 0.617956 0
M  V30 461 H 43.0569 2.36853 3.0656 0
M  V30 462 H 43.4709 4.53868 2.62876 0
M  V30 463 H 44.9449 3.68449 4.11035 0
M  V30 464 H 45.4219 2.00011 3.91015 0
M  V30 465 H 46.0279 3.22538 2.77218 0
M  V30 466 N 44.343 -0.763751 1.37857 0
M  V30 467 C 45.29 -1.87726 1.34267 0
M  V30 468 C 46.26 -1.64807 0.206879 0
M  V30 469 O 47.445 -1.86613 0.397508 0
M  V30 470 C 44.585 -3.24896 1.16346 0
M  V30 471 C 43.698 -3.59716 2.39225 0
M  V30 472 C 42.833 -4.86137 2.14114 0
M  V30 473 C 41.872 -5.13711 3.32817 0
M  V30 474 N 41.009 -6.31323 3.07206 0
M  V30 475 H 45.849 -1.90129 2.29466 0
M  V30 476 H 43.386 -0.929433 1.14017 0
M  V30 477 H 45.344 -4.04036 1.03975 0
M  V30 478 H 43.974 -3.21847 0.247909 0
M  V30 479 H 43.026 -2.75498 2.62307 0
M  V30 480 H 44.338 -3.76027 3.27728 0
M  V30 481 H 43.492 -5.73198 1.9882 0
M  V30 482 H 42.231 -4.71945 1.22961 0
M  V30 483 H 41.236 -4.25123 3.48641 0
M  V30 484 H 42.461 -5.29807 4.24832 0
M  V30 485 H 40.407 -6.18474 2.1869 0
M  V30 486 H 40.324 -6.48087 3.89254 0
M  V30 487 H 41.592 -7.213 2.95546 0
M  V30 488 N 45.8211 -1.22559 -0.990812 0
M  V30 489 C 46.7681 -0.997519 -2.0813 0
M  V30 490 C 47.7381 0.0814702 -1.659 0
M  V30 491 O 48.9231 -0.0685424 -1.90677 0
M  V30 492 C 46.0631 -0.583615 -3.40129 0
M  V30 493 C 45.1761 -1.7336 -3.9569 0
M  V30 494 C 44.3111 -1.26748 -5.15857 0
M  V30 495 C 43.3501 -2.38888 -5.63559 0
M  V30 496 N 42.4871 -1.93308 -6.74964 0
M  V30 497 H 47.3271 -1.93099 -2.26973 0
M  V30 498 H 44.8641 -0.962114 -1.11273 0
M  V30 499 H 46.8221 -0.324801 -4.15934 0
M  V30 500 H 45.4521 0.312845 -3.2128 0
M  V30 501 H 44.5041 -2.10669 -3.16738 0
M  V30 502 H 45.8161 -2.57704 -4.27071 0
M  V30 503 H 44.9701 -0.966173 -5.98957 0
M  V30 504 H 43.7091 -0.394272 -4.86104 0
M  V30 505 H 42.7141 -2.69805 -4.79046 0
M  V30 506 H 43.9391 -3.26728 -5.95336 0
M  V30 507 H 41.8851 -1.08352 -6.4699 0
M  V30 508 H 41.8021 -2.71217 -7.05675 0
M  V30 509 H 43.0701 -1.66252 -7.61564 0
M  V30 510 N 47.2992 1.18797 -1.03562 0
M  V30 511 C 48.2092 2.25913 -0.632505 0
M  V30 512 C 49.2252 1.70668 0.338882 0
M  V30 513 O 50.4012 2.00453 0.195076 0
M  V30 514 C 47.4662 3.467 0.00350942 0
M  V30 515 C 46.5272 4.17098 -1.01624 0
M  V30 516 C 45.7602 5.32119 -0.410478 0
M  V30 517 O 45.9832 5.64976 0.784725 0
M  V30 518 O 44.9172 5.9107 -1.13667 0
M  V30 519 H 48.7432 2.62648 -1.52478 0
M  V30 520 H 46.3282 1.25781 -0.806195 0
M  V30 521 H 48.2102 4.19878 0.35781 0
M  V30 522 H 46.8852 3.11798 0.869686 0
M  V30 523 H 45.7922 3.4601 -1.42224 0
M  V30 524 H 47.1252 4.55987 -1.85301 0
M  V30 525 N 48.7773 0.814389 1.34928 0
M  V30 526 C 49.7073 0.244827 2.32213 0
M  V30 527 C 50.6883 -0.634024 1.57842 0
M  V30 528 O 51.8733 -0.562676 1.8587 0
M  V30 529 C 49.0033 -0.601106 3.42058 0
M  V30 530 C 47.9573 0.179896 4.27622 0
M  V30 531 C 47.2833 -0.788237 5.28858 0
M  V30 532 C 48.5833 1.38329 5.03649 0
M  V30 533 H 50.2773 1.05763 2.80097 0
M  V30 534 H 47.8233 0.510029 1.34665 0
M  V30 535 H 49.7763 -1.00968 4.09125 0
M  V30 536 H 48.5003 -1.44688 2.92802 0
M  V30 537 H 47.1593 0.569739 3.62146 0
M  V30 538 H 46.8073 -1.62973 4.75866 0
M  V30 539 H 46.5073 -0.269942 5.8698 0
M  V30 540 H 48.0313 -1.19485 5.98795 0
M  V30 541 H 49.4453 1.04918 5.63618 0
M  V30 542 H 47.8423 1.83662 5.71304 0
M  V30 543 H 48.9123 2.16592 4.33839 0
M  V30 544 N 50.2554 -1.46986 0.568584 0
M  V30 545 C 51.5044 -2.01646 0.0465894 0
M  V30 546 C 51.8174 -1.44721 -1.31587 0
M  V30 547 O 53.0234 -1.91113 -1.92842 0
M  V30 548 C 51.4794 -3.59885 0.032752 0
M  V30 549 C 51.0874 -4.25804 1.39266 0
M  V30 550 C 52.8314 -4.22255 -0.436038 0
M  V30 551 C 50.7384 -5.76081 1.33732 0
M  V30 552 H 49.6684 -0.753876 0.013647 0
M  V30 553 H 52.3194 -1.68864 0.718131 0
M  V30 554 H 50.7014 -3.8968 -0.704669 0
M  V30 555 H 51.8754 -4.07637 2.1487 0
M  V30 556 H 50.1904 -3.7547 1.80032 0
M  V30 557 H 52.7874 -5.32394 -0.49602 0
M  V30 558 H 53.1304 -3.90212 -1.45053 0
M  V30 559 H 53.6634 -3.97033 0.246877 0
M  V30 560 H 50.4024 -6.12761 2.32817 0
M  V30 561 H 49.9224 -5.96553 0.623267 0
M  V30 562 H 51.6014 -6.38518 1.0442 0
M  V30 563 N 51.7335 -0.305618 -1.54608 0
M  V30 564 C 52.9795 0.302746 -2.00528 0
M  V30 565 C 53.3125 1.53184 -1.19367 0
M  V30 566 O 52.5875 1.92598 -0.271321 0
M  V30 567 C 52.8705 0.654756 -3.54097 0
M  V30 568 C 52.7235 -0.583793 -4.45995 0
M  V30 569 C 54.0425 1.47947 -4.14487 0
M  V30 570 H 51.1615 0.108564 -0.72896 0
M  V30 571 H 53.8035 -0.418634 -1.85331 0
M  V30 572 H 51.9535 1.26935 -3.67178 0
M  V30 573 H 53.6255 -1.22224 -4.44814 0
M  V30 574 H 51.8685 -1.21615 -4.16404 0
M  V30 575 H 52.5395 -0.293287 -5.5122 0
M  V30 576 H 55.0155 0.96013 -4.04871 0
M  V30 577 H 53.8915 1.69454 -5.22088 0
M  V30 578 H 54.1525 2.47011 -3.66658 0
M  V30 579 N 53.2116 1.57565 -0.0334293 0
M  V30 580 C 54.1596 2.1164 0.96496 0
M  V30 581 C 55.1536 1.04398 1.33407 0
M  V30 582 O 56.3596 1.22828 1.3158 0
M  V30 583 H 52.7346 0.676222 0.32898 0
M  V30 584 H 54.7056 2.94455 0.483614 0
M  V30 585 C 53.4546 2.66207 2.23672 0
M  V30 586 H 52.7776 3.48378 1.96145 0
M  V30 587 H 54.2176 3.07685 2.9173 0
M  V30 588 C 52.6766 1.59151 2.96939 0
M  V30 589 O 53.2066 0.993858 3.89211 0
M  V30 590 N 51.4126 1.31093 2.59351 0
M  V30 591 H 50.9596 1.7988 1.84393 0
M  V30 592 H 50.9176 0.596889 3.08682 0
M  V30 593 N 54.6897 -0.239769 1.55765 0
M  V30 594 C 55.6367 -1.29696 1.90913 0
M  V30 595 C 56.6067 -1.47478 0.764164 0
M  V30 596 O 57.7917 -1.61345 1.01845 0
M  V30 597 C 54.9317 -2.64598 2.21544 0
M  V30 598 C 54.0447 -2.54765 3.48882 0
M  V30 599 C 53.1797 -3.82069 3.69049 0
M  V30 600 C 52.2187 -3.66883 4.89963 0
M  V30 601 N 51.3557 -4.86094 5.06614 0
M  V30 602 H 56.1957 -0.990224 2.81067 0
M  V30 603 H 53.7327 -0.477684 1.39128 0
M  V30 604 H 55.6907 -3.43132 2.3731 0
M  V30 605 H 54.3207 -2.93405 1.34585 0
M  V30 606 H 53.3727 -1.67763 3.41409 0
M  V30 607 H 54.6847 -2.39457 4.37563 0
M  V30 608 H 53.8387 -4.69046 3.84812 0
M  V30 609 H 52.5777 -4.00282 2.78614 0
M  V30 610 H 51.5827 -2.78289 4.74168 0
M  V30 611 H 52.8077 -3.50157 5.81865 0
M  V30 612 H 50.7537 -5.04655 4.19117 0
M  V30 613 H 50.6707 -4.73443 5.89396 0
M  V30 614 H 51.9387 -5.74549 5.26795 0
M  V30 615 N 56.1678 -1.49265 -0.50573 0
M  V30 616 C 57.1148 -1.65585 -1.6078 0
M  V30 617 C 58.0848 -0.497396 -1.58478 0
M  V30 618 O 59.2698 -0.72385 -1.76536 0
M  V30 619 C 56.4098 -1.72408 -2.98948 0
M  V30 620 C 55.5228 -2.99525 -3.11301 0
M  V30 621 C 54.6578 -2.97356 -4.40174 0
M  V30 622 C 53.6968 -4.19074 -4.46143 0
M  V30 623 N 52.8338 -4.14841 -5.66437 0
M  V30 624 H 57.6738 -2.59688 -1.46172 0
M  V30 625 H 55.2108 -1.28761 -0.711261 0
M  V30 626 H 57.1688 -1.74344 -3.79025 0
M  V30 627 H 55.7988 -0.817753 -3.1227 0
M  V30 628 H 54.8508 -3.07222 -2.24318 0
M  V30 629 H 56.1628 -3.89518 -3.11572 0
M  V30 630 H 55.3168 -2.97829 -5.28567 0
M  V30 631 H 54.0558 -2.05133 -4.42461 0
M  V30 632 H 53.0608 -4.1885 -3.56153 0
M  V30 633 H 54.2858 -5.12483 -4.45575 0
M  V30 634 H 52.2318 -3.25453 -5.69575 0
M  V30 635 H 52.1488 -4.98564 -5.68304 0
M  V30 636 H 53.4168 -4.1941 -6.57051 0
M  V30 637 N 57.6459 0.756429 -1.3826 0
M  V30 638 C 58.5929 1.87011 -1.35261 0
M  V30 639 C 59.5629 1.64695 -0.215616 0
M  V30 640 O 60.7479 1.864 -0.407399 0
M  V30 641 C 57.8879 3.24275 -1.18068 0
M  V30 642 C 57.0009 3.58442 -2.41129 0
M  V30 643 C 56.1359 4.84994 -2.16689 0
M  V30 644 C 55.1749 5.11939 -3.35537 0
M  V30 645 N 54.3119 6.29685 -3.10549 0
M  V30 646 H 59.1519 1.8891 -2.30472 0
M  V30 647 H 56.6889 0.923373 -1.14509 0
M  V30 648 H 58.6469 4.03479 -1.06116 0
M  V30 649 H 57.2769 3.21711 -0.264973 0
M  V30 650 H 56.3289 2.74103 -2.63764 0
M  V30 651 H 57.6409 3.74283 -3.29717 0
M  V30 652 H 56.7949 5.72135 -2.01857 0
M  V30 653 H 55.5339 4.71286 -1.25462 0
M  V30 654 H 54.5389 4.23268 -3.50891 0
M  V30 655 H 55.7639 5.27546 -4.27635 0
M  V30 656 H 53.7099 6.17306 -2.21967 0
M  V30 657 H 53.6269 6.46014 -3.92686 0
M  V30 658 H 54.8949 7.19722 -2.99367 0
M  V30 659 N 59.124 1.23083 0.984299 0
M  V30 660 C 60.074 0.975749 2.06066 0
M  V30 661 C 61.058 -0.0768251 1.60716 0
M  V30 662 O 62.25 0.134805 1.76486 0
M  V30 663 C 59.379 0.564673 3.38624 0
M  V30 664 C 58.465 1.65244 3.90583 0
M  V30 665 N 58.856 2.88193 4.15666 0
M  V30 666 C 57.154 1.52612 4.19077 0
M  V30 667 C 57.855 3.58593 4.58024 0
M  V30 668 N 56.831 2.86093 4.62225 0
M  V30 669 H 60.633 1.90957 2.23411 0
M  V30 670 H 58.147 1.12963 1.16675 0
M  V30 671 H 60.144 0.36322 4.15315 0
M  V30 672 H 58.804 -0.362147 3.22674 0
M  V30 673 H 59.815 3.24537 4.03604 0
M  V30 674 H 56.492 0.666121 4.12152 0
M  V30 675 H 57.882 4.63974 4.85982 0
M  V30 676 N 60.6021 -1.18246 1.0419 0
M  V30 677 C 61.5321 -2.24127 0.654914 0
M  V30 678 C 62.5131 -1.66617 -0.342451 0
M  V30 679 O 63.6981 -1.92924 -0.222277 0
M  V30 680 C 60.8281 -3.47295 0.0183757 0
M  V30 681 C 59.7821 -4.17563 0.939414 0
M  V30 682 C 59.1081 -5.34438 0.167286 0
M  V30 683 C 60.4081 -4.70917 2.25908 0
M  V30 684 H 62.1021 -2.56753 1.54007 0
M  V30 685 H 59.6481 -1.23414 0.74195 0
M  V30 686 H 61.6011 -4.20572 -0.264082 0
M  V30 687 H 60.3251 -3.13907 -0.901664 0
M  V30 688 H 58.9841 -3.46186 1.20628 0
M  V30 689 H 58.6321 -4.97298 -0.7552 0
M  V30 690 H 58.3321 -5.82388 0.780901 0
M  V30 691 H 59.8561 -6.10504 -0.108125 0
M  V30 692 H 61.2701 -5.35882 2.03724 0
M  V30 693 H 59.6671 -5.29406 2.82577 0
M  V30 694 H 60.7371 -3.88272 2.9047 0
M  V30 695 N 62.0802 -0.821533 -1.34494 0
M  V30 696 C 63.3282 -0.408139 -1.97936 0
M  V30 697 C 63.6492 1.03193 -1.65457 0
M  V30 698 O 62.9192 1.71622 -0.944595 0
M  V30 699 H 61.4992 -0.147928 -0.732206 0
M  V30 700 H 64.1612 -1.05067 -1.64155 0
M  V30 701 H 63.2572 -0.52601 -3.07635 0
M  V30 702 N 63.5583 1.46682 -0.576371 0
M  V30 703 C 64.9693 1.86112 -0.148091 0
M  V30 704 C 65.3203 1.48073 1.2872 0
M  V30 705 O 64.4453 0.892656 1.97131 0
M  V30 706 C 65.0403 3.37786 -0.261982 0
M  V30 707 C 63.5993 3.76235 0.111384 0
M  V30 708 C 62.7463 2.70713 -0.60083 0
M  V30 709 H 65.6973 1.37927 -0.78497 0
M  V30 710 H 65.7183 3.77007 0.514364 0
M  V30 711 H 65.2303 3.6544 -1.30671 0
M  V30 712 H 63.3313 3.54198 1.15649 0
M  V30 713 H 63.4443 4.78391 -0.26052 0
M  V30 714 H 61.8083 2.54666 -0.0417783 0
M  V30 715 H 62.5913 3.01208 -1.64708 0
M  V30 716 N 65.0364 0.313813 1.54444 0
M  V30 717 C 66.2824 -0.292108 2.00685 0
M  V30 718 C 66.6154 -1.52548 1.20177 0
M  V30 719 O 65.8904 -1.92452 0.281531 0
M  V30 720 C 66.1734 -0.635968 3.5444 0
M  V30 721 C 66.0264 0.607437 4.4568 0
M  V30 722 C 67.3454 -1.45747 4.15266 0
M  V30 723 H 64.4644 -0.104697 0.729526 0
M  V30 724 H 67.1064 0.428457 1.85106 0
M  V30 725 H 65.2564 -1.24986 3.67846 0
M  V30 726 H 66.9284 1.24581 4.44159 0
M  V30 727 H 65.1714 1.23822 4.15753 0
M  V30 728 H 65.8424 0.322515 5.51057 0
M  V30 729 H 68.3184 -0.938645 4.05375 0
M  V30 730 H 67.1944 -1.66683 5.2298 0
M  V30 731 H 67.4554 -2.45063 3.67963 0
M  V30 732 N 66.5145 -1.57545 0.0417849 0
M  V30 733 C 67.4245 -2.14451 -0.951213 0
M  V30 734 C 68.4405 -1.09992 -1.34825 0
M  V30 735 O 69.6165 -1.42114 -1.42708 0
M  V30 736 C 66.6815 -2.67063 -2.21084 0
M  V30 737 C 65.7425 -3.86284 -1.87304 0
M  V30 738 C 64.9755 -4.36378 -3.07261 0
M  V30 739 O 65.1985 -3.85587 -4.20332 0
M  V30 740 O 64.1325 -5.28077 -2.88822 0
M  V30 741 H 67.9585 -2.99601 -0.497287 0
M  V30 742 H 65.5435 -1.48317 -0.179567 0
M  V30 743 H 67.4255 -3.00914 -2.95006 0
M  V30 744 H 66.1005 -1.84989 -2.65633 0
M  V30 745 H 65.0075 -3.57338 -1.10727 0
M  V30 746 H 66.3405 -4.6956 -1.47562 0
M  V30 747 N 67.9926 0.231505 -1.5589 0
M  V30 748 C 68.9026 1.308 -1.94752 0
M  V30 749 C 69.9186 1.51826 -0.849989 0
M  V30 750 O 71.0946 1.6515 -1.15271 0
M  V30 751 C 68.1596 2.63968 -2.24771 0
M  V30 752 C 67.2206 2.51331 -3.48039 0
M  V30 753 C 66.4536 3.78148 -3.76616 0
M  V30 754 O 66.6766 4.80722 -3.07022 0
M  V30 755 O 65.6106 3.75857 -4.70123 0
M  V30 756 H 69.4366 1.0083 -2.86474 0
M  V30 757 H 67.0216 0.433547 -1.42971 0
M  V30 758 H 68.9036 3.42633 -2.45318 0
M  V30 759 H 67.5786 2.9364 -1.36225 0
M  V30 760 H 66.4856 1.709 -3.32782 0
M  V30 761 H 67.8186 2.26601 -4.36936 0
M  V30 762 N 69.4707 1.49531 0.497807 0
M  V30 763 C 70.7007 1.62657 1.27382 0
M  V30 764 C 71.1087 0.298488 1.86831 0
M  V30 765 O 70.4517 -0.72647 1.68725 0
M  V30 766 C 70.5137 2.6393 2.44093 0
M  V30 767 C 70.1777 4.08195 2.05489 0
M  V30 768 C 71.1747 4.949 1.59279 0
M  V30 769 C 68.8597 4.53948 2.15026 0
M  V30 770 C 70.8537 6.25397 1.23113 0
M  V30 771 C 68.5407 5.84458 1.78473 0
M  V30 772 C 69.5387 6.70006 1.32591 0
M  V30 773 O 69.2267 7.98083 0.965327 0
M  V30 774 H 68.9587 0.550429 0.392434 0
M  V30 775 H 71.5127 1.96325 0.603801 0
M  V30 776 H 69.7427 2.25449 3.14181 0
M  V30 777 H 71.4317 2.66552 3.06113 0
M  V30 778 H 72.1977 4.60779 1.51354 0
M  V30 779 H 68.0767 3.87525 2.4969 0
M  V30 780 H 71.6207 6.92125 0.872299 0
M  V30 781 H 67.5177 6.18107 1.86048 0
M  V30 782 H 68.2857 8.11122 1.09652 0
M  V30 783 N 70.9488 -0.749086 1.3866 0
M  V30 784 C 71.8808 -1.87273 1.32142 0
M  V30 785 C 72.8938 -1.61127 0.232787 0
M  V30 786 O 74.0828 -1.71623 0.49069 0
M  V30 787 C 71.1828 -3.23005 1.02571 0
M  V30 788 C 70.3558 -3.7662 2.22433 0
M  V30 789 C 69.4148 -4.90879 1.89537 0
M  V30 790 O 68.4408 -5.05276 2.62078 0
M  V30 791 N 69.6428 -5.74198 0.853031 0
M  V30 792 H 72.4078 -1.93373 2.28969 0
M  V30 793 H 69.9688 -0.929216 1.32579 0
M  V30 794 H 71.9608 -3.96992 0.786085 0
M  V30 795 H 70.5308 -3.12262 0.145249 0
M  V30 796 H 69.7508 -2.94147 2.62434 0
M  V30 797 H 71.0388 -4.09173 3.02415 0
M  V30 798 H 70.4368 -5.6514 0.25155 0
M  V30 799 H 68.9938 -6.48313 0.67329 0
M  V30 800 N 72.4269 -1.23603 -0.977757 0
M  V30 801 C 73.3569 -1.04401 -2.0886 0
M  V30 802 C 74.3379 0.0399052 -1.70053 0
M  V30 803 O 75.5229 -0.125246 -1.93796 0
M  V30 804 C 72.6529 -0.637269 -3.41403 0
M  V30 805 C 71.6069 -1.66883 -3.94124 0
M  V30 806 C 70.9329 -1.11745 -5.22893 0
M  V30 807 C 72.2329 -3.06247 -4.23096 0
M  V30 808 H 73.9269 -1.97316 -2.25182 0
M  V30 809 H 71.4729 -0.950096 -1.08209 0
M  V30 810 H 73.4259 -0.48998 -4.18542 0
M  V30 811 H 72.1499 0.327557 -3.24953 0
M  V30 812 H 70.8089 -1.80416 -3.19133 0
M  V30 813 H 70.4569 -0.143527 -5.02795 0
M  V30 814 H 70.1569 -1.80672 -5.59134 0
M  V30 815 H 71.6809 -0.982067 -6.02651 0
M  V30 816 H 73.0949 -2.96001 -4.90975 0
M  V30 817 H 71.4919 -3.72436 -4.70544 0
M  V30 818 H 72.5619 -3.55041 -3.30263 0
M  V30 819 N 73.905 1.17692 -1.04816 0
M  V30 820 C 74.835 2.23777 -0.666791 0
M  V30 821 C 75.816 1.66796 0.33361 0
M  V30 822 O 77.001 1.93039 0.212042 0
M  V30 823 C 74.131 3.47281 -0.0367933 0
M  V30 824 C 73.085 4.17059 -0.961546 0
M  V30 825 C 72.411 5.34342 -0.195626 0
M  V30 826 C 73.711 4.69713 -2.28402 0
M  V30 827 H 75.405 2.55933 -1.55367 0
M  V30 828 H 72.951 1.23019 -0.748484 0
M  V30 829 H 74.904 4.20706 0.241775 0
M  V30 830 H 73.628 3.14381 0.885004 0
M  V30 831 H 72.287 3.45541 -1.22462 0
M  V30 832 H 71.935 4.97692 0.728816 0
M  V30 833 H 71.635 5.81966 -0.811775 0
M  V30 834 H 73.159 6.10553 0.0757473 0
M  V30 835 H 74.573 5.34794 -2.06563 0
M  V30 836 H 72.97 5.279 -2.8538 0
M  V30 837 H 74.04 3.86726 -2.92525 0
M  V30 838 N 75.3831 0.828654 1.34056 0
M  V30 839 C 76.3131 0.269443 2.3194 0
M  V30 840 C 77.2941 -0.617247 1.58506 0
M  V30 841 O 78.4791 -0.542931 1.86456 0
M  V30 842 C 75.6091 -0.564793 3.42677 0
M  V30 843 C 74.5631 0.225241 4.27407 0
M  V30 844 C 73.8891 -0.7321 5.29664 0
M  V30 845 C 75.1891 1.43663 5.02154 0
M  V30 846 H 76.8831 1.08728 2.7896 0
M  V30 847 H 74.4291 0.524283 1.34117 0
M  V30 848 H 76.3821 -0.966233 4.10173 0
M  V30 849 H 75.1061 -1.41574 2.9432 0
M  V30 850 H 73.7651 0.608117 3.61521 0
M  V30 851 H 73.4131 -1.57916 4.77568 0
M  V30 852 H 73.1131 -0.20767 5.87233 0
M  V30 853 H 74.6371 -1.13128 6.00029 0
M  V30 854 H 76.0511 1.1089 5.62473 0
M  V30 855 H 74.4481 1.89711 5.69324 0
M  V30 856 H 75.5181 2.21181 4.31517 0
M  V30 857 N 76.8612 -1.46375 0.584142 0
M  V30 858 C 77.7932 -2.28443 -0.186119 0
M  V30 859 C 78.8062 -1.38596 -0.854115 0
M  V30 860 O 79.9952 -1.63183 -0.723438 0
M  V30 861 C 77.0952 -3.13671 -1.28311 0
M  V30 862 C 76.2682 -4.31652 -0.706758 0
M  V30 863 C 75.3272 -4.98267 -1.69163 0
M  V30 864 O 74.3532 -5.55815 -1.22712 0
M  V30 865 N 75.5552 -4.95408 -3.02575 0
M  V30 866 H 78.3202 -2.9519 0.517986 0
M  V30 867 H 75.8812 -1.56303 0.42201 0
M  V30 868 H 77.8732 -3.55101 -1.94128 0
M  V30 869 H 76.4432 -2.48989 -1.89005 0
M  V30 870 H 75.6632 -3.93989 0.128908 0
M  V30 871 H 76.9512 -5.07906 -0.301506 0
M  V30 872 H 76.3492 -4.49902 -3.42936 0
M  V30 873 H 74.9062 -5.40774 -3.63877 0
M  V30 874 N 78.3393 -0.321999 -1.54275 0
M  V30 875 C 79.5853 0.281461 -2.00837 0
M  V30 876 C 79.9183 1.51909 -1.20985 0
M  V30 877 O 79.1933 1.923 -0.291733 0
M  V30 878 C 79.4763 0.617162 -3.54772 0
M  V30 879 C 79.3293 -0.631064 -4.45351 0
M  V30 880 C 80.6483 1.43542 -4.16033 0
M  V30 881 H 77.7673 0.100826 -0.730071 0
M  V30 882 H 80.4093 -0.438268 -1.84876 0
M  V30 883 H 78.5593 1.23034 -3.68504 0
M  V30 884 H 80.2313 -1.26934 -4.43492 0
M  V30 885 H 78.4743 -1.26025 -4.15091 0
M  V30 886 H 79.1453 -0.351735 -5.50878 0
M  V30 887 H 81.6213 0.917134 -4.05867 0
M  V30 888 H 80.4973 1.63907 -5.23856 0
M  V30 889 H 80.7583 2.43108 -3.69257 0
M  V30 890 N 79.8174 1.5752 -0.0501392 0
M  V30 891 C 81.0454 1.96963 0.633492 0
M  V30 892 C 81.4604 0.927631 1.6444 0
M  V30 893 O 80.8174 -0.0882665 1.82286 0
M  V30 894 C 80.8684 3.36487 1.32132 0
M  V30 895 O 80.5894 4.36693 0.350894 0
M  V30 896 C 82.0904 3.90682 2.09481 0
M  V30 897 H 79.3104 0.648244 0.173266 0
M  V30 898 H 81.8544 2.0417 -0.116134 0
M  V30 899 H 80.0094 3.30434 2.02218 0
M  V30 900 H 80.4234 5.17702 0.841735 0
M  V30 901 H 81.8974 4.90591 2.5303 0
M  V30 902 H 82.3744 3.26053 2.94255 0
M  V30 903 H 82.9804 4.00069 1.44307 0
M  V30 904 N 81.2955 -0.223234 1.56011 0
M  V30 905 C 82.5255 -0.963413 1.82762 0
M  V30 906 C 82.9335 -1.78516 0.626804 0
M  V30 907 O 82.2765 -1.78974 -0.414014 0
M  V30 908 C 82.3385 -1.93126 3.0322 0
M  V30 909 C 82.0025 -1.2942 4.38291 0
M  V30 910 C 82.9995 -0.684916 5.15369 0
M  V30 911 C 80.6845 -1.30647 4.85012 0
M  V30 912 C 82.6785 -0.0963971 6.37327 0
M  V30 913 C 80.3655 -0.71411 6.06913 0
M  V30 914 C 81.3635 -0.110123 6.82911 0
M  V30 915 O 81.0515 0.47303 8.02507 0
M  V30 916 H 80.7835 -0.288011 0.611576 0
M  V30 917 H 83.3375 -0.244103 2.03944 0
M  V30 918 H 81.5675 -2.68952 2.77852 0
M  V30 919 H 83.2565 -2.53685 3.16857 0
M  V30 920 H 84.0225 -0.667774 4.80381 0
M  V30 921 H 79.9015 -1.76598 4.25833 0
M  V30 922 H 83.4455 0.375657 6.96588 0
M  V30 923 H 79.3425 -0.728659 6.41374 0
M  V30 924 H 80.1105 0.367186 8.17676 0
M  V30 925 N 82.7736 -1.49793 -0.48987 0
M  V30 926 C 84.1896 -1.36803 -0.822022 0
M  V30 927 C 84.3896 -0.409652 -1.97292 0
M  V30 928 O 83.4456 0.154614 -2.52026 0
M  V30 929 C 84.7586 -2.77768 -1.15175 0
M  V30 930 C 86.3066 -2.86549 -1.25931 0
M  V30 931 C 86.7816 -4.28306 -1.62228 0
M  V30 932 N 88.2726 -4.31169 -1.69256 0
M  V30 933 C 89.0076 -5.37832 -1.98807 0
M  V30 934 N 88.5036 -6.54726 -2.26507 0
M  V30 935 N 90.2966 -5.25258 -2.00152 0
M  V30 936 H 82.4476 -2.10691 0.268881 0
M  V30 937 H 84.7106 -0.946241 0.057728 0
M  V30 938 H 84.4166 -3.49648 -0.379335 0
M  V30 939 H 84.2906 -3.13836 -2.09253 0
M  V30 940 H 86.6776 -2.14899 -2.02243 0
M  V30 941 H 86.7586 -2.54049 -0.298776 0
M  V30 942 H 86.4026 -5.00486 -0.864622 0
M  V30 943 H 86.3326 -4.58279 -2.594 0
M  V30 944 H 88.8236 -3.4687 -1.49965 0
M  V30 945 H 89.1366 -7.31833 -2.48276 0
M  V30 946 H 87.4816 -6.57933 -2.23939 0
M  V30 947 H 90.6726 -4.32938 -1.77996 0
M  V30 948 H 90.8456 -6.08476 -2.22848 0
M  V30 949 N 84.2517 0.741722 -1.39055 0
M  V30 950 C 85.5287 1.49252 -1.26425 0
M  V30 951 C 85.9087 2.10705 0.129144 0
M  V30 952 O 85.2567 1.98045 1.13976 0
M  V30 953 C 85.4667 2.54934 -2.38347 0
M  V30 954 C 86.8147 3.21506 -2.77343 0
M  V30 955 O 87.8387 2.65245 -2.37747 0
M  V30 956 O 86.6977 4.23294 -3.45665 0
M  V30 957 H 83.7917 0.662451 -0.495064 0
M  V30 958 H 86.3377 0.776121 -1.50912 0
M  V30 959 H 85.1097 2.07857 -3.31529 0
M  V30 960 H 84.7327 3.34141 -2.15489 0
M  V30 961 N 85.7298 1.2412 0.971189 0
M  V30 962 C 86.9548 1.10667 1.75407 0
M  V30 963 C 87.3798 -0.337048 1.85056 0
M  V30 964 O 86.7378 -1.24396 1.31892 0
M  V30 965 C 86.7858 1.74726 3.15441 0
M  V30 966 O 85.8898 1.01566 3.99697 0
M  V30 967 H 85.2308 0.387341 0.539317 0
M  V30 968 H 87.7608 1.64358 1.2185 0
M  V30 969 H 87.7708 1.80341 3.6598 0
M  V30 970 H 86.4458 2.79773 3.07734 0
M  V30 971 H 85.0228 1.03713 3.58187 0
M  V30 972 N 87.2079 -1.17134 1.05439 0
M  V30 973 C 88.1549 -2.21235 0.657539 0
M  V30 974 C 89.1249 -1.62551 -0.341543 0
M  V30 975 O 90.3099 -1.89379 -0.232393 0
M  V30 976 C 87.4499 -3.45076 0.0410575 0
M  V30 977 C 86.5629 -4.18042 1.08927 0
M  V30 978 C 85.6979 -5.29376 0.439848 0
M  V30 979 C 84.7369 -5.94132 1.4722 0
M  V30 980 N 83.8739 -6.96975 0.846756 0
M  V30 981 H 88.7139 -2.54534 1.54972 0
M  V30 982 H 86.2509 -1.25028 0.775006 0
M  V30 983 H 88.2089 -4.15862 -0.33383 0
M  V30 984 H 86.8389 -3.12353 -0.814568 0
M  V30 985 H 85.8909 -3.45945 1.58196 0
M  V30 986 H 87.2029 -4.62306 1.87282 0
M  V30 987 H 86.3569 -6.06699 0.0115125 0
M  V30 988 H 85.0959 -4.86251 -0.375656 0
M  V30 989 H 84.1009 -5.15538 1.91052 0
M  V30 990 H 85.3259 -6.39337 2.28965 0
M  V30 991 H 83.2719 -6.5598 0.0518075 0
M  V30 992 H 83.1889 -7.39565 1.5678 0
M  V30 993 H 84.4569 -7.78239 0.443277 0
M  V30 994 N 88.686 -0.835752 -1.33615 0
M  V30 995 C 89.596 -0.269088 -2.33052 0
M  V30 996 C 90.612 0.603251 -1.63208 0
M  V30 997 O 91.788 0.508112 -1.94885 0
M  V30 998 C 88.853 0.549091 -3.42324 0
M  V30 999 C 87.914 -0.347156 -4.27894 0
M  V30 1000 C 87.147 0.43207 -5.31948 0
M  V30 1001 O 87.37 1.66409 -5.45586 0
M  V30 1002 O 86.304 -0.192298 -6.01593 0
M  V30 1003 H 90.13 -1.09243 -2.83372 0
M  V30 1004 H 87.715 -0.598198 -1.36901 0
M  V30 1005 H 89.597 1.01414 -4.09015 0
M  V30 1006 H 88.272 1.34955 -2.94226 0
M  V30 1007 H 87.179 -0.859979 -3.64081 0
M  V30 1008 H 88.512 -1.1123 -4.79467 0
M  V30 1009 N 90.1641 1.46063 -0.591896 0
M  V30 1010 C 91.1111 2.30399 0.136069 0
M  V30 1011 C 92.0811 1.41169 0.875238 0
M  V30 1012 O 93.2661 1.70112 0.86409 0
M  V30 1013 C 90.4061 3.25804 1.13781 0
M  V30 1014 C 89.5191 4.30134 0.401137 0
M  V30 1015 C 88.6541 5.12659 1.39121 0
M  V30 1016 C 87.6931 6.0873 0.641462 0
M  V30 1017 N 86.8301 6.8409 1.58004 0
M  V30 1018 H 91.6701 2.92118 -0.589144 0
M  V30 1019 H 89.2071 1.43959 -0.302342 0
M  V30 1020 H 91.1651 3.79569 1.73156 0
M  V30 1021 H 89.7951 2.65872 1.83062 0
M  V30 1022 H 88.8471 3.79152 -0.307826 0
M  V30 1023 H 90.1591 4.98458 -0.184565 0
M  V30 1024 H 89.3131 5.70747 2.05749 0
M  V30 1025 H 88.0521 4.44316 2.01084 0
M  V30 1026 H 87.0571 5.49786 -0.0385419 0
M  V30 1027 H 88.2821 6.79095 0.0270945 0
M  V30 1028 H 86.2281 6.18449 2.18761 0
M  V30 1029 H 86.1451 7.48709 1.04738 0
M  V30 1030 H 87.4131 7.4673 2.23639 0
M  V30 1031 N 91.6422 0.330177 1.54103 0
M  V30 1032 C 93.0582 -0.0222371 1.59585 0
M  V30 1033 C 93.2582 -1.49902 1.34654 0
M  V30 1034 O 92.3142 -2.25592 1.13421 0
M  V30 1035 C 93.6272 0.401932 2.98002 0
M  V30 1036 C 95.1752 0.353145 3.11001 0
M  V30 1037 C 95.6502 0.752576 4.51775 0
M  V30 1038 N 97.1412 0.706239 4.57784 0
M  V30 1039 C 97.8762 0.987417 5.64834 0
M  V30 1040 N 97.3722 1.33607 6.79795 0
M  V30 1041 N 99.1652 0.91254 5.54643 0
M  V30 1042 H 91.3162 1.29228 1.68564 0
M  V30 1043 H 93.5792 0.525906 0.78875 0
M  V30 1044 H 93.2852 1.4311 3.21267 0
M  V30 1045 H 93.1592 -0.229699 3.765 0
M  V30 1046 H 95.5462 -0.666822 2.87467 0
M  V30 1047 H 95.6272 1.0198 2.34593 0
M  V30 1048 H 95.2712 1.77049 4.76042 0
M  V30 1049 H 95.2012 0.0635409 5.26562 0
M  V30 1050 H 97.6922 0.44889 3.75224 0
M  V30 1051 H 98.0052 1.53582 7.57385 0
M  V30 1052 H 96.3502 1.37439 6.81275 0
M  V30 1053 H 99.5412 0.639601 4.6371 0
M  V30 1054 H 99.7142 1.13503 6.37982 0
M  V30 1055 N 93.1203 -1.57491 0.0584922 0
M  V30 1056 C 94.3973 -1.84346 -0.653918 0
M  V30 1057 C 94.7773 -0.948355 -1.88599 0
M  V30 1058 O 94.1253 -0.0112403 -2.28497 0
M  V30 1059 C 94.3353 -3.34239 -1.00425 0
M  V30 1060 C 95.6833 -4.01431 -1.38342 0
M  V30 1061 O 96.7073 -3.38907 -1.09637 0
M  V30 1062 O 95.5663 -5.11683 -1.91943 0
M  V30 1063 H 92.6603 -0.761112 -0.323478 0
M  V30 1064 H 95.2063 -1.6947 0.0884125 0
M  V30 1065 H 93.9783 -3.91089 -0.128625 0
M  V30 1066 H 93.6013 -3.54329 -1.80378 0
M  V30 1067 N 94.5984 0.214957 -1.56127 0
M  V30 1068 C 95.5284 1.2695 -1.95974 0
M  V30 1069 C 96.5094 1.48539 -0.828868 0
M  V30 1070 O 97.6944 1.60611 -1.09168 0
M  V30 1071 C 94.8244 2.61794 -2.28214 0
M  V30 1072 C 93.7784 2.54851 -3.43853 0
M  V30 1073 C 93.1044 3.93785 -3.61715 0
M  V30 1074 C 94.4044 2.09065 -4.78632 0
M  V30 1075 H 96.0984 0.93846 -2.84312 0
M  V30 1076 H 93.6444 0.449996 -1.36788 0
M  V30 1077 H 95.5974 3.35731 -2.54682 0
M  V30 1078 H 94.3214 2.96599 -1.36736 0
M  V30 1079 H 92.9804 1.8337 -3.17444 0
M  V30 1080 H 92.6284 4.25908 -2.67602 0
M  V30 1081 H 92.3284 3.90019 -4.39498 0
M  V30 1082 H 93.8524 4.69374 -3.90539 0
M  V30 1083 H 95.2664 2.7275 -5.04262 0
M  V30 1084 H 93.6634 2.16346 -5.59745 0
M  V30 1085 H 94.7334 1.04315 -4.73547 0
M  V30 1086 N 96.0765 1.50051 0.48192 0
M  V30 1087 C 97.4925 1.37237 0.814756 0
M  V30 1088 C 97.6925 0.420109 1.97072 0
M  V30 1089 O 96.7485 -0.141246 2.52105 0
M  V30 1090 C 98.0615 2.78375 1.13701 0
M  V30 1091 C 99.6095 2.87213 1.2441 0
M  V30 1092 C 100.084 4.29161 1.59954 0
M  V30 1093 N 101.575 4.32061 1.66967 0
M  V30 1094 C 102.31 5.38879 1.95952 0
M  V30 1095 N 101.806 6.55918 2.23031 0
M  V30 1096 N 103.599 5.26312 1.97363 0
M  V30 1097 H 95.7505 2.10546 -0.28005 0
M  V30 1098 H 98.0135 0.945921 -0.0627454 0
M  V30 1099 H 97.7195 3.49845 0.360787 0
M  V30 1100 H 97.5935 3.14941 2.07586 0
M  V30 1101 H 99.9805 2.15969 2.01101 0
M  V30 1102 H 100.061 2.54204 0.285299 0
M  V30 1103 H 99.7055 5.00938 0.838067 0
M  V30 1104 H 99.6355 4.59648 2.56966 0
M  V30 1105 H 102.126 3.47661 1.48123 0
M  V30 1106 H 102.439 7.33139 2.44391 0
M  V30 1107 H 100.784 6.59112 2.20447 0
M  V30 1108 H 103.975 4.33876 1.75697 0
M  V30 1109 H 104.148 6.09649 2.19618 0
M  V30 1110 N 97.5546 -0.734337 1.39446 0
M  V30 1111 C 98.5026 -1.86971 1.38364 0
M  V30 1112 C 99.4966 -1.67288 0.266687 0
M  V30 1113 O 100.703 -1.74621 0.436755 0
M  V30 1114 H 97.0776 -0.615474 0.432082 0
M  V30 1115 H 99.0486 -1.85 2.34132 0
M  V30 1116 C 97.7976 -3.2466 1.24465 0
M  V30 1117 H 97.1206 -3.40402 2.09682 0
M  V30 1118 H 98.5606 -4.04292 1.27764 0
M  V30 1119 C 97.0196 -3.36867 -0.0468674 0
M  V30 1120 O 97.5496 -3.88618 -1.01681 0
M  V30 1121 N 95.7556 -2.90391 -0.110145 0
M  V30 1122 H 95.3026 -2.48466 0.679868 0
M  V30 1123 H 95.2606 -2.98939 -0.973799 0
M  V30 1124 N 99.0327 -1.24633 -0.964593 0
M  V30 1125 C 100.28 -1.08788 -1.70796 0
M  V30 1126 C 100.608 0.372783 -1.90894 0
M  V30 1127 O 99.8627 1.29167 -1.47018 0
M  V30 1128 C 100.162 -1.7763 -3.10133 0
M  V30 1129 C 99.8277 -3.27557 -3.09866 0
M  V30 1130 C 98.4897 -3.6846 -3.09501 0
M  V30 1131 C 100.842 -4.23389 -3.03959 0
M  V30 1132 C 98.1697 -5.03624 -3.00965 0
M  V30 1133 C 100.522 -5.58565 -2.96965 0
M  V30 1134 C 99.1857 -5.98809 -2.9493 0
M  V30 1135 H 98.4557 -0.398084 -0.624988 0
M  V30 1136 H 101.103 -1.54777 -1.12767 0
M  V30 1137 H 99.4077 -1.24044 -3.71645 0
M  V30 1138 H 101.105 -1.62832 -3.66451 0
M  V30 1139 H 97.6947 -2.95006 -3.10917 0
M  V30 1140 H 101.879 -3.92787 -3.03368 0
M  V30 1141 H 97.1347 -5.33998 -2.97752 0
M  V30 1142 H 101.309 -6.32523 -2.91354 0
M  V30 1143 H 98.9357 -7.03505 -2.88071 0
M  V30 1144 N 100.511 1.16574 -1.06058 0
M  V30 1145 C 101.441 2.23057 -0.690488 0
M  V30 1146 C 102.422 1.67141 0.315901 0
M  V30 1147 O 103.607 1.93253 0.191556 0
M  V30 1148 C 100.737 3.47222 -0.073625 0
M  V30 1149 C 99.6908 4.16016 -1.00573 0
M  V30 1150 C 99.0168 5.34104 -0.252289 0
M  V30 1151 C 100.317 4.67264 -2.33371 0
M  V30 1152 H 102.011 2.54271 -1.58072 0
M  V30 1153 H 99.5568 1.22218 -0.76149 0
M  V30 1154 H 101.51 4.20939 0.19714 0
M  V30 1155 H 100.234 3.15302 0.85161 0
M  V30 1156 H 98.8928 3.44223 -1.2612 0
M  V30 1157 H 98.5408 4.98437 0.675988 0
M  V30 1158 H 98.2408 5.81072 -0.873455 0
M  V30 1159 H 99.7648 6.10599 0.0109857 0
M  V30 1160 H 101.179 5.32573 -2.12223 0
M  V30 1161 H 99.5758 5.24843 -2.90963 0
M  V30 1162 H 100.646 3.83602 -2.96611 0
M  V30 1163 N 101.989 0.842826 1.3317 0
M  V30 1164 C 102.936 0.276885 2.29133 0
M  V30 1165 C 103.906 -0.609527 1.54512 0
M  V30 1166 O 105.091 -0.546955 1.82792 0
M  V30 1167 C 102.231 -0.538707 3.40869 0
M  V30 1168 C 101.344 0.372169 4.30394 0
M  V30 1169 C 100.479 -0.454908 5.29249 0
M  V30 1170 C 99.5179 0.45411 6.10413 0
M  V30 1171 N 98.6549 -0.335075 7.013 0
M  V30 1172 H 103.495 1.10052 2.76934 0
M  V30 1173 H 101.032 0.554161 1.36262 0
M  V30 1174 H 102.99 -1.02709 4.0436 0
M  V30 1175 H 101.62 -1.32727 2.9425 0
M  V30 1176 H 100.672 0.97888 3.6759 0
M  V30 1177 H 101.984 1.0703 4.87182 0
M  V30 1178 H 101.138 -1.00695 5.98285 0
M  V30 1179 H 99.8769 -1.18646 4.73048 0
M  V30 1180 H 98.8819 1.01813 5.40291 0
M  V30 1181 H 100.107 1.18409 6.68697 0
M  V30 1182 H 98.0529 -1.04994 6.47543 0
M  V30 1183 H 97.9699 0.304262 7.55387 0
M  V30 1184 H 99.2379 -0.869224 7.74638 0
M  V30 1185 N 103.467 -1.45747 0.599634 0
M  V30 1186 C 104.397 -2.33235 -0.111306 0
M  V30 1187 C 105.378 -1.46359 -0.866781 0
M  V30 1188 O 106.563 -1.75146 -0.838904 0
M  V30 1189 C 103.693 -3.28932 -1.11451 0
M  V30 1190 C 102.647 -4.25381 -0.472772 0
M  V30 1191 C 101.973 -5.1071 -1.58365 0
M  V30 1192 C 103.273 -5.18831 0.600948 0
M  V30 1193 H 104.967 -2.92927 0.61919 0
M  V30 1194 H 102.513 -1.40857 0.299215 0
M  V30 1195 H 104.466 -3.89002 -1.62036 0
M  V30 1196 H 103.19 -2.67381 -1.8755 0
M  V30 1197 H 101.849 -3.66598 0.0121472 0
M  V30 1198 H 101.497 -4.45533 -2.33473 0
M  V30 1199 H 101.197 -5.7604 -1.15982 0
M  V30 1200 H 102.721 -5.73647 -2.09194 0
M  V30 1201 H 104.135 -5.73019 0.179491 0
M  V30 1202 H 102.532 -5.92595 0.946076 0
M  V30 1203 H 103.602 -4.6174 1.48068 0
M  V30 1204 N 104.945 -0.338344 -1.53925 0
M  V30 1205 C 105.875 0.51328 -2.27789 0
M  V30 1206 C 106.856 1.107 -1.29149 0
M  V30 1207 O 108.041 1.12937 -1.57984 0
M  V30 1208 C 105.171 1.66697 -3.04679 0
M  V30 1209 C 104.125 1.20183 -4.1078 0
M  V30 1210 C 103.451 2.44363 -4.75595 0
M  V30 1211 C 104.751 0.30605 -5.21403 0
M  V30 1212 H 106.445 -0.102883 -2.99223 0
M  V30 1213 H 103.991 -0.0509219 -1.4391 0
M  V30 1214 H 105.944 2.26915 -3.55088 0
M  V30 1215 H 104.668 2.30995 -2.30887 0
M  V30 1216 H 103.327 0.622499 -3.61276 0
M  V30 1217 H 102.975 3.07057 -3.98403 0
M  V30 1218 H 102.675 2.13925 -5.47275 0
M  V30 1219 H 104.199 3.05317 -5.28786 0
M  V30 1220 H 105.613 0.814929 -5.67478 0
M  V30 1221 H 104.01 0.0937929 -6.00027 0
M  V30 1222 H 105.08 -0.65921 -4.80398 0
M  V30 1223 N 106.423 1.57458 -0.0668435 0
M  V30 1224 C 107.37 2.12439 0.902122 0
M  V30 1225 C 108.34 1.03565 1.2986 0
M  V30 1226 O 109.525 1.312 1.38532 0
M  V30 1227 C 106.665 2.6865 2.16614 0
M  V30 1228 C 105.778 3.91663 1.82274 0
M  V30 1229 C 104.913 4.36134 3.0325 0
M  V30 1230 C 103.952 5.51808 2.64904 0
M  V30 1231 N 103.089 5.9126 3.78624 0
M  V30 1232 H 107.929 2.94934 0.426382 0
M  V30 1233 H 105.466 1.4575 0.198819 0
M  V30 1234 H 107.424 2.99346 2.90599 0
M  V30 1235 H 106.054 1.88928 2.61737 0
M  V30 1236 H 105.106 3.6746 0.983719 0
M  V30 1237 H 106.418 4.75693 1.50059 0
M  V30 1238 H 105.572 4.68465 3.85519 0
M  V30 1239 H 104.311 3.50948 3.38655 0
M  V30 1240 H 103.316 5.19133 1.81055 0
M  V30 1241 H 104.541 6.38722 2.30675 0
M  V30 1242 H 102.487 5.09024 4.138 0
M  V30 1243 H 102.404 6.70018 3.5016 0
M  V30 1244 H 103.672 6.28212 4.61486 0
M  V30 1245 N 107.901 -0.206675 1.56239 0
M  V30 1246 C 109.312 -0.772383 1.69974 0
M  V30 1247 C 109.663 -1.84353 0.671436 0
M  V30 1248 O 108.788 -2.15695 -0.174491 0
M  V30 1249 C 109.383 -1.40779 3.08167 0
M  V30 1250 C 107.942 -1.92072 3.23706 0
M  V30 1251 C 107.089 -0.786347 2.65917 0
M  V30 1252 H 110.04 0.0182223 1.5869 0
M  V30 1253 H 110.061 -2.27696 3.04852 0
M  V30 1254 H 109.573 -0.627958 3.82986 0
M  V30 1255 H 107.674 -2.7281 2.53782 0
M  V30 1256 H 107.787 -2.09046 4.31087 0
M  V30 1257 H 106.151 -1.1976 2.24788 0
M  V30 1258 H 106.934 -0.0189416 3.43295 0
M  V30 1259 N 109.379 -1.50304 -0.473955 0
M  V30 1260 C 110.79 -1.54042 -1.0549 0
M  V30 1261 C 111.141 -0.342248 -1.93192 0
M  V30 1262 O 110.266 0.545157 -2.09421 0
M  V30 1263 C 110.861 -2.79152 -1.91989 0
M  V30 1264 C 109.42 -2.8558 -2.45196 0
M  V30 1265 C 108.567 -2.48295 -1.2347 0
M  V30 1266 H 111.518 -1.5661 -0.256693 0
M  V30 1267 H 111.539 -2.60845 -2.7702 0
M  V30 1268 H 111.051 -3.66339 -1.28131 0
M  V30 1269 H 109.152 -2.02738 -3.12615 0
M  V30 1270 H 109.265 -3.88403 -2.80499 0
M  V30 1271 H 107.629 -2.00669 -1.56856 0
M  V30 1272 H 108.412 -3.37787 -0.612789 0
M  V30 1273 N 110.857 0.726932 -1.39834 0
M  V30 1274 C 111.787 1.85405 -1.41941 0
M  V30 1275 C 112.768 1.67751 -0.281728 0
M  V30 1276 O 113.953 1.8795 -0.488717 0
M  V30 1277 C 111.083 3.23243 -1.2701 0
M  V30 1278 C 110.037 3.55549 -2.38262 0
M  V30 1279 C 109.363 4.9241 -2.08415 0
M  V30 1280 C 110.663 3.577 -3.80589 0
M  V30 1281 H 112.357 1.83899 -2.36266 0
M  V30 1282 H 109.903 0.883349 -1.13723 0
M  V30 1283 H 111.856 4.01775 -1.27103 0
M  V30 1284 H 110.58 3.25296 -0.291564 0
M  V30 1285 H 109.239 2.79351 -2.37399 0
M  V30 1286 H 108.887 4.91052 -1.0898 0
M  V30 1287 H 108.587 5.14992 -2.82943 0
M  V30 1288 H 110.111 5.73289 -2.10171 0
M  V30 1289 H 111.525 4.26293 -3.83337 0
M  V30 1290 H 109.922 3.91804 -4.54543 0
M  V30 1291 H 110.992 2.57328 -4.10987 0
M  V30 1292 N 112.336 1.25143 0.95797 0
M  V30 1293 C 113.266 1.07711 2.07173 0
M  V30 1294 C 114.247 -0.0128462 1.70095 0
M  V30 1295 O 115.432 0.156061 1.93572 0
M  V30 1296 C 112.562 0.691503 3.40346 0
M  V30 1297 C 111.516 1.73132 3.9142 0
M  V30 1298 C 110.842 1.20049 5.21049 0
M  V30 1299 C 112.142 3.1294 4.1817 0
M  V30 1300 H 113.836 2.00873 2.22014 0
M  V30 1301 H 111.382 0.967191 1.06684 0
M  V30 1302 H 113.335 0.556505 4.17709 0
M  V30 1303 H 112.059 -0.275819 3.25433 0
M  V30 1304 H 110.718 1.8547 3.16222 0
M  V30 1305 H 110.366 0.223499 5.02503 0
M  V30 1306 H 110.066 1.89545 5.56189 0
M  V30 1307 H 111.59 1.07782 6.01012 0
M  V30 1308 H 113.004 3.03775 4.86203 0
M  V30 1309 H 111.401 3.79875 4.64559 0
M  V30 1310 H 112.471 3.6025 3.24573 0
M  V30 1311 N 113.814 -1.1601 1.06675 0
M  V30 1312 C 115.06 -1.87145 0.796766 0
M  V30 1313 C 115.415 -1.8037 -0.669658 0
M  V30 1314 O 114.708 -1.21116 -1.48463 0
M  V30 1315 C 114.902 -3.35547 1.23057 0
M  V30 1316 C 114.731 -3.56769 2.73762 0
M  V30 1317 C 113.501 -3.72635 3.41279 0
M  V30 1318 C 115.699 -3.55166 3.7197 0
M  V30 1319 N 113.681 -3.81845 4.80695 0
M  V30 1320 C 115.052 -3.70406 4.97191 0
M  V30 1321 C 117.107 -3.384 3.65226 0
M  V30 1322 C 115.81 -3.70615 6.16471 0
M  V30 1323 C 117.836 -3.39904 4.83962 0
M  V30 1324 C 117.198 -3.55667 6.08013 0
M  V30 1325 H 113.297 -0.702267 0.344014 0
M  V30 1326 H 115.881 -1.39165 1.36166 0
M  V30 1327 H 114.052 -3.82159 0.693456 0
M  V30 1328 H 115.784 -3.94363 0.908844 0
M  V30 1329 H 112.539 -3.73121 2.91681 0
M  V30 1330 H 112.963 -3.90209 5.53232 0
M  V30 1331 H 117.605 -3.25138 2.70269 0
M  V30 1332 H 115.323 -3.82658 7.11757 0
M  V30 1333 H 118.909 -3.28169 4.80413 0
M  V30 1334 H 117.789 -3.56755 6.98352 0
M  V30 1335 N 115.292 -0.849877 -1.32721 0
M  V30 1336 C 116.517 -0.463856 -2.02146 0
M  V30 1337 C 116.942 0.930449 -1.63476 0
M  V30 1338 O 116.3 1.61033 -0.832952 0
M  V30 1339 C 116.348 -0.604955 -3.55489 0
M  V30 1340 O 115.452 0.36425 -4.10788 0
M  V30 1341 H 114.793 -0.187046 -0.637111 0
M  V30 1342 H 117.323 -1.14775 -1.69375 0
M  V30 1343 H 117.333 -0.490696 -4.05038 0
M  V30 1344 H 116.008 -1.62174 -3.82978 0
M  V30 1345 H 114.585 0.206628 -3.72327 0
M  V30 1346 N 116.77 1.45427 -0.607355 0
M  V30 1347 C 117.72 2.27612 0.133038 0
M  V30 1348 C 118.704 1.37307 0.838785 0
M  V30 1349 O 119.896 1.61299 0.728813 0
M  V30 1350 C 117.025 3.24173 1.12991 0
M  V30 1351 C 116.111 4.21965 0.425011 0
M  V30 1352 N 116.502 5.02982 -0.533217 0
M  V30 1353 C 114.8 4.40899 0.672593 0
M  V30 1354 C 115.501 5.73931 -0.947518 0
M  V30 1355 N 114.477 5.42819 -0.291321 0
M  V30 1356 H 118.279 2.87649 -0.602935 0
M  V30 1357 H 115.793 1.56576 -0.431006 0
M  V30 1358 H 117.79 3.81783 1.67473 0
M  V30 1359 H 116.45 2.65696 1.86644 0
M  V30 1360 H 117.461 5.09843 -0.90995 0
M  V30 1361 H 114.138 3.93547 1.39382 0
M  V30 1362 H 115.528 6.49037 -1.73782 0
M  V30 1363 N 118.248 0.346503 1.53744 0
M  V30 1364 C 119.496 -0.248612 2.00565 0
M  V30 1365 C 119.817 -1.5083 1.23593 0
M  V30 1366 O 119.087 -1.92858 0.343912 0
M  V30 1367 H 117.667 -0.0948564 0.740953 0
M  V30 1368 H 120.329 0.468341 1.89189 0
M  V30 1369 H 119.425 -0.488994 3.08245 0
M  V30 1370 N 119.726 -1.57421 0.075193 0
M  V30 1371 C 120.656 -2.15942 -0.888324 0
M  V30 1372 C 121.637 -1.08737 -1.30806 0
M  V30 1373 O 122.822 -1.36787 -1.37851 0
M  V30 1374 C 119.952 -2.72379 -2.1547 0
M  V30 1375 C 118.906 -3.8478 -1.87425 0
M  V30 1376 C 118.232 -4.27834 -3.20721 0
M  V30 1377 C 119.532 -5.08869 -1.17684 0
M  V30 1378 H 121.226 -2.96705 -0.400799 0
M  V30 1379 H 118.772 -1.42723 -0.191342 0
M  V30 1380 H 120.725 -3.11965 -2.83295 0
M  V30 1381 H 119.449 -1.88841 -2.6647 0
M  V30 1382 H 118.108 -3.45703 -1.22004 0
M  V30 1383 H 117.756 -3.41214 -3.6957 0
M  V30 1384 H 117.456 -5.03605 -3.02746 0
M  V30 1385 H 118.98 -4.70039 -3.89738 0
M  V30 1386 H 120.394 -5.4575 -1.75584 0
M  V30 1387 H 118.791 -5.8994 -1.09956 0
M  V30 1388 H 119.861 -4.84648 -0.156453 0
M  V30 1389 N 121.204 0.198386 -1.56346 0
M  V30 1390 C 122.453 0.917451 -1.79627 0
M  V30 1391 C 122.766 1.8456 -0.64784 0
M  V30 1392 O 123.972 2.60504 -0.764859 0
M  V30 1393 C 122.428 1.68175 -3.18191 0
M  V30 1394 C 122.036 0.798589 -4.40825 0
M  V30 1395 C 123.78 2.39065 -3.50782 0
M  V30 1396 C 121.687 1.56157 -5.70411 0
M  V30 1397 H 120.617 0.346317 -0.669762 0
M  V30 1398 H 123.268 0.170801 -1.82703 0
M  V30 1399 H 121.65 2.47216 -3.09354 0
M  V30 1400 H 122.824 0.0470665 -4.60776 0
M  V30 1401 H 121.139 0.200686 -4.15916 0
M  V30 1402 H 123.736 2.96692 -4.44835 0
M  V30 1403 H 124.079 3.13091 -2.74371 0
M  V30 1404 H 124.612 1.66993 -3.61052 0
M  V30 1405 H 121.351 0.864142 -6.49779 0
M  V30 1406 H 120.871 2.2871 -5.54483 0
M  V30 1407 H 122.55 2.11622 -6.11412 0
M  V30 1408 N 122.682 1.50554 0.465978 0
M  V30 1409 C 124.098 1.38093 0.800154 0
M  V30 1410 C 124.298 0.440988 1.96615 0
M  V30 1411 O 123.354 -0.114499 2.5224 0
M  V30 1412 C 124.667 2.79565 1.10742 0
M  V30 1413 C 126.215 2.88516 1.21357 0
M  V30 1414 C 126.69 4.30833 1.55393 0
M  V30 1415 N 128.181 4.33807 1.62375 0
M  V30 1416 C 128.916 5.40927 1.90225 0
M  V30 1417 N 128.412 6.58247 2.16062 0
M  V30 1418 N 130.205 5.28376 1.9177 0
M  V30 1419 H 122.356 2.10237 -0.302366 0
M  V30 1420 H 124.619 0.945203 -0.0727746 0
M  V30 1421 H 124.325 3.50208 0.323661 0
M  V30 1422 H 124.199 3.17125 2.04234 0
M  V30 1423 H 126.586 2.1809 1.98799 0
M  V30 1424 H 126.667 2.54492 0.258321 0
M  V30 1425 H 126.311 5.01799 0.784889 0
M  V30 1426 H 126.241 4.62347 2.52076 0
M  V30 1427 H 128.732 3.49212 1.44427 0
M  V30 1428 H 129.045 7.3569 2.36601 0
M  V30 1429 H 127.39 6.61413 2.13444 0
M  V30 1430 H 130.581 4.35715 1.71085 0
M  V30 1431 H 130.754 6.11944 2.13139 0
M  V30 1432 N 124.16 -0.719506 1.40217 0
M  V30 1433 C 125.409 -1.47486 1.37589 0
M  V30 1434 C 125.722 -1.9559 -0.0201568 0
M  V30 1435 O 126.928 -2.70973 -0.169049 0
M  V30 1436 C 125.384 -2.66575 2.41796 0
M  V30 1437 C 124.992 -2.25358 3.87192 0
M  V30 1438 C 126.736 -3.4433 2.48269 0
M  V30 1439 C 124.643 -3.41262 4.83005 0
M  V30 1440 H 123.573 -0.553901 0.511576 0
M  V30 1441 H 126.224 -0.783427 1.65936 0
M  V30 1442 H 124.606 -3.3787 2.06543 0
M  V30 1443 H 125.78 -1.61509 4.31569 0
M  V30 1444 H 124.095 -1.60657 3.84159 0
M  V30 1445 H 126.692 -4.30569 3.17041 0
M  V30 1446 H 127.035 -3.87872 1.51198 0
M  V30 1447 H 127.568 -2.80076 2.82493 0
M  V30 1448 H 124.307 -3.02755 5.81394 0
M  V30 1449 H 123.827 -4.0404 4.43297 0
M  V30 1450 H 125.506 -4.07383 5.02641 0
M  V30 1451 N 125.638 -1.25649 -0.95132 0
M  V30 1452 C 126.887 -1.09988 -1.69073 0
M  V30 1453 C 127.2 0.358355 -1.92289 0
M  V30 1454 O 128.406 0.635466 -2.63958 0
M  V30 1455 C 126.862 -1.92012 -3.044 0
M  V30 1456 C 126.47 -3.42347 -2.88968 0
M  V30 1457 C 128.214 -1.8493 -3.82101 0
M  V30 1458 C 126.121 -4.16655 -4.19705 0
M  V30 1459 H 125.051 -0.407993 -0.63408 0
M  V30 1460 H 127.702 -1.49873 -1.05879 0
M  V30 1461 H 126.084 -1.44952 -3.68517 0
M  V30 1462 H 127.258 -3.97104 -2.33762 0
M  V30 1463 H 125.573 -3.50557 -2.24719 0
M  V30 1464 H 128.17 -2.37739 -4.78941 0
M  V30 1465 H 128.513 -0.817883 -4.08187 0
M  V30 1466 H 129.046 -2.29758 -3.2474 0
M  V30 1467 H 125.785 -5.20224 -3.98807 0
M  V30 1468 H 125.305 -3.66681 -4.74663 0
M  V30 1469 H 126.984 -4.24551 -4.88227 0
M  V30 1470 N 127.117 1.15442 -1.07289 0
M  V30 1471 C 128.533 1.38201 -0.798288 0
M  V30 1472 C 128.733 1.92429 0.597769 0
M  V30 1473 O 127.789 2.12962 1.3566 0
M  V30 1474 C 129.102 2.35357 -1.87156 0
M  V30 1475 C 130.65 2.49021 -1.89624 0
M  V30 1476 C 131.125 3.49468 -2.96034 0
M  V30 1477 N 132.616 3.57003 -2.95132 0
M  V30 1478 C 133.351 4.34543 -3.74112 0
M  V30 1479 N 132.847 5.15421 -4.6294 0
M  V30 1480 N 134.64 4.29625 -3.62462 0
M  V30 1481 H 126.791 0.78584 -1.97328 0
M  V30 1482 H 129.054 0.408065 -0.855679 0
M  V30 1483 H 128.76 2.02626 -2.87464 0
M  V30 1484 H 128.634 3.35129 -1.73114 0
M  V30 1485 H 131.021 2.81051 -0.899687 0
M  V30 1486 H 131.102 1.4925 -2.07745 0
M  V30 1487 H 130.746 3.18173 -3.95889 0
M  V30 1488 H 130.676 4.48992 -2.75161 0
M  V30 1489 H 133.167 2.99276 -2.30743 0
M  V30 1490 H 133.48 5.7183 -5.19837 0
M  V30 1491 H 131.825 5.14729 -4.66989 0
M  V30 1492 H 135.016 3.65505 -2.92444 0
M  V30 1493 H 135.189 4.89807 -4.24256 0
M  V30 1494 N 128.595 0.856903 1.32268 0
M  V30 1495 C 129.558 0.308171 2.27119 0
M  V30 1496 C 130.558 -0.533421 1.51695 0
M  V30 1497 O 131.748 -0.344607 1.70757 0
M  V30 1498 C 128.88 -0.563757 3.36206 0
M  V30 1499 H 130.073 1.14535 2.77167 0
M  V30 1500 H 127.626 0.631421 1.42978 0
M  V30 1501 H 128.361 -1.42266 2.91429 0
M  V30 1502 H 128.146 0.0386749 3.92081 0
M  V30 1503 H 129.636 -0.940386 4.06874 0
M  V30 1504 N 130.073 -1.45103 0.615059 0
M  V30 1505 C 131.02 -2.30586 -0.0993978 0
M  V30 1506 C 131.99 -1.42544 -0.852669 0
M  V30 1507 O 133.175 -1.71465 -0.836917 0
M  V30 1508 C 130.315 -3.27572 -1.08583 0
M  V30 1509 C 129.428 -4.30717 -0.332656 0
M  V30 1510 C 128.563 -5.14807 -1.30947 0
M  V30 1511 C 127.602 -6.09673 -0.544538 0
M  V30 1512 N 126.739 -6.86517 -1.47101 0
M  V30 1513 H 131.579 -2.91144 0.635542 0
M  V30 1514 H 129.116 -1.4346 0.325206 0
M  V30 1515 H 131.074 -3.82276 -1.67095 0
M  V30 1516 H 129.704 -2.68751 -1.78809 0
M  V30 1517 H 128.756 -3.78615 0.368107 0
M  V30 1518 H 130.068 -4.98102 0.263842 0
M  V30 1519 H 129.222 -5.73948 -1.96643 0
M  V30 1520 H 127.961 -4.47458 -1.9399 0
M  V30 1521 H 126.966 -5.49656 0.126003 0
M  V30 1522 H 128.191 -6.79052 0.080947 0
M  V30 1523 H 126.137 -6.21851 -2.08895 0
M  V30 1524 H 126.054 -7.50281 -0.928137 0
M  V30 1525 H 127.322 -7.50194 -2.11731 0
M  V30 1526 N 131.551 -0.354651 -1.53558 0
M  V30 1527 C 132.514 0.484566 -2.24019 0
M  V30 1528 C 133.514 1.01861 -1.24422 0
M  V30 1529 O 134.704 0.906097 -1.4878 0
M  V30 1530 C 131.836 1.67615 -2.96847 0
M  V30 1531 H 133.029 -0.131843 -2.9961 0
M  V30 1532 H 130.582 -0.106165 -1.55939 0
M  V30 1533 H 131.317 2.33095 -2.25471 0
M  V30 1534 H 131.102 1.30029 -3.69912 0
M  V30 1535 H 132.592 2.27114 -3.50441 0
M  V30 1536 N 133.029 1.57378 -0.0835403 0
M  V30 1537 C 134.257 1.98263 0.59157 0
M  V30 1538 C 134.672 0.962302 1.62435 0
M  V30 1539 O 134.029 -0.049581 1.82433 0
M  V30 1540 C 134.08 3.39214 1.24965 0
M  V30 1541 O 133.801 4.37339 0.258186 0
M  V30 1542 C 135.302 3.95038 2.01147 0
M  V30 1543 H 132.522 0.651773 0.159477 0
M  V30 1544 H 135.066 2.03878 -0.159415 0
M  V30 1545 H 133.221 3.34649 1.95164 0
M  V30 1546 H 133.635 5.19371 0.731734 0
M  V30 1547 H 135.109 4.95848 2.42567 0
M  V30 1548 H 135.586 3.32222 2.87272 0
M  V30 1549 H 136.192 4.0304 1.35789 0
M  V30 1550 N 134.507 -0.190092 1.56449 0
M  V30 1551 C 135.735 -0.925772 1.85033 0
M  V30 1552 C 136.15 -1.76638 0.666658 0
M  V30 1553 O 135.507 -1.78822 -0.364565 0
M  V30 1554 C 135.558 -1.81786 3.12468 0
M  V30 1555 O 135.279 -1.01118 4.26271 0
M  V30 1556 C 136.78 -2.6648 3.54265 0
M  V30 1557 H 134 -0.269872 0.614337 0
M  V30 1558 H 136.544 -0.195837 2.0356 0
M  V30 1559 H 134.699 -2.50136 2.95822 0
M  V30 1560 H 135.113 -1.61956 4.98869 0
M  V30 1561 H 136.587 -3.24722 4.46385 0
M  V30 1562 H 137.064 -3.40434 2.77491 0
M  V30 1563 H 137.67 -2.03493 3.73458 0
M  V30 1564 N 135.985 -1.50799 -0.457987 0
M  V30 1565 C 137.262 -1.52968 -1.21902 0
M  V30 1566 C 137.642 -0.281906 -2.09209 0
M  V30 1567 O 136.99 0.734076 -2.16388 0
M  V30 1568 C 137.2 -2.8326 -2.03875 0
M  V30 1569 C 138.548 -3.34425 -2.6162 0
M  V30 1570 O 139.572 -2.8467 -2.14106 0
M  V30 1571 O 138.431 -4.21188 -3.48228 0
M  V30 1572 H 135.525 -0.614129 -0.553873 0
M  V30 1573 H 138.071 -1.63098 -0.468739 0
M  V30 1574 H 136.843 -3.65543 -1.39621 0
M  V30 1575 H 136.466 -2.76195 -2.8601 0
M  V30 1576 N 137.463 0.71206 -1.40597 0
M  V30 1577 C 138.703 1.48438 -1.40519 0
M  V30 1578 C 139.067 1.91998 -0.00767611 0
M  V30 1579 O 140.268 2.6854 0.118239 0
M  V30 1580 C 138.539 2.67514 -2.37004 0
M  V30 1581 S 140.098 3.56875 -2.55315 0
M  V30 1582 H 136.916 0.507457 -0.498005 0
M  V30 1583 H 139.518 0.832355 -1.76896 0
M  V30 1584 H 138.222 2.33689 -3.37368 0
M  V30 1585 H 137.753 3.37625 -2.01923 0
M  V30 1586 H 139.768 4.62081 -1.8082 0
M  V30 1587 N 138.941 1.26152 0.944643 0
M  V30 1588 C 139.889 1.07215 2.06417 0
M  V30 1589 C 140.883 9.2007e-05 1.694 0
M  V30 1590 O 142.089 0.1565 1.79318 0
M  V30 1591 H 138.464 0.329837 0.675805 0
M  V30 1592 H 140.435 2.02099 2.19541 0
M  V30 1593 C 139.184 0.718197 3.40202 0
M  V30 1594 H 138.507 1.53497 3.69159 0
M  V30 1595 H 139.947 0.625459 4.19361 0
M  V30 1596 C 138.406 -0.576435 3.31932 0
M  V30 1597 O 138.936 -1.61574 3.67773 0
M  V30 1598 N 137.142 -0.565781 2.85039 0
M  V30 1599 H 136.689 0.280367 2.5607 0
M  V30 1600 H 136.647 -1.43213 2.79888 0
M  V30 1601 N 140.419 -1.14872 1.07899 0
M  V30 1602 C 141.644 -1.90202 0.826926 0
M  V30 1603 C 142.069 -1.77774 -0.614664 0
M  V30 1604 O 141.427 -1.11431 -1.43013 0
M  V30 1605 C 141.475 -3.38352 1.24702 0
M  V30 1606 O 140.579 -4.10497 0.39575 0
M  V30 1607 H 139.92 -0.591968 0.300782 0
M  V30 1608 H 142.45 -1.45437 1.43907 0
M  V30 1609 H 142.46 -3.89156 1.22563 0
M  V30 1610 H 141.135 -3.46715 2.29698 0
M  V30 1611 H 139.712 -3.69796 0.480117 0
M  V30 1612 N 141.898 -0.863906 -1.31812 0
M  V30 1613 C 142.828 -0.330843 -2.31144 0
M  V30 1614 C 143.809 0.575005 -1.60087 0
M  V30 1615 O 144.994 0.493304 -1.8783 0
M  V30 1616 C 142.124 0.47374 -3.44054 0
M  V30 1617 C 141.078 -0.338481 -4.26659 0
M  V30 1618 C 140.404 0.591412 -5.31419 0
M  V30 1619 C 141.704 -1.56926 -4.98168 0
M  V30 1620 H 143.398 -1.16086 -2.75979 0
M  V30 1621 H 140.944 -0.559657 -1.32679 0
M  V30 1622 H 142.897 0.857143 -4.12591 0
M  V30 1623 H 141.621 1.33721 -2.9797 0
M  V30 1624 H 140.28 -0.703754 -3.59782 0
M  V30 1625 H 139.928 1.45199 -4.81587 0
M  V30 1626 H 139.628 0.0519022 -5.87577 0
M  V30 1627 H 141.152 0.97179 -6.02817 0
M  V30 1628 H 142.566 -1.25764 -5.59336 0
M  V30 1629 H 140.963 -2.04739 -5.64094 0
M  V30 1630 H 142.033 -2.32544 -4.25501 0
M  V30 1631 N 143.376 1.44774 -0.622745 0
M  V30 1632 C 144.324 2.32387 0.0994683 0
M  V30 1633 C 145.318 1.46859 0.844326 0
M  V30 1634 O 146.524 1.63254 0.758174 0
M  V30 1635 H 142.899 0.750273 0.0509291 0
M  V30 1636 H 144.87 2.91062 -0.65767 0
M  V30 1637 C 143.619 3.30723 1.07319 0
M  V30 1638 H 142.942 3.96541 0.509462 0
M  V30 1639 H 144.382 3.94725 1.54817 0
M  V30 1640 C 142.841 2.59021 2.15429 0
M  V30 1641 O 143.371 2.38286 3.23393 0
M  V30 1642 N 141.577 2.189 1.91131 0
M  V30 1643 H 141.124 2.35964 1.03337 0
M  V30 1644 H 141.082 1.71251 2.63668 0
M  V30 1645 N 144.854 0.36279 1.53368 0
M  V30 1646 C 146.102 -0.227326 2.00817 0
M  V30 1647 C 146.423 -1.49511 1.25186 0
M  V30 1648 O 145.693 -1.92482 0.364348 0
M  V30 1649 H 144.273 -0.0869923 0.741917 0
M  V30 1650 H 146.935 0.488381 1.88682 0
M  V30 1651 H 146.031 -0.456273 3.08747 0
M  V30 1652 N 146.332 -1.57332 0.0918853 0
M  V30 1653 C 147.578 -1.94524 -0.573425 0
M  V30 1654 C 147.911 -0.973578 -1.68033 0
M  V30 1655 O 147.186 -0.00609226 -1.94499 0
M  V30 1656 C 147.469 -3.41858 -1.13161 0
M  V30 1657 C 147.322 -4.4979 -0.0299747 0
M  V30 1658 C 148.641 -3.90435 -2.03098 0
M  V30 1659 H 145.76 -0.70734 -0.206975 0
M  V30 1660 H 148.402 -1.89309 0.161942 0
M  V30 1661 H 146.552 -3.46433 -1.7583 0
M  V30 1662 H 148.224 -4.57327 0.604112 0
M  V30 1663 H 146.467 -4.291 0.636833 0
M  V30 1664 H 147.138 -5.50069 -0.461287 0
M  V30 1665 H 149.614 -3.87992 -1.50338 0
M  V30 1666 H 148.49 -4.94097 -2.39081 0
M  V30 1667 H 148.751 -3.29541 -2.94712 0
M  V30 1668 N 147.81 0.181792 -1.56548 0
M  V30 1669 C 148.74 1.22765 -1.98623 0
M  V30 1670 C 149.721 1.46747 -0.860189 0
M  V30 1671 O 150.906 1.58259 -1.12551 0
M  V30 1672 C 148.036 2.56894 -2.33715 0
M  V30 1673 C 146.99 2.475 -3.49182 0
M  V30 1674 C 146.316 3.86023 -3.69986 0
M  V30 1675 C 147.616 1.98866 -4.82959 0
M  V30 1676 H 149.31 0.877942 -2.86239 0
M  V30 1677 H 146.856 0.42088 -1.37712 0
M  V30 1678 H 148.809 3.30253 -2.61746 0
M  V30 1679 H 147.533 2.93632 -1.42997 0
M  V30 1680 H 146.192 1.76596 -3.21262 0
M  V30 1681 H 145.84 4.20136 -2.76576 0
M  V30 1682 H 145.54 3.80609 -4.47672 0
M  V30 1683 H 147.064 4.60984 -4.00407 0
M  V30 1684 H 148.478 2.61992 -5.09934 0
M  V30 1685 H 146.875 2.04424 -5.64208 0
M  V30 1686 H 147.945 0.942465 -4.75653 0
M  V30 1687 N 149.288 1.51039 0.449983 0
M  V30 1688 C 150.22 1.67617 1.56324 0
M  V30 1689 C 151.233 0.557083 1.52972 0
M  V30 1690 O 152.422 0.830989 1.57977 0
M  V30 1691 C 149.522 1.66402 2.95235 0
M  V30 1692 C 148.695 2.9469 3.23229 0
M  V30 1693 C 147.754 2.85832 4.41799 0
M  V30 1694 O 146.78 3.59785 4.41071 0
M  V30 1695 N 147.982 2.00821 5.44657 0
M  V30 1696 H 150.747 2.63648 1.42512 0
M  V30 1697 H 148.308 1.48767 0.638737 0
M  V30 1698 H 150.3 1.58062 3.72557 0
M  V30 1699 H 148.87 0.780182 3.02708 0
M  V30 1700 H 148.09 3.16996 2.34323 0
M  V30 1701 H 149.378 3.79636 3.38754 0
M  V30 1702 H 148.776 1.40091 5.48079 0
M  V30 1703 H 147.333 1.98368 6.20881 0
M  V30 1704 N 150.766 -0.704594 1.40972 0
M  V30 1705 C 152.006 -1.47691 1.41304 0
M  V30 1706 C 152.37 -1.91992 0.0178582 0
M  V30 1707 O 153.571 -2.68599 -0.103996 0
M  V30 1708 C 151.842 -2.66254 2.38419 0
M  V30 1709 S 153.401 -3.55516 2.57204 0
M  V30 1710 H 150.219 -0.504808 0.500689 0
M  V30 1711 H 152.821 -0.822962 1.77335 0
M  V30 1712 H 151.525 -2.31897 3.38603 0
M  V30 1713 H 151.056 -3.3655 2.03711 0
M  V30 1714 H 153.071 -4.61115 1.83268 0
M  V30 1715 N 152.244 -1.26651 -0.937939 0
M  V30 1716 C 153.472 -1.15173 -1.7188 0
M  V30 1717 C 153.887 0.292668 -1.86518 0
M  V30 1718 O 153.244 1.20014 -1.37488 0
M  V30 1719 C 153.295 -1.81925 -3.12387 0
M  V30 1720 O 153.016 -3.2072 -2.98446 0
M  V30 1721 C 154.517 -1.76442 -4.06673 0
M  V30 1722 H 151.737 -0.400911 -0.538063 0
M  V30 1723 H 154.281 -1.67332 -1.1756 0
M  V30 1724 H 152.436 -1.33696 -3.63599 0
M  V30 1725 H 152.85 -3.53802 -3.872 0
M  V30 1726 H 154.324 -2.27781 -5.02812 0
M  V30 1727 H 154.801 -0.731608 -4.33064 0
M  V30 1728 H 155.407 -2.24238 -3.61382 0
M  V30 1729 N 153.722 1.14298 -1.08507 0
M  V30 1730 C 154.962 1.87016 -0.824894 0
M  V30 1731 C 155.326 1.81099 0.637735 0
M  V30 1732 O 156.527 2.48963 1.01345 0
M  V30 1733 C 154.798 3.31584 -1.33368 0
M  V30 1734 S 156.357 4.21903 -1.20596 0
M  V30 1735 H 153.175 0.645259 -0.2986 0
M  V30 1736 H 155.777 1.37822 -1.38656 0
M  V30 1737 H 154.481 3.33439 -2.39262 0
M  V30 1738 H 154.012 3.85836 -0.767734 0
M  V30 1739 H 156.027 4.95971 -0.150891 0
M  V30 1740 N 155.201 0.870884 1.31352 0
M  V30 1741 C 156.111 0.330783 2.32256 0
M  V30 1742 C 157.127 -0.559767 1.6475 0
M  V30 1743 O 158.303 -0.456263 1.96164 0
M  V30 1744 C 155.368 -0.458137 3.4366 0
M  V30 1745 C 154.429 0.460482 4.26823 0
M  V30 1746 C 153.662 -0.290881 5.32907 0
M  V30 1747 O 153.885 -1.51885 5.49806 0
M  V30 1748 O 152.819 0.351732 6.00871 0
M  V30 1749 H 156.645 1.16718 2.80376 0
M  V30 1750 H 154.23 0.634285 1.35267 0
M  V30 1751 H 156.112 -0.905343 4.1156 0
M  V30 1752 H 154.787 -1.27106 2.97701 0
M  V30 1753 H 153.694 0.956207 3.61673 0
M  V30 1754 H 155.027 1.23903 4.7635 0
M  V30 1755 N 156.679 -1.44442 0.630414 0
M  V30 1756 C 157.956 -1.9549 0.0655657 0
M  V30 1757 C 158.336 -1.5724 -1.40851 0
M  V30 1758 O 157.684 -0.846116 -2.12257 0
M  V30 1759 C 157.894 -3.47812 0.287691 0
M  V30 1760 C 159.242 -4.24216 0.180513 0
M  V30 1761 O 160.266 -3.55526 0.219019 0
M  V30 1762 O 159.125 -5.46434 0.0848493 0
M  V30 1763 H 156.219 -0.826688 -0.0227177 0
M  V30 1764 H 158.765 -1.54496 0.702068 0
M  V30 1765 H 157.537 -3.687 1.31056 0
M  V30 1766 H 157.16 -3.95751 -0.382984 0
M  V30 1767 N 158.157 -0.370918 -1.53173 0
M  V30 1768 C 159.382 0.220293 -2.06227 0
M  V30 1769 C 159.807 1.41243 -1.24225 0
M  V30 1770 O 159.165 1.79387 -0.262645 0
M  V30 1771 C 159.213 0.586663 -3.55796 0
M  V30 1772 O 158.317 1.68317 -3.76488 0
M  V30 1773 H 157.658 0.0308099 -0.663285 0
M  V30 1774 H 160.188 -0.533068 -1.97534 0
M  V30 1775 H 160.198 0.85617 -3.98916 0
M  V30 1776 H 158.873 -0.285013 -4.14922 0
M  V30 1777 H 157.45 1.40881 -3.45264 0
M  V30 1778 N 159.635 1.57281 -0.100228 0
M  V30 1779 C 160.865 1.98591 0.569681 0
M  V30 1780 C 161.273 0.978315 1.61943 0
M  V30 1781 O 160.616 -0.0396108 1.83657 0
M  V30 1782 C 160.678 3.36282 1.271 0
M  V30 1783 C 160.342 4.55488 0.371409 0
M  V30 1784 C 161.339 5.18491 -0.382504 0
M  V30 1785 C 159.024 5.01474 0.287965 0
M  V30 1786 C 161.018 6.25852 -1.20779 0
M  V30 1787 C 158.705 6.08701 -0.540965 0
M  V30 1788 C 159.703 6.70755 -1.28749 0
M  V30 1789 O 159.391 7.75914 -2.10269 0
M  V30 1790 H 159.123 0.65752 0.156982 0
M  V30 1791 H 161.677 2.0463 -0.177734 0
M  V30 1792 H 159.907 3.26941 2.0651 0
M  V30 1793 H 161.596 3.62005 1.83595 0
M  V30 1794 H 162.362 4.83891 -0.3278 0
M  V30 1795 H 158.241 4.52932 0.858689 0
M  V30 1796 H 161.785 6.74218 -1.79096 0
M  V30 1797 H 157.682 6.42732 -0.597131 0
M  V30 1798 H 158.45 7.92925 -2.03007 0
M  V30 1799 N 161.113 -0.173488 1.56642 0
M  V30 1800 C 162.341 -0.906095 1.86004 0
M  V30 1801 C 162.756 -1.75921 0.685355 0
M  V30 1802 O 162.113 -1.79198 -0.345578 0
M  V30 1803 C 162.164 -1.78462 3.14378 0
M  V30 1804 O 161.885 -0.965914 4.27319 0
M  V30 1805 C 163.386 -2.62707 3.57071 0
M  V30 1806 H 160.606 -0.263341 0.617165 0
M  V30 1807 H 163.15 -0.174236 2.03756 0
M  V30 1808 H 161.305 -2.46984 2.98459 0
M  V30 1809 H 161.719 -1.56655 5.00559 0
M  V30 1810 H 163.193 -3.19969 4.49804 0
M  V30 1811 H 163.67 -3.37472 2.81086 0
M  V30 1812 H 164.276 -1.99521 3.75595 0
M  V30 1813 N 162.591 -1.51276 -0.441967 0
M  V30 1814 C 163.837 -1.6492 -1.1905 0
M  V30 1815 C 164.192 -0.358731 -1.89026 0
M  V30 1816 O 163.485 0.645193 -1.8041 0
M  V30 1817 C 163.679 -2.78746 -2.23686 0
M  V30 1818 C 163.508 -4.18737 -1.63979 0
M  V30 1819 C 162.278 -4.84739 -1.42674 0
M  V30 1820 C 164.476 -5.01988 -1.11858 0
M  V30 1821 N 162.458 -6.08858 -0.785159 0
M  V30 1822 C 163.829 -6.17071 -0.601989 0
M  V30 1823 C 165.884 -4.87551 -1.0099 0
M  V30 1824 C 164.587 -7.19299 0.0126012 0
M  V30 1825 C 166.613 -5.89983 -0.409206 0
M  V30 1826 C 165.975 -7.04333 0.0968651 0
M  V30 1827 H 162.074 -0.657416 -0.423471 0
M  V30 1828 H 164.658 -1.8849 -0.48782 0
M  V30 1829 H 162.829 -2.56848 -2.91348 0
M  V30 1830 H 164.561 -2.81595 -2.90666 0
M  V30 1831 H 161.316 -4.42528 -1.68719 0
M  V30 1832 H 161.74 -6.75282 -0.481942 0
M  V30 1833 H 166.382 -3.99401 -1.38703 0
M  V30 1834 H 164.1 -8.071 0.401879 0
M  V30 1835 H 167.686 -5.8088 -0.327079 0
M  V30 1836 H 166.566 -7.82238 0.554373 0
M  V30 1837 N 164.069 0.697108 -1.41344 0
M  V30 1838 C 165.316 1.45714 -1.40619 0
M  V30 1839 C 165.644 1.94494 -0.0147907 0
M  V30 1840 O 164.899 1.69794 0.973066 0
M  V30 1841 C 165.198 2.68553 -2.35826 0
M  V30 1842 C 164.864 2.38438 -3.82698 0
M  V30 1843 C 163.526 2.29936 -4.22709 0
M  V30 1844 C 165.878 2.13567 -4.75435 0
M  V30 1845 C 163.206 1.94656 -5.53467 0
M  V30 1846 C 165.558 1.79797 -6.06511 0
M  V30 1847 C 164.222 1.69789 -6.45545 0
M  V30 1848 H 163.492 0.533206 -0.51456 0
M  V30 1849 H 166.139 0.796901 -1.74131 0
M  V30 1850 H 164.444 3.39503 -1.95563 0
M  V30 1851 H 166.141 3.2669 -2.32539 0
M  V30 1852 H 162.731 2.4595 -3.51008 0
M  V30 1853 H 166.915 2.19082 -4.45328 0
M  V30 1854 H 162.171 1.8546 -5.82593 0
M  V30 1855 H 166.345 1.59572 -6.77872 0
M  V30 1856 H 163.972 1.4222 -7.46778 0
M  V30 1857 N 165.547 1.27147 0.931209 0
M  V30 1858 C 166.958 1.12044 1.49342 0
M  V30 1859 C 167.309 -0.295795 1.93957 0
M  V30 1860 O 166.434 -1.18835 1.80852 0
M  V30 1861 C 167.029 2.02781 2.71414 0
M  V30 1862 C 165.588 1.91794 3.2387 0
M  V30 1863 C 164.735 1.95543 1.96617 0
M  V30 1864 H 167.686 1.40091 0.745672 0
M  V30 1865 H 167.707 1.58156 3.46074 0
M  V30 1866 H 167.219 3.05848 2.38911 0
M  V30 1867 H 165.32 0.916992 3.6114 0
M  V30 1868 H 165.433 2.77852 3.90302 0
M  V30 1869 H 163.797 1.39722 2.12955 0
M  V30 1870 H 164.58 3.00259 1.66432 0
M  V30 1871 N 167.025 -1.13721 1.09112 0
M  V30 1872 C 168.436 -1.6648 0.845068 0
M  V30 1873 C 168.787 -1.85911 -0.62701 0
M  V30 1874 O 167.912 -1.57556 -1.48341 0
M  V30 1875 C 168.507 -3.02413 1.52748 0
M  V30 1876 C 167.066 -3.52176 1.32849 0
M  V30 1877 C 166.213 -2.27492 1.58564 0
M  V30 1878 H 169.164 -0.976872 1.25072 0
M  V30 1879 H 169.185 -3.68223 0.958752 0
M  V30 1880 H 168.697 -2.88238 2.59885 0
M  V30 1881 H 166.798 -3.7156 0.278137 0
M  V30 1882 H 166.911 -4.32499 2.0611 0
M  V30 1883 H 165.275 -2.33923 1.00758 0
M  V30 1884 H 166.058 -2.15886 2.66924 0
M  V30 1885 N 168.503 -0.877838 -1.30888 0
M  V30 1886 C 169.728 -0.506629 -2.01117 0
M  V30 1887 C 170.153 0.895564 -1.65412 0
M  V30 1888 O 169.511 1.5923 -0.866922 0
M  V30 1889 C 169.559 -0.680223 -3.54126 0
M  V30 1890 O 168.663 0.277033 -4.11468 0
M  V30 1891 H 168.004 -0.200518 -0.633 0
M  V30 1892 H 170.534 -1.18342 -1.66902 0
M  V30 1893 H 170.544 -0.5765 -4.03907 0
M  V30 1894 H 169.219 -1.70261 -3.79452 0
M  V30 1895 H 167.796 0.127606 -3.72682 0
M  V30 1896 N 169.982 1.44106 -0.638065 0
M  V30 1897 C 171.222 2.03858 -0.148733 0
M  V30 1898 C 171.586 1.49153 1.20903 0
M  V30 1899 O 172.787 2.00452 1.79088 0
M  V30 1900 C 171.058 3.57117 -0.142314 0
M  V30 1901 S 172.617 4.37897 0.281385 0
M  V30 1902 H 169.435 0.708069 -0.0644912 0
M  V30 1903 H 172.037 1.7639 -0.843009 0
M  V30 1904 H 170.741 3.94436 -1.13349 0
M  V30 1905 H 170.272 3.89205 0.572988 0
M  V30 1906 H 172.287 4.72218 1.52395 0
M  V30 1907 N 171.46 0.379036 1.52974 0
M  V30 1908 C 172.39 -0.452706 2.29069 0
M  V30 1909 C 173.371 -1.07237 1.32039 0
M  V30 1910 O 174.556 -1.08708 1.60923 0
M  V30 1911 C 171.686 -1.5856 3.08992 0
M  V30 1912 C 170.64 -1.0925 4.13822 0
M  V30 1913 C 169.966 -2.31668 4.81907 0
M  V30 1914 C 171.266 -0.167702 5.22031 0
M  V30 1915 H 172.96 0.182181 2.98845 0
M  V30 1916 H 170.506 0.0890592 1.43724 0
M  V30 1917 H 172.459 -2.1742 3.6098 0
M  V30 1918 H 171.183 -2.24792 2.36931 0
M  V30 1919 H 169.842 -0.526494 3.628 0
M  V30 1920 H 169.49 -2.96386 4.06404 0
M  V30 1921 H 169.19 -1.9934 5.52754 0
M  V30 1922 H 170.714 -2.91189 5.36695 0
M  V30 1923 H 172.128 -0.664186 5.6944 0
M  V30 1924 H 170.525 0.0653265 6.00064 0
M  V30 1925 H 171.595 0.786347 4.78482 0
M  V30 1926 N 172.938 -1.57226 0.108567 0
M  V30 1927 C 174.215 -1.86333 -0.594939 0
M  V30 1928 C 174.595 -1.00788 -1.85486 0
M  V30 1929 O 173.943 -0.0839293 -2.28346 0
M  V30 1930 C 174.153 -3.37265 -0.897405 0
M  V30 1931 C 175.501 -4.05629 -1.25501 0
M  V30 1932 O 176.525 -3.42224 -0.987998 0
M  V30 1933 O 175.384 -5.17531 -1.75567 0
M  V30 1934 H 172.478 -0.771018 -0.2991 0
M  V30 1935 H 175.024 -1.69102 0.142283 0
M  V30 1936 H 173.796 -3.913 -0.00413806 0
M  V30 1937 H 173.419 -3.59889 -1.69014 0
M  V30 1938 N 174.416 0.165178 -1.56732 0
M  V30 1939 C 175.827 0.727046 -1.71962 0
M  V30 1940 C 176.178 1.82508 -0.720078 0
M  V30 1941 O 175.303 2.16082 0.117242 0
M  V30 1942 C 175.898 1.32559 -3.11791 0
M  V30 1943 C 174.457 1.83422 -3.28684 0
M  V30 1944 C 173.604 0.715567 -2.67908 0
M  V30 1945 H 176.555 -0.0602896 -1.58585 0
M  V30 1946 H 176.576 2.19533 -3.10782 0
M  V30 1947 H 176.088 0.526195 -3.84516 0
M  V30 1948 H 174.189 2.65986 -2.60926 0
M  V30 1949 H 174.302 1.97543 -4.36478 0
M  V30 1950 H 172.666 1.13758 -2.27884 0
M  V30 1951 H 173.449 -0.0720836 -3.43224 0
M  V30 1952 N 175.894 1.51508 0.433938 0
M  V30 1953 C 176.826 1.69266 1.54537 0
M  V30 1954 C 177.839 0.573276 1.52373 0
M  V30 1955 O 179.028 0.847698 1.57087 0
M  V30 1956 C 176.128 1.69524 2.93453 0
M  V30 1957 C 175.301 2.98101 3.20085 0
M  V30 1958 C 174.36 2.90502 4.38742 0
M  V30 1959 O 173.386 3.64442 4.3723 0
M  V30 1960 N 174.588 2.06586 5.42496 0
M  V30 1961 H 177.353 2.65145 1.39708 0
M  V30 1962 H 174.914 1.49437 0.622922 0
M  V30 1963 H 176.906 1.62004 3.70859 0
M  V30 1964 H 175.476 0.812245 3.01863 0
M  V30 1965 H 174.696 3.19464 2.30947 0
M  V30 1966 H 175.984 3.83207 3.34708 0
M  V30 1967 H 175.382 1.45896 5.46563 0
M  V30 1968 H 173.939 2.04943 6.18742 0
M  V30 1969 N 177.372 -0.689602 1.41712 0
M  V30 1970 C 178.32 -1.82475 1.44242 0
M  V30 1971 C 179.314 -1.66354 0.319774 0
M  V30 1972 O 180.52 -1.73143 0.492089 0
M  V30 1973 H 176.895 -0.601416 0.451445 0
M  V30 1974 H 178.866 -1.77458 2.39899 0
M  V30 1975 C 177.615 -3.20535 1.3473 0
M  V30 1976 H 176.938 -3.33559 2.20405 0
M  V30 1977 H 178.378 -4.00023 1.40562 0
M  V30 1978 C 176.837 -3.36846 0.0603281 0
M  V30 1979 O 177.367 -3.91656 -0.892663 0
M  V30 1980 N 175.573 -2.90595 -0.0177039 0
M  V30 1981 H 175.12 -2.46178 0.758572 0
M  V30 1982 H 175.078 -3.01886 -0.878201 0
M  V30 1983 N 178.85 -1.27639 -0.924453 0
M  V30 1984 C 180.09 -1.15407 -1.68703 0
M  V30 1985 C 180.454 0.294581 -1.89727 0
M  V30 1986 O 181.655 0.539385 -2.63333 0
M  V30 1987 C 179.926 -1.9195 -3.0148 0
M  V30 1988 S 181.485 -1.95969 -3.92609 0
M  V30 1989 H 178.303 -0.411937 -0.579507 0
M  V30 1990 H 180.905 -1.61592 -1.10038 0
M  V30 1991 H 179.609 -2.96387 -2.83871 0
M  V30 1992 H 179.14 -1.46272 -3.65196 0
M  V30 1993 H 181.155 -1.05846 -4.84779 0
M  V30 1994 N 180.328 1.1314 -1.09713 0
M  V30 1995 C 181.558 1.88048 -0.855656 0
M  V30 1996 C 181.966 1.79537 0.596919 0
M  V30 1997 O 181.309 1.16196 1.42282 0
M  V30 1998 C 181.371 3.38314 -1.21589 0
M  V30 1999 C 181.035 3.70605 -2.67397 0
M  V30 2000 C 182.032 3.69596 -3.65643 0
M  V30 2001 C 179.717 4.0017 -3.03593 0
M  V30 2002 C 181.711 3.977 -4.9811 0
M  V30 2003 C 179.398 4.27935 -4.36251 0
M  V30 2004 C 180.396 4.26685 -5.33318 0
M  V30 2005 O 180.084 4.53767 -6.63589 0
M  V30 2006 H 179.816 0.60208 -0.307368 0
M  V30 2007 H 182.37 1.44128 -1.46343 0
M  V30 2008 H 180.6 3.82752 -0.551177 0
M  V30 2009 H 182.289 3.94552 -0.953083 0
M  V30 2010 H 183.055 3.46826 -3.39023 0
M  V30 2011 H 178.934 4.00289 -2.2867 0
M  V30 2012 H 182.478 3.9664 -5.73866 0
M  V30 2013 H 178.375 4.50178 -4.62613 0
M  V30 2014 H 179.143 4.71422 -6.69107 0
M  V30 2015 N 181.806 0.884767 1.30421 0
M  V30 2016 C 182.736 0.367574 2.30589 0
M  V30 2017 C 183.717 -0.549464 1.60981 0
M  V30 2018 O 184.902 -0.46336 1.88591 0
M  V30 2019 C 182.032 -0.418944 3.44764 0
M  V30 2020 C 180.986 0.406316 4.26067 0
M  V30 2021 C 180.312 -0.506793 5.32293 0
M  V30 2022 C 181.612 1.64832 4.95608 0
M  V30 2023 H 183.306 1.20462 2.74097 0
M  V30 2024 H 180.852 0.580695 1.31772 0
M  V30 2025 H 182.805 -0.791395 4.13902 0
M  V30 2026 H 181.529 -1.28964 3.0006 0
M  V30 2027 H 180.188 0.760903 3.58617 0
M  V30 2028 H 179.836 -1.37519 4.83836 0
M  V30 2029 H 179.536 0.0415828 5.87585 0
M  V30 2030 H 181.06 -0.875764 6.04287 0
M  V30 2031 H 182.474 1.34646 5.57264 0
M  V30 2032 H 180.871 2.13688 5.60765 0
M  V30 2033 H 181.941 2.39284 4.21748 0
M  V30 2034 N 183.284 -1.43765 0.645699 0
M  V30 2035 C 184.234 -2.27884 -0.0726442 0
M  V30 2036 C 185.218 -1.39483 -0.802086 0
M  V30 2037 O 186.41 -1.63174 -0.685791 0
M  V30 2038 C 183.539 -3.27055 -1.04356 0
M  V30 2039 C 182.625 -4.22944 -0.312985 0
M  V30 2040 N 183.016 -5.01391 0.666386 0
M  V30 2041 C 181.314 -4.42528 -0.55546 0
M  V30 2042 C 182.015 -5.71217 1.09935 0
M  V30 2043 N 180.991 -5.41856 0.435137 0
M  V30 2044 H 184.793 -2.85949 0.678988 0
M  V30 2045 H 182.307 -1.55378 0.472368 0
M  V30 2046 H 184.304 -3.86089 -1.57292 0
M  V30 2047 H 182.964 -2.70551 -1.79534 0
M  V30 2048 H 183.975 -5.07252 1.04481 0
M  V30 2049 H 180.652 -3.97104 -1.28899 0
M  V30 2050 H 182.042 -6.44202 1.90929 0
M  V30 2051 N 184.763 -0.387143 -1.52771 0
M  V30 2052 C 185.991 0.195869 -2.05971 0
M  V30 2053 C 186.406 1.40691 -1.25903 0
M  V30 2054 O 185.763 1.79931 -0.305134 0
M  V30 2055 C 185.814 0.56812 -3.57008 0
M  V30 2056 O 185.535 -0.594803 -4.34043 0
M  V30 2057 C 187.036 1.20723 -4.26545 0
M  V30 2058 H 184.256 0.0300578 -0.670326 0
M  V30 2059 H 186.8 -0.551749 -1.96916 0
M  V30 2060 H 184.955 1.26564 -3.66143 0
M  V30 2061 H 185.369 -0.289322 -5.23701 0
M  V30 2062 H 186.843 1.41807 -5.33474 0
M  V30 2063 H 187.32 2.17395 -3.81623 0
M  V30 2064 H 187.926 0.550535 -4.21722 0
M  V30 2065 N 186.241 1.57166 -0.116904 0
M  V30 2066 C 187.204 2.14039 0.819742 0
M  V30 2067 C 188.204 1.07477 1.19605 0
M  V30 2068 O 189.394 1.33263 1.1219 0
M  V30 2069 C 186.526 2.67891 2.10826 0
M  V30 2070 H 187.719 2.98128 0.325511 0
M  V30 2071 H 185.272 1.55739 0.132312 0
M  V30 2072 H 186.007 1.87384 2.64685 0
M  V30 2073 H 185.792 3.45823 1.84793 0
M  V30 2074 H 187.282 3.11809 2.77785 0
M  V30 2075 N 187.719 -0.156864 1.56817 0
M  V30 2076 C 188.967 -0.869404 1.82444 0
M  V30 2077 C 189.288 -1.82147 0.69623 0
M  V30 2078 O 188.558 -1.93847 -0.28287 0
M  V30 2079 H 187.138 -0.324043 0.673056 0
M  V30 2080 H 189.8 -0.153224 1.94297 0
M  V30 2081 H 188.896 -1.43761 2.77019 0
M  V30 2082 N 189.197 -1.51736 -0.425897 0
M  V30 2083 C 190.16 -1.73271 -1.50032 0
M  V30 2084 C 191.16 -0.602639 -1.4908 0
M  V30 2085 O 192.35 -0.87033 -1.509 0
M  V30 2086 C 189.482 -1.79969 -2.89523 0
M  V30 2087 H 190.675 -2.69172 -1.32237 0
M  V30 2088 H 188.228 -1.41899 -0.65532 0
M  V30 2089 H 188.963 -0.859241 -3.1271 0
M  V30 2090 H 188.748 -2.62109 -2.91619 0
M  V30 2091 H 190.238 -1.9843 -3.67444 0
M  V30 2092 N 190.675 0.682077 -1.42076 0
M  V30 2093 C 191.605 1.80796 -1.47767 0
M  V30 2094 C 192.586 1.6677 -0.334954 0
M  V30 2095 O 193.771 1.863 -0.548264 0
M  V30 2096 C 190.901 3.19038 -1.37229 0
M  V30 2097 C 189.855 3.47789 -2.49453 0
M  V30 2098 C 189.181 4.8553 -2.23975 0
M  V30 2099 C 190.481 3.45411 -3.91776 0
M  V30 2100 H 192.175 1.7629 -2.41997 0
M  V30 2101 H 189.721 0.846721 -1.16476 0
M  V30 2102 H 191.674 3.97528 -1.39821 0
M  V30 2103 H 190.398 3.24204 -0.394907 0
M  V30 2104 H 189.057 2.71657 -2.46166 0
M  V30 2105 H 188.705 4.87337 -1.24547 0
M  V30 2106 H 188.405 5.0573 -2.99184 0
M  V30 2107 H 189.929 5.66312 -2.28304 0
M  V30 2108 H 191.343 4.13882 -3.96705 0
M  V30 2109 H 189.74 3.77145 -4.66778 0
M  V30 2110 H 190.81 2.44122 -4.18966 0
M  V30 2111 N 192.153 1.28127 0.917671 0
M  V30 2112 C 193.564 1.13622 1.48145 0
M  V30 2113 C 193.915 -0.275207 1.9426 0
M  V30 2114 O 193.04 -1.1691 1.82102 0
M  V30 2115 C 193.635 2.05648 2.69248 0
M  V30 2116 C 192.194 1.95219 3.21818 0
M  V30 2117 C 191.341 1.97618 1.94532 0
M  V30 2118 H 194.292 1.40874 0.730772 0
M  V30 2119 H 194.313 1.61818 3.44377 0
M  V30 2120 H 193.825 3.08365 2.35653 0
M  V30 2121 H 191.926 0.955244 3.60147 0
M  V30 2122 H 192.039 2.81976 3.87333 0
M  V30 2123 H 190.403 1.41973 2.11461 0
M  V30 2124 H 191.186 3.02007 1.63238 0
M  V30 2125 N 193.631 -1.12557 1.10312 0
M  V30 2126 C 194.856 -1.88405 0.867085 0
M  V30 2127 C 195.281 -1.79038 -0.576817 0
M  V30 2128 O 194.639 -1.14439 -1.40618 0
M  V30 2129 C 194.687 -3.3563 1.31851 0
M  V30 2130 O 193.791 -4.09565 0.482734 0
M  V30 2131 H 193.132 -0.585455 0.313271 0
M  V30 2132 H 195.662 -1.42352 1.4696 0
M  V30 2133 H 195.672 -3.86469 1.3079 0
M  V30 2134 H 194.347 -3.41765 2.37001 0
M  V30 2135 H 192.924 -3.68695 0.558448 0
M  V30 2136 N 195.109 -0.891671 -1.2995 0
M  V30 2137 C 196.349 -0.520296 -1.97667 0
M  V30 2138 C 196.713 0.914797 -1.68806 0
M  V30 2139 O 197.914 1.39263 -2.29911 0
M  V30 2140 C 196.185 -0.795222 -3.48441 0
M  V30 2141 S 197.744 -0.526953 -4.35624 0
M  V30 2142 H 194.562 -0.19333 -0.684211 0
M  V30 2143 H 197.164 -1.15238 -1.57926 0
M  V30 2144 H 195.868 -1.83805 -3.66938 0
M  V30 2145 H 195.399 -0.15095 -3.9311 0
M  V30 2146 H 197.414 0.631533 -4.92165 0
M  V30 2147 N 196.587 1.43421 -0.653314 0
M  V30 2148 C 197.497 2.34568 0.0388565 0
M  V30 2149 C 198.513 1.53888 0.81207 0
M  V30 2150 O 199.689 1.86539 0.759294 0
M  V30 2151 C 196.754 3.32167 0.993269 0
M  V30 2152 C 195.815 4.28751 0.216977 0
M  V30 2153 C 195.048 5.21688 1.12593 0
M  V30 2154 O 195.271 5.19052 2.36519 0
M  V30 2155 O 194.205 5.98919 0.598284 0
M  V30 2156 H 198.031 2.95251 -0.711386 0
M  V30 2157 H 195.616 1.43564 -0.413502 0
M  V30 2158 H 197.498 3.92183 1.54176 0
M  V30 2159 H 196.173 2.73987 1.72374 0
M  V30 2160 H 195.08 3.72215 -0.375101 0
M  V30 2161 H 196.413 4.89913 -0.473924 0
M  V30 2162 N 198.065 0.39524 1.52563 0
M  V30 2163 C 199.305 -0.184744 2.03563 0
M  V30 2164 C 199.669 -1.43548 1.27507 0
M  V30 2165 O 200.87 -2.093 1.68662 0
M  V30 2166 C 199.141 -0.440294 3.54678 0
M  V30 2167 S 200.7 -0.989712 4.27493 0
M  V30 2168 H 197.518 -0.0515075 0.709132 0
M  V30 2169 H 200.12 0.544957 1.87751 0
M  V30 2170 H 198.824 0.477005 4.07618 0
M  V30 2171 H 198.355 -1.19825 3.74707 0
M  V30 2172 H 200.37 -2.27155 4.41152 0
M  V30 2173 N 199.544 -1.57102 0.125237 0
M  V30 2174 C 200.494 -2.12202 -0.833936 0
M  V30 2175 C 201.478 -1.04433 -1.22403 0
M  V30 2176 O 202.67 -1.30655 -1.19408 0
M  V30 2177 C 199.799 -2.72994 -2.08157 0
M  V30 2178 C 198.885 -3.87852 -1.71556 0
M  V30 2179 N 199.276 -4.9464 -1.05662 0
M  V30 2180 C 197.574 -3.98153 -2.00973 0
M  V30 2181 C 198.275 -5.74953 -0.883376 0
M  V30 2182 N 197.251 -5.24985 -1.41036 0
M  V30 2183 H 201.053 -2.92141 -0.321035 0
M  V30 2184 H 198.567 -1.62217 -0.0770315 0
M  V30 2185 H 200.564 -3.10816 -2.77847 0
M  V30 2186 H 199.224 -1.9452 -2.59985 0
M  V30 2187 H 200.235 -5.12872 -0.719878 0
M  V30 2188 H 196.912 -3.30728 -2.54804 0
M  V30 2189 H 198.302 -6.70904 -0.365675 0
M  V30 2190 N 201.022 0.148545 -1.56898 0
M  V30 2191 C 201.952 1.18524 -2.01182 0
M  V30 2192 C 202.933 1.4489 -0.891123 0
M  V30 2193 O 204.118 1.55836 -1.15882 0
M  V30 2194 C 201.248 2.51879 -2.39112 0
M  V30 2195 C 200.202 2.40038 -3.54353 0
M  V30 2196 C 199.528 3.78089 -3.78091 0
M  V30 2197 C 200.828 1.88577 -4.87069 0
M  V30 2198 H 202.522 0.817029 -2.88036 0
M  V30 2199 H 200.068 0.391575 -1.38574 0
M  V30 2200 H 202.021 3.24627 -2.68692 0
M  V30 2201 H 200.745 2.90532 -1.49193 0
M  V30 2202 H 199.404 1.69742 -3.24936 0
M  V30 2203 H 199.052 4.14175 -2.85426 0
M  V30 2204 H 198.752 3.71028 -4.55645 0
M  V30 2205 H 200.276 4.52387 -4.10095 0
M  V30 2206 H 201.69 2.51117 -5.15377 0
M  V30 2207 H 200.087 1.9241 -5.68417 0
M  V30 2208 H 201.157 0.84136 -4.77545 0
M  V30 2209 N 202.5 1.5196 0.417844 0
M  V30 2210 C 203.448 1.75278 1.52907 0
M  V30 2211 C 204.442 0.619611 1.57662 0
M  V30 2212 O 205.648 0.801457 1.61173 0
M  V30 2213 H 202.023 0.554141 0.508362 0
M  V30 2214 H 203.994 2.68389 1.30422 0
M  V30 2215 C 202.743 1.91262 2.90369 0
M  V30 2216 H 202.066 2.77872 2.8745 0
M  V30 2217 H 203.506 2.11581 3.67436 0
M  V30 2218 C 201.965 0.677431 3.30019 0
M  V30 2219 O 202.495 -0.158799 4.01386 0
M  V30 2220 N 200.701 0.515851 2.85985 0
M  V30 2221 H 200.248 1.19744 2.28077 0
M  V30 2222 H 200.206 -0.309315 3.12875 0
M  V30 2223 N 203.978 -0.674533 1.42435 0
M  V30 2224 C 204.926 -1.80934 1.46169 0
M  V30 2225 C 205.92 -1.66006 0.3374 0
M  V30 2226 O 207.126 -1.72611 0.510425 0
M  V30 2227 H 203.501 -0.596594 0.457798 0
M  V30 2228 H 205.472 -1.74903 2.41767 0
M  V30 2229 C 204.221 -3.19088 1.38123 0
M  V30 2230 H 203.544 -3.31203 2.23931 0
M  V30 2231 H 204.984 -3.9851 1.44797 0
M  V30 2232 C 203.443 -3.36763 0.0960517 0
M  V30 2233 O 203.973 -3.92581 -0.851073 0
M  V30 2234 N 202.179 -2.90597 0.0131186 0
M  V30 2235 H 201.726 -2.45359 0.784639 0
M  V30 2236 H 201.684 -3.028 -0.846133 0
M  V30 2237 N 205.456 -1.28612 -0.910864 0
M  V30 2238 C 206.386 -1.15326 -2.03032 0
M  V30 2239 C 207.367 -0.0502924 -1.70026 0
M  V30 2240 O 208.552 -0.227797 -1.92859 0
M  V30 2241 C 205.682 -0.817343 -3.37545 0
M  V30 2242 C 204.636 -1.8754 -3.84724 0
M  V30 2243 C 203.962 -1.39305 -5.16235 0
M  V30 2244 C 205.262 -3.28244 -4.06267 0
M  V30 2245 H 206.956 -2.08975 -2.14406 0
M  V30 2246 H 204.502 -1.00612 -1.03021 0
M  V30 2247 H 206.455 -0.711151 -4.15356 0
M  V30 2248 H 205.179 0.154846 -3.26233 0
M  V30 2249 H 203.838 -1.97079 -3.09121 0
M  V30 2250 H 203.486 -0.409846 -5.01328 0
M  V30 2251 H 203.186 -2.10057 -5.48771 0
M  V30 2252 H 204.71 -1.30014 -5.96598 0
M  V30 2253 H 206.124 -3.21611 -4.74594 0
M  V30 2254 H 204.521 -3.96855 -4.5014 0
M  V30 2255 H 205.591 -3.72048 -3.10979 0
M  V30 2256 N 206.934 1.1197 -1.10907 0
M  V30 2257 C 208.159 1.87942 -0.877064 0
M  V30 2258 C 208.584 1.79341 0.567314 0
M  V30 2259 O 207.942 1.15184 1.40009 0
M  V30 2260 C 207.99 3.34926 -1.33629 0
M  V30 2261 O 207.094 4.09303 -0.504447 0
M  V30 2262 H 206.435 0.583785 -0.316371 0
M  V30 2263 H 208.965 1.4157 -1.47712 0
M  V30 2264 H 208.975 3.8577 -1.32837 0
M  V30 2265 H 207.65 3.40504 -2.3881 0
M  V30 2266 H 206.227 3.68393 -0.577993 0
M  V30 2267 N 208.412 0.89855 1.29475 0
M  V30 2268 C 209.344 0.332726 2.26772 0
M  V30 2269 C 210.357 -0.520323 1.54261 0
M  V30 2270 O 211.546 -0.337668 1.75277 0
M  V30 2271 C 208.646 -0.544334 3.345 0
M  V30 2272 C 207.819 0.282728 4.36485 0
M  V30 2273 C 206.878 -0.526982 5.23555 0
M  V30 2274 O 205.904 0.0551165 5.69173 0
M  V30 2275 N 207.106 -1.83331 5.5079 0
M  V30 2276 H 209.871 1.16897 2.75962 0
M  V30 2277 H 207.432 0.762919 1.42798 0
M  V30 2278 H 209.424 -1.09239 3.89678 0
M  V30 2279 H 207.994 -1.28127 2.85136 0
M  V30 2280 H 207.214 1.01221 3.80983 0
M  V30 2281 H 208.502 0.84918 5.01664 0
M  V30 2282 H 207.9 -2.32898 5.15534 0
M  V30 2283 H 206.457 -2.32852 6.08788 0
M  V30 2284 N 209.89 -1.43072 0.660911 0
M  V30 2285 C 211.115 -2.06584 0.183805 0
M  V30 2286 C 211.54 -1.49257 -1.14472 0
M  V30 2287 O 210.898 -0.605528 -1.70889 0
M  V30 2288 C 210.946 -3.60418 0.114434 0
M  V30 2289 O 210.05 -4.01981 -0.921137 0
M  V30 2290 H 209.391 -0.656669 0.0983994 0
M  V30 2291 H 211.921 -1.83447 0.906006 0
M  V30 2292 H 211.931 -4.07946 -0.0663394 0
M  V30 2293 H 210.606 -4.01519 1.08422 0
M  V30 2294 H 209.183 -3.66029 -0.71253 0
M  V30 2295 N 211.368 -0.403325 -1.52352 0
M  V30 2296 C 212.614 0.174605 -2.02047 0
M  V30 2297 C 212.947 1.45282 -1.28867 0
M  V30 2298 O 212.222 1.90483 -0.393257 0
M  V30 2299 C 212.505 0.428238 -3.57545 0
M  V30 2300 C 212.358 -0.866248 -4.4138 0
M  V30 2301 C 213.677 1.21287 -4.23057 0
M  V30 2302 H 210.796 0.0619851 -0.734389 0
M  V30 2303 H 213.438 -0.53565 -1.82293 0
M  V30 2304 H 211.588 1.03327 -3.74507 0
M  V30 2305 H 213.26 -1.50265 -4.3614 0
M  V30 2306 H 211.503 -1.47851 -4.07827 0
M  V30 2307 H 212.174 -0.643249 -5.48239 0
M  V30 2308 H 214.65 0.700703 -4.10158 0
M  V30 2309 H 213.526 1.35909 -5.31808 0
M  V30 2310 H 213.787 2.23193 -3.81625 0
M  V30 2311 N 212.846 1.57033 -0.133567 0
M  V30 2312 C 213.794 2.17348 0.828412 0
M  V30 2313 C 214.788 1.12671 1.26498 0
M  V30 2314 O 215.994 1.30947 1.23502 0
M  V30 2315 H 212.369 0.695775 0.285309 0
M  V30 2316 H 214.34 2.96935 0.295372 0
M  V30 2317 C 213.089 2.79893 2.06289 0
M  V30 2318 H 212.412 3.60147 1.73592 0
M  V30 2319 H 213.852 3.25615 2.71572 0
M  V30 2320 C 212.311 1.77713 2.86216 0
M  V30 2321 O 212.841 1.23937 3.82103 0
M  V30 2322 N 211.047 1.47321 2.50489 0
M  V30 2323 H 210.594 1.91243 1.7258 0
M  V30 2324 H 210.552 0.79199 3.04261 0
M  V30 2325 N 214.325 -0.140222 1.56975 0
M  V30 2326 C 215.572 -0.851687 1.83719 0
M  V30 2327 C 215.9 -1.80862 0.715485 0
M  V30 2328 O 215.155 -1.93464 -0.294956 0
M  V30 2329 C 215.454 -1.65386 3.16832 0
M  V30 2330 C 215.12 -0.843112 4.42947 0
M  V30 2331 C 213.782 -0.619464 4.77196 0
M  V30 2332 C 216.134 -0.276582 5.20466 0
M  V30 2333 C 213.462 0.181312 5.8642 0
M  V30 2334 C 215.814 0.51127 6.30531 0
M  V30 2335 C 214.478 0.745432 6.63325 0
M  V30 2336 H 213.748 -0.311654 0.672274 0
M  V30 2337 H 216.395 -0.115006 1.91154 0
M  V30 2338 H 214.7 -2.46084 3.04877 0
M  V30 2339 H 216.397 -2.20793 3.34741 0
M  V30 2340 H 212.987 -1.0275 4.16101 0
M  V30 2341 H 217.171 -0.436632 4.94376 0
M  V30 2342 H 212.427 0.372165 6.10266 0
M  V30 2343 H 216.601 0.957354 6.89788 0
M  V30 2344 H 214.228 1.36778 7.47794 0
M  V30 2345 N 215.803 -1.52179 -0.40978 0
M  V30 2346 C 217.043 -1.67882 -1.16597 0
M  V30 2347 C 217.407 -0.399795 -1.87791 0
M  V30 2348 O 218.608 -0.43292 -2.65291 0
M  V30 2349 C 216.879 -2.86662 -2.13448 0
M  V30 2350 S 218.438 -3.22843 -2.97183 0
M  V30 2351 H 215.256 -0.59118 -0.395002 0
M  V30 2352 H 217.858 -1.9017 -0.453373 0
M  V30 2353 H 216.562 -3.77998 -1.59831 0
M  V30 2354 H 216.093 -2.66645 -2.89247 0
M  V30 2355 H 218.108 -2.71415 -4.15389 0
M  V30 2356 N 217.281 0.66697 -1.42791 0
M  V30 2357 C 218.191 1.80962 -1.49299 0
M  V30 2358 C 219.207 1.69775 -0.381108 0
M  V30 2359 O 220.383 1.91188 -0.633188 0
M  V30 2360 C 217.448 3.17156 -1.40045 0
M  V30 2361 C 216.509 3.40242 -2.6179 0
M  V30 2362 C 215.742 4.69939 -2.52969 0
M  V30 2363 O 215.965 5.48372 -1.56985 0
M  V30 2364 O 214.899 4.94441 -3.43237 0
M  V30 2365 H 218.725 1.78427 -2.45759 0
M  V30 2366 H 216.31 0.823713 -1.24641 0
M  V30 2367 H 218.192 3.98413 -1.37276 0
M  V30 2368 H 216.867 3.20312 -0.467138 0
M  V30 2369 H 215.774 2.58802 -2.70134 0
M  V30 2370 H 217.107 3.41923 -3.54047 0
M  V30 2371 N 218.759 1.29093 0.90403 0
M  V30 2372 C 220.175 1.07011 1.1841 0
M  V30 2373 C 220.375 -0.181358 2.00682 0
M  V30 2374 O 219.431 -0.880331 2.36657 0
M  V30 2375 C 220.744 2.32311 1.90924 0
M  V30 2376 C 222.292 2.37587 2.03768 0
M  V30 2377 C 222.767 3.62679 2.79693 0
M  V30 2378 N 224.258 3.63376 2.87249 0
M  V30 2379 C 224.993 4.56848 3.46522 0
M  V30 2380 N 224.489 5.60648 4.06996 0
M  V30 2381 N 226.282 4.44426 3.44154 0
M  V30 2382 H 218.433 2.09412 0.354993 0
M  V30 2383 H 220.696 0.922181 0.219742 0
M  V30 2384 H 220.402 3.23536 1.37905 0
M  V30 2385 H 220.276 2.39483 2.91424 0
M  V30 2386 H 222.663 1.46853 2.55965 0
M  V30 2387 H 222.744 2.34403 1.02415 0
M  V30 2388 H 222.388 4.53762 2.28173 0
M  V30 2389 H 222.318 3.63119 3.81381 0
M  V30 2390 H 224.809 2.88321 2.44293 0
M  V30 2391 H 225.122 6.28101 4.50232 0
M  V30 2392 H 223.467 5.64463 4.05471 0
M  V30 2393 H 226.658 3.62529 2.96126 0
M  V30 2394 H 226.831 5.17457 3.90054 0
M  V30 2395 N 220.237 -1.11381 1.11499 0
M  V30 2396 C 221.465 -1.86934 0.88675 0
M  V30 2397 C 221.88 -1.80195 -0.563476 0
M  V30 2398 O 221.237 -1.18367 -1.38908 0
M  V30 2399 C 221.288 -3.35722 1.34064 0
M  V30 2400 O 221.009 -3.4232 2.73401 0
M  V30 2401 C 222.51 -4.2818 1.14791 0
M  V30 2402 H 219.73 -0.591117 0.317523 0
M  V30 2403 H 222.274 -1.40865 1.48248 0
M  V30 2404 H 220.429 -3.79294 0.788355 0
M  V30 2405 H 220.843 -4.34971 2.93087 0
M  V30 2406 H 222.317 -5.30817 1.5145 0
M  V30 2407 H 222.794 -4.39113 0.0875279 0
M  V30 2408 H 223.4 -3.90402 1.68721 0
M  V30 2409 N 221.715 -0.905404 -1.28997 0
M  V30 2410 C 222.662 -0.385892 -2.27551 0
M  V30 2411 C 223.632 0.535113 -1.57244 0
M  V30 2412 O 224.817 0.459119 -1.85194 0
M  V30 2413 C 221.957 0.375461 -3.43051 0
M  V30 2414 C 221.07 -0.577092 -4.28128 0
M  V30 2415 C 220.205 0.201879 -5.30816 0
M  V30 2416 C 219.244 -0.744829 -6.07551 0
M  V30 2417 N 218.381 9.42587e-05 -7.021 0
M  V30 2418 H 223.221 -1.23139 -2.71368 0
M  V30 2419 H 220.758 -0.618542 -1.33463 0
M  V30 2420 H 222.716 0.832992 -4.088 0
M  V30 2421 H 221.346 1.18537 -3.00248 0
M  V30 2422 H 220.398 -1.15315 -3.62501 0
M  V30 2423 H 221.71 -1.30152 -4.8152 0
M  V30 2424 H 220.864 0.720351 -6.02408 0
M  V30 2425 H 219.603 0.959413 -4.7817 0
M  V30 2426 H 218.608 -1.27475 -5.34818 0
M  V30 2427 H 219.833 -1.50178 -6.62286 0
M  V30 2428 H 217.779 0.739791 -6.51815 0
M  V30 2429 H 217.696 -0.664321 -7.53076 0
M  V30 2430 H 218.964 0.498644 -7.77903 0
M  V30 2431 N 223.193 1.4272 -0.668489 0
M  V30 2432 C 224.442 2.00846 -0.185389 0
M  V30 2433 C 224.755 1.53442 1.21305 0
M  V30 2434 O 225.961 2.03944 1.79218 0
M  V30 2435 C 224.417 3.58805 -0.280591 0
M  V30 2436 C 224.025 4.15198 -1.68268 0
M  V30 2437 C 225.769 4.24255 0.14412 0
M  V30 2438 C 223.676 5.655 -1.73099 0
M  V30 2439 H 222.606 0.751145 -0.0655475 0
M  V30 2440 H 225.257 1.63516 -0.832752 0
M  V30 2441 H 223.639 3.93608 0.434553 0
M  V30 2442 H 224.813 3.91866 -2.42441 0
M  V30 2443 H 223.128 3.62176 -2.05469 0
M  V30 2444 H 225.725 5.34547 0.128086 0
M  V30 2445 H 226.068 3.99277 1.17827 0
M  V30 2446 H 226.601 3.94389 -0.519798 0
M  V30 2447 H 223.34 5.95268 -2.74475 0
M  V30 2448 H 222.86 5.90842 -1.03274 0
M  V30 2449 H 224.539 6.29808 -1.48158 0
M  V30 2450 N 224.671 0.411399 1.52136 0
M  V30 2451 C 225.917 -0.156262 2.02799 0
M  V30 2452 C 226.272 -1.42613 1.29149 0
M  V30 2453 O 225.565 -1.87592 0.389839 0
M  V30 2454 C 225.759 -0.455872 3.54481 0
M  V30 2455 C 225.588 0.783404 4.42824 0
M  V30 2456 C 224.358 1.30928 4.88043 0
M  V30 2457 C 226.556 1.66217 4.86699 0
M  V30 2458 N 224.538 2.5038 5.6052 0
M  V30 2459 C 225.909 2.70292 5.5798 0
M  V30 2460 C 227.964 1.67966 4.68713 0
M  V30 2461 C 226.667 3.7603 6.13184 0
M  V30 2462 C 228.693 2.72624 5.24815 0
M  V30 2463 C 228.055 3.7542 5.9602 0
M  V30 2464 H 224.154 -0.0186886 0.781777 0
M  V30 2465 H 226.738 0.566255 1.86284 0
M  V30 2466 H 224.909 -1.14743 3.71064 0
M  V30 2467 H 226.641 -1.01261 3.91827 0
M  V30 2468 H 223.396 0.866977 4.65597 0
M  V30 2469 H 223.82 3.10881 6.014 0
M  V30 2470 H 228.462 0.898312 4.13147 0
M  V30 2471 H 226.18 4.55019 6.6782 0
M  V30 2472 H 229.766 2.74887 5.12765 0
M  V30 2473 H 228.646 4.55073 6.38654 0
M  V30 2474 N 226.149 -1.5696 0.141893 0
M  V30 2475 C 227.397 -1.95573 -0.509484 0
M  V30 2476 C 227.718 -1.02746 -1.65736 0
M  V30 2477 O 226.988 -0.0880311 -1.95702 0
M  V30 2478 H 225.568 -0.722115 -0.191205 0
M  V30 2479 H 228.23 -1.93697 0.216196 0
M  V30 2480 H 227.326 -2.99171 -0.889 0
M  V30 2481 N 227.627 0.131896 -1.57047 0
M  V30 2482 C 228.855 0.856461 -1.88341 0
M  V30 2483 C 229.27 1.74042 -0.731757 0
M  V30 2484 O 228.627 1.80051 0.297945 0
M  V30 2485 C 228.678 1.70064 -3.18999 0
M  V30 2486 O 228.399 0.852278 -4.2973 0
M  V30 2487 C 229.9 2.53148 -3.63911 0
M  V30 2488 H 227.12 0.246885 -0.62393 0
M  V30 2489 H 229.664 0.120152 -2.04147 0
M  V30 2490 H 227.819 2.38984 -3.04902 0
M  V30 2491 H 228.233 1.43329 -5.04537 0
M  V30 2492 H 229.707 3.07931 -4.58129 0
M  V30 2493 H 230.184 3.29901 -2.89935 0
M  V30 2494 H 230.79 1.89492 -3.80753 0
M  V30 2495 N 229.106 1.52395 0.401703 0
M  V30 2496 C 230.353 1.66817 1.14796 0
M  V30 2497 C 230.681 0.401772 1.90305 0
M  V30 2498 O 229.936 -0.615487 1.85769 0
M  V30 2499 C 230.235 2.84578 2.16217 0
M  V30 2500 C 229.901 4.22513 1.5746 0
M  V30 2501 C 228.563 4.60029 1.41161 0
M  V30 2502 C 230.915 5.0844 1.14622 0
M  V30 2503 C 228.243 5.81144 0.80552 0
M  V30 2504 C 230.595 6.30167 0.55428 0
M  V30 2505 C 229.259 6.66426 0.378482 0
M  V30 2506 H 228.529 0.610428 0.420069 0
M  V30 2507 H 231.176 1.86512 0.434212 0
M  V30 2508 H 229.481 2.59248 2.93764 0
M  V30 2509 H 231.178 2.92933 2.73845 0
M  V30 2510 H 227.768 3.92953 1.71132 0
M  V30 2511 H 231.952 4.80034 1.26021 0
M  V30 2512 H 227.208 6.07855 0.657399 0
M  V30 2513 H 231.382 6.96071 0.213983 0
M  V30 2514 H 229.009 7.60143 -0.0932606 0
M  V30 2515 N 230.584 -0.659388 1.43143 0
M  V30 2516 C 231.531 -1.77249 1.47822 0
M  V30 2517 C 232.501 -1.62818 0.328558 0
M  V30 2518 O 233.686 -1.83151 0.534838 0
M  V30 2519 C 230.826 -3.15371 1.40126 0
M  V30 2520 C 229.939 -3.4098 2.65249 0
M  V30 2521 C 229.074 -4.68915 2.49584 0
M  V30 2522 C 228.113 -4.87608 3.70006 0
M  V30 2523 N 227.25 -6.06796 3.53189 0
M  V30 2524 H 232.09 -1.72584 2.42938 0
M  V30 2525 H 229.627 -0.842297 1.20598 0
M  V30 2526 H 231.585 -3.9521 1.33659 0
M  V30 2527 H 230.215 -3.19121 0.485964 0
M  V30 2528 H 229.267 -2.55282 2.8202 0
M  V30 2529 H 230.579 -3.50681 3.54717 0
M  V30 2530 H 229.733 -5.56871 2.4079 0
M  V30 2531 H 228.472 -4.61524 1.5763 0
M  V30 2532 H 227.477 -3.9809 3.79215 0
M  V30 2533 H 228.702 -4.96834 4.62961 0
M  V30 2534 H 226.648 -6.00549 2.63965 0
M  V30 2535 H 226.565 -6.17428 4.36255 0
M  V30 2536 H 227.833 -6.9739 3.48236 0
M  V30 2537 N 232.062 -1.29571 -0.897171 0
M  V30 2538 C 233.311 -1.1706 -1.64256 0
M  V30 2539 C 233.624 0.276476 -1.93636 0
M  V30 2540 O 234.83 0.52294 -2.66416 0
M  V30 2541 C 233.286 -2.0475 -2.95982 0
M  V30 2542 C 232.894 -3.54295 -2.74187 0
M  V30 2543 C 234.638 -2.0097 -3.73914 0
M  V30 2544 C 232.545 -4.34081 -4.01656 0
M  V30 2545 H 231.475 -0.43452 -0.616205 0
M  V30 2546 H 234.126 -1.54229 -0.994268 0
M  V30 2547 H 232.508 -1.60452 -3.62038 0
M  V30 2548 H 233.682 -4.06662 -2.1671 0
M  V30 2549 H 231.997 -3.59773 -2.09648 0
M  V30 2550 H 234.594 -2.57838 -4.68427 0
M  V30 2551 H 234.937 -0.990273 -4.0435 0
M  V30 2552 H 235.47 -2.43325 -3.14703 0
M  V30 2553 H 232.209 -5.36671 -3.76384 0
M  V30 2554 H 231.729 -3.86483 -4.58684 0
M  V30 2555 H 233.408 -4.44877 -4.69781 0
M  V30 2556 N 233.54 1.10788 -1.12088 0
M  V30 2557 C 234.488 2.19111 -0.780587 0
M  V30 2558 C 235.482 1.67818 0.230961 0
M  V30 2559 O 236.688 1.79777 0.0895427 0
M  V30 2560 H 233.063 0.714477 -0.234578 0
M  V30 2561 H 235.034 2.45055 -1.70266 0
M  V30 2562 C 233.783 3.46818 -0.24747 0
M  V30 2563 H 233.106 3.86646 -1.01712 0
M  V30 2564 H 234.546 4.23973 -0.0476291 0
M  V30 2565 C 233.005 3.20968 1.02378 0
M  V30 2566 O 233.535 3.42298 2.10226 0
M  V30 2567 N 231.741 2.74658 0.949271 0
M  V30 2568 H 231.288 2.57501 0.0715173 0
M  V30 2569 H 231.246 2.57739 1.80049 0
M  V30 2570 N 235.018 0.912232 1.28515 0
M  V30 2571 C 235.928 0.404506 2.31086 0
M  V30 2572 C 236.944 -0.50707 1.66448 0
M  V30 2573 O 238.12 -0.393624 1.97516 0
M  V30 2574 C 235.185 -0.348572 3.44943 0
M  V30 2575 C 234.246 0.59604 4.25142 0
M  V30 2576 C 233.479 -0.121194 5.33562 0
M  V30 2577 O 233.702 -1.34317 5.5436 0
M  V30 2578 O 232.636 0.542716 5.99448 0
M  V30 2579 H 236.462 1.25579 2.76521 0
M  V30 2580 H 234.047 0.676998 1.33181 0
M  V30 2581 H 235.929 -0.77395 4.14232 0
M  V30 2582 H 234.604 -1.17571 3.01594 0
M  V30 2583 H 233.511 1.07079 3.58448 0
M  V30 2584 H 234.844 1.38995 4.72167 0
M  V30 2585 N 236.496 -1.42363 0.676048 0
M  V30 2586 C 237.912 -1.55811 0.345718 0
M  V30 2587 C 238.112 -1.65544 -1.14879 0
M  V30 2588 O 237.168 -1.62306 -1.93424 0
M  V30 2589 C 238.481 -2.80746 1.07713 0
M  V30 2590 C 240.029 -2.9452 1.05958 0
M  V30 2591 C 240.504 -4.22318 1.77233 0
M  V30 2592 N 241.995 -4.29233 1.74108 0
M  V30 2593 C 242.73 -5.26935 2.26113 0
M  V30 2594 N 242.226 -6.30783 2.86505 0
M  V30 2595 N 244.019 -5.18741 2.1648 0
M  V30 2596 H 236.17 -1.34289 1.6456 0
M  V30 2597 H 238.433 -0.646506 0.69335 0
M  V30 2598 H 238.139 -2.79696 2.13221 0
M  V30 2599 H 238.013 -3.71676 0.64316 0
M  V30 2600 H 240.4 -2.95097 0.0128255 0
M  V30 2601 H 240.481 -2.04817 1.53244 0
M  V30 2602 H 240.125 -4.22502 2.81877 0
M  V30 2603 H 240.055 -5.10958 1.27396 0
M  V30 2604 H 242.546 -3.54814 1.30059 0
M  V30 2605 H 242.859 -7.01691 3.23805 0
M  V30 2606 H 241.204 -6.31341 2.90575 0
M  V30 2607 H 244.395 -4.36533 1.68987 0
M  V30 2608 H 244.568 -5.94721 2.57316 0
M  V30 2609 N 237.974 -0.419461 -1.51915 0
M  V30 2610 C 239.221 0.152939 -2.01922 0
M  V30 2611 C 239.549 1.4426 -1.30458 0
M  V30 2612 O 238.804 1.91514 -0.402593 0
M  V30 2613 C 239.103 0.437067 -3.54717 0
M  V30 2614 C 238.769 -0.764632 -4.44369 0
M  V30 2615 C 237.431 -1.09423 -4.68594 0
M  V30 2616 C 239.783 -1.56713 -4.97082 0
M  V30 2617 C 237.111 -2.22732 -5.42777 0
M  V30 2618 C 239.463 -2.69107 -5.72507 0
M  V30 2619 C 238.127 -3.02541 -5.95 0
M  V30 2620 H 237.397 0.0559644 -0.738884 0
M  V30 2621 H 240.044 -0.562998 -1.83037 0
M  V30 2622 H 238.349 1.23469 -3.71837 0
M  V30 2623 H 240.046 0.893083 -3.90928 0
M  V30 2624 H 236.636 -0.497775 -4.257 0
M  V30 2625 H 240.82 -1.32571 -4.78266 0
M  V30 2626 H 236.076 -2.48971 -5.58411 0
M  V30 2627 H 240.25 -3.31671 -6.12346 0
M  V30 2628 H 237.877 -3.90457 -6.52264 0
M  V30 2629 N 239.452 1.56882 -0.150215 0
M  V30 2630 C 240.68 2.00593 0.506948 0
M  V30 2631 C 241.095 1.03033 1.58208 0
M  V30 2632 O 240.452 0.0278396 1.82479 0
M  V30 2633 C 240.503 3.44209 1.10465 0
M  V30 2634 O 240.224 4.3804 0.0724636 0
M  V30 2635 C 241.725 4.03214 1.84211 0
M  V30 2636 H 238.945 0.65795 0.13169 0
M  V30 2637 H 241.489 2.03018 -0.245743 0
M  V30 2638 H 239.644 3.42625 1.80795 0
M  V30 2639 H 240.058 5.22007 0.510793 0
M  V30 2640 H 241.532 5.0569 2.21318 0
M  V30 2641 H 242.009 3.44107 2.72923 0
M  V30 2642 H 242.615 4.08437 1.18572 0
M  V30 2643 N 240.93 -0.123565 1.57115 0
M  V30 2644 C 241.878 -1.17082 2.00984 0
M  V30 2645 C 242.872 -1.43136 0.906009 0
M  V30 2646 O 244.078 -1.43152 1.09121 0
M  V30 2647 H 240.453 -0.394653 0.64012 0
M  V30 2648 H 242.424 -0.774292 2.88179 0
M  V30 2649 C 241.173 -2.49057 2.42623 0
M  V30 2650 H 240.496 -2.29846 3.27125 0
M  V30 2651 H 241.936 -3.20906 2.7712 0
M  V30 2652 C 240.395 -3.11305 1.28805 0
M  V30 2653 O 240.925 -3.97171 0.60153 0
M  V30 2654 N 239.131 -2.71111 1.04628 0
M  V30 2655 H 238.678 -2.01382 1.60634 0
M  V30 2656 H 238.636 -3.1309 0.286685 0
M  V30 2657 N 242.408 -1.52605 -0.393616 0
M  V30 2658 C 243.685 -1.58001 -1.15304 0
M  V30 2659 C 244.065 -0.370385 -2.07825 0
M  V30 2660 O 243.413 0.641638 -2.19306 0
M  V30 2661 C 243.623 -2.91652 -1.91677 0
M  V30 2662 C 244.971 -3.4522 -2.47201 0
M  V30 2663 O 245.995 -2.93495 -2.01839 0
M  V30 2664 O 244.854 -4.35579 -3.3005 0
M  V30 2665 H 241.948 -0.637068 -0.527327 0
M  V30 2666 H 244.494 -1.64939 -0.399141 0
M  V30 2667 H 243.266 -3.71136 -1.23992 0
M  V30 2668 H 242.889 -2.88077 -2.74039 0
M  V30 2669 N 243.887 0.651787 -1.4349 0
M  V30 2670 C 244.817 1.77621 -1.51569 0
M  V30 2671 C 245.798 1.66022 -0.370253 0
M  V30 2672 O 246.983 1.85095 -0.587658 0
M  V30 2673 C 244.113 3.16056 -1.43966 0
M  V30 2674 C 243.067 3.4242 -2.56774 0
M  V30 2675 C 242.393 4.8067 -2.34223 0
M  V30 2676 C 243.693 3.37023 -3.99015 0
M  V30 2677 H 245.387 1.71117 -2.45681 0
M  V30 2678 H 242.933 0.821825 -1.18246 0
M  V30 2679 H 244.886 3.94472 -1.48221 0
M  V30 2680 H 243.61 3.23293 -0.463586 0
M  V30 2681 H 242.269 2.66375 -2.51873 0
M  V30 2682 H 241.917 4.84585 -1.34856 0
M  V30 2683 H 241.617 4.9927 -3.09844 0
M  V30 2684 H 243.141 5.61342 -2.40265 0
M  V30 2685 H 244.555 4.05374 -4.05395 0
M  V30 2686 H 242.952 3.67159 -4.74673 0
M  V30 2687 H 244.022 2.3518 -4.2405 0
M  V30 2688 N 245.365 1.30045 0.890287 0
M  V30 2689 C 246.295 1.18541 2.01172 0
M  V30 2690 C 247.276 0.0773356 1.69924 0
M  V30 2691 O 248.461 0.25845 1.92473 0
M  V30 2692 C 245.591 0.870941 3.36202 0
M  V30 2693 C 244.545 1.93637 3.81692 0
M  V30 2694 C 243.871 1.475 5.13953 0
M  V30 2695 C 245.171 3.34666 4.00994 0
M  V30 2696 H 246.865 2.12359 2.11054 0
M  V30 2697 H 244.411 1.02238 1.01407 0
M  V30 2698 H 246.364 0.777141 4.14172 0
M  V30 2699 H 245.088 -0.102926 3.26438 0
M  V30 2700 H 243.747 2.01972 3.05946 0
M  V30 2701 H 243.395 0.489551 5.00612 0
M  V30 2702 H 243.095 2.1876 5.4536 0
M  V30 2703 H 244.619 1.39489 5.94454 0
M  V30 2704 H 246.033 3.2912 4.69417 0
M  V30 2705 H 244.43 4.03966 4.43769 0
M  V30 2706 H 245.5 3.76949 3.05021 0
M  V30 2707 N 246.843 -1.10192 1.12674 0
M  V30 2708 C 247.791 -2.18694 0.792196 0
M  V30 2709 C 248.785 -1.67938 -0.222058 0
M  V30 2710 O 249.991 -1.79822 -0.0800074 0
M  V30 2711 H 246.366 -0.713223 0.238364 0
M  V30 2712 H 248.337 -2.44149 1.71564 0
M  V30 2713 C 247.086 -3.46682 0.265859 0
M  V30 2714 H 246.409 -3.86101 1.03761 0
M  V30 2715 H 247.849 -4.23942 0.0701128 0
M  V30 2716 C 246.308 -3.21506 -1.00675 0
M  V30 2717 O 246.838 -3.43408 -2.08408 0
M  V30 2718 N 245.044 -2.75158 -0.934692 0
M  V30 2719 H 244.591 -2.57535 -0.0578604 0
M  V30 2720 H 244.549 -2.58691 -1.7868 0
M  V30 2721 N 248.321 -0.919034 -1.28029 0
M  V30 2722 C 249.546 -0.570357 -1.99403 0
M  V30 2723 C 249.971 0.842486 -1.68178 0
M  V30 2724 O 249.329 1.56391 -0.917141 0
M  V30 2725 C 249.377 -0.792541 -3.51783 0
M  V30 2726 O 248.481 0.145988 -4.12142 0
M  V30 2727 H 247.822 -0.220555 -0.6263 0
M  V30 2728 H 250.352 -1.23592 -1.63053 0
M  V30 2729 H 250.362 -0.704708 -4.01868 0
M  V30 2730 H 249.037 -1.82247 -3.73844 0
M  V30 2731 H 247.614 0.00897528 -3.72899 0
M  V30 2732 N 249.799 1.42003 -0.683588 0
M  V30 2733 C 251.024 2.06265 -0.216647 0
M  V30 2734 C 251.449 1.51059 1.12083 0
M  V30 2735 O 250.807 0.632638 1.69904 0
M  V30 2736 C 250.855 3.60191 -0.171759 0
M  V30 2737 O 249.959 4.03396 0.857069 0
M  V30 2738 H 249.3 0.65502 -0.108834 0
M  V30 2739 H 251.83 1.81982 -0.935077 0
M  V30 2740 H 251.84 4.08 0.0014303 0
M  V30 2741 H 250.515 3.99743 -1.14796 0
M  V30 2742 H 249.092 3.67117 0.654208 0
M  V30 2743 N 251.277 0.427512 1.51691 0
M  V30 2744 C 252.502 -0.143601 2.06902 0
M  V30 2745 C 252.927 -1.36536 1.29382 0
M  V30 2746 O 252.285 -1.78289 0.329043 0
M  V30 2747 C 252.333 -0.454207 3.57728 0
M  V30 2748 O 251.437 -1.54228 3.82475 0
M  V30 2749 H 250.778 -0.00617128 0.663971 0
M  V30 2750 H 253.308 0.606014 1.95419 0
M  V30 2751 H 253.318 -0.707525 4.01818 0
M  V30 2752 H 251.993 0.438812 4.13579 0
M  V30 2753 H 250.57 -1.2797 3.50254 0
M  V30 2754 N 252.755 -1.56801 0.158532 0
M  V30 2755 C 253.718 -2.16138 -0.762705 0
M  V30 2756 C 254.718 -1.1061 -1.16713 0
M  V30 2757 O 255.908 -1.36191 -1.08617 0
M  V30 2758 C 253.04 -2.73386 -2.03649 0
M  V30 2759 H 254.233 -2.98886 -0.246354 0
M  V30 2760 H 251.786 -1.56035 -0.0909744 0
M  V30 2761 H 252.521 -1.94335 -2.59623 0
M  V30 2762 H 252.306 -3.50601 -1.75559 0
M  V30 2763 H 253.796 -3.19065 -2.6942 0
M  V30 2764 N 254.233 0.115231 -1.57178 0
M  V30 2765 C 255.482 0.820945 -1.84237 0
M  V30 2766 C 255.795 1.80866 -0.744761 0
M  V30 2767 O 257.001 2.56083 -0.901871 0
M  V30 2768 C 255.457 1.51072 -3.26658 0
M  V30 2769 C 255.065 0.563795 -4.44438 0
M  V30 2770 C 256.809 2.20134 -3.62962 0
M  V30 2771 C 254.716 1.25701 -5.77887 0
M  V30 2772 H 253.646 0.310328 -0.687177 0
M  V30 2773 H 256.297 0.0737134 -1.83352 0
M  V30 2774 H 254.679 2.30471 -3.22024 0
M  V30 2775 H 255.853 -0.197247 -4.60378 0
M  V30 2776 H 254.168 -0.0200638 -4.16395 0
M  V30 2777 H 256.765 2.72696 -4.59936 0
M  V30 2778 H 257.108 2.98107 -2.90582 0
M  V30 2779 H 257.641 1.47619 -3.69396 0
M  V30 2780 H 254.38 0.518493 -6.53446 0
M  V30 2781 H 253.9 1.98997 -5.65827 0
M  V30 2782 H 255.579 1.78915 -6.2177 0
M  V30 2783 N 255.711 1.52812 0.385517 0
M  V30 2784 C 256.941 1.71658 1.14966 0
M  V30 2785 C 257.349 0.436253 1.84102 0
M  V30 2786 O 256.692 -0.599313 1.73649 0
M  V30 2787 C 256.754 2.81309 2.23843 0
M  V30 2788 C 256.418 4.22313 1.74644 0
M  V30 2789 C 257.415 5.05352 1.22129 0
M  V30 2790 C 255.1 4.68648 1.80761 0
M  V30 2791 C 257.094 6.32807 0.763838 0
M  V30 2792 C 254.781 5.96086 1.34627 0
M  V30 2793 C 255.779 6.77996 0.825264 0
M  V30 2794 O 255.467 8.03045 0.370669 0
M  V30 2795 H 255.199 0.578022 0.350523 0
M  V30 2796 H 257.753 2.00263 0.456509 0
M  V30 2797 H 255.983 2.48133 2.96592 0
M  V30 2798 H 257.672 2.88524 2.85497 0
M  V30 2799 H 258.438 4.70736 1.16758 0
M  V30 2800 H 254.317 4.04979 2.20256 0
M  V30 2801 H 257.861 6.96689 0.356494 0
M  V30 2802 H 253.758 6.30205 1.39686 0
M  V30 2803 H 254.526 8.17021 0.491829 0
M  V30 2804 N 257.189 -0.644168 1.43834 0
M  V30 2805 C 258.414 -1.43642 1.49605 0
M  V30 2806 C 258.839 -1.8773 0.117913 0
M  V30 2807 O 258.197 -1.57938 -0.890239 0
M  V30 2808 C 258.245 -2.6416 2.45463 0
M  V30 2809 O 257.349 -3.63538 1.94714 0
M  V30 2810 H 256.69 -0.430329 0.50568 0
M  V30 2811 H 259.22 -0.787448 1.8884 0
M  V30 2812 H 259.23 -3.11864 2.63068 0
M  V30 2813 H 257.905 -2.31414 3.45572 0
M  V30 2814 H 256.482 -3.2273 1.86814 0
M  V30 2815 N 258.668 -1.30515 -0.883378 0
M  V30 2816 C 259.615 -1.17032 -1.98927 0
M  V30 2817 C 260.585 -0.0594241 -1.65994 0
M  V30 2818 O 261.77 -0.229895 -1.8941 0
M  V30 2819 C 258.91 -0.869777 -3.33959 0
M  V30 2820 C 258.023 -2.06271 -3.79574 0
M  V30 2821 C 257.158 -1.70011 -5.03259 0
M  V30 2822 C 256.197 -2.8579 -5.41286 0
M  V30 2823 N 255.334 -2.49816 -6.56153 0
M  V30 2824 H 260.174 -2.1164 -2.09792 0
M  V30 2825 H 257.711 -1.05296 -1.02719 0
M  V30 2826 H 259.669 -0.676138 -4.11685 0
M  V30 2827 H 258.299 0.0394332 -3.22776 0
M  V30 2828 H 257.351 -2.36755 -2.97744 0
M  V30 2829 H 258.663 -2.92971 -4.03694 0
M  V30 2830 H 257.817 -1.47032 -5.88614 0
M  V30 2831 H 256.556 -0.804829 -4.81013 0
M  V30 2832 H 255.561 -3.09434 -4.54456 0
M  V30 2833 H 256.786 -3.76008 -5.65504 0
M  V30 2834 H 254.732 -1.62795 -6.35479 0
M  V30 2835 H 254.649 -3.30048 -6.8015 0
M  V30 2836 H 255.917 -2.30197 -7.44735 0
M  V30 2837 N 260.146 1.09593 -1.13257 0
M  V30 2838 C 261.376 1.85231 -0.915049 0
M  V30 2839 C 261.784 1.81345 0.539498 0
M  V30 2840 O 261.127 1.20664 1.38513 0
M  V30 2841 C 261.189 3.34275 -1.3229 0
M  V30 2842 C 260.853 3.6191 -2.79052 0
M  V30 2843 C 261.85 3.57777 -3.77216 0
M  V30 2844 C 259.535 3.90309 -3.16171 0
M  V30 2845 C 261.529 3.81652 -5.1051 0
M  V30 2846 C 259.216 4.13839 -4.49644 0
M  V30 2847 C 260.214 4.09502 -5.46623 0
M  V30 2848 O 259.902 4.32426 -6.77689 0
M  V30 2849 H 259.634 0.591997 -0.326367 0
M  V30 2850 H 262.188 1.394 -1.50854 0
M  V30 2851 H 260.418 3.80805 -0.672667 0
M  V30 2852 H 262.107 3.9132 -1.07812 0
M  V30 2853 H 262.873 3.35865 -3.49885 0
M  V30 2854 H 258.752 3.92811 -2.41289 0
M  V30 2855 H 262.296 3.78182 -5.86195 0
M  V30 2856 H 258.193 4.35232 -4.767 0
M  V30 2857 H 258.961 4.49896 -6.83766 0
M  V30 2858 N 261.624 0.925811 1.2754 0
M  V30 2859 C 262.587 0.428129 2.25166 0
M  V30 2860 C 263.587 -0.452261 1.54309 0
M  V30 2861 O 264.777 -0.253608 1.72344 0
M  V30 2862 C 261.909 -0.384749 3.38722 0
M  V30 2863 H 263.102 1.29066 2.70706 0
M  V30 2864 H 260.655 0.706323 1.3943 0
M  V30 2865 H 261.39 -1.26618 2.98561 0
M  V30 2866 H 261.175 0.246454 3.91325 0
M  V30 2867 H 262.665 -0.723389 4.11287 0
M  V30 2868 N 263.102 -1.41638 0.69111 0
M  V30 2869 C 264.05 -2.32597 0.0115199 0
M  V30 2870 C 265.044 -1.5072 -0.773296 0
M  V30 2871 O 266.25 -1.66685 -0.67942 0
M  V30 2872 H 262.625 -0.751849 -0.0150746 0
M  V30 2873 H 264.596 -2.87593 0.795791 0
M  V30 2874 C 263.345 -3.35467 -0.914172 0
M  V30 2875 H 262.668 -3.9852 -0.319687 0
M  V30 2876 H 264.108 -4.01662 -1.35808 0
M  V30 2877 C 262.567 -2.69004 -2.02826 0
M  V30 2878 O 263.097 -2.53444 -3.11655 0
M  V30 2879 N 261.303 -2.2777 -1.80469 0
M  V30 2880 H 260.85 -2.40626 -0.919615 0
M  V30 2881 H 260.808 -1.83635 -2.55197 0
M  V30 2882 N 264.58 -0.43555 -1.51462 0
M  V30 2883 C 265.828 0.131254 -2.01673 0
M  V30 2884 C 266.149 1.43368 -1.32177 0
M  V30 2885 O 265.419 1.90524 -0.455769 0
M  V30 2886 H 263.999 0.0514954 -0.745223 0
M  V30 2887 H 266.661 -0.577847 -1.86137 0
M  V30 2888 H 265.757 0.308446 -3.10572 0
M  V30 2889 N 266.058 1.56714 -0.166846 0
M  V30 2890 C 267.307 1.95922 0.479318 0
M  V30 2891 C 267.62 1.05529 1.6469 0
M  V30 2892 O 268.826 1.34399 2.35901 0
M  V30 2893 C 267.282 3.48359 0.90412 0
M  V30 2894 C 266.89 4.47369 -0.237621 0
M  V30 2895 C 268.634 3.96394 1.51896 0
M  V30 2896 C 266.541 5.91039 0.206561 0
M  V30 2897 H 265.471 0.731495 0.18284 0
M  V30 2898 H 268.122 1.81728 -0.254363 0
M  V30 2899 H 266.504 3.57955 1.69365 0
M  V30 2900 H 267.678 4.49485 -1.01489 0
M  V30 2901 H 265.993 4.09366 -0.762128 0
M  V30 2902 H 268.59 5.01186 1.86325 0
M  V30 2903 H 268.933 3.39075 2.41524 0
M  V30 2904 H 269.466 3.89796 0.79395 0
M  V30 2905 H 266.205 6.52221 -0.654834 0
M  V30 2906 H 265.725 5.9224 0.949282 0
M  V30 2907 H 267.404 6.43707 0.651939 0
M  V30 2908 N 267.536 -0.106894 1.57237 0
M  V30 2909 C 268.446 -1.14911 2.0453 0
M  V30 2910 C 269.462 -1.44592 0.96795 0
M  V30 2911 O 270.638 -1.55468 1.2803 0
M  V30 2912 C 267.703 -2.45272 2.45036 0
M  V30 2913 C 266.764 -2.22879 3.66911 0
M  V30 2914 C 265.997 -3.47024 4.05475 0
M  V30 2915 O 266.22 -4.54804 3.44252 0
M  V30 2916 O 265.154 -3.3731 4.98504 0
M  V30 2917 H 268.98 -0.777461 2.9358 0
M  V30 2918 H 266.565 -0.318563 1.45964 0
M  V30 2919 H 268.447 -3.22055 2.71769 0
M  V30 2920 H 267.122 -2.81886 1.59129 0
M  V30 2921 H 266.029 -1.43915 3.45311 0
M  V30 2922 H 267.362 -1.91163 4.53561 0
M  V30 2923 N 269.014 -1.53014 -0.377408 0
M  V30 2924 C 270.263 -1.67845 -1.11853 0
M  V30 2925 C 270.576 -0.430625 -1.90801 0
M  V30 2926 O 271.782 -0.459261 -2.67587 0
M  V30 2927 C 270.238 -2.96668 -2.03756 0
M  V30 2928 C 269.846 -4.28671 -1.30175 0
M  V30 2929 C 271.59 -3.20865 -2.77932 0
M  V30 2930 C 269.497 -5.48591 -2.20911 0
M  V30 2931 H 268.427 -0.625343 -0.421263 0
M  V30 2932 H 271.078 -1.79514 -0.380409 0
M  V30 2933 H 269.46 -2.78773 -2.8125 0
M  V30 2934 H 270.634 -4.57157 -0.578259 0
M  V30 2935 H 268.949 -4.10825 -0.679108 0
M  V30 2936 H 271.546 -4.07642 -3.46024 0
M  V30 2937 H 271.889 -2.36424 -3.4265 0
M  V30 2938 H 272.422 -3.39379 -2.07525 0
M  V30 2939 H 269.161 -6.35474 -1.6079 0
M  V30 2940 H 268.681 -5.244 -2.91144 0
M  V30 2941 H 270.36 -5.8292 -2.80736 0
M  V30 2942 N 270.492 0.636531 -1.44174 0
M  V30 2943 C 271.424 1.7618 -1.46606 0
M  V30 2944 C 272.437 1.58768 -0.360091 0
M  V30 2945 O 273.626 1.67181 -0.625518 0
M  V30 2946 C 270.726 3.13833 -1.27915 0
M  V30 2947 C 269.899 3.57753 -2.51658 0
M  V30 2948 C 268.958 4.74265 -2.27945 0
M  V30 2949 O 267.984 4.82852 -3.01401 0
M  V30 2950 N 269.186 5.65604 -1.30662 0
M  V30 2951 H 271.951 1.74567 -2.43612 0
M  V30 2952 H 269.512 0.820924 -1.39544 0
M  V30 2953 H 271.504 3.8949 -1.09907 0
M  V30 2954 H 270.074 3.10121 -0.39293 0
M  V30 2955 H 269.294 2.72362 -2.84978 0
M  V30 2956 H 270.582 3.83847 -3.33974 0
M  V30 2957 H 269.98 5.61354 -0.699844 0
M  V30 2958 H 268.537 6.40913 -1.18634 0
M  V30 2959 N 271.97 1.30982 0.876444 0
M  V30 2960 C 272.9 1.20668 1.99903 0
M  V30 2961 C 273.881 0.095354 1.69833 0
M  V30 2962 O 275.066 0.27885 1.92188 0
M  V30 2963 C 272.196 0.90655 3.3526 0
M  V30 2964 C 271.15 1.97675 3.79617 0
M  V30 2965 C 270.476 1.52943 5.1236 0
M  V30 2966 C 271.776 3.389 3.97422 0
M  V30 2967 H 273.47 2.14586 2.0879 0
M  V30 2968 H 271.016 1.03308 1.00317 0
M  V30 2969 H 272.969 0.821025 4.13324 0
M  V30 2970 H 271.693 -0.0682969 3.26529 0
M  V30 2971 H 270.352 2.05205 3.03787 0
M  V30 2972 H 270 0.54262 5.00065 0
M  V30 2973 H 269.7 2.24532 5.43009 0
M  V30 2974 H 271.224 1.45786 5.92941 0
M  V30 2975 H 272.638 3.34081 4.659 0
M  V30 2976 H 271.035 4.0865 4.3946 0
M  V30 2977 H 272.105 3.80163 3.01006 0
M  V30 2978 N 273.449 -1.08991 1.13837 0
M  V30 2979 C 274.396 -2.15748 0.819835 0
M  V30 2980 C 275.366 -1.64636 -0.220026 0
M  V30 2981 O 276.551 -1.90582 -0.0912757 0
M  V30 2982 C 273.691 -3.4382 0.296913 0
M  V30 2983 C 272.804 -4.0881 1.39636 0
M  V30 2984 C 271.939 -5.24655 0.831314 0
M  V30 2985 C 270.978 -5.81575 1.90886 0
M  V30 2986 N 270.115 -6.88774 1.36142 0
M  V30 2987 H 274.955 -2.42338 1.73426 0
M  V30 2988 H 272.492 -1.18935 0.865613 0
M  V30 2989 H 274.45 -4.17193 -0.0244339 0
M  V30 2990 H 273.08 -3.17535 -0.580628 0
M  V30 2991 H 272.132 -3.33258 1.83422 0
M  V30 2992 H 273.444 -4.47141 2.21058 0
M  V30 2993 H 272.598 -6.04942 0.461515 0
M  V30 2994 H 271.337 -4.87698 -0.013932 0
M  V30 2995 H 270.342 -4.99946 2.28767 0
M  V30 2996 H 271.567 -6.20592 2.75758 0
M  V30 2997 H 269.513 -6.53788 0.538254 0
M  V30 2998 H 269.43 -7.25898 2.11208 0
M  V30 2999 H 270.698 -7.72806 1.01933 0
M  V30 3000 N 274.927 -0.932562 -1.27047 0
M  V30 3001 C 275.874 -0.434072 -2.26681 0
M  V30 3002 C 276.844 0.501639 -1.58344 0
M  V30 3003 O 278.029 0.419734 -1.86126 0
M  V30 3004 C 275.169 0.30261 -3.43771 0
M  V30 3005 C 274.282 -0.667774 -4.26808 0
M  V30 3006 C 273.417 0.0892393 -5.31125 0
M  V30 3007 C 272.456 -0.873532 -6.05835 0
M  V30 3008 N 271.593 -0.148832 -7.01942 0
M  V30 3009 H 276.433 -1.28868 -2.68695 0
M  V30 3010 H 273.97 -0.646713 -1.32121 0
M  V30 3011 H 275.928 0.746092 -4.10474 0
M  V30 3012 H 274.558 1.12142 -3.02695 0
M  V30 3013 H 273.61 -1.22978 -3.59973 0
M  V30 3014 H 274.922 -1.40337 -4.78651 0
M  V30 3015 H 274.076 0.592409 -6.03801 0
M  V30 3016 H 272.815 0.85777 -4.80097 0
M  V30 3017 H 271.82 -1.38791 -5.31994 0
M  V30 3018 H 273.045 -1.64193 -6.58952 0
M  V30 3019 H 270.991 0.601365 -6.53238 0
M  V30 3020 H 270.908 -0.82391 -7.51497 0
M  V30 3021 H 272.176 0.333527 -7.78786 0
M  V30 3022 N 276.405 1.4127 -0.698611 0
M  V30 3023 C 277.368 2.29158 -0.044132 0
M  V30 3024 C 278.368 1.44529 0.704841 0
M  V30 3025 O 279.558 1.65643 0.539276 0
M  V30 3026 C 276.69 3.27459 0.947809 0
M  V30 3027 H 277.883 2.88529 -0.817994 0
M  V30 3028 H 275.436 1.49307 -0.46228 0
M  V30 3029 H 276.171 2.73073 1.74933 0
M  V30 3030 H 275.956 3.8991 0.41385 0
M  V30 3031 H 277.446 3.93311 1.40344 0
M  V30 3032 N 277.883 0.443576 1.51229 0
M  V30 3033 C 279.113 -0.119117 2.06256 0
M  V30 3034 C 279.521 -1.36471 1.31043 0
M  V30 3035 O 278.864 -1.80034 0.365151 0
M  V30 3036 C 278.926 -0.500546 3.55998 0
M  V30 3037 C 278.59 0.639125 4.52509 0
M  V30 3038 C 279.587 1.51311 4.97394 0
M  V30 3039 C 277.272 0.821632 4.95535 0
M  V30 3040 C 279.266 2.55425 5.83984 0
M  V30 3041 C 276.953 1.86603 5.81913 0
M  V30 3042 C 277.951 2.73072 6.26036 0
M  V30 3043 O 277.639 3.75718 7.10698 0
M  V30 3044 H 277.371 -0.00857665 0.675946 0
M  V30 3045 H 279.925 0.623288 1.95715 0
M  V30 3046 H 278.155 -1.29575 3.64345 0
M  V30 3047 H 279.844 -0.995116 3.93513 0
M  V30 3048 H 280.61 1.38367 4.64844 0
M  V30 3049 H 276.489 0.158149 4.60729 0
M  V30 3050 H 280.033 3.22949 6.18344 0
M  V30 3051 H 275.93 1.99564 6.13876 0
M  V30 3052 H 276.698 3.72374 7.2889 0
M  V30 3053 N 279.361 -1.56624 0.175154 0
M  V30 3054 C 280.271 -2.21741 -0.766042 0
M  V30 3055 C 281.287 -1.21023 -1.25018 0
M  V30 3056 O 282.463 -1.53697 -1.3015 0
M  V30 3057 C 279.528 -2.84839 -1.97655 0
M  V30 3058 C 278.589 -4.00769 -1.53892 0
M  V30 3059 C 277.822 -4.60849 -2.69173 0
M  V30 3060 O 278.045 -4.19823 -3.86141 0
M  V30 3061 O 276.979 -5.50655 -2.43028 0
M  V30 3062 H 280.805 -3.02738 -0.241585 0
M  V30 3063 H 278.39 -1.49305 -0.053222 0
M  V30 3064 H 280.272 -3.24834 -2.68442 0
M  V30 3065 H 278.947 -2.06836 -2.48999 0
M  V30 3066 H 277.854 -3.65436 -0.80044 0
M  V30 3067 H 279.187 -4.80376 -1.07236 0
M  V30 3068 N 280.839 0.0985539 -1.57292 0
M  V30 3069 C 282.255 0.45267 -1.53046 0
M  V30 3070 C 282.455 1.80713 -0.891342 0
M  V30 3071 O 281.511 2.4785 -0.482375 0
M  V30 3072 C 282.824 0.418341 -2.97776 0
M  V30 3073 C 284.372 0.500443 -3.08973 0
M  V30 3074 C 284.847 0.496297 -4.55303 0
M  V30 3075 N 286.338 0.557151 -4.59837 0
M  V30 3076 C 287.073 0.575726 -5.70502 0
M  V30 3077 N 286.569 0.550714 -6.90608 0
M  V30 3078 N 288.362 0.620277 -5.58667 0
M  V30 3079 H 280.513 -0.788673 -1.97215 0
M  V30 3080 H 282.776 -0.293188 -0.901524 0
M  V30 3081 H 282.482 -0.509659 -3.47988 0
M  V30 3082 H 282.356 1.2386 -3.56284 0
M  V30 3083 H 284.743 1.41886 -2.58751 0
M  V30 3084 H 284.824 -0.347894 -2.53423 0
M  V30 3085 H 284.468 -0.418162 -5.06176 0
M  V30 3086 H 284.398 1.3618 -5.08687 0
M  V30 3087 H 286.889 0.581816 -3.73394 0
M  V30 3088 H 287.202 0.568075 -7.70709 0
M  V30 3089 H 285.547 0.517816 -6.93068 0
M  V30 3090 H 288.738 0.637322 -4.63741 0
M  V30 3091 H 288.911 0.631283 -6.44918 0
M  V30 3092 N 282.317 1.53212 0.369288 0
M  V30 3093 C 283.566 1.68436 1.10961 0
M  V30 3094 C 283.879 0.440738 1.9057 0
M  V30 3095 O 285.085 0.473446 2.6734 0
M  V30 3096 C 283.541 2.97744 2.0218 0
M  V30 3097 C 283.149 4.29355 1.279 0
M  V30 3098 C 284.893 3.22334 2.76226 0
M  V30 3099 C 282.8 5.49755 2.17999 0
M  V30 3100 H 281.73 0.627568 0.41794 0
M  V30 3101 H 284.381 1.79713 0.370884 0
M  V30 3102 H 282.763 2.8026 2.79768 0
M  V30 3103 H 283.937 4.57458 0.554007 0
M  V30 3104 H 282.252 4.11179 0.657311 0
M  V30 3105 H 284.849 4.09471 3.43857 0
M  V30 3106 H 285.192 2.38238 3.41392 0
M  V30 3107 H 285.725 3.40475 2.05723 0
M  V30 3108 H 282.464 6.36318 1.57417 0
M  V30 3109 H 281.984 5.25937 2.88359 0
M  V30 3110 H 283.663 5.84401 2.77641 0
M  V30 3111 N 283.795 -0.628877 1.44509 0
M  V30 3112 C 284.727 -1.754 1.47538 0
M  V30 3113 C 285.74 -1.58575 0.368506 0
M  V30 3114 O 286.929 -1.66847 0.634376 0
M  V30 3115 C 284.029 -3.1315 1.29577 0
M  V30 3116 C 283.202 -3.56413 2.53551 0
M  V30 3117 C 282.261 -4.7305 2.30457 0
M  V30 3118 O 281.287 -4.81247 3.03957 0
M  V30 3119 N 282.489 -5.64903 1.3366 0
M  V30 3120 H 285.254 -1.73272 2.44534 0
M  V30 3121 H 282.815 -0.813512 1.39977 0
M  V30 3122 H 284.807 -3.88902 1.11971 0
M  V30 3123 H 283.377 -3.09908 0.409371 0
M  V30 3124 H 282.597 -2.70847 2.86419 0
M  V30 3125 H 283.885 -3.82071 3.36005 0
M  V30 3126 H 283.283 -5.60975 0.729604 0
M  V30 3127 H 281.84 -6.40275 1.22032 0
M  V30 3128 N 285.273 -1.31445 -0.869486 0
M  V30 3129 C 286.521 -1.20918 -1.61936 0
M  V30 3130 C 286.842 0.232683 -1.93607 0
M  V30 3131 O 286.112 1.15352 -1.58338 0
M  V30 3132 H 284.692 -0.44454 -0.600328 0
M  V30 3133 H 287.354 -1.64776 -1.0409 0
M  V30 3134 H 286.45 -1.78124 -2.56278 0
M  V30 3135 N 286.751 1.08385 -1.14413 0
M  V30 3136 C 287.998 1.80776 -0.912482 0
M  V30 3137 C 288.326 1.86236 0.560934 0
M  V30 3138 O 287.581 1.33431 1.43159 0
M  V30 3139 C 287.88 3.26273 -1.45879 0
M  V30 3140 C 287.546 3.4093 -2.95089 0
M  V30 3141 C 286.208 3.44638 -3.35824 0
M  V30 3142 C 288.56 3.44591 -3.91033 0
M  V30 3143 C 285.888 3.49597 -4.71167 0
M  V30 3144 C 288.24 3.51086 -5.26233 0
M  V30 3145 C 286.904 3.53067 -5.6648 0
M  V30 3146 H 286.174 0.661507 -0.333901 0
M  V30 3147 H 288.821 1.27613 -1.42784 0
M  V30 3148 H 287.126 3.82146 -0.864376 0
M  V30 3149 H 288.823 3.80839 -1.2555 0
M  V30 3150 H 285.413 3.38736 -2.62594 0
M  V30 3151 H 289.597 3.40957 -3.60641 0
M  V30 3152 H 284.853 3.49424 -5.0171 0
M  V30 3153 H 289.027 3.52864 -6.00383 0
M  V30 3154 H 286.654 3.56662 -6.71339 0
M  V30 3155 N 288.23 0.939286 1.26551 0
M  V30 3156 C 289.14 0.453432 2.30176 0
M  V30 3157 C 290.156 -0.471649 1.67486 0
M  V30 3158 O 291.332 -0.35164 1.98306 0
M  V30 3159 C 288.397 -0.275326 3.45605 0
M  V30 3160 C 287.458 0.686084 4.23782 0
M  V30 3161 C 286.691 -0.00798994 5.33699 0
M  V30 3162 O 286.914 -1.22528 5.57085 0
M  V30 3163 O 285.848 0.669746 5.98162 0
M  V30 3164 H 289.674 1.31416 2.73795 0
M  V30 3165 H 287.259 0.705095 1.31715 0
M  V30 3166 H 289.141 -0.685911 4.1578 0
M  V30 3167 H 287.816 -1.11147 3.0402 0
M  V30 3168 H 286.723 1.14658 3.56096 0
M  V30 3169 H 288.056 1.48979 4.69112 0
M  V30 3170 N 289.708 -1.40897 0.706093 0
M  V30 3171 C 290.933 -2.05895 0.249435 0
M  V30 3172 C 291.358 -1.52823 -1.09666 0
M  V30 3173 O 290.716 -0.659589 -1.68876 0
M  V30 3174 C 290.764 -3.59872 0.22904 0
M  V30 3175 O 289.868 -4.04708 -0.792784 0
M  V30 3176 H 289.209 -0.653206 0.119241 0
M  V30 3177 H 291.739 -1.80471 0.96391 0
M  V30 3178 H 291.749 -4.07951 0.0634791 0
M  V30 3179 H 290.424 -3.97866 1.21141 0
M  V30 3180 H 289.001 -3.68111 -0.59572 0
M  V30 3181 N 291.186 -0.45159 -1.50991 0
M  V30 3182 C 292.432 0.110237 -2.025 0
M  V30 3183 C 292.765 1.41109 -1.33424 0
M  V30 3184 O 292.04 1.89135 -0.453659 0
M  V30 3185 C 292.323 0.314271 -3.58726 0
M  V30 3186 C 292.176 -1.00623 -4.38401 0
M  V30 3187 C 293.495 1.07767 -4.26702 0
M  V30 3188 H 290.614 0.0385897 -0.735989 0
M  V30 3189 H 293.256 -0.593374 -1.80497 0
M  V30 3190 H 291.406 0.913601 -3.77605 0
M  V30 3191 H 293.078 -1.64064 -4.31139 0
M  V30 3192 H 291.321 -1.6075 -4.02917 0
M  V30 3193 H 291.992 -0.817341 -5.45915 0
M  V30 3194 H 294.468 0.56986 -4.12179 0
M  V30 3195 H 293.344 1.18921 -5.35863 0
M  V30 3196 H 293.605 2.10939 -3.88532 0
M  V30 3197 N 292.664 1.56529 -0.183458 0
M  V30 3198 C 293.596 2.15747 0.773697 0
M  V30 3199 C 294.609 1.1162 1.1851 0
M  V30 3200 O 295.798 1.3876 1.12285 0
M  V30 3201 C 292.898 2.6952 2.05456 0
M  V30 3202 C 292.071 3.98429 1.8048 0
M  V30 3203 C 291.13 4.37145 2.92901 0
M  V30 3204 O 290.156 5.04791 2.6301 0
M  V30 3205 N 291.358 3.99695 4.2098 0
M  V30 3206 H 294.123 2.98505 0.26736 0
M  V30 3207 H 291.684 1.619 -0.0010878 0
M  V30 3208 H 293.676 2.92412 2.79781 0
M  V30 3209 H 292.246 1.91282 2.47245 0
M  V30 3210 H 291.466 3.8379 0.899947 0
M  V30 3211 H 292.754 4.82597 1.61175 0
M  V30 3212 H 292.152 3.4526 4.48121 0
M  V30 3213 H 290.709 4.27562 4.9197 0
M  V30 3214 N 294.142 -0.090211 1.57342 0
M  V30 3215 C 295.388 -0.793982 1.86611 0
M  V30 3216 C 295.721 -1.78142 0.773252 0
M  V30 3217 O 294.996 -1.93271 -0.218304 0
M  V30 3218 C 295.279 -1.51839 3.26523 0
M  V30 3219 C 295.132 -0.548609 4.46442 0
M  V30 3220 C 296.451 -2.46779 3.64401 0
M  V30 3221 H 293.57 -0.287186 0.678744 0
M  V30 3222 H 296.212 -0.0575076 1.89913 0
M  V30 3223 H 294.362 -2.14617 3.23839 0
M  V30 3224 H 296.034 0.0725513 4.61243 0
M  V30 3225 H 294.277 0.137614 4.33582 0
M  V30 3226 H 294.948 -1.09271 5.41076 0
M  V30 3227 H 297.424 -1.94089 3.68061 0
M  V30 3228 H 296.3 -2.94479 4.63221 0
M  V30 3229 H 296.561 -3.30758 2.93346 0
M  V30 3230 N 295.62 -1.53406 -0.361157 0
M  V30 3231 C 296.848 -1.73717 -1.12383 0
M  V30 3232 C 297.263 -0.468161 -1.82904 0
M  V30 3233 O 296.62 0.559198 -1.73722 0
M  V30 3234 C 296.671 -2.90558 -2.15078 0
M  V30 3235 O 296.392 -4.12549 -1.47428 0
M  V30 3236 C 297.893 -3.22777 -3.03858 0
M  V30 3237 H 295.113 -0.580896 -0.335858 0
M  V30 3238 H 297.657 -2.00167 -0.418728 0
M  V30 3239 H 295.812 -2.66489 -2.8118 0
M  V30 3240 H 296.226 -4.78009 -2.15887 0
M  V30 3241 H 297.7 -4.07927 -3.71887 0
M  V30 3242 H 298.177 -2.38329 -3.68912 0
M  V30 3243 H 298.783 -3.48787 -2.43367 0
M  V30 3244 N 297.098 0.621204 -1.44841 0
M  V30 3245 C 298.03 1.74615 -1.48466 0
M  V30 3246 C 299.043 1.58377 -0.37691 0
M  V30 3247 O 300.232 1.66508 -0.643215 0
M  V30 3248 C 297.332 3.12459 -1.31236 0
M  V30 3249 C 296.505 3.55064 -2.55438 0
M  V30 3250 C 295.564 4.71821 -2.32963 0
M  V30 3251 O 294.59 4.79628 -3.06505 0
M  V30 3252 N 295.792 5.64186 -1.36654 0
M  V30 3253 H 298.557 1.71973 -2.45449 0
M  V30 3254 H 296.118 0.806077 -1.40407 0
M  V30 3255 H 298.11 3.88302 -1.14032 0
M  V30 3256 H 296.68 3.09686 -0.4258 0
M  V30 3257 H 295.9 2.69324 -2.87851 0
M  V30 3258 H 297.188 3.80284 -3.38026 0
M  V30 3259 H 296.586 5.6058 -0.759344 0
M  V30 3260 H 295.143 6.39618 -1.25425 0
M  V30 3261 N 298.576 1.31904 0.862503 0
M  V30 3262 C 299.823 1.22017 1.61611 0
M  V30 3263 C 300.151 -0.21991 1.93253 0
M  V30 3264 O 299.406 -1.17076 1.56817 0
M  V30 3265 C 299.705 2.01713 2.95037 0
M  V30 3266 C 299.371 3.51145 2.82857 0
M  V30 3267 C 298.033 3.91889 2.79243 0
M  V30 3268 C 300.385 4.46204 2.69353 0
M  V30 3269 C 297.713 5.25947 2.59993 0
M  V30 3270 C 300.065 5.80397 2.5164 0
M  V30 3271 C 298.729 6.20352 2.46413 0
M  V30 3272 H 297.999 0.44649 0.591378 0
M  V30 3273 H 300.646 1.63248 1.00111 0
M  V30 3274 H 298.951 1.53185 3.60613 0
M  V30 3275 H 300.648 1.91437 3.52353 0
M  V30 3276 H 297.238 3.1878 2.86491 0
M  V30 3277 H 301.422 4.15652 2.71196 0
M  V30 3278 H 296.678 5.5597 2.54376 0
M  V30 3279 H 300.852 6.53676 2.40169 0
M  V30 3280 H 298.479 7.24172 2.31256 0
M  V30 3281 N 300.054 -1.07777 1.14986 0
M  V30 3282 C 301.47 -1.32373 0.891596 0
M  V30 3283 C 301.67 -1.9609 -0.463788 0
M  V30 3284 O 300.726 -2.21801 -1.20667 0
M  V30 3285 C 302.039 -2.21905 2.02925 0
M  V30 3286 C 303.587 -2.35367 2.06329 0
M  V30 3287 C 304.062 -3.28245 3.19405 0
M  V30 3288 N 305.553 -3.35824 3.19024 0
M  V30 3289 C 306.288 -4.07739 4.03158 0
M  V30 3290 N 305.784 -4.82306 4.97346 0
M  V30 3291 N 307.577 -4.03635 3.91197 0
M  V30 3292 H 299.728 -0.648039 2.02273 0
M  V30 3293 H 301.991 -0.348149 0.881757 0
M  V30 3294 H 301.697 -1.82342 3.0074 0
M  V30 3295 H 301.571 -3.22407 1.95789 0
M  V30 3296 H 303.958 -2.74186 1.09116 0
M  V30 3297 H 304.039 -1.34585 2.17533 0
M  V30 3298 H 303.683 -2.90146 4.16867 0
M  V30 3299 H 303.613 -4.28971 3.05437 0
M  V30 3300 H 306.104 -2.8267 2.50811 0
M  V30 3301 H 306.417 -5.34661 5.57994 0
M  V30 3302 H 304.762 -4.81337 5.01338 0
M  V30 3303 H 307.953 -3.44491 3.16928 0
M  V30 3304 H 308.126 -4.59417 4.5699 0
M  V30 3305 N 301.532 -0.945985 -1.26051 0
M  V30 3306 C 302.48 -0.450259 -2.282 0
M  V30 3307 C 303.474 0.47497 -1.62605 0
M  V30 3308 O 304.68 0.352653 -1.76512 0
M  V30 3309 H 301.055 -0.127081 -0.741184 0
M  V30 3310 H 303.026 -1.32422 -2.67408 0
M  V30 3311 C 301.775 0.26467 -3.46691 0
M  V30 3312 H 301.098 -0.438123 -3.97392 0
M  V30 3313 H 302.538 0.575678 -4.20074 0
M  V30 3314 C 300.997 1.48416 -3.02447 0
M  V30 3315 O 301.527 2.58227 -3.07704 0
M  V30 3316 N 299.733 1.34243 -2.57735 0
M  V30 3317 H 299.28 0.448994 -2.53657 0
M  V30 3318 H 299.238 2.15957 -2.28495 0
M  V30 3319 N 303.011 1.40521 -0.713556 0
M  V30 3320 C 304.259 2.00527 -0.251692 0
M  V30 3321 C 304.58 1.56857 1.15848 0
M  V30 3322 O 303.85 0.807127 1.785 0
M  V30 3323 H 302.43 0.741551 -0.0900646 0
M  V30 3324 H 305.092 1.71887 -0.918733 0
M  V30 3325 H 304.188 3.10813 -0.283192 0
M  V30 3326 N 304.489 0.459591 1.5075 0
M  V30 3327 C 305.714 -0.0996819 2.0716 0
M  V30 3328 C 306.139 -1.33761 1.32249 0
M  V30 3329 O 305.497 -1.77551 0.366786 0
M  V30 3330 C 305.545 -0.378226 3.58611 0
M  V30 3331 O 304.649 -1.46081 3.85661 0
M  V30 3332 H 303.99 0.00791392 0.663953 0
M  V30 3333 H 306.52 0.647329 1.9409 0
M  V30 3334 H 306.53 -0.622135 4.03229 0
M  V30 3335 H 305.205 0.526439 4.12555 0
M  V30 3336 H 303.782 -1.20511 3.5289 0
M  V30 3337 N 305.967 -1.56429 0.191757 0
M  V30 3338 C 307.216 -1.9666 -0.448088 0
M  V30 3339 C 307.529 -1.08136 -1.62991 0
M  V30 3340 O 308.735 -1.38135 -2.33733 0
M  V30 3341 C 307.191 -3.49753 -0.848585 0
M  V30 3342 C 306.799 -4.46935 0.308764 0
M  V30 3343 C 308.543 -3.9876 -1.4557 0
M  V30 3344 C 306.45 -5.91293 -0.112506 0
M  V30 3345 H 305.38 -0.734312 -0.171179 0
M  V30 3346 H 308.031 -1.81301 0.283242 0
M  V30 3347 H 306.413 -3.60604 -1.63649 0
M  V30 3348 H 307.587 -4.47813 1.08627 0
M  V30 3349 H 305.902 -4.08102 0.827158 0
M  V30 3350 H 308.499 -5.04086 -1.78328 0
M  V30 3351 H 308.842 -3.42875 -2.36099 0
M  V30 3352 H 309.375 -3.9101 -0.731836 0
M  V30 3353 H 306.114 -6.51097 0.758514 0
M  V30 3354 H 305.634 -5.93676 -0.854941 0
M  V30 3355 H 307.313 -6.44663 -0.549448 0
M  V30 3356 N 307.445 0.0818655 -1.57387 0
M  V30 3357 C 308.691 0.784074 -1.8703 0
M  V30 3358 C 309.024 1.77729 -0.782689 0
M  V30 3359 O 308.299 1.93384 0.208051 0
M  V30 3360 C 308.582 1.50105 -3.27323 0
M  V30 3361 C 308.435 0.524925 -4.46727 0
M  V30 3362 C 309.754 2.44843 -3.65705 0
M  V30 3363 H 306.873 0.283582 -0.680257 0
M  V30 3364 H 309.515 0.0474352 -1.89941 0
M  V30 3365 H 307.665 2.12897 -3.24972 0
M  V30 3366 H 309.337 -0.0970111 -4.61198 0
M  V30 3367 H 307.58 -0.160606 -4.33503 0
M  V30 3368 H 308.251 1.064 -5.41648 0
M  V30 3369 H 310.727 1.92135 -3.69085 0
M  V30 3370 H 309.603 2.92018 -4.64776 0
M  V30 3371 H 309.864 3.29197 -2.95096 0
M  V30 3372 N 308.923 1.53595 0.353017 0
M  V30 3373 C 309.886 1.80232 1.41594 0
M  V30 3374 C 310.886 0.673081 1.46035 0
M  V30 3375 O 312.076 0.941335 1.46576 0
M  V30 3376 C 309.208 1.93578 2.80607 0
M  V30 3377 H 310.401 2.75174 1.19244 0
M  V30 3378 H 307.954 1.44864 0.586872 0
M  V30 3379 H 308.689 1.00746 3.08254 0
M  V30 3380 H 308.474 2.75724 2.78781 0
M  V30 3381 H 309.964 2.15735 3.57558 0
M  V30 3382 N 310.401 -0.613514 1.45168 0
M  V30 3383 C 311.649 -1.36997 1.48581 0
M  V30 3384 C 311.97 -1.94589 0.126545 0
M  V30 3385 O 311.24 -1.76816 -0.843372 0
M  V30 3386 H 309.82 -0.508558 0.547154 0
M  V30 3387 H 312.482 -0.720853 1.81079 0
M  V30 3388 H 311.578 -2.1924 2.22127 0
M  V30 3389 N 311.879 -1.3236 -0.855495 0
M  V30 3390 C 313.109 -1.25688 -1.6397 0
M  V30 3391 C 313.517 0.177592 -1.88365 0
M  V30 3392 O 312.86 1.12485 -1.45234 0
M  V30 3393 C 312.922 -1.94602 -3.02275 0
M  V30 3394 C 312.586 -3.43937 -3.00926 0
M  V30 3395 C 313.583 -4.39435 -2.77835 0
M  V30 3396 C 311.268 -3.85858 -3.21588 0
M  V30 3397 C 313.262 -5.74829 -2.75409 0
M  V30 3398 C 310.949 -5.21361 -3.18789 0
M  V30 3399 C 311.947 -6.15658 -2.95727 0
M  V30 3400 O 311.635 -7.48681 -2.928 0
M  V30 3401 H 311.367 -0.434972 -0.51747 0
M  V30 3402 H 313.921 -1.75023 -1.075 0
M  V30 3403 H 312.151 -1.39836 -3.60531 0
M  V30 3404 H 313.84 -1.81651 -3.62985 0
M  V30 3405 H 314.606 -4.08374 -2.6164 0
M  V30 3406 H 310.485 -3.12883 -3.38564 0
M  V30 3407 H 314.029 -6.48404 -2.57328 0
M  V30 3408 H 309.926 -5.52052 -3.34528 0
M  V30 3409 H 310.694 -7.5803 -3.0876 0
M  V30 3410 N 313.357 1.07166 -1.15556 0
M  V30 3411 C 314.267 2.17947 -0.868116 0
M  V30 3412 C 315.283 1.73297 0.156297 0
M  V30 3413 O 316.459 2.01392 -0.0182327 0
M  V30 3414 C 313.524 3.44789 -0.36355 0
M  V30 3415 C 312.585 4.03996 -1.45209 0
M  V30 3416 C 311.818 5.24783 -0.971508 0
M  V30 3417 O 312.041 5.70109 0.182194 0
M  V30 3418 O 310.975 5.75715 -1.75603 0
M  V30 3419 H 314.801 2.4503 -1.79427 0
M  V30 3420 H 312.386 1.16539 -0.934824 0
M  V30 3421 H 314.268 4.21307 -0.0887113 0
M  V30 3422 H 312.943 3.19253 0.534708 0
M  V30 3423 H 311.85 3.29009 -1.78056 0
M  V30 3424 H 313.183 4.33808 -2.32533 0
M  V30 3425 N 314.835 0.952656 1.25548 0
M  V30 3426 C 316.081 0.607272 1.93494 0
M  V30 3427 C 316.414 -0.853245 1.74452 0
M  V30 3428 O 315.689 -1.61194 1.08843 0
M  V30 3429 C 315.972 0.96435 3.46947 0
M  V30 3430 C 315.825 2.48045 3.75225 0
M  V30 3431 C 317.144 0.487987 4.37386 0
M  V30 3432 H 314.263 0.222096 0.702739 0
M  V30 3433 H 316.905 1.18895 1.48203 0
M  V30 3434 H 315.055 0.469361 3.85654 0
M  V30 3435 H 316.727 3.04905 3.46166 0
M  V30 3436 H 314.97 2.919 3.209 0
M  V30 3437 H 315.641 2.6808 4.82532 0
M  V30 3438 H 318.117 0.912558 4.0597 0
M  V30 3439 H 316.993 0.766547 5.43521 0
M  V30 3440 H 317.254 -0.612063 4.37843 0
M  V30 3441 N 316.313 -1.40141 0.720998 0
M  V30 3442 C 317.559 -2.01084 0.263231 0
M  V30 3443 C 317.892 -1.57052 -1.14229 0
M  V30 3444 O 317.167 -0.793027 -1.77599 0
M  V30 3445 C 317.45 -3.58401 0.349344 0
M  V30 3446 C 317.303 -4.12491 1.79363 0
M  V30 3447 C 318.622 -4.39231 -0.276351 0
M  V30 3448 H 315.741 -0.730572 0.0971228 0
M  V30 3449 H 318.383 -1.66543 0.914518 0
M  V30 3450 H 316.533 -3.87958 -0.205165 0
M  V30 3451 H 318.205 -3.93711 2.40394 0
M  V30 3452 H 316.448 -3.66576 2.31958 0
M  V30 3453 H 317.119 -5.21646 1.80524 0
M  V30 3454 H 319.595 -4.15637 0.196184 0
M  V30 3455 H 318.471 -5.48586 -0.185681 0
M  V30 3456 H 318.732 -4.20643 -1.36059 0
M  V30 3457 N 317.792 -0.46758 -1.50504 0
M  V30 3458 C 319.04 0.0884469 -2.01906 0
M  V30 3459 C 319.361 1.40532 -1.35188 0
M  V30 3460 O 318.631 1.89515 -0.496079 0
M  V30 3461 H 317.211 0.0356765 -0.746148 0
M  V30 3462 H 319.873 -0.6172 -1.84869 0
M  V30 3463 H 318.969 0.2425 -3.11156 0
M  V30 3464 N 319.27 1.56325 -0.20005 0
M  V30 3465 C 320.495 2.02548 0.44597 0
M  V30 3466 C 320.92 1.07922 1.5406 0
M  V30 3467 O 320.278 0.0635775 1.81188 0
M  V30 3468 C 320.326 3.47175 0.974761 0
M  V30 3469 O 319.43 3.55671 2.08739 0
M  V30 3470 H 318.771 0.655862 0.103638 0
M  V30 3471 H 321.301 2.02201 -0.312381 0
M  V30 3472 H 321.311 3.87067 1.2901 0
M  V30 3473 H 319.986 4.15538 0.17347 0
M  V30 3474 H 318.563 3.27657 1.78032 0
M  V30 3475 N 320.748 -0.0735177 1.57428 0
M  V30 3476 C 321.973 -0.789787 1.91774 0
M  V30 3477 C 322.398 -1.70413 0.796306 0
M  V30 3478 O 321.756 -1.79555 -0.250961 0
M  V30 3479 C 321.804 -1.5609 3.25067 0
M  V30 3480 O 320.908 -2.67144 3.14178 0
M  V30 3481 H 320.249 -0.215582 0.628029 0
M  V30 3482 H 322.779 -0.0422781 2.04556 0
M  V30 3483 H 322.789 -1.94052 3.58898 0
M  V30 3484 H 321.464 -0.890015 4.06265 0
M  V30 3485 H 320.041 -2.32052 2.91901 0
M  V30 3486 N 322.226 -1.5378 -0.344866 0
M  V30 3487 C 323.451 -1.75211 -1.10977 0
M  V30 3488 C 323.876 -0.48936 -1.81623 0
M  V30 3489 O 323.234 0.557925 -1.72502 0
M  V30 3490 C 323.282 -2.93147 -2.09993 0
M  V30 3491 O 322.386 -2.63203 -3.17487 0
M  V30 3492 H 321.727 -0.581241 -0.321021 0
M  V30 3493 H 324.257 -2.00738 -0.395661 0
M  V30 3494 H 324.267 -3.19898 -2.53237 0
M  V30 3495 H 322.942 -3.84731 -1.5797 0
M  V30 3496 H 321.519 -2.47336 -2.79069 0
M  V30 3497 N 323.704 0.605807 -1.45491 0
M  V30 3498 C 324.667 1.69836 -1.5391 0
M  V30 3499 C 325.667 1.55261 -0.418424 0
M  V30 3500 O 326.857 1.60296 -0.681965 0
M  V30 3501 C 323.989 3.09117 -1.43734 0
M  V30 3502 H 325.182 1.63738 -2.51257 0
M  V30 3503 H 322.735 0.821689 -1.32959 0
M  V30 3504 H 323.47 3.20791 -0.475788 0
M  V30 3505 H 323.255 3.21104 -2.25021 0
M  V30 3506 H 324.745 3.88696 -1.52661 0
M  V30 3507 N 325.182 1.32811 0.848464 0
M  V30 3508 C 326.407 1.26882 1.6406 0
M  V30 3509 C 326.832 -0.15913 1.87426 0
M  V30 3510 O 326.19 -1.11258 1.43148 0
M  V30 3511 C 326.238 2.03997 2.97351 0
M  V30 3512 O 325.342 1.39201 3.88197 0
M  V30 3513 H 324.683 0.436982 0.499943 0
M  V30 3514 H 327.213 1.75224 1.0563 0
M  V30 3515 H 327.223 2.14403 3.47124 0
M  V30 3516 H 325.898 3.0783 2.79666 0
M  V30 3517 H 324.475 1.37381 3.46671 0
M  V30 3518 N 326.66 -1.06551 1.16123 0
M  V30 3519 C 327.57 -2.17484 0.879662 0
M  V30 3520 C 328.586 -1.73377 -0.147104 0
M  V30 3521 O 329.762 -2.01379 0.0289128 0
M  V30 3522 C 326.827 -3.44591 0.381829 0
M  V30 3523 C 325.888 -4.0322 1.4735 0
M  V30 3524 C 325.121 -5.24261 0.999324 0
M  V30 3525 O 325.344 -5.70198 -0.151957 0
M  V30 3526 O 324.278 -5.74775 1.78653 0
M  V30 3527 H 328.104 -2.44075 1.80724 0
M  V30 3528 H 325.689 -1.16042 0.940992 0
M  V30 3529 H 327.571 -4.21254 0.111053 0
M  V30 3530 H 326.246 -3.19532 -0.51777 0
M  V30 3531 H 325.153 -3.2806 1.79798 0
M  V30 3532 H 326.486 -4.32568 2.34831 0
M  V30 3533 N 328.138 -0.959301 -1.25041 0
M  V30 3534 C 329.068 -0.501388 -2.28053 0
M  V30 3535 C 330.049 0.454673 -1.63911 0
M  V30 3536 O 331.234 0.352618 -1.90972 0
M  V30 3537 C 328.364 0.217224 -3.4662 0
M  V30 3538 C 327.318 -0.654034 -4.22973 0
M  V30 3539 C 326.644 0.195589 -5.34342 0
M  V30 3540 C 327.944 -1.93447 -4.85155 0
M  V30 3541 H 329.638 -1.36238 -2.66608 0
M  V30 3542 H 327.184 -0.656534 -1.28163 0
M  V30 3543 H 329.137 0.548732 -4.17812 0
M  V30 3544 H 327.861 1.1125 -3.07068 0
M  V30 3545 H 326.52 -0.968693 -3.5357 0
M  V30 3546 H 326.168 1.09076 -4.91031 0
M  V30 3547 H 325.868 -0.384091 -5.86343 0
M  V30 3548 H 327.392 0.521958 -6.08365 0
M  V30 3549 H 328.806 -1.66908 -5.48466 0
M  V30 3550 H 327.203 -2.46018 -5.47353 0
M  V30 3551 H 328.273 -2.63466 -4.07079 0
M  V30 3552 N 329.616 1.39756 -0.72842 0
M  V30 3553 C 330.546 2.33289 -0.0991354 0
M  V30 3554 C 331.527 1.53568 0.731489 0
M  V30 3555 O 332.712 1.81987 0.677807 0
M  V30 3556 C 329.842 3.3763 0.813834 0
M  V30 3557 C 328.796 4.2791 0.0878663 0
M  V30 3558 C 328.122 5.22894 1.11741 0
M  V30 3559 C 329.422 5.11314 -1.06563 0
M  V30 3560 H 331.116 2.86163 -0.880408 0
M  V30 3561 H 328.662 1.37591 -0.424819 0
M  V30 3562 H 330.615 4.0201 1.26355 0
M  V30 3563 H 329.339 2.83181 1.62715 0
M  V30 3564 H 327.998 3.65 -0.342159 0
M  V30 3565 H 327.646 4.64744 1.92412 0
M  V30 3566 H 327.346 5.84143 0.636477 0
M  V30 3567 H 328.87 5.90151 1.56697 0
M  V30 3568 H 330.284 5.69076 -0.694671 0
M  V30 3569 H 328.681 5.81671 -1.47577 0
M  V30 3570 H 329.751 4.46534 -1.89038 0
M  V30 3571 N 331.094 0.475555 1.50254 0
M  V30 3572 C 332.319 -0.0777042 2.07254 0
M  V30 3573 C 332.744 -1.3235 1.3366 0
M  V30 3574 O 332.102 -1.77152 0.385597 0
M  V30 3575 C 332.15 -0.340169 3.58992 0
M  V30 3576 O 331.254 -1.41982 3.87188 0
M  V30 3577 H 330.595 0.0149556 0.663832 0
M  V30 3578 H 333.125 0.667878 1.93392 0
M  V30 3579 H 333.135 -0.579332 4.03866 0
M  V30 3580 H 331.81 0.570167 4.11973 0
M  V30 3581 H 330.387 -1.16762 3.54148 0
M  V30 3582 N 332.573 -1.56217 0.208337 0
M  V30 3583 C 333.536 -2.18455 -0.693557 0
M  V30 3584 C 334.536 -1.14268 -1.13135 0
M  V30 3585 O 335.726 -1.39577 -1.0423 0
M  V30 3586 C 332.858 -2.79727 -1.94848 0
M  V30 3587 H 334.051 -2.99519 -0.15114 0
M  V30 3588 H 331.604 -1.56245 -0.041287 0
M  V30 3589 H 332.339 -2.02497 -2.53309 0
M  V30 3590 H 332.124 -3.56009 -1.64316 0
M  V30 3591 H 333.614 -3.27475 -2.59133 0
M  V30 3592 N 334.051 0.0651679 -1.57465 0
M  V30 3593 C 335.3 0.761916 -1.86756 0
M  V30 3594 C 335.613 1.78406 -0.801925 0
M  V30 3595 O 336.819 2.53084 -0.982885 0
M  V30 3596 C 335.275 1.40603 -3.31299 0
M  V30 3597 C 334.883 0.422115 -4.46007 0
M  V30 3598 C 336.627 2.08476 -3.69781 0
M  V30 3599 C 334.534 1.07252 -5.81593 0
M  V30 3600 H 333.464 0.288308 -0.696702 0
M  V30 3601 H 336.115 0.015344 -1.83494 0
M  V30 3602 H 334.497 2.20109 -3.29193 0
M  V30 3603 H 335.671 -0.343613 -4.59517 0
M  V30 3604 H 333.986 -0.152527 -4.16121 0
M  V30 3605 H 336.583 2.57925 -4.68379 0
M  V30 3606 H 336.926 2.88712 -2.99919 0
M  V30 3607 H 337.459 1.35792 -3.73905 0
M  V30 3608 H 334.198 0.310342 -6.54765 0
M  V30 3609 H 333.718 1.80895 -5.71872 0
M  V30 3610 H 335.397 1.59043 -6.27148 0
M  V30 3611 N 335.529 1.53961 0.336706 0
M  V30 3612 C 336.439 1.85432 1.43708 0
M  V30 3613 C 337.455 0.745053 1.57242 0
M  V30 3614 O 338.631 1.03804 1.72588 0
M  V30 3615 C 335.696 2.06349 2.78605 0
M  V30 3616 C 334.757 3.30191 2.74358 0
M  V30 3617 C 333.99 3.50101 4.02822 0
M  V30 3618 O 334.213 2.7371 5.00439 0
M  V30 3619 O 333.147 4.43547 4.06878 0
M  V30 3620 H 336.973 2.78975 1.20028 0
M  V30 3621 H 334.558 1.39701 0.52952 0
M  V30 3622 H 336.44 2.21513 3.58483 0
M  V30 3623 H 335.115 1.15995 3.02203 0
M  V30 3624 H 334.022 3.20425 1.93078 0
M  V30 3625 H 335.355 4.2056 2.55715 0
M  V30 3626 N 337.007 -0.598083 1.45811 0
M  V30 3627 C 337.957 -1.70272 1.51629 0
M  V30 3628 C 338.941 -1.56382 0.378629 0
M  V30 3629 O 340.133 -1.65557 0.626087 0
M  V30 3630 C 337.262 -3.09042 1.49493 0
M  V30 3631 C 336.348 -3.28284 2.68496 0
M  V30 3632 N 336.739 -3.17748 3.93535 0
M  V30 3633 C 335.037 -3.59182 2.64394 0
M  V30 3634 C 335.738 -3.38579 4.7301 0
M  V30 3635 N 334.714 -3.63016 4.04624 0
M  V30 3636 H 338.516 -1.60634 2.46118 0
M  V30 3637 H 336.03 -0.801642 1.41235 0
M  V30 3638 H 338.027 -3.88302 1.51747 0
M  V30 3639 H 336.687 -3.19823 0.560683 0
M  V30 3640 H 337.698 -2.95944 4.25014 0
M  V30 3641 H 334.375 -3.76742 1.79922 0
M  V30 3642 H 335.765 -3.35747 5.82 0
M  V30 3643 N 338.485 -1.33259 -0.841409 0
M  V30 3644 C 339.731 -1.24757 -1.59886 0
M  V30 3645 C 340.064 0.186913 -1.93298 0
M  V30 3646 O 339.339 1.12757 -1.5848 0
M  V30 3647 C 339.622 -2.12036 -2.91055 0
M  V30 3648 C 339.475 -3.63929 -2.6434 0
M  V30 3649 C 340.794 -1.9916 -3.92458 0
M  V30 3650 H 337.913 -0.454542 -0.580138 0
M  V30 3651 H 340.555 -1.63335 -0.970647 0
M  V30 3652 H 338.705 -1.79265 -3.44669 0
M  V30 3653 H 340.377 -4.06978 -2.17178 0
M  V30 3654 H 338.62 -3.85935 -1.98082 0
M  V30 3655 H 339.291 -4.20341 -3.57796 0
M  V30 3656 H 341.767 -2.27895 -3.48143 0
M  V30 3657 H 340.643 -2.62484 -4.82072 0
M  V30 3658 H 340.904 -0.963082 -4.31482 0
M  V30 3659 N 339.963 1.05934 -1.16686 0
M  V30 3660 C 340.926 2.11669 -0.879144 0
M  V30 3661 C 341.926 1.60294 0.127445 0
M  V30 3662 O 343.116 1.7389 -0.103865 0
M  V30 3663 C 340.248 3.39438 -0.315425 0
M  V30 3664 H 341.441 2.38626 -1.81653 0
M  V30 3665 H 338.994 1.22058 -0.976299 0
M  V30 3666 H 339.729 3.18132 0.629468 0
M  V30 3667 H 339.514 3.78034 -1.04079 0
M  V30 3668 H 341.004 4.17391 -0.132189 0
M  V30 3669 N 341.441 0.965919 1.2453 0
M  V30 3670 C 342.351 0.502154 2.29163 0
M  V30 3671 C 343.367 -0.436017 1.68448 0
M  V30 3672 O 344.543 -0.309497 1.99008 0
M  V30 3673 C 341.608 -0.201956 3.46111 0
M  V30 3674 C 340.669 0.775821 4.22232 0
M  V30 3675 C 339.902 0.105217 5.33596 0
M  V30 3676 O 340.125 -1.10683 5.59558 0
M  V30 3677 O 339.059 0.796475 5.96607 0
M  V30 3678 H 342.885 1.37194 2.70946 0
M  V30 3679 H 340.47 0.732875 1.30189 0
M  V30 3680 H 342.352 -0.597564 4.17142 0
M  V30 3681 H 341.027 -1.04673 3.06309 0
M  V30 3682 H 339.934 1.22185 3.53584 0
M  V30 3683 H 341.267 1.58896 4.65846 0
M  V30 3684 N 342.919 -1.39368 0.735821 0
M  V30 3685 C 343.866 -2.30599 0.0963825 0
M  V30 3686 C 344.836 -1.49257 -0.728794 0
M  V30 3687 O 346.021 -1.77941 -0.688588 0
M  V30 3688 C 343.161 -3.35596 -0.804305 0
M  V30 3689 C 342.274 -4.31987 0.0335761 0
M  V30 3690 C 341.409 -5.24053 -0.868461 0
M  V30 3691 C 340.448 -6.12095 -0.0258776 0
M  V30 3692 N 339.585 -6.96514 -0.883893 0
M  V30 3693 H 344.425 -2.8471 0.880002 0
M  V30 3694 H 341.962 -1.40188 0.445619 0
M  V30 3695 H 343.92 -3.95062 -1.34096 0
M  V30 3696 H 342.55 -2.82938 -1.55389 0
M  V30 3697 H 341.602 -3.74133 0.68766 0
M  V30 3698 H 342.914 -4.94074 0.685036 0
M  V30 3699 H 342.068 -5.88549 -1.47293 0
M  V30 3700 H 340.807 -4.62289 -1.5537 0
M  V30 3701 H 339.812 -5.4661 0.591386 0
M  V30 3702 H 341.037 -6.75923 0.656156 0
M  V30 3703 H 338.983 -6.37318 -1.55441 0
M  V30 3704 H 338.9 -7.55448 -0.288931 0
M  V30 3705 H 340.168 -7.65439 -1.4739 0
M  V30 3706 N 344.397 -0.483516 -1.5 0
M  V30 3707 C 345.36 0.292965 -2.2732 0
M  V30 3708 C 346.36 0.909499 -1.32608 0
M  V30 3709 O 347.55 0.776745 -1.55924 0
M  V30 3710 C 344.682 1.41854 -3.09984 0
M  V30 3711 H 345.875 -0.385289 -2.97415 0
M  V30 3712 H 343.428 -0.237942 -1.54478 0
M  V30 3713 H 344.163 2.13148 -2.44414 0
M  V30 3714 H 343.948 0.982114 -3.79601 0
M  V30 3715 H 345.438 1.96597 -3.68429 0
M  V30 3716 N 345.875 1.56104 -0.216619 0
M  V30 3717 C 346.822 2.2007 0.695531 0
M  V30 3718 C 347.792 1.15471 1.19397 0
M  V30 3719 O 348.977 1.43807 1.25396 0
M  V30 3720 C 346.117 2.88073 1.90021 0
M  V30 3721 C 345.23 4.07253 1.44113 0
M  V30 3722 C 344.365 4.63052 2.603 0
M  V30 3723 C 343.404 5.74545 2.11103 0
M  V30 3724 N 342.541 6.24656 3.20545 0
M  V30 3725 H 347.381 2.97655 0.143327 0
M  V30 3726 H 344.918 1.46982 0.0589934 0
M  V30 3727 H 346.876 3.25681 2.60745 0
M  V30 3728 H 345.506 2.13015 2.42538 0
M  V30 3729 H 344.558 3.75164 0.628999 0
M  V30 3730 H 345.87 4.8783 1.04036 0
M  V30 3731 H 345.024 5.03078 3.39113 0
M  V30 3732 H 343.763 3.81628 3.03663 0
M  V30 3733 H 342.768 5.34027 1.3075 0
M  V30 3734 H 343.993 6.57801 1.68746 0
M  V30 3735 H 341.939 5.46148 3.63399 0
M  V30 3736 H 341.856 7.00343 2.84704 0
M  V30 3737 H 343.124 6.69338 3.99508 0
M  V30 3738 N 347.353 -0.0568162 1.57498 0
M  V30 3739 C 348.581 -0.765626 1.92213 0
M  V30 3740 C 348.996 -1.70353 0.813961 0
M  V30 3741 O 348.353 -1.81268 -0.211701 0
M  V30 3742 C 348.404 -1.5465 3.2675 0
M  V30 3743 O 348.125 -0.646278 4.33307 0
M  V30 3744 C 349.626 -2.35497 3.75574 0
M  V30 3745 H 346.846 -0.216835 0.634999 0
M  V30 3746 H 349.39 -0.0226146 2.04487 0
M  V30 3747 H 347.545 -2.24165 3.15957 0
M  V30 3748 H 347.959 -1.19093 5.108 0
M  V30 3749 H 349.433 -2.85722 4.72299 0
M  V30 3750 H 349.91 -3.15692 3.05344 0
M  V30 3751 H 350.516 -1.7111 3.8936 0
M  V30 3752 N 348.832 -1.54138 -0.328536 0
M  V30 3753 C 349.795 -1.82462 -1.38709 0
M  V30 3754 C 350.795 -0.696229 -1.44946 0
M  V30 3755 O 351.985 -0.964535 -1.4506 0
M  V30 3756 C 349.117 -1.98018 -2.77492 0
M  V30 3757 H 350.31 -2.77037 -1.14851 0
M  V30 3758 H 347.863 -1.45779 -0.563751 0
M  V30 3759 H 348.598 -1.05637 -3.06613 0
M  V30 3760 H 348.383 -2.80124 -2.74359 0
M  V30 3761 H 349.873 -2.21396 -3.54081 0
M  V30 3762 N 350.31 0.590341 -1.46126 0
M  V30 3763 C 351.24 1.71032 -1.58966 0
M  V30 3764 C 352.221 1.64302 -0.440335 0
M  V30 3765 O 353.406 1.82436 -0.665634 0
M  V30 3766 C 350.536 3.09665 -1.57241 0
M  V30 3767 C 349.49 3.31221 -2.71066 0
M  V30 3768 C 348.816 4.70303 -2.54399 0
M  V30 3769 C 350.116 3.19796 -4.1295 0
M  V30 3770 H 351.81 1.60543 -2.52718 0
M  V30 3771 H 349.356 0.770933 -1.21625 0
M  V30 3772 H 351.309 3.87831 -1.64819 0
M  V30 3773 H 350.033 3.21036 -0.600289 0
M  V30 3774 H 348.692 2.55452 -2.62944 0
M  V30 3775 H 348.34 4.78429 -1.55288 0
M  V30 3776 H 348.04 4.85679 -3.30741 0
M  V30 3777 H 349.564 5.50647 -2.63857 0
M  V30 3778 H 350.978 3.87815 -4.22223 0
M  V30 3779 H 349.375 3.46696 -4.89818 0
M  V30 3780 H 350.445 2.16983 -4.33643 0
M  V30 3781 N 351.788 1.33704 0.83433 0
M  V30 3782 C 352.738 1.20899 1.93306 0
M  V30 3783 C 353.722 0.110783 1.60518 0
M  V30 3784 O 354.914 0.339331 1.73717 0
M  V30 3785 C 352.043 0.955018 3.29749 0
M  V30 3786 C 351.129 2.09587 3.68692 0
M  V30 3787 N 351.52 3.34621 3.79292 0
M  V30 3788 C 349.818 2.00358 3.98463 0
M  V30 3789 C 350.519 4.09472 4.13167 0
M  V30 3790 N 349.495 3.37954 4.25779 0
M  V30 3791 H 353.297 2.15665 1.99664 0
M  V30 3792 H 350.811 1.25777 1.02732 0
M  V30 3793 H 352.808 0.844208 4.08263 0
M  V30 3794 H 351.468 0.0159317 3.24696 0
M  V30 3795 H 352.479 3.69313 3.63082 0
M  V30 3796 H 349.156 1.14137 4.01596 0
M  V30 3797 H 350.546 5.17391 4.28668 0
M  V30 3798 N 353.266 -1.05314 1.17247 0
M  V30 3799 C 354.213 -2.13031 0.888058 0
M  V30 3800 C 355.183 -1.65253 -0.167537 0
M  V30 3801 O 356.368 -1.90775 -0.0305974 0
M  V30 3802 C 353.508 -3.42702 0.406147 0
M  V30 3803 C 352.621 -4.04161 1.52572 0
M  V30 3804 C 351.756 -5.21744 0.997808 0
M  V30 3805 C 350.795 -5.75207 2.09291 0
M  V30 3806 N 349.932 -6.84094 1.57986 0
M  V30 3807 H 354.772 -2.36698 1.81048 0
M  V30 3808 H 352.309 -1.16121 0.903013 0
M  V30 3809 H 354.267 -4.17059 0.108305 0
M  V30 3810 H 352.897 -3.19222 -0.479313 0
M  V30 3811 H 351.949 -3.27253 1.93931 0
M  V30 3812 H 353.261 -4.39881 2.35172 0
M  V30 3813 H 352.415 -6.03168 0.653739 0
M  V30 3814 H 351.154 -4.87495 0.141232 0
M  V30 3815 H 350.159 -4.92414 2.44557 0
M  V30 3816 H 351.384 -6.11505 2.95362 0
M  V30 3817 H 349.33 -6.51745 0.74598 0
M  V30 3818 H 349.247 -7.18811 2.34195 0
M  V30 3819 H 350.515 -7.69172 1.26468 0
M  V30 3820 N 354.744 -0.972509 -1.24016 0
M  V30 3821 C 355.674 -0.525548 -2.27509 0
M  V30 3822 C 356.655 0.437262 -1.64384 0
M  V30 3823 O 357.84 0.332343 -1.91335 0
M  V30 3824 C 354.97 0.180448 -3.46831 0
M  V30 3825 C 353.924 -0.698859 -4.22256 0
M  V30 3826 C 353.25 0.138903 -5.3452 0
M  V30 3827 C 354.55 -1.98582 -4.83076 0
M  V30 3828 H 356.244 -1.39058 -2.65148 0
M  V30 3829 H 353.79 -0.67009 -1.27459 0
M  V30 3830 H 355.743 0.504387 -4.18371 0
M  V30 3831 H 354.467 1.07987 -3.08231 0
M  V30 3832 H 353.126 -1.00614 -3.52523 0
M  V30 3833 H 352.774 1.03862 -4.9216 0
M  V30 3834 H 352.474 -0.446259 -5.85903 0
M  V30 3835 H 353.998 0.457404 -6.08884 0
M  V30 3836 H 355.412 -1.72715 -5.46665 0
M  V30 3837 H 353.809 -2.5181 -5.44713 0
M  V30 3838 H 354.879 -2.67769 -4.04262 0
M  V30 3839 N 356.222 1.38976 -0.743202 0
M  V30 3840 C 357.469 2.00343 -0.294752 0
M  V30 3841 C 357.797 1.58983 1.12047 0
M  V30 3842 O 357.052 0.813809 1.77977 0
M  V30 3843 C 357.351 3.55647 -0.353517 0
M  V30 3844 C 357.017 4.16685 -1.72292 0
M  V30 3845 C 355.679 4.3307 -2.09771 0
M  V30 3846 C 358.031 4.50464 -2.62168 0
M  V30 3847 C 355.359 4.80526 -3.36618 0
M  V30 3848 C 357.711 4.99332 -3.88395 0
M  V30 3849 C 356.375 5.13924 -4.25956 0
M  V30 3850 H 355.645 0.733108 -0.107857 0
M  V30 3851 H 358.292 1.6618 -0.951651 0
M  V30 3852 H 356.597 3.89884 0.386954 0
M  V30 3853 H 358.294 4.00998 0.0117269 0
M  V30 3854 H 354.884 4.04339 -1.42155 0
M  V30 3855 H 359.068 4.37416 -2.3448 0
M  V30 3856 H 354.324 4.90008 -3.65653 0
M  V30 3857 H 358.498 5.2444 -4.58187 0
M  V30 3858 H 356.125 5.50457 -5.2431 0
M  V30 3859 N 357.7 0.491464 1.49741 0
M  V30 3860 C 359.111 0.0413169 1.86654 0
M  V30 3861 C 359.462 -1.36985 1.40462 0
M  V30 3862 O 358.587 -2.01917 0.778354 0
M  V30 3863 C 359.182 0.0682023 3.38731 0
M  V30 3864 C 357.741 -0.32656 3.74981 0
M  V30 3865 C 356.888 0.444888 2.73708 0
M  V30 3866 H 359.839 0.704733 1.42194 0
M  V30 3867 H 359.86 -0.729322 3.73445 0
M  V30 3868 H 359.372 1.09539 3.72321 0
M  V30 3869 H 357.473 -1.35734 3.46997 0
M  V30 3870 H 357.586 -0.013741 4.79098 0
M  V30 3871 H 355.95 -0.104062 2.54487 0
M  V30 3872 H 356.733 1.47197 3.10142 0
M  V30 3873 N 359.178 -1.55987 0.224894 0
M  V30 3874 C 360.108 -2.23426 -0.678457 0
M  V30 3875 C 361.089 -1.20709 -1.19847 0
M  V30 3876 O 362.274 -1.49304 -1.24186 0
M  V30 3877 C 359.404 -2.91676 -1.88527 0
M  V30 3878 C 358.358 -4.00893 -1.49896 0
M  V30 3879 C 357.684 -4.56455 -2.78483 0
M  V30 3880 C 358.984 -5.17769 -0.686461 0
M  V30 3881 H 360.678 -2.99175 -0.116173 0
M  V30 3882 H 358.224 -1.43897 -0.054436 0
M  V30 3883 H 360.177 -3.37547 -2.5227 0
M  V30 3884 H 358.901 -2.1338 -2.47258 0
M  V30 3885 H 357.56 -3.55758 -0.884985 0
M  V30 3886 H 357.208 -3.74886 -3.35365 0
M  V30 3887 H 356.908 -5.30169 -2.53368 0
M  V30 3888 H 358.432 -5.05047 -3.43162 0
M  V30 3889 H 359.846 -5.60001 -1.22767 0
M  V30 3890 H 358.243 -5.97735 -0.532259 0
M  V30 3891 H 359.313 -4.83932 0.306196 0
M  V30 3892 N 360.656 0.0484629 -1.57525 0
M  V30 3893 C 361.566 1.07241 -2.08654 0
M  V30 3894 C 362.582 1.409 -1.02095 0
M  V30 3895 O 363.758 1.50609 -1.33712 0
M  V30 3896 C 360.823 2.36008 -2.5397 0
M  V30 3897 C 359.884 2.09108 -3.7493 0
M  V30 3898 C 359.117 3.31736 -4.18075 0
M  V30 3899 O 359.34 4.41714 -3.60895 0
M  V30 3900 O 358.274 3.18576 -5.10679 0
M  V30 3901 H 362.1 0.667965 -2.96263 0
M  V30 3902 H 359.685 0.26417 -1.47046 0
M  V30 3903 H 361.567 3.11747 -2.83535 0
M  V30 3904 H 360.242 2.75786 -1.69481 0
M  V30 3905 H 359.149 1.31 -3.50414 0
M  V30 3906 H 360.482 1.74198 -4.60343 0
M  V30 3907 N 362.134 1.5431 0.320358 0
M  V30 3908 C 363.411 1.63322 1.07635 0
M  V30 3909 C 363.791 0.46912 2.05821 0
M  V30 3910 O 363.139 -0.536274 2.22118 0
M  V30 3911 C 363.349 3.00465 1.77544 0
M  V30 3912 C 364.697 3.56621 2.30449 0
M  V30 3913 O 365.721 3.02791 1.87606 0
M  V30 3914 O 364.58 4.5083 3.08892 0
M  V30 3915 H 361.674 0.661502 0.496331 0
M  V30 3916 H 364.22 1.66656 0.319992 0
M  V30 3917 H 362.992 3.76629 1.06143 0
M  V30 3918 H 362.615 3.00824 2.59982 0
M  V30 3919 N 363.613 -0.582584 1.46437 0
M  V30 3920 C 364.861 -1.33814 1.51453 0
M  V30 3921 C 365.182 -1.94277 0.167792 0
M  V30 3922 O 364.452 -1.78566 -0.805677 0
M  V30 3923 H 363.032 -0.496838 0.557818 0
M  V30 3924 H 365.694 -0.682281 1.82568 0
M  V30 3925 H 364.79 -2.14479 2.26728 0
M  V30 3926 N 365.091 -1.34144 -0.827227 0
M  V30 3927 C 366.316 -1.29476 -1.62021 0
M  V30 3928 C 366.741 0.129292 -1.87655 0
M  V30 3929 O 366.099 1.08967 -1.449 0
M  V30 3930 C 366.147 -2.08702 -2.94068 0
M  V30 3931 O 365.251 -1.45359 -3.85933 0
M  V30 3932 H 364.592 -0.444881 -0.492927 0
M  V30 3933 H 367.122 -1.76882 -1.02829 0
M  V30 3934 H 367.132 -2.19898 -3.43669 0
M  V30 3935 H 365.807 -3.12241 -2.74734 0
M  V30 3936 H 364.384 -1.42879 -3.44442 0
M  V30 3937 N 366.569 1.04691 -1.17803 0
M  V30 3938 C 367.816 1.77782 -0.969532 0
M  V30 3939 C 368.144 1.87926 0.501401 0
M  V30 3940 O 367.399 1.37918 1.38842 0
M  V30 3941 C 367.698 3.21467 -1.56186 0
M  V30 3942 C 367.364 3.3137 -3.05786 0
M  V30 3943 C 366.026 3.3378 -3.46619 0
M  V30 3944 C 368.378 3.31976 -4.01797 0
M  V30 3945 C 365.706 3.34431 -4.82051 0
M  V30 3946 C 368.058 3.34167 -5.37136 0
M  V30 3947 C 366.722 3.34866 -5.77426 0
M  V30 3948 H 365.992 0.650549 -0.354777 0
M  V30 3949 H 368.639 1.23006 -1.46772 0
M  V30 3950 H 366.944 3.79203 -0.985515 0
M  V30 3951 H 368.641 3.76652 -1.37602 0
M  V30 3952 H 365.231 3.3021 -2.73238 0
M  V30 3953 H 369.415 3.29311 -3.71306 0
M  V30 3954 H 364.671 3.33285 -5.12573 0
M  V30 3955 H 368.845 3.33585 -6.11305 0
M  V30 3956 H 366.472 3.35124 -6.82346 0
M  V30 3957 N 368.047 0.979072 1.23499 0
M  V30 3958 C 369.463 0.687475 1.44034 0
M  V30 3959 C 369.663 -0.746801 1.8715 0
M  V30 3960 O 368.719 -1.51939 2.0167 0
M  V30 3961 C 370.032 1.68127 2.49307 0
M  V30 3962 C 371.58 1.69516 2.63122 0
M  V30 3963 C 372.055 2.67723 3.71603 0
M  V30 3964 N 373.546 2.66233 3.79044 0
M  V30 3965 C 374.281 3.38891 4.62537 0
M  V30 3966 N 373.777 4.21103 5.50131 0
M  V30 3967 N 375.57 3.27661 4.56721 0
M  V30 3968 H 367.721 1.90559 0.938135 0
M  V30 3969 H 369.984 0.821051 0.473897 0
M  V30 3970 H 369.69 2.70693 2.2454 0
M  V30 3971 H 369.564 1.46306 3.4767 0
M  V30 3972 H 371.951 0.676561 2.8724 0
M  V30 3973 H 372.032 1.95404 1.65079 0
M  V30 3974 H 371.676 3.69724 3.48233 0
M  V30 3975 H 371.606 2.39111 4.69184 0
M  V30 3976 H 374.097 2.06568 3.16446 0
M  V30 3977 H 374.41 4.73403 6.10827 0
M  V30 3978 H 372.755 4.25195 5.49759 0
M  V30 3979 H 375.946 2.62887 3.87309 0
M  V30 3980 H 376.119 3.84547 5.21562 0
M  V30 3981 N 369.525 -1.3858 0.750561 0
M  V30 3982 C 370.771 -2.00481 0.305825 0
M  V30 3983 C 371.104 -1.5944 -1.10872 0
M  V30 3984 O 370.379 -0.83052 -1.75877 0
M  V30 3985 C 370.662 -3.5758 0.425287 0
M  V30 3986 C 370.515 -4.08594 1.88072 0
M  V30 3987 C 371.834 -4.39719 -0.183122 0
M  V30 3988 H 368.953 -0.728348 0.112598 0
M  V30 3989 H 371.595 -1.64566 0.949638 0
M  V30 3990 H 369.745 -3.88306 -0.122828 0
M  V30 3991 H 371.417 -3.88523 2.48691 0
M  V30 3992 H 369.66 -3.61574 2.39681 0
M  V30 3993 H 370.331 -5.177 1.91548 0
M  V30 3994 H 372.807 -4.15128 0.284303 0
M  V30 3995 H 371.683 -5.48856 -0.0692757 0
M  V30 3996 H 371.944 -4.23434 -1.27106 0
M  V30 3997 N 371.003 -0.499398 -1.49478 0
M  V30 3998 C 372.25 0.0456899 -2.02448 0
M  V30 3999 C 372.578 1.37142 -1.37921 0
M  V30 4000 O 371.833 1.89111 -0.503544 0
M  V30 4001 C 372.132 0.248424 -3.56536 0
M  V30 4002 C 371.798 -0.999107 -4.39692 0
M  V30 4003 C 370.46 -1.34108 -4.62135 0
M  V30 4004 C 372.812 -1.82842 -4.88076 0
M  V30 4005 C 370.14 -2.51191 -5.30208 0
M  V30 4006 C 372.492 -2.99076 -5.57437 0
M  V30 4007 C 371.156 -3.33655 -5.78127 0
M  V30 4008 H 370.426 0.0167191 -0.740811 0
M  V30 4009 H 373.073 -0.65923 -1.79795 0
M  V30 4010 H 371.378 1.03586 -3.77859 0
M  V30 4011 H 373.075 0.684605 -3.95113 0
M  V30 4012 H 369.665 -0.722729 -4.22463 0
M  V30 4013 H 373.849 -1.57737 -4.70566 0
M  V30 4014 H 369.105 -2.78221 -5.44429 0
M  V30 4015 H 373.279 -3.63664 -5.93904 0
M  V30 4016 H 370.906 -4.24483 -6.30649 0
M  V30 4017 N 372.481 1.55866 -0.233164 0
M  V30 4018 C 373.729 1.9821 0.394593 0
M  V30 4019 C 374.05 1.12234 1.59463 0
M  V30 4020 O 373.32 0.201981 1.94856 0
M  V30 4021 H 371.9 0.732034 0.148778 0
M  V30 4022 H 374.562 1.92107 -0.32876 0
M  V30 4023 H 373.658 3.03845 0.713063 0
M  V30 4024 N 373.959 -0.0401083 1.57549 0
M  V30 4025 C 374.906 -1.04413 2.05831 0
M  V30 4026 C 375.876 -1.36585 0.945184 0
M  V30 4027 O 377.061 -1.47112 1.21502 0
M  V30 4028 C 374.201 -2.34336 2.53339 0
M  V30 4029 C 373.314 -2.08419 3.78398 0
M  V30 4030 C 372.449 -3.32133 4.14561 0
M  V30 4031 C 371.488 -3.01721 5.3257 0
M  V30 4032 N 370.625 -4.17855 5.64218 0
M  V30 4033 H 375.465 -0.625442 2.91363 0
M  V30 4034 H 373.002 -0.297218 1.44066 0
M  V30 4035 H 374.96 -3.10234 2.78946 0
M  V30 4036 H 373.59 -2.73948 1.7074 0
M  V30 4037 H 372.642 -1.23069 3.59942 0
M  V30 4038 H 373.954 -1.81978 4.64419 0
M  V30 4039 H 373.108 -4.16406 4.41238 0
M  V30 4040 H 371.847 -3.61678 3.2717 0
M  V30 4041 H 370.852 -2.15849 5.05657 0
M  V30 4042 H 372.077 -2.73466 6.21605 0
M  V30 4043 H 370.023 -4.47372 4.79786 0
M  V30 4044 H 369.94 -3.94798 6.44725 0
M  V30 4045 H 371.208 -5.03033 5.95465 0
M  V30 4046 N 375.437 -1.54477 -0.31217 0
M  V30 4047 C 376.4 -1.83923 -1.36766 0
M  V30 4048 C 377.4 -0.711563 -1.44199 0
M  V30 4049 O 378.59 -0.979866 -1.44029 0
M  V30 4050 C 375.722 -2.0095 -2.75376 0
M  V30 4051 H 376.915 -2.78239 -1.11906 0
M  V30 4052 H 374.468 -1.46369 -0.548257 0
M  V30 4053 H 375.203 -1.08883 -3.05475 0
M  V30 4054 H 374.988 -2.83018 -2.71373 0
M  V30 4055 H 376.478 -2.2514 -3.51713 0
M  V30 4056 N 376.915 0.57481 -1.46744 0
M  V30 4057 C 377.847 1.69804 -1.53946 0
M  V30 4058 C 378.86 1.57098 -0.427106 0
M  V30 4059 O 380.049 1.64378 -0.695863 0
M  V30 4060 C 377.149 3.08125 -1.4111 0
M  V30 4061 C 376.322 3.46757 -2.66605 0
M  V30 4062 C 375.381 4.6417 -2.47855 0
M  V30 4063 O 374.407 4.69634 -3.21609 0
M  V30 4064 N 375.609 5.59553 -1.54534 0
M  V30 4065 H 378.374 1.64077 -2.50796 0
M  V30 4066 H 375.935 0.761 -1.429 0
M  V30 4067 H 377.927 3.84478 -1.26328 0
M  V30 4068 H 376.497 3.08175 -0.524109 0
M  V30 4069 H 375.717 2.6003 -2.96274 0
M  V30 4070 H 377.005 3.69337 -3.49954 0
M  V30 4071 H 376.403 5.57881 -0.937304 0
M  V30 4072 H 374.96 6.35304 -1.45711 0
M  V30 4073 N 378.394 1.34581 0.820102 0
M  V30 4074 C 379.634 1.28448 1.58998 0
M  V30 4075 C 379.998 -0.142883 1.91468 0
M  V30 4076 O 381.199 -0.328422 2.66786 0
M  V30 4077 C 379.47 2.153 2.85273 0
M  V30 4078 S 381.029 2.26548 3.75794 0
M  V30 4079 H 377.847 0.456685 0.54494 0
M  V30 4080 H 380.449 1.69825 0.968487 0
M  V30 4081 H 379.153 3.18008 2.59421 0
M  V30 4082 H 378.684 1.7483 3.52417 0
M  V30 4083 H 380.699 1.44034 4.74835 0
M  V30 4084 N 379.872 -1.04064 1.18357 0
M  V30 4085 C 380.82 -2.14187 0.907007 0
M  V30 4086 C 381.814 -1.68879 -0.132725 0
M  V30 4087 O 383.02 -1.79993 0.0154248 0
M  V30 4088 H 379.395 -0.699585 0.275835 0
M  V30 4089 H 381.366 -2.34711 1.84264 0
M  V30 4090 C 380.115 -3.44785 0.449254 0
M  V30 4091 H 379.438 -3.80058 1.24081 0
M  V30 4092 H 380.878 -4.22974 0.294737 0
M  V30 4093 C 379.337 -3.26391 -0.834909 0
M  V30 4094 O 379.867 -3.53973 -1.89911 0
M  V30 4095 N 378.073 -2.79726 -0.787523 0
M  V30 4096 H 377.62 -2.5748 0.0787347 0
M  V30 4097 H 377.578 -2.67798 -1.64716 0
M  V30 4098 N 381.35 -0.985608 -1.22978 0
M  V30 4099 C 382.627 -0.573599 -1.87001 0
M  V30 4100 C 383.007 0.949213 -1.88555 0
M  V30 4101 O 382.355 1.82811 -1.37086 0
M  V30 4102 C 382.565 -1.18564 -3.28243 0
M  V30 4103 C 383.913 -1.28163 -4.04796 0
M  V30 4104 O 384.937 -1.13949 -3.37482 0
M  V30 4105 O 383.796 -1.50832 -5.25273 0
M  V30 4106 H 380.89 -0.193868 -0.803955 0
M  V30 4107 H 383.436 -1.08102 -1.30813 0
M  V30 4108 H 382.208 -2.22758 -3.21706 0
M  V30 4109 H 381.831 -0.663363 -3.92027 0
M  V30 4110 N 382.828 1.3818 -0.7579 0
M  V30 4111 C 384.077 1.99261 -0.312744 0
M  V30 4112 C 384.39 1.60846 1.11301 0
M  V30 4113 O 385.596 2.14929 1.65885 0
M  V30 4114 C 384.052 3.56294 -0.50821 0
M  V30 4115 C 383.66 4.03657 -1.94333 0
M  V30 4116 C 385.404 4.24313 -0.125982 0
M  V30 4117 C 383.311 5.53347 -2.08712 0
M  V30 4118 H 382.241 0.745456 -0.113185 0
M  V30 4119 H 384.892 1.57889 -0.935056 0
M  V30 4120 H 383.274 3.95575 0.183353 0
M  V30 4121 H 384.448 3.75655 -2.66871 0
M  V30 4122 H 382.763 3.48376 -2.28086 0
M  V30 4123 H 385.36 5.34279 -0.212125 0
M  V30 4124 H 385.703 4.05962 0.921964 0
M  V30 4125 H 386.236 3.90285 -0.769563 0
M  V30 4126 H 382.975 5.76607 -3.11777 0
M  V30 4127 H 382.495 5.83078 -1.4064 0
M  V30 4128 H 384.174 6.19111 -1.87912 0
M  V30 4129 N 384.306 0.507319 1.49211 0
M  V30 4130 C 385.552 -0.0350047 2.0277 0
M  V30 4131 C 385.885 -1.3606 1.38569 0
M  V30 4132 O 385.16 -1.87321 0.523542 0
M  V30 4133 C 385.443 -0.180916 3.59645 0
M  V30 4134 C 385.296 1.16825 4.34364 0
M  V30 4135 C 386.615 -0.918558 4.30407 0
M  V30 4136 H 383.734 -0.0112473 0.736914 0
M  V30 4137 H 386.376 0.659956 1.7817 0
M  V30 4138 H 384.526 -0.772826 3.80736 0
M  V30 4139 H 386.198 1.79952 4.24753 0
M  V30 4140 H 384.441 1.75594 3.96673 0
M  V30 4141 H 385.112 1.01939 5.42506 0
M  V30 4142 H 387.588 -0.41649 4.1401 0
M  V30 4143 H 386.464 -0.989505 5.39907 0
M  V30 4144 H 386.725 -1.96373 3.96093 0
M  V30 4145 N 385.784 -1.5574 0.241426 0
M  V30 4146 C 387.031 -1.9881 -0.384836 0
M  V30 4147 C 387.359 -1.12947 -1.58346 0
M  V30 4148 O 386.614 -0.178993 -1.9488 0
M  V30 4149 C 386.913 -3.47308 -0.843317 0
M  V30 4150 C 386.579 -4.50223 0.246946 0
M  V30 4151 C 385.241 -4.78088 0.546399 0
M  V30 4152 C 387.593 -5.11841 0.983282 0
M  V30 4153 C 384.921 -5.64846 1.58636 0
M  V30 4154 C 387.273 -5.99727 2.01272 0
M  V30 4155 C 385.937 -6.25927 2.31888 0
M  V30 4156 H 385.207 -0.727496 -0.140821 0
M  V30 4157 H 387.854 -1.8831 0.348106 0
M  V30 4158 H 386.159 -3.55112 -1.65537 0
M  V30 4159 H 387.856 -3.78017 -1.33806 0
M  V30 4160 H 384.446 -4.286 0.00340639 0
M  V30 4161 H 388.63 -4.90366 0.765182 0
M  V30 4162 H 383.886 -5.83403 1.82896 0
M  V30 4163 H 388.06 -6.46517 2.58823 0
M  V30 4164 H 385.687 -6.92949 3.12611 0
M  V30 4165 N 387.262 0.0317525 -1.57568 0
M  V30 4166 C 388.51 0.721676 -1.88776 0
M  V30 4167 C 388.831 1.76039 -0.838772 0
M  V30 4168 O 388.101 1.95482 0.127935 0
M  V30 4169 H 386.681 0.269534 -0.696678 0
M  V30 4170 H 389.343 -0.00165879 -1.949 0
M  V30 4171 H 388.439 1.21293 -2.87566 0
M  V30 4172 N 388.74 1.54641 0.303973 0
M  V30 4173 C 389.987 1.7378 1.03955 0
M  V30 4174 C 390.315 0.521986 1.87365 0
M  V30 4175 O 389.57 -0.496099 1.89308 0
M  V30 4176 C 389.869 2.97753 1.97681 0
M  V30 4177 C 389.535 4.31671 1.30271 0
M  V30 4178 C 388.197 4.68075 1.11619 0
M  V30 4179 C 390.549 5.147 0.82055 0
M  V30 4180 C 387.877 5.8509 0.434304 0
M  V30 4181 C 390.229 6.32416 0.152395 0
M  V30 4182 C 388.893 6.67484 -0.0461067 0
M  V30 4183 H 388.163 0.635908 0.380398 0
M  V30 4184 H 390.81 1.88896 0.314718 0
M  V30 4185 H 389.115 2.77406 2.76682 0
M  V30 4186 H 390.812 3.09756 2.54661 0
M  V30 4187 H 387.402 4.03041 1.45795 0
M  V30 4188 H 391.586 4.87077 0.952374 0
M  V30 4189 H 386.842 6.10806 0.269495 0
M  V30 4190 H 391.016 6.96023 -0.229126 0
M  V30 4191 H 388.643 7.58011 -0.576494 0
M  V30 4192 N 390.218 -0.567019 1.47046 0
M  V30 4193 C 391.466 -1.322 1.52864 0
M  V30 4194 C 391.787 -1.94088 0.188388 0
M  V30 4195 O 391.057 -1.7941 -0.786693 0
M  V30 4196 H 389.637 -0.490894 0.563056 0
M  V30 4197 H 392.299 -0.662879 1.83281 0
M  V30 4198 H 391.395 -2.12062 2.2899 0
M  V30 4199 N 391.696 -1.35014 -0.812953 0
M  V30 4200 C 392.921 -1.31187 -1.60639 0
M  V30 4201 C 393.346 0.109382 -1.87782 0
M  V30 4202 O 392.704 1.07424 -1.46047 0
M  V30 4203 C 392.752 -2.11809 -2.91838 0
M  V30 4204 O 391.856 -1.49444 -3.8437 0
M  V30 4205 H 391.197 -0.450084 -0.488181 0
M  V30 4206 H 393.727 -1.77963 -1.00947 0
M  V30 4207 H 393.737 -2.23531 -3.41318 0
M  V30 4208 H 392.412 -3.15137 -2.71407 0
M  V30 4209 H 390.989 -1.46524 -3.42907 0
M  V30 4210 N 393.175 1.03435 -1.18907 0
M  V30 4211 C 394.122 2.11591 -0.921837 0
M  V30 4212 C 395.092 1.65499 0.141226 0
M  V30 4213 O 396.277 1.908 0.000242829 0
M  V30 4214 C 393.417 3.42012 -0.460616 0
M  V30 4215 C 392.53 4.01682 -1.58982 0
M  V30 4216 C 391.665 5.20091 -1.08069 0
M  V30 4217 C 390.704 5.71805 -2.18416 0
M  V30 4218 N 389.841 6.81494 -1.68849 0
M  V30 4219 H 394.681 2.33787 -1.8479 0
M  V30 4220 H 392.218 1.1467 -0.921373 0
M  V30 4221 H 394.176 4.16834 -0.174642 0
M  V30 4222 H 392.806 3.19944 0.428467 0
M  V30 4223 H 391.858 3.24127 -1.99113 0
M  V30 4224 H 393.17 4.36084 -2.4214 0
M  V30 4225 H 392.324 6.02051 -0.749615 0
M  V30 4226 H 391.063 4.87209 -0.218771 0
M  V30 4227 H 390.068 4.88461 -2.5236 0
M  V30 4228 H 391.293 6.06728 -3.05054 0
M  V30 4229 H 389.239 6.50475 -0.849572 0
M  V30 4230 H 389.156 7.14994 -2.45601 0
M  V30 4231 H 390.424 7.67063 -1.38689 0
M  V30 4232 N 394.653 0.992116 1.22453 0
M  V30 4233 C 395.93 0.583508 1.86694 0
M  V30 4234 C 396.31 -0.9392 1.89056 0
M  V30 4235 O 395.658 -1.82081 1.38053 0
M  V30 4236 C 395.868 1.20304 3.2761 0
M  V30 4237 C 397.216 1.30308 4.0411 0
M  V30 4238 O 398.24 1.15737 3.36873 0
M  V30 4239 O 397.099 1.53615 5.24466 0
M  V30 4240 H 394.193 0.198129 0.802916 0
M  V30 4241 H 396.739 1.08794 1.30238 0
M  V30 4242 H 395.511 2.24461 3.2052 0
M  V30 4243 H 395.134 0.684144 3.9167 0
M  V30 4244 N 396.131 -1.37776 0.765217 0
M  V30 4245 C 397.408 -1.93975 0.251596 0
M  V30 4246 C 397.788 -1.69949 -1.25222 0
M  V30 4247 O 397.136 -1.04457 -2.03226 0
M  V30 4248 C 397.346 -3.43487 0.617895 0
M  V30 4249 C 398.694 -4.20564 0.584029 0
M  V30 4250 O 399.718 -3.5182 0.556888 0
M  V30 4251 O 398.577 -5.43138 0.605291 0
M  V30 4252 H 395.671 -0.82509 0.0561806 0
M  V30 4253 H 398.217 -1.47101 0.846128 0
M  V30 4254 H 396.989 -3.5453 1.65602 0
M  V30 4255 H 396.612 -3.976 -0.00403411 0
M  V30 4256 N 397.609 -0.515225 -1.4894 0
M  V30 4257 C 398.519 0.259774 -2.33157 0
M  V30 4258 C 399.535 0.953501 -1.45548 0
M  V30 4259 O 400.711 0.931735 -1.78552 0
M  V30 4260 C 397.776 1.30193 -3.21326 0
M  V30 4261 C 396.837 0.620129 -4.24797 0
M  V30 4262 C 396.07 1.61263 -5.08753 0
M  V30 4263 O 396.293 2.84389 -4.94448 0
M  V30 4264 O 395.227 1.16013 -5.90614 0
M  V30 4265 H 399.053 -0.429932 -3.00641 0
M  V30 4266 H 396.638 -0.276346 -1.46822 0
M  V30 4267 H 398.52 1.90455 -3.75905 0
M  V30 4268 H 397.195 1.97431 -2.56521 0
M  V30 4269 H 396.102 -0.0226019 -3.74093 0
M  V30 4270 H 397.435 -0.0100493 -4.92199 0
M  V30 4271 N 399.087 1.5561 -0.249682 0
M  V30 4272 C 400.317 2.03116 0.377803 0
M  V30 4273 C 400.725 1.12822 1.51881 0
M  V30 4274 O 400.068 0.13562 1.83199 0
M  V30 4275 C 400.13 3.46866 0.944693 0
M  V30 4276 C 399.794 4.56955 -0.0644259 0
M  V30 4277 C 400.791 5.12485 -0.874957 0
M  V30 4278 C 398.476 5.01936 -0.19132 0
M  V30 4279 C 400.47 6.11491 -1.79881 0
M  V30 4280 C 398.157 6.00773 -1.11868 0
M  V30 4281 C 399.155 6.5543 -1.92095 0
M  V30 4282 O 398.843 7.5234 -2.83267 0
M  V30 4283 H 398.575 0.669489 0.0935961 0
M  V30 4284 H 401.129 2.02004 -0.371966 0
M  V30 4285 H 399.359 3.45136 1.74407 0
M  V30 4286 H 401.048 3.77856 1.48255 0
M  V30 4287 H 401.814 4.78564 -0.787523 0
M  V30 4288 H 397.693 4.59055 0.423072 0
M  V30 4289 H 401.237 6.54078 -2.42543 0
M  V30 4290 H 397.134 6.34114 -1.20703 0
M  V30 4291 H 397.902 7.69966 -2.7766 0
M  V30 4292 N 400.565 -0.0233959 1.57583 0
M  V30 4293 C 401.793 -0.724682 1.93794 0
M  V30 4294 C 402.208 -1.68588 0.849912 0
M  V30 4295 O 401.565 -1.81676 -0.173204 0
M  V30 4296 C 401.616 -1.47684 3.29957 0
M  V30 4297 O 401.337 -0.554222 4.3458 0
M  V30 4298 C 402.838 -2.27477 3.80485 0
M  V30 4299 H 400.058 -0.203317 0.639455 0
M  V30 4300 H 402.602 0.0207653 2.04489 0
M  V30 4301 H 400.757 -2.17412 3.20641 0
M  V30 4302 H 401.171 -1.08232 5.13212 0
M  V30 4303 H 402.645 -2.7564 4.78254 0
M  V30 4304 H 403.122 -3.09144 3.11972 0
M  V30 4305 H 403.728 -1.62813 3.92902 0
M  V30 4306 N 402.043 -1.548 -0.295768 0
M  V30 4307 C 402.973 -1.89115 -1.36959 0
M  V30 4308 C 403.954 -0.75059 -1.52644 0
M  V30 4309 O 405.139 -1.00678 -1.66065 0
M  V30 4310 C 402.269 -2.14307 -2.73295 0
M  V30 4311 C 401.223 -3.30151 -2.72368 0
M  V30 4312 C 400.549 -3.40772 -4.12042 0
M  V30 4313 C 401.849 -4.67126 -2.33646 0
M  V30 4314 H 403.543 -2.79053 -1.08488 0
M  V30 4315 H 401.089 -1.34266 -0.520443 0
M  V30 4316 H 403.042 -2.36898 -3.48507 0
M  V30 4317 H 401.766 -1.21145 -3.03301 0
M  V30 4318 H 400.425 -3.0749 -1.99613 0
M  V30 4319 H 400.073 -2.45117 -4.39234 0
M  V30 4320 H 399.773 -4.18645 -4.12322 0
M  V30 4321 H 401.297 -3.6563 -4.89027 0
M  V30 4322 H 402.711 -4.89414 -2.98575 0
M  V30 4323 H 401.108 -5.47751 -2.45129 0
M  V30 4324 H 402.178 -4.67489 -1.28772 0
M  V30 4325 N 403.521 0.559213 -1.47345 0
M  V30 4326 C 404.932 1.14134 -1.47751 0
M  V30 4327 C 405.283 1.94834 -0.231103 0
M  V30 4328 O 404.408 2.05957 0.664137 0
M  V30 4329 C 405.003 2.07653 -2.67705 0
M  V30 4330 C 403.562 2.61141 -2.71076 0
M  V30 4331 C 402.709 1.3748 -2.40821 0
M  V30 4332 H 405.66 0.345917 -1.54884 0
M  V30 4333 H 405.681 2.91497 -2.44561 0
M  V30 4334 H 405.193 1.4889 -3.58404 0
M  V30 4335 H 403.294 3.23707 -1.84511 0
M  V30 4336 H 403.407 3.02272 -3.7171 0
M  V30 4337 H 401.771 1.68086 -1.91362 0
M  V30 4338 H 402.554 0.805135 -3.33725 0
M  V30 4339 N 404.999 1.35443 0.805782 0
M  V30 4340 C 406.239 1.30127 1.57627 0
M  V30 4341 C 406.603 -0.122567 1.91608 0
M  V30 4342 O 407.804 -0.300107 2.67119 0
M  V30 4343 C 406.075 2.18314 2.82973 0
M  V30 4344 S 407.634 2.30521 3.7337 0
M  V30 4345 H 404.452 0.462439 0.540066 0
M  V30 4346 H 407.054 1.70843 0.95042 0
M  V30 4347 H 405.758 3.20741 2.56034 0
M  V30 4348 H 405.289 1.78558 3.50543 0
M  V30 4349 H 407.304 1.49062 4.73281 0
M  V30 4350 N 406.477 -1.02803 1.19454 0
M  V30 4351 C 407.702 -1.80378 1.02364 0
M  V30 4352 C 408.127 -1.83282 -0.423007 0
M  V30 4353 O 407.485 -1.25945 -1.30413 0
M  V30 4354 C 407.533 -3.23248 1.59821 0
M  V30 4355 O 406.637 -4.04 0.828105 0
M  V30 4356 H 405.978 -0.556799 0.361761 0
M  V30 4357 H 408.508 -1.29385 1.58495 0
M  V30 4358 H 408.518 -3.73994 1.63073 0
M  V30 4359 H 407.193 -3.2045 2.65113 0
M  V30 4360 H 405.77 -3.62635 0.86891 0
M  V30 4361 N 407.956 -0.998596 -1.21925 0
M  V30 4362 C 409.181 -0.696015 -1.95372 0
M  V30 4363 C 409.606 0.733826 -1.73195 0
M  V30 4364 O 408.964 1.50242 -1.01474 0
M  V30 4365 C 409.012 -1.01466 -3.4603 0
M  V30 4366 O 408.116 -0.116415 -4.12236 0
M  V30 4367 H 407.457 -0.259938 -0.611006 0
M  V30 4368 H 409.987 -1.33711 -1.54863 0
M  V30 4369 H 409.997 -0.958855 -3.96573 0
M  V30 4370 H 408.672 -2.05653 -3.61497 0
M  V30 4371 H 407.249 -0.228193 -3.72201 0
M  V30 4372 N 409.434 1.37368 -0.772513 0
M  V30 4373 C 410.682 1.99279 -0.336516 0
M  V30 4374 C 411.003 1.6163 1.09091 0
M  V30 4375 O 410.273 0.882109 1.74916 0
M  V30 4376 H 408.853 0.737063 -0.121435 0
M  V30 4377 H 411.515 1.67836 -0.990809 0
M  V30 4378 H 410.611 3.09332 -0.414763 0
M  V30 4379 N 410.912 0.523116 1.48665 0
M  V30 4380 C 412.142 -0.00961724 2.06598 0
M  V30 4381 C 412.55 -1.29333 1.38093 0
M  V30 4382 O 411.893 -1.77846 0.46007 0
M  V30 4383 C 411.955 -0.311135 3.58151 0
M  V30 4384 C 411.619 0.878092 4.48485 0
M  V30 4385 C 412.616 1.77464 4.88674 0
M  V30 4386 C 410.301 1.08315 4.90483 0
M  V30 4387 C 412.295 2.86021 5.69623 0
M  V30 4388 C 409.982 2.17187 5.71203 0
M  V30 4389 C 410.98 3.05873 6.10681 0
M  V30 4390 O 410.668 4.12862 6.89783 0
M  V30 4391 H 410.4 0.0272658 0.67545 0
M  V30 4392 H 412.954 0.726156 1.92136 0
M  V30 4393 H 411.184 -1.10079 3.70701 0
M  V30 4394 H 412.873 -0.785125 3.98234 0
M  V30 4395 H 413.639 1.62813 4.56855 0
M  V30 4396 H 409.518 0.402149 4.59243 0
M  V30 4397 H 413.062 3.55272 6.00356 0
M  V30 4398 H 408.959 2.31824 6.02435 0
M  V30 4399 H 409.727 4.10487 7.08126 0
M  V30 4400 N 412.39 -1.55475 0.257931 0
M  V30 4401 C 413.806 -1.59307 -0.0966563 0
M  V30 4402 C 414.006 -1.27514 -1.5602 0
M  V30 4403 O 413.062 -1.02774 -2.30637 0
M  V30 4404 C 414.375 -2.99552 0.262481 0
M  V30 4405 C 415.923 -3.1231 0.207683 0
M  V30 4406 C 416.398 -4.54793 0.541012 0
M  V30 4407 N 417.889 -4.6058 0.491921 0
M  V30 4408 C 418.624 -5.68825 0.722857 0
M  V30 4409 N 418.12 -6.85287 1.0175 0
M  V30 4410 N 419.913 -5.58296 0.652815 0
M  V30 4411 H 412.064 -1.74409 1.21224 0
M  V30 4412 H 414.327 -0.812424 0.48854 0
M  V30 4413 H 414.033 -3.27593 1.27967 0
M  V30 4414 H 413.907 -3.75019 -0.40508 0
M  V30 4415 H 416.294 -2.84044 -0.800195 0
M  V30 4416 H 416.375 -2.39095 0.909255 0
M  V30 4417 H 416.019 -4.83783 1.5465 0
M  V30 4418 H 415.949 -5.26285 -0.18216 0
M  V30 4419 H 418.44 -3.7691 0.273366 0
M  V30 4420 H 418.753 -7.63725 1.18084 0
M  V30 4421 H 417.098 -6.86945 1.05509 0
M  V30 4422 H 420.289 -4.66189 0.422592 0
M  V30 4423 H 420.462 -6.42582 0.836182 0
M  V30 4424 N 413.868 0.0150385 -1.57593 0
M  V30 4425 C 415.116 0.701613 -1.8953 0
M  V30 4426 C 415.437 1.75139 -0.857396 0
M  V30 4427 O 414.707 1.95607 0.107194 0
M  V30 4428 H 413.287 0.26213 -0.699498 0
M  V30 4429 H 415.949 -0.0223304 -1.94887 0
M  V30 4430 H 415.045 1.18236 -2.88837 0
M  V30 4431 N 415.346 1.54954 0.287554 0
M  V30 4432 C 416.294 1.87606 1.37502 0
M  V30 4433 C 417.288 0.751001 1.51843 0
M  V30 4434 O 418.494 0.935169 1.53801 0
M  V30 4435 H 414.869 0.595231 0.459569 0
M  V30 4436 H 416.84 2.78477 1.07206 0
M  V30 4437 C 415.589 2.15183 2.73115 0
M  V30 4438 H 414.912 3.01234 2.62866 0
M  V30 4439 H 416.352 2.4196 3.48183 0
M  V30 4440 C 414.811 0.954686 3.2309 0
M  V30 4441 O 415.341 0.181949 4.01288 0
M  V30 4442 N 413.547 0.756368 2.80584 0
M  V30 4443 H 413.094 1.38643 2.17108 0
M  V30 4444 H 413.052 -0.0430391 3.14371 0
M  V30 4445 N 416.824 -0.551391 1.4764 0
M  V30 4446 C 418.073 -1.30467 1.53822 0
M  V30 4447 C 418.386 -1.94495 0.207661 0
M  V30 4448 O 419.592 -2.71099 0.147533 0
M  V30 4449 C 418.048 -2.36616 2.71184 0
M  V30 4450 C 417.656 -1.78754 4.10793 0
M  V30 4451 C 419.4 -3.13088 2.86663 0
M  V30 4452 C 417.307 -2.82717 5.19447 0
M  V30 4453 H 416.237 -0.490584 0.572576 0
M  V30 4454 H 418.888 -0.58494 1.73927 0
M  V30 4455 H 417.27 -3.11529 2.4447 0
M  V30 4456 H 418.444 -1.10173 4.47435 0
M  V30 4457 H 416.759 -1.14846 4.00249 0
M  V30 4458 H 419.356 -3.90736 3.65007 0
M  V30 4459 H 419.699 -3.67635 1.95321 0
M  V30 4460 H 420.232 -2.45288 3.13175 0
M  V30 4461 H 416.971 -2.33018 6.12685 0
M  V30 4462 H 416.491 -3.4969 4.87316 0
M  V30 4463 H 418.17 -3.46102 5.46646 0
M  V30 4464 N 418.302 -1.35869 -0.798587 0
M  V30 4465 C 419.53 -1.32722 -1.58722 0
M  V30 4466 C 419.945 0.0935631 -1.88568 0
M  V30 4467 O 419.302 1.04784 -1.49421 0
M  V30 4468 C 419.353 -2.13974 -2.91371 0
M  V30 4469 O 419.074 -3.50514 -2.62815 0
M  V30 4470 C 420.575 -2.18504 -3.85708 0
M  V30 4471 H 417.795 -0.45562 -0.492596 0
M  V30 4472 H 420.339 -1.78837 -0.991843 0
M  V30 4473 H 418.494 -1.71438 -3.47402 0
M  V30 4474 H 418.908 -3.92806 -3.47568 0
M  V30 4475 H 420.382 -2.79732 -4.75872 0
M  V30 4476 H 420.859 -1.18597 -4.22885 0
M  V30 4477 H 421.465 -2.61236 -3.35612 0
M  V30 4478 N 419.78 1.02168 -1.19998 0
M  V30 4479 C 420.743 2.08765 -0.94604 0
M  V30 4480 C 421.743 1.60618 0.0763846 0
M  V30 4481 O 422.933 1.73472 -0.159135 0
M  V30 4482 C 420.065 3.38262 -0.423255 0
M  V30 4483 H 421.258 2.32726 -1.89153 0
M  V30 4484 H 418.811 1.1889 -1.01464 0
M  V30 4485 H 419.546 3.19974 0.527938 0
M  V30 4486 H 419.331 3.74532 -1.16053 0
M  V30 4487 H 420.821 4.16759 -0.264911 0
M  V30 4488 N 421.258 1.00505 1.21394 0
M  V30 4489 C 422.205 0.565496 2.23765 0
M  V30 4490 C 423.175 -0.408466 1.60999 0
M  V30 4491 O 424.36 -0.310503 1.88257 0
M  V30 4492 C 421.5 -0.101667 3.4495 0
M  V30 4493 C 420.613 0.915479 4.22188 0
M  V30 4494 C 419.748 0.220574 5.30742 0
M  V30 4495 C 418.787 1.22527 5.99711 0
M  V30 4496 N 417.924 0.557831 6.9988 0
M  V30 4497 H 422.764 1.44314 2.60725 0
M  V30 4498 H 420.301 0.722643 1.28126 0
M  V30 4499 H 422.259 -0.505504 4.14126 0
M  V30 4500 H 420.889 -0.94303 3.08718 0
M  V30 4501 H 419.941 1.43756 3.52191 0
M  V30 4502 H 421.253 1.68005 4.69655 0
M  V30 4503 H 420.407 -0.239368 6.06228 0
M  V30 4504 H 419.146 -0.576401 4.84282 0
M  V30 4505 H 418.151 1.69571 5.22997 0
M  V30 4506 H 419.376 2.02332 6.48258 0
M  V30 4507 H 417.322 -0.219486 6.55633 0
M  V30 4508 H 417.239 1.26065 7.45415 0
M  V30 4509 H 418.507 0.121095 7.79406 0
M  V30 4510 N 422.737 -1.36956 0.779787 0
M  V30 4511 C 423.977 -2.01328 0.353043 0
M  V30 4512 C 424.341 -1.60558 -1.05286 0
M  V30 4513 O 425.542 -2.1745 -1.58016 0
M  V30 4514 C 423.813 -3.53874 0.500822 0
M  V30 4515 S 425.372 -4.38506 0.16053 0
M  V30 4516 H 422.19 -0.69799 0.13539 0
M  V30 4517 H 424.792 -1.67016 1.01617 0
M  V30 4518 H 423.496 -3.81034 1.52451 0
M  V30 4519 H 423.027 -3.92994 -0.178574 0
M  V30 4520 H 425.042 -4.85153 -1.04121 0
M  V30 4521 N 424.215 -0.530993 -1.48385 0
M  V30 4522 C 425.125 0.23503 -2.3342 0
M  V30 4523 C 426.141 0.93801 -1.46552 0
M  V30 4524 O 427.317 0.912745 -1.7953 0
M  V30 4525 C 424.382 1.26778 -3.22689 0
M  V30 4526 C 423.443 0.575038 -4.25431 0
M  V30 4527 C 422.676 1.55858 -5.10435 0
M  V30 4528 O 422.899 2.79129 -4.97437 0
M  V30 4529 O 421.833 1.09742 -5.91811 0
M  V30 4530 H 425.659 -0.461794 -3.00169 0
M  V30 4531 H 423.244 -0.291903 -1.46521 0
M  V30 4532 H 425.126 1.86457 -3.77904 0
M  V30 4533 H 423.801 1.94699 -2.586 0
M  V30 4534 H 422.708 -0.0622782 -3.74048 0
M  V30 4535 H 424.041 -0.062253 -4.92161 0
M  V30 4536 N 425.693 1.55336 -0.266172 0
M  V30 4537 C 426.918 2.04258 0.359661 0
M  V30 4538 C 427.343 1.14359 1.49344 0
M  V30 4539 O 426.701 0.140369 1.80756 0
M  V30 4540 C 426.749 3.50997 0.826635 0
M  V30 4541 O 425.853 3.64204 1.93466 0
M  V30 4542 H 425.194 0.659668 0.075727 0
M  V30 4543 H 427.724 2.00694 -0.39786 0
M  V30 4544 H 427.734 3.9219 1.12477 0
M  V30 4545 H 426.409 4.159 -0.00293032 0
M  V30 4546 H 424.986 3.34913 1.63974 0
M  V30 4547 N 427.171 -0.0066808 1.57599 0
M  V30 4548 C 428.396 -0.707738 1.94951 0
M  V30 4549 C 428.821 -1.66882 0.867868 0
M  V30 4550 O 428.179 -1.80457 -0.17458 0
M  V30 4551 C 428.227 -1.42162 3.31394 0
M  V30 4552 O 427.331 -2.53578 3.25226 0
M  V30 4553 H 426.672 -0.188752 0.636607 0
M  V30 4554 H 429.202 0.0445193 2.04552 0
M  V30 4555 H 429.212 -1.78655 3.66806 0
M  V30 4556 H 427.887 -0.716903 4.09675 0
M  V30 4557 H 426.464 -2.19463 3.01481 0
M  V30 4558 N 428.649 -1.55105 -0.279332 0
M  V30 4559 C 429.897 -1.75066 -1.00977 0
M  V30 4560 C 430.218 -0.551276 -1.87045 0
M  V30 4561 O 429.488 0.433984 -1.91032 0
M  V30 4562 H 428.068 -0.645578 -0.375816 0
M  V30 4563 H 430.73 -1.92497 -0.305089 0
M  V30 4564 H 429.826 -2.64894 -1.65038 0
M  V30 4565 N 430.127 0.543554 -1.4793 0
M  V30 4566 C 431.373 1.29961 -1.56466 0
M  V30 4567 C 431.728 1.91024 -0.229696 0
M  V30 4568 O 431.021 1.75619 0.766072 0
M  V30 4569 C 431.215 2.42078 -2.62932 0
M  V30 4570 C 431.044 1.92003 -4.06651 0
M  V30 4571 C 429.814 1.75223 -4.73946 0
M  V30 4572 C 432.012 1.45648 -4.93245 0
M  V30 4573 N 429.994 1.19632 -6.02131 0
M  V30 4574 C 431.365 1.01914 -6.11566 0
M  V30 4575 C 433.42 1.33826 -4.79578 0
M  V30 4576 C 432.123 0.475301 -7.17728 0
M  V30 4577 C 434.149 0.808427 -5.85848 0
M  V30 4578 C 433.511 0.381081 -7.03368 0
M  V30 4579 H 429.61 0.467086 -0.62718 0
M  V30 4580 H 432.194 0.614543 -1.84747 0
M  V30 4581 H 430.365 3.08098 -2.36496 0
M  V30 4582 H 432.097 3.09096 -2.61231 0
M  V30 4583 H 428.852 1.98345 -4.30065 0
M  V30 4584 H 429.276 0.93885 -6.70458 0
M  V30 4585 H 433.918 1.65474 -3.89074 0
M  V30 4586 H 431.636 0.146472 -8.07967 0
M  V30 4587 H 435.222 0.720315 -5.77324 0
M  V30 4588 H 434.102 -0.0225344 -7.84197 0
M  V30 4589 N 431.605 1.3629 0.791371 0
M  V30 4590 C 432.537 1.26321 1.91248 0
M  V30 4591 C 433.55 0.18313 1.61767 0
M  V30 4592 O 434.739 0.437682 1.73051 0
M  V30 4593 C 431.839 0.925901 3.26007 0
M  V30 4594 C 431.012 2.10746 3.83281 0
M  V30 4595 C 430.071 1.74352 4.96475 0
M  V30 4596 O 429.097 2.46416 5.13096 0
M  V30 4597 N 430.299 0.676058 5.7655 0
M  V30 4598 H 433.064 2.22915 2.00323 0
M  V30 4599 H 430.625 1.29659 0.969546 0
M  V30 4600 H 432.617 0.663636 3.99222 0
M  V30 4601 H 431.187 0.0491581 3.12561 0
M  V30 4602 H 430.407 2.53264 3.02077 0
M  V30 4603 H 431.695 2.8969 4.18279 0
M  V30 4604 H 431.093 0.0776467 5.65647 0
M  V30 4605 H 429.65 0.473612 6.50077 0
M  V30 4606 N 433.083 -1.0153 1.20538 0
M  V30 4607 C 434.329 -1.75408 1.01783 0
M  V30 4608 C 434.662 -1.88943 -0.448814 0
M  V30 4609 O 433.937 -1.4162 -1.33319 0
M  V30 4610 C 434.22 -3.17255 1.70356 0
M  V30 4611 C 434.073 -3.11508 3.24473 0
M  V30 4612 C 435.392 -4.15955 1.43769 0
M  V30 4613 H 432.511 -0.636713 0.371167 0
M  V30 4614 H 435.153 -1.18436 1.4857 0
M  V30 4615 H 433.303 -3.65898 1.30578 0
M  V30 4616 H 434.975 -2.70658 3.73553 0
M  V30 4617 H 433.218 -2.4887 3.55311 0
M  V30 4618 H 433.889 -4.11784 3.67611 0
M  V30 4619 H 436.365 -3.75973 1.7828 0
M  V30 4620 H 435.241 -5.13368 1.94279 0
M  V30 4621 H 435.502 -4.40586 0.365564 0
M  V30 4622 N 434.561 -1.01147 -1.20859 0
M  V30 4623 C 435.81 -0.693214 -1.89413 0
M  V30 4624 C 436.123 0.779969 -1.79376 0
M  V30 4625 O 437.329 1.21057 -2.43017 0
M  V30 4626 C 435.785 -1.18949 -3.39675 0
M  V30 4627 C 435.393 -2.68921 -3.58309 0
M  V30 4628 C 437.137 -0.94642 -4.13815 0
M  V30 4629 C 435.044 -3.12056 -5.0237 0
M  V30 4630 H 433.974 -0.255595 -0.709357 0
M  V30 4631 H 436.625 -1.22349 -1.36759 0
M  V30 4632 H 435.007 -0.587228 -3.91622 0
M  V30 4633 H 436.181 -3.34652 -3.16772 0
M  V30 4634 H 434.496 -2.91314 -2.97532 0
M  V30 4635 H 437.093 -1.24417 -5.20023 0
M  V30 4636 H 437.436 0.117219 -4.16135 0
M  V30 4637 H 437.969 -1.5118 -3.67953 0
M  V30 4638 H 434.708 -4.17674 -5.05202 0
M  V30 4639 H 434.228 -2.51041 -5.44737 0
M  V30 4640 H 435.907 -3.04403 -5.70918 0
M  V30 4641 N 436.039 1.36541 -0.78704 0
M  V30 4642 C 437.455 1.52571 -0.46844 0
M  V30 4643 C 437.655 1.7415 1.01361 0
M  V30 4644 O 436.711 1.77163 1.79915 0
M  V30 4645 C 438.024 2.71299 -1.29682 0
M  V30 4646 C 439.572 2.85169 -1.29027 0
M  V30 4647 C 440.047 4.06898 -2.10233 0
M  V30 4648 N 441.538 4.1404 -2.07666 0
M  V30 4649 C 442.273 5.07301 -2.67271 0
M  V30 4650 N 441.769 6.06021 -3.35724 0
M  V30 4651 N 443.562 4.99898 -2.57018 0
M  V30 4652 H 435.713 1.20788 -1.74711 0
M  V30 4653 H 437.976 0.589364 -0.742532 0
M  V30 4654 H 437.682 2.61868 -2.34773 0
M  V30 4655 H 437.556 3.6539 -0.936479 0
M  V30 4656 H 439.943 2.94062 -0.247284 0
M  V30 4657 H 440.024 1.91992 -1.69035 0
M  V30 4658 H 439.668 3.98766 -3.1456 0
M  V30 4659 H 439.598 4.99218 -1.67597 0
M  V30 4660 H 442.089 3.43357 -1.57843 0
M  V30 4661 H 442.402 6.73741 -3.78541 0
M  V30 4662 H 440.747 6.06253 -3.39826 0
M  V30 4663 H 443.938 4.21724 -2.03142 0
M  V30 4664 H 444.111 5.72392 -3.03761 0
M  V30 4665 N 437.518 0.538854 1.48102 0
M  V30 4666 C 438.428 -0.222648 2.33541 0
M  V30 4667 C 439.444 -0.930225 1.47047 0
M  V30 4668 O 440.62 -0.903211 1.80011 0
M  V30 4669 C 437.685 -1.25064 3.23357 0
M  V30 4670 C 436.746 -0.552469 4.2573 0
M  V30 4671 C 435.979 -1.53149 5.11254 0
M  V30 4672 O 436.202 -2.76487 4.9891 0
M  V30 4673 O 435.136 -1.06602 5.92385 0
M  V30 4674 H 438.962 0.477707 2.99919 0
M  V30 4675 H 436.547 0.299669 1.46364 0
M  V30 4676 H 438.429 -1.8445 3.78888 0
M  V30 4677 H 437.104 -1.93325 2.59629 0
M  V30 4678 H 436.011 0.082114 3.7401 0
M  V30 4679 H 437.344 0.0883526 4.92121 0
M  V30 4680 N 438.996 -1.55193 0.274407 0
M  V30 4681 C 440.224 -2.03987 -0.345943 0
M  V30 4682 C 440.639 -1.15279 -1.4952 0
M  V30 4683 O 439.996 -0.172759 -1.8168 0
M  V30 4684 C 440.047 -3.51898 -0.827631 0
M  V30 4685 O 439.768 -4.37231 0.275855 0
M  V30 4686 C 441.269 -4.16577 -1.51587 0
M  V30 4687 H 438.489 -0.666335 -0.0789892 0
M  V30 4688 H 441.033 -2.00423 0.406294 0
M  V30 4689 H 439.188 -3.55909 -1.52996 0
M  V30 4690 H 439.602 -5.24415 -0.0943638 0
M  V30 4691 H 441.076 -5.21678 -1.80433 0
M  V30 4692 H 441.553 -3.64707 -2.44716 0
M  V30 4693 H 442.159 -4.16568 -0.857409 0
M  V30 4694 N 440.474 -0.00167713 -1.576 0
M  V30 4695 C 441.714 0.687302 -1.92498 0
M  V30 4696 C 442.078 1.70844 -0.876144 0
M  V30 4697 O 443.279 2.44792 -1.11043 0
M  V30 4698 C 441.55 1.31217 -3.32441 0
M  V30 4699 S 443.109 2.02604 -3.89226 0
M  V30 4700 H 439.927 0.226985 -0.673794 0
M  V30 4701 H 442.529 -0.0587666 -1.95412 0
M  V30 4702 H 441.233 0.556164 -4.06614 0
M  V30 4703 H 440.764 2.09613 -3.32905 0
M  V30 4704 H 442.779 3.30137 -3.70438 0
M  V30 4705 N 441.952 1.55251 0.271103 0
M  V30 4706 C 443.198 1.76207 1.00394 0
M  V30 4707 C 443.531 0.562604 1.85872 0
M  V30 4708 O 442.806 -0.439785 1.89463 0
M  V30 4709 C 443.089 3.06828 1.8849 0
M  V30 4710 C 442.942 4.37134 1.05992 0
M  V30 4711 C 444.261 3.33503 2.87165 0
M  V30 4712 H 441.38 0.641086 0.363562 0
M  V30 4713 H 444.022 1.87982 0.276189 0
M  V30 4714 H 442.172 2.96921 2.5054 0
M  V30 4715 H 443.844 4.59001 0.459978 0
M  V30 4716 H 442.087 4.32275 0.363443 0
M  V30 4717 H 442.758 5.2486 1.70955 0
M  V30 4718 H 445.234 3.43215 2.3525 0
M  V30 4719 H 444.11 4.2616 3.45946 0
M  V30 4720 H 444.371 2.53235 3.62387 0
M  V30 4721 N 443.43 -0.535701 1.48216 0
M  V30 4722 C 444.36 -1.65014 1.65204 0
M  V30 4723 C 445.341 -1.62554 0.501011 0
M  V30 4724 O 446.526 -1.7984 0.732886 0
M  V30 4725 C 443.656 -3.03616 1.68626 0
M  V30 4726 C 442.61 -3.20932 2.83172 0
M  V30 4727 C 441.936 -4.60537 2.71679 0
M  V30 4728 C 443.236 -3.04249 4.24535 0
M  V30 4729 H 444.93 -1.51053 2.58502 0
M  V30 4730 H 442.476 -0.725262 1.24402 0
M  V30 4731 H 444.429 -3.81446 1.79099 0
M  V30 4732 H 443.153 -3.18587 0.719026 0
M  V30 4733 H 441.812 -2.45517 2.72244 0
M  V30 4734 H 441.46 -4.72336 1.72937 0
M  V30 4735 H 441.16 -4.73069 3.48538 0
M  V30 4736 H 442.684 -5.40475 2.84112 0
M  V30 4737 H 444.098 -3.71877 4.36326 0
M  V30 4738 H 442.495 -3.28278 5.02348 0
M  V30 4739 H 443.565 -2.00739 4.41397 0
M  V30 4740 N 444.908 -1.36708 -0.784132 0
M  V30 4741 C 446.133 -1.34565 -1.5782 0
M  V30 4742 C 446.558 0.0695257 -1.87971 0
M  V30 4743 O 445.916 1.04302 -1.48293 0
M  V30 4744 C 445.964 -2.17952 -2.87279 0
M  V30 4745 O 445.068 -1.57563 -3.81114 0
M  V30 4746 H 444.409 -0.460337 -0.478524 0
M  V30 4747 H 446.939 -1.80064 -0.971495 0
M  V30 4748 H 446.949 -2.30721 -3.365 0
M  V30 4749 H 445.624 -3.20823 -2.64661 0
M  V30 4750 H 444.201 -1.53764 -3.39722 0
M  V30 4751 N 446.386 1.0089 -1.21074 0
M  V30 4752 C 447.316 2.1145 -0.990523 0
M  V30 4753 C 448.297 1.69897 0.0831699 0
M  V30 4754 O 449.482 1.94052 -0.0758853 0
M  V30 4755 C 446.612 3.42914 -0.550177 0
M  V30 4756 C 445.566 3.98244 -1.56799 0
M  V30 4757 C 444.892 5.25568 -0.984013 0
M  V30 4758 C 446.192 4.30752 -2.95381 0
M  V30 4759 H 447.886 2.3013 -1.91521 0
M  V30 4760 H 445.432 1.10592 -0.92225 0
M  V30 4761 H 447.385 4.19653 -0.383305 0
M  V30 4762 H 446.109 3.24014 0.41015 0
M  V30 4763 H 444.768 3.23621 -1.72236 0
M  V30 4764 H 444.416 5.02998 -0.0155216 0
M  V30 4765 H 444.116 5.63551 -1.66384 0
M  V30 4766 H 445.64 6.04955 -0.828378 0
M  V30 4767 H 447.054 4.98349 -2.8341 0
M  V30 4768 H 445.451 4.79869 -3.60341 0
M  V30 4769 H 446.521 3.39192 -3.46521 0
M  V30 4770 N 447.864 1.01787 1.20321 0
M  V30 4771 C 448.794 0.609625 2.25401 0
M  V30 4772 C 449.775 -0.375951 1.65893 0
M  V30 4773 O 450.96 -0.261101 1.92437 0
M  V30 4774 C 448.09 -0.0515995 3.47262 0
M  V30 4775 C 447.044 0.855095 4.19371 0
M  V30 4776 C 446.37 0.0595757 5.34667 0
M  V30 4777 C 447.67 2.16374 4.75373 0
M  V30 4778 H 449.364 1.48803 2.59804 0
M  V30 4779 H 446.91 0.716934 1.24884 0
M  V30 4780 H 448.863 -0.348764 4.19954 0
M  V30 4781 H 447.587 -0.964726 3.12027 0
M  V30 4782 H 446.246 1.13628 3.48546 0
M  V30 4783 H 445.894 -0.85524 4.95676 0
M  V30 4784 H 445.594 0.663406 5.83843 0
M  V30 4785 H 447.118 -0.231105 6.10162 0
M  V30 4786 H 448.532 1.92885 5.39878 0
M  V30 4787 H 446.929 2.71853 5.34991 0
M  V30 4788 H 447.999 2.82589 3.94045 0
M  V30 4789 N 449.342 -1.36122 0.79427 0
M  V30 4790 C 450.252 -2.33769 0.197296 0
M  V30 4791 C 451.268 -1.61276 -0.653153 0
M  V30 4792 O 452.444 -1.9323 -0.5678 0
M  V30 4793 C 449.509 -3.40474 -0.654098 0
M  V30 4794 C 448.57 -4.28759 0.215411 0
M  V30 4795 C 447.803 -5.30368 -0.595443 0
M  V30 4796 O 448.026 -5.40211 -1.83107 0
M  V30 4797 O 446.96 -6.019 0.00721351 0
M  V30 4798 H 450.786 -2.86597 1.00478 0
M  V30 4799 H 448.371 -1.38676 0.555818 0
M  V30 4800 H 450.253 -4.05703 -1.13944 0
M  V30 4801 H 448.928 -2.89937 -1.43938 0
M  V30 4802 H 447.835 -3.66554 0.747615 0
M  V30 4803 H 449.168 -4.82661 0.964332 0
M  V30 4804 N 450.82 -0.546701 -1.47814 0
M  V30 4805 C 451.73 0.21026 -2.33656 0
M  V30 4806 C 452.746 0.922413 -1.47538 0
M  V30 4807 O 453.922 0.893652 -1.80488 0
M  V30 4808 C 450.987 1.23348 -3.24016 0
M  V30 4809 C 450.048 0.529883 -4.26017 0
M  V30 4810 C 449.281 1.50435 -5.12059 0
M  V30 4811 O 449.504 2.73837 -5.00369 0
M  V30 4812 O 448.438 1.03459 -5.92942 0
M  V30 4813 H 452.264 -0.493605 -2.99662 0
M  V30 4814 H 449.849 -0.307427 -1.46203 0
M  V30 4815 H 451.731 1.82438 -3.79861 0
M  V30 4816 H 450.406 1.91945 -2.60651 0
M  V30 4817 H 449.313 -0.101948 -3.73961 0
M  V30 4818 H 450.646 -0.11445 -4.92067 0
M  V30 4819 N 452.299 1.55045 -0.282633 0
M  V30 4820 C 453.229 2.2579 0.595066 0
M  V30 4821 C 454.21 1.25074 1.15284 0
M  V30 4822 O 455.395 1.5381 1.18559 0
M  V30 4823 C 452.525 2.98472 1.77572 0
M  V30 4824 C 451.479 4.0618 1.34914 0
M  V30 4825 C 450.805 4.66477 2.6135 0
M  V30 4826 C 452.105 5.1996 0.493821 0
M  V30 4827 H 453.799 2.994 0.00505653 0
M  V30 4828 H 451.345 1.44 0.000992001 0
M  V30 4829 H 453.298 3.46677 2.39568 0
M  V30 4830 H 452.022 2.2241 2.39168 0
M  V30 4831 H 450.681 3.58797 0.752338 0
M  V30 4832 H 450.329 3.87074 3.2122 0
M  V30 4833 H 450.029 5.39207 2.33516 0
M  V30 4834 H 451.553 5.17435 3.24181 0
M  V30 4835 H 452.967 5.64172 1.01898 0
M  V30 4836 H 451.364 5.99299 0.310047 0
M  V30 4837 H 452.434 4.82462 -0.485593 0
M  V30 4838 N 453.777 0.010035 1.57597 0
M  V30 4839 C 454.725 -0.996272 2.10184 0
M  V30 4840 C 455.719 -1.34942 1.02406 0
M  V30 4841 O 456.925 -1.33389 1.20861 0
M  V30 4842 H 453.3 -0.338982 0.671264 0
M  V30 4843 H 455.271 -0.527272 2.93705 0
M  V30 4844 C 454.02 -2.27599 2.62857 0
M  V30 4845 H 453.343 -2.01295 3.45428 0
M  V30 4846 H 454.783 -2.96265 3.0332 0
M  V30 4847 C 453.242 -2.99269 1.54725 0
M  V30 4848 O 453.772 -3.90644 0.93597 0
M  V30 4849 N 451.978 -2.61269 1.27228 0
M  V30 4850 H 451.525 -1.87043 1.77123 0
M  V30 4851 H 451.483 -3.09534 0.550999 0
M  V30 4852 N 455.255 -1.55392 -0.262866 0
M  V30 4853 C 456.202 -1.88966 -1.32516 0
M  V30 4854 C 457.172 -0.742187 -1.48596 0
M  V30 4855 O 458.357 -0.99439 -1.62839 0
M  V30 4856 C 455.497 -2.17592 -2.67858 0
M  V30 4857 C 454.61 -3.45061 -2.59917 0
M  V30 4858 C 453.745 -3.63336 -3.87505 0
M  V30 4859 C 452.784 -4.84462 -3.74116 0
M  V30 4860 N 451.921 -4.99342 -4.93561 0
M  V30 4861 H 456.761 -2.79566 -1.03184 0
M  V30 4862 H 454.298 -1.38404 -0.498285 0
M  V30 4863 H 456.256 -2.3219 -3.46617 0
M  V30 4864 H 454.886 -1.30215 -2.95371 0
M  V30 4865 H 453.938 -3.38881 -1.72812 0
M  V30 4866 H 455.25 -4.3396 -2.45926 0
M  V30 4867 H 454.404 -3.77807 -4.74707 0
M  V30 4868 H 453.143 -2.72641 -4.04374 0
M  V30 4869 H 452.148 -4.69985 -2.85297 0
M  V30 4870 H 453.373 -5.76603 -3.58757 0
M  V30 4871 H 451.319 -4.1158 -5.10821 0
M  V30 4872 H 451.236 -5.82303 -4.82141 0
M  V30 4873 H 452.504 -5.18208 -5.82306 0
M  V30 4874 N 456.733 0.527833 -1.48498 0
M  V30 4875 C 457.681 1.65313 -1.63628 0
M  V30 4876 C 458.675 1.6177 -0.502676 0
M  V30 4877 O 459.881 1.66601 -0.681469 0
M  V30 4878 H 456.256 0.547518 -0.515488 0
M  V30 4879 H 458.227 1.49696 -2.58135 0
M  V30 4880 C 456.976 3.03576 -1.6952 0
M  V30 4881 H 456.299 3.06997 -2.56111 0
M  V30 4882 H 457.739 3.81923 -1.84149 0
M  V30 4883 C 456.198 3.34089 -0.43432 0
M  V30 4884 O 456.728 3.99151 0.451852 0
M  V30 4885 N 454.934 2.88991 -0.305368 0
M  V30 4886 H 454.481 2.36222 -1.02747 0
M  V30 4887 H 454.439 3.09776 0.537249 0
M  V30 4888 N 458.211 1.37122 0.776871 0
M  V30 4889 C 459.458 1.32047 1.53524 0
M  V30 4890 C 459.786 -0.0965631 1.9426 0
M  V30 4891 O 459.041 -1.06866 1.63945 0
M  V30 4892 C 459.34 2.20068 2.81611 0
M  V30 4893 C 459.006 3.68423 2.59953 0
M  V30 4894 C 457.668 4.08854 2.53755 0
M  V30 4895 C 460.02 4.62431 2.40431 0
M  V30 4896 C 457.348 5.41417 2.26018 0
M  V30 4897 C 459.7 5.95225 2.14219 0
M  V30 4898 C 458.364 6.34767 2.06462 0
M  V30 4899 H 457.634 0.483196 0.561785 0
M  V30 4900 H 460.281 1.69284 0.895268 0
M  V30 4901 H 458.586 1.75809 3.50141 0
M  V30 4902 H 460.283 2.13458 3.39465 0
M  V30 4903 H 456.873 3.36354 2.65638 0
M  V30 4904 H 461.057 4.32057 2.44213 0
M  V30 4905 H 456.313 5.71022 2.18504 0
M  V30 4906 H 460.487 6.67626 1.98112 0
M  V30 4907 H 458.114 7.37413 1.84733 0
M  V30 4908 N 459.689 -1.00246 1.21608 0
M  V30 4909 C 460.914 -1.78167 1.06167 0
M  V30 4910 C 461.339 -1.84138 -0.384035 0
M  V30 4911 O 460.697 -1.28683 -1.27712 0
M  V30 4912 C 460.745 -3.19786 1.66642 0
M  V30 4913 O 459.849 -4.02153 0.913613 0
M  V30 4914 H 459.19 -0.549 0.37349 0
M  V30 4915 H 461.72 -1.25994 1.61204 0
M  V30 4916 H 461.73 -3.70451 1.70969 0
M  V30 4917 H 460.405 -3.14754 2.7185 0
M  V30 4918 H 458.982 -3.60711 0.945635 0
M  V30 4919 N 461.167 -1.02423 -1.1978 0
M  V30 4920 C 462.1 -0.545641 -2.21581 0
M  V30 4921 C 463.078 0.411024 -1.57319 0
M  V30 4922 O 464.262 0.329223 -1.85603 0
M  V30 4923 C 461.389 0.204973 -3.38079 0
M  V30 4924 C 460.435 -0.70241 -4.20676 0
M  V30 4925 S 461.268 -2.17595 -4.89298 0
M  V30 4926 C 462.424 -1.43572 -6.09211 0
M  V30 4927 H 462.657 -1.4082 -2.61834 0
M  V30 4928 H 460.19 -0.833771 -1.29952 0
M  V30 4929 H 462.148 0.631924 -4.05607 0
M  V30 4930 H 460.809 1.0432 -2.9627 0
M  V30 4931 H 460.002 -0.123193 -5.03849 0
M  V30 4932 H 459.604 -1.06747 -3.58442 0
M  V30 4933 H 461.896 -0.719806 -6.73665 0
M  V30 4934 H 462.839 -2.24388 -6.71607 0
M  V30 4935 H 463.247 -0.935252 -5.56699 0
M  V30 4936 N 462.645 1.35699 -0.801477 0
M  V30 4937 C 463.894 1.98165 -0.375979 0
M  V30 4938 C 464.207 1.64306 1.06127 0
M  V30 4939 O 465.413 2.20097 1.58964 0
M  V30 4940 C 463.869 3.54497 -0.621305 0
M  V30 4941 C 463.477 3.9727 -2.07076 0
M  V30 4942 C 465.221 4.23697 -0.26091 0
M  V30 4943 C 463.128 5.46427 -2.26211 0
M  V30 4944 H 462.058 0.741478 -0.136844 0
M  V30 4945 H 464.709 1.54834 -0.984814 0
M  V30 4946 H 463.091 3.95958 0.0574112 0
M  V30 4947 H 464.265 3.66974 -2.78687 0
M  V30 4948 H 462.58 3.40943 -2.39054 0
M  V30 4949 H 465.177 5.33334 -0.381994 0
M  V30 4950 H 465.52 4.0869 0.792344 0
M  V30 4951 H 466.053 3.87639 -0.893339 0
M  V30 4952 H 462.792 5.66396 -3.29963 0
M  V30 4953 H 462.312 5.78309 -1.59119 0
M  V30 4954 H 463.991 6.12819 -2.07513 0
M  V30 4955 N 464.123 0.554532 1.47522 0
M  V30 4956 C 465.369 0.0295227 2.02779 0
M  V30 4957 C 465.702 -1.31582 1.42828 0
M  V30 4958 O 464.977 -1.85561 0.582872 0
M  V30 4959 C 465.26 -0.0664057 3.60039 0
M  V30 4960 C 465.113 1.30585 4.30427 0
M  V30 4961 C 466.432 -0.781162 4.33112 0
M  V30 4962 H 463.551 0.0122027 0.736899 0
M  V30 4963 H 466.193 0.716305 1.7598 0
M  V30 4964 H 464.343 -0.651307 3.83002 0
M  V30 4965 H 466.015 1.93374 4.18813 0
M  V30 4966 H 464.258 1.88125 3.90886 0
M  V30 4967 H 464.929 1.19147 5.38988 0
M  V30 4968 H 467.405 -0.284565 4.15126 0
M  V30 4969 H 466.281 -0.817237 5.42782 0
M  V30 4970 H 466.542 -1.83672 4.0214 0
M  V30 4971 N 465.601 -1.54893 0.290851 0
M  V30 4972 C 466.849 -1.99538 -0.320756 0
M  V30 4973 C 467.17 -1.18075 -1.55188 0
M  V30 4974 O 466.44 -0.274162 -1.93972 0
M  V30 4975 H 465.02 -0.737052 -0.121507 0
M  V30 4976 H 467.682 -1.90755 0.399832 0
M  V30 4977 H 466.778 -3.06282 -0.599802 0
M  V30 4978 N 467.08 -0.0183926 -1.57589 0
M  V30 4979 C 468.028 0.985111 -2.10709 0
M  V30 4980 C 469.022 1.34397 -1.0312 0
M  V30 4981 O 470.228 1.32746 -1.21567 0
M  V30 4982 H 466.603 0.335418 -0.673052 0
M  V30 4983 H 468.574 0.511689 -2.9398 0
M  V30 4984 C 467.323 2.26202 -2.64061 0
M  V30 4985 H 466.646 1.9946 -3.4649 0
M  V30 4986 H 468.086 2.94652 -3.04887 0
M  V30 4987 C 466.545 2.98444 -1.5631 0
M  V30 4988 O 467.075 3.90142 -0.956674 0
M  V30 4989 N 465.281 2.6059 -1.28612 0
M  V30 4990 H 464.828 1.86101 -1.78112 0
M  V30 4991 H 464.786 3.09238 -0.567406 0
M  V30 4992 N 468.558 1.5553 0.254621 0
M  V30 4993 C 469.521 1.88872 1.29846 0
M  V30 4994 C 470.521 0.764591 1.41459 0
M  V30 4995 O 471.711 1.03265 1.40293 0
M  V30 4996 C 468.843 2.11032 2.67728 0
M  V30 4997 H 470.036 2.82201 1.01502 0
M  V30 4998 H 467.589 1.48303 0.493556 0
M  V30 4999 H 468.324 1.20146 3.01223 0
M  V30 5000 H 468.109 2.92895 2.60682 0
M  V30 5001 H 469.599 2.38038 3.43115 0
M  V30 5002 N 470.036 -0.519951 1.48776 0
M  V30 5003 C 471.264 -1.29971 1.60982 0
M  V30 5004 C 471.679 -1.86803 0.273885 0
M  V30 5005 O 471.036 -1.66904 -0.738193 0
M  V30 5006 C 471.087 -2.44346 2.66415 0
M  V30 5007 O 470.808 -1.89855 3.94825 0
M  V30 5008 C 472.309 -3.36014 2.89153 0
M  V30 5009 H 469.529 -0.394891 0.542496 0
M  V30 5010 H 472.073 -0.626214 1.94676 0
M  V30 5011 H 470.228 -3.07562 2.35552 0
M  V30 5012 H 470.642 -2.64798 4.5275 0
M  V30 5013 H 472.116 -4.12593 3.66703 0
M  V30 5014 H 472.593 -3.91859 1.98351 0
M  V30 5015 H 473.199 -2.78582 3.21359 0
M  V30 5016 N 471.514 -1.37532 -0.769588 0
M  V30 5017 C 472.424 -1.35668 -1.91393 0
M  V30 5018 C 473.44 -0.255954 -1.72107 0
M  V30 5019 O 474.616 -0.491704 -1.95305 0
M  V30 5020 C 471.681 -1.16481 -3.26547 0
M  V30 5021 C 470.742 -2.36212 -3.58472 0
M  V30 5022 C 469.975 -2.17932 -4.87177 0
M  V30 5023 O 470.198 -1.1647 -5.58382 0
M  V30 5024 O 469.132 -3.06167 -5.18214 0
M  V30 5025 H 472.958 -2.32055 -1.95918 0
M  V30 5026 H 470.543 -1.18284 -0.912641 0
M  V30 5027 H 472.425 -1.07778 -4.07384 0
M  V30 5028 H 471.1 -0.231687 -3.2287 0
M  V30 5029 H 470.007 -2.50488 -2.77861 0
M  V30 5030 H 471.34 -3.281 -3.66894 0
M  V30 5031 N 472.992 0.995999 -1.22138 0
M  V30 5032 C 473.955 2.06711 -0.990109 0
M  V30 5033 C 474.955 1.60744 0.0422978 0
M  V30 5034 O 476.145 1.73095 -0.195895 0
M  V30 5035 C 473.277 3.37288 -0.49491 0
M  V30 5036 H 474.47 2.28661 -1.94047 0
M  V30 5037 H 472.023 1.16711 -1.03963 0
M  V30 5038 H 472.758 3.21022 0.459948 0
M  V30 5039 H 472.543 3.71986 -1.23971 0
M  V30 5040 H 474.033 4.16103 -0.353253 0
M  V30 5041 N 474.47 1.03057 1.19235 0
M  V30 5042 C 475.433 0.617418 2.20727 0
M  V30 5043 C 476.433 -0.319856 1.57587 0
M  V30 5044 O 477.623 -0.106633 1.73873 0
M  V30 5045 C 474.755 -0.096296 3.40764 0
M  V30 5046 H 475.948 1.51544 2.58794 0
M  V30 5047 H 473.501 0.821949 1.32942 0
M  V30 5048 H 474.236 -1.00859 3.08217 0
M  V30 5049 H 474.021 0.577217 3.87828 0
M  V30 5050 H 475.511 -0.372219 4.15938 0
M  V30 5051 N 475.948 -1.35272 0.808662 0
M  V30 5052 C 477.194 -1.99003 0.390581 0
M  V30 5053 C 477.527 -1.63999 -1.0401 0
M  V30 5054 O 476.802 -0.904368 -1.72196 0
M  V30 5055 C 477.085 -3.55454 0.576566 0
M  V30 5056 C 476.938 -4.00249 2.05233 0
M  V30 5057 C 478.257 -4.401 0.00354277 0
M  V30 5058 H 475.376 -0.722917 0.143388 0
M  V30 5059 H 478.018 -1.6039 1.01858 0
M  V30 5060 H 476.168 -3.88477 0.0419766 0
M  V30 5061 H 477.84 -3.77626 2.64946 0
M  V30 5062 H 476.083 -3.51082 2.54801 0
M  V30 5063 H 476.754 -5.0911 2.13333 0
M  V30 5064 H 479.23 -4.13548 0.460117 0
M  V30 5065 H 478.106 -5.48656 0.163575 0
M  V30 5066 H 478.367 -4.28444 -1.09032 0
M  V30 5067 N 477.426 -0.562348 -1.47226 0
M  V30 5068 C 478.651 -0.0432632 -2.07355 0
M  V30 5069 C 479.076 1.24332 -1.41149 0
M  V30 5070 O 478.434 1.74603 -0.488226 0
M  V30 5071 C 478.482 0.130288 -3.60365 0
M  V30 5072 O 477.586 1.19166 -3.94808 0
M  V30 5073 H 476.927 -0.0536334 -0.66183 0
M  V30 5074 H 479.457 -0.779495 -1.89169 0
M  V30 5075 H 479.467 0.342881 -4.06557 0
M  V30 5076 H 478.142 -0.809389 -4.07948 0
M  V30 5077 H 476.719 0.959153 -3.60354 0
M  V30 5078 N 478.904 1.54736 -0.299062 0
M  V30 5079 C 480.129 2.04975 0.316254 0
M  V30 5080 C 480.554 1.17501 1.46885 0
M  V30 5081 O 479.912 0.178678 1.80417 0
M  V30 5082 C 479.96 3.52672 0.751997 0
M  V30 5083 O 479.064 3.68226 1.85697 0
M  V30 5084 H 478.405 0.661126 0.0617175 0
M  V30 5085 H 480.935 1.99805 -0.440341 0
M  V30 5086 H 480.945 3.94488 1.04133 0
M  V30 5087 H 479.62 4.158 -0.0911482 0
M  V30 5088 H 478.197 3.38316 1.56834 0
M  V30 5089 N 480.382 0.0267497 1.57577 0
M  V30 5090 C 481.629 -0.652404 1.91703 0
M  V30 5091 C 481.957 -1.72271 0.902936 0
M  V30 5092 O 481.212 -1.955 -0.0884843 0
M  V30 5093 C 481.511 -1.30914 3.3256 0
M  V30 5094 C 481.177 -0.369441 4.49384 0
M  V30 5095 C 479.839 -0.110791 4.81072 0
M  V30 5096 C 482.191 0.275971 5.20469 0
M  V30 5097 C 479.519 0.801116 5.81205 0
M  V30 5098 C 481.871 1.17592 6.21575 0
M  V30 5099 C 480.535 1.44348 6.51705 0
M  V30 5100 H 479.805 -0.238732 0.70149 0
M  V30 5101 H 482.452 0.0880091 1.91298 0
M  V30 5102 H 480.757 -2.12425 3.29216 0
M  V30 5103 H 482.454 -1.84115 3.56234 0
M  V30 5104 H 479.044 -0.581211 4.24641 0
M  V30 5105 H 483.228 0.0892 4.9622 0
M  V30 5106 H 478.484 1.01614 6.02897 0
M  V30 5107 H 482.658 1.68223 6.75777 0
M  V30 5108 H 480.285 2.15176 7.29111 0
M  V30 5109 N 481.861 -1.55662 -0.24637 0
M  V30 5110 C 483.107 -1.77782 -0.975779 0
M  V30 5111 C 483.44 -0.592103 -1.84953 0
M  V30 5112 O 482.715 0.409588 -1.90138 0
M  V30 5113 C 482.998 -3.09788 -1.83584 0
M  V30 5114 C 482.851 -4.38764 -0.990241 0
M  V30 5115 C 484.17 -3.38029 -2.81823 0
M  V30 5116 H 481.289 -0.646789 -0.353317 0
M  V30 5117 H 483.931 -1.88398 -0.246248 0
M  V30 5118 H 482.081 -3.00869 -2.45784 0
M  V30 5119 H 483.753 -4.59675 -0.386897 0
M  V30 5120 H 481.996 -4.32798 -0.294626 0
M  V30 5121 H 482.667 -5.27514 -1.62584 0
M  V30 5122 H 485.143 -3.46915 -2.2976 0
M  V30 5123 H 484.019 -4.3161 -3.39122 0
M  V30 5124 H 484.28 -2.58968 -3.58313 0
M  V30 5125 N 483.339 0.512053 -1.4905 0
M  V30 5126 C 484.271 1.63121 -1.6101 0
M  V30 5127 C 485.284 1.55145 -0.493352 0
M  V30 5128 O 486.473 1.61278 -0.764955 0
M  V30 5129 C 483.573 3.01863 -1.54052 0
M  V30 5130 C 482.746 3.35138 -2.81072 0
M  V30 5131 C 481.805 4.5324 -2.67319 0
M  V30 5132 O 480.831 4.55571 -3.41238 0
M  V30 5133 N 482.033 5.52495 -1.78127 0
M  V30 5134 H 484.798 1.53292 -2.5753 0
M  V30 5135 H 482.359 0.699706 -1.45999 0
M  V30 5136 H 484.351 3.78774 -1.42521 0
M  V30 5137 H 482.921 3.05675 -0.654345 0
M  V30 5138 H 482.141 2.4723 -3.07036 0
M  V30 5139 H 483.429 3.54162 -3.65304 0
M  V30 5140 H 482.827 5.53403 -1.17308 0
M  V30 5141 H 481.384 6.28553 -1.72525 0
M  V30 5142 N 484.817 1.37938 0.762283 0
M  V30 5143 C 485.765 1.34569 1.89721 0
M  V30 5144 C 486.759 0.232929 1.67791 0
M  V30 5145 O 487.965 0.401485 1.75465 0
M  V30 5146 H 484.34 0.419594 0.624055 0
M  V30 5147 H 486.311 2.30357 1.8968 0
M  V30 5148 C 485.06 1.17898 3.27101 0
M  V30 5149 H 484.383 2.02781 3.44558 0
M  V30 5150 H 485.823 1.19593 4.06784 0
M  V30 5151 C 484.282 -0.114728 3.36705 0
M  V30 5152 O 484.812 -1.0949 3.8649 0
M  V30 5153 N 483.018 -0.16863 2.9011 0
M  V30 5154 H 482.565 0.62967 2.49786 0
M  V30 5155 H 482.523 -1.03383 2.96916 0
M  V30 5156 N 486.295 -0.989507 1.22664 0
M  V30 5157 C 487.225 -2.09847 1.02404 0
M  V30 5158 C 488.206 -1.70007 -0.0561303 0
M  V30 5159 O 489.391 -1.93906 0.106748 0
M  V30 5160 C 486.521 -3.41996 0.604663 0
M  V30 5161 C 485.475 -3.95699 1.63115 0
M  V30 5162 C 484.801 -5.23936 1.0675 0
M  V30 5163 C 486.101 -4.25999 3.02196 0
M  V30 5164 H 487.795 -2.27054 1.95158 0
M  V30 5165 H 485.341 -1.09111 0.939727 0
M  V30 5166 H 487.294 -4.1899 0.45002 0
M  V30 5167 H 486.018 -3.24626 -0.35855 0
M  V30 5168 H 484.677 -3.2084 1.77362 0
M  V30 5169 H 484.325 -5.02909 0.0955422 0
M  V30 5170 H 484.025 -5.60833 1.75328 0
M  V30 5171 H 485.549 -6.0356 0.924516 0
M  V30 5172 H 486.963 -4.93777 2.91303 0
M  V30 5173 H 485.36 -4.74076 3.67929 0
M  V30 5174 H 486.43 -3.33636 3.51873 0
M  V30 5175 N 487.773 -1.03688 -1.18687 0
M  V30 5176 C 488.998 -0.757819 -1.93059 0
M  V30 5177 C 489.423 0.678353 -1.75442 0
M  V30 5178 O 488.781 1.46938 -1.06203 0
M  V30 5179 C 488.829 -1.12423 -3.42627 0
M  V30 5180 O 487.933 -0.247505 -4.11657 0
M  V30 5181 H 487.274 -0.279245 -0.602427 0
M  V30 5182 H 489.804 -1.3857 -1.5053 0
M  V30 5183 H 489.814 -1.08454 -3.93322 0
M  V30 5184 H 488.489 -2.17049 -3.54771 0
M  V30 5185 H 487.066 -0.34649 -3.71287 0
M  V30 5186 N 489.251 1.34841 -0.815825 0
M  V30 5187 C 490.497 1.98793 -0.401129 0
M  V30 5188 C 490.83 1.64548 1.03139 0
M  V30 5189 O 490.105 0.913487 1.71714 0
M  V30 5190 C 490.388 3.55143 -0.595409 0
M  V30 5191 C 490.241 3.99155 -2.07352 0
M  V30 5192 C 491.56 4.40092 -0.0268823 0
M  V30 5193 H 488.679 0.722146 -0.14722 0
M  V30 5194 H 491.321 1.59847 -1.02707 0
M  V30 5195 H 489.471 3.8845 -0.0625779 0
M  V30 5196 H 491.143 3.76216 -2.66945 0
M  V30 5197 H 489.386 3.49726 -2.56659 0
M  V30 5198 H 490.057 5.07971 -2.1603 0
M  V30 5199 H 492.533 4.13298 -0.482042 0
M  V30 5200 H 491.409 5.48562 -0.19267 0
M  V30 5201 H 491.67 4.29016 1.06759 0
M  V30 5202 N 490.729 0.570148 1.46925 0
M  V30 5203 C 491.978 0.0487352 2.01641 0
M  V30 5204 C 492.291 -1.31433 1.44861 0
M  V30 5205 O 493.497 -1.92638 1.91318 0
M  V30 5206 C 491.953 0.0365817 3.59881 0
M  V30 5207 C 491.561 1.39719 4.25655 0
M  V30 5208 C 493.305 -0.431545 4.22301 0
M  V30 5209 C 491.212 1.34345 5.75939 0
M  V30 5210 H 490.142 0.0144492 0.753862 0
M  V30 5211 H 492.793 0.719928 1.68788 0
M  V30 5212 H 491.175 -0.700522 3.89755 0
M  V30 5213 H 492.349 2.15303 4.07408 0
M  V30 5214 H 490.664 1.80431 3.75278 0
M  V30 5215 H 493.261 -0.490354 5.32447 0
M  V30 5216 H 493.604 -1.44638 3.90366 0
M  V30 5217 H 494.137 0.251102 3.97007 0
M  V30 5218 H 490.876 2.33469 6.12513 0
M  V30 5219 H 490.396 0.629615 5.96486 0
M  V30 5220 H 492.075 1.051 6.38407 0
M  V30 5221 N 492.207 -1.54576 0.307264 0
M  V30 5222 C 493.456 -1.99442 -0.300976 0
M  V30 5223 C 493.769 -1.19928 -1.5452 0
M  V30 5224 O 494.975 -1.55092 -2.22842 0
M  V30 5225 C 493.431 -3.55084 -0.586809 0
M  V30 5226 C 493.039 -4.43413 0.639438 0
M  V30 5227 C 494.783 -4.0846 -1.1559 0
M  V30 5228 C 492.69 -5.90499 0.326411 0
M  V30 5229 H 491.62 -0.744986 -0.116238 0
M  V30 5230 H 494.271 -1.787 0.416947 0
M  V30 5231 H 492.653 -3.71749 -1.36449 0
M  V30 5232 H 493.827 -4.38522 1.41545 0
M  V30 5233 H 492.142 -4.00842 1.1276 0
M  V30 5234 H 494.739 -5.15926 -1.40445 0
M  V30 5235 H 495.082 -3.59443 -2.10015 0
M  V30 5236 H 495.615 -3.95362 -0.439778 0
M  V30 5237 H 492.354 -6.43676 1.23939 0
M  V30 5238 H 491.874 -5.98382 -0.412212 0
M  V30 5239 H 493.553 -6.46962 -0.0697393 0
M  V30 5240 N 493.685 -0.035106 -1.57561 0
M  V30 5241 C 495.101 0.321334 -1.56332 0
M  V30 5242 C 495.301 1.72509 -1.04129 0
M  V30 5243 O 494.357 2.4287 -0.690694 0
M  V30 5244 C 495.67 0.164469 -3.0025 0
M  V30 5245 C 497.218 0.236786 -3.12103 0
M  V30 5246 C 497.693 0.10864 -4.57871 0
M  V30 5247 N 499.184 0.165433 -4.62904 0
M  V30 5248 C 499.919 0.0901506 -5.73329 0
M  V30 5249 N 499.415 -0.0365606 -6.9279 0
M  V30 5250 N 501.208 0.144572 -5.61914 0
M  V30 5251 H 493.359 -0.952976 -1.89821 0
M  V30 5252 H 495.622 -0.368537 -0.873432 0
M  V30 5253 H 495.328 -0.802746 -3.42416 0
M  V30 5254 H 495.202 0.932194 -3.655 0
M  V30 5255 H 497.589 1.19446 -2.69845 0
M  V30 5256 H 497.67 -0.561419 -2.49563 0
M  V30 5257 H 497.314 -0.845644 -5.00811 0
M  V30 5258 H 497.244 0.925786 -5.18398 0
M  V30 5259 H 499.735 0.263269 -3.76982 0
M  V30 5260 H 500.048 -0.0871487 -7.72751 0
M  V30 5261 H 498.393 -0.0714256 -6.94963 0
M  V30 5262 H 501.584 0.242006 -4.67474 0
M  V30 5263 H 501.757 0.0824413 -6.47948 0
M  V30 5264 N 495.163 1.55791 0.238111 0
M  V30 5265 C 496.095 1.87513 1.31802 0
M  V30 5266 C 497.108 0.762053 1.43863 0
M  V30 5267 O 498.297 1.04024 1.45056 0
M  V30 5268 C 495.397 2.05402 2.69561 0
M  V30 5269 C 494.57 3.3632 2.79656 0
M  V30 5270 C 493.629 3.43844 3.98319 0
M  V30 5271 O 492.655 4.16994 3.87433 0
M  V30 5272 N 493.857 2.73777 5.11885 0
M  V30 5273 H 496.622 2.80734 1.04922 0
M  V30 5274 H 494.183 1.56135 0.428196 0
M  V30 5275 H 496.175 2.07769 3.47296 0
M  V30 5276 H 494.745 1.18884 2.89111 0
M  V30 5277 H 493.965 3.46195 1.88528 0
M  V30 5278 H 495.253 4.22594 2.83358 0
M  V30 5279 H 494.651 2.14094 5.23622 0
M  V30 5280 H 493.208 2.81825 5.87723 0
M  V30 5281 N 496.642 -0.504142 1.49319 0
M  V30 5282 C 497.59 -1.62689 1.66238 0
M  V30 5283 C 498.584 -1.6095 0.528349 0
M  V30 5284 O 499.79 -1.65496 0.707887 0
M  V30 5285 H 496.165 -0.539247 0.524134 0
M  V30 5286 H 498.136 -1.45571 2.60484 0
M  V30 5287 C 496.885 -3.00841 1.74328 0
M  V30 5288 H 496.208 -3.02884 2.60963 0
M  V30 5289 H 497.648 -3.78945 1.90202 0
M  V30 5290 C 496.107 -3.33355 0.487416 0
M  V30 5291 O 496.637 -3.99819 -0.388294 0
M  V30 5292 N 494.843 -2.88469 0.351306 0
M  V30 5293 H 494.39 -2.34557 1.06492 0
M  V30 5294 H 494.348 -3.10591 -0.487899 0
M  V30 5295 N 498.12 -1.38341 -0.754957 0
M  V30 5296 C 499.531 -1.30803 -1.3322 0
M  V30 5297 C 499.882 0.0368 -1.96165 0
M  V30 5298 O 499.007 0.938844 -1.94974 0
M  V30 5299 C 499.602 -2.3688 -2.42225 0
M  V30 5300 C 498.161 -2.32925 -2.95674 0
M  V30 5301 C 497.308 -2.19819 -1.69042 0
M  V30 5302 H 500.259 -1.48719 -0.553937 0
M  V30 5303 H 500.28 -2.02517 -3.22129 0
M  V30 5304 H 499.792 -3.34747 -1.96383 0
M  V30 5305 H 497.893 -1.38635 -3.45848 0
M  V30 5306 H 498.006 -3.27008 -3.50146 0
M  V30 5307 H 496.37 -1.66648 -1.92615 0
M  V30 5308 H 497.153 -3.19625 -1.25279 0
M  V30 5309 N 499.598 0.982988 -1.23187 0
M  V30 5310 C 500.823 1.76455 -1.08988 0
M  V30 5311 C 501.248 1.84726 0.354691 0
M  V30 5312 O 500.606 1.30699 1.25649 0
M  V30 5313 C 500.654 3.17094 -1.71708 0
M  V30 5314 O 499.758 4.00648 -0.977477 0
M  V30 5315 H 499.099 0.542988 -0.382177 0
M  V30 5316 H 501.629 1.23413 -1.63188 0
M  V30 5317 H 501.639 3.67684 -1.76841 0
M  V30 5318 H 500.314 3.10389 -2.76823 0
M  V30 5319 H 498.891 3.59161 -1.0029 0
M  V30 5320 N 501.076 1.04316 1.18135 0
M  V30 5321 C 502.304 0.768117 1.92113 0
M  V30 5322 C 502.719 -0.675057 1.76319 0
M  V30 5323 O 502.076 -1.46038 1.09449 0
M  V30 5324 C 502.127 1.12808 3.43448 0
M  V30 5325 O 501.848 2.5146 3.58747 0
M  V30 5326 C 503.349 0.8779 4.3452 0
M  V30 5327 H 500.569 0.279937 0.609817 0
M  V30 5328 H 503.113 1.39149 1.49859 0
M  V30 5329 H 501.268 0.549623 3.83481 0
M  V30 5330 H 501.682 2.65313 4.52448 0
M  V30 5331 H 503.156 1.17959 5.39249 0
M  V30 5332 H 503.633 -0.187239 4.38801 0
M  V30 5333 H 504.239 1.43977 4.00188 0
M  V30 5334 N 502.554 -1.34406 0.822964 0
M  V30 5335 C 503.782 -2.02508 0.424039 0
M  V30 5336 C 504.197 -1.61975 -0.970022 0
M  V30 5337 O 503.554 -0.825228 -1.62777 0
M  V30 5338 C 503.605 -3.57789 0.516657 0
M  V30 5339 O 503.326 -3.96853 1.85577 0
M  V30 5340 C 504.827 -4.43157 0.112637 0
M  V30 5341 H 502.047 -0.649063 0.170173 0
M  V30 5342 H 504.591 -1.7168 1.11113 0
M  V30 5343 H 502.746 -3.87207 -0.122353 0
M  V30 5344 H 503.16 -4.91538 1.83005 0
M  V30 5345 H 504.634 -5.51527 0.228526 0
M  V30 5346 H 505.111 -4.28939 -0.943837 0
M  V30 5347 H 505.717 -4.19067 0.725449 0
M  V30 5348 N 504.032 -0.577932 -1.46621 0
M  V30 5349 C 505.278 -0.0617793 -2.02706 0
M  V30 5350 C 505.611 1.29294 -1.44903 0
M  V30 5351 O 504.886 1.8461 -0.61232 0
M  V30 5352 C 505.169 0.00911824 -3.60099 0
M  V30 5353 C 505.022 -1.37416 -4.28295 0
M  V30 5354 C 506.341 0.712159 -4.343 0
M  V30 5355 H 503.46 -0.0239246 -0.736612 0
M  V30 5356 H 506.102 -0.744211 -1.74818 0
M  V30 5357 H 504.252 0.590292 -3.83989 0
M  V30 5358 H 505.924 -2.00013 -4.15683 0
M  V30 5359 H 504.167 -1.94319 -3.87843 0
M  V30 5360 H 504.838 -1.27707 -5.37024 0
M  V30 5361 H 507.314 0.218486 -4.15526 0
M  V30 5362 H 506.19 0.730782 -5.44014 0
M  V30 5363 H 506.451 1.77251 -4.05012 0
M  V30 5364 N 505.51 1.54411 -0.315457 0
M  V30 5365 C 506.758 2.00023 0.288971 0
M  V30 5366 C 507.079 1.20529 1.5329 0
M  V30 5367 O 506.349 0.304986 1.93511 0
M  V30 5368 H 504.929 0.738891 0.109766 0
M  V30 5369 H 507.591 1.90094 -0.430129 0
M  V30 5370 H 506.687 3.07198 0.550999 0
M  V30 5371 N 506.988 0.0434614 1.5754 0
M  V30 5372 C 507.936 -0.951465 2.1225 0
M  V30 5373 C 508.93 -1.3274 1.05245 0
M  V30 5374 O 510.136 -1.30795 1.23663 0
M  V30 5375 H 506.511 -0.324667 0.678303 0
M  V30 5376 H 508.482 -0.464855 2.94757 0
M  V30 5377 C 507.231 -2.21972 2.67626 0
M  V30 5378 H 506.554 -1.93923 3.4962 0
M  V30 5379 H 507.994 -2.89765 3.09536 0
M  V30 5380 C 506.453 -2.95919 1.61038 0
M  V30 5381 O 506.983 -3.8857 1.01862 0
M  V30 5382 N 505.189 -2.58511 1.32741 0
M  V30 5383 H 504.736 -1.83244 1.81051 0
M  V30 5384 H 504.694 -3.08296 0.616531 0
M  V30 5385 N 508.466 -1.55915 -0.229846 0
M  V30 5386 C 509.396 -1.94754 -1.28815 0
M  V30 5387 C 510.377 -0.814657 -1.49323 0
M  V30 5388 O 511.562 -1.07631 -1.61645 0
M  V30 5389 C 508.692 -2.25705 -2.63959 0
M  V30 5390 C 507.646 -3.41406 -2.5812 0
M  V30 5391 C 506.972 -3.57941 -3.97218 0
M  V30 5392 C 508.272 -4.76616 -2.13623 0
M  V30 5393 H 509.966 -2.83404 -0.965547 0
M  V30 5394 H 507.512 -1.36353 -0.463028 0
M  V30 5395 H 509.465 -2.51467 -3.38146 0
M  V30 5396 H 508.189 -1.339 -2.9789 0
M  V30 5397 H 506.848 -3.1568 -1.86391 0
M  V30 5398 H 506.496 -2.63526 -4.28443 0
M  V30 5399 H 506.196 -4.35757 -3.94195 0
M  V30 5400 H 507.72 -3.86042 -4.73079 0
M  V30 5401 H 509.134 -5.01637 -2.77549 0
M  V30 5402 H 507.531 -5.57655 -2.21677 0
M  V30 5403 H 508.601 -4.7253 -1.08829 0
M  V30 5404 N 509.944 0.496216 -1.49584 0
M  V30 5405 C 510.907 1.57952 -1.66084 0
M  V30 5406 C 511.907 1.51729 -0.53244 0
M  V30 5407 O 513.097 1.54796 -0.79899 0
M  V30 5408 C 510.229 2.97604 -1.66268 0
M  V30 5409 H 511.422 1.44649 -2.6271 0
M  V30 5410 H 508.975 0.7208 -1.38687 0
M  V30 5411 H 509.71 3.16378 -0.712432 0
M  V30 5412 H 509.495 3.03528 -2.4822 0
M  V30 5413 H 510.985 3.76301 -1.81073 0
M  V30 5414 N 511.423 1.38739 0.74761 0
M  V30 5415 C 512.648 1.38702 1.54197 0
M  V30 5416 C 513.073 -0.019664 1.8809 0
M  V30 5417 O 512.431 -1.00333 1.51006 0
M  V30 5418 C 512.479 2.25492 2.814 0
M  V30 5419 O 511.583 1.67613 3.76802 0
M  V30 5420 H 510.924 0.472863 0.466151 0
M  V30 5421 H 513.454 1.82577 0.923413 0
M  V30 5422 H 513.464 2.39561 3.30264 0
M  V30 5423 H 512.139 3.27727 2.56062 0
M  V30 5424 H 510.716 1.62718 3.35526 0
M  V30 5425 N 512.901 -0.976442 1.23707 0
M  V30 5426 C 514.147 -1.72081 1.07312 0
M  V30 5427 C 514.48 -1.90275 -0.388476 0
M  V30 5428 O 513.755 -1.4579 -1.28746 0
M  V30 5429 C 514.038 -3.11675 1.80363 0
M  V30 5430 C 513.891 -3.01027 3.3422 0
M  V30 5431 C 515.21 -4.1117 1.5693 0
M  V30 5432 H 512.329 -0.624583 0.391236 0
M  V30 5433 H 514.971 -1.13649 1.52263 0
M  V30 5434 H 513.121 -3.61559 1.42153 0
M  V30 5435 H 514.793 -2.58637 3.81975 0
M  V30 5436 H 513.036 -2.3744 3.63049 0
M  V30 5437 H 513.707 -3.9988 3.80525 0
M  V30 5438 H 516.183 -3.7011 1.90151 0
M  V30 5439 H 515.059 -5.06928 2.10513 0
M  V30 5440 H 515.32 -4.392 0.505548 0
M  V30 5441 N 514.379 -1.04941 -1.1758 0
M  V30 5442 C 515.625 -0.759112 -1.88057 0
M  V30 5443 C 515.958 0.711918 -1.8068 0
M  V30 5444 O 515.233 1.52035 -1.21308 0
M  V30 5445 C 515.516 -1.237 -3.38187 0
M  V30 5446 C 515.369 -2.77078 -3.54327 0
M  V30 5447 C 516.688 -0.834014 -4.32125 0
M  V30 5448 H 513.807 -0.277237 -0.682868 0
M  V30 5449 H 516.449 -1.30296 -1.38286 0
M  V30 5450 H 514.599 -0.774337 -3.80705 0
M  V30 5451 H 516.271 -3.31449 -3.20842 0
M  V30 5452 H 514.514 -3.16477 -2.96689 0
M  V30 5453 H 515.185 -3.05577 -4.59703 0
M  V30 5454 H 517.661 -1.23228 -3.97434 0
M  V30 5455 H 516.537 -1.19603 -5.35711 0
M  V30 5456 H 516.798 0.262195 -4.41322 0
M  V30 5457 N 515.857 1.33968 -0.830081 0
M  V30 5458 C 517.082 2.02813 -0.433796 0
M  V30 5459 C 517.507 1.62076 0.954614 0
M  V30 5460 O 516.865 0.808955 1.62252 0
M  V30 5461 C 516.913 3.56348 -0.552115 0
M  V30 5462 O 516.017 4.10202 0.425191 0
M  V30 5463 H 515.358 0.639817 -0.177567 0
M  V30 5464 H 517.888 1.7106 -1.12248 0
M  V30 5465 H 517.898 4.05722 -0.430513 0
M  V30 5466 H 516.573 3.85344 -1.56471 0
M  V30 5467 H 515.15 3.71979 0.261878 0
M  V30 5468 N 517.335 0.585699 1.46312 0
M  V30 5469 C 518.584 0.0701192 2.01578 0
M  V30 5470 C 518.897 -1.29889 1.46247 0
M  V30 5471 O 520.103 -1.90598 1.93351 0
M  V30 5472 C 518.559 0.0747499 3.59822 0
M  V30 5473 C 518.167 1.44226 4.24149 0
M  V30 5474 C 519.911 -0.38673 4.22735 0
M  V30 5475 C 517.818 1.40446 5.74481 0
M  V30 5476 H 516.748 0.0224441 0.753666 0
M  V30 5477 H 519.399 0.737789 1.68015 0
M  V30 5478 H 517.781 -0.659144 3.90476 0
M  V30 5479 H 518.955 2.19612 4.05101 0
M  V30 5480 H 517.27 1.84401 3.73343 0
M  V30 5481 H 519.867 -0.433853 5.32937 0
M  V30 5482 H 520.21 -1.40489 3.91878 0
M  V30 5483 H 520.743 0.293195 3.96718 0
M  V30 5484 H 517.482 2.39952 6.10003 0
M  V30 5485 H 517.002 0.692845 5.95785 0
M  V30 5486 H 518.681 1.11865 6.37256 0
M  V30 5487 N 518.813 -1.54241 0.323641 0
M  V30 5488 C 519.743 -2.27289 -0.534993 0
M  V30 5489 C 520.724 -1.28087 -1.11927 0
M  V30 5490 O 521.909 -1.56899 -1.14439 0
M  V30 5491 C 519.039 -3.03075 -1.69596 0
M  V30 5492 C 517.993 -4.09614 -1.24098 0
M  V30 5493 C 517.319 -4.73242 -2.4889 0
M  V30 5494 C 518.619 -5.21087 -0.355789 0
M  V30 5495 H 520.313 -2.99308 0.0743257 0
M  V30 5496 H 517.859 -1.43952 0.0371874 0
M  V30 5497 H 519.812 -3.52907 -2.30293 0
M  V30 5498 H 518.536 -2.28673 -2.33187 0
M  V30 5499 H 517.195 -3.60666 -0.656945 0
M  V30 5500 H 516.843 -3.95455 -3.10845 0
M  V30 5501 H 516.543 -5.45209 -2.19138 0
M  V30 5502 H 518.067 -5.25848 -3.10348 0
M  V30 5503 H 519.481 -5.66675 -0.869042 0
M  V30 5504 H 517.878 -5.9991 -0.151045 0
M  V30 5505 H 518.948 -4.81005 0.613339 0
M  V30 5506 N 520.291 -0.0518155 -1.57515 0
M  V30 5507 C 521.516 0.634896 -1.97443 0
M  V30 5508 C 521.941 1.63546 -0.929207 0
M  V30 5509 O 521.299 1.80981 0.107484 0
M  V30 5510 C 521.347 1.29765 -3.36442 0
M  V30 5511 O 520.451 2.41333 -3.34413 0
M  V30 5512 H 519.792 0.164994 -0.643174 0
M  V30 5513 H 522.322 -0.120407 -2.04245 0
M  V30 5514 H 522.332 1.64918 -3.73184 0
M  V30 5515 H 521.007 0.564361 -4.12053 0
M  V30 5516 H 519.584 2.08122 -3.09418 0
M  V30 5517 N 521.769 1.56035 0.221574 0
M  V30 5518 C 522.717 1.93269 1.29421 0
M  V30 5519 C 523.711 0.814727 1.48521 0
M  V30 5520 O 524.917 0.999559 1.49696 0
M  V30 5521 H 521.292 0.614188 0.43391 0
M  V30 5522 H 523.263 2.82773 0.952987 0
M  V30 5523 C 522.012 2.26573 2.63742 0
M  V30 5524 H 521.335 3.12112 2.49853 0
M  V30 5525 H 522.775 2.5651 3.37607 0
M  V30 5526 C 521.234 1.09086 3.1875 0
M  V30 5527 O 521.764 0.351985 4.00155 0
M  V30 5528 N 519.97 0.874693 2.77124 0
M  V30 5529 H 519.517 1.47726 2.11033 0
M  V30 5530 H 519.475 0.0903349 3.1427 0
M  V30 5531 N 523.247 -0.488276 1.49845 0
M  V30 5532 C 524.496 -1.23826 1.59217 0
M  V30 5533 C 524.809 -1.93439 0.289966 0
M  V30 5534 O 526.015 -2.70229 0.262382 0
M  V30 5535 C 524.471 -2.24902 2.80976 0
M  V30 5536 C 524.079 -1.6117 4.18005 0
M  V30 5537 C 525.823 -3.00648 2.99685 0
M  V30 5538 C 523.73 -2.60431 5.3097 0
M  V30 5539 H 522.66 -0.465858 0.592868 0
M  V30 5540 H 525.311 -0.510645 1.76252 0
M  V30 5541 H 523.693 -3.0088 2.57463 0
M  V30 5542 H 524.867 -0.910968 4.51706 0
M  V30 5543 H 523.182 -0.97767 4.0476 0
M  V30 5544 H 525.779 -3.74903 3.81251 0
M  V30 5545 H 526.122 -3.5902 2.10738 0
M  V30 5546 H 526.655 -2.31784 3.23297 0
M  V30 5547 H 523.394 -2.06823 6.22017 0
M  V30 5548 H 522.914 -3.28707 5.01709 0
M  V30 5549 H 524.593 -3.22606 5.60834 0
M  V30 5550 N 524.725 -1.39134 -0.740242 0
M  V30 5551 C 525.95 -1.39518 -1.53459 0
M  V30 5552 C 526.375 0.00968883 -1.88098 0
M  V30 5553 O 525.733 0.995312 -1.51536 0
M  V30 5554 C 525.781 -2.26981 -2.802 0
M  V30 5555 O 524.885 -1.69609 -3.75908 0
M  V30 5556 H 524.226 -0.475328 -0.463637 0
M  V30 5557 H 526.756 -1.83064 -0.913717 0
M  V30 5558 H 526.766 -2.41309 -3.28989 0
M  V30 5559 H 525.441 -3.29081 -2.5432 0
M  V30 5560 H 524.018 -1.64495 -3.34658 0
M  V30 5561 N 526.204 0.969867 -1.24223 0
M  V30 5562 C 527.429 1.75289 -1.10853 0
M  V30 5563 C 527.854 1.85091 0.335079 0
M  V30 5564 O 527.212 1.32024 1.24255 0
M  V30 5565 C 527.26 3.15255 -1.75062 0
M  V30 5566 O 526.364 3.99589 -1.01992 0
M  V30 5567 H 525.705 0.538904 -0.387915 0
M  V30 5568 H 528.235 1.21675 -1.64488 0
M  V30 5569 H 528.245 3.65787 -1.80731 0
M  V30 5570 H 526.92 3.07436 -2.801 0
M  V30 5571 H 525.497 3.58077 -1.04094 0
M  V30 5572 N 527.682 1.05563 1.17022 0
M  V30 5573 C 528.612 0.681026 2.23348 0
M  V30 5574 C 529.593 -0.322983 1.67005 0
M  V30 5575 O 530.778 -0.199746 1.9317 0
M  V30 5576 C 527.908 0.0589053 3.4725 0
M  V30 5577 C 526.862 0.988082 4.16438 0
M  V30 5578 C 526.188 0.229646 5.34207 0
M  V30 5579 C 527.488 2.31388 4.68249 0
M  V30 5580 H 529.182 1.56993 2.54938 0
M  V30 5581 H 526.728 0.756302 1.2254 0
M  V30 5582 H 528.681 -0.214982 4.20851 0
M  V30 5583 H 527.405 -0.864968 3.14938 0
M  V30 5584 H 526.064 1.24659 3.44754 0
M  V30 5585 H 525.712 -0.697111 4.98146 0
M  V30 5586 H 525.412 0.848815 5.81437 0
M  V30 5587 H 526.936 -0.0368694 6.10589 0
M  V30 5588 H 528.35 2.09964 5.33468 0
M  V30 5589 H 526.747 2.88736 5.26072 0
M  V30 5590 H 527.817 2.94982 3.84855 0
M  V30 5591 N 529.16 -1.33526 0.837174 0
M  V30 5592 C 530.385 -2.0258 0.444545 0
M  V30 5593 C 530.81 -1.6258 -0.946006 0
M  V30 5594 O 530.168 -0.817548 -1.6182 0
M  V30 5595 C 530.216 -3.5605 0.571006 0
M  V30 5596 O 529.32 -4.10422 -0.403431 0
M  V30 5597 H 528.661 -0.638866 0.180958 0
M  V30 5598 H 531.191 -1.70462 1.13154 0
M  V30 5599 H 531.201 -4.05488 0.452024 0
M  V30 5600 H 529.876 -3.84509 1.58512 0
M  V30 5601 H 528.453 -3.72113 -0.242147 0
M  V30 5602 N 530.638 -0.59345 -1.46 0
M  V30 5603 C 531.568 0.121192 -2.33185 0
M  V30 5604 C 532.549 0.872977 -1.4599 0
M  V30 5605 O 533.734 0.846321 -1.74789 0
M  V30 5606 C 530.864 1.12844 -3.28456 0
M  V30 5607 C 529.818 0.4908 -4.25177 0
M  V30 5608 C 529.144 1.60529 -5.10034 0
M  V30 5609 C 530.444 -0.578949 -5.19081 0
M  V30 5610 H 532.138 -0.606767 -2.93187 0
M  V30 5611 H 529.684 -0.293242 -1.40983 0
M  V30 5612 H 531.637 1.63684 -3.88311 0
M  V30 5613 H 530.361 1.88681 -2.66584 0
M  V30 5614 H 529.02 0.00339328 -3.666 0
M  V30 5615 H 528.668 2.35359 -4.44539 0
M  V30 5616 H 528.368 1.18422 -5.75543 0
M  V30 5617 H 529.892 2.11623 -5.72755 0
M  V30 5618 H 531.306 -0.155199 -5.7309 0
M  V30 5619 H 529.703 -0.920947 -5.92991 0
M  V30 5620 H 530.773 -1.46109 -4.62364 0
M  V30 5621 N 532.116 1.54067 -0.331816 0
M  V30 5622 C 533.079 2.23275 0.517768 0
M  V30 5623 C 534.079 1.22897 1.03697 0
M  V30 5624 O 535.269 1.47419 0.928084 0
M  V30 5625 C 532.401 2.94326 1.72004 0
M  V30 5626 H 533.594 2.99773 -0.0873507 0
M  V30 5627 H 531.147 1.56079 -0.0830042 0
M  V30 5628 H 531.882 2.21986 2.36417 0
M  V30 5629 H 531.667 3.67941 1.35507 0
M  V30 5630 H 533.157 3.47031 2.32291 0
M  V30 5631 N 533.594 0.0601682 1.57485 0
M  V30 5632 C 534.819 -0.624416 1.97777 0
M  V30 5633 C 535.244 -1.63051 0.937867 0
M  V30 5634 O 534.602 -1.81036 -0.0978845 0
M  V30 5635 C 534.65 -1.27979 3.37126 0
M  V30 5636 O 533.754 -2.39556 3.35688 0
M  V30 5637 H 533.095 -0.161581 0.64404 0
M  V30 5638 H 535.625 0.131237 2.04179 0
M  V30 5639 H 535.635 -1.62937 3.74053 0
M  V30 5640 H 534.31 -0.542501 4.12347 0
M  V30 5641 H 532.887 -2.06478 3.10517 0
M  V30 5642 N 535.072 -1.5615 -0.213296 0
M  V30 5643 C 536.022 -1.89485 -1.26804 0
M  V30 5644 C 537.006 -0.758713 -1.41889 0
M  V30 5645 O 538.198 -1.02127 -1.44565 0
M  V30 5646 C 535.327 -2.22219 -2.61675 0
M  V30 5647 C 534.413 -3.42245 -2.50458 0
M  V30 5648 N 534.804 -4.60645 -2.089 0
M  V30 5649 C 533.102 -3.46023 -2.81397 0
M  V30 5650 C 533.803 -5.42805 -2.09135 0
M  V30 5651 N 532.779 -4.82732 -2.49941 0
M  V30 5652 H 536.581 -2.78537 -0.937771 0
M  V30 5653 H 534.095 -1.56826 -0.421824 0
M  V30 5654 H 536.092 -2.44278 -3.37837 0
M  V30 5655 H 534.752 -1.34484 -2.95541 0
M  V30 5656 H 535.763 -4.85651 -1.79899 0
M  V30 5657 H 532.44 -2.68654 -3.1958 0
M  V30 5658 H 533.83 -6.47601 -1.79059 0
M  V30 5659 N 536.55 0.480323 -1.50102 0
M  V30 5660 C 537.797 1.23307 -1.60629 0
M  V30 5661 C 538.125 1.92135 -0.302375 0
M  V30 5662 O 537.38 1.82321 0.711154 0
M  V30 5663 C 537.679 2.30708 -2.72963 0
M  V30 5664 C 537.345 1.79195 -4.13763 0
M  V30 5665 C 536.007 1.64867 -4.52076 0
M  V30 5666 C 538.359 1.40878 -5.018 0
M  V30 5667 C 535.687 1.10631 -5.76175 0
M  V30 5668 C 538.039 0.880872 -6.26437 0
M  V30 5669 C 536.703 0.724146 -6.6356 0
M  V30 5670 H 535.973 0.451211 -0.587784 0
M  V30 5671 H 538.62 0.53051 -1.84005 0
M  V30 5672 H 536.925 3.06834 -2.43639 0
M  V30 5673 H 538.622 2.88692 -2.78313 0
M  V30 5674 H 535.212 1.91313 -3.83533 0
M  V30 5675 H 539.396 1.50786 -4.7284 0
M  V30 5676 H 534.652 0.972263 -6.0362 0
M  V30 5677 H 538.826 0.575269 -6.9402 0
M  V30 5678 H 536.453 0.301722 -7.59601 0
M  V30 5679 N 538.028 1.39524 0.732853 0
M  V30 5680 C 539.444 1.21176 1.03868 0
M  V30 5681 C 539.644 0.0748448 2.01361 0
M  V30 5682 O 538.7 -0.57281 2.45917 0
M  V30 5683 C 540.013 2.54667 1.59892 0
M  V30 5684 C 541.561 2.6153 1.71962 0
M  V30 5685 C 542.036 3.95248 2.31394 0
M  V30 5686 N 543.527 3.96899 2.38801 0
M  V30 5687 C 544.262 4.97138 2.85729 0
M  V30 5688 N 543.758 6.07775 3.32537 0
M  V30 5689 N 545.551 4.84516 2.84957 0
M  V30 5690 H 537.702 2.12225 0.086304 0
M  V30 5691 H 539.965 0.942614 0.100907 0
M  V30 5692 H 539.671 3.38423 0.95721 0
M  V30 5693 H 539.545 2.74538 2.58668 0
M  V30 5694 H 541.932 1.78156 2.35254 0
M  V30 5695 H 542.013 2.45507 0.718327 0
M  V30 5696 H 541.657 4.79054 1.68729 0
M  V30 5697 H 541.587 4.08593 3.32204 0
M  V30 5698 H 544.078 3.16998 2.05719 0
M  V30 5699 H 544.391 6.8017 3.66862 0
M  V30 5700 H 542.736 6.11366 3.30541 0
M  V30 5701 H 545.927 3.97185 2.47713 0
M  V30 5702 H 546.1 5.62783 3.21215 0
M  V30 5703 N 539.506 -0.963266 1.24736 0
M  V30 5704 C 540.752 -1.70933 1.09131 0
M  V30 5705 C 541.085 -1.90676 -0.368273 0
M  V30 5706 O 540.36 -1.47147 -1.27193 0
M  V30 5707 C 540.643 -3.09744 1.83658 0
M  V30 5708 C 540.496 -2.97465 3.37394 0
M  V30 5709 C 541.815 -4.09483 1.61282 0
M  V30 5710 H 538.934 -0.620398 0.397838 0
M  V30 5711 H 541.576 -1.12028 1.53459 0
M  V30 5712 H 539.726 -3.60031 1.4598 0
M  V30 5713 H 541.398 -2.54571 3.84696 0
M  V30 5714 H 539.641 -2.33576 3.65547 0
M  V30 5715 H 540.312 -3.95822 3.84745 0
M  V30 5716 H 542.788 -3.68073 1.94066 0
M  V30 5717 H 541.664 -5.04666 2.15878 0
M  V30 5718 H 541.925 -4.38639 0.552102 0
M  V30 5719 N 540.985 -1.06182 -1.16461 0
M  V30 5720 C 542.21 -0.798599 -1.91408 0
M  V30 5721 C 542.635 0.640987 -1.76842 0
M  V30 5722 O 541.993 1.44652 -1.09296 0
M  V30 5723 C 542.041 -1.19665 -3.40165 0
M  V30 5724 O 541.145 -0.334768 -4.11039 0
M  V30 5725 H 540.486 -0.291961 -0.596368 0
M  V30 5726 H 543.016 -1.41732 -1.47557 0
M  V30 5727 H 543.026 -1.16772 -3.90933 0
M  V30 5728 H 541.701 -2.24526 -3.50087 0
M  V30 5729 H 540.278 -0.425168 -3.70468 0
M  V30 5730 N 542.463 1.3308 -0.844243 0
M  V30 5731 C 543.411 2.31028 -0.269954 0
M  V30 5732 C 544.405 1.58381 0.600997 0
M  V30 5733 O 545.611 1.73203 0.48996 0
M  V30 5734 H 541.986 0.748866 -0.0685782 0
M  V30 5735 H 543.957 2.76967 -1.11049 0
M  V30 5736 C 542.706 3.43549 0.535676 0
M  V30 5737 H 542.029 3.99604 -0.125202 0
M  V30 5738 H 543.469 4.14267 0.903262 0
M  V30 5739 C 541.928 2.8988 1.71672 0
M  V30 5740 O 542.458 2.86511 2.81557 0
M  V30 5741 N 540.664 2.46416 1.54037 0
M  V30 5742 H 540.211 2.49356 0.64649 0
M  V30 5743 H 540.169 2.1086 2.33207 0
M  V30 5744 N 543.941 0.601185 1.45683 0
M  V30 5745 C 545.166 0.0982245 2.07167 0
M  V30 5746 C 545.591 -1.20546 1.44396 0
M  V30 5747 O 544.949 -1.73247 0.534347 0
M  V30 5748 C 544.997 -0.0346976 3.60583 0
M  V30 5749 O 544.101 -1.08657 3.97828 0
M  V30 5750 H 543.442 0.0711618 0.660176 0
M  V30 5751 H 545.972 0.829376 1.87036 0
M  V30 5752 H 545.982 -0.234969 4.07323 0
M  V30 5753 H 544.657 0.917265 4.05659 0
M  V30 5754 H 543.234 -0.863275 3.6277 0
M  V30 5755 N 545.419 -1.53889 0.339982 0
M  V30 5756 C 546.647 -2.05271 -0.259114 0
M  V30 5757 C 547.062 -1.21517 -1.44496 0
M  V30 5758 O 546.419 -0.24966 -1.80784 0
M  V30 5759 C 546.47 -3.55092 -0.677634 0
M  V30 5760 O 546.191 -4.35667 0.461051 0
M  V30 5761 C 547.692 -4.22631 -1.33782 0
M  V30 5762 H 544.912 -0.669085 -0.0506566 0
M  V30 5763 H 547.456 -1.9852 0.490935 0
M  V30 5764 H 545.611 -3.62077 -1.37763 0
M  V30 5765 H 546.025 -5.24343 0.128144 0
M  V30 5766 H 547.499 -5.28861 -1.58145 0
M  V30 5767 H 547.976 -3.74758 -2.29027 0
M  V30 5768 H 548.582 -4.19829 -0.679957 0
M  V30 5769 N 546.897 -0.0685191 -1.57451 0
M  V30 5770 C 547.83 0.935736 -2.08133 0
M  V30 5771 C 548.808 1.29317 -0.985698 0
M  V30 5772 O 549.992 1.40304 -1.25886 0
M  V30 5773 C 547.119 2.2448 -2.53627 0
M  V30 5774 C 546.165 2.03917 -3.74593 0
M  V30 5775 S 546.998 1.30154 -5.19442 0
M  V30 5776 C 548.154 2.62346 -5.68265 0
M  V30 5777 H 548.387 0.504473 -2.92989 0
M  V30 5778 H 545.92 0.144169 -1.53725 0
M  V30 5779 H 547.878 2.99718 -2.80499 0
M  V30 5780 H 546.539 2.64731 -1.69045 0
M  V30 5781 H 545.732 3.00788 -4.04404 0
M  V30 5782 H 545.334 1.36815 -3.48077 0
M  V30 5783 H 547.626 3.58448 -5.7491 0
M  V30 5784 H 548.569 2.3715 -6.67207 0
M  V30 5785 H 548.977 2.69401 -4.96068 0
M  V30 5786 N 548.375 1.56261 0.205012 0
M  V30 5787 C 549.285 1.96944 1.27476 0
M  V30 5788 C 550.301 0.875636 1.50362 0
M  V30 5789 O 551.477 1.18058 1.6317 0
M  V30 5790 C 548.542 2.29219 2.60115 0
M  V30 5791 C 547.603 3.52255 2.45387 0
M  V30 5792 C 546.836 3.8298 3.71701 0
M  V30 5793 O 547.059 3.15138 4.75441 0
M  V30 5794 O 545.993 4.76435 3.67823 0
M  V30 5795 H 549.819 2.88144 0.959527 0
M  V30 5796 H 547.404 1.43686 0.409217 0
M  V30 5797 H 549.286 2.51098 3.3842 0
M  V30 5798 H 547.961 1.4119 2.91285 0
M  V30 5799 H 546.868 3.35635 1.65227 0
M  V30 5800 H 548.201 4.40719 2.19152 0
M  V30 5801 N 549.853 -0.472356 1.50355 0
M  V30 5802 C 551.13 -1.23356 1.51798 0
M  V30 5803 C 551.51 -2.09469 0.26193 0
M  V30 5804 O 550.858 -2.15677 -0.754691 0
M  V30 5805 C 551.068 -2.06568 2.81302 0
M  V30 5806 C 552.416 -2.648 3.31913 0
M  V30 5807 O 553.44 -2.16812 2.82614 0
M  V30 5808 O 552.299 -3.52231 4.17846 0
M  V30 5809 H 549.393 -0.559707 0.608816 0
M  V30 5810 H 551.939 -0.48428 1.62643 0
M  V30 5811 H 550.711 -1.43103 3.64194 0
M  V30 5812 H 550.334 -2.88633 2.73454 0
M  V30 5813 N 551.331 -1.39911 -0.725443 0
M  V30 5814 C 552.577 -1.37858 -1.48738 0
M  V30 5815 C 552.91 0.0224187 -1.94187 0
M  V30 5816 O 552.185 0.989204 -1.67466 0
M  V30 5817 C 552.468 -2.3594 -2.72038 0
M  V30 5818 C 552.321 -3.85023 -2.32546 0
M  V30 5819 C 553.64 -2.31704 -3.74167 0
M  V30 5820 H 550.759 -0.502074 -0.539528 0
M  V30 5821 H 553.401 -1.70974 -0.828728 0
M  V30 5822 H 551.551 -2.0783 -3.28236 0
M  V30 5823 H 553.223 -4.2392 -1.81905 0
M  V30 5824 H 551.466 -4.01334 -1.64661 0
M  V30 5825 H 552.137 -4.49152 -3.20884 0
M  V30 5826 H 554.613 -2.5658 -3.27576 0
M  V30 5827 H 553.489 -3.02395 -4.58092 0
M  V30 5828 H 553.75 -1.3253 -4.21768 0
M  V30 5829 N 552.809 0.956637 -1.25245 0
M  V30 5830 C 554.058 1.69537 -1.0927 0
M  V30 5831 C 554.371 1.92136 0.366503 0
M  V30 5832 O 555.577 2.63687 0.64665 0
M  V30 5833 C 554.033 3.05211 -1.9072 0
M  V30 5834 C 553.641 2.90416 -3.41119 0
M  V30 5835 C 555.385 3.82882 -1.83308 0
M  V30 5836 C 553.292 4.21468 -4.14872 0
M  V30 5837 H 552.222 0.635804 -0.405302 0
M  V30 5838 H 554.873 1.06513 -1.49423 0
M  V30 5839 H 553.255 3.69128 -1.43389 0
M  V30 5840 H 554.429 2.35444 -3.9611 0
M  V30 5841 H 552.744 2.26203 -3.49602 0
M  V30 5842 H 555.341 4.79944 -2.35706 0
M  V30 5843 H 555.684 4.0853 -0.800572 0
M  V30 5844 H 556.217 3.25711 -2.28379 0
M  V30 5845 H 552.956 4.01009 -5.18529 0
M  V30 5846 H 552.476 4.76213 -3.64665 0
M  V30 5847 H 554.155 4.90022 -4.22478 0
M  V30 5848 N 554.287 1.06798 1.15896 0
M  V30 5849 C 555.512 0.808739 1.90982 0
M  V30 5850 C 555.937 -0.6316 1.77179 0
M  V30 5851 O 555.295 -1.4407 1.10061 0
M  V30 5852 C 555.343 1.21468 3.39526 0
M  V30 5853 O 554.447 0.356562 4.10856 0
M  V30 5854 H 553.788 0.29512 0.594811 0
M  V30 5855 H 556.318 1.42513 1.46804 0
M  V30 5856 H 556.328 1.18844 3.90308 0
M  V30 5857 H 555.003 2.26379 3.48891 0
M  V30 5858 H 553.58 0.444808 3.70238 0
M  V30 5859 N 555.766 -1.3263 0.851289 0
M  V30 5860 C 557.015 -1.96633 0.449267 0
M  V30 5861 C 557.328 -1.68131 -0.999562 0
M  V30 5862 O 558.534 -2.25845 -1.50685 0
M  V30 5863 C 556.99 -3.51946 0.752446 0
M  V30 5864 C 556.598 -3.89311 2.21678 0
M  V30 5865 C 558.342 -4.22437 0.417983 0
M  V30 5866 C 556.249 -5.37655 2.46336 0
M  V30 5867 H 555.179 -0.735888 0.164269 0
M  V30 5868 H 557.83 -1.51073 1.0416 0
M  V30 5869 H 556.212 -3.95899 0.0895858 0
M  V30 5870 H 557.386 -3.56378 2.92115 0
M  V30 5871 H 555.701 -3.31836 2.51543 0
M  V30 5872 H 558.298 -5.31549 0.579674 0
M  V30 5873 H 558.641 -4.11349 -0.640115 0
M  V30 5874 H 559.174 -3.84057 1.03659 0
M  V30 5875 H 555.913 -5.5376 3.50757 0
M  V30 5876 H 555.433 -5.72005 1.80473 0
M  V30 5877 H 557.112 -6.04695 2.30115 0
M  V30 5878 N 557.244 -0.608902 -1.45362 0
M  V30 5879 C 558.207 0.0992563 -2.28985 0
M  V30 5880 C 559.207 0.793841 -1.39838 0
M  V30 5881 O 560.397 0.641804 -1.61946 0
M  V30 5882 C 557.529 1.15073 -3.20891 0
M  V30 5883 H 558.722 -0.635964 -2.93079 0
M  V30 5884 H 556.275 -0.368007 -1.51906 0
M  V30 5885 H 557.01 1.91667 -2.616 0
M  V30 5886 H 556.795 0.656867 -3.86559 0
M  V30 5887 H 558.285 1.64665 -3.83765 0
M  V30 5888 N 558.722 1.53707 -0.348139 0
M  V30 5889 C 559.999 1.93247 0.302475 0
M  V30 5890 C 560.379 1.28012 1.67857 0
M  V30 5891 O 559.727 0.43274 2.24365 0
M  V30 5892 C 559.937 3.47031 0.370159 0
M  V30 5893 C 561.285 4.20066 0.61882 0
M  V30 5894 O 562.309 3.53319 0.452087 0
M  V30 5895 O 561.168 5.38318 0.94215 0
M  V30 5896 H 558.262 0.807736 0.177458 0
M  V30 5897 H 560.808 1.64927 -0.399651 0
M  V30 5898 H 559.58 3.86745 -0.59534 0
M  V30 5899 H 559.203 3.81532 1.11888 0
M  V30 5900 N 560.2 0.0768682 1.57412 0
M  V30 5901 C 561.148 -0.906229 2.1422 0
M  V30 5902 C 562.142 -1.30477 1.08037 0
M  V30 5903 O 563.348 -1.28143 1.2641 0
M  V30 5904 H 559.723 -0.310207 0.685037 0
M  V30 5905 H 561.694 -0.402228 2.95677 0
M  V30 5906 C 560.443 -2.16245 2.72274 0
M  V30 5907 H 559.766 -1.86463 3.53655 0
M  V30 5908 H 561.206 -2.83134 3.15613 0
M  V30 5909 C 559.665 -2.92437 1.67279 0
M  V30 5910 O 560.195 -3.86322 1.10081 0
M  V30 5911 N 558.401 -2.55637 1.38195 0
M  V30 5912 H 557.948 -1.79363 1.84897 0
M  V30 5913 H 557.906 -3.06919 0.681787 0
M  V30 5914 N 561.678 -1.56367 -0.196722 0
M  V30 5915 C 562.927 -1.79724 -0.915539 0
M  V30 5916 C 563.24 -0.649804 -1.84491 0
M  V30 5917 O 564.446 -0.767631 -2.60422 0
M  V30 5918 C 562.902 -3.18369 -1.67836 0
M  V30 5919 C 562.51 -4.4091 -0.793897 0
M  V30 5920 C 564.254 -3.51037 -2.38691 0
M  V30 5921 C 562.161 -5.70577 -1.55549 0
M  V30 5922 H 561.091 -0.67013 -0.345604 0
M  V30 5923 H 563.742 -1.82721 -0.168856 0
M  V30 5924 H 562.124 -3.09617 -2.46887 0
M  V30 5925 H 563.298 -4.60781 -0.042163 0
M  V30 5926 H 561.613 -4.15937 -0.19626 0
M  V30 5927 H 564.21 -4.4515 -2.96219 0
M  V30 5928 H 564.553 -2.74704 -3.12799 0
M  V30 5929 H 565.086 -3.61229 -1.66608 0
M  V30 5930 H 561.825 -6.49871 -0.857226 0
M  V30 5931 H 561.345 -5.54726 -2.2812 0
M  V30 5932 H 563.024 -6.11637 -2.10971 0
M  V30 5933 N 563.156 0.464375 -1.50603 0
M  V30 5934 C 564.086 1.56944 -1.72889 0
M  V30 5935 C 565.067 1.59979 -0.577997 0
M  V30 5936 O 566.252 1.76138 -0.817855 0
M  V30 5937 C 563.382 2.95225 -1.8292 0
M  V30 5938 C 562.336 3.07056 -2.98162 0
M  V30 5939 C 561.662 4.47051 -2.93343 0
M  V30 5940 C 562.962 2.83648 -4.38567 0
M  V30 5941 H 564.656 1.38547 -2.65415 0
M  V30 5942 H 562.202 0.665082 -1.27721 0
M  V30 5943 H 564.155 3.72467 -1.97095 0
M  V30 5944 H 562.879 3.14793 -0.870209 0
M  V30 5945 H 561.538 2.32248 -2.83648 0
M  V30 5946 H 561.186 4.63547 -1.95276 0
M  V30 5947 H 560.886 4.55902 -3.70712 0
M  V30 5948 H 562.41 5.26304 -3.09575 0
M  V30 5949 H 563.824 3.50636 -4.53572 0
M  V30 5950 H 562.221 3.03937 -5.17438 0
M  V30 5951 H 563.291 1.79451 -4.50472 0
M  V30 5952 N 564.634 1.40294 0.718013 0
M  V30 5953 C 565.582 1.40536 1.85344 0
M  V30 5954 C 566.576 0.286192 1.66965 0
M  V30 5955 O 567.782 0.457105 1.74099 0
M  V30 5956 H 564.157 0.439236 0.61039 0
M  V30 5957 H 566.128 2.36275 1.82255 0
M  V30 5958 C 564.877 1.28245 3.23185 0
M  V30 5959 H 564.2 2.1364 3.37932 0
M  V30 5960 H 565.64 1.32474 4.02774 0
M  V30 5961 C 564.099 -0.0075503 3.36899 0
M  V30 5962 O 564.629 -0.971391 3.89778 0
M  V30 5963 N 562.835 -0.0762479 2.905 0
M  V30 5964 H 562.382 0.708819 2.47656 0
M  V30 5965 H 562.34 -0.938846 3.00055 0
M  V30 5966 N 566.112 -0.949982 1.2575 0
M  V30 5967 C 567.337 -1.73503 1.13628 0
M  V30 5968 C 567.762 -1.85601 -0.30559 0
M  V30 5969 O 567.12 -1.33984 -1.22139 0
M  V30 5970 C 567.168 -3.1243 1.80055 0
M  V30 5971 O 566.272 -3.97916 1.08336 0
M  V30 5972 H 565.613 -0.532665 0.396439 0
M  V30 5973 H 568.143 -1.19043 1.66403 0
M  V30 5974 H 568.153 -3.62866 1.86527 0
M  V30 5975 H 566.828 -3.02941 2.84956 0
M  V30 5976 H 565.405 -3.56375 1.09777 0
M  V30 5977 N 567.59 -1.07411 -1.15328 0
M  V30 5978 C 568.553 -0.698914 -2.18284 0
M  V30 5979 C 569.553 0.261149 -1.58665 0
M  V30 5980 O 570.743 0.0420277 -1.74149 0
M  V30 5981 C 567.875 -0.0302427 -3.40887 0
M  V30 5982 H 569.068 -1.61045 -2.52991 0
M  V30 5983 H 566.621 -0.870724 -1.298 0
M  V30 5984 H 567.356 0.893505 -3.11748 0
M  V30 5985 H 567.141 -0.720759 -3.85419 0
M  V30 5986 H 568.631 0.21759 -4.17033 0
M  V30 5987 N 569.068 1.32177 -0.85831 0
M  V30 5988 C 570.293 2.01847 -0.476718 0
M  V30 5989 C 570.718 1.64065 0.920021 0
M  V30 5990 O 570.076 0.843189 1.60499 0
M  V30 5991 C 570.124 3.55097 -0.627578 0
M  V30 5992 O 569.228 4.11012 0.338086 0
M  V30 5993 H 568.569 0.635907 -0.191099 0
M  V30 5994 H 571.099 1.68641 -1.15851 0
M  V30 5995 H 571.109 4.04718 -0.516476 0
M  V30 5996 H 569.784 3.81938 -1.64609 0
M  V30 5997 H 568.361 3.72451 0.182917 0
M  V30 5998 N 570.547 0.616602 1.45037 0
M  V30 5999 C 571.793 0.115501 2.02471 0
M  V30 6000 C 572.126 -1.25406 1.4828 0
M  V30 6001 O 571.401 -1.82922 0.661051 0
M  V30 6002 C 571.684 0.0863588 3.59996 0
M  V30 6003 C 571.537 1.48723 4.24501 0
M  V30 6004 C 572.856 -0.596762 4.36035 0
M  V30 6005 H 569.975 0.0434461 0.735718 0
M  V30 6006 H 572.617 0.7903 1.72784 0
M  V30 6007 H 570.767 -0.488277 3.85419 0
M  V30 6008 H 572.439 2.10964 4.10234 0
M  V30 6009 H 570.682 2.04534 3.82555 0
M  V30 6010 H 571.353 1.419 5.3345 0
M  V30 6011 H 573.829 -0.10824 4.15959 0
M  V30 6012 H 572.705 -0.586289 5.4576 0
M  V30 6013 H 572.966 -1.66451 4.09569 0
M  V30 6014 N 572.025 -1.5352 0.356285 0
M  V30 6015 C 573.253 -2.05534 -0.237328 0
M  V30 6016 C 573.668 -1.23043 -1.43199 0
M  V30 6017 O 573.025 -0.268821 -1.80509 0
M  V30 6018 C 573.076 -3.55791 -0.639933 0
M  V30 6019 O 572.797 -4.35154 0.507233 0
M  V30 6020 C 574.298 -4.24027 -1.29292 0
M  V30 6021 H 571.518 -0.669585 -0.0435572 0
M  V30 6022 H 574.062 -1.97988 0.511963 0
M  V30 6023 H 572.217 -3.63518 -1.33915 0
M  V30 6024 H 572.631 -5.24178 0.18375 0
M  V30 6025 H 574.105 -5.30509 -1.52527 0
M  V30 6026 H 574.582 -3.77166 -2.25039 0
M  V30 6027 H 575.188 -4.20527 -0.63539 0
M  V30 6028 N 573.503 -0.0852151 -1.57369 0
M  V30 6029 C 574.451 0.894856 -2.14698 0
M  V30 6030 C 575.445 1.29903 -1.08727 0
M  V30 6031 O 576.651 1.27471 -1.27088 0
M  V30 6032 H 573.026 0.306569 -0.686673 0
M  V30 6033 H 574.997 0.386542 -2.95886 0
M  V30 6034 C 573.746 2.14798 -2.73417 0
M  V30 6035 H 573.069 1.84585 -3.54638 0
M  V30 6036 H 574.509 2.81456 -3.1711 0
M  V30 6037 C 572.968 2.91546 -1.68828 0
M  V30 6038 O 573.498 3.85733 -1.12129 0
M  V30 6039 N 571.704 2.54901 -1.39549 0
M  V30 6040 H 571.251 1.7838 -1.85845 0
M  V30 6041 H 571.209 3.06553 -0.698054 0
M  V30 6042 N 574.981 1.5647 0.188427 0
M  V30 6043 C 576.227 1.82181 0.904534 0
M  V30 6044 C 576.582 0.663258 1.80606 0
M  V30 6045 O 575.875 -0.341231 1.88537 0
M  V30 6046 C 576.069 3.11596 1.7505 0
M  V30 6047 C 575.898 4.39928 0.932372 0
M  V30 6048 C 574.668 5.01554 0.61417 0
M  V30 6049 C 576.866 5.13527 0.281936 0
M  V30 6050 N 574.848 6.13499 -0.221896 0
M  V30 6051 C 576.219 6.18603 -0.416037 0
M  V30 6052 C 578.274 4.97505 0.198345 0
M  V30 6053 C 576.977 7.09394 -1.18965 0
M  V30 6054 C 579.003 5.88725 -0.561887 0
M  V30 6055 C 578.365 6.93251 -1.24828 0
M  V30 6056 H 574.464 0.717858 0.310168 0
M  V30 6057 H 577.048 1.93932 0.172757 0
M  V30 6058 H 575.219 3.01068 2.45383 0
M  V30 6059 H 576.951 3.25369 2.4066 0
M  V30 6060 H 573.706 4.64174 0.940187 0
M  V30 6061 H 574.13 6.74065 -0.629735 0
M  V30 6062 H 578.772 4.16716 0.714665 0
M  V30 6063 H 576.49 7.8964 -1.71737 0
M  V30 6064 H 580.076 5.78401 -0.628009 0
M  V30 6065 H 578.956 7.62618 -1.82712 0
M  V30 6066 N 576.459 -0.456382 1.50847 0
M  V30 6067 C 577.687 -1.23026 1.66349 0
M  V30 6068 C 578.102 -1.85473 0.352868 0
M  V30 6069 O 577.459 -1.69885 -0.666739 0
M  V30 6070 C 577.51 -2.32827 2.76539 0
M  V30 6071 O 577.231 -1.72938 4.02522 0
M  V30 6072 C 578.732 -3.23448 3.03144 0
M  V30 6073 H 575.952 -0.371527 0.558756 0
M  V30 6074 H 578.496 -0.543082 1.97157 0
M  V30 6075 H 576.651 -2.97294 2.48384 0
M  V30 6076 H 577.065 -2.45357 4.63573 0
M  V30 6077 H 578.539 -3.96669 3.83872 0
M  V30 6078 H 579.016 -3.83094 2.14793 0
M  V30 6079 H 579.622 -2.64702 3.32886 0
M  V30 6080 N 577.937 -1.40673 -0.710563 0
M  V30 6081 C 579.183 -1.39428 -1.47267 0
M  V30 6082 C 579.516 0.00182129 -1.942 0
M  V30 6083 O 578.791 0.971387 -1.68506 0
M  V30 6084 C 579.074 -2.38812 -2.6952 0
M  V30 6085 C 578.927 -3.87467 -2.28449 0
M  V30 6086 C 580.246 -2.3566 -3.71689 0
M  V30 6087 H 577.365 -0.507768 -0.534173 0
M  V30 6088 H 580.007 -1.71843 -0.810547 0
M  V30 6089 H 578.157 -2.113 -3.26013 0
M  V30 6090 H 579.829 -4.25825 -1.77399 0
M  V30 6091 H 578.072 -4.03058 -1.60395 0
M  V30 6092 H 578.743 -4.5253 -3.16103 0
M  V30 6093 H 581.219 -2.6004 -3.24836 0
M  V30 6094 H 580.095 -3.07237 -4.54859 0
M  V30 6095 H 580.356 -1.36996 -4.20339 0
M  V30 6096 N 579.415 0.9433 -1.26252 0
M  V30 6097 C 580.345 2.05902 -1.10122 0
M  V30 6098 C 581.326 1.70099 -0.00700552 0
M  V30 6099 O 582.511 1.93377 -0.178641 0
M  V30 6100 C 579.641 3.39516 -0.731175 0
M  V30 6101 C 578.595 3.89372 -1.77688 0
M  V30 6102 C 577.921 5.19613 -1.26122 0
M  V30 6103 C 579.221 4.14489 -3.17799 0
M  V30 6104 H 580.915 2.19655 -2.03451 0
M  V30 6105 H 578.461 1.05548 -0.979576 0
M  V30 6106 H 580.414 4.17031 -0.605215 0
M  V30 6107 H 579.138 3.25733 0.23782 0
M  V30 6108 H 577.797 3.14036 -1.89148 0
M  V30 6109 H 577.445 5.02208 -0.282128 0
M  V30 6110 H 577.145 5.53939 -1.96023 0
M  V30 6111 H 578.669 5.99713 -1.14789 0
M  V30 6112 H 580.083 4.82625 -3.09428 0
M  V30 6113 H 578.48 4.60094 -3.85271 0
M  V30 6114 H 579.55 3.20347 -3.64014 0
M  V30 6115 N 580.893 1.08022 1.14757 0
M  V30 6116 C 581.823 0.728248 2.21853 0
M  V30 6117 C 582.804 -0.287486 1.67653 0
M  V30 6118 O 583.989 -0.158727 1.9355 0
M  V30 6119 C 581.119 0.132549 3.47047 0
M  V30 6120 C 580.073 1.07619 4.14249 0
M  V30 6121 C 579.399 0.342907 5.33599 0
M  V30 6122 C 580.699 2.41268 4.63235 0
M  V30 6123 H 582.393 1.62365 2.51551 0
M  V30 6124 H 579.939 0.782125 1.20908 0
M  V30 6125 H 581.892 -0.125665 4.21213 0
M  V30 6126 H 580.616 -0.797971 3.16702 0
M  V30 6127 H 579.275 1.31944 3.42033 0
M  V30 6128 H 578.923 -0.59129 4.99513 0
M  V30 6129 H 578.623 0.971955 5.79506 0
M  V30 6130 H 580.147 0.0926538 6.1053 0
M  V30 6131 H 581.561 2.21232 5.28894 0
M  V30 6132 H 579.958 2.9983 5.19829 0
M  V30 6133 H 581.028 3.03079 3.78512 0
M  V30 6134 N 582.371 -1.3172 0.865308 0
M  V30 6135 C 583.787 -1.4958 0.556596 0
M  V30 6136 C 583.987 -1.79763 -0.910353 0
M  V30 6137 O 583.043 -1.87351 -1.6928 0
M  V30 6138 C 584.356 -2.63277 1.45279 0
M  V30 6139 C 585.904 -2.77161 1.45433 0
M  V30 6140 C 586.379 -3.93949 2.33598 0
M  V30 6141 N 587.87 -4.01228 2.31453 0
M  V30 6142 C 588.605 -4.90855 2.96393 0
M  V30 6143 N 588.101 -5.85416 3.70486 0
M  V30 6144 N 589.894 -4.84063 2.85726 0
M  V30 6145 H 582.045 -1.10396 1.81456 0
M  V30 6146 H 584.308 -0.54507 0.775631 0
M  V30 6147 H 584.014 -2.47734 2.49641 0
M  V30 6148 H 583.888 -3.59309 1.14792 0
M  V30 6149 H 586.275 -2.9212 0.41831 0
M  V30 6150 H 586.356 -1.8181 1.79941 0
M  V30 6151 H 586 -3.79748 3.37274 0
M  V30 6152 H 585.93 -4.88598 1.96417 0
M  V30 6153 H 588.421 -3.3357 1.77593 0
M  V30 6154 H 588.734 -6.50525 4.17178 0
M  V30 6155 H 587.079 -5.85409 3.74594 0
M  V30 6156 H 590.27 -4.09163 2.27384 0
M  V30 6157 H 590.443 -5.53708 3.36617 0
M  V30 6158 N 583.85 -0.624285 -1.44708 0
M  V30 6159 C 584.76 0.0861083 -2.34442 0
M  V30 6160 C 585.776 0.84291 -1.5222 0
M  V30 6161 O 586.952 0.796723 -1.84971 0
M  V30 6162 C 584.017 1.05999 -3.30099 0
M  V30 6163 C 583.077 0.303316 -4.28227 0
M  V30 6164 C 582.311 1.23081 -5.19314 0
M  V30 6165 O 582.534 2.46929 -5.14181 0
M  V30 6166 O 581.468 0.71883 -5.97592 0
M  V30 6167 H 585.293 -0.651756 -2.96624 0
M  V30 6168 H 582.879 -0.384493 -1.44368 0
M  V30 6169 H 584.76 1.62046 -3.88997 0
M  V30 6170 H 583.436 1.77859 -2.70459 0
M  V30 6171 H 582.343 -0.300033 -3.72895 0
M  V30 6172 H 583.676 -0.375123 -4.90768 0
M  V30 6173 N 585.328 1.53329 -0.364422 0
M  V30 6174 C 586.238 2.29414 0.490552 0
M  V30 6175 C 587.254 1.35335 1.09363 0
M  V30 6176 O 588.43 1.68391 1.10483 0
M  V30 6177 C 585.495 3.06772 1.61529 0
M  V30 6178 C 584.556 4.16516 1.03986 0
M  V30 6179 C 583.789 4.90176 2.111 0
M  V30 6180 O 584.012 4.63687 3.32191 0
M  V30 6181 O 582.946 5.76134 1.74222 0
M  V30 6182 H 586.772 3.03428 -0.12856 0
M  V30 6183 H 584.357 1.48843 -0.128837 0
M  V30 6184 H 586.239 3.55082 2.26924 0
M  V30 6185 H 584.914 2.35596 2.21983 0
M  V30 6186 H 583.821 3.7246 0.349856 0
M  V30 6187 H 585.154 4.89855 0.4799 0
M  V30 6188 N 586.806 0.0935595 1.57322 0
M  V30 6189 C 587.753 -0.865935 2.1394 0
M  V30 6190 C 588.723 -1.28083 1.05754 0
M  V30 6191 O 589.908 -1.36285 1.33533 0
M  V30 6192 C 587.048 -2.12023 2.72287 0
M  V30 6193 C 586.161 -1.756 3.94701 0
M  V30 6194 C 585.296 -2.95804 4.41218 0
M  V30 6195 C 584.335 -2.555 5.56225 0
M  V30 6196 N 583.472 -3.68534 5.97601 0
M  V30 6197 H 588.312 -0.376261 2.95615 0
M  V30 6198 H 585.849 -0.174052 1.46067 0
M  V30 6199 H 587.807 -2.85477 3.04235 0
M  V30 6200 H 586.437 -2.58492 1.93343 0
M  V30 6201 H 585.489 -0.921208 3.69077 0
M  V30 6202 H 586.801 -1.41964 4.78171 0
M  V30 6203 H 585.955 -3.77513 4.74941 0
M  V30 6204 H 584.694 -3.32649 3.56645 0
M  V30 6205 H 583.699 -1.72218 5.22131 0
M  V30 6206 H 584.924 -2.19801 6.42545 0
M  V30 6207 H 582.87 -4.051 5.15974 0
M  V30 6208 H 582.787 -3.38737 6.75865 0
M  V30 6209 H 584.055 -4.50757 6.35955 0
M  V30 6210 N 588.284 -1.56567 -0.180126 0
M  V30 6211 C 589.514 -1.85349 -0.912647 0
M  V30 6212 C 589.922 -0.675795 -1.76719 0
M  V30 6213 O 589.265 0.3645 -1.80047 0
M  V30 6214 C 589.327 -3.08431 -1.84691 0
M  V30 6215 C 588.991 -4.41694 -1.17284 0
M  V30 6216 C 589.988 -5.17062 -0.542532 0
M  V30 6217 C 587.673 -4.8843 -1.17223 0
M  V30 6218 C 589.667 -6.37351 0.0793953 0
M  V30 6219 C 587.354 -6.08652 -0.54647 0
M  V30 6220 C 588.352 -6.82955 0.0782458 0
M  V30 6221 O 588.04 -8.00897 0.694158 0
M  V30 6222 H 587.772 -0.619286 -0.271036 0
M  V30 6223 H 590.326 -2.0454 -0.187768 0
M  V30 6224 H 588.556 -2.85163 -2.61188 0
M  V30 6225 H 590.245 -3.23733 -2.44851 0
M  V30 6226 H 591.011 -4.8204 -0.535045 0
M  V30 6227 H 586.89 -4.30542 -1.64788 0
M  V30 6228 H 590.434 -6.95287 0.567612 0
M  V30 6229 H 586.331 -6.4314 -0.55151 0
M  V30 6230 H 587.099 -8.16352 0.592537 0
M  V30 6231 N 589.762 0.448376 -1.51087 0
M  V30 6232 C 590.725 1.52588 -1.71025 0
M  V30 6233 C 591.725 1.49958 -0.580442 0
M  V30 6234 O 592.915 1.52176 -0.847833 0
M  V30 6235 C 590.047 2.92163 -1.75652 0
M  V30 6236 H 591.24 1.36218 -2.67179 0
M  V30 6237 H 588.793 0.676313 -1.4091 0
M  V30 6238 H 589.528 3.13951 -0.812724 0
M  V30 6239 H 589.313 2.95478 -2.57751 0
M  V30 6240 H 590.803 3.70349 -1.92953 0
M  V30 6241 N 591.24 1.41047 0.703093 0
M  V30 6242 C 592.465 1.43537 1.49706 0
M  V30 6243 C 592.89 0.0401853 1.88057 0
M  V30 6244 O 592.248 -0.954785 1.54122 0
M  V30 6245 C 592.296 2.3433 2.74084 0
M  V30 6246 O 591.4 1.79515 3.71279 0
M  V30 6247 H 590.741 0.487454 0.450871 0
M  V30 6248 H 593.271 1.85422 0.86486 0
M  V30 6249 H 593.281 2.49947 3.22476 0
M  V30 6250 H 591.956 3.35708 2.45506 0
M  V30 6251 H 590.533 1.7331 3.30179 0
M  V30 6252 N 592.718 -0.936591 1.26751 0
M  V30 6253 C 593.943 -1.72288 1.15462 0
M  V30 6254 C 594.368 -1.85915 -0.285887 0
M  V30 6255 O 593.726 -1.35272 -1.20711 0
M  V30 6256 C 593.774 -3.10503 1.83359 0
M  V30 6257 O 592.878 -3.96745 1.1255 0
M  V30 6258 H 592.219 -0.52843 0.402067 0
M  V30 6259 H 594.749 -1.17271 1.67656 0
M  V30 6260 H 594.759 -3.60867 1.90365 0
M  V30 6261 H 593.434 -2.99901 2.88153 0
M  V30 6262 H 592.011 -3.55191 1.13551 0
M  V30 6263 N 594.196 -1.08629 -1.14182 0
M  V30 6264 C 595.612 -0.814363 -1.3726 0
M  V30 6265 C 595.812 0.575271 -1.93114 0
M  V30 6266 O 594.868 1.33165 -2.1453 0
M  V30 6267 C 596.181 -1.8989 -2.33157 0
M  V30 6268 C 597.729 -1.92518 -2.46791 0
M  V30 6269 C 598.204 -3.00092 -3.45989 0
M  V30 6270 N 599.695 -2.99279 -3.53534 0
M  V30 6271 C 600.43 -3.79158 -4.30147 0
M  V30 6272 N 599.926 -4.68923 -5.09983 0
M  V30 6273 N 601.719 -3.67451 -4.25366 0
M  V30 6274 H 593.87 -1.98232 -0.762758 0
M  V30 6275 H 596.133 -0.860383 -0.398051 0
M  V30 6276 H 595.839 -2.89809 -1.99257 0
M  V30 6277 H 595.713 -1.77013 -3.33086 0
M  V30 6278 H 598.1 -0.932425 -2.79982 0
M  V30 6279 H 598.181 -2.09473 -1.46816 0
M  V30 6280 H 597.825 -3.99575 -3.13532 0
M  V30 6281 H 597.755 -2.80382 -4.45751 0
M  V30 6282 H 600.246 -2.3422 -2.96563 0
M  V30 6283 H 600.559 -5.26475 -5.65724 0
M  V30 6284 H 598.904 -4.72964 -5.09244 0
M  V30 6285 H 602.095 -2.9669 -3.62067 0
M  V30 6286 H 602.268 -4.29944 -4.84822 0
M  V30 6287 N 595.674 1.31259 -0.872281 0
M  V30 6288 C 596.604 2.30929 -0.345554 0
M  V30 6289 C 597.585 1.60449 0.5648 0
M  V30 6290 O 598.77 1.8814 0.481335 0
M  V30 6291 C 595.9 3.44348 0.451823 0
M  V30 6292 C 594.854 4.26435 -0.365641 0
M  V30 6293 C 594.18 5.31785 0.557562 0
M  V30 6294 C 595.48 4.97159 -1.60095 0
M  V30 6295 H 597.174 2.75234 -1.17841 0
M  V30 6296 H 594.72 1.3232 -0.568094 0
M  V30 6297 H 596.673 4.13128 0.830854 0
M  V30 6298 H 595.397 2.98816 1.31821 0
M  V30 6299 H 594.056 3.59326 -0.726649 0
M  V30 6300 H 593.704 4.82502 1.4213 0
M  V30 6301 H 593.404 5.87598 0.0144878 0
M  V30 6302 H 594.928 6.03424 0.933387 0
M  V30 6303 H 596.342 5.58523 -1.29323 0
M  V30 6304 H 594.739 5.62779 -2.08327 0
M  V30 6305 H 595.809 4.24012 -2.35249 0
M  V30 6306 N 597.152 0.631951 1.44375 0
M  V30 6307 C 598.082 -0.0593243 2.33425 0
M  V30 6308 C 599.063 -0.833964 1.48253 0
M  V30 6309 O 600.248 -0.799682 1.76971 0
M  V30 6310 C 597.378 -1.04096 3.31333 0
M  V30 6311 C 596.332 -0.377899 4.26328 0
M  V30 6312 C 595.658 -1.4695 5.14111 0
M  V30 6313 C 596.958 0.716371 5.17364 0
M  V30 6314 H 598.652 0.684287 2.91475 0
M  V30 6315 H 596.198 0.330518 1.40156 0
M  V30 6316 H 598.151 -1.53331 3.92514 0
M  V30 6317 H 596.875 -1.81547 2.71493 0
M  V30 6318 H 595.534 0.0938054 3.6648 0
M  V30 6319 H 595.182 -2.2349 4.50623 0
M  V30 6320 H 594.882 -1.03121 5.78481 0
M  V30 6321 H 596.406 -1.96363 5.78164 0
M  V30 6322 H 597.82 0.307089 5.72477 0
M  V30 6323 H 596.217 1.07784 5.90341 0
M  V30 6324 H 597.287 1.58316 4.58327 0
M  V30 6325 N 598.631 -1.53133 0.372548 0
M  V30 6326 C 599.541 -2.29671 -0.478379 0
M  V30 6327 C 600.557 -1.35913 -1.08644 0
M  V30 6328 O 601.733 -1.68975 -1.09588 0
M  V30 6329 C 598.798 -3.07625 -1.599 0
M  V30 6330 C 597.859 -4.17061 -1.01776 0
M  V30 6331 C 597.092 -4.91289 -2.08497 0
M  V30 6332 O 597.315 -4.65442 -3.29727 0
M  V30 6333 O 596.249 -5.7705 -1.71164 0
M  V30 6334 H 600.075 -3.03355 0.144649 0
M  V30 6335 H 597.66 -1.48773 0.136729 0
M  V30 6336 H 599.542 -3.56281 -2.25038 0
M  V30 6337 H 598.217 -2.3677 -2.2073 0
M  V30 6338 H 597.124 -3.72641 -0.330098 0
M  V30 6339 H 598.457 -4.90102 -0.453915 0
M  V30 6340 N 600.109 -0.101901 -1.5727 0
M  V30 6341 C 601.337 0.568392 -1.98939 0
M  V30 6342 C 601.752 1.61301 -0.981194 0
M  V30 6343 O 601.109 1.82478 0.0282869 0
M  V30 6344 C 601.16 1.20997 -3.40649 0
M  V30 6345 O 600.881 0.207129 -4.3761 0
M  V30 6346 C 602.382 1.96523 -3.97358 0
M  V30 6347 H 599.602 0.15186 -0.65359 0
M  V30 6348 H 602.146 -0.183198 -2.03678 0
M  V30 6349 H 600.301 1.91245 -3.36904 0
M  V30 6350 H 600.715 0.671071 -5.20189 0
M  V30 6351 H 602.189 2.36764 -4.98645 0
M  V30 6352 H 602.666 2.83376 -3.35552 0
M  V30 6353 H 603.272 1.31076 -4.04598 0
M  V30 6354 N 601.587 1.56661 0.17182 0
M  V30 6355 C 602.517 1.99401 1.21498 0
M  V30 6356 C 603.498 0.869516 1.46197 0
M  V30 6357 O 604.683 1.13556 1.57539 0
M  V30 6358 C 601.813 2.35346 2.55401 0
M  V30 6359 C 600.767 3.5075 2.45272 0
M  V30 6360 C 600.093 3.72437 3.8366 0
M  V30 6361 C 601.393 4.84216 1.95787 0
M  V30 6362 H 603.087 2.86792 0.859699 0
M  V30 6363 H 600.633 1.37977 0.412103 0
M  V30 6364 H 602.586 2.63843 3.2858 0
M  V30 6365 H 601.31 1.44864 2.92715 0
M  V30 6366 H 599.969 3.2238 1.74547 0
M  V30 6367 H 599.617 2.79246 4.18367 0
M  V30 6368 H 599.317 4.50087 3.77751 0
M  V30 6369 H 600.841 4.03334 4.58426 0
M  V30 6370 H 602.255 5.11592 2.5874 0
M  V30 6371 H 600.652 5.65498 2.00827 0
M  V30 6372 H 601.722 4.76243 0.912159 0
M  V30 6373 N 603.065 -0.440357 1.51323 0
M  V30 6374 C 603.975 -1.55955 1.75258 0
M  V30 6375 C 604.991 -1.61933 0.636687 0
M  V30 6376 O 606.167 -1.79231 0.918593 0
M  V30 6377 C 603.232 -2.9196 1.86977 0
M  V30 6378 C 602.293 -2.96122 3.10822 0
M  V30 6379 C 601.526 -4.2564 3.21973 0
M  V30 6380 O 601.749 -5.17851 2.39137 0
M  V30 6381 O 600.683 -4.36025 4.14929 0
M  V30 6382 H 604.509 -1.38673 2.70191 0
M  V30 6383 H 602.094 -0.623055 1.35788 0
M  V30 6384 H 603.976 -3.72682 1.96688 0
M  V30 6385 H 602.651 -3.09375 0.952307 0
M  V30 6386 H 601.558 -2.14366 3.06591 0
M  V30 6387 H 602.891 -2.83651 4.02247 0
M  V30 6388 N 604.543 -1.41418 -0.695603 0
M  V30 6389 C 605.491 -1.43467 -1.83084 0
M  V30 6390 C 606.485 -0.312719 -1.66489 0
M  V30 6391 O 607.691 -0.484744 -1.7335 0
M  V30 6392 H 604.066 -0.448891 -0.603325 0
M  V30 6393 H 606.037 -2.39144 -1.78473 0
M  V30 6394 C 604.786 -1.3337 -3.21104 0
M  V30 6395 H 604.109 -2.18989 -3.3449 0
M  V30 6396 H 605.549 -1.38865 -4.00615 0
M  V30 6397 C 604.008 -0.0460484 -3.36869 0
M  V30 6398 O 604.538 0.909258 -3.91274 0
M  V30 6399 N 602.744 0.0300222 -2.90584 0
M  V30 6400 H 602.291 -0.748129 -2.46497 0
M  V30 6401 H 602.249 0.890991 -3.01511 0
M  V30 6402 N 606.021 0.929856 -1.27246 0
M  V30 6403 C 607.27 1.67182 -1.12842 0
M  V30 6404 C 607.583 1.9287 0.325666 0
M  V30 6405 O 608.789 2.64999 0.590572 0
M  V30 6406 C 607.245 3.01097 -1.97151 0
M  V30 6407 C 606.853 2.83115 -3.47203 0
M  V30 6408 C 608.597 3.78907 -1.91389 0
M  V30 6409 C 606.504 4.12573 -4.23719 0
M  V30 6410 H 605.434 0.627064 -0.418697 0
M  V30 6411 H 608.085 1.0332 -1.51649 0
M  V30 6412 H 606.467 3.66004 -1.51186 0
M  V30 6413 H 607.641 2.26989 -4.01015 0
M  V30 6414 H 605.956 2.18736 -3.54321 0
M  V30 6415 H 608.553 4.74837 -2.45834 0
M  V30 6416 H 608.896 4.0674 -0.887047 0
M  V30 6417 H 609.429 3.20794 -2.35237 0
M  V30 6418 H 606.168 3.8992 -5.26918 0
M  V30 6419 H 605.688 4.68371 -3.74685 0
M  V30 6420 H 607.367 4.8095 -4.32777 0
M  V30 6421 N 607.499 1.09233 1.13605 0
M  V30 6422 C 608.724 0.849067 1.89224 0
M  V30 6423 C 609.149 -0.593875 1.78479 0
M  V30 6424 O 608.507 -1.41703 1.13092 0
M  V30 6425 C 608.555 1.28642 3.36873 0
M  V30 6426 O 607.659 0.44363 4.10007 0
M  V30 6427 H 607 0.30767 0.588417 0
M  V30 6428 H 609.53 1.45595 1.43748 0
M  V30 6429 H 609.54 1.27096 3.87699 0
M  V30 6430 H 608.215 2.33729 3.44011 0
M  V30 6431 H 606.792 0.523241 3.69211 0
M  V30 6432 N 608.977 -1.30795 0.87923 0
M  V30 6433 C 610.205 -2.00527 0.509548 0
M  V30 6434 C 610.62 -1.65944 -0.90045 0
M  V30 6435 O 609.977 -0.893525 -1.5913 0
M  V30 6436 C 610.028 -3.55276 0.667943 0
M  V30 6437 O 609.749 -3.88625 2.02242 0
M  V30 6438 C 611.25 -4.4228 0.300494 0
M  V30 6439 H 608.47 -0.641261 0.197549 0
M  V30 6440 H 611.014 -1.66813 1.18295 0
M  V30 6441 H 609.169 -3.87377 0.0419843 0
M  V30 6442 H 609.583 -4.83334 2.03688 0
M  V30 6443 H 611.057 -5.50061 0.462242 0
M  V30 6444 H 611.534 -4.32556 -0.76106 0
M  V30 6445 H 612.14 -4.15613 0.902536 0
M  V30 6446 N 610.455 -0.639598 -1.44038 0
M  V30 6447 C 611.385 0.0469443 -2.33453 0
M  V30 6448 C 612.366 0.82609 -1.48694 0
M  V30 6449 O 613.551 0.790285 -1.77393 0
M  V30 6450 C 610.681 1.02338 -3.3188 0
M  V30 6451 C 609.635 0.355284 -4.26523 0
M  V30 6452 C 608.961 1.44221 -5.14883 0
M  V30 6453 C 610.261 -0.743798 -5.16977 0
M  V30 6454 H 611.955 -0.699735 -2.91108 0
M  V30 6455 H 609.501 -0.337946 -1.39978 0
M  V30 6456 H 611.454 1.51247 -3.93322 0
M  V30 6457 H 610.178 1.80105 -2.72451 0
M  V30 6458 H 608.837 -0.113239 -3.66425 0
M  V30 6459 H 608.485 2.21097 -4.51802 0
M  V30 6460 H 608.185 1.00052 -5.79019 0
M  V30 6461 H 609.709 1.93295 -5.79197 0
M  V30 6462 H 611.123 -0.337444 -5.72306 0
M  V30 6463 H 609.52 -1.10914 -5.89761 0
M  V30 6464 H 610.59 -1.60745 -4.57481 0
M  V30 6465 N 611.933 1.52934 -0.380664 0
M  V30 6466 C 613.179 2.01765 0.20458 0
M  V30 6467 C 613.512 1.26696 1.47179 0
M  V30 6468 O 612.787 0.364936 1.91046 0
M  V30 6469 C 613.07 3.56869 0.481269 0
M  V30 6470 C 612.923 4.42617 -0.800629 0
M  V30 6471 C 614.242 4.2121 1.27554 0
M  V30 6472 H 611.361 0.733388 0.0728803 0
M  V30 6473 H 614.003 1.83068 -0.50853 0
M  V30 6474 H 612.153 3.72932 1.08875 0
M  V30 6475 H 613.825 4.38323 -1.43773 0
M  V30 6476 H 612.068 4.09977 -1.4178 0
M  V30 6477 H 612.739 5.49134 -0.561791 0
M  V30 6478 H 615.215 4.09072 0.761514 0
M  V30 6479 H 614.091 5.29732 1.43788 0
M  V30 6480 H 614.352 3.78269 2.28833 0
M  V30 6481 N 613.412 0.11024 1.57214 0
M  V30 6482 C 614.823 -0.416527 1.81994 0
M  V30 6483 C 615.174 -1.67183 1.02686 0
M  V30 6484 O 614.299 -2.14823 0.260782 0
M  V30 6485 C 614.894 -0.762466 3.30109 0
M  V30 6486 C 613.453 -1.23391 3.556 0
M  V30 6487 C 612.6 -0.238166 2.76275 0
M  V30 6488 H 615.551 0.335491 1.55113 0
M  V30 6489 H 615.572 -1.62068 3.44259 0
M  V30 6490 H 615.084 0.151346 3.87805 0
M  V30 6491 H 613.185 -2.16492 3.03253 0
M  V30 6492 H 613.298 -1.18528 4.64207 0
M  V30 6493 H 611.662 -0.723421 2.4421 0
M  V30 6494 H 612.445 0.668591 3.36727 0
M  V30 6495 N 614.89 -1.56749 -0.16351 0
M  V30 6496 C 616.301 -1.72039 -0.725216 0
M  V30 6497 C 616.652 -0.72202 -1.82432 0
M  V30 6498 O 615.777 0.114942 -2.16095 0
M  V30 6499 C 616.372 -3.11932 -1.32227 0
M  V30 6500 C 614.931 -3.28879 -1.83072 0
M  V30 6501 C 614.078 -2.67984 -0.712716 0
M  V30 6502 H 617.029 -1.58579 0.0619772 0
M  V30 6503 H 617.05 -3.11015 -2.19202 0
M  V30 6504 H 616.562 -3.84572 -0.522103 0
M  V30 6505 H 614.663 -2.61209 -2.65708 0
M  V30 6506 H 614.776 -4.36688 -1.97079 0
M  V30 6507 H 613.14 -2.28005 -1.13515 0
M  V30 6508 H 613.923 -3.43216 0.0757361 0
M  V30 6509 N 616.368 0.432326 -1.51554 0
M  V30 6510 C 617.596 1.20364 -1.68286 0
M  V30 6511 C 618.011 1.84888 -0.38233 0
M  V30 6512 O 617.368 1.70924 0.639627 0
M  V30 6513 C 617.419 2.28398 -2.80208 0
M  V30 6514 O 617.14 1.66512 -4.05223 0
M  V30 6515 C 618.641 3.18584 -3.08251 0
M  V30 6516 H 615.861 0.36259 -0.564596 0
M  V30 6517 H 618.405 0.511647 -1.97996 0
M  V30 6518 H 616.56 2.93305 -2.53083 0
M  V30 6519 H 616.974 2.37951 -4.67418 0
M  V30 6520 H 618.448 3.90511 -3.90135 0
M  V30 6521 H 618.925 3.79628 -2.2086 0
M  V30 6522 H 619.531 2.59372 -3.37055 0
M  V30 6523 N 617.846 1.41785 0.688094 0
M  V30 6524 C 618.809 1.43936 1.78368 0
M  V30 6525 C 619.809 0.328866 1.57401 0
M  V30 6526 O 620.999 0.589093 1.63937 0
M  V30 6527 C 618.131 1.25804 3.16838 0
M  V30 6528 H 619.324 2.41472 1.77852 0
M  V30 6529 H 616.877 1.28037 0.896448 0
M  V30 6530 H 617.612 0.291386 3.22988 0
M  V30 6531 H 617.397 2.06272 3.33458 0
M  V30 6532 H 618.887 1.30162 3.96797 0
M  V30 6533 N 619.324 -0.923095 1.27737 0
M  V30 6534 C 620.254 -2.04124 1.13383 0
M  V30 6535 C 621.235 -1.70066 0.0340658 0
M  V30 6536 O 622.42 -1.93068 0.209383 0
M  V30 6537 C 619.55 -3.3831 0.785097 0
M  V30 6538 C 618.504 -3.86496 1.8386 0
M  V30 6539 C 617.83 -5.1754 1.34373 0
M  V30 6540 C 619.13 -4.09381 3.24353 0
M  V30 6541 H 620.824 -2.1639 2.06919 0
M  V30 6542 H 618.37 -1.03976 0.996243 0
M  V30 6543 H 620.323 -4.16016 0.671485 0
M  V30 6544 H 619.047 -3.2607 -0.185969 0
M  V30 6545 H 617.706 -3.10987 1.9412 0
M  V30 6546 H 617.354 -5.01696 0.361989 0
M  V30 6547 H 617.054 -5.50751 2.04811 0
M  V30 6548 H 618.578 -5.97811 1.24315 0
M  V30 6549 H 619.992 -4.77641 3.17067 0
M  V30 6550 H 618.389 -4.53906 3.92542 0
M  V30 6551 H 619.459 -3.14515 3.69064 0
M  V30 6552 N 620.802 -1.09834 -1.13024 0
M  V30 6553 C 622.213 -0.855651 -1.65938 0
M  V30 6554 C 622.564 0.615159 -1.86307 0
M  V30 6555 O 621.689 1.47335 -1.58497 0
M  V30 6556 C 622.284 -1.5467 -3.01434 0
M  V30 6557 C 620.843 -1.35088 -3.51323 0
M  V30 6558 C 619.99 -1.6001 -2.26478 0
M  V30 6559 H 622.941 -1.25691 -0.968889 0
M  V30 6560 H 622.962 -0.982179 -3.67605 0
M  V30 6561 H 622.474 -2.61715 -2.86578 0
M  V30 6562 H 620.575 -0.30179 -3.71376 0
M  V30 6563 H 620.688 -2.0886 -4.31178 0
M  V30 6564 H 619.052 -1.02246 -2.33276 0
M  V30 6565 H 619.835 -2.68293 -2.14182 0
M  V30 6566 N 622.28 1.30327 -0.886154 0
M  V30 6567 C 623.21 2.30549 -0.370028 0
M  V30 6568 C 624.191 1.61039 0.547751 0
M  V30 6569 O 625.376 1.8864 0.461353 0
M  V30 6570 C 622.506 3.44808 0.415275 0
M  V30 6571 C 621.46 4.26024 -0.41085 0
M  V30 6572 C 620.786 5.32347 0.501128 0
M  V30 6573 C 622.086 4.95433 -1.65359 0
M  V30 6574 H 623.78 2.73969 -1.20754 0
M  V30 6575 H 621.326 1.3171 -0.582097 0
M  V30 6576 H 623.279 4.13986 0.78699 0
M  V30 6577 H 622.003 3.00197 1.28644 0
M  V30 6578 H 620.662 3.58535 -0.764719 0
M  V30 6579 H 620.31 4.83982 1.37004 0
M  V30 6580 H 620.01 5.87581 -0.0478356 0
M  V30 6581 H 621.534 6.0438 0.869333 0
M  V30 6582 H 622.948 5.5712 -1.35239 0
M  V30 6583 H 621.345 5.60537 -2.14284 0
M  V30 6584 H 622.415 4.21493 -2.39733 0
M  V30 6585 N 623.758 0.647228 1.43697 0
M  V30 6586 C 624.706 -0.0600105 2.32523 0
M  V30 6587 C 625.7 -0.819277 1.48271 0
M  V30 6588 O 626.906 -0.730356 1.64517 0
M  V30 6589 H 623.281 -0.0381872 0.75103 0
M  V30 6590 H 625.252 0.706978 2.89904 0
M  V30 6591 C 624.001 -1.0169 3.32497 0
M  V30 6592 H 623.324 -0.442083 3.97348 0
M  V30 6593 H 624.764 -1.48095 3.97296 0
M  V30 6594 C 623.223 -2.11002 2.6264 0
M  V30 6595 O 623.753 -3.19302 2.4374 0
M  V30 6596 N 621.959 -1.87388 2.22113 0
M  V30 6597 H 621.506 -0.993174 2.37684 0
M  V30 6598 H 621.464 -2.60723 1.75701 0
M  V30 6599 N 625.236 -1.5273 0.388769 0
M  V30 6600 C 626.483 -2.01573 -0.19359 0
M  V30 6601 C 626.811 -1.27525 -1.46859 0
M  V30 6602 O 626.066 -0.363926 -1.92286 0
M  V30 6603 C 626.365 -3.53765 -0.508445 0
M  V30 6604 C 626.031 -4.4582 0.674947 0
M  V30 6605 C 624.693 -4.70703 0.999596 0
M  V30 6606 C 627.045 -5.00138 1.46666 0
M  V30 6607 C 624.373 -5.47155 2.11751 0
M  V30 6608 C 626.725 -5.77812 2.57518 0
M  V30 6609 C 625.389 -6.00975 2.90492 0
M  V30 6610 H 624.659 -0.737606 -0.0708397 0
M  V30 6611 H 627.306 -1.84134 0.526006 0
M  V30 6612 H 625.611 -3.69274 -1.30936 0
M  V30 6613 H 627.308 -3.8905 -0.971664 0
M  V30 6614 H 623.898 -4.26616 0.411906 0
M  V30 6615 H 628.082 -4.8084 1.22909 0
M  V30 6616 H 623.338 -5.63314 2.3767 0
M  V30 6617 H 627.512 -6.18904 3.19267 0
M  V30 6618 H 625.139 -6.59998 3.77236 0
M  V30 6619 N 626.714 -0.118576 -1.57153 0
M  V30 6620 C 627.939 0.550582 -1.99958 0
M  V30 6621 C 628.364 1.59458 -0.997736 0
M  V30 6622 O 627.722 1.81274 0.0306269 0
M  V30 6623 C 627.77 1.15379 -3.41643 0
M  V30 6624 O 626.874 2.26932 -3.44348 0
M  V30 6625 H 626.215 0.137567 -0.649593 0
M  V30 6626 H 628.745 -0.206926 -2.03551 0
M  V30 6627 H 628.755 1.48942 -3.79843 0
M  V30 6628 H 627.43 0.389087 -4.14076 0
M  V30 6629 H 626.007 1.94812 -3.17967 0
M  V30 6630 N 628.193 1.56834 0.155195 0
M  V30 6631 C 629.609 1.51315 0.50755 0
M  V30 6632 C 629.809 0.825614 1.83809 0
M  V30 6633 O 628.865 0.39271 2.49427 0
M  V30 6634 C 630.178 2.96074 0.52542 0
M  V30 6635 C 631.726 3.06968 0.611505 0
M  V30 6636 C 632.201 4.53218 0.660115 0
M  V30 6637 N 633.692 4.5753 0.722564 0
M  V30 6638 C 634.427 5.68056 0.781023 0
M  V30 6639 N 633.923 6.88173 0.799327 0
M  V30 6640 N 635.716 5.56068 0.821278 0
M  V30 6641 H 627.867 1.9993 -0.717063 0
M  V30 6642 H 630.13 0.911507 -0.260496 0
M  V30 6643 H 629.836 3.49599 -0.383875 0
M  V30 6644 H 629.71 3.51587 1.36624 0
M  V30 6645 H 632.097 2.53468 1.51122 0
M  V30 6646 H 632.178 2.54513 -0.256306 0
M  V30 6647 H 631.822 5.07354 -0.23541 0
M  V30 6648 H 631.752 5.03447 1.5443 0
M  V30 6649 H 634.243 3.71054 0.716049 0
M  V30 6650 H 634.556 7.6816 0.845553 0
M  V30 6651 H 632.901 6.90751 0.767337 0
M  V30 6652 H 636.092 4.61142 0.804091 0
M  V30 6653 H 636.265 6.42223 0.863372 0
M  V30 6654 N 629.671 -0.424282 1.51781 0
M  V30 6655 C 630.618 -1.51591 1.74037 0
M  V30 6656 C 631.588 -1.55556 0.582358 0
M  V30 6657 O 632.773 -1.72364 0.818245 0
M  V30 6658 C 629.913 -2.89188 1.8832 0
M  V30 6659 C 629.026 -2.9465 3.1592 0
M  V30 6660 C 628.161 -4.23452 3.20721 0
M  V30 6661 C 627.2 -4.22831 4.42584 0
M  V30 6662 N 626.337 -5.43178 4.44862 0
M  V30 6663 H 631.177 -1.31917 2.67212 0
M  V30 6664 H 628.714 -0.640599 1.32419 0
M  V30 6665 H 630.672 -3.69044 1.94583 0
M  V30 6666 H 629.302 -3.07392 0.985402 0
M  V30 6667 H 628.354 -2.07378 3.18902 0
M  V30 6668 H 629.666 -2.90055 4.05795 0
M  V30 6669 H 628.82 -5.1169 3.25973 0
M  V30 6670 H 627.559 -4.30722 2.28757 0
M  V30 6671 H 626.564 -3.32984 4.37495 0
M  V30 6672 H 627.789 -4.17213 5.35826 0
M  V30 6673 H 625.735 -5.51145 3.55775 0
M  V30 6674 H 625.652 -5.40515 5.28563 0
M  V30 6675 H 626.92 -6.33412 4.54324 0
M  V30 6676 N 631.149 -1.42148 -0.680565 0
M  V30 6677 C 632.396 -1.4231 -1.44063 0
M  V30 6678 C 632.724 -0.037488 -1.94464 0
M  V30 6679 O 631.979 0.953184 -1.70918 0
M  V30 6680 C 632.278 -2.38945 -2.65782 0
M  V30 6681 C 631.944 -3.85455 -2.33956 0
M  V30 6682 C 630.606 -4.25364 -2.24987 0
M  V30 6683 C 632.958 -4.77895 -2.08004 0
M  V30 6684 C 630.286 -5.55701 -1.88184 0
M  V30 6685 C 632.638 -6.08568 -1.72706 0
M  V30 6686 C 631.302 -6.47482 -1.62244 0
M  V30 6687 H 630.572 -0.520748 -0.527164 0
M  V30 6688 H 633.219 -1.7505 -0.776524 0
M  V30 6689 H 631.524 -1.99511 -3.37198 0
M  V30 6690 H 633.221 -2.36336 -3.23954 0
M  V30 6691 H 629.811 -3.53855 -2.41836 0
M  V30 6692 H 633.995 -4.47854 -2.1387 0
M  V30 6693 H 629.251 -5.84718 -1.78648 0
M  V30 6694 H 633.425 -6.79688 -1.5165 0
M  V30 6695 H 631.052 -7.48387 -1.33496 0
M  V30 6696 N 632.627 0.916307 -1.28225 0
M  V30 6697 C 633.876 1.65975 -1.14608 0
M  V30 6698 C 634.189 1.93204 0.305191 0
M  V30 6699 O 635.395 2.65611 0.562432 0
M  V30 6700 C 633.851 2.98989 -2.00333 0
M  V30 6701 C 633.459 2.79417 -3.50186 0
M  V30 6702 C 635.203 3.76856 -1.95397 0
M  V30 6703 C 633.11 4.08056 -4.28071 0
M  V30 6704 H 632.04 0.622587 -0.425324 0
M  V30 6705 H 634.691 1.01705 -1.52736 0
M  V30 6706 H 633.073 3.6438 -1.5506 0
M  V30 6707 H 634.247 2.22723 -4.034 0
M  V30 6708 H 632.562 2.14966 -3.56621 0
M  V30 6709 H 635.159 4.72203 -2.50856 0
M  V30 6710 H 635.502 4.05776 -0.930137 0
M  V30 6711 H 636.035 3.1828 -2.38626 0
M  V30 6712 H 632.774 3.8431 -5.31024 0
M  V30 6713 H 632.294 4.64371 -3.79631 0
M  V30 6714 H 633.973 4.76333 -4.37854 0
M  V30 6715 N 634.105 1.10431 1.1244 0
M  V30 6716 C 635.382 0.758797 1.80282 0
M  V30 6717 C 635.762 -0.754727 1.97147 0
M  V30 6718 O 635.11 -1.68094 1.54779 0
M  V30 6719 C 635.32 1.50982 3.14651 0
M  V30 6720 C 636.668 1.68232 3.8985 0
M  V30 6721 O 637.692 1.47319 3.24308 0
M  V30 6722 O 636.551 2.02905 5.07437 0
M  V30 6723 H 633.645 0.273756 0.780376 0
M  V30 6724 H 636.191 1.20713 1.19275 0
M  V30 6725 H 634.963 2.53989 2.97666 0
M  V30 6726 H 634.586 1.05435 3.83366 0
M  V30 6727 N 635.583 -1.29855 0.893053 0
M  V30 6728 C 636.829 -1.96488 0.52574 0
M  V30 6729 C 637.184 -1.69164 -0.916594 0
M  V30 6730 O 636.477 -0.990405 -1.64017 0
M  V30 6731 C 636.671 -3.49515 0.746588 0
M  V30 6732 C 636.5 -3.91715 2.20884 0
M  V30 6733 C 635.27 -4.16915 2.85499 0
M  V30 6734 C 637.468 -4.03934 3.18342 0
M  V30 6735 N 635.45 -4.45634 4.22236 0
M  V30 6736 C 636.821 -4.36629 4.40176 0
M  V30 6737 C 638.876 -3.86387 3.14021 0
M  V30 6738 C 637.579 -4.53605 5.58243 0
M  V30 6739 C 639.605 -4.04569 4.31367 0
M  V30 6740 C 638.967 -4.37617 5.5197 0
M  V30 6741 H 635.066 -0.743657 0.241863 0
M  V30 6742 H 637.65 -1.56927 1.15248 0
M  V30 6743 H 635.821 -3.88113 0.149281 0
M  V30 6744 H 637.553 -4.03224 0.345372 0
M  V30 6745 H 634.308 -4.10423 2.36326 0
M  V30 6746 H 634.732 -4.64114 4.92876 0
M  V30 6747 H 639.374 -3.59906 2.21873 0
M  V30 6748 H 637.092 -4.78925 6.50889 0
M  V30 6749 H 640.678 -3.92452 4.29503 0
M  V30 6750 H 639.558 -4.51395 6.41258 0
M  V30 6751 N 637.061 -0.65484 -1.43351 0
M  V30 6752 C 638.008 0.0357713 -2.30772 0
M  V30 6753 C 638.978 0.813035 -1.44841 0
M  V30 6754 O 640.163 0.789314 -1.73708 0
M  V30 6755 C 637.303 0.995084 -3.30442 0
M  V30 6756 C 636.416 0.21375 -4.31471 0
M  V30 6757 C 635.551 1.16701 -5.18222 0
M  V30 6758 C 634.59 0.376201 -6.10943 0
M  V30 6759 N 633.727 1.28113 -6.90313 0
M  V30 6760 H 638.567 -0.71559 -2.89281 0
M  V30 6761 H 636.104 -0.364645 -1.42509 0
M  V30 6762 H 638.062 1.5649 -3.86739 0
M  V30 6763 H 636.692 1.7133 -2.7358 0
M  V30 6764 H 635.744 -0.472377 -3.77456 0
M  V30 6765 H 637.056 -0.401103 -4.97185 0
M  V30 6766 H 636.21 1.8074 -5.79153 0
M  V30 6767 H 634.949 1.81577 -4.52638 0
M  V30 6768 H 633.954 -0.277534 -5.49099 0
M  V30 6769 H 635.179 -0.268178 -6.7857 0
M  V30 6770 H 633.125 1.91666 -6.27376 0
M  V30 6771 H 633.042 0.720879 -7.52555 0
M  V30 6772 H 634.31 1.90962 -7.55747 0
M  V30 6773 N 638.539 1.52521 -0.396863 0
M  V30 6774 C 639.787 2.01274 0.182536 0
M  V30 6775 C 640.108 1.28485 1.46685 0
M  V30 6776 O 639.378 0.407134 1.91623 0
M  V30 6777 H 637.958 0.743671 0.0704442 0
M  V30 6778 H 640.62 1.87547 -0.530289 0
M  V30 6779 H 639.716 3.09687 0.387385 0
M  V30 6780 N 640.017 0.126909 1.57088 0
M  V30 6781 C 641.266 -0.529024 1.94639 0
M  V30 6782 C 641.579 -1.67323 1.01304 0
M  V30 6783 O 642.785 -2.39245 1.28352 0
M  V30 6784 C 641.241 -0.992483 3.45945 0
M  V30 6785 C 640.849 0.123691 4.47829 0
M  V30 6786 C 642.593 -1.61934 3.924 0
M  V30 6787 C 640.5 -0.356911 5.90322 0
M  V30 6788 H 639.43 -0.201397 0.726605 0
M  V30 6789 H 642.081 0.208032 1.82317 0
M  V30 6790 H 640.463 -1.7842 3.53528 0
M  V30 6791 H 641.637 0.900168 4.51922 0
M  V30 6792 H 639.952 0.657699 4.11173 0
M  V30 6793 H 642.549 -1.9902 4.96281 0
M  V30 6794 H 642.892 -2.50075 3.32819 0
M  V30 6795 H 643.425 -0.892894 3.8765 0
M  V30 6796 H 640.164 0.488636 6.53676 0
M  V30 6797 H 639.684 -1.0997 5.89633 0
M  V30 6798 H 641.363 -0.815547 6.41839 0
M  V30 6799 N 641.495 -1.56914 -0.146875 0
M  V30 6800 C 642.906 -1.72799 -0.706928 0
M  V30 6801 C 643.257 -0.741329 -1.81656 0
M  V30 6802 O 642.382 0.0920162 -2.16204 0
M  V30 6803 C 642.977 -3.13317 -1.28911 0
M  V30 6804 C 641.536 -3.30803 -1.79573 0
M  V30 6805 C 640.683 -2.68725 -0.684252 0
M  V30 6806 H 643.634 -1.58504 0.0787931 0
M  V30 6807 H 643.655 -3.13323 -2.15891 0
M  V30 6808 H 643.167 -3.85104 -0.481284 0
M  V30 6809 H 641.268 -2.64012 -2.62923 0
M  V30 6810 H 641.381 -4.38754 -1.92436 0
M  V30 6811 H 639.745 -2.29196 -1.11091 0
M  V30 6812 H 640.528 -3.43117 0.112134 0
M  V30 6813 N 642.974 0.416227 -1.52004 0
M  V30 6814 C 644.22 1.16555 -1.6596 0
M  V30 6815 C 644.553 1.90347 -0.384906 0
M  V30 6816 O 643.828 1.84474 0.616405 0
M  V30 6817 C 644.111 2.1657 -2.87696 0
M  V30 6818 C 643.964 1.46722 -4.25197 0
M  V30 6819 C 645.283 3.17321 -3.04951 0
M  V30 6820 H 642.402 0.422369 -0.603965 0
M  V30 6821 H 645.044 0.452141 -1.84542 0
M  V30 6822 H 643.194 2.77411 -2.71985 0
M  V30 6823 H 644.866 0.89056 -4.52622 0
M  V30 6824 H 643.109 0.769263 -4.26925 0
M  V30 6825 H 643.78 2.19665 -5.0641 0
M  V30 6826 H 646.256 2.66552 -3.19514 0
M  V30 6827 H 645.132 3.84573 -3.91656 0
M  V30 6828 H 645.393 3.84643 -2.17951 0
M  V30 6829 N 644.452 1.42507 0.673017 0
M  V30 6830 C 645.4 1.46362 1.80779 0
M  V30 6831 C 646.394 0.339166 1.6597 0
M  V30 6832 O 647.6 0.512262 1.72557 0
M  V30 6833 H 643.975 0.458433 0.596107 0
M  V30 6834 H 645.946 2.41953 1.74646 0
M  V30 6835 C 644.695 1.38462 3.18941 0
M  V30 6836 H 644.018 2.24283 3.30964 0
M  V30 6837 H 645.458 1.45221 3.98355 0
M  V30 6838 C 643.917 0.0996354 3.36753 0
M  V30 6839 O 644.447 -0.846894 3.92671 0
M  V30 6840 N 642.653 0.016211 2.90595 0
M  V30 6841 H 642.2 0.78725 2.45276 0
M  V30 6842 H 642.158 -0.84291 3.0289 0
M  V30 6843 N 645.93 -0.909495 1.28709 0
M  V30 6844 C 646.877 -2.01245 1.13 0
M  V30 6845 C 647.847 -1.6608 0.0259684 0
M  V30 6846 O 649.032 -1.89835 0.191687 0
M  V30 6847 C 646.172 -3.35644 0.802315 0
M  V30 6848 C 645.285 -3.83653 1.98582 0
M  V30 6849 C 644.42 -5.06582 1.59837 0
M  V30 6850 C 643.459 -5.46934 2.74827 0
M  V30 6851 N 642.596 -6.61053 2.36546 0
M  V30 6852 H 647.436 -2.14013 2.0737 0
M  V30 6853 H 644.973 -1.0482 1.03205 0
M  V30 6854 H 646.931 -4.12963 0.593057 0
M  V30 6855 H 645.561 -3.22631 -0.104457 0
M  V30 6856 H 644.613 -3.02454 2.30708 0
M  V30 6857 H 645.925 -4.09515 2.84779 0
M  V30 6858 H 645.079 -5.91457 1.35143 0
M  V30 6859 H 643.818 -4.82537 0.707753 0
M  V30 6860 H 642.823 -4.60599 3.00215 0
M  V30 6861 H 644.048 -5.72965 3.64538 0
M  V30 6862 H 641.994 -6.3863 1.49959 0
M  V30 6863 H 641.911 -6.86662 3.16277 0
M  V30 6864 H 643.179 -7.49221 2.15146 0
M  V30 6865 N 647.408 -1.11026 -1.11852 0
M  V30 6866 C 648.633 -0.879064 -1.87849 0
M  V30 6867 C 649.058 0.565406 -1.79401 0
M  V30 6868 O 648.416 1.39886 -1.15333 0
M  V30 6869 C 648.464 -1.33985 -3.34784 0
M  V30 6870 O 647.568 -0.508803 -4.09249 0
M  V30 6871 H 646.909 -0.316992 -0.583448 0
M  V30 6872 H 649.439 -1.47863 -1.41413 0
M  V30 6873 H 649.449 -1.33248 -3.85628 0
M  V30 6874 H 648.124 -2.39172 -3.40249 0
M  V30 6875 H 646.701 -0.581913 -3.68332 0
M  V30 6876 N 648.886 1.2938 -0.899927 0
M  V30 6877 C 649.818 2.26737 -0.335139 0
M  V30 6878 C 650.831 1.54316 0.518681 0
M  V30 6879 O 652.02 1.75313 0.335803 0
M  V30 6880 C 649.12 3.34558 0.540774 0
M  V30 6881 C 648.293 4.36455 -0.287372 0
M  V30 6882 C 647.352 5.2361 0.52141 0
M  V30 6883 O 646.378 5.69167 -0.0611735 0
M  V30 6884 N 647.58 5.50985 1.82745 0
M  V30 6885 H 650.345 2.75838 -1.17191 0
M  V30 6886 H 647.906 1.42716 -0.764438 0
M  V30 6887 H 649.898 3.89794 1.08825 0
M  V30 6888 H 648.468 2.85272 1.27823 0
M  V30 6889 H 647.688 3.80875 -1.01626 0
M  V30 6890 H 648.976 5.01573 -0.854518 0
M  V30 6891 H 648.374 5.15781 2.32349 0
M  V30 6892 H 646.931 6.09036 2.32204 0
M  V30 6893 N 650.364 0.662433 1.43002 0
M  V30 6894 C 651.294 -0.00979809 2.33498 0
M  V30 6895 C 652.275 -0.802329 1.49989 0
M  V30 6896 O 653.46 -0.761964 1.78627 0
M  V30 6897 C 650.59 -0.970446 3.33466 0
M  V30 6898 C 649.544 -0.287383 4.27034 0
M  V30 6899 C 648.87 -1.36012 5.17112 0
M  V30 6900 C 650.17 0.82595 5.15728 0
M  V30 6901 H 651.864 0.745959 2.89958 0
M  V30 6902 H 649.41 0.360172 1.39423 0
M  V30 6903 H 651.363 -1.44971 3.95679 0
M  V30 6904 H 650.087 -1.75748 2.75282 0
M  V30 6905 H 648.746 0.17152 3.66199 0
M  V30 6906 H 648.394 -2.13882 4.55262 0
M  V30 6907 H 648.094 -0.908276 5.80538 0
M  V30 6908 H 649.618 -1.84056 5.82199 0
M  V30 6909 H 651.032 0.42845 5.71697 0
M  V30 6910 H 649.429 1.20282 5.87922 0
M  V30 6911 H 650.499 1.68003 4.54866 0
M  V30 6912 N 651.842 -1.52309 0.404946 0
M  V30 6913 C 652.789 -2.26898 -0.422597 0
M  V30 6914 C 653.759 -1.2914 -1.04461 0
M  V30 6915 O 654.944 -1.57996 -1.06967 0
M  V30 6916 C 652.084 -3.09053 -1.53559 0
M  V30 6917 C 651.197 -4.21762 -0.934908 0
M  V30 6918 C 650.332 -4.91283 -2.02025 0
M  V30 6919 C 649.371 -5.95962 -1.39628 0
M  V30 6920 N 648.508 -6.59017 -2.42159 0
M  V30 6921 H 653.348 -2.97188 0.219903 0
M  V30 6922 H 650.885 -1.46607 0.120282 0
M  V30 6923 H 652.843 -3.54987 -2.19181 0
M  V30 6924 H 651.473 -2.40942 -2.14818 0
M  V30 6925 H 650.525 -3.80029 -0.167854 0
M  V30 6926 H 651.837 -4.96864 -0.439073 0
M  V30 6927 H 650.991 -5.40601 -2.75383 0
M  V30 6928 H 649.73 -4.15741 -2.54973 0
M  V30 6929 H 648.735 -5.45968 -0.648023 0
M  V30 6930 H 649.96 -6.73445 -0.874553 0
M  V30 6931 H 647.906 -5.86306 -2.94247 0
M  V30 6932 H 647.823 -7.2978 -1.97376 0
M  V30 6933 H 649.091 -7.12974 -3.15099 0
M  V30 6934 N 653.32 -0.135238 -1.57019 0
M  V30 6935 C 654.736 0.221262 -1.58059 0
M  V30 6936 C 654.936 1.65538 -1.14889 0
M  V30 6937 O 653.992 2.37985 -0.843751 0
M  V30 6938 C 655.305 -0.0268114 -3.00688 0
M  V30 6939 C 656.853 0.0378206 -3.12977 0
M  V30 6940 C 657.328 -0.182769 -4.57635 0
M  V30 6941 N 658.819 -0.129292 -4.6302 0
M  V30 6942 C 659.554 -0.274648 -5.72742 0
M  V30 6943 N 659.05 -0.477075 -6.91155 0
M  V30 6944 N 660.843 -0.213077 -5.61696 0
M  V30 6945 H 652.994 -1.07177 -1.83376 0
M  V30 6946 H 655.257 -0.423338 -0.848227 0
M  V30 6947 H 654.963 -1.01889 -3.36618 0
M  V30 6948 H 654.837 0.697863 -3.70688 0
M  V30 6949 H 657.224 1.02043 -2.76896 0
M  V30 6950 H 657.305 -0.718996 -2.45487 0
M  V30 6951 H 656.949 -1.16243 -4.94419 0
M  V30 6952 H 656.879 0.59423 -5.23237 0
M  V30 6953 H 659.37 0.0229896 -3.77893 0
M  V30 6954 H 659.683 -0.578413 -7.70632 0
M  V30 6955 H 658.028 -0.513252 -6.93102 0
M  V30 6956 H 661.219 -0.0557796 -4.68067 0
M  V30 6957 H 661.392 -0.329796 -6.4716 0
M  V30 6958 N 654.798 1.5699 0.138552 0
M  V30 6959 C 656.046 1.83446 0.848053 0
M  V30 6960 C 656.367 0.71744 1.81322 0
M  V30 6961 O 655.637 -0.260228 1.94164 0
M  V30 6962 H 654.217 0.676792 0.316166 0
M  V30 6963 H 656.879 1.94462 0.130538 0
M  V30 6964 H 655.975 2.78677 1.40518 0
M  V30 6965 N 656.276 -0.40816 1.52223 0
M  V30 6966 C 657.506 -1.17501 1.69932 0
M  V30 6967 C 657.914 -1.84729 0.408874 0
M  V30 6968 O 657.257 -1.7274 -0.625025 0
M  V30 6969 C 657.319 -2.27994 2.77955 0
M  V30 6970 C 656.983 -1.80894 4.19674 0
M  V30 6971 C 657.98 -1.29618 5.03483 0
M  V30 6972 C 655.665 -1.87698 4.65913 0
M  V30 6973 C 657.659 -0.857695 6.31603 0
M  V30 6974 C 655.346 -1.43461 5.94022 0
M  V30 6975 C 656.344 -0.925822 6.76696 0
M  V30 6976 O 656.032 -0.489841 8.02406 0
M  V30 6977 H 655.764 -0.359065 0.572755 0
M  V30 6978 H 658.318 -0.486188 1.99563 0
M  V30 6979 H 656.548 -3.00243 2.43703 0
M  V30 6980 H 658.237 -2.89749 2.84254 0
M  V30 6981 H 659.003 -1.23733 4.68951 0
M  V30 6982 H 654.882 -2.26244 4.01665 0
M  V30 6983 H 658.426 -0.459879 6.96083 0
M  V30 6984 H 654.323 -1.49026 6.28062 0
M  V30 6985 H 655.091 -0.613062 8.16201 0
M  V30 6986 N 657.755 -1.42862 -0.66545 0
M  V30 6987 C 658.98 -1.47456 -1.45848 0
M  V30 6988 C 659.405 -0.0900312 -1.87884 0
M  V30 6989 O 658.763 0.913587 -1.56599 0
M  V30 6990 C 658.811 -2.41514 -2.67774 0
M  V30 6991 O 657.915 -1.89296 -3.66389 0
M  V30 6992 H 657.256 -0.499236 -0.437789 0
M  V30 6993 H 659.786 -1.8765 -0.815394 0
M  V30 6994 H 659.796 -2.58409 -3.15735 0
M  V30 6995 H 658.471 -3.42099 -2.36519 0
M  V30 6996 H 657.048 -1.82003 -3.25468 0
M  V30 6997 N 659.233 0.902656 -1.29189 0
M  V30 6998 C 660.463 1.68394 -1.19695 0
M  V30 6999 C 660.871 1.87602 0.245384 0
M  V30 7000 O 660.214 1.41084 1.17648 0
M  V30 7001 C 660.276 3.09094 -1.83578 0
M  V30 7002 C 659.94 3.1313 -3.32864 0
M  V30 7003 C 660.937 2.93497 -4.29134 0
M  V30 7004 C 658.622 3.3529 -3.74013 0
M  V30 7005 C 660.616 2.95953 -5.64527 0
M  V30 7006 C 658.303 3.37377 -5.09529 0
M  V30 7007 C 659.301 3.1773 -6.04596 0
M  V30 7008 O 658.989 3.196 -7.37639 0
M  V30 7009 H 658.721 0.532815 -0.416034 0
M  V30 7010 H 661.275 1.1374 -1.71033 0
M  V30 7011 H 659.505 3.65338 -1.26747 0
M  V30 7012 H 661.194 3.69297 -1.68447 0
M  V30 7013 H 661.96 2.76192 -3.98677 0
M  V30 7014 H 657.839 3.49623 -3.00474 0
M  V30 7015 H 661.383 2.80536 -6.38706 0
M  V30 7016 H 657.28 3.54213 -5.39633 0
M  V30 7017 H 658.048 3.35887 -7.46406 0
M  V30 7018 N 660.711 1.11618 1.11262 0
M  V30 7019 C 661.643 0.734015 2.17129 0
M  V30 7020 C 662.656 -0.235243 1.61091 0
M  V30 7021 O 663.845 -0.0178597 1.78491 0
M  V30 7022 C 660.945 0.0643682 3.38839 0
M  V30 7023 C 660.118 1.06092 4.24339 0
M  V30 7024 C 659.177 0.420482 5.24517 0
M  V30 7025 O 658.203 1.07495 5.58957 0
M  V30 7026 N 659.405 -0.815828 5.74739 0
M  V30 7027 H 662.17 1.64492 2.50524 0
M  V30 7028 H 659.731 1.00664 1.26801 0
M  V30 7029 H 661.723 -0.375851 4.02951 0
M  V30 7030 H 660.293 -0.749147 3.03491 0
M  V30 7031 H 659.513 1.67903 3.56654 0
M  V30 7032 H 660.801 1.73507 4.78302 0
M  V30 7033 H 660.199 -1.36668 5.48943 0
M  V30 7034 H 658.756 -1.199 6.40677 0
M  V30 7035 N 662.189 -1.289 0.906776 0
M  V30 7036 C 663.438 -1.9455 0.532262 0
M  V30 7037 C 663.751 -1.72219 -0.927353 0
M  V30 7038 O 664.957 -2.32033 -1.40971 0
M  V30 7039 C 663.413 -3.48438 0.901041 0
M  V30 7040 C 663.021 -3.79558 2.37991 0
M  V30 7041 C 664.765 -4.20284 0.596777 0
M  V30 7042 C 662.672 -5.26723 2.68918 0
M  V30 7043 H 661.602 -0.728259 0.195333 0
M  V30 7044 H 664.253 -1.46519 1.10474 0
M  V30 7045 H 662.635 -3.95162 0.257419 0
M  V30 7046 H 663.809 -3.43668 3.06967 0
M  V30 7047 H 662.124 -3.20868 2.65391 0
M  V30 7048 H 664.721 -5.28612 0.8046 0
M  V30 7049 H 665.064 -4.13694 -0.465072 0
M  V30 7050 H 665.597 -3.79315 1.19855 0
M  V30 7051 H 662.336 -5.38384 3.73928 0
M  V30 7052 H 661.856 -5.63836 2.04571 0
M  V30 7053 H 663.535 -5.94391 2.55555 0
M  V30 7054 N 663.667 -0.670007 -1.42649 0
M  V30 7055 C 664.614 0.0112928 -2.30797 0
M  V30 7056 C 665.584 0.797627 -1.45695 0
M  V30 7057 O 666.769 0.770845 -1.74535 0
M  V30 7058 C 663.909 0.95998 -3.31479 0
M  V30 7059 C 663.022 0.167975 -4.31673 0
M  V30 7060 C 662.157 1.11198 -5.19431 0
M  V30 7061 C 661.196 0.311381 -6.11307 0
M  V30 7062 N 660.333 1.20784 -6.91633 0
M  V30 7063 H 665.173 -0.746231 -2.88505 0
M  V30 7064 H 662.71 -0.379739 -1.42114 0
M  V30 7065 H 664.668 1.52379 -3.88377 0
M  V30 7066 H 663.298 1.68419 -2.75382 0
M  V30 7067 H 662.35 -0.512385 -3.76933 0
M  V30 7068 H 663.662 -0.453814 -4.96731 0
M  V30 7069 H 662.816 1.74587 -5.81037 0
M  V30 7070 H 661.555 1.76766 -4.54538 0
M  V30 7071 H 660.56 -0.335758 -5.48774 0
M  V30 7072 H 661.785 -0.340135 -6.78248 0
M  V30 7073 H 659.731 1.85001 -6.29373 0
M  V30 7074 H 659.648 0.64102 -7.53277 0
M  V30 7075 H 660.916 1.82936 -7.5773 0
M  V30 7076 N 665.145 1.52092 -0.413018 0
M  V30 7077 C 666.078 2.23613 0.455234 0
M  V30 7078 C 667.056 1.2459 1.04481 0
M  V30 7079 O 668.24 1.53653 1.09193 0
M  V30 7080 C 665.367 2.96775 1.63224 0
M  V30 7081 C 664.413 4.10261 1.16568 0
M  V30 7082 S 665.246 5.35348 0.127633 0
M  V30 7083 C 666.402 6.1204 1.30987 0
M  V30 7084 H 666.635 2.96911 -0.152042 0
M  V30 7085 H 664.168 1.53134 -0.197343 0
M  V30 7086 H 666.126 3.39532 2.30713 0
M  V30 7087 H 664.787 2.23113 2.21087 0
M  V30 7088 H 663.98 4.6064 2.04515 0
M  V30 7089 H 663.582 3.6964 0.569386 0
M  V30 7090 H 665.874 6.39651 2.23276 0
M  V30 7091 H 666.817 7.03022 0.846533 0
M  V30 7092 H 667.225 5.43161 1.53743 0
M  V30 7093 N 666.623 0.143563 1.56945 0
M  V30 7094 C 667.863 -0.511198 1.97904 0
M  V30 7095 C 668.227 -1.62262 1.0264 0
M  V30 7096 O 669.428 -2.338 1.32631 0
M  V30 7097 C 667.699 -1.00753 3.42905 0
M  V30 7098 S 669.258 -1.66737 4.05887 0
M  V30 7099 H 666.076 -0.165399 0.691494 0
M  V30 7100 H 668.678 0.234464 1.94089 0
M  V30 7101 H 667.382 -0.187817 4.0997 0
M  V30 7102 H 666.913 -1.7879 3.50425 0
M  V30 7103 H 668.928 -2.95444 3.98657 0
M  V30 7104 N 668.101 -1.57061 -0.130224 0
M  V30 7105 C 669.512 -1.73539 -0.68856 0
M  V30 7106 C 669.863 -0.760554 -1.80859 0
M  V30 7107 O 668.988 0.0690796 -2.1629 0
M  V30 7108 C 669.583 -3.14666 -1.25581 0
M  V30 7109 C 668.142 -3.32689 -1.76055 0
M  V30 7110 C 667.289 -2.69436 -0.655712 0
M  V30 7111 H 670.24 -1.58412 0.0956002 0
M  V30 7112 H 670.261 -3.15595 -2.12556 0
M  V30 7113 H 669.773 -3.85593 -0.440412 0
M  V30 7114 H 667.874 -2.66786 -2.60108 0
M  V30 7115 H 667.987 -4.4077 -1.87772 0
M  V30 7116 H 666.351 -2.30362 -1.08654 0
M  V30 7117 H 667.134 -3.42979 0.14852 0
M  V30 7118 N 669.579 0.400081 -1.52437 0
M  V30 7119 C 670.511 1.50729 -1.72666 0
M  V30 7120 C 671.524 1.51058 -0.607075 0
M  V30 7121 O 672.713 1.5516 -0.88248 0
M  V30 7122 C 669.813 2.89604 -1.76019 0
M  V30 7123 C 668.986 3.13365 -3.05157 0
M  V30 7124 C 668.045 4.32163 -3.00203 0
M  V30 7125 O 667.071 4.29004 -3.74092 0
M  V30 7126 N 668.273 5.3776 -2.18619 0
M  V30 7127 H 671.038 1.33767 -2.68191 0
M  V30 7128 H 668.599 0.58948 -1.50787 0
M  V30 7129 H 670.591 3.67159 -1.70225 0
M  V30 7130 H 669.161 2.99979 -0.879284 0
M  V30 7131 H 668.381 2.23774 -3.24529 0
M  V30 7132 H 669.669 3.26089 -3.90568 0
M  V30 7133 H 669.067 5.43177 -1.58035 0
M  V30 7134 H 667.624 6.14023 -2.18674 0
M  V30 7135 N 671.057 1.43213 0.657864 0
M  V30 7136 C 672.005 1.48271 1.79216 0
M  V30 7137 C 672.999 0.35675 1.65601 0
M  V30 7138 O 674.205 0.530535 1.72004 0
M  V30 7139 H 670.58 0.464729 0.591211 0
M  V30 7140 H 672.551 2.43792 1.7207 0
M  V30 7141 C 671.3 1.41837 3.17455 0
M  V30 7142 H 670.623 2.27781 3.28567 0
M  V30 7143 H 672.063 1.49438 3.96793 0
M  V30 7144 C 670.522 0.135347 3.36628 0
M  V30 7145 O 671.052 -0.805199 3.93547 0
M  V30 7146 N 669.258 0.0470316 2.90562 0
M  V30 7147 H 668.805 0.813221 2.44427 0
M  V30 7148 H 668.763 -0.810737 3.03767 0
M  V30 7149 N 672.536 -0.895792 1.29666 0
M  V30 7150 C 673.764 -1.68001 1.20761 0
M  V30 7151 C 674.179 -1.87379 -0.231187 0
M  V30 7152 O 673.536 -1.41359 -1.15429 0
M  V30 7153 C 673.587 -3.06236 1.92098 0
M  V30 7154 O 673.308 -2.8774 3.30359 0
M  V30 7155 C 674.809 -4.00652 1.89717 0
M  V30 7156 H 672.029 -0.524591 0.418384 0
M  V30 7157 H 674.573 -1.11995 1.71106 0
M  V30 7158 H 672.728 -3.59007 1.45578 0
M  V30 7159 H 673.142 -3.75359 3.66342 0
M  V30 7160 H 674.616 -4.95051 2.44189 0
M  V30 7161 H 675.093 -4.30424 0.873595 0
M  V30 7162 H 675.699 -3.53815 2.35998 0
M  V30 7163 N 674.014 -1.12206 -1.10668 0
M  V30 7164 C 675.239 -0.898938 -1.86906 0
M  V30 7165 C 675.664 0.546346 -1.79991 0
M  V30 7166 O 675.022 1.38655 -1.1681 0
M  V30 7167 C 675.07 -1.37529 -3.33344 0
M  V30 7168 O 674.174 -0.55218 -4.08687 0
M  V30 7169 H 673.515 -0.323163 -0.580053 0
M  V30 7170 H 676.045 -1.49355 -1.39837 0
M  V30 7171 H 676.055 -1.3733 -3.84193 0
M  V30 7172 H 674.73 -2.42767 -3.37693 0
M  V30 7173 H 673.307 -0.620947 -3.67694 0
M  V30 7174 N 675.492 1.28418 -0.913599 0
M  V30 7175 C 676.741 1.94265 -0.542572 0
M  V30 7176 C 677.054 1.72709 0.918207 0
M  V30 7177 O 678.26 2.32778 1.39738 0
M  V30 7178 C 676.716 3.47956 -0.919507 0
M  V30 7179 C 676.324 3.78291 -2.4 0
M  V30 7180 C 678.068 4.19962 -0.619057 0
M  V30 7181 C 675.975 5.2529 -2.71707 0
M  V30 7182 H 674.905 0.727213 -0.199192 0
M  V30 7183 H 677.556 1.45931 -1.11249 0
M  V30 7184 H 675.938 3.9502 -0.278372 0
M  V30 7185 H 677.112 3.42035 -3.08786 0
M  V30 7186 H 675.427 3.19456 -2.67089 0
M  V30 7187 H 678.024 5.28178 -0.832623 0
M  V30 7188 H 678.367 4.13935 0.443126 0
M  V30 7189 H 678.9 3.78674 -1.21865 0
M  V30 7190 H 675.639 5.36394 -3.76778 0
M  V30 7191 H 675.159 5.62743 -2.07559 0
M  V30 7192 H 676.838 5.93027 -2.58703 0
M  V30 7193 N 676.97 0.677563 1.42291 0
M  V30 7194 C 678.381 0.277912 1.8462 0
M  V30 7195 C 678.732 -1.18048 1.56714 0
M  V30 7196 O 677.857 -1.90404 1.02836 0
M  V30 7197 C 678.452 0.497619 3.35126 0
M  V30 7198 C 677.011 0.152063 3.76093 0
M  V30 7199 C 676.158 0.78872 2.65847 0
M  V30 7200 H 679.109 0.879527 1.32098 0
M  V30 7201 H 679.13 -0.24939 3.79682 0
M  V30 7202 H 678.642 1.55913 3.55405 0
M  V30 7203 H 676.743 -0.905896 3.6142 0
M  V30 7204 H 676.856 0.594514 4.75397 0
M  V30 7205 H 675.22 0.219813 2.5375 0
M  V30 7206 H 676.003 1.85374 2.88949 0
M  V30 7207 N 678.448 -1.51871 0.421078 0
M  V30 7208 C 679.697 -2.01125 -0.152206 0
M  V30 7209 C 680.01 -1.3106 -1.45199 0
M  V30 7210 O 681.216 -1.71195 -2.10724 0
M  V30 7211 C 679.672 -3.58458 -0.3218 0
M  V30 7212 C 679.28 -4.37448 0.96659 0
M  V30 7213 C 681.024 -4.15908 -0.84973 0
M  V30 7214 C 678.931 -5.86451 0.763529 0
M  V30 7215 H 677.861 -0.751556 -0.0606565 0
M  V30 7216 H 680.512 -1.75115 0.548354 0
M  V30 7217 H 678.894 -3.80847 -1.08498 0
M  V30 7218 H 680.068 -4.26814 1.73684 0
M  V30 7219 H 678.383 -3.91373 1.42183 0
M  V30 7220 H 680.98 -5.24922 -1.01788 0
M  V30 7221 H 681.323 -3.74031 -1.82774 0
M  V30 7222 H 681.856 -3.97535 -0.145297 0
M  V30 7223 H 678.595 -6.3271 1.71344 0
M  V30 7224 H 678.115 -5.99791 0.0327889 0
M  V30 7225 H 679.794 -6.45697 0.410354 0
M  V30 7226 N 679.926 -0.151884 -1.56866 0
M  V30 7227 C 681.342 0.204486 -1.58285 0
M  V30 7228 C 681.542 1.6431 -1.16639 0
M  V30 7229 O 680.598 2.37077 -0.868946 0
M  V30 7230 C 681.911 -0.0587019 -3.00643 0
M  V30 7231 C 683.459 0.00462303 -3.13 0
M  V30 7232 C 683.934 -0.231297 -4.57416 0
M  V30 7233 N 685.425 -0.178394 -4.62856 0
M  V30 7234 C 686.16 -0.335379 -5.72418 0
M  V30 7235 N 685.656 -0.550355 -6.90611 0
M  V30 7236 N 687.449 -0.272641 -5.61438 0
M  V30 7237 H 679.6 -1.09116 -1.82229 0
M  V30 7238 H 681.863 -0.432311 -0.843689 0
M  V30 7239 H 681.569 -1.05453 -3.35518 0
M  V30 7240 H 681.443 0.658508 -3.71407 0
M  V30 7241 H 683.83 0.991009 -2.77962 0
M  V30 7242 H 683.911 -0.744992 -2.44711 0
M  V30 7243 H 683.555 -1.2148 -4.93158 0
M  V30 7244 H 683.485 0.5387 -5.23837 0
M  V30 7245 H 685.976 -0.0170923 -3.77896 0
M  V30 7246 H 686.289 -0.660116 -7.69976 0
M  V30 7247 H 684.634 -0.586736 -6.92519 0
M  V30 7248 H 687.825 -0.105421 -4.67981 0
M  V30 7249 H 687.998 -0.398418 -6.46774 0
M  V30 7250 N 681.404 1.57128 0.121893 0
M  V30 7251 C 682.652 1.84335 0.828548 0
M  V30 7252 C 682.973 0.736632 1.80551 0
M  V30 7253 O 682.243 -0.23962 1.94429 0
M  V30 7254 H 680.823 0.680108 0.30897 0
M  V30 7255 H 683.485 1.9459 0.109906 0
M  V30 7256 H 682.581 2.80152 1.37554 0
M  V30 7257 N 682.882 -0.391992 1.52647 0
M  V30 7258 C 684.298 -0.731848 1.41831 0
M  V30 7259 C 684.498 -1.9423 0.536361 0
M  V30 7260 O 683.554 -2.52499 0.00866571 0
M  V30 7261 C 684.867 -0.969743 2.84634 0
M  V30 7262 C 686.415 -1.0714 2.94092 0
M  V30 7263 C 686.89 -1.34195 4.37899 0
M  V30 7264 N 688.381 -1.41023 4.41211 0
M  V30 7265 C 689.116 -1.63616 5.49561 0
M  V30 7266 N 688.612 -1.83699 6.68002 0
M  V30 7267 N 690.405 -1.65771 5.371 0
M  V30 7268 H 682.556 0.404547 2.08512 0
M  V30 7269 H 684.819 0.11879 0.940528 0
M  V30 7270 H 684.525 -0.152465 3.51369 0
M  V30 7271 H 684.399 -1.88523 3.26709 0
M  V30 7272 H 686.786 -1.87925 2.27526 0
M  V30 7273 H 686.867 -0.133887 2.55449 0
M  V30 7274 H 686.511 -0.539207 5.0503 0
M  V30 7275 H 686.441 -2.29226 4.74092 0
M  V30 7276 H 688.932 -1.27223 3.55841 0
M  V30 7277 H 689.245 -2.00437 7.46354 0
M  V30 7278 H 687.59 -1.8093 6.71036 0
M  V30 7279 H 690.781 -1.4963 4.43541 0
M  V30 7280 H 690.954 -1.83038 6.21612 0
M  V30 7281 N 684.36 -1.4356 -0.65026 0
M  V30 7282 C 685.606 -1.45549 -1.41221 0
M  V30 7283 C 685.939 -0.0805472 -1.94033 0
M  V30 7284 O 685.214 0.899043 -1.72475 0
M  V30 7285 C 685.497 -2.50028 -2.59148 0
M  V30 7286 C 685.35 -3.96808 -2.1181 0
M  V30 7287 C 686.669 -2.51212 -3.61359 0
M  V30 7288 H 683.788 -0.529967 -0.512156 0
M  V30 7289 H 686.43 -1.75127 -0.736933 0
M  V30 7290 H 684.58 -2.24937 -3.16758 0
M  V30 7291 H 686.252 -4.32966 -1.59178 0
M  V30 7292 H 684.495 -4.09498 -1.43156 0
M  V30 7293 H 685.166 -4.6553 -2.96625 0
M  V30 7294 H 687.642 -2.73583 -3.13515 0
M  V30 7295 H 686.518 -3.26252 -4.41419 0
M  V30 7296 H 686.779 -1.54701 -4.1415 0
M  V30 7297 N 685.838 0.888903 -1.30139 0
M  V30 7298 C 686.768 2.01046 -1.18755 0
M  V30 7299 C 687.749 1.69916 -0.0791438 0
M  V30 7300 O 688.934 1.92445 -0.260498 0
M  V30 7301 C 686.064 3.36109 -0.874518 0
M  V30 7302 C 685.018 3.81486 -1.94043 0
M  V30 7303 C 684.344 5.13796 -1.48047 0
M  V30 7304 C 685.644 4.00637 -3.35093 0
M  V30 7305 H 687.338 2.10828 -2.12584 0
M  V30 7306 H 684.884 1.01298 -1.02346 0
M  V30 7307 H 686.837 4.14089 -0.781548 0
M  V30 7308 H 685.561 3.26449 0.0994519 0
M  V30 7309 H 684.22 3.05731 -2.02297 0
M  V30 7310 H 683.868 5.0056 -0.494878 0
M  V30 7311 H 683.568 5.45127 -2.19341 0
M  V30 7312 H 685.092 5.94305 -1.40121 0
M  V30 7313 H 686.506 4.69067 -3.2962 0
M  V30 7314 H 684.903 4.43339 -4.04438 0
M  V30 7315 H 685.973 3.0462 -3.77273 0
M  V30 7316 N 687.317 1.12792 1.10072 0
M  V30 7317 C 688.566 0.880232 1.81479 0
M  V30 7318 C 688.879 -0.595575 1.86312 0
M  V30 7319 O 690.085 -0.959979 2.53962 0
M  V30 7320 C 688.541 1.52514 3.25987 0
M  V30 7321 C 688.149 3.036 3.29441 0
M  V30 7322 C 689.893 1.35788 4.02196 0
M  V30 7323 C 687.8 3.61007 4.68431 0
M  V30 7324 H 686.73 0.325654 0.680048 0
M  V30 7325 H 689.381 1.35485 1.23758 0
M  V30 7326 H 687.763 0.978188 3.83728 0
M  V30 7327 H 688.937 3.64819 2.81502 0
M  V30 7328 H 687.252 3.19765 2.66719 0
M  V30 7329 H 689.849 1.76096 5.0487 0
M  V30 7330 H 690.192 0.301972 4.15203 0
M  V30 7331 H 690.725 1.87426 3.50879 0
M  V30 7332 H 687.464 4.66375 4.60625 0
M  V30 7333 H 686.984 3.04564 5.16721 0
M  V30 7334 H 688.663 3.60289 5.37402 0
M  V30 7335 N 688.795 -1.27931 0.920396 0
M  V30 7336 C 690.043 -1.94304 0.555906 0
M  V30 7337 C 690.364 -1.72753 -0.904519 0
M  V30 7338 O 689.634 -1.07104 -1.64029 0
M  V30 7339 H 688.214 -0.719001 0.202599 0
M  V30 7340 H 690.876 -1.55785 1.1712 0
M  V30 7341 H 689.972 -3.02806 0.755981 0
M  V30 7342 N 690.273 -0.685099 -1.4193 0
M  V30 7343 C 691.498 -0.218842 -2.06242 0
M  V30 7344 C 691.923 1.11923 -1.51178 0
M  V30 7345 O 691.281 1.69837 -0.634446 0
M  V30 7346 C 691.329 -0.175592 -3.60172 0
M  V30 7347 O 690.433 0.852776 -4.03487 0
M  V30 7348 H 689.774 -0.109531 -0.654904 0
M  V30 7349 H 692.304 -0.937013 -1.81882 0
M  V30 7350 H 692.314 -0.00291151 -4.08 0
M  V30 7351 H 690.989 -1.15222 -3.99621 0
M  V30 7352 H 689.566 0.650301 -3.67186 0
M  V30 7353 N 691.751 1.51645 -0.429126 0
M  V30 7354 C 693.028 1.94579 0.199614 0
M  V30 7355 C 693.408 1.3673 1.60836 0
M  V30 7356 O 692.756 0.551062 2.21756 0
M  V30 7357 C 692.966 3.48506 0.185685 0
M  V30 7358 C 694.314 4.22756 0.395282 0
M  V30 7359 O 695.338 3.55219 0.264165 0
M  V30 7360 O 694.197 5.42555 0.655475 0
M  V30 7361 H 691.291 0.816007 0.134393 0
M  V30 7362 H 693.837 1.62577 -0.486513 0
M  V30 7363 H 692.609 3.83045 -0.799508 0
M  V30 7364 H 692.232 3.86927 0.91507 0
M  V30 7365 N 693.229 0.160201 1.56784 0
M  V30 7366 C 694.161 -0.80564 2.14574 0
M  V30 7367 C 695.174 -1.20154 1.09849 0
M  V30 7368 O 696.363 -1.14333 1.37078 0
M  V30 7369 C 693.463 -2.09434 2.6644 0
M  V30 7370 C 692.636 -1.86375 3.95706 0
M  V30 7371 C 691.695 -2.99358 4.32749 0
M  V30 7372 O 690.721 -2.70475 5.00831 0
M  V30 7373 N 691.923 -4.26867 3.93402 0
M  V30 7374 H 694.688 -0.311644 2.98075 0
M  V30 7375 H 692.249 -0.0229465 1.61884 0
M  V30 7376 H 694.241 -2.84091 2.88226 0
M  V30 7377 H 692.811 -2.50057 1.8759 0
M  V30 7378 H 692.031 -0.956821 3.82412 0
M  V30 7379 H 693.319 -1.68322 4.80151 0
M  V30 7380 H 692.717 -4.53197 3.38569 0
M  V30 7381 H 691.274 -4.98263 4.20211 0
M  V30 7382 N 694.707 -1.5719 -0.113559 0
M  V30 7383 C 695.954 -1.85138 -0.820382 0
M  V30 7384 C 696.282 -0.74608 -1.79622 0
M  V30 7385 O 695.537 0.262077 -1.93937 0
M  V30 7386 C 695.836 -3.19593 -1.59984 0
M  V30 7387 C 695.502 -4.44315 -0.767809 0
M  V30 7388 C 694.164 -4.78179 -0.538379 0
M  V30 7389 C 696.516 -5.2086 -0.188203 0
M  V30 7390 C 693.844 -5.86028 0.28082 0
M  V30 7391 C 696.196 -6.29572 0.618217 0
M  V30 7392 C 694.86 -6.61964 0.857912 0
M  V30 7393 H 694.13 -0.677467 -0.300199 0
M  V30 7394 H 696.777 -1.91322 -0.0825443 0
M  V30 7395 H 695.082 -3.0901 -2.40874 0
M  V30 7396 H 696.779 -3.3844 -2.1508 0
M  V30 7397 H 693.369 -4.17786 -0.956724 0
M  V30 7398 H 697.553 -4.95045 -0.352658 0
M  V30 7399 H 692.809 -6.09547 0.475693 0
M  V30 7400 H 696.983 -6.88064 1.0743 0
M  V30 7401 H 694.61 -7.45365 1.49451 0
M  V30 7402 N 696.185 0.383891 -1.52853 0
M  V30 7403 C 697.117 1.48889 -1.74255 0
M  V30 7404 C 698.13 1.50405 -0.623063 0
M  V30 7405 O 699.319 1.54215 -0.898887 0
M  V30 7406 C 696.419 2.87721 -1.79081 0
M  V30 7407 C 695.592 3.10111 -3.08464 0
M  V30 7408 C 694.651 4.28954 -3.0477 0
M  V30 7409 O 693.677 4.25012 -3.78621 0
M  V30 7410 N 694.879 5.35411 -2.24311 0
M  V30 7411 H 697.644 1.30915 -2.69595 0
M  V30 7412 H 695.205 0.573454 -1.51404 0
M  V30 7413 H 697.197 3.65333 -1.7411 0
M  V30 7414 H 695.767 2.99029 -0.911052 0
M  V30 7415 H 694.987 2.20319 -3.26884 0
M  V30 7416 H 696.275 3.21928 -3.94005 0
M  V30 7417 H 695.673 5.41471 -1.63787 0
M  V30 7418 H 694.23 6.1167 -2.25175 0
M  V30 7419 N 697.663 1.43903 0.642637 0
M  V30 7420 C 699.079 1.27536 0.959519 0
M  V30 7421 C 699.279 0.202751 2.00477 0
M  V30 7422 O 698.335 -0.415256 2.49062 0
M  V30 7423 C 699.648 2.6432 1.43372 0
M  V30 7424 C 701.196 2.71937 1.54981 0
M  V30 7425 C 701.671 4.09164 2.05789 0
M  V30 7426 N 703.162 4.11282 2.13076 0
M  V30 7427 C 703.897 5.14303 2.53534 0
M  V30 7428 N 703.393 6.27693 2.93212 0
M  V30 7429 N 705.186 5.01657 2.53567 0
M  V30 7430 H 697.337 2.12344 -0.0488376 0
M  V30 7431 H 699.6 0.947124 0.0407559 0
M  V30 7432 H 699.306 3.43826 0.740048 0
M  V30 7433 H 699.18 2.90432 2.40685 0
M  V30 7434 H 701.567 1.92757 2.23448 0
M  V30 7435 H 701.648 2.49578 0.560739 0
M  V30 7436 H 701.292 4.88815 1.37921 0
M  V30 7437 H 701.222 4.28893 3.05546 0
M  V30 7438 H 703.713 3.2944 1.85143 0
M  V30 7439 H 704.026 7.02125 3.22863 0
M  V30 7440 H 702.371 6.31149 2.90991 0
M  V30 7441 H 705.562 4.12134 2.21952 0
M  V30 7442 H 705.735 5.82072 2.84774 0
M  V30 7443 N 699.141 -0.881989 1.30609 0
M  V30 7444 C 700.366 -1.67236 1.22665 0
M  V30 7445 C 700.791 -1.8696 -0.206777 0
M  V30 7446 O 700.149 -1.4027 -1.14865 0
M  V30 7447 C 700.197 -3.02446 1.96363 0
M  V30 7448 O 699.301 -3.91614 1.29276 0
M  V30 7449 H 698.642 -0.510902 0.424117 0
M  V30 7450 H 701.172 -1.10055 1.72479 0
M  V30 7451 H 701.182 -3.52468 2.055 0
M  V30 7452 H 699.857 -2.8741 3.00613 0
M  V30 7453 H 698.434 -3.50055 1.28514 0
M  V30 7454 N 700.619 -1.13374 -1.09472 0
M  V30 7455 C 701.549 -0.833268 -2.18126 0
M  V30 7456 C 702.53 0.207169 -1.68834 0
M  V30 7457 O 703.715 0.0662012 -1.94087 0
M  V30 7458 C 700.845 -0.297979 -3.46019 0
M  V30 7459 C 699.799 -1.27261 -4.08642 0
M  V30 7460 C 699.125 -0.597104 -5.31356 0
M  V30 7461 C 700.425 -2.63095 -4.51197 0
M  V30 7462 H 702.119 -1.74182 -2.43518 0
M  V30 7463 H 699.665 -0.838921 -1.17039 0
M  V30 7464 H 701.618 -0.0754444 -4.21332 0
M  V30 7465 H 700.342 0.645959 -3.20148 0
M  V30 7466 H 699.001 -1.48113 -3.35348 0
M  V30 7467 H 698.649 0.352293 -5.01765 0
M  V30 7468 H 698.349 -1.24734 -5.74208 0
M  V30 7469 H 699.873 -0.38384 -6.09392 0
M  V30 7470 H 701.287 -2.46214 -5.17737 0
M  V30 7471 H 699.684 -3.2429 -5.04932 0
M  V30 7472 H 700.754 -3.20793 -3.6362 0
M  V30 7473 N 702.098 1.27442 -0.927168 0
M  V30 7474 C 703.509 1.76385 -0.611979 0
M  V30 7475 C 703.86 1.75715 0.872853 0
M  V30 7476 O 702.985 1.3603 1.683 0
M  V30 7477 C 703.58 3.20303 -1.10414 0
M  V30 7478 C 702.139 3.66916 -0.839628 0
M  V30 7479 C 701.286 2.46859 -1.26317 0
M  V30 7480 H 704.237 1.13716 -1.107 0
M  V30 7481 H 704.258 3.77811 -0.451578 0
M  V30 7482 H 703.77 3.20759 -2.18484 0
M  V30 7483 H 701.871 3.71906 0.227292 0
M  V30 7484 H 701.984 4.56415 -1.45679 0
M  V30 7485 H 700.348 2.45407 -0.681723 0
M  V30 7486 H 701.131 2.50025 -2.3525 0
M  V30 7487 N 703.576 0.692616 1.41565 0
M  V30 7488 C 704.486 0.0258451 2.34586 0
M  V30 7489 C 705.502 -0.769324 1.56069 0
M  V30 7490 O 706.678 -0.707563 1.88562 0
M  V30 7491 C 703.743 -0.901289 3.3478 0
M  V30 7492 C 702.804 -0.0986579 4.29187 0
M  V30 7493 C 702.037 -0.981634 5.24595 0
M  V30 7494 O 702.26 -2.22115 5.25377 0
M  V30 7495 O 701.194 -0.432892 6.00341 0
M  V30 7496 H 705.02 0.792537 2.93177 0
M  V30 7497 H 702.605 0.452935 1.42369 0
M  V30 7498 H 704.487 -1.43302 3.96286 0
M  V30 7499 H 703.162 -1.64752 2.78637 0
M  V30 7500 H 702.069 0.477604 3.71039 0
M  V30 7501 H 703.402 0.608848 4.8842 0
M  V30 7502 N 705.054 -1.51416 0.437162 0
M  V30 7503 C 706.282 -2.06503 -0.128045 0
M  V30 7504 C 706.697 -1.30461 -1.36475 0
M  V30 7505 O 706.054 -0.364127 -1.78831 0
M  V30 7506 C 706.105 -3.58683 -0.450437 0
M  V30 7507 O 705.826 -4.31853 0.737186 0
M  V30 7508 C 707.327 -4.30284 -1.06633 0
M  V30 7509 H 704.547 -0.670952 -0.00800269 0
M  V30 7510 H 707.091 -1.94996 0.616193 0
M  V30 7511 H 705.246 -3.70106 -1.14457 0
M  V30 7512 H 705.66 -5.22467 0.461347 0
M  V30 7513 H 707.134 -5.37848 -1.24191 0
M  V30 7514 H 707.611 -3.88564 -2.0473 0
M  V30 7515 H 708.217 -4.23304 -0.411585 0
M  V30 7516 N 706.532 -0.168513 -1.56696 0
M  V30 7517 C 707.781 0.477233 -1.95973 0
M  V30 7518 C 708.094 1.64578 -1.05704 0
M  V30 7519 O 709.3 2.35758 -1.3465 0
M  V30 7520 C 707.756 0.900413 -3.48455 0
M  V30 7521 C 707.364 -0.242382 -4.47344 0
M  V30 7522 C 709.108 1.51474 -3.96555 0
M  V30 7523 C 707.015 0.200272 -5.91061 0
M  V30 7524 H 705.945 0.182061 -0.73169 0
M  V30 7525 H 708.596 -0.256297 -1.81701 0
M  V30 7526 H 706.978 1.68984 -3.58135 0
M  V30 7527 H 708.152 -1.01967 -4.49377 0
M  V30 7528 H 706.467 -0.766484 -4.09285 0
M  V30 7529 H 709.064 1.85792 -5.01384 0
M  V30 7530 H 709.407 2.41163 -3.39332 0
M  V30 7531 H 709.94 0.789802 -3.89881 0
M  V30 7532 H 706.679 -0.661775 -6.52151 0
M  V30 7533 H 706.199 0.942979 -5.92341 0
M  V30 7534 H 707.878 0.645088 -6.43776 0
M  V30 7535 N 708.01 1.57248 0.105221 0
M  V30 7536 C 709.259 1.84756 0.809198 0
M  V30 7537 C 709.572 0.756262 1.80389 0
M  V30 7538 O 710.778 0.918158 2.55504 0
M  V30 7539 C 709.234 3.27613 1.48989 0
M  V30 7540 C 708.842 4.44788 0.535484 0
M  V30 7541 C 710.586 3.64356 2.17819 0
M  V30 7542 C 708.493 5.78676 1.22019 0
M  V30 7543 H 707.423 0.689139 0.305946 0
M  V30 7544 H 710.074 1.83395 0.0620371 0
M  V30 7545 H 708.456 3.23485 2.28415 0
M  V30 7546 H 709.63 4.60243 -0.226557 0
M  V30 7547 H 707.945 4.16374 -0.0465769 0
M  V30 7548 H 710.542 4.61663 2.69761 0
M  V30 7549 H 710.885 2.92474 2.96251 0
M  V30 7550 H 711.418 3.70328 1.45264 0
M  V30 7551 H 708.157 6.53763 0.476875 0
M  V30 7552 H 707.677 5.67083 1.9539 0
M  V30 7553 H 709.356 6.22897 1.74952 0
M  V30 7554 N 709.488 -0.375779 1.53054 0
M  V30 7555 C 710.713 -1.14484 1.7294 0
M  V30 7556 C 711.138 -1.82572 0.452668 0
M  V30 7557 O 710.496 -1.71343 -0.592567 0
M  V30 7558 C 710.544 -2.15857 2.88857 0
M  V30 7559 O 709.648 -3.22725 2.56753 0
M  V30 7560 H 708.989 -0.332666 0.574656 0
M  V30 7561 H 711.519 -0.436025 1.999 0
M  V30 7562 H 711.529 -2.59631 3.14731 0
M  V30 7563 H 710.204 -1.65689 3.81471 0
M  V30 7564 H 708.781 -2.83996 2.41663 0
M  V30 7565 N 710.966 -1.44241 -0.634997 0
M  V30 7566 C 711.899 -1.45274 -1.75985 0
M  V30 7567 C 712.877 -0.312025 -1.59578 0
M  V30 7568 O 714.061 -0.508409 -1.81514 0
M  V30 7569 C 711.188 -1.28173 -3.13511 0
M  V30 7570 C 710.234 -2.45757 -3.48576 0
M  V30 7571 S 711.067 -4.08293 -3.46492 0
M  V30 7572 C 712.223 -3.93608 -4.86645 0
M  V30 7573 H 712.456 -2.40454 -1.74841 0
M  V30 7574 H 709.989 -1.31492 -0.809268 0
M  V30 7575 H 711.947 -1.18993 -3.92875 0
M  V30 7576 H 710.608 -0.34511 -3.12198 0
M  V30 7577 H 709.801 -2.29644 -4.48642 0
M  V30 7578 H 709.403 -2.51657 -2.76667 0
M  V30 7579 H 711.695 -3.57059 -5.75774 0
M  V30 7580 H 712.638 -4.9349 -5.07813 0
M  V30 7581 H 713.046 -3.25737 -4.61038 0
M  V30 7582 N 712.444 0.87505 -1.31075 0
M  V30 7583 C 713.407 1.96333 -1.18263 0
M  V30 7584 C 714.407 1.60416 -0.111106 0
M  V30 7585 O 715.597 1.7044 -0.359987 0
M  V30 7586 C 712.729 3.31036 -0.81414 0
M  V30 7587 H 713.922 2.09125 -2.14958 0
M  V30 7588 H 711.475 1.06271 -1.14614 0
M  V30 7589 H 712.21 3.23944 0.151875 0
M  V30 7590 H 711.995 3.58476 -1.58862 0
M  V30 7591 H 713.485 4.10842 -0.748249 0
M  V30 7592 N 713.922 1.13953 1.08869 0
M  V30 7593 C 715.147 0.928559 1.85452 0
M  V30 7594 C 715.572 -0.517642 1.80837 0
M  V30 7595 O 714.93 -1.36779 1.19001 0
M  V30 7596 C 714.978 1.42814 3.31114 0
M  V30 7597 O 714.082 0.617129 4.07756 0
M  V30 7598 H 713.423 0.33235 0.574839 0
M  V30 7599 H 715.953 1.5156 1.37443 0
M  V30 7600 H 715.963 1.43425 3.8196 0
M  V30 7601 H 714.638 2.48109 3.33788 0
M  V30 7602 H 713.215 0.679365 3.66659 0
M  V30 7603 N 715.4 -1.26948 0.933913 0
M  V30 7604 C 716.33 -2.29017 0.45534 0
M  V30 7605 C 717.311 -1.62961 -0.487605 0
M  V30 7606 O 718.496 -1.90223 -0.391022 0
M  V30 7607 C 715.626 -3.46112 -0.287015 0
M  V30 7608 C 714.58 -4.24205 0.568682 0
M  V30 7609 C 713.906 -5.3384 -0.303206 0
M  V30 7610 C 715.206 -4.88954 1.83633 0
M  V30 7611 H 716.9 -2.69298 1.30839 0
M  V30 7612 H 714.446 -1.29459 0.630579 0
M  V30 7613 H 716.399 -4.16622 -0.6328 0
M  V30 7614 H 715.123 -3.04765 -1.17414 0
M  V30 7615 H 713.782 -3.5545 0.897261 0
M  V30 7616 H 713.43 -4.88734 -1.18947 0
M  V30 7617 H 713.13 -5.86998 0.265879 0
M  V30 7618 H 714.654 -6.0719 -0.644423 0
M  V30 7619 H 716.068 -5.51717 1.55823 0
M  V30 7620 H 714.465 -5.52198 2.34941 0
M  V30 7621 H 715.535 -4.12305 2.55211 0
M  V30 7622 N 716.879 -0.700114 -1.41195 0
M  V30 7623 C 718.107 -0.242179 -2.05478 0
M  V30 7624 C 718.522 1.11029 -1.52702 0
M  V30 7625 O 717.879 1.69473 -0.677127 0
M  V30 7626 C 717.93 -0.196271 -3.60967 0
M  V30 7627 O 717.651 -1.49532 -4.11791 0
M  V30 7628 C 719.152 0.282102 -4.42401 0
M  V30 7629 H 716.372 -0.111749 -0.661629 0
M  V30 7630 H 718.916 -0.953975 -1.80885 0
M  V30 7631 H 717.071 0.46638 -3.84582 0
M  V30 7632 H 717.485 -1.38545 -5.05871 0
M  V30 7633 H 718.959 0.263093 -5.51373 0
M  V30 7634 H 719.436 1.32174 -4.1884 0
M  V30 7635 H 720.042 -0.349712 -4.2386 0
M  V30 7636 N 718.357 1.51182 -0.445186 0
M  V30 7637 C 719.287 2.30821 0.352686 0
M  V30 7638 C 720.268 1.36576 1.01395 0
M  V30 7639 O 721.453 1.65497 1.01609 0
M  V30 7640 C 718.583 3.15593 1.44976 0
M  V30 7641 C 717.537 4.1818 0.911553 0
M  V30 7642 C 716.863 4.91523 2.10497 0
M  V30 7643 C 718.163 5.22266 -0.059418 0
M  V30 7644 H 719.857 2.97771 -0.311936 0
M  V30 7645 H 717.403 1.43201 -0.151461 0
M  V30 7646 H 719.356 3.70091 2.01521 0
M  V30 7647 H 718.08 2.4648 2.14278 0
M  V30 7648 H 716.739 3.64746 0.368264 0
M  V30 7649 H 716.387 4.18906 2.78437 0
M  V30 7650 H 716.087 5.60898 1.7512 0
M  V30 7651 H 717.611 5.48847 2.6758 0
M  V30 7652 H 719.025 5.71789 0.415985 0
M  V30 7653 H 717.422 5.99213 -0.326152 0
M  V30 7654 H 718.492 4.7461 -0.993631 0
M  V30 7655 N 719.835 0.176821 1.56605 0
M  V30 7656 C 721.083 -0.465793 1.96659 0
M  V30 7657 C 721.404 -1.63406 1.06412 0
M  V30 7658 O 720.674 -1.95457 0.131603 0
M  V30 7659 H 719.254 -0.175072 0.726195 0
M  V30 7660 H 721.916 0.25929 1.93168 0
M  V30 7661 H 721.012 -0.822138 3.01077 0
M  V30 7662 N 721.313 -1.57302 -0.09688 0
M  V30 7663 C 722.261 -2.02942 -1.13654 0
M  V30 7664 C 723.255 -0.930173 -1.41577 0
M  V30 7665 O 724.461 -1.11535 -1.41279 0
M  V30 7666 H 720.836 -0.646726 -0.383731 0
M  V30 7667 H 722.807 -2.89452 -0.725267 0
M  V30 7668 C 721.556 -2.46815 -2.44903 0
M  V30 7669 H 720.879 -3.30979 -2.24261 0
M  V30 7670 H 722.319 -2.82527 -3.16156 0
M  V30 7671 C 720.778 -1.34071 -3.09074 0
M  V30 7672 O 721.308 -0.668856 -3.96092 0
M  V30 7673 N 719.514 -1.09214 -2.69296 0
M  V30 7674 H 719.061 -1.64029 -1.98626 0
M  V30 7675 H 719.019 -0.339785 -3.12559 0
M  V30 7676 N 722.791 0.367657 -1.53252 0
M  V30 7677 C 724.04 1.10782 -1.68554 0
M  V30 7678 C 724.353 1.90523 -0.442765 0
M  V30 7679 O 725.559 2.6729 -0.47629 0
M  V30 7680 C 724.015 2.01863 -2.97959 0
M  V30 7681 C 723.623 1.27443 -4.29491 0
M  V30 7682 C 725.367 2.75883 -3.22628 0
M  V30 7683 C 723.274 2.17414 -5.49987 0
M  V30 7684 H 722.204 0.417272 -0.628013 0
M  V30 7685 H 724.855 0.368971 -1.79752 0
M  V30 7686 H 723.237 2.7947 -2.80558 0
M  V30 7687 H 724.411 0.549138 -4.57516 0
M  V30 7688 H 722.726 0.652935 -4.11249 0
M  V30 7689 H 725.323 3.43421 -4.09837 0
M  V30 7690 H 725.666 3.41138 -2.38601 0
M  V30 7691 H 726.199 2.0536 -3.40693 0
M  V30 7692 H 722.938 1.5674 -6.36485 0
M  V30 7693 H 722.458 2.87799 -5.26243 0
M  V30 7694 H 724.137 2.77019 -5.84696 0
M  V30 7695 N 724.269 1.44576 0.627338 0
M  V30 7696 C 725.199 1.54562 1.75022 0
M  V30 7697 C 726.18 0.398378 1.65369 0
M  V30 7698 O 727.365 0.61899 1.84071 0
M  V30 7699 C 724.495 1.49309 3.13567 0
M  V30 7700 C 723.449 2.62549 3.38012 0
M  V30 7701 C 722.775 2.42348 4.76625 0
M  V30 7702 C 724.075 4.04678 3.30202 0
M  V30 7703 H 725.769 2.4855 1.66922 0
M  V30 7704 H 723.315 1.19624 0.801636 0
M  V30 7705 H 725.268 1.54895 3.919 0
M  V30 7706 H 723.992 0.518392 3.2246 0
M  V30 7707 H 722.651 2.56358 2.62061 0
M  V30 7708 H 722.299 1.43062 4.82226 0
M  V30 7709 H 721.999 3.18273 4.93939 0
M  V30 7710 H 723.523 2.49758 5.57183 0
M  V30 7711 H 724.937 4.12217 3.98435 0
M  V30 7712 H 723.334 4.80836 3.5905 0
M  V30 7713 H 724.404 4.2798 2.27949 0
M  V30 7714 N 725.747 -0.868086 1.31537 0
M  V30 7715 C 727.158 -1.437 1.19195 0
M  V30 7716 C 727.509 -1.95169 -0.200842 0
M  V30 7717 O 726.634 -1.86432 -1.09872 0
M  V30 7718 C 727.229 -2.612 2.15778 0
M  V30 7719 C 725.788 -3.1413 2.07363 0
M  V30 7720 C 724.935 -1.86845 2.049 0
M  V30 7721 H 727.886 -0.676457 1.43561 0
M  V30 7722 H 727.907 -3.37948 1.74847 0
M  V30 7723 H 727.419 -2.23709 3.17137 0
M  V30 7724 H 725.52 -3.56238 1.09204 0
M  V30 7725 H 725.633 -3.76285 2.96557 0
M  V30 7726 H 723.997 -2.05886 1.49943 0
M  V30 7727 H 724.78 -1.51589 3.08019 0
M  V30 7728 N 727.225 -1.14528 -1.08264 0
M  V30 7729 C 728.471 -0.91576 -1.80947 0
M  V30 7730 C 728.804 0.55623 -1.86064 0
M  V30 7731 O 728.079 1.41207 -1.33756 0
M  V30 7732 C 728.362 -1.51917 -3.26486 0
M  V30 7733 C 728.215 -3.06111 -3.2957 0
M  V30 7734 C 729.534 -1.19724 -4.23502 0
M  V30 7735 H 726.653 -0.334113 -0.656915 0
M  V30 7736 H 729.295 -1.41547 -1.26746 0
M  V30 7737 H 727.445 -1.0942 -3.72773 0
M  V30 7738 H 729.117 -3.57448 -2.91597 0
M  V30 7739 H 727.36 -3.40483 -2.688 0
M  V30 7740 H 728.031 -3.43438 -4.32151 0
M  V30 7741 H 730.507 -1.56467 -3.85561 0
M  V30 7742 H 729.383 -1.64575 -5.23647 0
M  V30 7743 H 729.644 -0.112771 -4.41956 0
M  V30 7744 N 728.703 1.26451 -0.940633 0
M  V30 7745 C 729.928 1.98407 -0.60412 0
M  V30 7746 C 730.353 1.69584 0.81382 0
M  V30 7747 O 729.711 0.943553 1.54812 0
M  V30 7748 C 729.759 3.50387 -0.852136 0
M  V30 7749 O 728.863 4.1233 0.076013 0
M  V30 7750 H 728.204 0.622466 -0.231153 0
M  V30 7751 H 730.734 1.60932 -1.26342 0
M  V30 7752 H 730.744 4.00614 -0.772816 0
M  V30 7753 H 729.419 3.70696 -1.88566 0
M  V30 7754 H 727.996 3.7286 -0.0543187 0
M  V30 7755 N 730.181 0.707592 1.40822 0
M  V30 7756 C 731.128 0.0499029 2.30746 0
M  V30 7757 C 732.098 -0.758718 1.47759 0
M  V30 7758 O 733.283 -0.724299 1.76518 0
M  V30 7759 C 730.423 -0.871756 3.33908 0
M  V30 7760 C 729.536 -0.0534655 4.31967 0
M  V30 7761 C 728.671 -0.973869 5.22197 0
M  V30 7762 C 727.71 -0.149194 6.11918 0
M  V30 7763 N 726.847 -1.02404 6.94592 0
M  V30 7764 H 731.687 0.822461 2.86426 0
M  V30 7765 H 729.224 0.417285 1.41057 0
M  V30 7766 H 731.182 -1.42028 3.9228 0
M  V30 7767 H 729.812 -1.61058 2.7975 0
M  V30 7768 H 728.864 0.612142 3.75442 0
M  V30 7769 H 730.176 0.585354 4.95353 0
M  V30 7770 H 729.33 -1.59121 5.85462 0
M  V30 7771 H 728.069 -1.64652 4.59065 0
M  V30 7772 H 727.074 0.481137 5.47691 0
M  V30 7773 H 728.299 0.519841 6.77107 0
M  V30 7774 H 726.245 -1.6825 6.34057 0
M  V30 7775 H 726.162 -0.441076 7.54712 0
M  V30 7776 H 727.43 -1.62782 7.62314 0
M  V30 7777 N 731.66 -1.50943 0.453197 0
M  V30 7778 C 732.608 -2.29728 -0.364419 0
M  V30 7779 C 733.602 -1.36246 -1.00664 0
M  V30 7780 O 734.808 -1.53518 -0.939794 0
M  V30 7781 H 731.183 -0.739536 -0.136347 0
M  V30 7782 H 733.154 -2.96672 0.320696 0
M  V30 7783 C 731.903 -3.1629 -1.44415 0
M  V30 7784 H 731.226 -3.88119 -0.959343 0
M  V30 7785 H 732.666 -3.74444 -1.98917 0
M  V30 7786 C 731.125 -2.32702 -2.43622 0
M  V30 7787 O 731.655 -1.99763 -3.48508 0
M  V30 7788 N 729.861 -1.95621 -2.14897 0
M  V30 7789 H 729.408 -2.22607 -1.29629 0
M  V30 7790 H 729.366 -1.39993 -2.81513 0
M  V30 7791 N 733.138 -0.185124 -1.56509 0
M  V30 7792 C 734.386 0.455357 -1.96903 0
M  V30 7793 C 734.707 1.62839 -1.07277 0
M  V30 7794 O 733.977 1.95385 -0.141966 0
M  V30 7795 H 732.557 0.171218 -0.727113 0
M  V30 7796 H 735.219 -0.26953 -1.93027 0
M  V30 7797 H 734.315 0.80616 -3.01509 0
M  V30 7798 N 734.616 1.57351 0.0885366 0
M  V30 7799 C 735.564 2.03542 1.12576 0
M  V30 7800 C 736.558 0.937668 1.41082 0
M  V30 7801 O 737.764 1.12283 1.40686 0
M  V30 7802 H 734.139 0.648752 0.380296 0
M  V30 7803 H 736.11 2.89833 0.709906 0
M  V30 7804 C 734.859 2.4811 2.43591 0
M  V30 7805 H 734.182 3.32164 2.22502 0
M  V30 7806 H 735.622 2.842 3.14653 0
M  V30 7807 C 734.081 1.35708 3.08359 0
M  V30 7808 O 734.611 0.689852 3.95732 0
M  V30 7809 N 732.817 1.10641 2.68713 0
M  V30 7810 H 732.364 1.6508 1.97753 0
M  V30 7811 H 732.322 0.356355 3.12374 0
M  V30 7812 N 736.094 -0.359525 1.53444 0
M  V30 7813 C 737.057 -1.42357 1.7963 0
M  V30 7814 C 738.057 -1.46319 0.666884 0
M  V30 7815 O 739.247 -1.46974 0.935113 0
M  V30 7816 C 736.379 -2.81425 1.92387 0
M  V30 7817 H 737.572 -1.20409 2.74666 0
M  V30 7818 H 735.125 -0.593007 1.44614 0
M  V30 7819 H 735.86 -3.08679 0.994384 0
M  V30 7820 H 735.645 -2.79947 2.74539 0
M  V30 7821 H 737.135 -3.5847 2.14218 0
M  V30 7822 N 737.572 -1.44907 -0.619662 0
M  V30 7823 C 738.504 -1.48652 -1.74457 0
M  V30 7824 C 739.517 -0.378596 -1.58337 0
M  V30 7825 O 740.706 -0.644987 -1.6644 0
M  V30 7826 C 737.806 -1.31568 -3.12319 0
M  V30 7827 C 736.979 -2.55816 -3.54792 0
M  V30 7828 C 736.038 -2.33465 -4.71573 0
M  V30 7829 O 735.064 -3.07015 -4.79302 0
M  V30 7830 N 736.266 -1.37254 -5.6404 0
M  V30 7831 H 739.031 -2.45632 -1.71712 0
M  V30 7832 H 736.592 -1.40492 -0.804582 0
M  V30 7833 H 738.584 -1.14445 -3.88181 0
M  V30 7834 H 737.154 -0.429095 -3.09641 0
M  V30 7835 H 736.374 -2.88137 -2.69018 0
M  V30 7836 H 737.662 -3.38431 -3.79924 0
M  V30 7837 H 737.06 -0.765309 -5.60499 0
M  V30 7838 H 735.617 -1.26106 -6.39485 0
M  V30 7839 N 739.05 0.861098 -1.31996 0
M  V30 7840 C 740.296 1.61721 -1.22369 0
M  V30 7841 C 740.629 1.93 0.215587 0
M  V30 7842 O 739.904 1.56789 1.15098 0
M  V30 7843 C 740.187 2.9417 -2.07691 0
M  V30 7844 C 740.04 2.69714 -3.59965 0
M  V30 7845 C 741.359 3.95372 -1.93312 0
M  V30 7846 H 738.478 0.586822 -0.44588 0
M  V30 7847 H 741.12 0.994788 -1.61876 0
M  V30 7848 H 739.27 3.47292 -1.74128 0
M  V30 7849 H 740.942 2.23196 -4.03709 0
M  V30 7850 H 739.185 2.03789 -3.82952 0
M  V30 7851 H 739.856 3.63996 -4.14983 0
M  V30 7852 H 742.332 3.51487 -2.22701 0
M  V30 7853 H 741.208 4.85916 -2.55298 0
M  V30 7854 H 741.469 4.32865 -0.898922 0
M  V30 7855 N 740.528 1.15101 1.07655 0
M  V30 7856 C 741.476 0.840714 2.16875 0
M  V30 7857 C 742.47 -0.184594 1.68391 0
M  V30 7858 O 743.676 -0.0399315 1.79956 0
M  V30 7859 H 740.051 0.254192 0.707736 0
M  V30 7860 H 742.022 1.76959 2.40266 0
M  V30 7861 C 740.771 0.343018 3.46004 0
M  V30 7862 H 740.094 1.12335 3.83694 0
M  V30 7863 H 741.534 0.16453 4.23681 0
M  V30 7864 C 739.993 -0.934881 3.23669 0
M  V30 7865 O 740.523 -2.00706 3.47965 0
M  V30 7866 N 738.729 -0.873167 2.77172 0
M  V30 7867 H 738.276 -0.000479072 2.576 0
M  V30 7868 H 738.234 -1.72873 2.62607 0
M  V30 7869 N 742.006 -1.2595 0.947325 0
M  V30 7870 C 743.254 -1.93081 0.596996 0
M  V30 7871 C 743.575 -1.74632 -0.867672 0
M  V30 7872 O 742.845 -1.1056 -1.6172 0
M  V30 7873 H 741.425 -0.714542 0.217805 0
M  V30 7874 H 744.087 -1.53265 1.20398 0
M  V30 7875 H 743.183 -3.01134 0.82004 0
M  V30 7876 N 743.484 -0.715051 -1.40445 0
M  V30 7877 C 744.895 -0.326763 -1.83818 0
M  V30 7878 C 745.246 1.13851 -1.59789 0
M  V30 7879 O 744.371 1.87611 -1.07848 0
M  V30 7880 C 744.966 -0.586297 -3.33688 0
M  V30 7881 C 743.525 -0.251724 -3.75557 0
M  V30 7882 C 742.672 -0.858928 -2.63662 0
M  V30 7883 H 745.623 -0.914241 -1.2972 0
M  V30 7884 H 745.644 0.148636 -3.8021 0
M  V30 7885 H 745.156 -1.65281 -3.51146 0
M  V30 7886 H 743.257 0.809754 -3.63695 0
M  V30 7887 H 743.37 -0.720348 -4.73654 0
M  V30 7888 H 741.734 -0.287013 -2.53078 0
M  V30 7889 H 742.517 -1.9297 -2.83932 0
M  V30 7890 N 744.962 1.50701 -0.461195 0
M  V30 7891 C 746.208 2.02566 0.0973411 0
M  V30 7892 C 746.541 1.3432 1.40257 0
M  V30 7893 O 745.816 0.465692 1.88843 0
M  V30 7894 C 746.099 3.58919 0.291423 0
M  V30 7895 C 745.952 4.37751 -1.03413 0
M  V30 7896 C 747.271 4.27379 1.05048 0
M  V30 7897 H 744.39 0.73622 0.0339026 0
M  V30 7898 H 747.032 1.80115 -0.604855 0
M  V30 7899 H 745.182 3.78179 0.889539 0
M  V30 7900 H 746.854 4.30085 -1.66806 0
M  V30 7901 H 745.097 4.01885 -1.63313 0
M  V30 7902 H 745.768 5.45384 -0.852085 0
M  V30 7903 H 748.244 4.12534 0.543603 0
M  V30 7904 H 747.12 5.36609 1.15506 0
M  V30 7905 H 747.381 3.89868 2.0846 0
M  V30 7906 N 746.441 0.193421 1.56409 0
M  V30 7907 C 747.69 -0.445995 1.96707 0
M  V30 7908 C 748.003 -1.62876 1.08309 0
M  V30 7909 O 749.209 -2.33586 1.38383 0
M  V30 7910 C 747.665 -0.844863 3.49843 0
M  V30 7911 C 747.273 0.31352 4.46902 0
M  V30 7912 C 749.017 -1.45146 3.98915 0
M  V30 7913 C 746.924 -0.106214 5.91305 0
M  V30 7914 H 745.854 -0.170398 0.734493 0
M  V30 7915 H 748.505 0.285172 1.81271 0
M  V30 7916 H 746.887 -1.63265 3.60778 0
M  V30 7917 H 748.061 1.09103 4.47698 0
M  V30 7918 H 746.376 0.8315 4.08014 0
M  V30 7919 H 748.973 -1.77792 5.04276 0
M  V30 7920 H 749.316 -2.35734 3.43126 0
M  V30 7921 H 749.849 -0.727675 3.91088 0
M  V30 7922 H 746.588 0.765442 6.51016 0
M  V30 7923 H 746.108 -0.848623 5.93766 0
M  V30 7924 H 747.787 -0.542588 6.44721 0
M  V30 7925 N 747.919 -1.57396 -0.0801906 0
M  V30 7926 C 749.144 -1.91437 -0.797909 0
M  V30 7927 C 749.569 -0.789075 -1.70749 0
M  V30 7928 O 748.927 0.25857 -1.79447 0
M  V30 7929 C 748.975 -3.24402 -1.57467 0
M  V30 7930 O 748.079 -3.13043 -2.68473 0
M  V30 7931 H 747.42 -0.627109 -0.218243 0
M  V30 7932 H 749.95 -2.04537 -0.050949 0
M  V30 7933 H 749.96 -3.58072 -1.95571 0
M  V30 7934 H 748.635 -4.05884 -0.907229 0
M  V30 7935 H 747.212 -2.90915 -2.33287 0
M  V30 7936 N 749.397 0.351382 -1.53633 0
M  V30 7937 C 750.625 1.11275 -1.74429 0
M  V30 7938 C 751.04 1.82602 -0.479798 0
M  V30 7939 O 750.397 1.74074 0.548125 0
M  V30 7940 C 750.448 2.13223 -2.91921 0
M  V30 7941 O 750.169 1.44798 -4.13479 0
M  V30 7942 C 751.67 3.01797 -3.24706 0
M  V30 7943 H 748.89 0.332153 -0.583023 0
M  V30 7944 H 751.434 0.405974 -2.0043 0
M  V30 7945 H 749.589 2.79477 -2.68274 0
M  V30 7946 H 750.003 2.12839 -4.79374 0
M  V30 7947 H 751.477 3.69282 -4.10286 0
M  V30 7948 H 751.954 3.67387 -2.40673 0
M  V30 7949 H 752.56 2.41141 -3.5033 0
M  V30 7950 N 750.875 1.45233 0.611969 0
M  V30 7951 C 752.121 1.49242 1.37312 0
M  V30 7952 C 752.454 0.131963 1.93751 0
M  V30 7953 O 751.729 -0.852999 1.74798 0
M  V30 7954 C 752.012 2.56811 2.52428 0
M  V30 7955 C 751.865 4.02284 2.01215 0
M  V30 7956 C 753.184 2.60705 3.54572 0
M  V30 7957 H 750.303 0.54336 0.497925 0
M  V30 7958 H 752.945 1.77019 0.690242 0
M  V30 7959 H 751.095 2.33256 3.10683 0
M  V30 7960 H 752.767 4.37035 1.47643 0
M  V30 7961 H 751.01 4.1315 1.32248 0
M  V30 7962 H 751.681 4.7323 2.84178 0
M  V30 7963 H 754.157 2.81799 3.06151 0
M  V30 7964 H 753.033 3.37841 4.32614 0
M  V30 7965 H 753.294 1.65627 4.09903 0
M  V30 7966 N 752.353 -0.854086 1.3245 0
M  V30 7967 C 753.602 -1.60318 1.22397 0
M  V30 7968 C 753.915 -1.9444 -0.212664 0
M  V30 7969 O 755.121 -2.67991 -0.435066 0
M  V30 7970 C 753.577 -2.8909 2.1437 0
M  V30 7971 C 753.185 -2.62391 3.63119 0
M  V30 7972 C 754.929 -3.67104 2.13155 0
M  V30 7973 C 752.836 -3.87167 4.47052 0
M  V30 7974 H 751.766 -0.601586 0.454544 0
M  V30 7975 H 754.417 -0.943023 1.57415 0
M  V30 7976 H 752.799 -3.56567 1.72268 0
M  V30 7977 H 753.973 -2.03222 4.13567 0
M  V30 7978 H 752.288 -1.97706 3.66471 0
M  V30 7979 H 754.885 -4.59696 2.731 0
M  V30 7980 H 755.228 -4.00876 1.12268 0
M  V30 7981 H 755.761 -3.06533 2.5354 0
M  V30 7982 H 752.5 -3.58536 5.48755 0
M  V30 7983 H 752.02 -4.45729 4.01355 0
M  V30 7984 H 753.699 -4.549 4.60081 0
M  V30 7985 N 753.831 -1.1567 -1.07043 0
M  V30 7986 C 754.763 -0.814095 -2.14255 0
M  V30 7987 C 755.776 0.175293 -1.61854 0
M  V30 7988 O 756.965 -0.0483984 -1.78434 0
M  V30 7989 C 754.065 -0.190082 -3.38367 0
M  V30 7990 C 753.238 -1.21768 -4.20109 0
M  V30 7991 C 752.297 -0.614863 -5.22595 0
M  V30 7992 O 751.323 -1.28167 -5.54583 0
M  V30 7993 N 752.525 0.601955 -5.77371 0
M  V30 7994 H 755.29 -1.73677 -2.44247 0
M  V30 7995 H 752.851 -1.05301 -1.22977 0
M  V30 7996 H 754.843 0.22604 -4.04068 0
M  V30 7997 H 753.413 0.635992 -3.06062 0
M  V30 7998 H 752.633 -1.81025 -3.50177 0
M  V30 7999 H 753.921 -1.9114 -4.71533 0
M  V30 8000 H 753.319 1.162 -5.53637 0
M  V30 8001 H 751.876 0.96039 -6.44686 0
M  V30 8002 N 755.309 1.25446 -0.953992 0
M  V30 8003 C 756.257 2.27909 -0.46478 0
M  V30 8004 C 757.251 1.62904 0.464607 0
M  V30 8005 O 758.457 1.76733 0.341407 0
M  V30 8006 H 754.832 0.74036 -0.131798 0
M  V30 8007 H 756.803 2.66559 -1.34122 0
M  V30 8008 C 755.552 3.46853 0.242589 0
M  V30 8009 H 754.875 3.97105 -0.463418 0
M  V30 8010 H 756.315 4.20432 0.548919 0
M  V30 8011 C 754.774 3.03386 1.46487 0
M  V30 8012 O 755.304 3.09342 2.56262 0
M  V30 8013 N 753.51 2.58584 1.32599 0
M  V30 8014 H 753.057 2.53938 0.432834 0
M  V30 8015 H 753.015 2.29866 2.14497 0
M  V30 8016 N 756.787 0.722489 1.40064 0
M  V30 8017 C 758.017 0.274439 2.04769 0
M  V30 8018 C 758.425 -1.09125 1.54559 0
M  V30 8019 O 757.768 -1.69834 0.700149 0
M  V30 8020 C 757.83 0.184091 3.59028 0
M  V30 8021 C 757.494 1.48619 4.32159 0
M  V30 8022 C 758.491 2.42947 4.59644 0
M  V30 8023 C 756.176 1.74703 4.7094 0
M  V30 8024 C 758.17 3.616 5.24904 0
M  V30 8025 C 755.857 2.93636 5.3593 0
M  V30 8026 C 756.855 3.86907 5.62843 0
M  V30 8027 O 756.543 5.03753 6.26489 0
M  V30 8028 H 756.275 0.119847 0.665292 0
M  V30 8029 H 758.829 0.983352 1.80331 0
M  V30 8030 H 757.059 -0.580821 3.82313 0
M  V30 8031 H 758.748 -0.230306 4.05246 0
M  V30 8032 H 759.514 2.24062 4.30141 0
M  V30 8033 H 755.393 1.02955 4.49356 0
M  V30 8034 H 758.937 4.34418 5.45827 0
M  V30 8035 H 754.834 3.12428 5.64853 0
M  V30 8036 H 755.602 5.03922 6.44984 0
M  V30 8037 N 758.265 -1.50454 0.469181 0
M  V30 8038 C 759.49 -2.0722 -0.0864892 0
M  V30 8039 C 759.915 -1.33098 -1.32916 0
M  V30 8040 O 759.273 -0.378084 -1.77314 0
M  V30 8041 C 759.321 -3.58845 -0.355384 0
M  V30 8042 O 758.425 -3.86583 -1.43622 0
M  V30 8043 H 757.766 -0.663889 0.0121414 0
M  V30 8044 H 760.296 -1.93674 0.659674 0
M  V30 8045 H 760.306 -4.03617 -0.596447 0
M  V30 8046 H 758.981 -4.12211 0.552698 0
M  V30 8047 H 757.558 -3.5365 -1.18262 0
M  V30 8048 N 759.743 -0.201713 -1.56304 0
M  V30 8049 C 760.992 0.435557 -1.96941 0
M  V30 8050 C 761.305 1.62299 -1.09172 0
M  V30 8051 O 762.511 2.32849 -1.3962 0
M  V30 8052 C 760.967 0.826298 -3.50286 0
M  V30 8053 C 760.575 -0.337216 -4.46729 0
M  V30 8054 C 762.319 1.43028 -3.99679 0
M  V30 8055 C 760.226 0.0748539 -5.91353 0
M  V30 8056 H 759.156 0.1665 -0.735387 0
M  V30 8057 H 761.807 -0.294781 -1.81117 0
M  V30 8058 H 760.189 1.61349 -3.61639 0
M  V30 8059 H 761.363 -1.11476 -4.47113 0
M  V30 8060 H 759.678 -0.853126 -4.07567 0
M  V30 8061 H 762.275 1.75115 -5.05212 0
M  V30 8062 H 762.618 2.33911 -3.44371 0
M  V30 8063 H 763.151 0.706924 -3.91468 0
M  V30 8064 H 759.89 -0.799957 -6.506 0
M  V30 8065 H 759.41 0.817122 -5.94208 0
M  V30 8066 H 761.089 0.508389 -6.45 0
M  V30 8067 N 761.222 1.57436 0.0718424 0
M  V30 8068 C 762.17 2.04725 1.10411 0
M  V30 8069 C 763.164 0.952579 1.4008 0
M  V30 8070 O 764.37 1.13769 1.39487 0
M  V30 8071 H 760.745 0.652749 0.373393 0
M  V30 8072 H 762.716 2.90569 0.679126 0
M  V30 8073 C 761.465 2.5068 2.40946 0
M  V30 8074 H 760.788 3.34505 2.18967 0
M  V30 8075 H 762.228 2.87521 3.11621 0
M  V30 8076 C 760.687 1.38971 3.06902 0
M  V30 8077 O 761.217 0.731786 3.94978 0
M  V30 8078 N 759.423 1.13485 2.67525 0
M  V30 8079 H 758.97 1.67168 1.95991 0
M  V30 8080 H 758.928 0.389467 3.11978 0
M  V30 8081 N 762.7 -0.34323 1.53817 0
M  V30 8082 C 763.61 -1.44493 1.84821 0
M  V30 8083 C 764.626 -1.57556 0.738381 0
M  V30 8084 O 765.802 -1.73026 1.03072 0
M  V30 8085 C 762.867 -2.79478 2.05166 0
M  V30 8086 C 761.928 -2.75756 3.29025 0
M  V30 8087 C 761.161 -4.04302 3.4839 0
M  V30 8088 O 761.384 -5.01595 2.71586 0
M  V30 8089 O 760.318 -4.08754 4.41819 0
M  V30 8090 H 764.144 -1.21209 2.78464 0
M  V30 8091 H 761.729 -0.535437 1.39476 0
M  V30 8092 H 763.611 -3.59419 2.19991 0
M  V30 8093 H 762.286 -3.02692 1.14713 0
M  V30 8094 H 761.193 -1.94434 3.19603 0
M  V30 8095 H 762.526 -2.57495 4.19472 0
M  V30 8096 N 764.178 -1.45556 -0.604258 0
M  V30 8097 C 765.424 -1.49968 -1.36519 0
M  V30 8098 C 765.757 -0.142236 -1.93678 0
M  V30 8099 O 765.032 0.843717 -1.75247 0
M  V30 8100 C 765.315 -2.58146 -2.51063 0
M  V30 8101 C 765.168 -4.03346 -1.99078 0
M  V30 8102 C 766.487 -2.62581 -3.53184 0
M  V30 8103 H 763.606 -0.545993 -0.495036 0
M  V30 8104 H 766.248 -1.77382 -0.680845 0
M  V30 8105 H 764.398 -2.34901 -3.09441 0
M  V30 8106 H 766.07 -4.37811 -1.45323 0
M  V30 8107 H 764.313 -4.13845 -1.30055 0
M  V30 8108 H 764.984 -4.74731 -2.81664 0
M  V30 8109 H 767.46 -2.83419 -3.04652 0
M  V30 8110 H 766.336 -3.40131 -4.30816 0
M  V30 8111 H 766.597 -1.67798 -4.09019 0
M  V30 8112 N 765.656 0.84705 -1.32902 0
M  V30 8113 C 766.903 1.60176 -1.23894 0
M  V30 8114 C 767.231 1.93496 0.197341 0
M  V30 8115 O 766.486 1.58173 1.15238 0
M  V30 8116 C 766.785 2.92663 -2.05142 0
M  V30 8117 C 766.451 2.7874 -3.54422 0
M  V30 8118 C 765.113 2.7465 -3.95121 0
M  V30 8119 C 767.465 2.64128 -4.49317 0
M  V30 8120 C 764.793 2.53837 -5.28946 0
M  V30 8121 C 767.145 2.44849 -5.83294 0
M  V30 8122 C 765.809 2.39156 -6.23186 0
M  V30 8123 H 765.079 0.586127 -0.453361 0
M  V30 8124 H 767.726 0.981994 -1.64405 0
M  V30 8125 H 766.031 3.588 -1.57383 0
M  V30 8126 H 767.728 3.50095 -1.95537 0
M  V30 8127 H 764.318 2.82751 -3.22102 0
M  V30 8128 H 768.502 2.66327 -4.18788 0
M  V30 8129 H 763.758 2.4787 -5.58901 0
M  V30 8130 H 767.932 2.32524 -6.56434 0
M  V30 8131 H 765.559 2.22789 -7.26821 0
M  V30 8132 N 767.134 1.16236 1.06428 0
M  V30 8133 C 768.064 0.890807 2.1584 0
M  V30 8134 C 769.045 -0.162333 1.69324 0
M  V30 8135 O 770.23 -0.0147191 1.94194 0
M  V30 8136 C 767.36 0.389615 3.45108 0
M  V30 8137 C 766.314 1.38051 4.05125 0
M  V30 8138 C 765.64 0.737773 5.29586 0
M  V30 8139 C 766.94 2.74965 4.44062 0
M  V30 8140 H 768.634 1.80577 2.38814 0
M  V30 8141 H 766.18 0.869657 1.14774 0
M  V30 8142 H 768.133 0.187127 4.20984 0
M  V30 8143 H 766.857 -0.560851 3.21748 0
M  V30 8144 H 765.516 1.56952 3.31303 0
M  V30 8145 H 765.164 -0.219135 5.02522 0
M  V30 8146 H 764.864 1.39914 5.70699 0
M  V30 8147 H 766.388 0.545275 6.0816 0
M  V30 8148 H 767.802 2.59855 5.11027 0
M  V30 8149 H 766.199 3.37563 4.96156 0
M  V30 8150 H 767.269 3.30321 3.54987 0
M  V30 8151 N 768.612 -1.24939 0.960631 0
M  V30 8152 C 769.859 -1.92818 0.618663 0
M  V30 8153 C 770.187 -1.75177 -0.845173 0
M  V30 8154 O 769.442 -1.09412 -1.62258 0
M  V30 8155 C 769.741 -3.45066 0.930809 0
M  V30 8156 C 769.407 -3.82869 2.38164 0
M  V30 8157 C 768.069 -3.92899 2.7782 0
M  V30 8158 C 770.421 -4.01483 3.32356 0
M  V30 8159 C 767.749 -4.18955 4.10723 0
M  V30 8160 C 770.101 -4.29033 4.6488 0
M  V30 8161 C 768.765 -4.37282 5.04322 0
M  V30 8162 H 768.035 -0.705571 0.226385 0
M  V30 8163 H 770.682 -1.48365 1.21079 0
M  V30 8164 H 768.987 -3.9096 0.256355 0
M  V30 8165 H 770.684 -3.95783 0.644712 0
M  V30 8166 H 767.274 -3.75622 2.06413 0
M  V30 8167 H 771.458 -3.93143 3.02907 0
M  V30 8168 H 766.714 -4.23558 4.40918 0
M  V30 8169 H 770.888 -4.42381 5.3784 0
M  V30 8170 H 768.515 -4.57225 6.0733 0
M  V30 8171 N 770.09 -0.729906 -1.39679 0
M  V30 8172 C 771.337 -0.275622 -2.00615 0
M  V30 8173 C 771.665 1.13559 -1.57907 0
M  V30 8174 O 770.92 1.78745 -0.796789 0
M  V30 8175 C 771.219 -0.319564 -3.55968 0
M  V30 8176 C 770.885 -1.68308 -4.1831 0
M  V30 8177 C 769.547 -2.05629 -4.35052 0
M  V30 8178 C 771.899 -2.57857 -4.52945 0
M  V30 8179 C 769.227 -3.32018 -4.83716 0
M  V30 8180 C 771.579 -3.83613 -5.03015 0
M  V30 8181 C 770.243 -4.21033 -5.17965 0
M  V30 8182 H 769.513 -0.100857 -0.734104 0
M  V30 8183 H 772.16 -0.93575 -1.67081 0
M  V30 8184 H 770.465 0.42414 -3.89497 0
M  V30 8185 H 772.162 0.0499905 -4.00969 0
M  V30 8186 H 768.752 -1.3829 -4.05677 0
M  V30 8187 H 772.936 -2.30295 -4.39634 0
M  V30 8188 H 768.192 -3.6096 -4.93475 0
M  V30 8189 H 772.366 -4.53162 -5.28788 0
M  V30 8190 H 769.993 -5.19034 -5.55435 0
M  V30 8191 N 771.568 1.50203 -0.477153 0
M  V30 8192 C 772.793 2.07263 0.0754986 0
M  V30 8193 C 773.218 1.33801 1.32208 0
M  V30 8194 O 772.576 0.387482 1.77111 0
M  V30 8195 C 772.624 3.59028 0.336348 0
M  V30 8196 O 771.728 3.87339 1.4157 0
M  V30 8197 H 771.069 0.663815 -0.015662 0
M  V30 8198 H 773.599 1.93321 -0.669936 0
M  V30 8199 H 773.609 4.03927 0.575034 0
M  V30 8200 H 772.284 4.11912 -0.574551 0
M  V30 8201 H 770.861 3.54272 1.16385 0
M  V30 8202 N 773.046 0.209999 1.56195 0
M  V30 8203 C 773.993 -0.704854 2.19774 0
M  V30 8204 C 774.963 -1.19886 1.14964 0
M  V30 8205 O 776.148 -1.26005 1.43274 0
M  V30 8206 C 773.288 -1.91241 2.87265 0
M  V30 8207 C 772.401 -1.45838 4.06639 0
M  V30 8208 C 771.536 -2.6226 4.61945 0
M  V30 8209 C 770.575 -2.13537 5.73645 0
M  V30 8210 N 769.712 -3.2319 6.23292 0
M  V30 8211 H 774.552 -0.155944 2.97592 0
M  V30 8212 H 772.089 -0.0652235 1.46955 0
M  V30 8213 H 774.047 -2.62123 3.24573 0
M  V30 8214 H 772.677 -2.43439 2.11985 0
M  V30 8215 H 771.729 -0.644897 3.74894 0
M  V30 8216 H 773.041 -1.06103 4.87384 0
M  V30 8217 H 772.195 -3.41243 5.01636 0
M  V30 8218 H 770.934 -3.05278 3.80338 0
M  V30 8219 H 769.939 -1.33013 5.33468 0
M  V30 8220 H 771.164 -1.71533 6.57079 0
M  V30 8221 H 769.11 -3.65711 5.44602 0
M  V30 8222 H 769.027 -2.8767 6.99129 0
M  V30 8223 H 770.295 -4.02342 6.67639 0
M  V30 8224 N 774.524 -1.57472 -0.0634922 0
M  V30 8225 C 775.773 -1.86837 -0.759928 0
M  V30 8226 C 776.086 -0.803823 -1.7832 0
M  V30 8227 O 777.292 -0.985578 -2.52979 0
M  V30 8228 C 775.748 -3.31448 -1.4025 0
M  V30 8229 C 775.356 -4.46052 -0.417368 0
M  V30 8230 C 777.1 -3.70003 -2.08082 0
M  V30 8231 C 775.007 -5.81707 -1.06633 0
M  V30 8232 H 773.937 -0.697009 -0.287567 0
M  V30 8233 H 776.588 -1.83495 -0.0133914 0
M  V30 8234 H 774.97 -3.29427 -2.19759 0
M  V30 8235 H 776.144 -4.5948 0.348503 0
M  V30 8236 H 774.459 -4.16104 0.156955 0
M  V30 8237 H 777.056 -4.68653 -2.57426 0
M  V30 8238 H 777.399 -3.00226 -2.88393 0
M  V30 8239 H 777.932 -3.7405 -1.35394 0
M  V30 8240 H 774.671 -6.54798 -0.303374 0
M  V30 8241 H 774.191 -5.72064 -1.80286 0
M  V30 8242 H 775.87 -6.27317 -1.58376 0
M  V30 8243 N 776.003 0.335068 -1.53997 0
M  V30 8244 C 776.913 1.43511 -1.85585 0
M  V30 8245 C 777.929 1.57162 -0.746726 0
M  V30 8246 O 779.105 1.72477 -1.03988 0
M  V30 8247 C 776.17 2.78386 -2.06646 0
M  V30 8248 C 775.231 2.74007 -3.30483 0
M  V30 8249 C 774.464 4.02449 -3.50529 0
M  V30 8250 O 774.687 5.00147 -2.74242 0
M  V30 8251 O 773.621 4.06405 -4.4398 0
M  V30 8252 H 777.447 1.19731 -2.79102 0
M  V30 8253 H 775.032 0.528033 -1.39758 0
M  V30 8254 H 776.914 3.58247 -2.21894 0
M  V30 8255 H 775.589 3.0208 -1.16317 0
M  V30 8256 H 774.496 1.92736 -3.2063 0
M  V30 8257 H 775.829 2.55267 -4.20832 0
M  V30 8258 N 777.481 1.45874 0.596531 0
M  V30 8259 C 778.706 1.54247 1.38646 0
M  V30 8260 C 779.131 0.179571 1.87241 0
M  V30 8261 O 778.489 -0.837831 1.6078 0
M  V30 8262 C 778.537 2.54015 2.55946 0
M  V30 8263 O 777.641 2.06561 3.5694 0
M  V30 8264 H 776.982 0.519555 0.413471 0
M  V30 8265 H 779.512 1.91327 0.724936 0
M  V30 8266 H 779.522 2.73179 3.03047 0
M  V30 8267 H 778.197 3.52994 2.19928 0
M  V30 8268 H 776.774 1.97324 3.16414 0
M  V30 8269 N 778.959 -0.83999 1.33349 0
M  V30 8270 C 779.907 -1.97113 1.23488 0
M  V30 8271 C 780.901 -1.68849 0.136503 0
M  V30 8272 O 782.107 -1.77476 0.300389 0
M  V30 8273 H 778.482 -0.647049 0.383185 0
M  V30 8274 H 780.453 -2.02554 2.19122 0
M  V30 8275 C 779.202 -3.33314 0.989815 0
M  V30 8276 H 778.525 -3.556 1.82726 0
M  V30 8277 H 779.965 -4.12963 0.961123 0
M  V30 8278 C 778.424 -3.35496 -0.307272 0
M  V30 8279 O 778.954 -3.79589 -1.31434 0
M  V30 8280 N 777.16 -2.88669 -0.334414 0
M  V30 8281 H 776.707 -2.5298 0.485659 0
M  V30 8282 H 776.665 -2.90512 -1.20209 0
M  V30 8283 N 780.437 -1.16799 -1.0581 0
M  V30 8284 C 781.367 -0.902241 -2.15364 0
M  V30 8285 C 782.348 0.153351 -1.69407 0
M  V30 8286 O 783.533 0.00442032 -1.94199 0
M  V30 8287 C 780.663 -0.407911 -3.44896 0
M  V30 8288 C 779.617 -1.40197 -4.04387 0
M  V30 8289 C 778.943 -0.765848 -5.29187 0
M  V30 8290 C 780.243 -2.77316 -4.42598 0
M  V30 8291 H 781.937 -1.81841 -2.37853 0
M  V30 8292 H 779.483 -0.875731 -1.14311 0
M  V30 8293 H 781.436 -0.20945 -4.20879 0
M  V30 8294 H 780.16 0.54378 -3.22041 0
M  V30 8295 H 778.819 -1.58707 -3.30466 0
M  V30 8296 H 778.467 0.192482 -5.02632 0
M  V30 8297 H 778.167 -1.42939 -5.69949 0
M  V30 8298 H 779.691 -0.577519 -6.07863 0
M  V30 8299 H 781.105 -2.62561 -5.09642 0
M  V30 8300 H 779.502 -3.4019 -4.94359 0
M  V30 8301 H 780.572 -3.32199 -3.53231 0
M  V30 8302 N 781.915 1.24427 -0.967243 0
M  V30 8303 C 783.14 1.9708 -0.646069 0
M  V30 8304 C 783.565 1.71272 0.777665 0
M  V30 8305 O 782.923 0.976179 1.52776 0
M  V30 8306 C 782.971 3.48501 -0.926266 0
M  V30 8307 O 782.075 4.12398 -0.0114653 0
M  V30 8308 H 781.416 0.617423 -0.244304 0
M  V30 8309 H 783.946 1.58215 -1.29727 0
M  V30 8310 H 783.956 3.98885 -0.857619 0
M  V30 8311 H 782.631 3.66613 -1.96386 0
M  V30 8312 H 781.208 3.72661 -0.133396 0
M  V30 8313 N 783.393 0.737304 1.3929 0
M  V30 8314 C 784.325 0.0592106 2.29124 0
M  V30 8315 C 785.338 -0.701026 1.46934 0
M  V30 8316 O 786.527 -0.544808 1.69983 0
M  V30 8317 C 783.627 -0.940358 3.25592 0
M  V30 8318 C 782.8 -0.241163 4.36735 0
M  V30 8319 C 781.859 -1.14916 5.13498 0
M  V30 8320 O 780.885 -0.625783 5.6575 0
M  V30 8321 N 782.087 -2.47869 5.2492 0
M  V30 8322 H 784.852 0.830647 2.87959 0
M  V30 8323 H 782.413 0.586718 1.50895 0
M  V30 8324 H 784.405 -1.55046 3.73822 0
M  V30 8325 H 782.975 -1.61299 2.67771 0
M  V30 8326 H 782.195 0.549441 3.90352 0
M  V30 8327 H 783.483 0.243299 5.08218 0
M  V30 8328 H 782.881 -2.92864 4.83991 0
M  V30 8329 H 781.438 -3.03969 5.76581 0
M  V30 8330 N 784.871 -1.49948 0.485112 0
M  V30 8331 C 786.282 -1.8667 0.0334041 0
M  V30 8332 C 786.633 -1.3988 -1.37579 0
M  V30 8333 O 785.758 -0.769788 -2.02245 0
M  V30 8334 C 786.353 -3.38757 0.0538426 0
M  V30 8335 C 784.912 -3.74839 -0.342453 0
M  V30 8336 C 784.059 -2.73894 0.433281 0
M  V30 8337 H 787.01 -1.42492 0.698699 0
M  V30 8338 H 787.031 -3.73132 -0.745146 0
M  V30 8339 H 786.543 -3.72782 1.07959 0
M  V30 8340 H 784.644 -3.46419 -1.37203 0
M  V30 8341 H 784.757 -4.79088 -0.0340503 0
M  V30 8342 H 783.121 -2.54441 -0.114849 0
M  V30 8343 H 783.904 -3.10763 1.45881 0
M  V30 8344 N 786.349 -0.21828 -1.56081 0
M  V30 8345 C 787.299 0.706492 -2.16778 0
M  V30 8346 C 788.283 1.15987 -1.11516 0
M  V30 8347 O 789.475 1.11441 -1.37513 0
M  V30 8348 C 786.604 1.91583 -2.8487 0
M  V30 8349 C 785.69 1.48228 -3.97353 0
M  V30 8350 N 786.081 0.761113 -5.00041 0
M  V30 8351 C 784.379 1.76982 -4.09382 0
M  V30 8352 C 785.08 0.540496 -5.79184 0
M  V30 8353 N 784.056 1.09622 -5.32432 0
M  V30 8354 H 787.858 0.147038 -2.93532 0
M  V30 8355 H 785.372 -0.0194049 -1.62388 0
M  V30 8356 H 787.369 2.58906 -3.26762 0
M  V30 8357 H 786.029 2.47979 -2.09611 0
M  V30 8358 H 787.04 0.414141 -5.16241 0
M  V30 8359 H 783.717 2.34721 -3.45271 0
M  V30 8360 H 785.107 -0.0332531 -6.71892 0
M  V30 8361 N 787.827 1.57504 0.0551401 0
M  V30 8362 C 789.067 1.89895 0.756252 0
M  V30 8363 C 789.431 0.813983 1.73892 0
M  V30 8364 O 790.632 1.02145 2.48636 0
M  V30 8365 C 788.903 3.27494 1.43116 0
M  V30 8366 S 790.462 3.81669 2.16504 0
M  V30 8367 H 787.28 0.665173 0.251129 0
M  V30 8368 H 789.882 1.95496 0.0117193 0
M  V30 8369 H 788.586 4.04345 0.702391 0
M  V30 8370 H 788.117 3.25132 2.21479 0
M  V30 8371 H 790.132 3.58295 3.43277 0
M  V30 8372 N 789.305 -0.326896 1.54172 0
M  V30 8373 C 790.551 -1.06681 1.72473 0
M  V30 8374 C 790.884 -1.87779 0.49523 0
M  V30 8375 O 790.159 -1.87754 -0.507803 0
M  V30 8376 C 790.442 -1.99429 2.99834 0
M  V30 8377 C 790.295 -1.21682 4.33028 0
M  V30 8378 C 791.614 -2.99002 3.22933 0
M  V30 8379 H 788.733 -0.386438 0.627563 0
M  V30 8380 H 791.375 -0.343779 1.86864 0
M  V30 8381 H 789.525 -2.61081 2.87696 0
M  V30 8382 H 791.197 -0.625153 4.57044 0
M  V30 8383 H 789.44 -0.519045 4.30684 0
M  V30 8384 H 790.111 -1.89766 5.18356 0
M  V30 8385 H 792.587 -2.4747 3.34511 0
M  V30 8386 H 791.463 -3.61085 4.13412 0
M  V30 8387 H 791.724 -3.71281 2.40006 0
M  V30 8388 N 790.784 -1.46188 -0.588786 0
M  V30 8389 C 792.031 -1.51184 -1.34721 0
M  V30 8390 C 792.359 -0.161084 -1.93832 0
M  V30 8391 O 791.614 0.842557 -1.76634 0
M  V30 8392 C 791.913 -2.55364 -2.50048 0
M  V30 8393 C 791.579 -3.99553 -2.08969 0
M  V30 8394 C 790.241 -4.38811 -1.9748 0
M  V30 8395 C 792.593 -4.90156 -1.77191 0
M  V30 8396 C 789.921 -5.66544 -1.52463 0
M  V30 8397 C 792.273 -6.1832 -1.33654 0
M  V30 8398 C 790.937 -6.5649 -1.20738 0
M  V30 8399 H 790.207 -0.55322 -0.49298 0
M  V30 8400 H 792.854 -1.79634 -0.663627 0
M  V30 8401 H 791.159 -2.20552 -3.23827 0
M  V30 8402 H 792.856 -2.5646 -3.08268 0
M  V30 8403 H 789.446 -3.68518 -2.18843 0
M  V30 8404 H 793.63 -4.60549 -1.84955 0
M  V30 8405 H 788.886 -5.94895 -1.411 0
M  V30 8406 H 793.06 -6.87956 -1.08117 0
M  V30 8407 H 790.687 -7.55362 -0.856307 0
M  V30 8408 N 792.262 0.832906 -1.33792 0
M  V30 8409 C 793.508 1.59053 -1.26782 0
M  V30 8410 C 793.863 1.91705 0.163399 0
M  V30 8411 O 793.156 1.5638 1.10706 0
M  V30 8412 C 793.35 2.9047 -2.08235 0
M  V30 8413 C 793.179 2.70656 -3.59132 0
M  V30 8414 C 791.949 2.67905 -4.28433 0
M  V30 8415 C 794.147 2.42871 -4.53341 0
M  V30 8416 N 792.129 2.39531 -5.65242 0
M  V30 8417 C 793.5 2.24101 -5.78082 0
M  V30 8418 C 795.555 2.28517 -4.42362 0
M  V30 8419 C 794.258 1.92432 -6.93082 0
M  V30 8420 C 796.284 1.98242 -5.57184 0
M  V30 8421 C 795.646 1.80288 -6.80937 0
M  V30 8422 H 791.745 0.584823 -0.51914 0
M  V30 8423 H 794.329 0.977252 -1.68398 0
M  V30 8424 H 792.5 3.49739 -1.6893 0
M  V30 8425 H 794.232 3.55744 -1.92947 0
M  V30 8426 H 790.987 2.81624 -3.80768 0
M  V30 8427 H 791.411 2.28211 -6.37377 0
M  V30 8428 H 796.053 2.41107 -3.47314 0
M  V30 8429 H 793.771 1.78579 -7.88121 0
M  V30 8430 H 797.357 1.87882 -5.50628 0
M  V30 8431 H 796.237 1.57199 -7.68283 0
M  V30 8432 N 793.74 1.17359 1.05189 0
M  V30 8433 C 795.017 0.871914 1.75091 0
M  V30 8434 C 795.397 -0.627821 2.01548 0
M  V30 8435 O 794.745 -1.5791 1.65156 0
M  V30 8436 C 794.955 1.70687 3.04413 0
M  V30 8437 C 796.303 1.92684 3.78362 0
M  V30 8438 O 797.327 1.67645 3.14282 0
M  V30 8439 O 796.186 2.34765 4.93505 0
M  V30 8440 H 793.28 0.322831 0.761386 0
M  V30 8441 H 795.826 1.28054 1.11357 0
M  V30 8442 H 794.598 2.72405 2.80911 0
M  V30 8443 H 794.221 1.29602 3.75884 0
M  V30 8444 N 795.218 -1.23913 0.973828 0
M  V30 8445 C 796.465 -1.92151 0.639079 0
M  V30 8446 C 796.793 -1.76064 -0.826545 0
M  V30 8447 O 796.048 -1.11126 -1.61088 0
M  V30 8448 C 796.347 -3.4406 0.967356 0
M  V30 8449 C 796.013 -3.80321 2.42212 0
M  V30 8450 C 794.675 -3.8993 2.81971 0
M  V30 8451 C 797.027 -3.97935 3.36596 0
M  V30 8452 C 794.355 -4.14575 4.15144 0
M  V30 8453 C 796.707 -4.24079 4.69404 0
M  V30 8454 C 795.371 -4.31908 5.08932 0
M  V30 8455 H 794.641 -0.70313 0.233856 0
M  V30 8456 H 797.288 -1.47072 1.22646 0
M  V30 8457 H 795.593 -3.90667 0.297807 0
M  V30 8458 H 797.29 -3.95077 0.686654 0
M  V30 8459 H 793.88 -3.73411 2.10385 0
M  V30 8460 H 798.064 -3.89908 3.07059 0
M  V30 8461 H 793.32 -4.18858 4.45385 0
M  V30 8462 H 797.494 -4.36652 5.42502 0
M  V30 8463 H 795.121 -4.50758 6.12145 0
M  V30 8464 N 796.696 -0.74468 -1.38897 0
M  V30 8465 C 797.921 -0.306119 -2.05128 0
M  V30 8466 C 798.346 1.0541 -1.55789 0
M  V30 8467 O 797.704 1.66993 -0.705909 0
M  V30 8468 C 797.752 -0.328195 -3.59103 0
M  V30 8469 O 796.856 0.680876 -4.06741 0
M  V30 8470 H 796.197 -0.137209 -0.649669 0
M  V30 8471 H 798.727 -1.01331 -1.77745 0
M  V30 8472 H 798.737 -0.175956 -4.0762 0
M  V30 8473 H 797.412 -1.32067 -3.94374 0
M  V30 8474 H 795.989 0.49398 -3.69614 0
M  V30 8475 N 798.174 1.49689 -0.493057 0
M  V30 8476 C 799.124 2.25901 0.308682 0
M  V30 8477 C 800.108 1.30408 0.94247 0
M  V30 8478 O 801.3 1.55179 0.851384 0
M  V30 8479 C 798.429 3.14463 1.37725 0
M  V30 8480 C 797.515 4.17414 0.7501 0
M  V30 8481 N 797.906 5.05599 -0.142597 0
M  V30 8482 C 796.204 4.34377 1.01159 0
M  V30 8483 C 796.905 5.7954 -0.500782 0
M  V30 8484 N 795.881 5.43446 0.129386 0
M  V30 8485 H 799.683 2.91451 -0.378652 0
M  V30 8486 H 797.197 1.59441 -0.308614 0
M  V30 8487 H 799.194 3.67687 1.965 0
M  V30 8488 H 797.854 2.50464 2.06635 0
M  V30 8489 H 798.865 5.15354 -0.512894 0
M  V30 8490 H 795.542 3.81588 1.69402 0
M  V30 8491 H 796.932 6.60534 -1.23063 0
M  V30 8492 N 799.652 0.226554 1.55963 0
M  V30 8493 C 800.582 -0.676079 2.23498 0
M  V30 8494 C 801.563 -1.19718 1.20837 0
M  V30 8495 O 802.748 -1.24027 1.49436 0
M  V30 8496 C 799.878 -1.88217 2.91876 0
M  V30 8497 C 798.832 -1.4947 4.01052 0
M  V30 8498 C 798.158 -2.77997 4.56751 0
M  V30 8499 C 799.458 -0.680951 5.17842 0
M  V30 8500 H 801.152 -0.112989 2.99187 0
M  V30 8501 H 798.698 -0.0529046 1.43903 0
M  V30 8502 H 800.651 -2.51911 3.37815 0
M  V30 8503 H 799.375 -2.47031 2.13643 0
M  V30 8504 H 798.034 -0.881199 3.55852 0
M  V30 8505 H 797.682 -3.34966 3.75243 0
M  V30 8506 H 797.382 -2.52803 5.30438 0
M  V30 8507 H 798.906 -3.42625 5.05411 0
M  V30 8508 H 800.32 -1.22171 5.60131 0
M  V30 8509 H 798.717 -0.525898 5.97791 0
M  V30 8510 H 799.787 0.311346 4.83899 0
M  V30 8511 N 801.13 -1.57531 -0.0467866 0
M  V30 8512 C 802.062 -2.02156 -1.08007 0
M  V30 8513 C 803.075 -0.931434 -1.33522 0
M  V30 8514 O 804.264 -1.209 -1.31321 0
M  V30 8515 C 801.364 -2.36675 -2.42566 0
M  V30 8516 C 800.537 -3.67848 -2.36658 0
M  V30 8517 C 799.596 -3.89754 -3.53523 0
M  V30 8518 O 798.622 -4.61036 -3.33818 0
M  V30 8519 N 799.824 -3.34025 -4.74771 0
M  V30 8520 H 802.589 -2.91414 -0.699845 0
M  V30 8521 H 800.15 -1.60185 -0.235041 0
M  V30 8522 H 802.142 -2.48482 -3.19435 0
M  V30 8523 H 800.712 -1.53178 -2.72498 0
M  V30 8524 H 799.932 -3.66561 -1.45005 0
M  V30 8525 H 801.22 -4.53931 -2.29835 0
M  V30 8526 H 800.618 -2.76214 -4.93683 0
M  V30 8527 H 799.175 -3.51241 -5.49066 0
M  V30 8528 N 802.608 0.318715 -1.54344 0
M  V30 8529 C 803.854 1.05383 -1.73971 0
M  V30 8530 C 804.209 1.85524 -0.509781 0
M  V30 8531 O 803.502 1.8502 0.49782 0
M  V30 8532 C 803.696 2.00514 -2.95853 0
M  V30 8533 C 803.525 1.29728 -4.30582 0
M  V30 8534 C 802.295 1.03177 -4.94654 0
M  V30 8535 C 804.493 0.710718 -5.09366 0
M  V30 8536 N 802.475 0.29232 -6.13204 0
M  V30 8537 C 803.846 0.103132 -6.19914 0
M  V30 8538 C 805.901 0.614011 -4.94099 0
M  V30 8539 C 804.604 -0.591782 -7.16862 0
M  V30 8540 C 806.63 -0.0672115 -5.91362 0
M  V30 8541 C 805.992 -0.663721 -7.01266 0
M  V30 8542 H 802.091 0.369157 -0.689382 0
M  V30 8543 H 804.675 0.334453 -1.91806 0
M  V30 8544 H 802.846 2.69719 -2.79475 0
M  V30 8545 H 804.578 2.67046 -3.04086 0
M  V30 8546 H 801.333 1.32536 -4.54677 0
M  V30 8547 H 801.757 -0.0634005 -6.7697 0
M  V30 8548 H 806.399 1.06091 -4.09273 0
M  V30 8549 H 804.117 -1.0505 -8.01243 0
M  V30 8550 H 807.703 -0.141742 -5.81627 0
M  V30 8551 H 806.583 -1.18248 -7.75234 0
M  V30 8552 N 804.086 1.46499 0.581025 0
M  V30 8553 C 805.034 1.57562 1.71105 0
M  V30 8554 C 806.028 0.44403 1.63477 0
M  V30 8555 O 807.234 0.620964 1.6895 0
M  V30 8556 H 803.609 0.495415 0.565746 0
M  V30 8557 H 805.58 2.5257 1.58905 0
M  V30 8558 C 804.329 1.58465 3.0949 0
M  V30 8559 H 803.652 2.44877 3.16031 0
M  V30 8560 H 805.092 1.70261 3.88313 0
M  V30 8561 C 803.551 0.313596 3.35437 0
M  V30 8562 O 804.081 -0.595456 3.97262 0
M  V30 8563 N 802.287 0.200986 2.89904 0
M  V30 8564 H 801.834 0.941643 2.39773 0
M  V30 8565 H 801.792 -0.648577 3.07638 0
M  V30 8566 N 805.565 -0.825799 1.34232 0
M  V30 8567 C 806.842 -1.56741 1.17011 0
M  V30 8568 C 807.222 -2.09512 -0.258425 0
M  V30 8569 O 806.57 -1.90664 -1.25935 0
M  V30 8570 C 806.78 -2.69104 2.22225 0
M  V30 8571 C 808.128 -3.37947 2.57055 0
M  V30 8572 O 809.152 -2.79358 2.20992 0
M  V30 8573 O 808.011 -4.43743 3.1899 0
M  V30 8574 H 805.105 -0.69163 0.453405 0
M  V30 8575 H 807.651 -0.867422 1.45856 0
M  V30 8576 H 806.423 -2.27844 3.18124 0
M  V30 8577 H 806.046 -3.46756 1.94541 0
M  V30 8578 N 807.043 -1.17915 -1.04565 0
M  V30 8579 C 808.006 -0.903787 -2.10628 0
M  V30 8580 C 809.006 0.10873 -1.60432 0
M  V30 8581 O 810.196 -0.124152 -1.73757 0
M  V30 8582 C 807.328 -0.355017 -3.39046 0
M  V30 8583 H 808.521 -1.84425 -2.3649 0
M  V30 8584 H 806.074 -0.990477 -1.2091 0
M  V30 8585 H 806.809 0.592297 -3.18845 0
M  V30 8586 H 806.594 -1.08484 -3.76794 0
M  V30 8587 H 808.084 -0.180891 -4.17208 0
M  V30 8588 N 808.521 1.23394 -0.980386 0
M  V30 8589 C 809.769 1.91431 -0.647978 0
M  V30 8590 C 810.09 1.76871 0.821066 0
M  V30 8591 O 809.36 1.14808 1.58732 0
M  V30 8592 H 807.94 0.708516 -0.236673 0
M  V30 8593 H 810.602 1.50019 -1.2442 0
M  V30 8594 H 809.698 2.98854 -0.899592 0
M  V30 8595 N 809.999 0.752036 1.385 0
M  V30 8596 C 811.239 0.312408 2.01998 0
M  V30 8597 C 811.603 -1.085 1.58404 0
M  V30 8598 O 812.804 -1.62365 2.14222 0
M  V30 8599 C 811.075 0.429423 3.54811 0
M  V30 8600 S 812.634 0.0721487 4.38741 0
M  V30 8601 H 809.452 0.1213 0.700576 0
M  V30 8602 H 812.054 0.982312 1.69029 0
M  V30 8603 H 810.758 1.44743 3.84028 0
M  V30 8604 H 810.289 -0.257716 3.92555 0
M  V30 8605 H 812.304 -1.13875 4.82957 0
M  V30 8606 N 811.477 -1.49425 0.500989 0
M  V30 8607 C 812.427 -2.26061 -0.296698 0
M  V30 8608 C 813.411 -1.30906 -0.935541 0
M  V30 8609 O 814.603 -1.55628 -0.843142 0
M  V30 8610 C 811.732 -3.15189 -1.36055 0
M  V30 8611 C 810.818 -4.17806 -0.727952 0
M  V30 8612 N 811.209 -5.05516 0.169408 0
M  V30 8613 C 809.507 -4.34907 -0.988535 0
M  V30 8614 C 810.208 -5.79267 0.531509 0
M  V30 8615 N 809.184 -5.43507 -0.100564 0
M  V30 8616 H 812.986 -2.91246 0.394103 0
M  V30 8617 H 810.5 -1.59275 0.317065 0
M  V30 8618 H 812.497 -3.68724 -1.94547 0
M  V30 8619 H 811.157 -2.51556 -2.05303 0
M  V30 8620 H 812.168 -5.15075 0.540218 0
M  V30 8621 H 808.845 -3.82481 -1.67376 0
M  V30 8622 H 810.235 -6.59872 1.26564 0
M  V30 8623 N 812.955 -0.234822 -1.55841 0
M  V30 8624 C 813.885 0.664217 -2.23854 0
M  V30 8625 C 814.866 1.19076 -1.2147 0
M  V30 8626 O 816.051 1.23232 -1.50091 0
M  V30 8627 C 813.181 1.86666 -2.9287 0
M  V30 8628 C 812.135 1.47341 -4.01839 0
M  V30 8629 C 811.461 2.75571 -4.58219 0
M  V30 8630 C 812.761 0.653479 -5.18196 0
M  V30 8631 H 814.455 0.0971213 -2.99242 0
M  V30 8632 H 812.001 0.0452724 -1.43929 0
M  V30 8633 H 813.954 2.50116 -3.39146 0
M  V30 8634 H 812.678 2.45894 -2.1495 0
M  V30 8635 H 811.337 0.862314 -3.56314 0
M  V30 8636 H 810.985 3.32971 -3.77014 0
M  V30 8637 H 810.685 2.49987 -5.31771 0
M  V30 8638 H 812.209 3.39939 -5.07221 0
M  V30 8639 H 813.623 1.19198 -5.60771 0
M  V30 8640 H 812.02 0.494188 -5.98062 0
M  V30 8641 H 813.09 -0.337004 -4.83728 0
M  V30 8642 N 814.433 1.57553 0.0384317 0
M  V30 8643 C 815.679 1.89121 0.732199 0
M  V30 8644 C 816.012 0.831404 1.75503 0
M  V30 8645 O 815.287 -0.154642 1.93884 0
M  V30 8646 C 815.57 3.31338 1.41021 0
M  V30 8647 C 815.423 4.48004 0.401532 0
M  V30 8648 C 816.742 3.72318 2.34665 0
M  V30 8649 H 813.861 0.687819 0.264715 0
M  V30 8650 H 816.503 1.89999 -0.00496279 0
M  V30 8651 H 814.653 3.3072 2.03854 0
M  V30 8652 H 816.325 4.60755 -0.224159 0
M  V30 8653 H 814.568 4.32895 -0.280092 0
M  V30 8654 H 815.239 5.44377 0.91423 0
M  V30 8655 H 817.715 3.74243 1.81883 0
M  V30 8656 H 816.591 4.72652 2.7909 0
M  V30 8657 H 816.852 3.04062 3.20934 0
M  V30 8658 N 815.911 -0.310526 1.54511 0
M  V30 8659 C 816.859 -1.40272 1.85544 0
M  V30 8660 C 817.853 -1.52941 0.728377 0
M  V30 8661 O 819.059 -1.55172 0.912234 0
M  V30 8662 H 815.434 -0.468355 0.588343 0
M  V30 8663 H 817.405 -1.11329 2.76855 0
M  V30 8664 C 816.154 -2.76279 2.11105 0
M  V30 8665 H 815.477 -2.67308 2.97298 0
M  V30 8666 H 816.917 -3.51736 2.36765 0
M  V30 8667 C 815.376 -3.24472 0.906618 0
M  V30 8668 O 815.906 -4.01514 0.122358 0
M  V30 8669 N 814.112 -2.81676 0.714632 0
M  V30 8670 H 813.659 -2.19143 1.35404 0
M  V30 8671 H 813.617 -3.14272 -0.089703 0
M  V30 8672 N 817.389 -1.46805 -0.573248 0
M  V30 8673 C 818.299 -1.60687 -1.70929 0
M  V30 8674 C 819.315 -0.490084 -1.66956 0
M  V30 8675 O 820.491 -0.755482 -1.86693 0
M  V30 8676 C 817.556 -1.60259 -3.07438 0
M  V30 8677 C 816.617 -2.83242 -3.22603 0
M  V30 8678 C 815.85 -2.82825 -4.52599 0
M  V30 8679 O 816.073 -1.92113 -5.37074 0
M  V30 8680 O 815.007 -3.74489 -4.71213 0
M  V30 8681 H 818.833 -2.56782 -1.62163 0
M  V30 8682 H 816.418 -1.29706 -0.741399 0
M  V30 8683 H 818.3 -1.6275 -3.88704 0
M  V30 8684 H 816.975 -0.673268 -3.16621 0
M  V30 8685 H 815.882 -2.86302 -2.40794 0
M  V30 8686 H 817.215 -3.75415 -3.18315 0
M  V30 8687 N 818.867 0.818669 -1.34668 0
M  V30 8688 C 820.095 1.60674 -1.30351 0
M  V30 8689 C 820.51 1.88408 0.121546 0
M  V30 8690 O 819.867 1.47849 1.06991 0
M  V30 8691 C 819.918 2.94516 -2.09625 0
M  V30 8692 O 819.639 2.6799 -3.46573 0
M  V30 8693 C 821.14 3.8891 -2.12754 0
M  V30 8694 H 818.36 0.499306 -0.448258 0
M  V30 8695 H 820.904 1.01828 -1.77345 0
M  V30 8696 H 819.059 3.49908 -1.66262 0
M  V30 8697 H 819.473 3.53361 -3.87603 0
M  V30 8698 H 820.947 4.79972 -2.72637 0
M  V30 8699 H 821.424 4.24599 -1.12306 0
M  V30 8700 H 822.03 3.39453 -2.56225 0
M  V30 8701 N 820.346 1.18468 1.03938 0
M  V30 8702 C 821.278 0.870615 2.12021 0
M  V30 8703 C 822.291 -0.132318 1.62261 0
M  V30 8704 O 823.48 0.0956901 1.78243 0
M  V30 8705 C 820.58 0.279727 3.37744 0
M  V30 8706 C 819.753 1.32863 4.16733 0
M  V30 8707 C 818.812 0.753204 5.20781 0
M  V30 8708 O 817.838 1.42825 5.5099 0
M  V30 8709 N 819.04 -0.448664 5.78764 0
M  V30 8710 H 821.805 1.80091 2.39556 0
M  V30 8711 H 819.366 1.08524 1.20142 0
M  V30 8712 H 821.358 -0.118829 4.04526 0
M  V30 8713 H 819.928 -0.554621 3.07641 0
M  V30 8714 H 819.148 1.90245 3.45254 0
M  V30 8715 H 820.436 2.03574 4.66299 0
M  V30 8716 H 819.834 -1.01481 5.56523 0
M  V30 8717 H 818.391 -0.789125 6.47005 0
M  V30 8718 N 821.824 -1.22873 0.986916 0
M  V30 8719 C 823.101 -1.86939 0.575589 0
M  V30 8720 C 823.481 -1.88656 -0.947205 0
M  V30 8721 O 822.829 -1.3728 -1.82665 0
M  V30 8722 C 823.039 -3.28117 1.18914 0
M  V30 8723 C 824.387 -4.04659 1.28593 0
M  V30 8724 O 825.411 -3.3736 1.14308 0
M  V30 8725 O 824.27 -5.25112 1.51391 0
M  V30 8726 H 821.364 -0.803748 0.194724 0
M  V30 8727 H 823.91 -1.30698 1.08241 0
M  V30 8728 H 822.682 -3.21468 2.231 0
M  V30 8729 H 822.305 -3.91956 0.667535 0
M  V30 8730 N 823.302 -0.75937 -1.38099 0
M  V30 8731 C 824.551 -0.314864 -1.99227 0
M  V30 8732 C 824.864 1.1113 -1.60964 0
M  V30 8733 O 826.07 1.65657 -2.15105 0
M  V30 8734 C 824.526 -0.512001 -3.56239 0
M  V30 8735 C 824.134 -1.94762 -4.0345 0
M  V30 8736 C 825.878 -0.130497 -4.24299 0
M  V30 8737 C 823.785 -2.09301 -5.53125 0
M  V30 8738 H 822.715 -0.113978 -0.745335 0
M  V30 8739 H 825.366 -0.936736 -1.57789 0
M  V30 8740 H 823.748 0.179144 -3.95595 0
M  V30 8741 H 824.922 -2.67271 -3.75371 0
M  V30 8742 H 823.237 -2.28457 -3.48133 0
M  V30 8743 H 825.834 -0.21781 -5.34256 0
M  V30 8744 H 826.177 0.917644 -4.0606 0
M  V30 8745 H 826.71 -0.773716 -3.90203 0
M  V30 8746 H 823.449 -3.1239 -5.76275 0
M  V30 8747 H 822.969 -1.41261 -5.82928 0
M  V30 8748 H 824.648 -1.88571 -6.1891 0
M  V30 8749 N 824.78 1.49157 -0.508906 0
M  V30 8750 C 826.026 2.02773 0.0328469 0
M  V30 8751 C 826.359 1.38714 1.35912 0
M  V30 8752 O 825.634 0.525536 1.87266 0
M  V30 8753 C 825.917 3.59664 0.177088 0
M  V30 8754 C 825.77 4.34239 -1.17287 0
M  V30 8755 C 827.089 4.30505 0.913977 0
M  V30 8756 H 824.208 0.736926 0.0104631 0
M  V30 8757 H 826.85 1.781 -0.661851 0
M  V30 8758 H 825 3.80818 0.768774 0
M  V30 8759 H 826.672 4.24561 -1.80404 0
M  V30 8760 H 824.915 3.96486 -1.76016 0
M  V30 8761 H 825.586 5.42397 -1.02516 0
M  V30 8762 H 828.062 4.14054 0.412084 0
M  V30 8763 H 826.938 5.40012 0.983759 0
M  V30 8764 H 827.199 3.96302 1.95951 0
M  V30 8765 N 826.258 0.243083 1.55714 0
M  V30 8766 C 827.486 -0.386971 2.03249 0
M  V30 8767 C 827.901 -1.51812 1.12243 0
M  V30 8768 O 827.258 -1.81992 0.136119 0
M  V30 8769 C 827.309 -0.898361 3.5016 0
M  V30 8770 O 827.03 0.187708 4.37698 0
M  V30 8771 C 828.531 -1.59949 4.13438 0
M  V30 8772 H 825.751 -0.0923981 0.664608 0
M  V30 8773 H 828.295 0.365832 2.01201 0
M  V30 8774 H 826.45 -1.60136 3.52754 0
M  V30 8775 H 826.864 -0.200001 5.24119 0
M  V30 8776 H 828.338 -1.90907 5.17937 0
M  V30 8777 H 828.815 -2.52014 3.59702 0
M  V30 8778 H 829.421 -0.941163 4.14756 0
M  V30 8779 N 827.736 -1.57571 -0.0300757 0
M  V30 8780 C 828.976 -1.91074 -0.725946 0
M  V30 8781 C 829.34 -0.841545 -1.72575 0
M  V30 8782 O 830.541 -1.06088 -2.46979 0
M  V30 8783 C 828.812 -3.2973 -1.37888 0
M  V30 8784 S 830.371 -3.85065 -2.10405 0
M  V30 8785 H 827.189 -0.669084 -0.240515 0
M  V30 8786 H 829.791 -1.9549 0.019384 0
M  V30 8787 H 828.495 -4.05411 -0.637974 0
M  V30 8788 H 828.026 -3.28614 -2.16278 0
M  V30 8789 H 830.041 -3.63711 -3.37533 0
M  V30 8790 N 829.214 0.302327 -1.54673 0
M  V30 8791 C 830.146 1.39443 -1.81902 0
M  V30 8792 C 831.159 1.46891 -0.701914 0
M  V30 8793 O 832.348 1.49233 -0.979369 0
M  V30 8794 C 829.448 2.77824 -1.9408 0
M  V30 8795 C 828.621 2.93324 -3.24468 0
M  V30 8796 C 827.68 4.12196 -3.27079 0
M  V30 8797 O 826.706 4.04344 -4.00617 0
M  V30 8798 N 827.908 5.22768 -2.52376 0
M  V30 8799 H 830.673 1.1644 -2.76155 0
M  V30 8800 H 828.234 0.492392 -1.54231 0
M  V30 8801 H 830.226 3.5559 -1.9323 0
M  V30 8802 H 828.796 2.9378 -1.06828 0
M  V30 8803 H 828.016 2.02682 -3.38103 0
M  V30 8804 H 829.304 3.0059 -4.10516 0
M  V30 8805 H 828.702 5.32027 -1.92259 0
M  V30 8806 H 827.259 5.98874 -2.57281 0
M  V30 8807 N 830.692 1.47107 0.565454 0
M  V30 8808 C 831.932 1.5488 1.33385 0
M  V30 8809 C 832.296 0.202804 1.90926 0
M  V30 8810 O 833.497 0.155345 2.68351 0
M  V30 8811 C 831.768 2.62969 2.42037 0
M  V30 8812 S 833.327 2.90269 3.29074 0
M  V30 8813 H 830.145 0.547008 0.454206 0
M  V30 8814 H 832.747 1.8444 0.648228 0
M  V30 8815 H 831.451 3.59376 1.98185 0
M  V30 8816 H 830.982 2.35197 3.15351 0
M  V30 8817 H 832.997 2.26854 4.41307 0
M  V30 8818 N 832.17 -0.811516 1.35101 0
M  V30 8819 C 833.398 -1.59981 1.31201 0
M  V30 8820 C 833.813 -1.8847 -0.111552 0
M  V30 8821 O 833.17 -1.48414 -1.06205 0
M  V30 8822 C 833.221 -2.934 2.11184 0
M  V30 8823 O 832.942 -2.66148 3.4799 0
M  V30 8824 C 834.443 -3.87776 2.14813 0
M  V30 8825 H 831.663 -0.496921 0.450899 0
M  V30 8826 H 834.207 -1.00886 1.77883 0
M  V30 8827 H 832.362 -3.49022 1.68115 0
M  V30 8828 H 832.776 -3.51301 3.89471 0
M  V30 8829 H 834.25 -4.7852 2.75178 0
M  V30 8830 H 834.727 -4.23997 1.14556 0
M  V30 8831 H 835.333 -3.3809 2.58022 0
M  V30 8832 N 833.648 -1.19017 -1.03309 0
M  V30 8833 C 834.598 -0.89194 -2.0983 0
M  V30 8834 C 835.582 0.14151 -1.60277 0
M  V30 8835 O 836.774 -0.0635946 -1.76886 0
M  V30 8836 C 833.903 -0.427793 -3.40624 0
M  V30 8837 C 832.989 -1.49374 -3.96923 0
M  V30 8838 N 833.38 -2.71213 -4.26939 0
M  V30 8839 C 831.678 -1.35605 -4.24885 0
M  V30 8840 C 832.379 -3.39849 -4.72099 0
M  V30 8841 N 831.355 -2.67239 -4.73375 0
M  V30 8842 H 835.157 -1.81801 -2.30923 0
M  V30 8843 H 832.671 -1.08171 -1.21131 0
M  V30 8844 H 834.668 -0.195608 -4.16441 0
M  V30 8845 H 833.328 0.491848 -3.20953 0
M  V30 8846 H 834.339 -3.08014 -4.16351 0
M  V30 8847 H 831.016 -0.499537 -4.14501 0
M  V30 8848 H 832.406 -4.44018 -5.04279 0
M  V30 8849 N 835.127 1.22348 -0.993418 0
M  V30 8850 C 836.057 2.26584 -0.564088 0
M  V30 8851 C 837.038 1.65102 0.409298 0
M  V30 8852 O 838.223 1.91872 0.299819 0
M  V30 8853 C 835.353 3.47087 0.121554 0
M  V30 8854 C 834.307 4.21009 -0.770429 0
M  V30 8855 C 833.633 5.34678 0.0481586 0
M  V30 8856 C 834.933 4.79636 -2.06752 0
M  V30 8857 H 836.627 2.62749 -1.43538 0
M  V30 8858 H 834.173 1.26303 -0.691628 0
M  V30 8859 H 836.126 4.19166 0.433303 0
M  V30 8860 H 834.85 3.1002 1.0274 0
M  V30 8861 H 833.509 3.50764 -1.06583 0
M  V30 8862 H 833.157 4.93852 0.954933 0
M  V30 8863 H 832.857 5.85061 -0.545641 0
M  V30 8864 H 834.381 6.09573 0.353991 0
M  V30 8865 H 835.795 5.43654 -1.81969 0
M  V30 8866 H 834.192 5.4036 -2.61019 0
M  V30 8867 H 835.262 3.99659 -2.74592 0
M  V30 8868 N 836.605 0.766683 1.37694 0
M  V30 8869 C 837.833 0.339939 2.04088 0
M  V30 8870 C 838.248 -1.03617 1.57826 0
M  V30 8871 O 837.605 -1.6605 0.757214 0
M  V30 8872 C 837.656 0.368269 3.59619 0
M  V30 8873 O 837.377 1.69009 4.04188 0
M  V30 8874 C 838.878 -0.0707053 4.43244 0
M  V30 8875 H 836.098 0.143189 0.655544 0
M  V30 8876 H 838.642 1.03919 1.76128 0
M  V30 8877 H 836.797 -0.282359 3.8637 0
M  V30 8878 H 837.211 1.62523 4.98685 0
M  V30 8879 H 838.685 0.000273538 5.52 0
M  V30 8880 H 839.162 -1.1204 4.24669 0
M  V30 8881 H 839.768 0.551543 4.21709 0
M  V30 8882 N 838.083 -1.48885 0.516809 0
M  V30 8883 C 839.308 -2.0739 -0.0205201 0
M  V30 8884 C 839.733 -1.37259 -1.28614 0
M  V30 8885 O 839.091 -0.434304 -1.76021 0
M  V30 8886 C 839.139 -3.59793 -0.24104 0
M  V30 8887 O 838.243 -3.90957 -1.31251 0
M  V30 8888 H 837.584 -0.663167 0.0332564 0
M  V30 8889 H 840.114 -1.91477 0.720956 0
M  V30 8890 H 840.124 -4.0531 -0.467737 0
M  V30 8891 H 838.799 -4.10244 0.68356 0
M  V30 8892 H 837.376 -3.57234 -1.06951 0
M  V30 8893 N 839.561 -0.251338 -1.55583 0
M  V30 8894 C 840.808 0.372169 -1.99051 0
M  V30 8895 C 841.136 1.57623 -1.13953 0
M  V30 8896 O 840.391 1.94762 -0.191398 0
M  V30 8897 C 840.69 0.821186 -3.47838 0
M  V30 8898 C 840.356 -0.275608 -4.50057 0
M  V30 8899 C 839.018 -0.57683 -4.7773 0
M  V30 8900 C 841.37 -1.01585 -5.11204 0
M  V30 8901 C 838.698 -1.62229 -5.63825 0
M  V30 8902 C 841.05 -2.05087 -5.98433 0
M  V30 8903 C 839.714 -2.35869 -6.24437 0
M  V30 8904 H 838.984 0.136186 -0.728378 0
M  V30 8905 H 841.631 -0.360089 -1.88084 0
M  V30 8906 H 839.936 1.63272 -3.56159 0
M  V30 8907 H 841.633 1.31396 -3.78861 0
M  V30 8908 H 838.223 -0.030697 -4.28589 0
M  V30 8909 H 842.407 -0.79639 -4.89869 0
M  V30 8910 H 837.663 -1.86607 -5.82226 0
M  V30 8911 H 841.837 -2.62934 -6.44855 0
M  V30 8912 H 839.464 -3.17017 -6.90944 0
M  V30 8913 N 841.039 1.57585 0.0217189 0
M  V30 8914 C 842.264 1.94267 0.726309 0
M  V30 8915 C 842.689 0.851904 1.67703 0
M  V30 8916 O 842.047 -0.191792 1.80283 0
M  V30 8917 C 842.095 3.30023 1.45318 0
M  V30 8918 O 841.199 3.22791 2.5667 0
M  V30 8919 H 840.54 0.634777 0.194818 0
M  V30 8920 H 843.07 2.04585 -0.0249985 0
M  V30 8921 H 843.08 3.65084 1.82147 0
M  V30 8922 H 841.755 4.08972 0.755962 0
M  V30 8923 H 840.332 2.99373 2.2233 0
M  V30 8924 N 842.517 -0.29412 1.54831 0
M  V30 8925 C 843.766 -1.02614 1.73647 0
M  V30 8926 C 844.079 -1.88193 0.533162 0
M  V30 8927 O 845.285 -2.64713 0.603275 0
M  V30 8928 C 843.741 -1.87417 3.07251 0
M  V30 8929 C 843.349 -1.06806 4.35082 0
M  V30 8930 C 845.093 -2.60176 3.35423 0
M  V30 8931 C 843 -1.90926 5.59733 0
M  V30 8932 H 841.93 -0.386834 0.647206 0
M  V30 8933 H 844.581 -0.282789 1.81308 0
M  V30 8934 H 842.963 -2.65765 2.93572 0
M  V30 8935 H 844.137 -0.330226 4.59615 0
M  V30 8936 H 842.452 -0.455979 4.13896 0
M  V30 8937 H 845.049 -3.23476 4.25755 0
M  V30 8938 H 845.392 -3.29365 2.54606 0
M  V30 8939 H 845.925 -1.88871 3.50103 0
M  V30 8940 H 842.664 -1.26194 6.43238 0
M  V30 8941 H 842.184 -2.62363 5.39375 0
M  V30 8942 H 843.863 -2.48807 5.97247 0
M  V30 8943 N 843.995 -1.47404 -0.557645 0
M  V30 8944 C 844.925 -1.62736 -1.67449 0
M  V30 8945 C 845.906 -0.476824 -1.6328 0
M  V30 8946 O 847.091 -0.706108 -1.80908 0
M  V30 8947 C 844.221 -1.641 -3.06086 0
M  V30 8948 C 843.175 -2.78377 -3.25101 0
M  V30 8949 C 842.501 -2.64812 -4.6452 0
M  V30 8950 C 843.801 -4.19971 -3.10518 0
M  V30 8951 H 845.495 -2.56232 -1.54873 0
M  V30 8952 H 843.041 -1.23312 -0.743649 0
M  V30 8953 H 844.994 -1.73417 -3.84063 0
M  V30 8954 H 843.718 -0.671652 -3.19619 0
M  V30 8955 H 842.377 -2.6857 -2.49531 0
M  V30 8956 H 842.025 -1.65906 -4.74852 0
M  V30 8957 H 841.725 -3.41477 -4.78191 0
M  V30 8958 H 843.249 -2.76057 -5.44633 0
M  V30 8959 H 844.663 -4.30757 -3.78313 0
M  V30 8960 H 843.06 -4.97419 -3.35699 0
M  V30 8961 H 844.13 -4.38369 -2.0727 0
M  V30 8962 N 845.473 0.80434 -1.35529 0
M  V30 8963 C 846.406 1.92222 -1.22987 0
M  V30 8964 C 847.384 1.62177 -0.117269 0
M  V30 8965 O 848.568 1.86321 -0.285761 0
M  V30 8966 C 845.695 3.26682 -0.894223 0
M  V30 8967 C 844.741 3.75674 -2.01919 0
M  V30 8968 S 845.574 3.93209 -3.6352 0
M  V30 8969 C 846.73 5.30568 -3.32037 0
M  V30 8970 H 846.963 2.02567 -2.1761 0
M  V30 8971 H 844.496 0.961961 -1.20771 0
M  V30 8972 H 846.454 4.04359 -0.707371 0
M  V30 8973 H 845.115 3.14082 0.0339729 0
M  V30 8974 H 844.308 4.73065 -1.73854 0
M  V30 8975 H 843.91 3.05001 -2.16449 0
M  V30 8976 H 846.202 6.14637 -2.85004 0
M  V30 8977 H 847.145 5.63628 -4.28636 0
M  V30 8978 H 847.553 4.96961 -2.6775 0
M  V30 8979 N 846.951 1.19563 1.02676 0
M  V30 8980 C 848.176 1.02556 1.80269 0
M  V30 8981 C 848.601 -0.421056 1.83327 0
M  V30 8982 O 847.959 -1.30279 1.26084 0
M  V30 8983 C 848.007 1.60165 3.23078 0
M  V30 8984 O 847.111 0.832404 4.03912 0
M  V30 8985 H 846.452 0.362354 0.556413 0
M  V30 8986 H 848.982 1.58633 1.29216 0
M  V30 8987 H 848.992 1.6347 3.7382 0
M  V30 8988 H 847.667 2.65454 3.20167 0
M  V30 8989 H 846.244 0.872768 3.62543 0
M  V30 8990 N 848.429 -1.21819 0.999893 0
M  V30 8991 C 849.84 -1.72517 0.713775 0
M  V30 8992 C 850.191 -1.80505 -0.768922 0
M  V30 8993 O 849.316 -1.45611 -1.60083 0
M  V30 8994 C 849.911 -3.13321 1.28901 0
M  V30 8995 C 848.47 -3.61396 1.05212 0
M  V30 8996 C 847.617 -2.39074 1.40494 0
M  V30 8997 H 850.568 -1.07068 1.17141 0
M  V30 8998 H 850.589 -3.74535 0.671084 0
M  V30 8999 H 850.101 -3.07475 2.36814 0
M  V30 9000 H 848.202 -3.72599 -0.0100732 0
M  V30 9001 H 848.315 -4.47145 1.72042 0
M  V30 9002 H 846.679 -2.41015 0.823642 0
M  V30 9003 H 847.462 -2.35884 2.49427 0
M  V30 9004 N 849.908 -0.773975 -1.37286 0
M  V30 9005 C 851.155 -0.339306 -1.99637 0
M  V30 9006 C 851.483 1.08478 -1.61439 0
M  V30 9007 O 850.738 1.7612 -0.853252 0
M  V30 9008 C 851.037 -0.432651 -3.54772 0
M  V30 9009 C 850.703 -1.81531 -4.12744 0
M  V30 9010 C 849.365 -2.19366 -4.2829 0
M  V30 9011 C 851.717 -2.72137 -4.44512 0
M  V30 9012 C 849.045 -3.47239 -4.72908 0
M  V30 9013 C 851.397 -3.99421 -4.90556 0
M  V30 9014 C 850.061 -4.37298 -5.04308 0
M  V30 9015 H 849.331 -0.124161 -0.730524 0
M  V30 9016 H 851.978 -0.988432 -1.64019 0
M  V30 9017 H 850.283 0.30001 -3.9065 0
M  V30 9018 H 851.98 -0.0776 -4.00925 0
M  V30 9019 H 848.57 -1.51126 -4.01072 0
M  V30 9020 H 852.754 -2.44165 -4.32084 0
M  V30 9021 H 848.01 -3.76477 -4.81742 0
M  V30 9022 H 852.184 -4.69756 -5.14104 0
M  V30 9023 H 849.811 -5.36442 -5.38641 0
M  V30 9024 N 851.386 1.48609 -0.524698 0
M  V30 9025 C 852.632 2.02797 0.0113382 0
M  V30 9026 C 852.965 1.40147 1.34433 0
M  V30 9027 O 852.24 0.545368 1.86698 0
M  V30 9028 C 852.523 3.59832 0.138931 0
M  V30 9029 C 852.376 4.32971 -1.21886 0
M  V30 9030 C 853.695 4.3145 0.868265 0
M  V30 9031 H 850.814 0.736995 0.00264645 0
M  V30 9032 H 853.456 1.77388 -0.680704 0
M  V30 9033 H 851.606 3.81612 0.72834 0
M  V30 9034 H 853.278 4.22624 -1.84897 0
M  V30 9035 H 851.521 3.94597 -1.80211 0
M  V30 9036 H 852.192 5.41279 -1.08263 0
M  V30 9037 H 854.668 4.14468 0.368145 0
M  V30 9038 H 853.544 5.41025 0.926428 0
M  V30 9039 H 853.805 3.98358 1.91737 0
M  V30 9040 N 852.864 0.259585 1.55447 0
M  V30 9041 C 854.275 -0.241165 1.85136 0
M  V30 9042 C 854.626 -1.56634 1.18153 0
M  V30 9043 O 853.751 -2.11359 0.464351 0
M  V30 9044 C 854.346 -0.444355 3.35873 0
M  V30 9045 C 852.905 -0.889354 3.65742 0
M  V30 9046 C 852.052 0.0262474 2.77288 0
M  V30 9047 H 855.003 0.481808 1.51209 0
M  V30 9048 H 855.024 -1.28517 3.58139 0
M  V30 9049 H 854.536 0.520289 3.84597 0
M  V30 9050 H 852.637 -1.86602 3.22507 0
M  V30 9051 H 852.75 -0.737432 4.73391 0
M  V30 9052 H 851.114 -0.487361 2.49994 0
M  V30 9053 H 851.897 0.986494 3.28821 0
M  V30 9054 N 854.342 -1.57594 -0.0133615 0
M  V30 9055 C 855.567 -1.94649 -0.715996 0
M  V30 9056 C 855.992 -0.860786 -1.67249 0
M  V30 9057 O 855.35 0.182228 -1.80382 0
M  V30 9058 C 855.398 -3.30789 -1.43566 0
M  V30 9059 O 854.502 -3.24148 -2.54955 0
M  V30 9060 H 853.843 -0.635801 -0.191449 0
M  V30 9061 H 856.373 -2.04569 0.0358478 0
M  V30 9062 H 856.383 -3.66045 -1.80208 0
M  V30 9063 H 855.058 -4.09367 -0.734263 0
M  V30 9064 H 853.635 -3.00548 -2.20739 0
M  V30 9065 N 855.82 0.285905 -1.54985 0
M  V30 9066 C 857.048 1.03776 -1.78992 0
M  V30 9067 C 857.463 1.80402 -0.556814 0
M  V30 9068 O 856.82 1.76242 0.473801 0
M  V30 9069 C 856.871 2.0065 -3.00702 0
M  V30 9070 O 856.592 1.27131 -4.19249 0
M  V30 9071 C 858.093 2.87753 -3.37214 0
M  V30 9072 H 855.313 0.307126 -0.596586 0
M  V30 9073 H 857.857 0.3206 -2.01971 0
M  V30 9074 H 856.012 2.67847 -2.79887 0
M  V30 9075 H 856.426 1.92316 -4.8797 0
M  V30 9076 H 857.9 3.51548 -4.2558 0
M  V30 9077 H 858.377 3.56848 -2.56039 0
M  V30 9078 H 858.983 2.26065 -3.60242 0
M  V30 9079 N 857.298 1.47698 0.54982 0
M  V30 9080 C 858.547 1.53961 1.30303 0
M  V30 9081 C 858.86 0.209731 1.94472 0
M  V30 9082 O 860.066 0.150418 2.71083 0
M  V30 9083 C 858.522 2.71436 2.36328 0
M  V30 9084 C 858.13 4.10983 1.78316 0
M  V30 9085 C 859.874 2.86996 3.12783 0
M  V30 9086 C 857.781 5.19747 2.82164 0
M  V30 9087 H 856.711 0.573098 0.489975 0
M  V30 9088 H 859.362 1.73989 0.583089 0
M  V30 9089 H 857.744 2.44801 3.11269 0
M  V30 9090 H 858.918 4.47552 1.09697 0
M  V30 9091 H 857.233 4.00371 1.1442 0
M  V30 9092 H 859.83 3.65422 3.90347 0
M  V30 9093 H 860.173 1.95712 3.67427 0
M  V30 9094 H 860.706 3.13436 2.44954 0
M  V30 9095 H 857.445 6.12932 2.32366 0
M  V30 9096 H 856.965 4.87688 3.49171 0
M  V30 9097 H 858.644 5.47014 3.4552 0
M  V30 9098 N 858.776 -0.797141 1.35954 0
M  V30 9099 C 860.023 -1.55468 1.29754 0
M  V30 9100 C 860.351 -1.94095 -0.125391 0
M  V30 9101 O 859.606 -1.62341 -1.09288 0
M  V30 9102 C 859.905 -2.84847 2.15863 0
M  V30 9103 C 859.571 -2.65394 3.64523 0
M  V30 9104 C 858.233 -2.59796 4.05042 0
M  V30 9105 C 860.585 -2.4727 4.58811 0
M  V30 9106 C 857.913 -2.3403 5.38002 0
M  V30 9107 C 860.265 -2.23032 5.91979 0
M  V30 9108 C 858.929 -2.15862 6.31633 0
M  V30 9109 H 858.199 -0.568897 0.474803 0
M  V30 9110 H 860.846 -0.920299 1.67937 0
M  V30 9111 H 859.151 -3.52712 1.70591 0
M  V30 9112 H 860.848 -3.42597 2.08395 0
M  V30 9113 H 857.438 -2.70602 3.32374 0
M  V30 9114 H 861.622 -2.506 4.28384 0
M  V30 9115 H 856.878 -2.26956 5.67715 0
M  V30 9116 H 861.052 -2.08001 6.64612 0
M  V30 9117 H 858.679 -1.9566 7.34589 0
M  V30 9118 N 860.254 -1.20106 -1.0204 0
M  V30 9119 C 861.665 -1.00992 -1.57027 0
M  V30 9120 C 862.016 0.434782 -1.91322 0
M  V30 9121 O 861.141 1.31557 -1.71819 0
M  V30 9122 C 861.736 -1.82697 -2.85319 0
M  V30 9123 C 860.295 -1.67959 -3.36848 0
M  V30 9124 C 859.442 -1.80868 -2.10195 0
M  V30 9125 H 862.393 -1.34354 -0.844676 0
M  V30 9126 H 862.414 -1.32809 -3.5657 0
M  V30 9127 H 861.926 -2.87839 -2.60328 0
M  V30 9128 H 860.027 -0.654389 -3.66809 0
M  V30 9129 H 860.14 -2.49006 -4.09308 0
M  V30 9130 H 858.504 -1.24015 -2.22469 0
M  V30 9131 H 859.287 -2.87486 -1.87635 0
M  V30 9132 N 861.732 1.21287 -1.00634 0
M  V30 9133 C 862.978 1.90671 -0.690822 0
M  V30 9134 C 863.311 1.77996 0.776592 0
M  V30 9135 O 862.586 1.15748 1.5631 0
M  V30 9136 C 862.869 3.42426 -1.11428 0
M  V30 9137 C 862.722 3.64086 -2.64124 0
M  V30 9138 C 864.041 4.34851 -0.677686 0
M  V30 9139 H 861.16 0.692419 -0.252439 0
M  V30 9140 H 863.802 1.42893 -1.25226 0
M  V30 9141 H 861.952 3.83249 -0.636586 0
M  V30 9142 H 863.624 3.32582 -3.19667 0
M  V30 9143 H 861.867 3.07906 -3.05576 0
M  V30 9144 H 862.538 4.7042 -2.88806 0
M  V30 9145 H 865.014 4.01619 -1.0882 0
M  V30 9146 H 863.89 5.39675 -1.00213 0
M  V30 9147 H 864.151 4.4009 0.421125 0
M  V30 9148 N 863.21 0.781244 1.36873 0
M  V30 9149 C 864.456 0.350407 1.9975 0
M  V30 9150 C 864.789 -1.07293 1.6187 0
M  V30 9151 O 864.064 -1.73983 0.869491 0
M  V30 9152 C 864.347 0.504834 3.56544 0
M  V30 9153 C 864.2 1.97127 4.04303 0
M  V30 9154 C 865.519 -0.0851272 4.40018 0
M  V30 9155 H 862.638 0.128794 0.725659 0
M  V30 9156 H 865.28 0.98606 1.6241 0
M  V30 9157 H 863.43 -0.0363006 3.88483 0
M  V30 9158 H 865.102 2.57284 3.82887 0
M  V30 9159 H 863.345 2.47676 3.56145 0
M  V30 9160 H 864.016 2.03033 5.13305 0
M  V30 9161 H 866.492 0.376704 4.14391 0
M  V30 9162 H 865.368 0.0530015 5.48874 0
M  V30 9163 H 865.629 -1.17642 4.2616 0
M  V30 9164 N 864.689 -1.48329 0.532571 0
M  V30 9165 C 865.636 -2.29663 -0.228779 0
M  V30 9166 C 866.606 -1.37529 -0.931401 0
M  V30 9167 O 867.791 -1.66493 -0.931921 0
M  V30 9168 C 864.931 -3.20955 -1.26814 0
M  V30 9169 C 864.044 -4.28168 -0.574099 0
M  V30 9170 C 863.179 -5.06638 -1.59661 0
M  V30 9171 C 862.218 -6.05651 -0.88618 0
M  V30 9172 N 861.355 -6.77169 -1.85436 0
M  V30 9173 H 866.195 -2.94255 0.47098 0
M  V30 9174 H 863.732 -1.45061 0.2441 0
M  V30 9175 H 865.69 -3.72285 -1.88307 0
M  V30 9176 H 864.32 -2.58281 -1.93625 0
M  V30 9177 H 863.372 -3.80085 0.154827 0
M  V30 9178 H 864.684 -4.98797 -0.0163984 0
M  V30 9179 H 863.838 -5.61995 -2.28576 0
M  V30 9180 H 862.577 -4.35854 -2.18821 0
M  V30 9181 H 861.582 -5.49495 -0.182981 0
M  V30 9182 H 862.807 -6.78434 -0.300659 0
M  V30 9183 H 860.753 -6.09134 -2.43499 0
M  V30 9184 H 860.67 -7.43882 -1.34816 0
M  V30 9185 H 861.938 -7.37114 -2.53541 0
M  V30 9186 N 866.167 -0.267825 -1.55308 0
M  V30 9187 C 867.413 0.34458 -2.0046 0
M  V30 9188 C 867.768 1.54028 -1.15296 0
M  V30 9189 O 867.061 1.90409 -0.213316 0
M  V30 9190 C 867.255 0.784247 -3.48689 0
M  V30 9191 C 867.084 -0.367304 -4.48197 0
M  V30 9192 C 865.854 -0.848746 -4.98121 0
M  V30 9193 C 868.052 -1.20136 -5.00072 0
M  V30 9194 N 866.034 -1.97052 -5.81415 0
M  V30 9195 C 867.405 -2.17115 -5.80742 0
M  V30 9196 C 869.46 -1.23553 -4.82327 0
M  V30 9197 C 868.163 -3.17248 -6.45559 0
M  V30 9198 C 870.189 -2.22527 -5.47938 0
M  V30 9199 C 869.551 -3.1824 -6.28413 0
M  V30 9200 H 865.65 0.091465 -0.776633 0
M  V30 9201 H 868.234 -0.390184 -1.9075 0
M  V30 9202 H 866.405 1.48825 -3.58756 0
M  V30 9203 H 868.137 1.37337 -3.80684 0
M  V30 9204 H 864.892 -0.429291 -4.7165 0
M  V30 9205 H 865.316 -2.53481 -6.27755 0
M  V30 9206 H 869.958 -0.50937 -4.1972 0
M  V30 9207 H 867.676 -3.90801 -7.07319 0
M  V30 9208 H 871.262 -2.25904 -5.36152 0
M  V30 9209 H 870.142 -3.93573 -6.78285 0
M  V30 9210 N 867.645 1.57599 0.00500368 0
M  V30 9211 C 868.894 1.89528 0.690061 0
M  V30 9212 C 869.207 0.869451 1.75214 0
M  V30 9213 O 870.413 1.07879 2.49147 0
M  V30 9214 C 868.869 3.36425 1.27852 0
M  V30 9215 C 868.477 4.47293 0.251531 0
M  V30 9216 C 870.221 3.77471 1.94206 0
M  V30 9217 C 868.128 5.85264 0.8497 0
M  V30 9218 H 867.058 0.707201 0.2615 0
M  V30 9219 H 869.709 1.83418 -0.0547209 0
M  V30 9220 H 868.091 3.37356 2.07381 0
M  V30 9221 H 869.265 4.5787 -0.518796 0
M  V30 9222 H 867.58 4.15235 -0.311281 0
M  V30 9223 H 870.177 4.77884 2.39855 0
M  V30 9224 H 870.52 3.10722 2.77051 0
M  V30 9225 H 871.053 3.78817 1.21419 0
M  V30 9226 H 867.792 6.55472 0.0601408 0
M  V30 9227 H 867.312 5.78361 1.5893 0
M  V30 9228 H 868.991 6.32762 1.34984 0
M  V30 9229 N 869.123 -0.277682 1.55134 0
M  V30 9230 C 870.351 -1.02826 1.7954 0
M  V30 9231 C 870.766 -1.80105 0.566373 0
M  V30 9232 O 870.123 -1.76491 -0.464448 0
M  V30 9233 C 870.174 -1.99053 3.01762 0
M  V30 9234 O 869.895 -1.24906 4.19917 0
M  V30 9235 C 871.396 -2.85961 3.38735 0
M  V30 9236 H 868.616 -0.303958 0.598206 0
M  V30 9237 H 871.16 -0.309884 2.02138 0
M  V30 9238 H 869.315 -2.66359 2.81303 0
M  V30 9239 H 869.729 -1.89725 4.88983 0
M  V30 9240 H 871.203 -3.49286 4.27438 0
M  V30 9241 H 871.68 -3.55486 2.57928 0
M  V30 9242 H 872.286 -2.24152 3.61436 0
M  V30 9243 N 870.601 -1.47988 -0.541979 0
M  V30 9244 C 871.831 -1.58804 -1.32155 0
M  V30 9245 C 872.239 -0.242893 -1.87634 0
M  V30 9246 O 871.582 0.776239 -1.66494 0
M  V30 9247 C 871.644 -2.56567 -2.51821 0
M  V30 9248 C 871.308 -4.01915 -2.17517 0
M  V30 9249 C 872.305 -4.89954 -1.73901 0
M  V30 9250 C 869.99 -4.47365 -2.28408 0
M  V30 9251 C 871.984 -6.21467 -1.41625 0
M  V30 9252 C 869.671 -5.78902 -1.95745 0
M  V30 9253 C 870.669 -6.65775 -1.52423 0
M  V30 9254 O 870.357 -7.94866 -1.20183 0
M  V30 9255 H 870.089 -0.538536 -0.408601 0
M  V30 9256 H 872.643 -1.94446 -0.661818 0
M  V30 9257 H 870.873 -2.16023 -3.20735 0
M  V30 9258 H 872.562 -2.57347 -3.13891 0
M  V30 9259 H 873.328 -4.56082 -1.64966 0
M  V30 9260 H 869.207 -3.79942 -2.61084 0
M  V30 9261 H 872.751 -6.8923 -1.07738 0
M  V30 9262 H 868.648 -6.12311 -2.04316 0
M  V30 9263 H 869.416 -8.07509 -1.33683 0
M  V30 9264 N 872.079 0.78992 -1.36375 0
M  V30 9265 C 873.325 1.55007 -1.3077 0
M  V30 9266 C 873.658 1.93871 0.112979 0
M  V30 9267 O 872.933 1.6267 1.06625 0
M  V30 9268 C 873.216 2.82748 -2.22993 0
M  V30 9269 C 873.069 2.50253 -3.73756 0
M  V30 9270 C 874.388 3.84569 -2.13998 0
M  V30 9271 H 871.507 0.562362 -0.476359 0
M  V30 9272 H 874.149 0.907582 -1.66922 0
M  V30 9273 H 872.299 3.37573 -1.92292 0
M  V30 9274 H 873.971 2.01482 -4.14973 0
M  V30 9275 H 872.214 1.83203 -3.93216 0
M  V30 9276 H 872.885 3.41487 -4.33694 0
M  V30 9277 H 875.361 3.39188 -2.4102 0
M  V30 9278 H 874.237 4.717 -2.80697 0
M  V30 9279 H 874.498 4.27491 -1.12711 0
M  V30 9280 N 873.557 1.20646 1.01402 0
M  V30 9281 C 874.805 1.01618 1.74695 0
M  V30 9282 C 875.126 -0.452438 1.89679 0
M  V30 9283 O 874.396 -1.32693 1.44116 0
M  V30 9284 H 872.976 0.373013 0.647202 0
M  V30 9285 H 875.638 1.518 1.22241 0
M  V30 9286 H 874.734 1.47666 2.74957 0
M  V30 9287 N 875.035 -1.20752 1.01276 0
M  V30 9288 C 875.965 -2.25658 0.600064 0
M  V30 9289 C 876.946 -1.65733 -0.38298 0
M  V30 9290 O 878.131 -1.92324 -0.269256 0
M  V30 9291 C 875.261 -3.47237 -0.0663197 0
M  V30 9292 C 874.215 -4.1973 0.83731 0
M  V30 9293 C 873.541 -5.34687 0.0369102 0
M  V30 9294 C 874.841 -4.76286 2.14357 0
M  V30 9295 H 876.535 -2.60432 1.477 0
M  V30 9296 H 874.081 -1.25187 0.711634 0
M  V30 9297 H 876.034 -4.19803 -0.366563 0
M  V30 9298 H 874.758 -3.11615 -0.977944 0
M  V30 9299 H 873.417 -3.49024 1.1215 0
M  V30 9300 H 873.065 -4.95309 -0.876244 0
M  V30 9301 H 872.765 -5.84119 0.63865 0
M  V30 9302 H 874.289 -6.10059 -0.256968 0
M  V30 9303 H 875.703 -5.40691 1.90595 0
M  V30 9304 H 874.1 -5.36139 2.69583 0
M  V30 9305 H 875.17 -3.9524 2.80916 0
M  V30 9306 N 876.513 -0.788492 -1.36457 0
M  V30 9307 C 877.761 -0.359749 -1.98872 0
M  V30 9308 C 878.082 1.07197 -1.62892 0
M  V30 9309 O 877.352 1.73875 -0.902463 0
M  V30 9310 H 875.932 -0.130029 -0.735596 0
M  V30 9311 H 878.594 -1.01033 -1.66668 0
M  V30 9312 H 877.69 -0.450835 -3.08827 0
M  V30 9313 N 877.991 1.48044 -0.54043 0
M  V30 9314 C 879.24 2.01698 -0.00809961 0
M  V30 9315 C 879.553 1.42184 1.34325 0
M  V30 9316 O 880.759 1.87398 1.96454 0
M  V30 9317 C 879.215 3.59882 0.035933 0
M  V30 9318 C 878.823 4.28384 -1.31115 0
M  V30 9319 C 880.567 4.21346 0.51654 0
M  V30 9320 C 878.474 5.78529 -1.22714 0
M  V30 9321 H 877.404 0.754 0.000742174 0
M  V30 9322 H 880.055 1.70204 -0.685775 0
M  V30 9323 H 878.437 3.88264 0.778906 0
M  V30 9324 H 879.611 4.11663 -2.07051 0
M  V30 9325 H 877.926 3.78837 -1.72834 0
M  V30 9326 H 880.523 5.31351 0.597529 0
M  V30 9327 H 880.866 3.87373 1.52473 0
M  V30 9328 H 881.399 3.97432 -0.171064 0
M  V30 9329 H 878.138 6.17093 -2.21081 0
M  V30 9330 H 877.658 5.97634 -0.50931 0
M  V30 9331 H 879.337 6.40395 -0.92216 0
M  V30 9332 N 879.47 0.276058 1.55163 0
M  V30 9333 C 880.695 -0.346648 2.04483 0
M  V30 9334 C 881.12 -1.48613 1.15308 0
M  V30 9335 O 880.478 -1.80663 0.151875 0
M  V30 9336 C 880.526 -0.804268 3.51517 0
M  V30 9337 O 879.63 -1.91143 3.65429 0
M  V30 9338 H 878.971 -0.0715251 0.660136 0
M  V30 9339 H 881.501 0.410631 2.00437 0
M  V30 9340 H 881.511 -1.09977 3.92898 0
M  V30 9341 H 880.186 0.0294123 4.1589 0
M  V30 9342 H 878.763 -1.61839 3.3595 0
M  V30 9343 N 880.948 -1.576 0.00335426 0
M  V30 9344 C 882.197 -1.89892 -0.680001 0
M  V30 9345 C 882.51 -0.878731 -1.7475 0
M  V30 9346 O 883.716 -1.09199 -2.48572 0
M  V30 9347 C 882.172 -3.37098 -1.26066 0
M  V30 9348 C 881.78 -4.4742 -0.227807 0
M  V30 9349 C 883.524 -3.78495 -1.92202 0
M  V30 9350 C 881.431 -5.85706 -0.81865 0
M  V30 9351 H 880.361 -0.708578 -0.257746 0
M  V30 9352 H 883.012 -1.83387 0.0644472 0
M  V30 9353 H 881.394 -3.38451 -2.05589 0
M  V30 9354 H 882.568 -4.57589 0.54307 0
M  V30 9355 H 880.883 -4.15064 0.333297 0
M  V30 9356 H 883.48 -4.7915 -2.37318 0
M  V30 9357 H 883.823 -3.12187 -2.75399 0
M  V30 9358 H 884.356 -3.79456 -1.19408 0
M  V30 9359 H 881.095 -6.55495 -0.0253787 0
M  V30 9360 H 880.615 -5.79196 -1.55861 0
M  V30 9361 H 882.294 -6.33469 -1.31627 0
M  V30 9362 N 882.426 0.269451 -1.5528 0
M  V30 9363 C 883.674 0.998604 -1.75705 0
M  V30 9364 C 883.995 1.86691 -0.563175 0
M  V30 9365 O 883.265 1.91305 0.421811 0
M  V30 9366 H 881.845 0.371698 -0.647958 0
M  V30 9367 H 884.507 0.292826 -1.92688 0
M  V30 9368 H 883.603 1.63348 -2.6594 0
M  V30 9369 N 883.904 1.48273 0.534124 0
M  V30 9370 C 885.129 1.59988 1.31979 0
M  V30 9371 C 885.554 0.258824 1.86311 0
M  V30 9372 O 884.912 -0.768885 1.64188 0
M  V30 9373 C 884.96 2.64642 2.44943 0
M  V30 9374 O 884.064 2.21515 3.47858 0
M  V30 9375 H 883.405 0.536625 0.391063 0
M  V30 9376 H 885.935 1.94229 0.643135 0
M  V30 9377 H 885.945 2.85786 2.91187 0
M  V30 9378 H 884.62 3.62004 2.04758 0
M  V30 9379 H 883.197 2.10567 3.0776 0
M  V30 9380 N 885.382 -0.782676 1.36792 0
M  V30 9381 C 886.312 -1.90973 1.34356 0
M  V30 9382 C 887.293 -1.6875 0.213917 0
M  V30 9383 O 888.478 -1.89766 0.412601 0
M  V30 9384 C 885.608 -3.28097 1.13884 0
M  V30 9385 C 884.562 -3.6486 2.23744 0
M  V30 9386 C 883.888 -5.00406 1.88408 0
M  V30 9387 C 885.188 -3.72742 3.6587 0
M  V30 9388 H 886.882 -1.93268 2.28665 0
M  V30 9389 H 884.428 -0.928447 1.10072 0
M  V30 9390 H 886.381 -4.06569 1.10813 0
M  V30 9391 H 885.105 -3.26206 0.160275 0
M  V30 9392 H 883.764 -2.88689 2.25952 0
M  V30 9393 H 883.412 -4.95044 0.891083 0
M  V30 9394 H 883.112 -5.25973 2.61966 0
M  V30 9395 H 884.636 -5.81291 1.86905 0
M  V30 9396 H 886.05 -4.4139 3.65852 0
M  V30 9397 H 884.447 -4.09798 4.38389 0
M  V30 9398 H 885.517 -2.73676 4.00287 0
M  V30 9399 N 886.86 -1.21182 -1.00761 0
M  V30 9400 C 888.109 -1.02166 -1.73911 0
M  V30 9401 C 888.422 0.445638 -1.90456 0
M  V30 9402 O 889.628 0.755132 -2.60787 0
M  V30 9403 C 888.084 -1.77936 -3.12837 0
M  V30 9404 C 887.692 -3.28819 -3.04273 0
M  V30 9405 C 889.436 -1.67319 -3.90134 0
M  V30 9406 C 887.343 -3.97089 -4.38262 0
M  V30 9407 H 886.273 -0.378665 -0.652019 0
M  V30 9408 H 888.924 -1.44891 -1.12601 0
M  V30 9409 H 887.306 -1.28003 -3.74742 0
M  V30 9410 H 888.48 -3.86035 -2.51622 0
M  V30 9411 H 886.795 -3.39949 -2.40465 0
M  V30 9412 H 889.392 -2.15659 -4.8928 0
M  V30 9413 H 889.735 -0.630959 -4.11491 0
M  V30 9414 H 890.268 -2.14716 -3.34876 0
M  V30 9415 H 887.007 -5.01503 -4.22107 0
M  V30 9416 H 886.527 -3.44662 -4.90885 0
M  V30 9417 H 888.206 -4.01854 -5.07072 0
M  V30 9418 N 888.338 1.20213 -1.01915 0
M  V30 9419 C 889.268 2.25336 -0.612023 0
M  V30 9420 C 890.249 1.65933 0.374186 0
M  V30 9421 O 891.434 1.92464 0.259053 0
M  V30 9422 C 888.564 3.47267 0.047904 0
M  V30 9423 C 887.518 4.1928 -0.859557 0
M  V30 9424 C 886.844 5.3466 -0.0652655 0
M  V30 9425 C 888.144 4.75143 -2.1688 0
M  V30 9426 H 889.838 2.59645 -1.49079 0
M  V30 9427 H 887.384 1.24808 -0.718263 0
M  V30 9428 H 889.337 4.19991 0.344294 0
M  V30 9429 H 888.061 3.12129 0.961404 0
M  V30 9430 H 886.72 3.48425 -1.13999 0
M  V30 9431 H 886.368 4.95767 0.849964 0
M  V30 9432 H 886.068 5.83772 -0.669618 0
M  V30 9433 H 887.592 6.10187 0.224612 0
M  V30 9434 H 889.006 5.39672 -1.9346 0
M  V30 9435 H 887.403 5.34702 -2.72422 0
M  V30 9436 H 888.473 3.93744 -2.83008 0
M  V30 9437 N 889.816 0.795718 1.36037 0
M  V30 9438 C 891.056 0.376514 2.00902 0
M  V30 9439 C 891.42 -1.03405 1.61776 0
M  V30 9440 O 892.621 -1.55468 2.19279 0
M  V30 9441 C 890.892 0.542086 3.53265 0
M  V30 9442 S 892.451 0.211694 4.38289 0
M  V30 9443 H 889.269 0.143527 0.696363 0
M  V30 9444 H 891.871 1.03559 1.65819 0
M  V30 9445 H 890.575 1.56888 3.79229 0
M  V30 9446 H 890.106 -0.132698 3.93176 0
M  V30 9447 H 892.121 -0.98452 4.86335 0
M  V30 9448 N 891.294 -1.47756 0.548274 0
M  V30 9449 C 892.224 -2.32702 -0.19284 0
M  V30 9450 C 893.205 -1.43237 -0.917457 0
M  V30 9451 O 894.39 -1.72103 -0.89967 0
M  V30 9452 C 891.52 -3.24831 -1.22891 0
M  V30 9453 C 890.474 -4.23466 -0.621312 0
M  V30 9454 C 889.8 -5.04856 -1.76137 0
M  V30 9455 C 891.1 -5.20616 0.419055 0
M  V30 9456 H 892.794 -2.94914 0.516323 0
M  V30 9457 H 890.34 -1.41818 0.24975 0
M  V30 9458 H 892.293 -3.83094 -1.75547 0
M  V30 9459 H 891.017 -2.60656 -1.9679 0
M  V30 9460 H 889.676 -3.66416 -0.116123 0
M  V30 9461 H 889.324 -4.37091 -2.48918 0
M  V30 9462 H 889.024 -5.71629 -1.36065 0
M  V30 9463 H 890.548 -5.65976 -2.29136 0
M  V30 9464 H 891.962 -5.73296 -0.0211034 0
M  V30 9465 H 890.359 -5.95543 0.738163 0
M  V30 9466 H 891.429 -4.66638 1.31822 0
M  V30 9467 N 892.772 -0.284283 -1.55015 0
M  V30 9468 C 894.021 0.33055 -1.98973 0
M  V30 9469 C 894.334 1.56284 -1.17621 0
M  V30 9470 O 895.54 2.2512 -1.51767 0
M  V30 9471 C 893.996 0.639457 -3.54174 0
M  V30 9472 C 893.604 -0.573543 -4.44313 0
M  V30 9473 C 895.348 1.21641 -4.06699 0
M  V30 9474 C 893.255 -0.238715 -5.90918 0
M  V30 9475 H 892.185 0.127285 -0.743179 0
M  V30 9476 H 894.836 -0.390372 -1.793 0
M  V30 9477 H 893.218 1.41953 -3.69683 0
M  V30 9478 H 894.392 -1.3502 -4.40575 0
M  V30 9479 H 892.707 -1.06797 -4.02472 0
M  V30 9480 H 895.304 1.48088 -5.13784 0
M  V30 9481 H 895.647 2.15328 -3.56286 0
M  V30 9482 H 896.18 0.498422 -3.94665 0
M  V30 9483 H 892.919 -1.1437 -6.45445 0
M  V30 9484 H 892.439 0.500997 -5.97704 0
M  V30 9485 H 894.118 0.165774 -6.46788 0
M  V30 9486 N 894.251 1.57596 -0.0117121 0
M  V30 9487 C 895.5 1.9025 0.669921 0
M  V30 9488 C 895.813 0.887986 1.74282 0
M  V30 9489 O 897.019 1.10516 2.47989 0
M  V30 9490 C 895.475 3.37762 1.24277 0
M  V30 9491 C 895.083 4.47535 0.204076 0
M  V30 9492 C 896.827 3.79509 1.90192 0
M  V30 9493 C 894.734 5.86132 0.787577 0
M  V30 9494 H 893.664 0.709935 0.253984 0
M  V30 9495 H 896.315 1.8335 -0.0741718 0
M  V30 9496 H 894.697 3.39537 2.03791 0
M  V30 9497 H 895.871 4.57294 -0.56733 0
M  V30 9498 H 894.186 4.14881 -0.355305 0
M  V30 9499 H 896.783 4.80402 2.34773 0
M  V30 9500 H 897.126 3.13643 2.7374 0
M  V30 9501 H 897.659 3.80084 1.17394 0
M  V30 9502 H 894.398 6.55499 -0.00938418 0
M  V30 9503 H 893.918 5.80014 1.52787 0
M  V30 9504 H 895.597 6.34158 1.28265 0
M  V30 9505 N 895.729 -0.261212 1.5542 0
M  V30 9506 C 896.639 -1.34493 1.92221 0
M  V30 9507 C 897.655 -1.53421 0.82086 0
M  V30 9508 O 898.831 -1.6732 1.12099 0
M  V30 9509 C 895.896 -2.68209 2.19692 0
M  V30 9510 C 894.957 -2.57927 3.43179 0
M  V30 9511 C 894.19 -3.85266 3.69331 0
M  V30 9512 O 894.413 -4.86493 2.97793 0
M  V30 9513 O 893.347 -3.8476 4.62865 0
M  V30 9514 H 897.173 -1.06278 2.84497 0
M  V30 9515 H 894.758 -0.460752 1.42118 0
M  V30 9516 H 896.64 -3.47252 2.38734 0
M  V30 9517 H 895.315 -2.96186 1.30597 0
M  V30 9518 H 894.222 -1.77219 3.2946 0
M  V30 9519 H 895.555 -2.34898 4.32532 0
M  V30 9520 N 897.207 -1.48554 -0.526253 0
M  V30 9521 C 898.17 -1.62868 -1.61266 0
M  V30 9522 C 899.17 -0.501762 -1.52771 0
M  V30 9523 O 900.36 -0.76764 -1.56374 0
M  V30 9524 C 897.492 -1.60238 -3.00893 0
M  V30 9525 H 898.685 -2.59742 -1.49913 0
M  V30 9526 H 896.238 -1.37207 -0.748595 0
M  V30 9527 H 896.973 -0.648545 -3.17749 0
M  V30 9528 H 896.758 -2.42054 -3.08468 0
M  V30 9529 H 898.248 -1.73455 -3.79872 0
M  V30 9530 N 898.685 0.775411 -1.37205 0
M  V30 9531 C 899.615 1.90258 -1.35367 0
M  V30 9532 C 900.596 1.68634 -0.222864 0
M  V30 9533 O 901.781 1.89545 -0.422659 0
M  V30 9534 C 898.911 3.27488 -1.15623 0
M  V30 9535 C 897.865 3.63668 -2.25676 0
M  V30 9536 C 897.191 4.994 -1.91059 0
M  V30 9537 C 898.491 3.70797 -3.67841 0
M  V30 9538 H 900.185 1.92053 -2.29687 0
M  V30 9539 H 897.731 0.922597 -1.10563 0
M  V30 9540 H 899.684 4.05976 -1.12968 0
M  V30 9541 H 898.408 3.26117 -0.177573 0
M  V30 9542 H 897.067 2.87486 -2.2748 0
M  V30 9543 H 896.715 4.94565 -0.917324 0
M  V30 9544 H 896.415 5.24576 -2.64751 0
M  V30 9545 H 897.939 5.80291 -1.89985 0
M  V30 9546 H 899.353 4.39444 -3.68187 0
M  V30 9547 H 897.75 4.07468 -4.40556 0
M  V30 9548 H 898.82 2.71549 -4.01732 0
M  V30 9549 N 900.163 1.21714 1.00117 0
M  V30 9550 C 901.41 1.0367 1.73951 0
M  V30 9551 C 901.738 -0.429289 1.89703 0
M  V30 9552 O 900.993 -1.33475 1.43119 0
M  V30 9553 C 901.292 1.68345 3.15269 0
M  V30 9554 C 900.958 3.18214 3.19454 0
M  V30 9555 C 899.62 3.59109 3.20303 0
M  V30 9556 C 901.972 4.14179 3.16394 0
M  V30 9557 C 899.3 4.94467 3.15783 0
M  V30 9558 C 901.652 5.49502 3.13416 0
M  V30 9559 C 900.316 5.8979 3.12577 0
M  V30 9560 H 899.586 0.379355 0.63653 0
M  V30 9561 H 902.233 1.51361 1.17312 0
M  V30 9562 H 900.538 1.12957 3.75164 0
M  V30 9563 H 902.235 1.51882 3.71124 0
M  V30 9564 H 898.825 2.85646 3.19538 0
M  V30 9565 H 903.009 3.83607 3.14895 0
M  V30 9566 H 898.265 5.24923 3.13473 0
M  V30 9567 H 902.439 6.23595 3.10003 0
M  V30 9568 H 900.066 6.94643 3.08829 0
M  V30 9569 N 901.641 -1.19671 1.02551 0
M  V30 9570 C 902.887 -1.89818 0.730801 0
M  V30 9571 C 903.242 -1.77917 -0.732355 0
M  V30 9572 O 902.535 -1.15848 -1.5261 0
M  V30 9573 C 902.729 -3.39647 1.11241 0
M  V30 9574 C 902.558 -3.66129 2.61112 0
M  V30 9575 C 901.328 -3.84348 3.28032 0
M  V30 9576 C 903.526 -3.67963 3.59316 0
M  V30 9577 N 901.508 -3.98429 4.67041 0
M  V30 9578 C 902.879 -3.87575 4.83927 0
M  V30 9579 C 904.934 -3.50971 3.53162 0
M  V30 9580 C 903.637 -3.91957 6.03127 0
M  V30 9581 C 905.663 -3.56629 4.71773 0
M  V30 9582 C 905.025 -3.76722 5.95197 0
M  V30 9583 H 901.124 -0.713873 0.319232 0
M  V30 9584 H 903.708 -1.43844 1.31213 0
M  V30 9585 H 901.879 -3.84352 0.559324 0
M  V30 9586 H 903.611 -3.97301 0.77031 0
M  V30 9587 H 900.366 -3.83097 2.78448 0
M  V30 9588 H 900.79 -4.09327 5.39241 0
M  V30 9589 H 905.432 -3.34395 2.58728 0
M  V30 9590 H 903.15 -4.07326 6.97933 0
M  V30 9591 H 906.736 -3.44777 4.68637 0
M  V30 9592 H 905.616 -3.8097 6.85442 0
M  V30 9593 N 903.119 -0.802921 -1.35613 0
M  V30 9594 C 904.066 -0.20874 -2.29854 0
M  V30 9595 C 905.036 0.655128 -1.52634 0
M  V30 9596 O 906.221 0.600979 -1.81088 0
M  V30 9597 C 903.361 0.639663 -3.3912 0
M  V30 9598 C 902.474 -0.244234 -4.31309 0
M  V30 9599 C 901.609 0.611825 -5.27665 0
M  V30 9600 C 900.648 -0.272698 -6.11492 0
M  V30 9601 N 899.785 0.543122 -6.99996 0
M  V30 9602 H 904.625 -1.01782 -2.80079 0
M  V30 9603 H 902.162 -0.513465 -1.37848 0
M  V30 9604 H 904.12 1.14668 -4.01132 0
M  V30 9605 H 902.75 1.41404 -2.9018 0
M  V30 9606 H 901.802 -0.869322 -3.70334 0
M  V30 9607 H 903.114 -0.925202 -4.90144 0
M  V30 9608 H 902.268 1.18412 -5.95032 0
M  V30 9609 H 901.007 1.32637 -4.69317 0
M  V30 9610 H 900.012 -0.857287 -5.43075 0
M  V30 9611 H 901.237 -0.985051 -6.71918 0
M  V30 9612 H 899.183 1.24171 -6.44141 0
M  V30 9613 H 899.1 -0.0798767 -7.55958 0
M  V30 9614 H 900.368 1.09881 -7.71717 0
M  V30 9615 N 904.597 1.47463 -0.556102 0
M  V30 9616 C 905.529 2.28046 0.22968 0
M  V30 9617 C 906.542 1.3694 0.880409 0
M  V30 9618 O 907.731 1.61773 0.754447 0
M  V30 9619 C 904.831 3.11165 1.34273 0
M  V30 9620 C 904.004 4.30225 0.789004 0
M  V30 9621 C 903.063 4.94948 1.78641 0
M  V30 9622 O 902.089 5.53372 1.33297 0
M  V30 9623 N 903.291 4.89543 3.11974 0
M  V30 9624 H 906.056 2.96125 -0.461558 0
M  V30 9625 H 903.617 1.5708 -0.392105 0
M  V30 9626 H 905.609 3.51331 2.00869 0
M  V30 9627 H 904.179 2.45337 1.93722 0
M  V30 9628 H 903.399 3.94163 -0.0536971 0
M  V30 9629 H 904.687 5.07238 0.398378 0
M  V30 9630 H 904.085 4.43275 3.51459 0
M  V30 9631 H 902.642 5.33732 3.74131 0
M  V30 9632 N 906.075 0.2925 1.54862 0
M  V30 9633 C 907.324 -0.319994 1.99146 0
M  V30 9634 C 907.637 -1.55658 1.18448 0
M  V30 9635 O 908.843 -2.24312 1.52959 0
M  V30 9636 C 907.299 -0.620665 3.54508 0
M  V30 9637 C 906.907 0.597098 4.44003 0
M  V30 9638 C 908.651 -1.19482 4.07338 0
M  V30 9639 C 906.558 0.270049 5.90783 0
M  V30 9640 H 905.488 -0.123342 0.743843 0
M  V30 9641 H 908.139 0.399876 1.7909 0
M  V30 9642 H 906.521 -1.3999 3.7043 0
M  V30 9643 H 907.695 1.37354 4.39853 0
M  V30 9644 H 906.01 1.0893 4.019 0
M  V30 9645 H 908.607 -1.45362 5.14562 0
M  V30 9646 H 908.95 -2.13435 3.57423 0
M  V30 9647 H 909.483 -0.477485 3.94924 0
M  V30 9648 H 906.222 1.17791 6.4483 0
M  V30 9649 H 905.742 -0.469292 5.97961 0
M  V30 9650 H 907.421 -0.131471 6.46866 0
M  V30 9651 N 907.553 -1.57587 0.0200696 0
M  V30 9652 C 908.5 -2.09667 -0.964791 0
M  V30 9653 C 909.47 -0.99664 -1.32877 0
M  V30 9654 O 910.655 -1.2703 -1.42366 0
M  V30 9655 C 907.795 -2.62101 -2.24493 0
M  V30 9656 C 906.908 -3.8608 -1.93821 0
M  V30 9657 C 906.043 -4.26939 -3.16064 0
M  V30 9658 C 905.082 -5.43701 -2.81169 0
M  V30 9659 N 904.219 -5.79759 -3.9601 0
M  V30 9660 H 909.059 -2.93538 -0.513751 0
M  V30 9661 H 906.596 -1.45096 -0.242 0
M  V30 9662 H 908.554 -2.90587 -2.99358 0
M  V30 9663 H 907.184 -1.81074 -2.6723 0
M  V30 9664 H 906.236 -3.64378 -1.09237 0
M  V30 9665 H 907.548 -4.71028 -1.64115 0
M  V30 9666 H 906.702 -4.56814 -3.99257 0
M  V30 9667 H 905.441 -3.40739 -3.48924 0
M  V30 9668 H 904.446 -5.13529 -1.96387 0
M  V30 9669 H 905.671 -6.31593 -2.49535 0
M  V30 9670 H 903.617 -4.96516 -4.28729 0
M  V30 9671 H 903.534 -6.59327 -3.69896 0
M  V30 9672 H 904.802 -6.14235 -4.79933 0
M  V30 9673 N 909.032 0.252966 -1.55557 0
M  V30 9674 C 909.979 1.3131 -1.89806 0
M  V30 9675 C 910.949 1.48121 -0.751633 0
M  V30 9676 O 912.134 1.62202 -1.00474 0
M  V30 9677 C 909.274 2.66467 -2.19293 0
M  V30 9678 C 908.387 2.57714 -3.46709 0
M  V30 9679 C 907.522 3.85184 -3.65796 0
M  V30 9680 C 906.561 3.71023 -4.86835 0
M  V30 9681 N 905.698 4.90371 -5.02474 0
M  V30 9682 H 910.538 1.01402 -2.80217 0
M  V30 9683 H 908.075 0.489462 -1.38718 0
M  V30 9684 H 910.033 3.45132 -2.34392 0
M  V30 9685 H 908.663 2.94536 -1.32093 0
M  V30 9686 H 907.715 1.70651 -3.39974 0
M  V30 9687 H 909.027 2.43158 -4.35517 0
M  V30 9688 H 908.181 4.72292 -3.80822 0
M  V30 9689 H 906.92 4.0263 -2.7521 0
M  V30 9690 H 905.925 2.82299 -4.71792 0
M  V30 9691 H 907.15 3.55078 -5.78875 0
M  V30 9692 H 905.096 5.0819 -4.14824 0
M  V30 9693 H 905.013 4.78423 -5.85361 0
M  V30 9694 H 906.281 5.78995 -5.21905 0
M  V30 9695 N 910.51 1.48831 0.518367 0
M  V30 9696 C 911.735 1.61379 1.30275 0
M  V30 9697 C 912.16 0.278571 1.86026 0
M  V30 9698 O 911.518 -0.751427 1.64995 0
M  V30 9699 C 911.566 2.67225 2.42122 0
M  V30 9700 O 910.67 2.25192 3.45489 0
M  V30 9701 H 910.011 0.540742 0.385349 0
M  V30 9702 H 912.541 1.949 0.622498 0
M  V30 9703 H 912.551 2.88859 2.8814 0
M  V30 9704 H 911.226 3.64155 2.00907 0
M  V30 9705 H 909.803 2.13819 3.05509 0
M  V30 9706 N 911.988 -0.768124 1.37614 0
M  V30 9707 C 912.92 -1.89076 1.29548 0
M  V30 9708 C 913.933 -1.61433 0.21056 0
M  V30 9709 O 915.122 -1.72283 0.466992 0
M  V30 9710 C 912.222 -3.24388 0.981102 0
M  V30 9711 C 911.395 -3.79649 2.17222 0
M  V30 9712 C 910.454 -4.93444 1.82754 0
M  V30 9713 O 909.48 -5.0884 2.5509 0
M  V30 9714 N 910.682 -5.75319 0.773819 0
M  V30 9715 H 913.447 -1.9651 2.26283 0
M  V30 9716 H 911.008 -0.947399 1.31286 0
M  V30 9717 H 913 -3.98038 0.731301 0
M  V30 9718 H 911.57 -3.12433 0.102203 0
M  V30 9719 H 910.79 -2.97735 2.58355 0
M  V30 9720 H 912.078 -4.13302 2.96748 0
M  V30 9721 H 911.476 -5.65433 0.173644 0
M  V30 9722 H 910.033 -6.4918 0.583882 0
M  V30 9723 N 913.466 -1.22244 -0.994698 0
M  V30 9724 C 914.694 -1.07218 -1.76952 0
M  V30 9725 C 915.109 0.377388 -1.8499 0
M  V30 9726 O 914.466 1.26157 -1.31874 0
M  V30 9727 C 914.517 -1.67496 -3.20355 0
M  V30 9728 O 914.238 -3.06782 -3.12756 0
M  V30 9729 C 915.739 -1.57721 -4.14294 0
M  V30 9730 H 912.959 -0.375966 -0.555779 0
M  V30 9731 H 915.503 -1.61799 -1.25065 0
M  V30 9732 H 913.658 -1.16982 -3.69315 0
M  V30 9733 H 914.072 -3.35784 -4.02926 0
M  V30 9734 H 915.546 -2.04623 -5.12673 0
M  V30 9735 H 916.023 -0.533434 -4.35949 0
M  V30 9736 H 916.629 -2.07531 -3.71229 0
M  V30 9737 N 914.944 1.19125 -1.03184 0
M  V30 9738 C 916.169 1.93379 -0.749628 0
M  V30 9739 C 916.594 1.75153 0.685785 0
M  V30 9740 O 915.952 1.05579 1.47386 0
M  V30 9741 C 916 3.43101 -1.1097 0
M  V30 9742 O 915.104 4.11758 -0.230053 0
M  V30 9743 H 914.445 0.603605 -0.276689 0
M  V30 9744 H 916.975 1.51116 -1.37931 0
M  V30 9745 H 916.985 3.93778 -1.06785 0
M  V30 9746 H 915.66 3.55688 -2.15544 0
M  V30 9747 H 914.237 3.7143 -0.330748 0
M  V30 9748 N 916.422 0.810101 1.35185 0
M  V30 9749 C 917.372 0.195541 2.2716 0
M  V30 9750 C 918.356 -0.632691 1.47939 0
M  V30 9751 O 919.548 -0.489372 1.701 0
M  V30 9752 C 916.677 -0.652164 3.37049 0
M  V30 9753 C 915.763 0.185989 4.23692 0
M  V30 9754 N 916.154 1.25073 4.90092 0
M  V30 9755 C 914.452 -0.0318033 4.45989 0
M  V30 9756 C 915.153 1.76272 5.54349 0
M  V30 9757 N 914.129 1.06861 5.32993 0
M  V30 9758 H 917.931 1.01018 2.75994 0
M  V30 9759 H 915.445 0.651612 1.48754 0
M  V30 9760 H 917.442 -1.10851 4.01893 0
M  V30 9761 H 916.102 -1.46511 2.89767 0
M  V30 9762 H 917.113 1.63341 4.91467 0
M  V30 9763 H 913.79 -0.813607 4.09496 0
M  V30 9764 H 915.18 2.65278 6.17315 0
M  V30 9765 N 917.9 -1.47166 0.563914 0
M  V30 9766 C 919.128 -2.06846 0.0474287 0
M  V30 9767 C 919.543 -1.41557 -1.24928 0
M  V30 9768 O 918.9 -0.514376 -1.75101 0
M  V30 9769 C 918.951 -3.6121 -0.144831 0
M  V30 9770 O 918.672 -4.24052 1.10053 0
M  V30 9771 C 920.173 -4.37773 -0.69783 0
M  V30 9772 H 917.393 -0.669217 0.0488896 0
M  V30 9773 H 919.937 -1.89072 0.779235 0
M  V30 9774 H 918.092 -3.78474 -0.82679 0
M  V30 9775 H 918.506 -5.16677 0.902481 0
M  V30 9776 H 919.98 -5.46438 -0.781616 0
M  V30 9777 H 920.457 -4.04517 -1.71063 0
M  V30 9778 H 921.063 -4.25269 -0.0513516 0
M  V30 9779 N 919.378 -0.300708 -1.54705 0
M  V30 9780 C 920.794 0.0526874 -1.59513 0
M  V30 9781 C 920.994 1.52444 -1.31769 0
M  V30 9782 O 920.05 2.27716 -1.09096 0
M  V30 9783 C 921.363 -0.344989 -2.98714 0
M  V30 9784 C 922.911 -0.29373 -3.11619 0
M  V30 9785 C 923.386 -0.666225 -4.53129 0
M  V30 9786 N 924.877 -0.618749 -4.59049 0
M  V30 9787 C 925.612 -0.879447 -5.66616 0
M  V30 9788 N 925.108 -1.2061 -6.82221 0
M  V30 9789 N 926.901 -0.806528 -5.56284 0
M  V30 9790 H 919.052 -1.25988 -1.71 0
M  V30 9791 H 921.315 -0.510758 -0.798643 0
M  V30 9792 H 921.021 -1.36953 -3.2394 0
M  V30 9793 H 920.895 0.301507 -3.75993 0
M  V30 9794 H 923.282 0.72156 -2.86142 0
M  V30 9795 H 923.363 -0.974844 -2.36496 0
M  V30 9796 H 923.007 -1.67932 -4.79334 0
M  V30 9797 H 922.937 0.0369575 -5.26587 0
M  V30 9798 H 925.428 -0.377202 -3.76013 0
M  V30 9799 H 925.741 -1.391 -7.60178 0
M  V30 9800 H 924.086 -1.24413 -6.83774 0
M  V30 9801 H 927.277 -0.550993 -4.64846 0
M  V30 9802 H 927.45 -1.01307 -6.40032 0
M  V30 9803 N 920.856 1.57574 -0.0284266 0
M  V30 9804 C 922.272 1.56194 0.327958 0
M  V30 9805 C 922.472 1.03397 1.72949 0
M  V30 9806 O 921.528 0.680392 2.4316 0
M  V30 9807 C 922.841 3.00177 0.177196 0
M  V30 9808 C 924.389 3.12 0.250014 0
M  V30 9809 C 924.864 4.57821 0.128049 0
M  V30 9810 N 926.355 4.6283 0.185054 0
M  V30 9811 C 927.09 5.73286 0.114454 0
M  V30 9812 N 926.586 6.928 -0.00719225 0
M  V30 9813 N 928.379 5.61848 0.16839 0
M  V30 9814 H 920.53 1.90224 -0.944921 0
M  V30 9815 H 922.793 0.874987 -0.364832 0
M  V30 9816 H 922.499 3.42753 -0.788224 0
M  V30 9817 H 922.373 3.65101 0.94768 0
M  V30 9818 H 924.76 2.69337 1.20589 0
M  V30 9819 H 924.841 2.49799 -0.550835 0
M  V30 9820 H 924.485 5.01165 -0.824407 0
M  V30 9821 H 924.415 5.18001 0.947753 0
M  V30 9822 H 926.906 3.76867 0.279247 0
M  V30 9823 H 927.219 7.72781 -0.0543903 0
M  V30 9824 H 925.564 6.94987 -0.0419648 0
M  V30 9825 H 928.755 4.67367 0.261821 0
M  V30 9826 H 928.928 6.47907 0.109908 0
M  V30 9827 N 922.334 -0.244713 1.55689 0
M  V30 9828 C 923.583 -0.970373 1.76824 0
M  V30 9829 C 923.896 -1.86402 0.592764 0
M  V30 9830 O 925.102 -2.62659 0.687186 0
M  V30 9831 C 923.558 -1.77547 3.13058 0
M  V30 9832 C 923.166 -0.929104 4.3826 0
M  V30 9833 C 924.91 -2.49373 3.43531 0
M  V30 9834 C 922.817 -1.73021 5.65524 0
M  V30 9835 H 921.747 -0.366048 0.659185 0
M  V30 9836 H 924.398 -0.224964 1.82116 0
M  V30 9837 H 922.78 -2.56291 3.01879 0
M  V30 9838 H 923.954 -0.183836 4.60433 0
M  V30 9839 H 922.269 -0.324071 4.15137 0
M  V30 9840 H 924.866 -3.09767 4.35831 0
M  V30 9841 H 925.209 -3.21099 2.64955 0
M  V30 9842 H 925.742 -1.77637 3.55935 0
M  V30 9843 H 922.481 -1.05666 6.46927 0
M  V30 9844 H 922.001 -2.45071 5.47449 0
M  V30 9845 H 923.68 -2.2968 6.0486 0
M  V30 9846 N 923.813 -1.49104 -0.510467 0
M  V30 9847 C 925.053 -1.59723 -1.27545 0
M  V30 9848 C 925.417 -0.273525 -1.90042 0
M  V30 9849 O 926.618 -0.254835 -2.67589 0
M  V30 9850 C 924.889 -2.71771 -2.3211 0
M  V30 9851 S 926.448 -3.02282 -3.18074 0
M  V30 9852 H 923.266 -0.563489 -0.433591 0
M  V30 9853 H 925.868 -1.86719 -0.579328 0
M  V30 9854 H 924.572 -3.66483 -1.84711 0
M  V30 9855 H 924.103 -2.46739 -3.06404 0
M  V30 9856 H 926.118 -2.43076 -4.32583 0
M  V30 9857 N 925.291 0.760815 -1.38019 0
M  V30 9858 C 926.224 1.88212 -1.2904 0
M  V30 9859 C 927.202 1.61721 -0.168805 0
M  V30 9860 O 928.386 1.85318 -0.344893 0
M  V30 9861 C 925.513 3.23672 -0.997702 0
M  V30 9862 C 924.559 3.6906 -2.13769 0
M  V30 9863 S 925.392 3.81445 -3.75845 0
M  V30 9864 C 926.548 5.19736 -3.48748 0
M  V30 9865 H 926.781 1.95541 -2.23944 0
M  V30 9866 H 924.314 0.923051 -1.2377 0
M  V30 9867 H 926.272 4.01904 -0.835657 0
M  V30 9868 H 924.933 3.14031 -0.065967 0
M  V30 9869 H 924.126 4.67295 -1.88816 0
M  V30 9870 H 923.728 2.97961 -2.26043 0
M  V30 9871 H 926.02 6.05259 -3.04414 0
M  V30 9872 H 926.963 5.49706 -4.46351 0
M  V30 9873 H 927.371 4.88191 -2.83425 0
M  V30 9874 N 926.769 1.22769 0.988202 0
M  V30 9875 C 928.015 1.05665 1.73097 0
M  V30 9876 C 928.348 -0.406615 1.89895 0
M  V30 9877 O 927.623 -1.30132 1.44554 0
M  V30 9878 C 927.906 1.77381 3.13382 0
M  V30 9879 C 927.759 3.31332 3.04203 0
M  V30 9880 C 929.078 1.52999 4.12649 0
M  V30 9881 H 926.197 0.385258 0.628288 0
M  V30 9882 H 928.839 1.51171 1.15097 0
M  V30 9883 H 926.989 1.38696 3.62899 0
M  V30 9884 H 928.661 3.79489 2.6227 0
M  V30 9885 H 926.904 3.60767 2.40894 0
M  V30 9886 H 927.575 3.76692 4.03493 0
M  V30 9887 H 930.051 1.86611 3.71908 0
M  V30 9888 H 928.927 2.05666 5.08913 0
M  V30 9889 H 929.188 0.463615 4.39662 0
M  V30 9890 N 928.247 -1.18576 1.03814 0
M  V30 9891 C 929.195 -2.24166 0.620678 0
M  V30 9892 C 930.189 -1.65718 -0.351282 0
M  V30 9893 O 931.395 -1.78665 -0.218848 0
M  V30 9894 H 927.77 -0.729522 0.182487 0
M  V30 9895 H 929.741 -2.56686 1.52166 0
M  V30 9896 C 928.49 -3.477 -0.00307331 0
M  V30 9897 H 927.813 -3.92969 0.735874 0
M  V30 9898 H 929.253 -4.23214 -0.257988 0
M  V30 9899 C 927.712 -3.12757 -1.2524 0
M  V30 9900 O 928.242 -3.26261 -2.34344 0
M  V30 9901 N 926.448 -2.67104 -1.14471 0
M  V30 9902 H 925.995 -2.56316 -0.256873 0
M  V30 9903 H 925.953 -2.44096 -1.98153 0
M  V30 9904 N 929.725 -0.817259 -1.34754 0
M  V30 9905 C 930.974 -0.39908 -1.97713 0
M  V30 9906 C 931.287 1.04203 -1.65533 0
M  V30 9907 O 932.493 1.56384 -2.21937 0
M  V30 9908 C 930.949 -0.662634 -3.53747 0
M  V30 9909 C 930.557 -2.11699 -3.94826 0
M  V30 9910 C 932.301 -0.31034 -4.23364 0
M  V30 9911 C 930.208 -2.32573 -5.4375 0
M  V30 9912 H 929.138 -0.145488 -0.739831 0
M  V30 9913 H 931.789 -1.00282 -1.53674 0
M  V30 9914 H 930.171 0.0111972 -3.95998 0
M  V30 9915 H 931.345 -2.82951 -3.63697 0
M  V30 9916 H 929.66 -2.43017 -3.3813 0
M  V30 9917 H 932.257 -0.44421 -5.32852 0
M  V30 9918 H 932.6 0.744594 -4.09587 0
M  V30 9919 H 933.133 -0.938518 -3.8657 0
M  V30 9920 H 929.872 -3.36551 -5.62507 0
M  V30 9921 H 929.392 -1.65858 -5.76412 0
M  V30 9922 H 931.071 -2.14651 -6.10356 0
M  V30 9923 N 931.203 1.46865 -0.571711 0
M  V30 9924 C 932.166 2.28658 0.157499 0
M  V30 9925 C 933.166 1.37773 0.829172 0
M  V30 9926 O 934.356 1.6026 0.682811 0
M  V30 9927 C 931.488 3.17859 1.23202 0
M  V30 9928 H 932.681 2.94603 -0.561171 0
M  V30 9929 H 930.234 1.52793 -0.329229 0
M  V30 9930 H 930.969 2.56637 1.98262 0
M  V30 9931 H 930.754 3.84762 0.755031 0
M  V30 9932 H 932.244 3.7945 1.74378 0
M  V30 9933 N 932.681 0.308908 1.54543 0
M  V30 9934 C 933.611 -0.556657 2.26768 0
M  V30 9935 C 934.592 -1.13145 1.27013 0
M  V30 9936 O 935.777 -1.15931 1.558 0
M  V30 9937 C 932.907 -1.72481 3.01443 0
M  V30 9938 C 931.861 -1.28001 4.08411 0
M  V30 9939 C 931.187 -2.53395 4.70845 0
M  V30 9940 C 932.487 -0.405497 5.20724 0
M  V30 9941 H 934.181 0.0457618 2.99365 0
M  V30 9942 H 931.727 0.0234495 1.43981 0
M  V30 9943 H 933.68 -2.3365 3.50693 0
M  V30 9944 H 932.404 -2.35359 2.26437 0
M  V30 9945 H 931.063 -0.69133 3.60022 0
M  V30 9946 H 930.711 -3.14604 3.92471 0
M  V30 9947 H 930.411 -2.2433 5.43093 0
M  V30 9948 H 931.935 -3.15352 5.22863 0
M  V30 9949 H 933.349 -0.923076 5.6582 0
M  V30 9950 H 931.746 -0.208282 5.99738 0
M  V30 9951 H 932.816 0.567412 4.81569 0
M  V30 9952 N 934.159 -1.57557 0.0367827 0
M  V30 9953 C 935.384 -1.96828 -0.653707 0
M  V30 9954 C 935.809 -0.913559 -1.64425 0
M  V30 9955 O 935.167 0.124749 -1.8087 0
M  V30 9956 C 935.215 -3.35189 -1.32969 0
M  V30 9957 O 934.319 -3.32095 -2.44513 0
M  V30 9958 H 933.66 -0.64157 -0.171124 0
M  V30 9959 H 936.19 -2.04351 0.100912 0
M  V30 9960 H 936.2 -3.71593 -1.68472 0
M  V30 9961 H 934.875 -4.11496 -0.603654 0
M  V30 9962 H 933.452 -3.07418 -2.11065 0
M  V30 9963 N 935.637 0.236453 -1.55816 0
M  V30 9964 C 936.567 1.29639 -1.94206 0
M  V30 9965 C 937.548 1.49667 -0.808319 0
M  V30 9966 O 938.733 1.621 -1.06945 0
M  V30 9967 C 935.863 2.64914 -2.24584 0
M  V30 9968 C 934.817 2.59565 -3.40308 0
M  V30 9969 C 934.143 3.98732 -3.56254 0
M  V30 9970 C 935.443 2.15642 -4.75706 0
M  V30 9971 H 937.137 0.977552 -2.82992 0
M  V30 9972 H 934.683 0.468804 -1.36155 0
M  V30 9973 H 936.636 3.39209 -2.50031 0
M  V30 9974 H 935.36 2.98455 -1.32636 0
M  V30 9975 H 934.019 1.87728 -3.14887 0
M  V30 9976 H 933.667 4.29556 -2.61707 0
M  V30 9977 H 933.367 3.96039 -4.34082 0
M  V30 9978 H 934.891 4.74711 -3.84033 0
M  V30 9979 H 936.305 2.79673 -5.00456 0
M  V30 9980 H 934.702 2.24039 -5.56711 0
M  V30 9981 H 935.772 1.10831 -4.72064 0
M  V30 9982 N 937.115 1.49373 0.502552 0
M  V30 9983 C 938.045 1.68839 1.61294 0
M  V30 9984 C 939.026 0.537096 1.61398 0
M  V30 9985 O 940.211 0.772764 1.78163 0
M  V30 9986 C 937.341 1.75347 2.99784 0
M  V30 9987 C 936.295 2.90251 3.14545 0
M  V30 9988 C 935.621 2.8187 4.54371 0
M  V30 9989 C 936.921 4.31207 2.94717 0
M  V30 9990 H 938.615 2.61803 1.45257 0
M  V30 9991 H 936.161 1.25987 0.697371 0
M  V30 9992 H 938.114 1.87552 3.77362 0
M  V30 9993 H 936.838 0.789814 3.16906 0
M  V30 9994 H 935.497 2.77646 2.39392 0
M  V30 9995 H 935.145 1.83416 4.68367 0
M  V30 9996 H 934.845 3.5899 4.65188 0
M  V30 9997 H 936.369 2.96081 5.34012 0
M  V30 9998 H 937.783 4.44501 3.62065 0
M  V30 9999 H 936.18 5.09536 3.17007 0
M  V30 10000 H 937.25 4.45759 1.90857 0
M  V30 10001 N 938.594 -0.753485 1.38421 0
M  V30 10002 C 939.843 -1.50797 1.33952 0
M  V30 10003 C 940.156 -1.95482 -0.0678464 0
M  V30 10004 O 941.362 -2.7048 -0.235078 0
M  V30 10005 C 939.818 -2.72393 2.35224 0
M  V30 10006 C 939.426 -2.34733 3.81582 0
M  V30 10007 C 941.17 -3.50281 2.39798 0
M  V30 10008 C 939.077 -3.52939 4.7454 0
M  V30 10009 H 938.007 -0.566211 0.497916 0
M  V30 10010 H 940.658 -0.823659 1.63976 0
M  V30 10011 H 939.04 -3.42806 1.98243 0
M  V30 10012 H 940.214 -1.71985 4.27502 0
M  V30 10013 H 938.529 -1.69978 3.80127 0
M  V30 10014 H 941.126 -4.38172 3.06447 0
M  V30 10015 H 941.469 -3.91444 1.41695 0
M  V30 10016 H 942.002 -2.86881 2.75579 0
M  V30 10017 H 938.741 -3.16843 5.73839 0
M  V30 10018 H 938.261 -4.1473 4.33312 0
M  V30 10019 H 939.94 -4.19519 4.92557 0
M  V30 10020 N 940.072 -1.23292 -0.981677 0
M  V30 10021 C 941.035 -1.01417 -2.05542 0
M  V30 10022 C 942.035 0.0235354 -1.60783 0
M  V30 10023 O 943.225 -0.216082 -1.72855 0
M  V30 10024 C 940.357 -0.534239 -3.36688 0
M  V30 10025 H 941.55 -1.96702 -2.26381 0
M  V30 10026 H 939.103 -1.05318 -1.1549 0
M  V30 10027 H 939.838 0.422452 -3.21537 0
M  V30 10028 H 939.623 -1.28304 -3.70514 0
M  V30 10029 H 941.113 -0.40179 -4.15663 0
M  V30 10030 N 941.55 1.18024 -1.04442 0
M  V30 10031 C 942.827 1.8398 -0.664125 0
M  V30 10032 C 943.207 1.92961 0.856116 0
M  V30 10033 O 942.555 1.45839 1.75907 0
M  V30 10034 C 942.765 3.22069 -1.34433 0
M  V30 10035 C 944.113 3.98063 -1.47754 0
M  V30 10036 O 945.137 3.31523 -1.30274 0
M  V30 10037 O 943.996 5.17291 -1.76272 0
M  V30 10038 H 941.09 0.793543 -0.23285 0
M  V30 10039 H 943.636 1.25385 -1.14354 0
M  V30 10040 H 942.408 3.10458 -2.38184 0
M  V30 10041 H 942.031 3.88325 -0.853782 0
M  V30 10042 N 943.028 0.824394 1.34319 0
M  V30 10043 C 944.274 0.413779 1.98534 0
M  V30 10044 C 944.607 -1.02089 1.65201 0
M  V30 10045 O 943.882 -1.71129 0.924402 0
M  V30 10046 C 944.165 0.61801 3.54757 0
M  V30 10047 C 944.018 2.0989 3.97827 0
M  V30 10048 C 945.337 0.0549041 4.40066 0
M  V30 10049 H 942.456 0.151815 0.721194 0
M  V30 10050 H 945.098 1.03723 1.5919 0
M  V30 10051 H 943.248 0.0873107 3.88402 0
M  V30 10052 H 944.92 2.69335 3.74508 0
M  V30 10053 H 943.163 2.58881 3.48085 0
M  V30 10054 H 943.834 2.1926 5.06586 0
M  V30 10055 H 946.31 0.508348 4.12983 0
M  V30 10056 H 945.186 0.227595 5.48428 0
M  V30 10057 H 945.447 -1.04025 4.29687 0
M  V30 10058 N 944.506 -1.46559 0.579492 0
M  V30 10059 C 945.752 -2.03272 0.0722569 0
M  V30 10060 C 946.107 -1.44334 -1.27222 0
M  V30 10061 O 945.4 -0.597848 -1.82034 0
M  V30 10062 C 945.594 -3.57357 -0.0552803 0
M  V30 10063 C 945.423 -4.31238 1.27529 0
M  V30 10064 C 944.193 -4.70272 1.84857 0
M  V30 10065 C 946.391 -4.64978 2.19773 0
M  V30 10066 N 944.373 -5.2889 3.11687 0
M  V30 10067 C 945.744 -5.24132 3.31189 0
M  V30 10068 C 947.799 -4.46908 2.19493 0
M  V30 10069 C 946.502 -5.67123 4.42452 0
M  V30 10070 C 948.528 -4.90914 3.29784 0
M  V30 10071 C 947.89 -5.50136 4.3992 0
M  V30 10072 H 943.989 -0.778937 0.0691416 0
M  V30 10073 H 946.573 -1.78754 0.771683 0
M  V30 10074 H 944.744 -3.81595 -0.723868 0
M  V30 10075 H 946.476 -4.00714 -0.566606 0
M  V30 10076 H 943.231 -4.5293 1.38388 0
M  V30 10077 H 943.655 -5.62723 3.76393 0
M  V30 10078 H 948.297 -4.00459 1.35617 0
M  V30 10079 H 946.015 -6.12552 5.27073 0
M  V30 10080 H 949.601 -4.78687 3.30682 0
M  V30 10081 H 948.481 -5.83564 5.23854 0
M  V30 10082 N 945.984 -0.3171 -1.54377 0
M  V30 10083 C 947.231 0.28741 -2.0045 0
M  V30 10084 C 947.559 1.52648 -1.20535 0
M  V30 10085 O 946.814 1.93775 -0.273831 0
M  V30 10086 C 947.113 0.672917 -3.51008 0
M  V30 10087 C 946.779 -0.466245 -4.48483 0
M  V30 10088 C 945.441 -0.778933 -4.74854 0
M  V30 10089 C 947.793 -1.23176 -5.06436 0
M  V30 10090 C 945.121 -1.85997 -5.56437 0
M  V30 10091 C 947.473 -2.30284 -5.89196 0
M  V30 10092 C 946.137 -2.62141 -6.13872 0
M  V30 10093 H 945.407 0.105171 -0.733499 0
M  V30 10094 H 948.054 -0.439538 -1.86388 0
M  V30 10095 H 946.359 1.48019 -3.62764 0
M  V30 10096 H 948.056 1.15209 -3.84094 0
M  V30 10097 H 944.646 -0.212449 -4.28073 0
M  V30 10098 H 948.83 -1.00344 -4.8605 0
M  V30 10099 H 944.086 -2.11134 -5.73788 0
M  V30 10100 H 948.26 -2.90048 -6.33123 0
M  V30 10101 H 945.887 -3.46037 -6.76877 0
M  V30 10102 N 947.462 1.57535 -0.0451378 0
M  V30 10103 C 948.711 1.91628 0.629415 0
M  V30 10104 C 949.024 0.924754 1.72359 0
M  V30 10105 O 950.23 1.15751 2.45589 0
M  V30 10106 C 948.686 3.40322 1.17084 0
M  V30 10107 C 948.294 4.47867 0.109101 0
M  V30 10108 C 950.038 3.83458 1.82099 0
M  V30 10109 C 947.945 5.87671 0.663072 0
M  V30 10110 H 946.875 0.715163 0.238868 0
M  V30 10111 H 949.526 1.83151 -0.113046 0
M  V30 10112 H 947.908 3.43783 1.96543 0
M  V30 10113 H 949.082 4.55988 -0.664201 0
M  V30 10114 H 947.397 4.14034 -0.443227 0
M  V30 10115 H 949.994 4.85273 2.2453 0
M  V30 10116 H 950.337 3.19379 2.67026 0
M  V30 10117 H 950.87 3.82488 1.09305 0
M  V30 10118 H 947.609 6.55332 -0.148423 0
M  V30 10119 H 947.129 5.83124 1.4045 0
M  V30 10120 H 948.808 6.36737 1.14785 0
M  V30 10121 N 948.94 -0.228186 1.55939 0
M  V30 10122 C 950.186 -0.954964 1.78909 0
M  V30 10123 C 950.519 -1.8425 0.613648 0
M  V30 10124 O 949.794 -1.90604 -0.38737 0
M  V30 10125 C 950.077 -1.79957 3.1191 0
M  V30 10126 C 949.93 -0.938968 4.3989 0
M  V30 10127 C 951.249 -2.77859 3.41295 0
M  V30 10128 H 948.368 -0.345745 0.650868 0
M  V30 10129 H 951.01 -0.224244 1.88672 0
M  V30 10130 H 949.16 -2.42256 3.03717 0
M  V30 10131 H 950.832 -0.333225 4.60095 0
M  V30 10132 H 949.075 -0.244096 4.33113 0
M  V30 10133 H 949.746 -1.56416 5.29375 0
M  V30 10134 H 952.222 -2.25695 3.49572 0
M  V30 10135 H 951.098 -3.34062 4.35538 0
M  V30 10136 H 951.359 -3.55266 2.63132 0
M  V30 10137 N 950.418 -1.49637 -0.494624 0
M  V30 10138 C 951.666 -1.5913 -1.24587 0
M  V30 10139 C 951.987 -0.282828 -1.92938 0
M  V30 10140 O 951.257 0.69825 -1.83034 0
M  V30 10141 H 949.837 -0.586329 -0.462847 0
M  V30 10142 H 952.499 -1.86296 -0.572696 0
M  V30 10143 H 951.595 -2.3906 -2.00641 0
M  V30 10144 N 951.896 0.746133 -1.38819 0
M  V30 10145 C 952.859 1.84167 -1.36437 0
M  V30 10146 C 953.859 1.58626 -0.263499 0
M  V30 10147 O 955.049 1.66233 -0.520801 0
M  V30 10148 C 952.181 3.21769 -1.12596 0
M  V30 10149 H 953.374 1.87684 -2.33912 0
M  V30 10150 H 950.927 0.948625 -1.24221 0
M  V30 10151 H 951.662 3.23917 -0.15758 0
M  V30 10152 H 951.447 3.41702 -1.92307 0
M  V30 10153 H 952.937 4.0184 -1.13643 0
M  V30 10154 N 953.375 1.23811 0.975125 0
M  V30 10155 C 954.603 1.10019 1.75224 0
M  V30 10156 C 955.018 -0.34791 1.85567 0
M  V30 10157 O 954.375 -1.24043 1.33864 0
M  V30 10158 C 954.426 1.72572 3.1765 0
M  V30 10159 O 954.147 3.11719 3.07836 0
M  V30 10160 C 955.648 1.64292 4.11732 0
M  V30 10161 H 952.868 0.38476 0.549728 0
M  V30 10162 H 955.412 1.63768 1.22476 0
M  V30 10163 H 953.567 1.22843 3.67408 0
M  V30 10164 H 953.981 3.42152 3.97533 0
M  V30 10165 H 955.455 2.12754 5.09352 0
M  V30 10166 H 955.932 0.602722 4.35045 0
M  V30 10167 H 956.538 2.13411 3.6788 0
M  V30 10168 N 954.853 -1.17469 1.05066 0
M  V30 10169 C 956.099 -1.87976 0.761113 0
M  V30 10170 C 956.432 -1.80756 -0.709995 0
M  V30 10171 O 955.707 -1.21469 -1.51906 0
M  V30 10172 C 955.99 -3.38055 1.2406 0
M  V30 10173 C 955.843 -3.54032 2.77455 0
M  V30 10174 C 957.162 -4.32036 0.838612 0
M  V30 10175 H 954.281 -0.682573 0.277963 0
M  V30 10176 H 956.923 -1.38147 1.30443 0
M  V30 10177 H 955.073 -3.80622 0.778388 0
M  V30 10178 H 956.745 -3.20489 3.3179 0
M  V30 10179 H 954.988 -2.96352 3.16793 0
M  V30 10180 H 955.659 -4.59377 3.06066 0
M  V30 10181 H 958.135 -3.97303 1.23651 0
M  V30 10182 H 957.011 -5.35583 1.20173 0
M  V30 10183 H 957.272 -4.41349 -0.257498 0
M  V30 10184 N 956.331 -0.831506 -1.3388 0
M  V30 10185 C 957.608 -0.345907 -1.92517 0
M  V30 10186 C 957.988 1.16784 -1.75854 0
M  V30 10187 O 957.336 1.97889 -1.14245 0
M  V30 10188 C 957.546 -0.784692 -3.40064 0
M  V30 10189 C 958.894 -0.78846 -4.17215 0
M  V30 10190 O 959.918 -0.727823 -3.48685 0
M  V30 10191 O 958.777 -0.869481 -5.39539 0
M  V30 10192 H 955.871 -0.0963568 -0.821367 0
M  V30 10193 H 958.417 -0.916868 -1.42799 0
M  V30 10194 H 957.189 -1.82697 -3.46031 0
M  V30 10195 H 956.812 -0.189897 -3.97146 0
M  V30 10196 N 957.809 1.4625 -0.587256 0
M  V30 10197 C 959.037 2.06744 -0.08033 0
M  V30 10198 C 959.452 1.43527 1.2266 0
M  V30 10199 O 958.809 0.542168 1.74261 0
M  V30 10200 C 958.86 3.61394 0.0873469 0
M  V30 10201 O 958.581 4.22247 -1.16785 0
M  V30 10202 C 960.082 4.38828 0.628095 0
M  V30 10203 H 957.302 0.668354 -0.0595301 0
M  V30 10204 H 959.846 1.87808 -0.809217 0
M  V30 10205 H 958.001 3.79742 0.766473 0
M  V30 10206 H 958.415 5.15176 -0.984565 0
M  V30 10207 H 959.889 5.47613 0.694583 0
M  V30 10208 H 960.366 4.07188 1.64606 0
M  V30 10209 H 960.972 4.25297 -0.0163115 0
M  V30 10210 N 959.287 0.325282 1.54207 0
M  V30 10211 C 960.515 -0.27869 2.05014 0
M  V30 10212 C 960.93 -1.45649 1.20133 0
M  V30 10213 O 960.287 -1.81014 0.232398 0
M  V30 10214 C 960.338 -0.711486 3.54429 0
M  V30 10215 O 960.059 0.419458 4.36087 0
M  V30 10216 C 961.56 -1.37809 4.21336 0
M  V30 10217 H 958.78 -0.0570388 0.668571 0
M  V30 10218 H 961.324 0.47197 1.98979 0
M  V30 10219 H 959.479 -1.41212 3.60746 0
M  V30 10220 H 959.893 0.0781037 5.24442 0
M  V30 10221 H 961.367 -1.63184 5.27328 0
M  V30 10222 H 961.844 -2.32593 3.72555 0
M  V30 10223 H 962.45 -0.719987 4.19161 0
M  V30 10224 N 960.765 -1.57509 0.0534917 0
M  V30 10225 C 962.011 -1.93068 -0.62069 0
M  V30 10226 C 962.344 -0.932313 -1.70357 0
M  V30 10227 O 961.619 0.0413393 -1.94456 0
M  V30 10228 C 961.902 -3.38997 -1.21463 0
M  V30 10229 C 961.755 -4.49583 -0.13965 0
M  V30 10230 C 963.074 -3.85366 -2.12558 0
M  V30 10231 H 960.193 -0.702083 -0.224163 0
M  V30 10232 H 962.835 -1.89647 0.115729 0
M  V30 10233 H 960.985 -3.42043 -1.84226 0
M  V30 10234 H 962.657 -4.58664 0.492411 0
M  V30 10235 H 960.9 -4.30525 0.532006 0
M  V30 10236 H 961.571 -5.48781 -0.595287 0
M  V30 10237 H 964.047 -3.8421 -1.59755 0
M  V30 10238 H 962.923 -4.8812 -2.51058 0
M  V30 10239 H 963.184 -3.22256 -3.02661 0
M  V30 10240 N 962.243 0.219913 -1.56058 0
M  V30 10241 C 963.191 1.29215 -1.93407 0
M  V30 10242 C 964.185 1.48434 -0.816307 0
M  V30 10243 O 965.391 1.49589 -1.00115 0
M  V30 10244 H 961.766 0.433256 -0.614649 0
M  V30 10245 H 963.737 0.949977 -2.82875 0
M  V30 10246 C 962.486 2.63501 -2.26854 0
M  V30 10247 H 961.809 2.4952 -3.12377 0
M  V30 10248 H 963.249 3.37334 -2.56869 0
M  V30 10249 C 961.708 3.18634 -1.09425 0
M  V30 10250 O 962.238 4.00117 -0.356243 0
M  V30 10251 N 960.444 2.7703 -0.877642 0
M  V30 10252 H 959.991 2.10875 -1.47951 0
M  V30 10253 H 959.949 3.1426 -0.0936792 0
M  V30 10254 N 963.721 1.49897 0.486681 0
M  V30 10255 C 965.132 1.53142 1.06792 0
M  V30 10256 C 965.483 0.325856 1.93475 0
M  V30 10257 O 964.608 -0.562893 2.08951 0
M  V30 10258 C 965.203 2.77514 1.94348 0
M  V30 10259 C 963.762 2.83491 2.47609 0
M  V30 10260 C 962.909 2.47239 1.2557 0
M  V30 10261 H 965.86 1.56387 0.269962 0
M  V30 10262 H 965.881 2.58487 2.79221 0
M  V30 10263 H 965.393 3.65239 1.31232 0
M  V30 10264 H 963.494 2.0008 3.14323 0
M  V30 10265 H 963.607 3.86011 2.83782 0
M  V30 10266 H 961.971 1.99332 1.58552 0
M  V30 10267 H 962.754 3.37255 0.641404 0
M  V30 10268 N 965.199 -0.738761 1.39212 0
M  V30 10269 C 966.424 -1.5331 1.39681 0
M  V30 10270 C 966.849 -1.88098 -0.00768715 0
M  V30 10271 O 966.207 -1.51642 -0.993699 0
M  V30 10272 C 966.255 -2.79958 2.27279 0
M  V30 10273 O 965.359 -3.75727 1.70008 0
M  V30 10274 H 964.7 -0.463131 0.475821 0
M  V30 10275 H 967.23 -0.911768 1.83161 0
M  V30 10276 H 967.24 -3.28732 2.41659 0
M  V30 10277 H 965.915 -2.5397 3.29351 0
M  V30 10278 H 964.492 -3.34483 1.64851 0
M  V30 10279 N 966.677 -1.24326 -0.968545 0
M  V30 10280 C 967.925 -1.08032 -1.70803 0
M  V30 10281 C 968.246 0.381728 -1.91227 0
M  V30 10282 O 967.516 1.27253 -1.48942 0
M  V30 10283 H 966.096 -0.396777 -0.632912 0
M  V30 10284 H 968.758 -1.56232 -1.16523 0
M  V30 10285 H 967.854 -1.57769 -2.69287 0
M  V30 10286 N 968.156 1.1691 -1.05688 0
M  V30 10287 C 969.402 1.8757 -0.771071 0
M  V30 10288 C 969.735 1.8113 0.700399 0
M  V30 10289 O 969.01 1.22273 1.5126 0
M  V30 10290 C 969.293 3.37392 -1.25851 0
M  V30 10291 C 969.146 3.52556 -2.79329 0
M  V30 10292 C 970.465 4.31585 -0.861512 0
M  V30 10293 H 967.584 0.681089 -0.281579 0
M  V30 10294 H 970.226 1.37453 -1.31174 0
M  V30 10295 H 968.376 3.80204 -0.798563 0
M  V30 10296 H 970.048 3.18725 -3.33485 0
M  V30 10297 H 968.291 2.94668 -3.1836 0
M  V30 10298 H 968.962 4.57748 -3.08498 0
M  V30 10299 H 971.438 3.96642 -1.25756 0
M  V30 10300 H 970.314 5.34939 -1.23012 0
M  V30 10301 H 970.575 4.4148 0.234089 0
M  V30 10302 N 969.634 0.838594 1.33437 0
M  V30 10303 C 970.874 0.440239 1.99603 0
M  V30 10304 C 971.238 -0.982061 1.64984 0
M  V30 10305 O 972.439 -1.48413 2.24114 0
M  V30 10306 C 970.71 0.654201 3.51362 0
M  V30 10307 S 972.269 0.351025 4.37394 0
M  V30 10308 H 969.087 0.165608 0.691444 0
M  V30 10309 H 971.689 1.08782 1.6244 0
M  V30 10310 H 970.393 1.68873 3.74045 0
M  V30 10311 H 969.924 -0.00754449 3.93399 0
M  V30 10312 H 971.939 -0.829298 4.89221 0
M  V30 10313 N 971.112 -1.45937 0.595003 0
M  V30 10314 C 972.34 -2.06698 0.091293 0
M  V30 10315 C 972.755 -1.44176 -1.21897 0
M  V30 10316 O 972.112 -0.551402 -1.73971 0
M  V30 10317 C 972.163 -3.61436 -0.0681801 0
M  V30 10318 O 971.884 -4.21622 1.19023 0
M  V30 10319 C 973.385 -4.39155 -0.604814 0
M  V30 10320 H 970.605 -0.668029 0.0630737 0
M  V30 10321 H 973.149 -1.87376 0.819165 0
M  V30 10322 H 971.304 -3.80143 -0.746324 0
M  V30 10323 H 971.718 -5.14647 1.01187 0
M  V30 10324 H 973.192 -5.47973 -0.665532 0
M  V30 10325 H 973.669 -4.08055 -1.62444 0
M  V30 10326 H 974.275 -4.25282 0.0388658 0
M  V30 10327 N 972.59 -0.333456 -1.54032 0
M  V30 10328 C 973.553 0.515392 -2.2333 0
M  V30 10329 C 974.553 1.03566 -1.23007 0
M  V30 10330 O 975.743 0.926514 -1.47517 0
M  V30 10331 C 972.875 1.7169 -2.94508 0
M  V30 10332 H 974.068 -0.0905407 -2.99763 0
M  V30 10333 H 971.621 -0.0846651 -1.56071 0
M  V30 10334 H 972.356 2.3618 -2.22237 0
M  V30 10335 H 972.141 1.35115 -3.68085 0
M  V30 10336 H 973.631 2.31922 -3.47278 0
M  V30 10337 N 974.068 1.57479 -0.061844 0
M  V30 10338 C 975.031 2.1104 0.894127 0
M  V30 10339 C 976.031 1.03227 1.23292 0
M  V30 10340 O 977.221 1.29256 1.16784 0
M  V30 10341 C 974.353 2.6035 2.20069 0
M  V30 10342 H 975.546 2.96807 0.429619 0
M  V30 10343 H 973.099 1.55181 0.18672 0
M  V30 10344 H 973.834 1.78008 2.71079 0
M  V30 10345 H 973.619 3.39146 1.9678 0
M  V30 10346 H 975.109 3.019 2.88525 0
M  V30 10347 N 975.546 -0.211634 1.56173 0
M  V30 10348 C 976.792 -0.935935 1.79911 0
M  V30 10349 C 977.125 -1.83589 0.633155 0
M  V30 10350 O 976.4 -1.91004 -0.367132 0
M  V30 10351 C 976.683 -1.76638 3.13801 0
M  V30 10352 C 976.536 -0.892259 4.40861 0
M  V30 10353 C 977.855 -2.74224 3.44223 0
M  V30 10354 H 974.974 -0.338822 0.654499 0
M  V30 10355 H 977.616 -0.20422 1.88899 0
M  V30 10356 H 975.766 -2.39021 3.0627 0
M  V30 10357 H 977.438 -0.284407 4.60422 0
M  V30 10358 H 975.681 -0.198145 4.33347 0
M  V30 10359 H 976.352 -1.50793 5.31004 0
M  V30 10360 H 978.828 -2.21975 3.51946 0
M  V30 10361 H 977.704 -3.29424 4.39057 0
M  V30 10362 H 977.965 -3.52455 2.66885 0
M  V30 10363 N 977.024 -1.50153 -0.478725 0
M  V30 10364 C 978.271 -1.6076 -1.23136 0
M  V30 10365 C 978.599 -0.30442 -1.92103 0
M  V30 10366 O 977.854 0.709213 -1.82397 0
M  V30 10367 C 978.153 -2.73208 -2.30417 0
M  V30 10368 C 977.819 -4.13953 -1.78755 0
M  V30 10369 C 976.481 -4.52251 -1.64386 0
M  V30 10370 C 978.833 -5.01949 -1.40344 0
M  V30 10371 C 976.161 -5.76292 -1.10018 0
M  V30 10372 C 978.513 -6.2653 -0.874206 0
M  V30 10373 C 977.177 -6.63637 -0.717085 0
M  V30 10374 H 976.447 -0.588264 -0.450585 0
M  V30 10375 H 979.094 -1.84061 -0.528551 0
M  V30 10376 H 977.399 -2.43965 -3.06575 0
M  V30 10377 H 979.096 -2.7862 -2.88395 0
M  V30 10378 H 975.686 -3.83736 -1.90904 0
M  V30 10379 H 979.87 -4.73 -1.50283 0
M  V30 10380 H 975.126 -6.03723 -0.965838 0
M  V30 10381 H 979.3 -6.94081 -0.567883 0
M  V30 10382 H 976.927 -7.59633 -0.293639 0
M  V30 10383 N 978.502 0.731368 -1.39602 0
M  V30 10384 C 979.749 1.491 -1.37024 0
M  V30 10385 C 980.077 1.94473 0.0326423 0
M  V30 10386 O 979.332 1.6737 1.01418 0
M  V30 10387 C 979.631 2.74224 -2.29208 0
M  V30 10388 C 979.297 2.477 -3.7677 0
M  V30 10389 C 977.959 2.40175 -4.16976 0
M  V30 10390 C 980.311 2.25098 -4.70086 0
M  V30 10391 C 977.639 2.08095 -5.48556 0
M  V30 10392 C 979.991 1.94534 -6.01946 0
M  V30 10393 C 978.655 1.85481 -6.41212 0
M  V30 10394 H 977.925 0.545595 -0.501405 0
M  V30 10395 H 980.572 0.839127 -1.72136 0
M  V30 10396 H 978.877 3.44171 -1.87225 0
M  V30 10397 H 980.574 3.32264 -2.24504 0
M  V30 10398 H 977.164 2.54436 -3.44906 0
M  V30 10399 H 981.348 2.29876 -4.39853 0
M  V30 10400 H 976.604 1.99611 -5.77897 0
M  V30 10401 H 980.778 1.76054 -6.73779 0
M  V30 10402 H 978.405 1.60389 -7.43088 0
M  V30 10403 N 979.98 1.24838 0.961938 0
M  V30 10404 C 981.208 1.11871 1.74047 0
M  V30 10405 C 981.623 -0.328209 1.85925 0
M  V30 10406 O 980.98 -1.22616 1.35173 0
M  V30 10407 C 981.031 1.75931 3.15801 0
M  V30 10408 O 980.752 3.14967 3.04512 0
M  V30 10409 C 982.253 1.68649 4.09966 0
M  V30 10410 H 979.473 0.390569 0.545616 0
M  V30 10411 H 982.017 1.65058 1.20732 0
M  V30 10412 H 980.172 1.26733 3.66084 0
M  V30 10413 H 980.586 3.46349 3.93882 0
M  V30 10414 H 982.06 2.18144 5.07067 0
M  V30 10415 H 982.537 0.648831 4.34381 0
M  V30 10416 H 983.143 2.17301 3.65596 0
M  V30 10417 N 981.458 -1.16348 1.06306 0
M  V30 10418 C 982.408 -2.18717 0.643947 0
M  V30 10419 C 983.392 -1.57574 -0.325445 0
M  V30 10420 O 984.584 -1.76439 -0.140868 0
M  V30 10421 C 981.713 -3.43285 0.0320266 0
M  V30 10422 C 980.799 -4.11504 1.02592 0
M  V30 10423 N 981.19 -4.55374 2.20155 0
M  V30 10424 C 979.488 -4.37691 0.856887 0
M  V30 10425 C 980.189 -5.08149 2.83124 0
M  V30 10426 N 979.165 -5.01042 2.10851 0
M  V30 10427 H 982.967 -2.50353 1.53951 0
M  V30 10428 H 980.481 -1.328 0.934763 0
M  V30 10429 H 982.478 -4.15917 -0.286064 0
M  V30 10430 H 981.138 -3.13137 -0.858786 0
M  V30 10431 H 982.149 -4.49101 2.57931 0
M  V30 10432 H 978.826 -4.17496 0.0180742 0
M  V30 10433 H 980.216 -5.52131 3.82885 0
M  V30 10434 N 982.937 -0.845659 -1.3299 0
M  V30 10435 C 984.184 -0.444653 -1.97558 0
M  V30 10436 C 984.512 0.997682 -1.66963 0
M  V30 10437 O 983.767 1.71349 -0.94541 0
M  V30 10438 C 984.066 -0.6201 -3.51979 0
M  V30 10439 C 983.732 -2.03155 -4.02541 0
M  V30 10440 C 982.394 -2.4176 -4.16059 0
M  V30 10441 C 984.746 -2.95317 -4.29462 0
M  V30 10442 C 982.074 -3.71818 -4.53837 0
M  V30 10443 C 984.426 -4.24863 -4.68694 0
M  V30 10444 C 983.09 -4.63416 -4.80419 0
M  V30 10445 H 982.36 -0.16271 -0.722915 0
M  V30 10446 H 985.007 -1.07399 -1.58549 0
M  V30 10447 H 983.312 0.092513 -3.91691 0
M  V30 10448 H 985.009 -0.290012 -3.9995 0
M  V30 10449 H 981.599 -1.72174 -3.92497 0
M  V30 10450 H 985.783 -2.66726 -4.18534 0
M  V30 10451 H 981.039 -4.01484 -4.61108 0
M  V30 10452 H 985.213 -4.96347 -4.8848 0
M  V30 10453 H 982.84 -5.6424 -5.09448 0
M  V30 10454 N 984.415 1.45619 -0.602734 0
M  V30 10455 C 985.662 2.02272 -0.0960337 0
M  V30 10456 C 985.99 1.47177 1.27159 0
M  V30 10457 O 985.245 0.634593 1.85125 0
M  V30 10458 C 985.544 3.574 -0.00157909 0
M  V30 10459 C 985.21 4.31626 -1.30422 0
M  V30 10460 C 983.872 4.51622 -1.66106 0
M  V30 10461 C 986.224 4.74091 -2.16535 0
M  V30 10462 C 983.552 5.11338 -2.87663 0
M  V30 10463 C 985.904 5.35151 -3.37336 0
M  V30 10464 C 984.568 5.53371 -3.73278 0
M  V30 10465 H 983.838 0.740166 -0.0351412 0
M  V30 10466 H 986.485 1.74744 -0.783382 0
M  V30 10467 H 984.79 3.84179 0.769008 0
M  V30 10468 H 986.487 3.98934 0.406549 0
M  V30 10469 H 983.077 4.16372 -1.01647 0
M  V30 10470 H 987.261 4.5838 -1.90266 0
M  V30 10471 H 982.517 5.23634 -3.15622 0
M  V30 10472 H 986.691 5.67011 -4.04316 0
M  V30 10473 H 984.318 5.99412 -4.67556 0
M  V30 10474 N 985.893 0.34162 1.53853 0
M  V30 10475 C 987.123 -0.256557 2.05001 0
M  V30 10476 C 987.531 -1.44916 1.21639 0
M  V30 10477 O 986.874 -1.8207 0.244138 0
M  V30 10478 C 986.936 -0.737109 3.51862 0
M  V30 10479 C 986.6 0.335584 4.55766 0
M  V30 10480 C 987.597 1.17765 5.06387 0
M  V30 10481 C 985.282 0.488958 4.99914 0
M  V30 10482 C 987.276 2.15865 5.99734 0
M  V30 10483 C 984.963 1.47336 5.93073 0
M  V30 10484 C 985.961 2.30666 6.4287 0
M  V30 10485 O 985.649 3.2743 7.34197 0
M  V30 10486 H 985.381 -0.0536867 0.673865 0
M  V30 10487 H 987.935 0.49123 1.99439 0
M  V30 10488 H 986.165 -1.53611 3.54881 0
M  V30 10489 H 987.854 -1.25562 3.85991 0
M  V30 10490 H 988.62 1.07023 4.73044 0
M  V30 10491 H 984.499 -0.149807 4.60757 0
M  V30 10492 H 988.043 2.80945 6.38526 0
M  V30 10493 H 983.94 1.58134 6.25831 0
M  V30 10494 H 984.708 3.22879 7.52125 0
M  V30 10495 N 987.371 -1.57444 0.0701946 0
M  V30 10496 C 988.301 -2.15659 -0.895176 0
M  V30 10497 C 989.282 -1.08321 -1.31151 0
M  V30 10498 O 990.467 -1.36349 -1.38284 0
M  V30 10499 C 987.597 -2.71693 -2.16334 0
M  V30 10500 C 986.551 -3.84183 -1.88645 0
M  V30 10501 C 985.877 -4.26814 -3.22078 0
M  V30 10502 C 987.177 -5.08493 -1.19299 0
M  V30 10503 H 988.871 -2.96576 -0.410217 0
M  V30 10504 H 986.417 -1.42662 -0.195872 0
M  V30 10505 H 988.37 -3.11064 -2.84284 0
M  V30 10506 H 987.094 -1.87994 -2.67069 0
M  V30 10507 H 985.753 -3.45314 -1.23101 0
M  V30 10508 H 985.401 -3.40039 -3.70651 0
M  V30 10509 H 985.101 -5.02642 -3.04344 0
M  V30 10510 H 986.625 -4.68799 -3.91228 0
M  V30 10511 H 988.039 -5.4519 -1.77316 0
M  V30 10512 H 986.436 -5.89588 -1.11828 0
M  V30 10513 H 987.506 -4.84595 -0.171839 0
M  V30 10514 N 988.849 0.203349 -1.56283 0
M  V30 10515 C 990.074 0.945548 -1.84592 0
M  V30 10516 C 990.499 1.7641 -0.652772 0
M  V30 10517 O 989.857 1.76867 0.398468 0
M  V30 10518 C 989.905 1.82416 -3.11057 0
M  V30 10519 O 989.009 2.92191 -2.9103 0
M  V30 10520 H 988.35 0.266739 -0.608068 0
M  V30 10521 H 990.88 0.211158 -2.03507 0
M  V30 10522 H 990.89 2.23044 -3.41636 0
M  V30 10523 H 989.565 1.22267 -3.97522 0
M  V30 10524 H 988.142 2.55378 -2.71728 0
M  V30 10525 N 990.327 1.50405 0.470755 0
M  V30 10526 C 991.257 1.72222 1.57676 0
M  V30 10527 C 992.238 0.57121 1.60222 0
M  V30 10528 O 993.423 0.810381 1.76484 0
M  V30 10529 C 990.553 1.81666 2.95998 0
M  V30 10530 C 989.507 2.96857 3.08318 0
M  V30 10531 C 988.833 2.91445 4.4829 0
M  V30 10532 C 990.133 4.37361 2.85504 0
M  V30 10533 H 991.827 2.64825 1.39671 0
M  V30 10534 H 989.373 1.27438 0.67049 0
M  V30 10535 H 991.326 1.95514 3.73299 0
M  V30 10536 H 990.05 0.856856 3.1516 0
M  V30 10537 H 988.709 2.82661 2.33449 0
M  V30 10538 H 988.357 1.93309 4.64371 0
M  V30 10539 H 988.057 3.68776 4.57469 0
M  V30 10540 H 989.581 3.07341 5.27611 0
M  V30 10541 H 990.995 4.52081 3.52555 0
M  V30 10542 H 989.392 5.16145 3.06127 0
M  V30 10543 H 990.462 4.49708 1.81359 0
M  V30 10544 N 991.805 -0.723954 1.39988 0
M  V30 10545 C 993.052 -1.48371 1.37812 0
M  V30 10546 C 993.38 -1.94487 -0.0223285 0
M  V30 10547 O 992.635 -1.67906 -1.00529 0
M  V30 10548 C 992.934 -2.73004 2.30659 0
M  V30 10549 C 992.6 -2.45698 3.78078 0
M  V30 10550 C 991.262 -2.37961 4.18244 0
M  V30 10551 C 993.614 -2.22601 4.71273 0
M  V30 10552 C 990.942 -2.05183 5.49652 0
M  V30 10553 C 993.294 -1.91339 6.0297 0
M  V30 10554 C 991.958 -1.82078 6.42187 0
M  V30 10555 H 991.228 -0.542929 0.504291 0
M  V30 10556 H 993.875 -0.829986 1.72579 0
M  V30 10557 H 992.18 -3.43174 1.89048 0
M  V30 10558 H 993.877 -3.31068 2.26263 0
M  V30 10559 H 990.467 -2.52603 3.46251 0
M  V30 10560 H 994.651 -2.2754 4.41066 0
M  V30 10561 H 989.907 -1.96544 5.78948 0
M  V30 10562 H 994.081 -1.72479 6.74703 0
M  V30 10563 H 991.708 -1.56446 7.43928 0
M  V30 10564 N 993.283 -1.25346 -0.955304 0
M  V30 10565 C 994.53 -1.10055 -1.69983 0
M  V30 10566 C 994.858 0.358586 -1.91166 0
M  V30 10567 O 994.113 1.28071 -1.47974 0
M  V30 10568 C 994.412 -1.7993 -3.08804 0
M  V30 10569 C 994.078 -3.29851 -3.07424 0
M  V30 10570 C 992.74 -3.7075 -3.06754 0
M  V30 10571 C 995.092 -4.25636 -3.00805 0
M  V30 10572 C 992.42 -5.05847 -2.97214 0
M  V30 10573 C 994.772 -5.60756 -2.92806 0
M  V30 10574 C 993.436 -6.00984 -2.90472 0
M  V30 10575 H 992.706 -0.402718 -0.622012 0
M  V30 10576 H 995.353 -1.5561 -1.11614 0
M  V30 10577 H 993.658 -1.26803 -3.70713 0
M  V30 10578 H 995.355 -1.65551 -3.65231 0
M  V30 10579 H 991.945 -2.97308 -3.08716 0
M  V30 10580 H 996.129 -3.9503 -3.00441 0
M  V30 10581 H 991.385 -5.36196 -2.93775 0
M  V30 10582 H 995.559 -6.34671 -2.86645 0
M  V30 10583 H 993.186 -7.05626 -2.82835 0
M  V30 10584 N 994.761 1.15782 -1.06922 0
M  V30 10585 C 996.007 1.86975 -0.800747 0
M  V30 10586 C 996.362 1.80512 0.665818 0
M  V30 10587 O 995.655 1.21432 1.48205 0
M  V30 10588 C 995.849 3.35284 -1.2377 0
M  V30 10589 C 995.678 3.56186 -2.74521 0
M  V30 10590 C 994.448 3.71908 -3.42071 0
M  V30 10591 C 996.646 3.54373 -3.72725 0
M  V30 10592 N 994.628 3.80821 -4.81507 0
M  V30 10593 C 995.999 3.69347 -4.97978 0
M  V30 10594 C 998.054 3.37622 -3.65945 0
M  V30 10595 C 996.757 3.69302 -6.17259 0
M  V30 10596 C 998.783 3.38873 -4.84684 0
M  V30 10597 C 998.145 3.54373 -6.08769 0
M  V30 10598 H 994.244 0.701533 -0.345507 0
M  V30 10599 H 996.828 1.38875 -1.36462 0
M  V30 10600 H 994.999 3.82011 -0.701588 0
M  V30 10601 H 996.731 3.94169 -0.917235 0
M  V30 10602 H 993.486 3.72499 -2.92475 0
M  V30 10603 H 993.91 3.89031 -5.54061 0
M  V30 10604 H 998.552 3.24562 -2.7096 0
M  V30 10605 H 996.27 3.81142 -7.1257 0
M  V30 10606 H 999.856 3.27146 -4.8111 0
M  V30 10607 H 998.736 3.55268 -6.9911 0
M  V30 10608 N 996.239 0.8527 1.3254 0
M  V30 10609 C 997.172 0.240733 2.26927 0
M  V30 10610 C 998.15 -0.620158 1.50309 0
M  V30 10611 O 999.334 -0.577389 1.79439 0
M  V30 10612 C 996.461 -0.660644 3.32195 0
M  V30 10613 C 995.507 0.126604 4.26312 0
M  V30 10614 S 996.34 1.49372 5.14245 0
M  V30 10615 C 997.496 0.598002 6.23037 0
M  V30 10616 H 997.729 1.04088 2.78483 0
M  V30 10617 H 995.262 0.650222 1.40041 0
M  V30 10618 H 997.22 -1.17506 3.93323 0
M  V30 10619 H 995.881 -1.43458 2.79426 0
M  V30 10620 H 995.074 -0.559851 5.00881 0
M  V30 10621 H 994.676 0.572536 3.69592 0
M  V30 10622 H 996.968 -0.198555 6.77209 0
M  V30 10623 H 997.911 1.31428 6.95796 0
M  V30 10624 H 998.319 0.173211 5.64234 0
M  V30 10625 N 997.718 -1.45297 0.610449 0
M  V30 10626 C 998.648 -2.33311 -0.0939698 0
M  V30 10627 C 999.629 -1.46999 -0.85588 0
M  V30 10628 O 1000.81 -1.75764 -0.825865 0
M  V30 10629 C 997.944 -3.29751 -1.09003 0
M  V30 10630 C 996.898 -4.2572 -0.441146 0
M  V30 10631 C 996.224 -5.11873 -1.54566 0
M  V30 10632 C 997.524 -5.1837 0.639489 0
M  V30 10633 H 999.218 -2.92459 0.640941 0
M  V30 10634 H 996.764 -1.40631 0.309675 0
M  V30 10635 H 998.717 -3.90195 -1.59141 0
M  V30 10636 H 997.441 -2.68768 -1.85557 0
M  V30 10637 H 996.1 -3.66579 0.0393908 0
M  V30 10638 H 995.748 -4.47256 -2.30155 0
M  V30 10639 H 995.448 -5.76886 -1.11698 0
M  V30 10640 H 996.972 -5.75185 -2.04925 0
M  V30 10641 H 998.386 -5.7287 0.22207 0
M  V30 10642 H 996.783 -5.91876 0.990089 0
M  V30 10643 H 997.853 -4.60627 1.51495 0
M  V30 10644 N 999.196 -0.349774 -1.5367 0
M  V30 10645 C 1000.13 0.547309 -2.2154 0
M  V30 10646 C 1001.11 1.09543 -1.20163 0
M  V30 10647 O 1002.29 1.15453 -1.49006 0
M  V30 10648 C 999.418 1.75356 -2.89772 0
M  V30 10649 C 998.464 1.33433 -4.0509 0
M  V30 10650 S 999.297 0.348891 -5.34362 0
M  V30 10651 C 1000.45 1.56183 -6.061 0
M  V30 10652 H 1000.69 -0.0291392 -2.97286 0
M  V30 10653 H 998.219 -0.133853 -1.53819 0
M  V30 10654 H 1000.18 2.44555 -3.29701 0
M  V30 10655 H 998.838 2.30123 -2.1378 0
M  V30 10656 H 998.031 2.23388 -4.5179 0
M  V30 10657 H 997.633 0.721746 -3.6697 0
M  V30 10658 H 999.925 2.49535 -6.29872 0
M  V30 10659 H 1000.87 1.13651 -6.9892 0
M  V30 10660 H 1001.28 1.76071 -5.36339 0
M  V30 10661 N 1000.67 1.57404 -0.0785433 0
M  V30 10662 C 1001.6 2.16131 0.883726 0
M  V30 10663 C 1002.58 1.09015 1.30575 0
M  V30 10664 O 1003.77 1.3708 1.37559 0
M  V30 10665 C 1000.9 2.72836 2.1489 0
M  V30 10666 C 999.854 3.85178 1.86605 0
M  V30 10667 C 999.18 4.28516 3.1981 0
M  V30 10668 C 1000.48 5.09118 1.16601 0
M  V30 10669 H 1002.17 2.9679 0.394484 0
M  V30 10670 H 999.72 1.42763 0.188304 0
M  V30 10671 H 1001.67 3.12567 2.8263 0
M  V30 10672 H 1000.4 1.89408 2.66068 0
M  V30 10673 H 999.056 3.45962 1.21268 0
M  V30 10674 H 998.704 3.42 3.68843 0
M  V30 10675 H 998.404 5.04249 3.01674 0
M  V30 10676 H 999.928 4.70868 3.88737 0
M  V30 10677 H 1001.34 5.46123 1.74422 0
M  V30 10678 H 999.739 5.90173 1.087 0
M  V30 10679 H 1000.81 4.8468 0.146138 0
M  V30 10680 N 1002.15 -0.195058 1.56388 0
M  V30 10681 C 1003.4 -0.913636 1.8027 0
M  V30 10682 C 1003.72 -1.83791 0.651606 0
M  V30 10683 O 1002.99 -1.931 -0.330057 0
M  V30 10684 H 1001.57 -0.34036 0.664954 0
M  V30 10685 H 1004.23 -0.200559 1.93865 0
M  V30 10686 H 1003.33 -1.50473 2.7343 0
M  V30 10687 N 1003.63 -1.50653 -0.462772 0
M  V30 10688 C 1004.88 -1.61296 -1.21105 0
M  V30 10689 C 1005.19 -0.322757 -1.92919 0
M  V30 10690 O 1006.4 -0.308211 -2.69745 0
M  V30 10691 C 1004.85 -2.84752 -2.201 0
M  V30 10692 C 1004.46 -4.20681 -1.54051 0
M  V30 10693 C 1006.21 -3.04744 -2.95518 0
M  V30 10694 C 1004.11 -5.35314 -2.51381 0
M  V30 10695 H 1003.04 -0.60069 -0.455728 0
M  V30 10696 H 1005.69 -1.77093 -0.480656 0
M  V30 10697 H 1004.08 -2.62532 -2.96467 0
M  V30 10698 H 1005.25 -4.53187 -0.834168 0
M  V30 10699 H 1003.56 -4.06361 -0.908828 0
M  V30 10700 H 1006.16 -3.87559 -3.68378 0
M  V30 10701 H 1006.5 -2.16802 -3.55391 0
M  V30 10702 H 1007.04 -3.27185 -2.26263 0
M  V30 10703 H 1003.78 -6.25437 -1.96235 0
M  V30 10704 H 1003.3 -5.07216 -3.20144 0
M  V30 10705 H 1004.98 -5.66229 -3.1304 0
M  V30 10706 N 1005.11 0.71652 -1.4037 0
M  V30 10707 C 1006.04 1.84345 -1.43315 0
M  V30 10708 C 1007.02 1.67537 -0.294186 0
M  V30 10709 O 1008.2 1.87582 -0.502671 0
M  V30 10710 C 1005.33 3.2229 -1.29408 0
M  V30 10711 C 1004.29 3.53769 -2.40897 0
M  V30 10712 C 1003.61 4.90847 -2.12068 0
M  V30 10713 C 1004.91 3.54862 -3.83237 0
M  V30 10714 H 1006.61 1.82138 -2.37626 0
M  V30 10715 H 1004.15 0.874873 -1.14376 0
M  V30 10716 H 1006.11 4.00819 -1.30085 0
M  V30 10717 H 1004.83 3.2507 -0.31573 0
M  V30 10718 H 1003.49 2.77579 -2.39469 0
M  V30 10719 H 1003.14 4.90229 -1.12626 0
M  V30 10720 H 1002.84 5.12875 -2.86762 0
M  V30 10721 H 1004.36 5.71711 -2.14426 0
M  V30 10722 H 1005.78 4.23432 -3.86494 0
M  V30 10723 H 1004.17 3.88416 -4.57442 0
M  V30 10724 H 1005.24 2.54266 -4.12888 0
M  V30 10725 N 1006.59 1.25851 0.948643 0
M  V30 10726 C 1007.52 1.09248 2.06367 0
M  V30 10727 C 1008.5 -0.000205168 1.701 0
M  V30 10728 O 1009.68 0.170442 1.93451 0
M  V30 10729 C 1006.81 0.716777 3.39823 0
M  V30 10730 C 1005.77 1.76036 3.90122 0
M  V30 10731 C 1005.09 1.23918 5.20143 0
M  V30 10732 C 1006.39 3.16039 4.15833 0
M  V30 10733 H 1008.09 2.02518 2.20515 0
M  V30 10734 H 1005.63 0.975093 1.05962 0
M  V30 10735 H 1007.59 0.587531 4.17284 0
M  V30 10736 H 1006.31 -0.251626 3.25629 0
M  V30 10737 H 1004.97 1.87815 3.14835 0
M  V30 10738 H 1004.62 0.260836 5.02323 0
M  V30 10739 H 1004.32 1.93673 5.54765 0
M  V30 10740 H 1005.84 1.12245 6.00194 0
M  V30 10741 H 1007.25 3.0738 4.83933 0
M  V30 10742 H 1005.65 3.83317 4.61723 0
M  V30 10743 H 1006.72 3.62652 3.21887 0
M  V30 10744 N 1008.06 -1.15214 1.07534 0
M  V30 10745 C 1009.03 -2.18209 0.701237 0
M  V30 10746 C 1010.03 -1.58693 -0.25946 0
M  V30 10747 O 1011.22 -1.74154 -0.0401744 0
M  V30 10748 C 1008.35 -3.40883 0.0338703 0
M  V30 10749 H 1009.54 -2.5282 1.61314 0
M  V30 10750 H 1007.1 -1.29707 0.872105 0
M  V30 10751 H 1007.83 -3.11843 -0.890187 0
M  V30 10752 H 1007.62 -3.85342 0.72486 0
M  V30 10753 H 1009.11 -4.17056 -0.213152 0
M  V30 10754 N 1009.54 -0.859717 -1.32086 0
M  V30 10755 C 1010.77 -0.479028 -2.0097 0
M  V30 10756 C 1011.18 0.930242 -1.64752 0
M  V30 10757 O 1010.52 1.6193 -0.867437 0
M  V30 10758 C 1010.59 -0.54431 -3.55355 0
M  V30 10759 C 1010.25 -1.91337 -4.15017 0
M  V30 10760 C 1011.25 -2.87951 -4.32874 0
M  V30 10761 C 1008.93 -2.21189 -4.50977 0
M  V30 10762 C 1010.93 -4.12567 -4.85867 0
M  V30 10763 C 1008.61 -3.46057 -5.03674 0
M  V30 10764 C 1009.61 -4.41562 -5.21068 0
M  V30 10765 O 1009.3 -5.64218 -5.72637 0
M  V30 10766 H 1009.03 -0.186161 -0.649861 0
M  V30 10767 H 1011.58 -1.15976 -1.69525 0
M  V30 10768 H 1009.81 0.1933 -3.86217 0
M  V30 10769 H 1011.5 -0.178506 -4.05507 0
M  V30 10770 H 1012.27 -2.66194 -4.05421 0
M  V30 10771 H 1008.15 -1.47635 -4.36721 0
M  V30 10772 H 1011.69 -4.8712 -4.99359 0
M  V30 10773 H 1007.59 -3.67662 -5.30561 0
M  V30 10774 H 1008.36 -5.66246 -5.91023 0
M  V30 10775 N 1011.02 1.44971 -0.618145 0
M  V30 10776 C 1012.44 1.57077 -0.282666 0
M  V30 10777 C 1012.64 1.60782 1.21456 0
M  V30 10778 O 1011.69 1.54382 1.99806 0
M  V30 10779 C 1013.01 2.84858 -0.963148 0
M  V30 10780 C 1014.55 2.9855 -0.940062 0
M  V30 10781 C 1015.03 4.29115 -1.60076 0
M  V30 10782 N 1016.52 4.35899 -1.56674 0
M  V30 10783 C 1017.25 5.35617 -2.04701 0
M  V30 10784 N 1016.75 6.41813 -2.6086 0
M  V30 10785 N 1018.54 5.27042 -1.95406 0
M  V30 10786 H 1010.69 1.4081 -1.59017 0
M  V30 10787 H 1012.96 0.673914 -0.666741 0
M  V30 10788 H 1012.66 2.88059 -2.0178 0
M  V30 10789 H 1012.54 3.73966 -0.492901 0
M  V30 10790 H 1014.92 2.94909 0.10607 0
M  V30 10791 H 1015.01 2.10825 -1.44868 0
M  V30 10792 H 1014.65 4.33514 -2.64627 0
M  V30 10793 H 1014.58 5.15675 -1.06708 0
M  V30 10794 H 1017.07 3.59766 -1.15659 0
M  V30 10795 H 1017.38 7.14166 -2.95273 0
M  V30 10796 H 1015.73 6.42534 -2.64905 0
M  V30 10797 H 1018.92 4.42987 -1.51263 0
M  V30 10798 H 1019.09 6.04604 -2.33147 0
M  V30 10799 N 1012.5 0.357919 1.53482 0
M  V30 10800 C 1013.75 -0.235241 2.00324 0
M  V30 10801 C 1014.06 -1.50494 1.24944 0
M  V30 10802 O 1015.27 -2.17623 1.62335 0
M  V30 10803 C 1013.72 -0.469748 3.56821 0
M  V30 10804 C 1013.33 0.784877 4.41071 0
M  V30 10805 C 1015.07 -1.02098 4.12039 0
M  V30 10806 C 1012.98 0.520377 5.89106 0
M  V30 10807 H 1011.91 -0.0916816 0.748405 0
M  V30 10808 H 1014.56 0.475474 1.77233 0
M  V30 10809 H 1012.94 -1.24153 3.76035 0
M  V30 10810 H 1014.12 1.55886 4.33631 0
M  V30 10811 H 1012.43 1.25878 3.96918 0
M  V30 10812 H 1015.03 -1.23406 5.20264 0
M  V30 10813 H 1015.37 -1.98084 3.66154 0
M  V30 10814 H 1015.91 -0.309554 3.96594 0
M  V30 10815 H 1012.65 1.45035 6.39254 0
M  V30 10816 H 1012.17 -0.215254 5.99414 0
M  V30 10817 H 1013.84 0.143006 6.46842 0
M  V30 10818 N 1013.98 -1.5736 0.0868897 0
M  V30 10819 C 1015.23 -1.93229 -0.578387 0
M  V30 10820 C 1015.54 -0.970127 -1.69847 0
M  V30 10821 O 1016.74 -1.22222 -2.42434 0
M  V30 10822 C 1015.2 -3.43307 -1.0802 0
M  V30 10823 C 1014.81 -4.47999 0.00968135 0
M  V30 10824 C 1016.55 -3.88151 -1.71868 0
M  V30 10825 C 1014.46 -5.89223 -0.507029 0
M  V30 10826 H 1013.39 -0.721245 -0.219823 0
M  V30 10827 H 1016.04 -1.82787 0.161566 0
M  V30 10828 H 1014.42 -3.48873 -1.87359 0
M  V30 10829 H 1015.6 -4.54067 0.784865 0
M  V30 10830 H 1013.91 -4.12714 0.552845 0
M  V30 10831 H 1016.51 -4.91056 -2.11585 0
M  V30 10832 H 1016.85 -3.26347 -2.58464 0
M  V30 10833 H 1017.38 -3.85252 -0.991259 0
M  V30 10834 H 1014.12 -6.54708 0.322121 0
M  V30 10835 H 1013.64 -5.86643 -1.2494 0
M  V30 10836 H 1015.32 -6.39556 -0.978628 0
M  V30 10837 N 1015.45 0.186762 -1.56489 0
M  V30 10838 C 1016.38 1.23395 -1.98232 0
M  V30 10839 C 1017.37 1.4702 -0.855526 0
M  V30 10840 O 1018.55 1.58616 -1.12048 0
M  V30 10841 C 1015.68 2.57635 -2.32898 0
M  V30 10842 C 1014.63 2.48607 -3.48394 0
M  V30 10843 C 1013.96 3.87196 -3.68759 0
M  V30 10844 C 1015.26 2.00398 -4.82325 0
M  V30 10845 H 1016.95 0.887026 -2.85958 0
M  V30 10846 H 1014.5 0.42525 -1.37578 0
M  V30 10847 H 1016.45 3.31082 -2.60696 0
M  V30 10848 H 1015.18 2.94084 -1.42064 0
M  V30 10849 H 1013.84 1.77615 -3.207 0
M  V30 10850 H 1013.48 4.21012 -2.75241 0
M  V30 10851 H 1013.18 3.82029 -4.46462 0
M  V30 10852 H 1014.71 4.62253 -3.98941 0
M  V30 10853 H 1016.12 2.6361 -5.091 0
M  V30 10854 H 1014.52 2.06214 -5.63556 0
M  V30 10855 H 1015.59 0.957562 -4.75351 0
M  V30 10856 N 1016.93 1.50896 0.454776 0
M  V30 10857 C 1018.18 1.6294 1.20741 0
M  V30 10858 C 1018.51 0.336339 1.91265 0
M  V30 10859 O 1017.79 -0.663153 1.82846 0
M  V30 10860 C 1018.07 2.82092 2.23822 0
M  V30 10861 C 1017.92 4.21326 1.57495 0
M  V30 10862 C 1019.24 2.96777 3.24979 0
M  V30 10863 H 1016.36 0.59302 0.437603 0
M  V30 10864 H 1019 1.83331 0.498959 0
M  V30 10865 H 1017.15 2.64837 2.84243 0
M  V30 10866 H 1018.82 4.50209 1.00546 0
M  V30 10867 H 1017.07 4.24829 0.877664 0
M  V30 10868 H 1017.74 5.00656 2.32482 0
M  V30 10869 H 1020.21 3.12627 2.74597 0
M  V30 10870 H 1019.09 3.81742 3.94416 0
M  V30 10871 H 1019.35 2.08091 3.90065 0
M  V30 10872 N 1018.41 -0.709066 1.40748 0
M  V30 10873 C 1019.66 -1.46901 1.39378 0
M  V30 10874 C 1019.99 -1.945 -0.0016993 0
M  V30 10875 O 1019.24 -1.68963 -0.987426 0
M  V30 10876 C 1019.54 -2.70543 2.33541 0
M  V30 10877 C 1019.21 -2.41674 3.80663 0
M  V30 10878 C 1017.87 -2.33511 4.20745 0
M  V30 10879 C 1020.22 -2.1759 4.73607 0
M  V30 10880 C 1017.55 -1.99342 5.51797 0
M  V30 10881 C 1019.9 -1.84933 6.04965 0
M  V30 10882 C 1018.56 -1.75256 6.44082 0
M  V30 10883 H 1017.83 -0.537549 0.510021 0
M  V30 10884 H 1020.48 -0.811635 1.7345 0
M  V30 10885 H 1018.79 -3.41149 1.92677 0
M  V30 10886 H 1020.48 -3.2865 2.29761 0
M  V30 10887 H 1017.07 -2.48917 3.4891 0
M  V30 10888 H 1021.26 -2.22849 4.43454 0
M  V30 10889 H 1016.51 -1.90392 5.81 0
M  V30 10890 H 1020.69 -1.65313 6.76494 0
M  V30 10891 H 1018.31 -1.48547 7.45545 0
M  V30 10892 N 1019.89 -1.26353 -0.941956 0
M  V30 10893 C 1020.84 -1.04513 -2.02635 0
M  V30 10894 C 1021.82 0.0222314 -1.60885 0
M  V30 10895 O 1023.02 -0.194629 -1.75927 0
M  V30 10896 C 1020.14 -0.679282 -3.36512 0
M  V30 10897 C 1019.23 -1.78406 -3.8475 0
M  V30 10898 N 1019.62 -3.02136 -4.05645 0
M  V30 10899 C 1017.92 -1.66748 -4.13656 0
M  V30 10900 C 1018.62 -3.73932 -4.45589 0
M  V30 10901 N 1017.6 -3.01616 -4.52248 0
M  V30 10902 H 1021.4 -1.9843 -2.16801 0
M  V30 10903 H 1018.91 -1.16858 -1.12774 0
M  V30 10904 H 1020.91 -0.503975 -4.13843 0
M  V30 10905 H 1019.57 0.252418 -3.23717 0
M  V30 10906 H 1020.58 -3.38049 -3.92356 0
M  V30 10907 H 1017.26 -0.805627 -4.09653 0
M  V30 10908 H 1018.65 -4.80201 -4.69954 0
M  V30 10909 N 1021.37 1.14642 -1.08144 0
M  V30 10910 C 1022.32 2.17665 -0.678661 0
M  V30 10911 C 1023.3 1.58072 0.300336 0
M  V30 10912 O 1024.49 1.7664 0.112781 0
M  V30 10913 C 1021.62 3.43191 -0.0866362 0
M  V30 10914 C 1020.71 4.0982 -1.09126 0
M  V30 10915 N 1021.1 4.51814 -2.27372 0
M  V30 10916 C 1019.4 4.36272 -0.926411 0
M  V30 10917 C 1020.1 5.03581 -2.91172 0
M  V30 10918 N 1019.07 4.97624 -2.18795 0
M  V30 10919 H 1022.88 2.47872 -1.57914 0
M  V30 10920 H 1020.39 1.31296 -0.955772 0
M  V30 10921 H 1022.39 4.1632 0.219859 0
M  V30 10922 H 1021.05 3.14464 0.80886 0
M  V30 10923 H 1022.06 4.44941 -2.65044 0
M  V30 10924 H 1018.74 4.17414 -0.084492 0
M  V30 10925 H 1020.13 5.45969 -3.91621 0
M  V30 10926 N 1022.85 0.866709 1.31628 0
M  V30 10927 C 1023.78 0.264788 2.26659 0
M  V30 10928 C 1024.76 -0.604181 1.50958 0
M  V30 10929 O 1025.94 -0.558324 1.80042 0
M  V30 10930 C 1023.07 -0.625373 3.32877 0
M  V30 10931 C 1022.11 0.171813 4.26154 0
M  V30 10932 S 1022.95 1.54818 5.12632 0
M  V30 10933 C 1024.1 0.66405 6.22367 0
M  V30 10934 H 1024.34 1.07036 2.77364 0
M  V30 10935 H 1021.87 0.665038 1.39343 0
M  V30 10936 H 1023.83 -1.13327 3.94547 0
M  V30 10937 H 1022.49 -1.40486 2.80932 0
M  V30 10938 H 1021.68 -0.506694 5.01447 0
M  V30 10939 H 1021.28 0.611704 3.68964 0
M  V30 10940 H 1023.57 -0.126717 6.77381 0
M  V30 10941 H 1024.52 1.388 6.94363 0
M  V30 10942 H 1024.93 0.233046 5.64019 0
M  V30 10943 N 1024.32 -1.44642 0.625825 0
M  V30 10944 C 1025.29 -2.29085 -0.072526 0
M  V30 10945 C 1026.29 -1.40755 -0.777467 0
M  V30 10946 O 1027.48 -1.62684 -0.622861 0
M  V30 10947 C 1024.61 -3.22212 -1.1132 0
M  V30 10948 H 1025.8 -2.92317 0.670124 0
M  V30 10949 H 1023.35 -1.51466 0.38571 0
M  V30 10950 H 1024.09 -2.63819 -1.88601 0
M  V30 10951 H 1023.87 -3.87299 -0.611709 0
M  V30 10952 H 1025.36 -3.8566 -1.60175 0
M  V30 10953 N 1025.8 -0.366053 -1.5329 0
M  V30 10954 C 1026.73 0.514916 -2.23341 0
M  V30 10955 C 1027.75 1.04579 -1.24768 0
M  V30 10956 O 1028.94 0.952084 -1.50989 0
M  V30 10957 C 1026.04 1.72374 -2.91788 0
M  V30 10958 C 1025.21 1.32429 -4.16871 0
M  V30 10959 C 1024.27 2.39524 -4.68524 0
M  V30 10960 O 1023.29 2.01895 -5.32191 0
M  V30 10961 N 1024.5 3.71116 -4.46378 0
M  V30 10962 H 1027.26 -0.0851272 -2.99579 0
M  V30 10963 H 1024.82 -0.191255 -1.60766 0
M  V30 10964 H 1026.81 2.43496 -3.23252 0
M  V30 10965 H 1025.38 2.23064 -2.19 0
M  V30 10966 H 1024.6 0.442901 -3.91704 0
M  V30 10967 H 1025.89 1.03372 -4.98188 0
M  V30 10968 H 1025.29 4.04463 -3.95508 0
M  V30 10969 H 1023.85 4.38341 -4.82391 0
M  V30 10970 N 1027.28 1.57312 -0.0952337 0
M  V30 10971 C 1028.23 2.10571 0.87428 0
M  V30 10972 C 1029.21 1.02079 1.24374 0
M  V30 10973 O 1030.41 1.28353 1.2188 0
M  V30 10974 C 1027.53 2.68972 2.13329 0
M  V30 10975 C 1026.62 3.84508 1.78926 0
M  V30 10976 N 1027.01 4.92534 1.15082 0
M  V30 10977 C 1025.31 3.94245 2.08535 0
M  V30 10978 C 1026.01 5.73163 0.992937 0
M  V30 10979 N 1024.99 5.22198 1.51029 0
M  V30 10980 H 1028.79 2.91476 0.376727 0
M  V30 10981 H 1026.3 1.62041 0.107974 0
M  V30 10982 H 1028.3 3.05457 2.83728 0
M  V30 10983 H 1026.96 1.89523 2.6365 0
M  V30 10984 H 1027.97 5.11405 0.817621 0
M  V30 10985 H 1024.65 3.25805 2.61069 0
M  V30 10986 H 1026.04 6.70084 0.493641 0
M  V30 10987 N 1028.76 -0.17846 1.56586 0
M  V30 10988 C 1029.69 -1.22342 1.98884 0
M  V30 10989 C 1030.67 -1.46564 0.86331 0
M  V30 10990 O 1031.85 -1.58019 1.12887 0
M  V30 10991 C 1028.98 -2.56396 2.34261 0
M  V30 10992 C 1027.94 -2.46756 3.49708 0
M  V30 10993 C 1027.26 -3.85235 3.70807 0
M  V30 10994 C 1028.56 -1.97838 4.83381 0
M  V30 10995 H 1030.26 -0.871848 2.86425 0
M  V30 10996 H 1027.8 -0.417948 1.37801 0
M  V30 10997 H 1029.76 -3.29695 2.62448 0
M  V30 10998 H 1028.48 -2.93327 1.43621 0
M  V30 10999 H 1027.14 -1.75912 3.21637 0
M  V30 11000 H 1026.79 -4.19547 2.7747 0
M  V30 11001 H 1026.49 -3.79655 4.48481 0
M  V30 11002 H 1028.01 -4.60131 4.01387 0
M  V30 11003 H 1029.43 -2.60906 5.10491 0
M  V30 11004 H 1027.82 -2.03223 5.64642 0
M  V30 11005 H 1028.89 -0.932339 4.75852 0
M  V30 11006 N 1030.24 -1.51135 -0.446768 0
M  V30 11007 C 1031.17 -1.66438 -1.56121 0
M  V30 11008 C 1032.15 -0.512061 -1.54327 0
M  V30 11009 O 1033.33 -0.734702 -1.73593 0
M  V30 11010 C 1030.46 -1.66932 -2.94706 0
M  V30 11011 C 1029.5 -2.88016 -3.14562 0
M  V30 11012 S 1030.34 -4.48973 -2.91863 0
M  V30 11013 C 1031.49 -4.52196 -4.32746 0
M  V30 11014 H 1031.73 -2.60702 -1.42904 0
M  V30 11015 H 1029.26 -1.40701 -0.635812 0
M  V30 11016 H 1031.22 -1.679 -3.74593 0
M  V30 11017 H 1029.88 -0.738607 -3.05292 0
M  V30 11018 H 1029.07 -2.84735 -4.15863 0
M  V30 11019 H 1028.67 -2.8474 -2.42485 0
M  V30 11020 H 1030.96 -4.27256 -5.25793 0
M  V30 11021 H 1031.91 -5.53957 -4.41064 0
M  V30 11022 H 1032.32 -3.81624 -4.15961 0
M  V30 11023 N 1031.71 0.701592 -1.41122 0
M  V30 11024 C 1032.65 1.8257 -1.36907 0
M  V30 11025 C 1033.62 1.6086 -0.237245 0
M  V30 11026 O 1034.81 1.83688 -0.423182 0
M  V30 11027 C 1031.94 3.19149 -1.13408 0
M  V30 11028 C 1030.98 3.59661 -2.29229 0
M  V30 11029 S 1031.81 3.65161 -3.91685 0
M  V30 11030 C 1032.97 5.04477 -3.70478 0
M  V30 11031 H 1033.2 1.85867 -2.32036 0
M  V30 11032 H 1030.74 0.869726 -1.27574 0
M  V30 11033 H 1032.69 3.97998 -1.00537 0
M  V30 11034 H 1031.36 3.13468 -0.199099 0
M  V30 11035 H 1030.55 4.58866 -2.08466 0
M  V30 11036 H 1030.15 2.88105 -2.38477 0
M  V30 11037 H 1032.44 5.91803 -3.29811 0
M  V30 11038 H 1033.39 5.3028 -4.69264 0
M  V30 11039 H 1033.79 4.75731 -3.03876 0
M  V30 11040 N 1033.19 1.2685 0.935242 0
M  V30 11041 C 1034.15 1.08975 2.01636 0
M  V30 11042 C 1035.15 0.0361543 1.60759 0
M  V30 11043 O 1036.34 0.280087 1.71934 0
M  V30 11044 C 1033.48 0.658831 3.34473 0
M  V30 11045 H 1034.67 2.04968 2.18925 0
M  V30 11046 H 1032.22 1.09531 1.11501 0
M  V30 11047 H 1032.96 -0.302824 3.22883 0
M  V30 11048 H 1032.74 1.41967 3.65497 0
M  V30 11049 H 1034.23 0.555783 4.13885 0
M  V30 11050 N 1034.67 -1.14067 1.0875 0
M  V30 11051 C 1035.92 -1.85459 0.82053 0
M  V30 11052 C 1036.25 -1.82923 -0.65213 0
M  V30 11053 O 1035.52 -1.26241 -1.47965 0
M  V30 11054 C 1035.81 -3.33937 1.34752 0
M  V30 11055 C 1035.66 -3.45026 2.88578 0
M  V30 11056 C 1036.98 -4.2915 0.975636 0
M  V30 11057 H 1034.1 -0.673384 0.299538 0
M  V30 11058 H 1036.74 -1.33927 1.34772 0
M  V30 11059 H 1034.89 -3.77953 0.899086 0
M  V30 11060 H 1036.56 -3.09771 3.41818 0
M  V30 11061 H 1034.81 -2.86124 3.26061 0
M  V30 11062 H 1035.48 -4.49408 3.20526 0
M  V30 11063 H 1037.95 -3.93168 1.36228 0
M  V30 11064 H 1036.83 -5.31489 1.37152 0
M  V30 11065 H 1037.09 -4.41945 -0.116956 0
M  V30 11066 N 1036.15 -0.873678 -1.31166 0
M  V30 11067 C 1037.4 -0.485497 -1.96182 0
M  V30 11068 C 1037.72 0.96621 -1.69379 0
M  V30 11069 O 1036.99 1.67783 -1.01121 0
M  V30 11070 H 1035.57 -0.176547 -0.725838 0
M  V30 11071 H 1038.23 -1.11428 -1.59906 0
M  V30 11072 H 1037.33 -0.646325 -3.05334 0
M  V30 11073 N 1037.63 1.44308 -0.633487 0
M  V30 11074 C 1038.87 2.02023 -0.138917 0
M  V30 11075 C 1039.2 1.49841 1.24008 0
M  V30 11076 O 1038.46 0.673718 1.83738 0
M  V30 11077 C 1038.76 3.57316 -0.0773886 0
M  V30 11078 C 1038.42 4.28762 -1.39548 0
M  V30 11079 C 1037.08 4.47997 -1.75648 0
M  V30 11080 C 1039.44 4.69391 -2.26542 0
M  V30 11081 C 1036.76 5.05121 -2.98445 0
M  V30 11082 C 1039.12 5.27876 -3.48612 0
M  V30 11083 C 1037.78 5.45329 -3.84932 0
M  V30 11084 H 1037.05 0.739254 -0.0508333 0
M  V30 11085 H 1039.7 1.73043 -0.820271 0
M  V30 11086 H 1038 3.85724 0.687345 0
M  V30 11087 H 1039.7 3.99706 0.321837 0
M  V30 11088 H 1036.29 4.14122 -1.10456 0
M  V30 11089 H 1040.47 4.54241 -1.99946 0
M  V30 11090 H 1035.73 5.16821 -3.26658 0
M  V30 11091 H 1039.9 5.58307 -4.16253 0
M  V30 11092 H 1037.53 5.8936 -4.80166 0
M  V30 11093 N 1039.1 0.374177 1.53094 0
M  V30 11094 C 1040.34 -0.21278 2.03289 0
M  V30 11095 C 1040.71 -1.45291 1.25517 0
M  V30 11096 O 1041.91 -2.11605 1.65761 0
M  V30 11097 C 1040.18 -0.48913 3.54037 0
M  V30 11098 S 1041.74 -1.04853 4.26088 0
M  V30 11099 H 1038.56 -0.0612752 0.708355 0
M  V30 11100 H 1041.16 0.519031 1.88484 0
M  V30 11101 H 1039.86 0.420786 4.08237 0
M  V30 11102 H 1039.39 -1.24978 3.7302 0
M  V30 11103 H 1041.41 -2.33213 4.3798 0
M  V30 11104 N 1040.58 -1.57259 0.103575 0
M  V30 11105 C 1041.51 -2.17509 -0.84923 0
M  V30 11106 C 1042.49 -1.11079 -1.28824 0
M  V30 11107 O 1043.68 -1.39252 -1.35361 0
M  V30 11108 C 1040.81 -2.76221 -2.10522 0
M  V30 11109 C 1039.76 -3.88098 -1.80454 0
M  V30 11110 C 1039.09 -4.33549 -3.12952 0
M  V30 11111 C 1040.39 -5.10909 -1.08486 0
M  V30 11112 H 1042.08 -2.9738 -0.347217 0
M  V30 11113 H 1039.63 -1.43045 -0.165568 0
M  V30 11114 H 1041.58 -3.17024 -2.77621 0
M  V30 11115 H 1040.31 -1.93617 -2.63021 0
M  V30 11116 H 1038.96 -3.47847 -1.15749 0
M  V30 11117 H 1038.61 -3.47825 -3.63355 0
M  V30 11118 H 1038.31 -5.08984 -2.93614 0
M  V30 11119 H 1039.84 -4.76992 -3.81196 0
M  V30 11120 H 1041.25 -5.48828 -1.65711 0
M  V30 11121 H 1039.65 -5.91828 -0.992973 0
M  V30 11122 H 1040.72 -4.84851 -0.0690108 0
M  V30 11123 N 1042.06 0.170153 -1.56679 0
M  V30 11124 C 1043.31 0.884841 -1.817 0
M  V30 11125 C 1043.63 1.82731 -0.680763 0
M  V30 11126 O 1042.9 1.936 0.299294 0
M  V30 11127 H 1041.48 0.329738 -0.670285 0
M  V30 11128 H 1044.14 0.169691 -1.9416 0
M  V30 11129 H 1043.24 1.46104 -2.7579 0
M  V30 11130 N 1043.54 1.5137 0.438746 0
M  V30 11131 C 1044.77 1.6753 1.20901 0
M  V30 11132 C 1045.18 0.371573 1.85515 0
M  V30 11133 O 1044.52 -0.659701 1.71446 0
M  V30 11134 C 1044.58 2.73305 2.33548 0
M  V30 11135 C 1044.25 4.15944 1.89313 0
M  V30 11136 C 1045.24 5.00769 1.39736 0
M  V30 11137 C 1042.93 4.62036 1.97047 0
M  V30 11138 C 1044.92 6.29747 0.984773 0
M  V30 11139 C 1042.61 5.91011 1.554 0
M  V30 11140 C 1043.61 6.74693 1.06197 0
M  V30 11141 O 1043.29 8.01256 0.651407 0
M  V30 11142 H 1043.03 0.565404 0.370532 0
M  V30 11143 H 1045.58 1.98543 0.526296 0
M  V30 11144 H 1043.81 2.37604 3.05092 0
M  V30 11145 H 1045.5 2.78359 2.95417 0
M  V30 11146 H 1046.27 4.66363 1.33156 0
M  V30 11147 H 1042.14 3.97025 2.34291 0
M  V30 11148 H 1045.69 6.95015 0.600029 0
M  V30 11149 H 1041.59 6.24932 1.6165 0
M  V30 11150 H 1042.35 8.148 0.777382 0
M  V30 11151 N 1045.02 -0.694098 1.41492 0
M  V30 11152 C 1046.26 -1.45127 1.4065 0
M  V30 11153 C 1046.59 -1.94993 0.0170289 0
M  V30 11154 O 1045.86 -1.71799 -0.941372 0
M  V30 11155 H 1044.44 -0.538493 0.51772 0
M  V30 11156 H 1047.1 -0.821441 1.76744 0
M  V30 11157 H 1046.19 -2.31372 2.0946 0
M  V30 11158 N 1046.49 -1.27344 -0.928501 0
M  V30 11159 C 1047.73 -1.14871 -1.69068 0
M  V30 11160 C 1048.1 0.300603 -1.89632 0
M  V30 11161 O 1049.3 0.547743 -2.6316 0
M  V30 11162 C 1047.57 -1.90992 -3.02087 0
M  V30 11163 S 1049.13 -1.94722 -3.93229 0
M  V30 11164 H 1045.95 -0.410095 -0.580812 0
M  V30 11165 H 1048.55 -1.61242 -1.1055 0
M  V30 11166 H 1047.25 -2.95484 -2.84811 0
M  V30 11167 H 1046.78 -1.45112 -3.65658 0
M  V30 11168 H 1048.8 -1.04306 -4.85113 0
M  V30 11169 N 1047.97 1.13488 -1.09353 0
M  V30 11170 C 1049.38 1.66299 -0.848609 0
M  V30 11171 C 1049.73 1.86044 0.623051 0
M  V30 11172 O 1048.86 1.57871 1.48005 0
M  V30 11173 C 1049.45 3.02087 -1.53391 0
M  V30 11174 C 1048.01 3.51893 -1.33598 0
M  V30 11175 C 1047.16 2.27154 -1.59048 0
M  V30 11176 H 1050.11 0.974208 -1.25279 0
M  V30 11177 H 1050.13 3.68018 -0.966587 0
M  V30 11178 H 1049.64 2.87684 -2.60498 0
M  V30 11179 H 1047.75 3.715 -0.286045 0
M  V30 11180 H 1047.86 4.32059 -2.0703 0
M  V30 11181 H 1046.22 2.33708 -1.01256 0
M  V30 11182 H 1047.01 2.15317 -2.67383 0
M  V30 11183 N 1049.45 0.880621 1.30701 0
M  V30 11184 C 1050.38 0.360251 2.30704 0
M  V30 11185 C 1051.36 -0.554572 1.60806 0
M  V30 11186 O 1052.55 -0.469345 1.88443 0
M  V30 11187 C 1049.68 -0.429888 3.44629 0
M  V30 11188 C 1048.63 0.392786 4.26194 0
M  V30 11189 C 1047.96 -0.52369 5.32129 0
M  V30 11190 C 1049.26 1.63258 4.96129 0
M  V30 11191 H 1050.95 1.19591 2.74478 0
M  V30 11192 H 1048.5 0.576508 1.31956 0
M  V30 11193 H 1050.45 -0.804532 4.13649 0
M  V30 11194 H 1049.17 -1.29916 2.99649 0
M  V30 11195 H 1047.83 0.749514 3.58856 0
M  V30 11196 H 1047.48 -1.39054 4.83397 0
M  V30 11197 H 1047.18 0.0229272 5.87596 0
M  V30 11198 H 1048.71 -0.894946 6.04006 0
M  V30 11199 H 1050.12 1.32877 5.57689 0
M  V30 11200 H 1048.52 2.11906 5.61441 0
M  V30 11201 H 1049.59 2.37944 4.22505 0
M  V30 11202 N 1050.93 -1.4397 0.641131 0
M  V30 11203 C 1052.18 -2.01163 0.147026 0
M  V30 11204 C 1052.49 -1.51099 -1.24211 0
M  V30 11205 O 1053.7 -2.00487 -1.83078 0
M  V30 11206 C 1052.15 -3.59275 0.212068 0
M  V30 11207 C 1051.76 -4.18334 1.60314 0
M  V30 11208 C 1053.51 -4.23903 -0.225057 0
M  V30 11209 C 1051.41 -5.68701 1.62276 0
M  V30 11210 H 1050.34 -0.75226 0.051201 0
M  V30 11211 H 1052.99 -1.65075 0.801396 0
M  V30 11212 H 1051.38 -3.92708 -0.509589 0
M  V30 11213 H 1052.55 -3.96422 2.34918 0
M  V30 11214 H 1050.86 -3.66031 1.9852 0
M  V30 11215 H 1053.46 -5.34205 -0.230074 0
M  V30 11216 H 1053.8 -3.96956 -1.25426 0
M  V30 11217 H 1054.34 -3.95309 0.44444 0
M  V30 11218 H 1051.08 -6.00397 2.63066 0
M  V30 11219 H 1050.6 -5.92705 0.919797 0
M  V30 11220 H 1052.28 -6.32521 1.36112 0
M  V30 11221 N 1052.41 -0.382291 -1.52893 0
M  V30 11222 C 1053.66 0.203342 -2.00672 0
M  V30 11223 C 1053.97 1.48487 -1.27322 0
M  V30 11224 O 1055.18 2.15013 -1.65776 0
M  V30 11225 C 1053.63 0.412922 -3.57523 0
M  V30 11226 C 1053.24 -0.854949 -4.39767 0
M  V30 11227 C 1054.98 0.955301 -4.13611 0
M  V30 11228 C 1052.89 -0.614033 -5.88204 0
M  V30 11229 H 1051.82 0.0797635 -0.749769 0
M  V30 11230 H 1054.47 -0.50361 -1.76454 0
M  V30 11231 H 1052.85 1.18155 -3.77962 0
M  V30 11232 H 1054.03 -1.62765 -4.31096 0
M  V30 11233 H 1052.34 -1.32176 -3.94865 0
M  V30 11234 H 1054.94 1.15114 -5.22162 0
M  V30 11235 H 1055.28 1.92233 -3.69259 0
M  V30 11236 H 1055.82 0.24642 -3.97036 0
M  V30 11237 H 1052.55 -1.55187 -6.36865 0
M  V30 11238 H 1052.07 0.119865 -5.9968 0
M  V30 11239 H 1053.75 -0.245895 -6.46533 0
M  V30 11240 N 1053.89 1.57202 -0.111913 0
M  V30 11241 C 1055.11 1.99723 0.559054 0
M  V30 11242 C 1055.54 0.990968 1.59879 0
M  V30 11243 O 1054.89 -0.038311 1.8126 0
M  V30 11244 C 1054.94 3.41151 1.16826 0
M  V30 11245 O 1054.05 3.43383 2.2839 0
M  V30 11246 H 1053.39 0.649004 0.140319 0
M  V30 11247 H 1055.92 2.03637 -0.198295 0
M  V30 11248 H 1055.93 3.79208 1.50551 0
M  V30 11249 H 1054.6 4.13907 0.406637 0
M  V30 11250 H 1053.18 3.17138 1.96158 0
M  V30 11251 N 1055.36 -0.161842 1.56767 0
M  V30 11252 C 1056.61 -0.878224 1.82798 0
M  V30 11253 C 1056.94 -1.81481 0.691242 0
M  V30 11254 O 1056.22 -1.92075 -0.30618 0
M  V30 11255 C 1056.5 -1.66565 3.19262 0
M  V30 11256 C 1056.35 -0.751551 4.43477 0
M  V30 11257 C 1057.67 -2.63134 3.52773 0
M  V30 11258 H 1054.79 -0.317828 0.664947 0
M  V30 11259 H 1057.43 -0.14402 1.89453 0
M  V30 11260 H 1055.58 -2.29157 3.13719 0
M  V30 11261 H 1057.26 -0.137783 4.61094 0
M  V30 11262 H 1055.5 -0.0601785 4.33758 0
M  V30 11263 H 1056.17 -1.33823 5.35533 0
M  V30 11264 H 1058.65 -2.10666 3.5883 0
M  V30 11265 H 1057.52 -3.15289 4.49315 0
M  V30 11266 H 1057.78 -3.43786 2.77963 0
M  V30 11267 N 1056.84 -1.516 -0.430713 0
M  V30 11268 C 1058.09 -1.63829 -1.17657 0
M  V30 11269 C 1058.4 -0.363605 -1.92191 0
M  V30 11270 O 1059.61 -0.365358 -2.6903 0
M  V30 11271 C 1058.07 -2.89357 -2.14011 0
M  V30 11272 C 1057.67 -4.23854 -1.45094 0
M  V30 11273 C 1059.42 -3.10944 -2.88988 0
M  V30 11274 C 1057.32 -5.40526 -2.3997 0
M  V30 11275 H 1056.25 -0.610221 -0.442884 0
M  V30 11276 H 1058.91 -1.78073 -0.442984 0
M  V30 11277 H 1057.29 -2.68762 -2.90832 0
M  V30 11278 H 1058.46 -4.54854 -0.737853 0
M  V30 11279 H 1056.78 -4.08197 -0.822429 0
M  V30 11280 H 1059.37 -3.95286 -3.60074 0
M  V30 11281 H 1059.72 -2.24291 -3.50712 0
M  V30 11282 H 1060.25 -3.3191 -2.19272 0
M  V30 11283 H 1056.99 -6.29459 -1.82925 0
M  V30 11284 H 1056.51 -5.13893 -3.09313 0
M  V30 11285 H 1058.19 -5.72741 -3.00959 0
M  V30 11286 N 1058.32 0.686584 -1.41858 0
M  V30 11287 C 1059.55 1.47519 -1.45072 0
M  V30 11288 C 1059.96 1.88709 -0.0585868 0
M  V30 11289 O 1059.32 1.57373 0.924116 0
M  V30 11290 C 1059.37 2.73195 -2.36742 0
M  V30 11291 O 1059.09 2.33736 -3.70539 0
M  V30 11292 C 1060.59 3.66861 -2.48854 0
M  V30 11293 H 1057.81 0.454307 -0.493808 0
M  V30 11294 H 1060.36 0.844612 -1.86243 0
M  V30 11295 H 1058.51 3.32468 -1.98856 0
M  V30 11296 H 1058.93 3.14809 -4.19518 0
M  V30 11297 H 1060.4 4.51801 -3.17143 0
M  V30 11298 H 1060.88 4.11961 -1.52265 0
M  V30 11299 H 1061.48 3.13486 -2.87414 0
M  V30 11300 N 1059.8 1.27835 0.921735 0
M  V30 11301 C 1061.05 1.13904 1.6646 0
M  V30 11302 C 1061.36 -0.313379 1.93073 0
M  V30 11303 O 1062.57 -0.573687 2.6537 0
M  V30 11304 C 1061.02 1.99064 2.99836 0
M  V30 11305 C 1060.63 3.48998 2.80899 0
M  V30 11306 C 1062.37 1.93797 3.77681 0
M  V30 11307 C 1060.28 4.26337 4.09867 0
M  V30 11308 H 1059.21 0.422681 0.624385 0
M  V30 11309 H 1061.86 1.52303 1.02352 0
M  V30 11310 H 1060.24 1.53514 3.65034 0
M  V30 11311 H 1061.42 4.02452 2.24431 0
M  V30 11312 H 1059.73 3.55707 2.16476 0
M  V30 11313 H 1062.33 2.48852 4.73262 0
M  V30 11314 H 1062.67 0.912928 4.06167 0
M  V30 11315 H 1063.21 2.37275 3.19289 0
M  V30 11316 H 1059.94 5.2939 3.86557 0
M  V30 11317 H 1059.46 3.77659 4.65976 0
M  V30 11318 H 1061.14 4.3583 4.78185 0
M  V30 11319 N 1061.28 -1.12907 1.09954 0
M  V30 11320 C 1062.24 -2.16673 0.747364 0
M  V30 11321 C 1063.24 -1.59208 -0.225741 0
M  V30 11322 O 1064.43 -1.742 -0.00322482 0
M  V30 11323 C 1061.56 -3.40735 0.106169 0
M  V30 11324 H 1062.75 -2.49341 1.6664 0
M  V30 11325 H 1060.31 -1.27828 0.899421 0
M  V30 11326 H 1061.04 -3.13661 -0.82384 0
M  V30 11327 H 1060.83 -3.83717 0.806434 0
M  V30 11328 H 1062.32 -4.17414 -0.12464 0
M  V30 11329 N 1062.75 -0.88754 -1.30232 0
M  V30 11330 C 1064 -0.508031 -1.96334 0
M  V30 11331 C 1064.33 0.940905 -1.69884 0
M  V30 11332 O 1063.61 1.66523 -1.005 0
M  V30 11333 C 1063.89 -0.786566 -3.51405 0
M  V30 11334 C 1063.74 -2.28632 -3.8736 0
M  V30 11335 C 1065.06 -0.264803 -4.39303 0
M  V30 11336 H 1062.18 -0.186051 -0.71313 0
M  V30 11337 H 1064.82 -1.112 -1.5406 0
M  V30 11338 H 1062.97 -0.272523 -3.87543 0
M  V30 11339 H 1064.65 -2.86896 -3.61231 0
M  V30 11340 H 1062.89 -2.75194 -3.35337 0
M  V30 11341 H 1063.56 -2.43181 -4.95547 0
M  V30 11342 H 1066.04 -0.704809 -4.10087 0
M  V30 11343 H 1064.91 -0.488998 -5.46717 0
M  V30 11344 H 1065.17 0.834055 -4.34161 0
M  V30 11345 N 1064.23 1.43628 -0.648757 0
M  V30 11346 C 1065.46 2.06217 -0.167945 0
M  V30 11347 C 1065.88 1.486 1.16462 0
M  V30 11348 O 1065.23 0.61559 1.71804 0
M  V30 11349 C 1065.28 3.6144 -0.0660114 0
M  V30 11350 O 1065 4.16914 -1.34589 0
M  V30 11351 C 1066.51 4.41097 0.441408 0
M  V30 11352 H 1063.73 0.665228 -0.0878237 0
M  V30 11353 H 1066.27 1.84207 -0.888144 0
M  V30 11354 H 1064.42 3.82651 0.604722 0
M  V30 11355 H 1064.84 5.10537 -1.20218 0
M  V30 11356 H 1066.31 5.50066 0.461697 0
M  V30 11357 H 1066.79 4.13803 1.47187 0
M  V30 11358 H 1067.4 4.24845 -0.19668 0
M  V30 11359 N 1065.71 0.390394 1.52688 0
M  V30 11360 C 1066.64 -0.479319 2.24132 0
M  V30 11361 C 1067.66 -1.0258 1.26416 0
M  V30 11362 O 1068.84 -0.927943 1.52484 0
M  V30 11363 C 1065.94 -1.67711 2.94493 0
M  V30 11364 C 1065.12 -1.2578 4.18925 0
M  V30 11365 C 1064.18 -2.3204 4.72275 0
M  V30 11366 O 1063.2 -1.93402 5.35336 0
M  V30 11367 N 1064.4 -3.63967 4.52226 0
M  V30 11368 H 1067.17 0.132777 2.99406 0
M  V30 11369 H 1064.73 0.216807 1.60442 0
M  V30 11370 H 1066.72 -2.38323 3.27084 0
M  V30 11371 H 1065.29 -2.19552 2.22521 0
M  V30 11372 H 1064.51 -0.380528 3.92359 0
M  V30 11373 H 1065.8 -0.954329 4.9977 0
M  V30 11374 H 1065.2 -3.98119 4.01892 0
M  V30 11375 H 1063.76 -4.30611 4.89303 0
M  V30 11376 N 1067.19 -1.57141 0.120249 0
M  V30 11377 C 1068.6 -1.82256 -0.404931 0
M  V30 11378 C 1068.95 -1.03748 -1.66526 0
M  V30 11379 O 1068.08 -0.274456 -2.14653 0
M  V30 11380 C 1068.67 -3.30588 -0.741431 0
M  V30 11381 C 1067.23 -3.56379 -1.21124 0
M  V30 11382 C 1066.38 -2.76421 -0.220569 0
M  V30 11383 H 1069.33 -1.54897 0.345361 0
M  V30 11384 H 1069.35 -3.45284 -1.59872 0
M  V30 11385 H 1068.86 -3.87701 0.176036 0
M  V30 11386 H 1066.96 -3.04625 -2.14556 0
M  V30 11387 H 1067.07 -4.64952 -1.1557 0
M  V30 11388 H 1065.44 -2.44666 -0.707857 0
M  V30 11389 H 1066.22 -3.36294 0.690018 0
M  V30 11390 N 1068.67 0.153526 -1.5685 0
M  V30 11391 C 1069.89 0.886343 -1.87507 0
M  V30 11392 C 1070.32 1.74244 -0.708565 0
M  V30 11393 O 1069.67 1.78045 0.341997 0
M  V30 11394 C 1069.72 1.72428 -3.16703 0
M  V30 11395 O 1068.83 2.82784 -3.00178 0
M  V30 11396 H 1068.17 0.247259 -0.616246 0
M  V30 11397 H 1070.7 0.146306 -2.04076 0
M  V30 11398 H 1070.71 2.12062 -3.4856 0
M  V30 11399 H 1069.38 1.09558 -4.01211 0
M  V30 11400 H 1067.96 2.46604 -2.79716 0
M  V30 11401 N 1070.14 1.51827 0.422667 0
M  V30 11402 C 1071.09 1.74791 1.53463 0
M  V30 11403 C 1072.09 0.614602 1.57858 0
M  V30 11404 O 1073.29 0.796336 1.61426 0
M  V30 11405 H 1069.67 0.552524 0.510118 0
M  V30 11406 H 1071.64 2.67974 1.31273 0
M  V30 11407 C 1070.39 1.90339 2.90975 0
M  V30 11408 H 1069.71 2.76958 2.8833 0
M  V30 11409 H 1071.15 2.10413 3.68106 0
M  V30 11410 C 1069.61 0.66695 3.30232 0
M  V30 11411 O 1070.14 -0.171542 4.01334 0
M  V30 11412 N 1068.35 0.506768 2.86147 0
M  V30 11413 H 1067.89 1.19019 2.28456 0
M  V30 11414 H 1067.85 -0.319247 3.12775 0
M  V30 11415 N 1071.62 -0.679052 1.4222 0
M  V30 11416 C 1072.85 -1.46747 1.45852 0
M  V30 11417 C 1073.27 -1.88675 0.0685937 0
M  V30 11418 O 1072.62 -1.57861 -0.915757 0
M  V30 11419 C 1072.67 -2.71935 2.38188 0
M  V30 11420 O 1072.39 -2.31768 3.71773 0
M  V30 11421 C 1073.9 -3.65536 2.50796 0
M  V30 11422 H 1071.12 -0.451682 0.49621 0
M  V30 11423 H 1073.66 -0.834723 1.86689 0
M  V30 11424 H 1071.81 -3.31409 2.00616 0
M  V30 11425 H 1072.23 -3.12579 4.21182 0
M  V30 11426 H 1073.7 -4.50113 3.19535 0
M  V30 11427 H 1074.18 -4.11148 1.54447 0
M  V30 11428 H 1074.79 -3.11957 2.89072 0
M  V30 11429 N 1073.1 -1.28322 -0.914942 0
M  V30 11430 C 1074.33 -1.18083 -1.69529 0
M  V30 11431 C 1074.74 0.263274 -1.87359 0
M  V30 11432 O 1074.08 1.18988 -1.39955 0
M  V30 11433 C 1074.14 -1.8062 -3.10832 0
M  V30 11434 C 1073.81 -3.29861 -3.16292 0
M  V30 11435 C 1074.8 -4.26313 -2.97578 0
M  V30 11436 C 1072.49 -3.70797 -3.38843 0
M  V30 11437 C 1074.48 -5.61677 -3.01326 0
M  V30 11438 C 1072.17 -5.06287 -3.42223 0
M  V30 11439 C 1073.17 -6.01537 -3.23485 0
M  V30 11440 O 1072.86 -7.34556 -3.26624 0
M  V30 11441 H 1072.59 -0.410931 -0.53676 0
M  V30 11442 H 1075.14 -1.6994 -1.15367 0
M  V30 11443 H 1073.37 -1.23255 -3.66531 0
M  V30 11444 H 1075.06 -1.64915 -3.70888 0
M  V30 11445 H 1075.83 -3.96023 -2.79984 0
M  V30 11446 H 1071.71 -2.97124 -3.52475 0
M  V30 11447 H 1075.25 -6.36 -2.86618 0
M  V30 11448 H 1071.15 -5.36228 -3.59346 0
M  V30 11449 H 1071.92 -7.43167 -3.42994 0
M  V30 11450 N 1074.58 1.12322 -1.10551 0
M  V30 11451 C 1075.53 2.18087 -0.755424 0
M  V30 11452 C 1076.5 1.6391 0.268805 0
M  V30 11453 O 1077.68 1.90227 0.147813 0
M  V30 11454 C 1074.82 3.4455 -0.194713 0
M  V30 11455 C 1073.93 4.12775 -1.27439 0
M  V30 11456 C 1073.07 5.26891 -0.675194 0
M  V30 11457 C 1072.11 5.86985 -1.73536 0
M  V30 11458 N 1071.24 6.92512 -1.15635 0
M  V30 11459 H 1076.08 2.47379 -1.66155 0
M  V30 11460 H 1073.62 1.21452 -0.829924 0
M  V30 11461 H 1075.58 4.16936 0.148275 0
M  V30 11462 H 1074.21 3.15671 0.674638 0
M  V30 11463 H 1073.26 3.38556 -1.73448 0
M  V30 11464 H 1074.57 4.53506 -2.07687 0
M  V30 11465 H 1073.73 6.06046 -0.281723 0
M  V30 11466 H 1072.47 4.87442 0.158708 0
M  V30 11467 H 1071.47 5.06517 -2.13825 0
M  V30 11468 H 1072.7 6.28505 -2.57213 0
M  V30 11469 H 1070.64 6.55098 -0.343928 0
M  V30 11470 H 1070.56 7.31848 -1.89565 0
M  V30 11471 H 1071.83 7.75492 -0.789463 0
M  V30 11472 N 1076.06 0.894434 1.2976 0
M  V30 11473 C 1077.47 0.589778 1.48303 0
M  V30 11474 C 1077.67 -0.870085 1.81746 0
M  V30 11475 O 1076.73 -1.65065 1.91076 0
M  V30 11476 C 1078.04 1.51107 2.59975 0
M  V30 11477 C 1079.59 1.51571 2.73853 0
M  V30 11478 C 1080.06 2.42316 3.88648 0
M  V30 11479 N 1081.56 2.40333 3.95973 0
M  V30 11480 C 1082.29 3.07254 4.84131 0
M  V30 11481 N 1081.79 3.83435 5.77018 0
M  V30 11482 N 1083.58 2.96438 4.77578 0
M  V30 11483 H 1075.73 1.83871 1.06327 0
M  V30 11484 H 1077.99 0.78758 0.527657 0
M  V30 11485 H 1077.7 2.55097 2.42112 0
M  V30 11486 H 1077.57 1.22767 3.56662 0
M  V30 11487 H 1079.96 0.483277 2.91116 0
M  V30 11488 H 1080.04 1.83946 1.77757 0
M  V30 11489 H 1079.69 3.4565 3.72141 0
M  V30 11490 H 1079.62 2.07252 4.84101 0
M  V30 11491 H 1082.11 1.84979 3.29532 0
M  V30 11492 H 1082.42 4.31565 6.4107 0
M  V30 11493 H 1080.76 3.87542 5.7692 0
M  V30 11494 H 1083.96 2.36442 4.03996 0
M  V30 11495 H 1084.13 3.48867 5.46073 0
M  V30 11496 N 1077.53 -1.43282 0.656365 0
M  V30 11497 C 1078.48 -2.30776 -0.0333155 0
M  V30 11498 C 1079.45 -1.44928 -0.811493 0
M  V30 11499 O 1080.64 -1.73792 -0.787465 0
M  V30 11500 C 1077.78 -3.30548 -0.991566 0
M  V30 11501 C 1076.89 -4.31493 -0.209159 0
M  V30 11502 C 1076.02 -5.18346 -1.16149 0
M  V30 11503 C 1075.06 -6.10983 -0.369699 0
M  V30 11504 N 1074.2 -6.90449 -1.27378 0
M  V30 11505 H 1079.04 -2.89204 0.718668 0
M  V30 11506 H 1076.58 -1.4247 0.366161 0
M  V30 11507 H 1078.54 -3.86905 -1.56078 0
M  V30 11508 H 1077.17 -2.73762 -1.71039 0
M  V30 11509 H 1076.22 -3.77405 0.476394 0
M  V30 11510 H 1077.53 -4.97142 0.406394 0
M  V30 11511 H 1076.68 -5.79345 -1.80124 0
M  V30 11512 H 1075.42 -4.52831 -1.81095 0
M  V30 11513 H 1074.43 -5.49069 0.283377 0
M  V30 11514 H 1075.65 -6.78541 0.275399 0
M  V30 11515 H 1073.6 -6.27579 -1.90999 0
M  V30 11516 H 1073.52 -7.52631 -0.71287 0
M  V30 11517 H 1074.78 -7.5595 -1.90158 0
M  V30 11518 N 1079.01 -0.398486 -1.52479 0
M  V30 11519 C 1080.29 0.238776 -1.94137 0
M  V30 11520 C 1080.67 1.63558 -1.33462 0
M  V30 11521 O 1080.02 2.22821 -0.506272 0
M  V30 11522 C 1080.23 0.255863 -3.48061 0
M  V30 11523 C 1081.58 0.480376 -4.21874 0
M  V30 11524 O 1082.6 0.335679 -3.54615 0
M  V30 11525 O 1081.46 0.764654 -5.41124 0
M  V30 11526 H 1078.55 0.150806 -0.813134 0
M  V30 11527 H 1081.1 -0.453659 -1.63524 0
M  V30 11528 H 1079.87 -0.722171 -3.84578 0
M  V30 11529 H 1079.49 0.99284 -3.85004 0
M  V30 11530 N 1080.49 1.57075 -0.12858 0
M  V30 11531 C 1081.74 1.9581 0.527868 0
M  V30 11532 C 1082.07 1.01253 1.65715 0
M  V30 11533 O 1081.35 0.0514853 1.94432 0
M  V30 11534 C 1081.63 3.44406 1.05151 0
M  V30 11535 C 1081.48 4.49737 -0.0750113 0
M  V30 11536 C 1082.8 3.95069 1.9393 0
M  V30 11537 H 1079.92 0.711978 0.19041 0
M  V30 11538 H 1082.56 1.88879 -0.206081 0
M  V30 11539 H 1080.71 3.50443 1.67697 0
M  V30 11540 H 1082.38 4.55793 -0.710685 0
M  V30 11541 H 1080.63 4.27497 -0.736809 0
M  V30 11542 H 1081.3 5.50996 0.332779 0
M  V30 11543 H 1083.77 3.91395 1.41241 0
M  V30 11544 H 1082.65 4.99542 2.27484 0
M  V30 11545 H 1082.91 3.36329 2.86941 0
M  V30 11546 N 1081.97 -0.145205 1.5693 0
M  V30 11547 C 1083.21 -0.863709 1.85255 0
M  V30 11548 C 1083.57 -1.78266 0.713112 0
M  V30 11549 O 1084.77 -2.54075 0.877459 0
M  V30 11550 C 1083.05 -1.61628 3.18765 0
M  V30 11551 S 1084.6 -2.37996 3.68651 0
M  V30 11552 H 1081.42 -0.288792 0.649708 0
M  V30 11553 H 1084.02 -0.123603 1.95109 0
M  V30 11554 H 1082.73 -0.932688 3.99661 0
M  V30 11555 H 1082.26 -2.39726 3.11921 0
M  V30 11556 H 1084.27 -3.63223 3.38058 0
M  V30 11557 N 1083.45 -1.52049 -0.414609 0
M  V30 11558 C 1084.69 -1.67041 -1.16056 0
M  V30 11559 C 1085.05 -0.392768 -1.88348 0
M  V30 11560 O 1084.34 0.612547 -1.81545 0
M  V30 11561 C 1084.54 -2.82735 -2.18622 0
M  V30 11562 C 1084.36 -4.21627 -1.564 0
M  V30 11563 C 1083.13 -4.87234 -1.33907 0
M  V30 11564 C 1085.33 -5.03924 -1.02785 0
M  V30 11565 N 1083.31 -6.10175 -0.67521 0
M  V30 11566 C 1084.69 -6.18056 -0.490589 0
M  V30 11567 C 1086.74 -4.89293 -0.921791 0
M  V30 11568 C 1085.44 -7.19159 0.14234 0
M  V30 11569 C 1087.47 -5.90625 -0.302724 0
M  V30 11570 C 1086.83 -7.04044 0.223891 0
M  V30 11571 H 1082.93 -0.664947 -0.411544 0
M  V30 11572 H 1085.51 -1.89339 -0.453743 0
M  V30 11573 H 1083.69 -2.62062 -2.86668 0
M  V30 11574 H 1085.42 -2.86792 -2.85539 0
M  V30 11575 H 1082.17 -4.45499 -1.60709 0
M  V30 11576 H 1082.6 -6.76042 -0.360062 0
M  V30 11577 H 1087.24 -4.01838 -1.31477 0
M  V30 11578 H 1084.96 -8.06244 0.547392 0
M  V30 11579 H 1088.54 -5.81375 -0.222252 0
M  V30 11580 H 1087.42 -7.81111 0.695377 0
M  V30 11581 N 1084.93 0.6715 -1.42579 0
M  V30 11582 C 1085.86 1.79693 -1.49107 0
M  V30 11583 C 1086.84 1.66516 -0.347338 0
M  V30 11584 O 1088.02 1.85887 -0.562094 0
M  V30 11585 C 1085.15 3.1801 -1.39596 0
M  V30 11586 C 1084.11 3.45926 -2.5203 0
M  V30 11587 C 1083.43 4.83852 -2.27577 0
M  V30 11588 C 1084.73 3.4249 -3.94333 0
M  V30 11589 H 1086.43 1.74486 -2.433 0
M  V30 11590 H 1083.97 0.838042 -1.17102 0
M  V30 11591 H 1085.92 3.96478 -1.42771 0
M  V30 11592 H 1084.65 3.23901 -0.418989 0
M  V30 11593 H 1083.31 2.6982 -2.48178 0
M  V30 11594 H 1082.96 4.86398 -1.28165 0
M  V30 11595 H 1082.66 5.03493 -3.02934 0
M  V30 11596 H 1084.18 5.646 -2.32506 0
M  V30 11597 H 1085.59 4.10922 -3.9977 0
M  V30 11598 H 1083.99 3.73666 -4.69568 0
M  V30 11599 H 1085.06 2.41002 -4.20768 0
M  V30 11600 N 1086.4 1.28806 0.908124 0
M  V30 11601 C 1087.35 1.13083 2.03261 0
M  V30 11602 C 1088.35 0.0486094 1.6933 0
M  V30 11603 O 1089.55 0.207794 1.78797 0
M  V30 11604 H 1085.93 0.349057 0.666081 0
M  V30 11605 H 1087.9 2.08304 2.13663 0
M  V30 11606 C 1086.65 0.815339 3.38005 0
M  V30 11607 H 1085.97 1.64007 3.64612 0
M  V30 11608 H 1087.41 0.745311 4.17398 0
M  V30 11609 C 1085.87 -0.48113 3.33447 0
M  V30 11610 O 1086.4 -1.50974 3.7225 0
M  V30 11611 N 1084.6 -0.483912 2.86543 0
M  V30 11612 H 1084.15 0.353593 2.55162 0
M  V30 11613 H 1084.11 -1.35138 2.83875 0
M  V30 11614 N 1087.88 -1.11734 1.11145 0
M  V30 11615 C 1089.13 -1.83874 0.86959 0
M  V30 11616 C 1089.48 -1.82859 -0.598363 0
M  V30 11617 O 1088.78 -1.26849 -1.43596 0
M  V30 11618 C 1088.97 -3.3046 1.36129 0
M  V30 11619 C 1088.8 -3.45752 2.87551 0
M  V30 11620 C 1087.57 -3.58956 3.55638 0
M  V30 11621 C 1089.77 -3.40296 3.85621 0
M  V30 11622 N 1087.75 -3.62688 4.95309 0
M  V30 11623 C 1089.12 -3.50611 5.11343 0
M  V30 11624 C 1091.17 -3.23808 3.78223 0
M  V30 11625 C 1089.88 -3.46138 6.3054 0
M  V30 11626 C 1091.9 -3.20651 4.96927 0
M  V30 11627 C 1091.27 -3.31534 6.21502 0
M  V30 11628 H 1087.36 -0.688226 0.371306 0
M  V30 11629 H 1089.95 -1.33715 1.41522 0
M  V30 11630 H 1088.12 -3.79144 0.842885 0
M  V30 11631 H 1089.85 -3.90493 1.0629 0
M  V30 11632 H 1086.61 -3.61387 3.06098 0
M  V30 11633 H 1087.03 -3.68199 5.68118 0
M  V30 11634 H 1091.67 -3.14282 2.8282 0
M  V30 11635 H 1089.39 -3.54433 7.26225 0
M  V30 11636 H 1092.98 -3.09064 4.9292 0
M  V30 11637 H 1091.86 -3.29076 7.11814 0
M  V30 11638 N 1089.36 -0.901303 -1.29284 0
M  V30 11639 C 1090.58 -0.542823 -2.0017 0
M  V30 11640 C 1091.01 0.865583 -1.67001 0
M  V30 11641 O 1090.37 1.5764 -0.895502 0
M  V30 11642 C 1090.42 -0.743987 -3.52842 0
M  V30 11643 O 1089.52 0.202771 -4.11901 0
M  V30 11644 H 1088.86 -0.211903 -0.62928 0
M  V30 11645 H 1091.39 -1.21333 -1.64741 0
M  V30 11646 H 1091.4 -0.64926 -4.02801 0
M  V30 11647 H 1090.08 -1.77077 -3.7632 0
M  V30 11648 H 1088.65 0.0603637 -3.72851 0
M  V30 11649 N 1090.84 1.42931 -0.663954 0
M  V30 11650 C 1091.79 2.32577 0.03287 0
M  V30 11651 C 1092.78 1.49217 0.801918 0
M  V30 11652 O 1093.99 1.65358 0.711106 0
M  V30 11653 H 1090.36 0.751424 0.0294198 0
M  V30 11654 H 1092.33 2.89059 -0.740763 0
M  V30 11655 C 1091.08 3.33661 0.978025 0
M  V30 11656 H 1090.4 3.97837 0.395681 0
M  V30 11657 H 1091.84 3.98997 1.43448 0
M  V30 11658 C 1090.3 2.65085 2.07922 0
M  V30 11659 O 1090.83 2.4745 3.16435 0
M  V30 11660 N 1089.04 2.24285 1.84783 0
M  V30 11661 H 1088.59 2.38827 0.965368 0
M  V30 11662 H 1088.54 1.78732 2.58655 0
M  V30 11663 N 1092.32 0.406567 1.52266 0
M  V30 11664 C 1093.56 -0.169717 2.01386 0
M  V30 11665 C 1093.88 -1.45864 1.29417 0
M  V30 11666 O 1093.15 -1.9136 0.419327 0
M  V30 11667 H 1091.73 -0.0657075 0.744105 0
M  V30 11668 H 1094.4 0.542221 1.87206 0
M  V30 11669 H 1093.49 -0.367659 3.09927 0
M  V30 11670 N 1093.79 -1.57004 0.136909 0
M  V30 11671 C 1095.02 -2.00587 -0.527209 0
M  V30 11672 C 1095.44 -1.01628 -1.58283 0
M  V30 11673 O 1094.8 0.00946934 -1.81298 0
M  V30 11674 C 1094.85 -3.42967 -1.11384 0
M  V30 11675 O 1093.95 -3.46973 -2.22898 0
M  V30 11676 H 1093.3 -0.651155 -0.129976 0
M  V30 11677 H 1095.83 -2.03296 0.230667 0
M  V30 11678 H 1095.84 -3.81555 -1.44499 0
M  V30 11679 H 1094.51 -4.14502 -0.340736 0
M  V30 11680 H 1093.09 -3.20219 -1.91087 0
M  V30 11681 N 1095.27 0.136881 -1.57004 0
M  V30 11682 C 1096.22 1.16869 -1.99023 0
M  V30 11683 C 1097.19 1.42137 -0.859435 0
M  V30 11684 O 1098.37 1.54303 -1.12229 0
M  V30 11685 C 1095.51 2.49466 -2.38455 0
M  V30 11686 C 1094.63 2.31286 -3.64871 0
M  V30 11687 C 1093.76 3.56989 -3.9336 0
M  V30 11688 C 1092.8 3.33889 -5.13015 0
M  V30 11689 N 1091.94 4.51748 -5.37464 0
M  V30 11690 H 1096.78 0.803366 -2.86967 0
M  V30 11691 H 1094.32 0.385216 -1.41967 0
M  V30 11692 H 1096.27 3.26794 -2.59348 0
M  V30 11693 H 1094.9 2.83926 -1.53577 0
M  V30 11694 H 1093.96 1.44962 -3.51696 0
M  V30 11695 H 1095.27 2.10183 -4.52355 0
M  V30 11696 H 1094.42 4.42742 -4.14806 0
M  V30 11697 H 1093.16 3.81106 -3.04318 0
M  V30 11698 H 1092.17 2.46525 -4.91432 0
M  V30 11699 H 1093.39 3.1116 -6.03619 0
M  V30 11700 H 1091.34 4.76019 -4.51377 0
M  V30 11701 H 1091.25 4.33684 -6.19237 0
M  V30 11702 H 1092.52 5.38686 -5.63416 0
M  V30 11703 N 1096.75 1.52266 0.40654 0
M  V30 11704 C 1098.16 1.58587 0.985241 0
M  V30 11705 C 1098.51 0.427955 1.91476 0
M  V30 11706 O 1097.64 -0.451341 2.11641 0
M  V30 11707 C 1098.23 2.87426 1.79365 0
M  V30 11708 C 1096.79 2.96217 2.32233 0
M  V30 11709 C 1095.94 2.53548 1.12288 0
M  V30 11710 H 1098.89 1.57598 0.186685 0
M  V30 11711 H 1098.91 2.72925 2.65127 0
M  V30 11712 H 1098.42 3.71682 1.11687 0
M  V30 11713 H 1096.52 2.1646 3.03275 0
M  V30 11714 H 1096.64 4.00511 2.62922 0
M  V30 11715 H 1095 2.07457 1.47763 0
M  V30 11716 H 1095.78 3.40181 0.461731 0
M  V30 11717 N 1098.23 -0.663929 1.42933 0
M  V30 11718 C 1099.16 -1.78899 1.50058 0
M  V30 11719 C 1100.14 -1.66329 0.356164 0
M  V30 11720 O 1101.32 -1.85587 0.571944 0
M  V30 11721 C 1098.45 -3.17265 1.41281 0
M  V30 11722 C 1097.41 -3.44584 2.53861 0
M  V30 11723 C 1096.73 -4.82638 2.3014 0
M  V30 11724 C 1098.03 -3.40394 3.96143 0
M  V30 11725 H 1099.73 -1.73194 2.44222 0
M  V30 11726 H 1097.27 -0.83182 1.17545 0
M  V30 11727 H 1099.23 -3.95715 1.44872 0
M  V30 11728 H 1097.95 -3.23675 0.43616 0
M  V30 11729 H 1096.61 -2.685 2.49606 0
M  V30 11730 H 1096.26 -4.85711 1.30743 0
M  V30 11731 H 1095.96 -5.01879 3.056 0
M  V30 11732 H 1097.48 -5.63359 2.35497 0
M  V30 11733 H 1098.9 -4.08796 4.01943 0
M  V30 11734 H 1097.29 -3.7117 4.71543 0
M  V30 11735 H 1098.36 -2.38767 4.22041 0
M  V30 11736 N 1099.71 -1.29285 -0.901281 0
M  V30 11737 C 1100.64 -1.16832 -2.0217 0
M  V30 11738 C 1101.62 -0.0629265 -1.69984 0
M  V30 11739 O 1102.8 -0.242123 -1.92685 0
M  V30 11740 C 1099.93 -0.842406 -3.36929 0
M  V30 11741 C 1098.89 -1.90394 -3.8332 0
M  V30 11742 C 1098.21 -1.43138 -5.15185 0
M  V30 11743 C 1099.51 -3.31254 -4.03817 0
M  V30 11744 H 1101.21 -2.10562 -2.12847 0
M  V30 11745 H 1098.75 -1.01375 -1.0227 0
M  V30 11746 H 1100.71 -0.741999 -4.14816 0
M  V30 11747 H 1099.43 0.130598 -3.26339 0
M  V30 11748 H 1098.09 -1.99371 -3.07647 0
M  V30 11749 H 1097.74 -0.447091 -5.01009 0
M  V30 11750 H 1097.44 -2.14129 -5.47195 0
M  V30 11751 H 1098.96 -1.34444 -5.95615 0
M  V30 11752 H 1100.37 -3.25129 -4.72191 0
M  V30 11753 H 1098.77 -4.00189 -4.47178 0
M  V30 11754 H 1099.84 -3.74349 -3.08206 0
M  V30 11755 N 1101.18 1.11143 -1.11736 0
M  V30 11756 C 1102.15 2.15456 -0.78174 0
M  V30 11757 C 1103.15 1.59547 0.200383 0
M  V30 11758 O 1104.34 1.74183 -0.0244893 0
M  V30 11759 C 1101.47 3.40523 -0.160364 0
M  V30 11760 H 1102.66 2.46658 -1.70586 0
M  V30 11761 H 1100.22 1.26381 -0.919644 0
M  V30 11762 H 1100.95 3.14932 0.773835 0
M  V30 11763 H 1100.74 3.82386 -0.867378 0
M  V30 11764 H 1102.23 4.17559 0.0582175 0
M  V30 11765 N 1102.66 0.908147 1.28804 0
M  V30 11766 C 1103.91 0.538404 1.95211 0
M  V30 11767 C 1104.24 -0.916886 1.71533 0
M  V30 11768 O 1103.49 -1.66643 1.02609 0
M  V30 11769 C 1103.79 0.787327 3.4862 0
M  V30 11770 C 1103.46 2.22129 3.92389 0
M  V30 11771 C 1102.12 2.61336 4.04051 0
M  V30 11772 C 1104.47 3.15471 4.14883 0
M  V30 11773 C 1101.8 3.93048 4.3558 0
M  V30 11774 C 1104.15 4.46741 4.47889 0
M  V30 11775 C 1102.82 4.85809 4.57761 0
M  V30 11776 H 1102.09 0.197016 0.714329 0
M  V30 11777 H 1104.73 1.14841 1.53244 0
M  V30 11778 H 1103.04 0.0944731 3.91686 0
M  V30 11779 H 1104.73 0.480503 3.98111 0
M  V30 11780 H 1101.32 1.90704 3.83836 0
M  V30 11781 H 1105.51 2.86391 4.05332 0
M  V30 11782 H 1100.76 4.23027 4.41428 0
M  V30 11783 H 1104.94 5.19087 4.64243 0
M  V30 11784 H 1102.57 5.87904 4.81947 0
M  V30 11785 N 1104.14 -1.42577 0.671525 0
M  V30 11786 C 1105.39 -2.01882 0.192716 0
M  V30 11787 C 1105.72 -1.52959 -1.19654 0
M  V30 11788 O 1104.99 -0.730404 -1.80265 0
M  V30 11789 C 1105.28 -3.59404 0.223734 0
M  V30 11790 C 1105.13 -4.18514 1.64821 0
M  V30 11791 C 1106.45 -4.37996 -0.429858 0
M  V30 11792 H 1103.57 -0.733523 0.0715026 0
M  V30 11793 H 1106.21 -1.69641 0.855689 0
M  V30 11794 H 1104.36 -3.87003 -0.340776 0
M  V30 11795 H 1106.03 -4.01881 2.26472 0
M  V30 11796 H 1104.28 -3.74467 2.1899 0
M  V30 11797 H 1104.95 -5.27643 1.62162 0
M  V30 11798 H 1107.42 -4.16069 0.0506433 0
M  V30 11799 H 1106.3 -5.476 -0.377503 0
M  V30 11800 H 1106.56 -4.15625 -1.50693 0
M  V30 11801 N 1105.62 -0.414636 -1.52048 0
M  V30 11802 C 1106.86 0.159585 -2.02171 0
M  V30 11803 C 1107.2 1.44321 -1.29943 0
M  V30 11804 O 1106.47 1.90185 -0.407402 0
M  V30 11805 C 1106.76 0.401655 -3.57853 0
M  V30 11806 C 1106.61 -0.899026 -4.40724 0
M  V30 11807 C 1107.93 1.1814 -4.23947 0
M  V30 11808 H 1105.05 0.0565257 -0.734829 0
M  V30 11809 H 1107.69 -0.549183 -1.8189 0
M  V30 11810 H 1105.84 1.00541 -3.75265 0
M  V30 11811 H 1107.51 -1.53502 -4.35011 0
M  V30 11812 H 1105.75 -1.50877 -4.06717 0
M  V30 11813 H 1106.42 -0.683974 -5.47746 0
M  V30 11814 H 1108.9 0.670203 -4.10667 0
M  V30 11815 H 1107.78 1.31953 -5.32804 0
M  V30 11816 H 1108.04 2.2035 -3.83273 0
M  V30 11817 N 1107.1 1.56929 -0.145233 0
M  V30 11818 C 1108.51 1.82877 0.375884 0
M  V30 11819 C 1108.86 1.06384 1.64854 0
M  V30 11820 O 1107.98 0.30857 2.14189 0
M  V30 11821 C 1108.58 3.31725 0.688744 0
M  V30 11822 C 1107.14 3.58261 1.15439 0
M  V30 11823 C 1106.28 2.76737 0.176565 0
M  V30 11824 H 1109.24 1.54328 -0.36996 0
M  V30 11825 H 1109.26 3.47784 1.54359 0
M  V30 11826 H 1108.77 3.87371 -0.237694 0
M  V30 11827 H 1106.87 3.08 2.09683 0
M  V30 11828 H 1106.98 4.66732 1.08158 0
M  V30 11829 H 1105.35 2.45761 0.668843 0
M  V30 11830 H 1106.13 3.35154 -0.743432 0
M  V30 11831 N 1108.58 -0.128553 1.57075 0
M  V30 11832 C 1109.54 -1.14215 1.98715 0
M  V30 11833 C 1110.54 -1.34843 0.876019 0
M  V30 11834 O 1111.73 -1.31522 1.14227 0
M  V30 11835 C 1108.86 -2.49865 2.31905 0
M  V30 11836 H 1110.05 -0.784481 2.89458 0
M  V30 11837 H 1107.61 -0.372531 1.51796 0
M  V30 11838 H 1108.34 -2.9057 1.44012 0
M  V30 11839 H 1108.13 -2.3625 3.12935 0
M  V30 11840 H 1109.62 -3.22832 2.64895 0
M  V30 11841 N 1110.05 -1.5248 -0.398459 0
M  V30 11842 C 1110.98 -1.79549 -1.49279 0
M  V30 11843 C 1111.96 -0.647004 -1.57315 0
M  V30 11844 O 1113.15 -0.893661 -1.72416 0
M  V30 11845 C 1110.28 -1.95582 -2.86993 0
M  V30 11846 C 1109.23 -3.1123 -2.93803 0
M  V30 11847 C 1108.56 -3.12501 -4.33874 0
M  V30 11848 C 1109.86 -4.50485 -2.64312 0
M  V30 11849 H 1111.55 -2.71187 -1.26877 0
M  V30 11850 H 1109.1 -1.30492 -0.608924 0
M  V30 11851 H 1111.05 -2.13102 -3.63546 0
M  V30 11852 H 1109.78 -1.00625 -3.10712 0
M  V30 11853 H 1108.44 -2.93477 -2.19697 0
M  V30 11854 H 1108.08 -2.15245 -4.54619 0
M  V30 11855 H 1107.78 -3.90183 -4.39353 0
M  V30 11856 H 1109.31 -3.32164 -5.12347 0
M  V30 11857 H 1110.72 -4.68387 -3.30585 0
M  V30 11858 H 1109.12 -5.30163 -2.81153 0
M  V30 11859 H 1110.19 -4.57848 -1.59696 0
M  V30 11860 N 1111.53 0.65634 -1.43283 0
M  V30 11861 C 1112.49 1.75117 -1.47874 0
M  V30 11862 C 1113.49 1.56629 -0.363846 0
M  V30 11863 O 1114.68 1.62584 -0.625464 0
M  V30 11864 C 1111.82 3.13957 -1.32831 0
M  V30 11865 H 1113.01 1.72429 -2.45374 0
M  V30 11866 H 1110.56 0.867704 -1.30002 0
M  V30 11867 H 1111.3 3.22259 -0.36326 0
M  V30 11868 H 1111.08 3.28781 -2.13649 0
M  V30 11869 H 1112.57 3.93799 -1.38969 0
M  V30 11870 N 1113.01 1.29761 0.894412 0
M  V30 11871 C 1114.26 1.17409 1.64006 0
M  V30 11872 C 1114.57 -0.272355 1.93695 0
M  V30 11873 O 1115.78 -0.517269 2.66527 0
M  V30 11874 C 1114.23 2.05379 2.95546 0
M  V30 11875 C 1113.84 3.54878 2.73433 0
M  V30 11876 C 1115.59 2.01765 3.73485 0
M  V30 11877 C 1113.49 4.34935 4.00731 0
M  V30 11878 H 1112.42 0.43583 0.615279 0
M  V30 11879 H 1115.07 1.5444 0.990983 0
M  V30 11880 H 1113.46 1.61222 3.61695 0
M  V30 11881 H 1114.63 4.07122 2.15844 0
M  V30 11882 H 1112.94 3.60218 2.08882 0
M  V30 11883 H 1115.54 2.58835 4.67877 0
M  V30 11884 H 1115.88 0.998876 4.04139 0
M  V30 11885 H 1116.42 2.43994 3.14184 0
M  V30 11886 H 1113.16 5.3747 3.75241 0
M  V30 11887 H 1112.68 3.87458 4.5786 0
M  V30 11888 H 1114.36 4.45875 4.68833 0
M  V30 11889 N 1114.49 -1.10549 1.12324 0
M  V30 11890 C 1115.73 -1.82755 0.879117 0
M  V30 11891 C 1116.07 -1.84905 -0.593604 0
M  V30 11892 O 1115.34 -1.30884 -1.43873 0
M  V30 11893 C 1115.62 -3.29481 1.45308 0
M  V30 11894 C 1115.48 -3.3567 2.99408 0
M  V30 11895 C 1116.8 -4.25828 1.11167 0
M  V30 11896 H 1113.92 -0.663513 0.32081 0
M  V30 11897 H 1116.56 -1.29572 1.38965 0
M  V30 11898 H 1114.71 -3.74902 1.01887 0
M  V30 11899 H 1116.38 -2.98739 3.515 0
M  V30 11900 H 1114.62 -2.75606 3.34998 0
M  V30 11901 H 1115.29 -4.38983 3.34661 0
M  V30 11902 H 1117.77 -3.88635 1.48667 0
M  V30 11903 H 1116.65 -5.26857 1.53991 0
M  V30 11904 H 1116.91 -4.42094 0.0237046 0
M  V30 11905 N 1115.97 -0.914965 -1.28321 0
M  V30 11906 C 1116.93 -0.409024 -2.25521 0
M  V30 11907 C 1117.93 0.465327 -1.5392 0
M  V30 11908 O 1119.12 0.26821 -1.72123 0
M  V30 11909 C 1116.25 0.413452 -3.38383 0
M  V30 11910 H 1117.44 -1.26767 -2.71791 0
M  V30 11911 H 1115 -0.694477 -1.40024 0
M  V30 11912 H 1115.73 1.29145 -2.97476 0
M  V30 11913 H 1115.52 -0.213268 -3.9152 0
M  V30 11914 H 1117.01 0.758232 -4.10659 0
M  V30 11915 N 1117.44 1.42219 -0.679077 0
M  V30 11916 C 1118.69 2.01777 -0.20342 0
M  V30 11917 C 1119.02 1.53592 1.18841 0
M  V30 11918 O 1118.3 0.739954 1.79875 0
M  V30 11919 C 1118.58 3.59281 -0.242791 0
M  V30 11920 C 1118.43 4.17634 -1.67038 0
M  V30 11921 C 1119.75 4.38218 0.406624 0
M  V30 11922 H 1116.87 0.733134 -0.0753916 0
M  V30 11923 H 1119.51 1.69185 -0.864673 0
M  V30 11924 H 1117.66 3.87178 0.320248 0
M  V30 11925 H 1119.34 4.00674 -2.286 0
M  V30 11926 H 1117.58 3.73301 -2.20973 0
M  V30 11927 H 1118.25 5.26776 -1.64958 0
M  V30 11928 H 1120.73 4.16036 -0.0727077 0
M  V30 11929 H 1119.6 5.47793 0.348457 0
M  V30 11930 H 1119.86 4.16418 1.48487 0
M  V30 11931 N 1118.92 0.422693 1.51826 0
M  V30 11932 C 1119.87 -0.41063 2.28947 0
M  V30 11933 C 1120.86 -1.03389 1.34191 0
M  V30 11934 O 1122.07 -0.970533 1.51594 0
M  V30 11935 H 1118.44 -0.151219 0.736639 0
M  V30 11936 H 1120.42 0.260859 2.97258 0
M  V30 11937 C 1119.16 -1.50758 3.13317 0
M  V30 11938 H 1118.49 -1.03734 3.86108 0
M  V30 11939 H 1119.93 -2.0642 3.7036 0
M  V30 11940 C 1118.39 -2.48261 2.27746 0
M  V30 11941 O 1118.92 -3.52462 1.92701 0
M  V30 11942 N 1117.12 -2.18795 1.91251 0
M  V30 11943 H 1116.67 -1.34088 2.1995 0
M  V30 11944 H 1116.63 -2.84276 1.34293 0
M  V30 11945 N 1120.4 -1.5685 0.153553 0
M  V30 11946 C 1121.65 -1.96334 -0.495915 0
M  V30 11947 C 1121.97 -1.03873 -1.64441 0
M  V30 11948 O 1121.23 -0.069231 -1.95578 0
M  V30 11949 C 1121.53 -3.42022 -1.0371 0
M  V30 11950 C 1121.19 -4.509 -0.00637049 0
M  V30 11951 C 1119.86 -4.80402 0.276956 0
M  V30 11952 C 1122.21 -5.16556 0.694187 0
M  V30 11953 C 1119.54 -5.72866 1.26653 0
M  V30 11954 C 1121.89 -6.10087 1.67263 0
M  V30 11955 C 1120.55 -6.37965 1.96359 0
M  V30 11956 H 1119.82 -0.718436 -0.181468 0
M  V30 11957 H 1122.47 -1.89968 0.241768 0
M  V30 11958 H 1120.77 -3.45252 -1.85225 0
M  V30 11959 H 1122.47 -3.69903 -1.54831 0
M  V30 11960 H 1119.06 -4.27942 -0.237378 0
M  V30 11961 H 1123.25 -4.9389 0.488496 0
M  V30 11962 H 1118.5 -5.92756 1.49833 0
M  V30 11963 H 1122.68 -6.60036 2.22094 0
M  V30 11964 H 1120.3 -7.09416 2.73189 0
M  V30 11965 N 1121.88 0.120221 -1.57141 0
M  V30 11966 C 1123.12 0.829449 -1.85062 0
M  V30 11967 C 1123.46 1.79585 -0.739116 0
M  V30 11968 O 1122.73 1.92819 0.255147 0
M  V30 11969 C 1123.01 1.58042 -3.23566 0
M  V30 11970 C 1122.87 0.633706 -4.45314 0
M  V30 11971 C 1124.19 2.53688 -3.59625 0
M  V30 11972 H 1121.31 0.300086 -0.67314 0
M  V30 11973 H 1123.95 0.0937393 -1.89769 0
M  V30 11974 H 1122.1 2.20758 -3.19684 0
M  V30 11975 H 1123.77 0.0154836 -4.61297 0
M  V30 11976 H 1122.01 -0.054846 -4.33765 0
M  V30 11977 H 1122.68 1.19577 -5.38893 0
M  V30 11978 H 1125.16 2.01078 -3.6429 0
M  V30 11979 H 1124.04 3.03265 -4.57516 0
M  V30 11980 H 1124.3 3.36296 -2.8698 0
M  V30 11981 N 1123.36 1.52689 0.390367 0
M  V30 11982 C 1124.6 1.67914 1.13722 0
M  V30 11983 C 1124.94 0.417159 1.89667 0
M  V30 11984 O 1124.21 -0.585005 1.85494 0
M  V30 11985 C 1124.49 2.91331 2.11656 0
M  V30 11986 C 1124.35 4.27626 1.39484 0
M  V30 11987 C 1125.67 3.10293 3.12099 0
M  V30 11988 H 1122.78 0.611047 0.412057 0
M  V30 11989 H 1125.43 1.85283 0.420753 0
M  V30 11990 H 1123.58 2.76654 2.72754 0
M  V30 11991 H 1125.25 4.54068 0.813607 0
M  V30 11992 H 1123.49 4.28169 0.69669 0
M  V30 11993 H 1124.16 5.10066 2.11038 0
M  V30 11994 H 1126.64 3.23992 2.6109 0
M  V30 11995 H 1125.51 3.98127 3.7787 0
M  V30 11996 H 1125.78 2.24448 3.80888 0
M  V30 11997 N 1124.83 -0.648732 1.43629 0
M  V30 11998 C 1126.08 -1.41066 1.45699 0
M  V30 11999 C 1126.41 -1.94024 0.082612 0
M  V30 12000 O 1125.69 -1.7257 -0.897207 0
M  V30 12001 C 1125.97 -2.58882 2.50304 0
M  V30 12002 C 1125.82 -2.11387 3.97033 0
M  V30 12003 C 1127.14 -3.61092 2.51597 0
M  V30 12004 H 1124.26 -0.511591 0.530512 0
M  V30 12005 H 1126.9 -0.735069 1.75205 0
M  V30 12006 H 1125.05 -3.16518 2.25274 0
M  V30 12007 H 1126.73 -1.58718 4.33136 0
M  V30 12008 H 1124.97 -1.4272 4.0965 0
M  V30 12009 H 1125.64 -2.96129 4.65845 0
M  V30 12010 H 1128.12 -3.13223 2.73917 0
M  V30 12011 H 1126.99 -4.41071 3.26722 0
M  V30 12012 H 1127.25 -4.13985 1.55141 0
M  V30 12013 N 1126.31 -1.30234 -0.887518 0
M  V30 12014 C 1127.24 -1.18969 -2.00919 0
M  V30 12015 C 1128.22 -0.080952 -1.69907 0
M  V30 12016 O 1129.41 -0.262546 -1.92417 0
M  V30 12017 C 1126.54 -0.878094 -3.36016 0
M  V30 12018 C 1125.49 -1.94449 -3.81279 0
M  V30 12019 C 1124.82 -1.48594 -5.13638 0
M  V30 12020 C 1126.12 -3.35519 -4.00281 0
M  V30 12021 H 1127.81 -2.12808 -2.10602 0
M  V30 12022 H 1125.36 -1.02454 -1.01189 0
M  V30 12023 H 1127.31 -0.785954 -4.14006 0
M  V30 12024 H 1126.04 0.0959779 -3.26459 0
M  V30 12025 H 1124.69 -2.02622 -3.05516 0
M  V30 12026 H 1124.34 -0.500204 -5.00507 0
M  V30 12027 H 1124.04 -2.19921 -5.44893 0
M  V30 12028 H 1125.57 -1.40754 -5.94156 0
M  V30 12029 H 1126.98 -3.30119 -4.68716 0
M  V30 12030 H 1125.38 -4.0491 -4.42909 0
M  V30 12031 H 1126.45 -3.77597 -3.04218 0
M  V30 12032 N 1127.79 1.09952 -1.12909 0
M  V30 12033 C 1128.72 2.18477 -0.824014 0
M  V30 12034 C 1129.7 1.68744 0.214324 0
M  V30 12035 O 1130.89 1.94057 0.0744281 0
M  V30 12036 C 1128.02 3.46143 -0.283308 0
M  V30 12037 C 1126.97 4.09178 -1.25528 0
M  V30 12038 C 1126.3 5.31604 -0.574574 0
M  V30 12039 C 1127.6 4.52308 -2.6118 0
M  V30 12040 H 1129.29 2.44254 -1.73148 0
M  V30 12041 H 1126.84 1.17394 -0.833952 0
M  V30 12042 H 1128.79 4.21361 -0.057583 0
M  V30 12043 H 1127.51 3.19872 0.659525 0
M  V30 12044 H 1126.17 3.35973 -1.4669 0
M  V30 12045 H 1125.82 5.01611 0.37356 0
M  V30 12046 H 1125.52 5.74732 -1.22299 0
M  V30 12047 H 1127.04 6.0955 -0.358004 0
M  V30 12048 H 1128.46 5.18776 -2.44017 0
M  V30 12049 H 1126.86 5.06302 -3.22147 0
M  V30 12050 H 1127.93 3.64977 -3.19249 0
M  V30 12051 N 1129.27 0.921757 1.27833 0
M  V30 12052 C 1130.51 0.559906 1.94918 0
M  V30 12053 C 1130.85 -0.895532 1.72319 0
M  V30 12054 O 1130.12 -1.638 1.04879 0
M  V30 12055 C 1130.41 0.879458 3.49196 0
M  V30 12056 C 1130.26 2.38821 3.81162 0
M  V30 12057 C 1131.58 0.381183 4.38446 0
M  V30 12058 H 1128.7 0.204893 0.707946 0
M  V30 12059 H 1131.34 1.15246 1.51058 0
M  V30 12060 H 1129.49 0.375177 3.86684 0
M  V30 12061 H 1131.16 2.96373 3.53498 0
M  V30 12062 H 1129.4 2.83988 3.27923 0
M  V30 12063 H 1130.07 2.56234 4.88926 0
M  V30 12064 H 1132.55 0.813289 4.08075 0
M  V30 12065 H 1131.43 0.633778 5.45229 0
M  V30 12066 H 1131.69 -0.718651 4.3622 0
M  V30 12067 N 1130.75 -1.41857 0.686609 0
M  V30 12068 C 1131.68 -2.33481 0.0298353 0
M  V30 12069 C 1132.66 -1.51329 -0.776756 0
M  V30 12070 O 1133.84 -1.79895 -0.731535 0
M  V30 12071 C 1130.97 -3.35065 -0.913707 0
M  V30 12072 C 1129.93 -4.2746 -0.214861 0
M  V30 12073 C 1129.25 -5.19346 -1.27215 0
M  V30 12074 C 1130.55 -5.14252 0.913367 0
M  V30 12075 H 1132.25 -2.8865 0.795067 0
M  V30 12076 H 1129.79 -1.38792 0.383785 0
M  V30 12077 H 1131.75 -3.98082 -1.38234 0
M  V30 12078 H 1130.47 -2.78226 -1.7105 0
M  V30 12079 H 1129.13 -3.65855 0.233651 0
M  V30 12080 H 1128.78 -4.58827 -2.06124 0
M  V30 12081 H 1128.48 -5.81996 -0.80961 0
M  V30 12082 H 1130 -5.85239 -1.74147 0
M  V30 12083 H 1131.41 -5.70887 0.525424 0
M  V30 12084 H 1129.81 -5.85796 1.30244 0
M  V30 12085 H 1130.88 -4.51949 1.75699 0
M  V30 12086 N 1132.22 -0.430739 -1.51599 0
M  V30 12087 C 1133.45 0.136797 -2.06447 0
M  V30 12088 C 1133.87 1.37027 -1.29881 0
M  V30 12089 O 1133.22 1.78983 -0.356543 0
M  V30 12090 C 1133.28 0.465637 -3.58489 0
M  V30 12091 O 1133 -0.718873 -4.32162 0
M  V30 12092 C 1134.5 1.08456 -4.29828 0
M  V30 12093 H 1131.72 0.0108468 -0.670912 0
M  V30 12094 H 1134.26 -0.607921 -1.95255 0
M  V30 12095 H 1132.42 1.16025 -3.69617 0
M  V30 12096 H 1132.83 -0.439195 -5.22658 0
M  V30 12097 H 1134.3 1.2647 -5.37317 0
M  V30 12098 H 1134.78 2.06376 -3.87693 0
M  V30 12099 H 1135.39 0.429525 -4.23125 0
M  V30 12100 N 1133.7 1.56767 -0.161869 0
M  V30 12101 C 1134.65 2.17502 0.772102 0
M  V30 12102 C 1135.62 1.11223 1.23364 0
M  V30 12103 O 1136.8 1.39332 1.30351 0
M  V30 12104 C 1133.94 2.81248 1.99984 0
M  V30 12105 C 1133.06 4.01962 1.58274 0
M  V30 12106 C 1132.19 4.53662 2.76341 0
M  V30 12107 C 1131.23 5.66807 2.31076 0
M  V30 12108 N 1130.37 6.13059 3.42203 0
M  V30 12109 H 1135.21 2.96971 0.247382 0
M  V30 12110 H 1132.75 1.46685 0.110382 0
M  V30 12111 H 1134.7 3.16359 2.7198 0
M  V30 12112 H 1133.33 2.04398 2.49842 0
M  V30 12113 H 1132.39 3.72733 0.759874 0
M  V30 12114 H 1133.7 4.83891 1.2104 0
M  V30 12115 H 1132.85 4.90905 3.56507 0
M  V30 12116 H 1131.59 3.7077 3.16829 0
M  V30 12117 H 1130.6 5.29125 1.49354 0
M  V30 12118 H 1131.82 6.51494 1.91657 0
M  V30 12119 H 1129.77 5.33099 3.82285 0
M  V30 12120 H 1129.68 6.89953 3.09033 0
M  V30 12121 H 1130.95 6.54951 4.22682 0
M  V30 12122 N 1135.18 -0.111886 1.57202 0
M  V30 12123 C 1136.11 -1.13796 2.03894 0
M  V30 12124 C 1137.09 -1.4277 0.924696 0
M  V30 12125 O 1138.28 -1.53089 1.19488 0
M  V30 12126 C 1135.41 -2.46229 2.44925 0
M  V30 12127 C 1134.36 -2.31702 3.59859 0
M  V30 12128 C 1133.69 -3.69161 3.86813 0
M  V30 12129 C 1134.99 -1.77158 4.91337 0
M  V30 12130 H 1136.68 -0.749581 2.89865 0
M  V30 12131 H 1134.23 -0.359126 1.3945 0
M  V30 12132 H 1136.18 -3.18267 2.76195 0
M  V30 12133 H 1134.9 -2.86971 1.55933 0
M  V30 12134 H 1133.56 -1.62112 3.28809 0
M  V30 12135 H 1133.21 -4.07401 2.95015 0
M  V30 12136 H 1132.91 -3.60292 4.6418 0
M  V30 12137 H 1134.43 -4.42693 4.20542 0
M  V30 12138 H 1135.85 -2.3902 5.21097 0
M  V30 12139 H 1134.25 -1.79091 5.72753 0
M  V30 12140 H 1135.32 -0.729675 4.79379 0
M  V30 12141 N 1136.66 -1.52894 -0.382264 0
M  V30 12142 C 1137.9 -1.69465 -1.12486 0
M  V30 12143 C 1138.26 -0.432631 -1.87473 0
M  V30 12144 O 1137.55 0.573901 -1.82803 0
M  V30 12145 C 1137.75 -2.87309 -2.12576 0
M  V30 12146 C 1137.58 -4.24849 -1.47421 0
M  V30 12147 C 1136.35 -4.89965 -1.23542 0
M  V30 12148 C 1138.54 -5.05991 -0.920733 0
M  V30 12149 N 1136.53 -6.1147 -0.545631 0
M  V30 12150 C 1137.9 -6.18958 -0.359379 0
M  V30 12151 C 1139.95 -4.91138 -0.817797 0
M  V30 12152 C 1138.65 -7.18695 0.294853 0
M  V30 12153 C 1140.68 -5.91134 -0.177375 0
M  V30 12154 C 1140.04 -7.03411 0.373179 0
M  V30 12155 H 1136.14 -0.673527 -0.397347 0
M  V30 12156 H 1138.73 -1.90259 -0.413479 0
M  V30 12157 H 1136.9 -2.68083 -2.81044 0
M  V30 12158 H 1138.63 -2.92784 -2.79392 0
M  V30 12159 H 1135.38 -4.48808 -1.51223 0
M  V30 12160 H 1135.81 -6.76653 -0.216582 0
M  V30 12161 H 1140.45 -4.04536 -1.22924 0
M  V30 12162 H 1138.17 -8.04901 0.718285 0
M  V30 12163 H 1141.75 -5.81716 -0.0988833 0
M  V30 12164 H 1140.63 -7.7946 0.860905 0
M  V30 12165 N 1138.14 0.641106 -1.43971 0
M  V30 12166 C 1139.55 0.958161 -1.27638 0
M  V30 12167 C 1139.75 2.00456 -0.204885 0
M  V30 12168 O 1138.81 2.49106 0.412606 0
M  V30 12169 C 1140.12 1.43091 -2.64472 0
M  V30 12170 C 1141.67 1.54692 -2.72102 0
M  V30 12171 C 1142.15 2.05353 -4.09382 0
M  V30 12172 N 1143.64 2.12638 -4.11509 0
M  V30 12173 C 1144.37 2.52987 -5.14573 0
M  V30 12174 N 1143.87 2.92544 -6.28005 0
M  V30 12175 N 1145.66 2.53033 -5.01927 0
M  V30 12176 H 1137.81 -0.0510973 -2.12339 0
M  V30 12177 H 1140.07 0.039748 -0.947166 0
M  V30 12178 H 1139.78 0.736389 -3.43904 0
M  V30 12179 H 1139.65 2.40375 -2.90688 0
M  V30 12180 H 1142.04 2.23242 -1.92994 0
M  V30 12181 H 1142.12 0.558083 -2.49638 0
M  V30 12182 H 1141.77 1.37401 -4.88962 0
M  V30 12183 H 1141.7 3.0509 -4.29218 0
M  V30 12184 H 1144.19 1.84792 -3.29636 0
M  V30 12185 H 1144.5 3.22116 -7.02468 0
M  V30 12186 H 1142.85 2.90319 -6.31458 0
M  V30 12187 H 1146.04 2.21514 -4.1237 0
M  V30 12188 H 1146.21 2.84155 -5.82375 0
M  V30 12189 N 1139.62 1.30703 0.880598 0
M  V30 12190 C 1141.03 1.17818 1.4483 0
M  V30 12191 C 1141.38 -0.219456 1.94969 0
M  V30 12192 O 1140.5 -1.11646 1.85375 0
M  V30 12193 C 1141.1 2.13275 2.63247 0
M  V30 12194 C 1139.66 2.04356 3.16094 0
M  V30 12195 C 1138.8 2.03108 1.88792 0
M  V30 12196 H 1141.75 1.42909 0.690125 0
M  V30 12197 H 1141.78 1.71615 3.39601 0
M  V30 12198 H 1141.29 3.14988 2.26725 0
M  V30 12199 H 1139.39 1.058 3.57263 0
M  V30 12200 H 1139.5 2.92953 3.79098 0
M  V30 12201 H 1137.87 1.47971 2.07308 0
M  V30 12202 H 1138.65 3.06558 1.54521 0
M  V30 12203 N 1141.09 -1.09351 1.1349 0
M  V30 12204 C 1142.32 -1.85304 0.920324 0
M  V30 12205 C 1142.74 -1.81182 -0.530883 0
M  V30 12206 O 1142.09 -1.20853 -1.36751 0
M  V30 12207 C 1142.14 -3.33249 1.40098 0
M  V30 12208 O 1141.87 -3.37333 2.79531 0
M  V30 12209 C 1143.37 -4.2604 1.22495 0
M  V30 12210 H 1140.59 -0.585294 0.328134 0
M  V30 12211 H 1143.13 -1.38168 1.50765 0
M  V30 12212 H 1141.29 -3.7781 0.85664 0
M  V30 12213 H 1141.7 -4.29614 3.00885 0
M  V30 12214 H 1143.17 -5.27999 1.61 0
M  V30 12215 H 1143.65 -4.38883 0.166717 0
M  V30 12216 H 1144.26 -3.87295 1.75735 0
M  V30 12217 N 1142.57 -0.928524 -1.27343 0
M  V30 12218 C 1143.82 -0.570235 -1.94618 0
M  V30 12219 C 1144.15 0.886381 -1.72792 0
M  V30 12220 O 1143.43 1.63242 -1.05747 0
M  V30 12221 C 1143.71 -0.897964 -3.48724 0
M  V30 12222 C 1143.56 -2.40839 -3.7989 0
M  V30 12223 C 1144.88 -0.404429 -4.38238 0
M  V30 12224 H 1142 -0.208645 -0.70685 0
M  V30 12225 H 1144.64 -1.16045 -1.50444 0
M  V30 12226 H 1142.79 -0.395679 -3.8648 0
M  V30 12227 H 1144.46 -2.98243 -3.51921 0
M  V30 12228 H 1142.71 -2.85723 -3.26412 0
M  V30 12229 H 1143.38 -2.58823 -4.8756 0
M  V30 12230 H 1145.85 -0.834918 -4.07637 0
M  V30 12231 H 1144.73 -0.662684 -5.44885 0
M  V30 12232 H 1144.99 0.695507 -4.36595 0
M  V30 12233 N 1144.05 1.41491 -0.694123 0
M  V30 12234 C 1145.3 2.00854 -0.224033 0
M  V30 12235 C 1145.62 1.55246 1.17999 0
M  V30 12236 O 1144.89 0.782452 1.79595 0
M  V30 12237 H 1143.47 0.742721 -0.0798368 0
M  V30 12238 H 1146.13 1.73137 -0.894958 0
M  V30 12239 H 1145.23 3.11173 -0.240332 0
M  V30 12240 N 1145.53 0.438773 1.51369 0
M  V30 12241 C 1146.44 -0.378074 2.31534 0
M  V30 12242 C 1147.45 -1.02632 1.40508 0
M  V30 12243 O 1148.63 -1.02138 1.73579 0
M  V30 12244 C 1145.69 -1.46374 3.14286 0
M  V30 12245 C 1144.76 -0.835473 4.21092 0
M  V30 12246 C 1143.99 -1.86941 4.99889 0
M  V30 12247 O 1144.21 -3.0918 4.79337 0
M  V30 12248 O 1143.15 -1.45914 5.83946 0
M  V30 12249 H 1146.97 0.276401 3.0244 0
M  V30 12250 H 1144.56 0.201281 1.48038 0
M  V30 12251 H 1146.44 -2.09335 3.65728 0
M  V30 12252 H 1145.11 -2.10227 2.46143 0
M  V30 12253 H 1144.02 -0.167775 3.73724 0
M  V30 12254 H 1145.35 -0.240406 4.91613 0
M  V30 12255 N 1147.01 -1.56678 0.170181 0
M  V30 12256 C 1148.42 -1.58512 -0.185999 0
M  V30 12257 C 1148.62 -1.18548 -1.62937 0
M  V30 12258 O 1147.68 -0.896554 -2.36047 0
M  V30 12259 C 1148.99 -3.00554 0.0937842 0
M  V30 12260 C 1150.54 -3.12984 0.0319057 0
M  V30 12261 C 1151.01 -4.57115 0.284664 0
M  V30 12262 N 1152.5 -4.62617 0.2324 0
M  V30 12263 C 1153.24 -5.71988 0.40216 0
M  V30 12264 N 1152.74 -6.89921 0.630915 0
M  V30 12265 N 1154.53 -5.61082 0.338144 0
M  V30 12266 H 1146.68 -1.80944 1.11235 0
M  V30 12267 H 1148.94 -0.838586 0.442128 0
M  V30 12268 H 1148.65 -3.34265 1.09362 0
M  V30 12269 H 1148.52 -3.72151 -0.615118 0
M  V30 12270 H 1150.91 -2.791 -0.958502 0
M  V30 12271 H 1150.99 -2.43825 0.773501 0
M  V30 12272 H 1150.63 -4.91707 1.27227 0
M  V30 12273 H 1150.56 -5.2443 -0.477529 0
M  V30 12274 H 1153.06 -3.7785 0.0611933 0
M  V30 12275 H 1153.37 -7.69153 0.749931 0
M  V30 12276 H 1151.71 -6.91787 0.667516 0
M  V30 12277 H 1154.9 -4.67826 0.16003 0
M  V30 12278 H 1155.08 -6.46265 0.473872 0
M  V30 12279 N 1148.48 0.103547 -1.57259 0
M  V30 12280 C 1149.41 1.12714 -2.04494 0
M  V30 12281 C 1150.39 1.42278 -0.932255 0
M  V30 12282 O 1151.58 1.52453 -1.20298 0
M  V30 12283 C 1148.71 2.44927 -2.46228 0
M  V30 12284 C 1147.66 2.2979 -3.61082 0
M  V30 12285 C 1146.99 3.67105 -3.88765 0
M  V30 12286 C 1148.29 1.7455 -4.9227 0
M  V30 12287 H 1149.98 0.734198 -2.90258 0
M  V30 12288 H 1147.53 0.351725 -1.39638 0
M  V30 12289 H 1149.48 3.16798 -2.77879 0
M  V30 12290 H 1148.21 2.8614 -1.57453 0
M  V30 12291 H 1146.87 1.60366 -3.29664 0
M  V30 12292 H 1146.51 4.05831 -2.97171 0
M  V30 12293 H 1146.21 3.57825 -4.66084 0
M  V30 12294 H 1147.74 4.40456 -4.22884 0
M  V30 12295 H 1149.15 2.36253 -5.22358 0
M  V30 12296 H 1147.55 1.76051 -5.73695 0
M  V30 12297 H 1148.62 0.704242 -4.79759 0
M  V30 12298 N 1149.96 1.53094 0.37415 0
M  V30 12299 C 1151.19 1.73061 1.143 0
M  V30 12300 C 1151.61 0.454611 1.82524 0
M  V30 12301 O 1150.97 -0.590743 1.71406 0
M  V30 12302 C 1151.02 2.89086 2.15549 0
M  V30 12303 O 1150.12 2.57096 3.22452 0
M  V30 12304 H 1149.46 0.575009 0.332055 0
M  V30 12305 H 1151.99 1.99946 0.433897 0
M  V30 12306 H 1152 3.15007 2.59296 0
M  V30 12307 H 1150.68 3.81647 1.65283 0
M  V30 12308 H 1149.25 2.41965 2.83738 0
M  V30 12309 N 1151.44 -0.633461 1.44309 0
M  V30 12310 C 1152.86 -0.951379 1.28144 0
M  V30 12311 C 1153.06 -2.00344 0.215512 0
M  V30 12312 O 1152.11 -2.49321 -0.399389 0
M  V30 12313 C 1153.42 -1.41686 2.65227 0
M  V30 12314 C 1154.97 -1.53247 2.72918 0
M  V30 12315 C 1155.45 -2.03179 4.10466 0
M  V30 12316 N 1156.94 -2.10453 4.1263 0
M  V30 12317 C 1157.67 -2.50254 5.15907 0
M  V30 12318 N 1157.17 -2.89209 6.29547 0
M  V30 12319 N 1158.96 -2.50368 5.03262 0
M  V30 12320 H 1151.11 0.0623574 2.12308 0
M  V30 12321 H 1153.38 -0.0347244 0.947364 0
M  V30 12322 H 1153.08 -0.71814 3.4429 0
M  V30 12323 H 1152.96 -2.3883 2.91959 0
M  V30 12324 H 1155.34 -2.22216 1.94176 0
M  V30 12325 H 1155.42 -0.544836 2.4993 0
M  V30 12326 H 1155.07 -1.34806 4.89683 0
M  V30 12327 H 1155 -3.02809 4.3083 0
M  V30 12328 H 1157.49 -1.83042 3.30612 0
M  V30 12329 H 1157.8 -3.18386 7.04166 0
M  V30 12330 H 1156.15 -2.86966 6.32989 0
M  V30 12331 H 1159.34 -2.19324 4.13539 0
M  V30 12332 H 1159.51 -2.81062 5.83873 0
M  V30 12333 N 1152.92 -1.31168 -0.873655 0
M  V30 12334 C 1154.2 -1.11285 -1.60857 0
M  V30 12335 C 1154.58 0.333788 -2.08444 0
M  V30 12336 O 1153.92 1.32726 -1.86 0
M  V30 12337 C 1154.13 -2.12379 -2.7694 0
M  V30 12338 C 1155.48 -2.44704 -3.46994 0
M  V30 12339 O 1156.51 -2.10778 -2.87143 0
M  V30 12340 O 1155.36 -3.02786 -4.54954 0
M  V30 12341 H 1152.46 -0.428177 -0.707526 0
M  V30 12342 H 1155 -1.42634 -0.91944 0
M  V30 12343 H 1153.78 -3.09703 -2.39164 0
M  V30 12344 H 1153.4 -1.81914 -3.53544 0
M  V30 12345 N 1154.4 1.08748 -1.14068 0
M  V30 12346 C 1155.67 1.7769 -0.81766 0
M  V30 12347 C 1156.05 1.99522 0.689501 0
M  V30 12348 O 1155.4 1.60222 1.62914 0
M  V30 12349 C 1155.61 3.09517 -1.61245 0
M  V30 12350 C 1156.96 3.84108 -1.80958 0
M  V30 12351 O 1157.98 3.19289 -1.57902 0
M  V30 12352 O 1156.84 5.00491 -2.19479 0
M  V30 12353 H 1153.94 0.770953 -0.299265 0
M  V30 12354 H 1156.48 1.15242 -1.24569 0
M  V30 12355 H 1155.25 2.89155 -2.63638 0
M  V30 12356 H 1154.88 3.79692 -1.17982 0
M  V30 12357 N 1155.87 0.935264 1.26849 0
M  V30 12358 C 1156.82 0.438896 2.26588 0
M  V30 12359 C 1157.79 -0.498267 1.5845 0
M  V30 12360 O 1158.98 -0.415771 1.86215 0
M  V30 12361 C 1156.12 -0.295293 3.43834 0
M  V30 12362 C 1155.23 0.676857 4.26665 0
M  V30 12363 C 1154.36 -0.0779349 5.31143 0
M  V30 12364 C 1153.4 0.886425 6.05648 0
M  V30 12365 N 1152.54 0.163771 7.01909 0
M  V30 12366 H 1157.38 1.29439 2.6842 0
M  V30 12367 H 1154.92 0.649523 1.31983 0
M  V30 12368 H 1156.88 -0.737354 4.10632 0
M  V30 12369 H 1155.51 -1.11497 3.02933 0
M  V30 12370 H 1154.56 1.23744 3.5971 0
M  V30 12371 H 1155.87 1.41355 4.78351 0
M  V30 12372 H 1155.02 -0.579557 6.03926 0
M  V30 12373 H 1153.76 -0.84755 4.80279 0
M  V30 12374 H 1152.77 1.39923 5.31697 0
M  V30 12375 H 1153.99 1.65595 6.58601 0
M  V30 12376 H 1151.94 -0.58746 6.53364 0
M  V30 12377 H 1151.86 0.839902 7.5132 0
M  V30 12378 H 1153.12 -0.316951 7.78855 0
M  V30 12379 N 1157.35 -1.41121 0.701616 0
M  V30 12380 C 1158.32 -2.29148 0.0490091 0
M  V30 12381 C 1159.32 -1.44679 -0.701763 0
M  V30 12382 O 1160.51 -1.65757 -0.53575 0
M  V30 12383 C 1157.64 -3.2766 -0.940837 0
M  V30 12384 H 1158.83 -2.88354 0.824133 0
M  V30 12385 H 1156.38 -1.49209 0.465457 0
M  V30 12386 H 1157.12 -2.73445 -1.74351 0
M  V30 12387 H 1156.9 -3.89997 -0.405551 0
M  V30 12388 H 1158.39 -3.93609 -1.39507 0
M  V30 12389 N 1158.83 -0.446794 -1.51134 0
M  V30 12390 C 1160.06 0.114893 -2.06581 0
M  V30 12391 C 1160.47 1.35642 -1.31327 0
M  V30 12392 O 1159.83 1.78595 -0.375506 0
M  V30 12393 C 1159.88 0.427589 -3.58962 0
M  V30 12394 O 1159.6 -0.764669 -4.31375 0
M  V30 12395 C 1161.1 1.03891 -4.30954 0
M  V30 12396 H 1158.32 0.00373031 -0.67099 0
M  V30 12397 H 1160.87 -0.628596 -1.94599 0
M  V30 12398 H 1159.02 1.12099 -3.70827 0
M  V30 12399 H 1159.44 -0.494605 -5.22163 0
M  V30 12400 H 1160.91 1.20764 -5.38628 0
M  V30 12401 H 1161.39 2.02252 -3.8986 0
M  V30 12402 H 1161.99 0.384623 -4.23557 0
M  V30 12403 N 1160.31 1.56586 -0.178487 0
M  V30 12404 C 1161.56 1.96273 0.464745 0
M  V30 12405 C 1161.87 1.0675 1.63902 0
M  V30 12406 O 1163.08 1.36148 2.34896 0
M  V30 12407 C 1161.53 3.49021 0.878207 0
M  V30 12408 C 1161.14 4.4718 -0.270861 0
M  V30 12409 C 1162.88 3.97512 1.48946 0
M  V30 12410 C 1160.79 5.91176 0.162632 0
M  V30 12411 H 1159.72 0.732834 0.177398 0
M  V30 12412 H 1162.37 1.81534 -0.267861 0
M  V30 12413 H 1160.75 3.59203 1.667 0
M  V30 12414 H 1161.93 4.48718 -1.04826 0
M  V30 12415 H 1160.24 4.08788 -0.792529 0
M  V30 12416 H 1162.84 5.02556 1.82595 0
M  V30 12417 H 1163.18 3.40861 2.38997 0
M  V30 12418 H 1163.72 3.90376 0.76496 0
M  V30 12419 H 1160.46 6.51716 -0.703286 0
M  V30 12420 H 1159.98 5.9293 0.905243 0
M  V30 12421 H 1161.65 6.44174 0.604084 0
M  V30 12422 N 1161.79 -0.095206 1.57312 0
M  V30 12423 C 1163.04 -0.797417 1.85268 0
M  V30 12424 C 1163.35 -1.79903 0.767733 0
M  V30 12425 O 1164.55 -2.54914 0.934409 0
M  V30 12426 C 1163.01 -1.469 3.28555 0
M  V30 12427 C 1162.62 -0.507152 4.4512 0
M  V30 12428 C 1164.36 -2.15494 3.65735 0
M  V30 12429 C 1162.27 -1.18331 5.79441 0
M  V30 12430 H 1161.2 -0.301552 0.691074 0
M  V30 12431 H 1163.85 -0.0503584 1.83431 0
M  V30 12432 H 1162.23 -2.26351 3.24933 0
M  V30 12433 H 1163.41 0.255858 4.60089 0
M  V30 12434 H 1161.72 0.0730882 4.16336 0
M  V30 12435 H 1164.32 -2.66816 4.63371 0
M  V30 12436 H 1164.66 -2.94383 2.94354 0
M  V30 12437 H 1165.19 -1.42903 3.71246 0
M  V30 12438 H 1161.93 -0.435238 6.54053 0
M  V30 12439 H 1161.45 -1.91775 5.68315 0
M  V30 12440 H 1163.13 -1.70983 6.23998 0
M  V30 12441 N 1163.26 -1.53291 -0.366026 0
M  V30 12442 C 1164.68 -1.43053 -0.707669 0
M  V30 12443 C 1164.88 -0.56925 -1.93292 0
M  V30 12444 O 1163.94 -0.0515214 -2.52447 0
M  V30 12445 C 1165.25 -2.86239 -0.921292 0
M  V30 12446 C 1166.8 -2.95868 -1.02133 0
M  V30 12447 C 1167.27 -4.40114 -1.26743 0
M  V30 12448 N 1168.76 -4.43541 -1.33514 0
M  V30 12449 C 1169.5 -5.52259 -1.54264 0
M  V30 12450 N 1168.99 -6.71024 -1.72335 0
M  V30 12451 N 1170.79 -5.39836 -1.5663 0
M  V30 12452 H 1162.94 -2.07795 0.43988 0
M  V30 12453 H 1165.2 -0.938376 0.134736 0
M  V30 12454 H 1164.91 -3.51578 -0.0928042 0
M  V30 12455 H 1164.78 -3.29862 -1.82951 0
M  V30 12456 H 1167.17 -2.30683 -1.84036 0
M  V30 12457 H 1167.25 -2.5564 -0.0905097 0
M  V30 12458 H 1166.89 -5.05872 -0.453409 0
M  V30 12459 H 1166.82 -4.77914 -2.21146 0
M  V30 12460 H 1169.31 -3.57949 -1.21165 0
M  V30 12461 H 1169.63 -7.49649 -1.8774 0
M  V30 12462 H 1167.97 -6.7401 -1.69514 0
M  V30 12463 H 1171.16 -4.46017 -1.4208 0
M  V30 12464 H 1171.34 -6.24629 -1.72461 0
M  V30 12465 N 1164.74 0.6258 -1.44643 0
M  V30 12466 C 1165.99 1.3873 -1.47925 0
M  V30 12467 C 1166.32 1.93868 -0.113469 0
M  V30 12468 O 1165.6 1.73976 0.869639 0
M  V30 12469 C 1165.88 2.54867 -2.54391 0
M  V30 12470 C 1165.73 2.05044 -4.00346 0
M  V30 12471 C 1167.05 3.57043 -2.57309 0
M  V30 12472 H 1164.17 0.503087 -0.538584 0
M  V30 12473 H 1166.81 0.707102 -1.76352 0
M  V30 12474 H 1164.96 3.12894 -2.30281 0
M  V30 12475 H 1166.63 1.51807 -4.35606 0
M  V30 12476 H 1164.88 1.36185 -4.11869 0
M  V30 12477 H 1165.55 2.88681 -4.70497 0
M  V30 12478 H 1168.02 3.08826 -2.78865 0
M  V30 12479 H 1166.9 4.35818 -3.33698 0
M  V30 12480 H 1167.16 4.11464 -1.61708 0
M  V30 12481 N 1166.22 1.31629 0.866686 0
M  V30 12482 C 1167.47 1.21263 1.61678 0
M  V30 12483 C 1167.79 -0.228562 1.93656 0
M  V30 12484 O 1167.06 -1.15014 1.58583 0
M  V30 12485 H 1165.64 0.445817 0.59938 0
M  V30 12486 H 1168.3 1.64998 1.03739 0
M  V30 12487 H 1167.4 1.78669 2.55898 0
M  V30 12488 N 1167.7 -1.08142 1.14644 0
M  V30 12489 C 1168.65 -2.15133 0.835845 0
M  V30 12490 C 1169.62 -1.64795 -0.207785 0
M  V30 12491 O 1170.8 -1.90644 -0.07711 0
M  V30 12492 C 1167.94 -3.4359 0.322456 0
M  V30 12493 C 1167.05 -4.07761 1.42671 0
M  V30 12494 C 1166.19 -5.24022 0.870281 0
M  V30 12495 C 1165.23 -5.8014 1.95202 0
M  V30 12496 N 1164.37 -6.87743 1.41257 0
M  V30 12497 H 1169.21 -2.41042 1.75222 0
M  V30 12498 H 1166.74 -1.18288 0.874428 0
M  V30 12499 H 1168.7 -4.17199 0.00657059 0
M  V30 12500 H 1167.33 -3.17958 -0.557014 0
M  V30 12501 H 1166.38 -3.31885 1.85893 0
M  V30 12502 H 1167.69 -4.45485 2.24375 0
M  V30 12503 H 1166.85 -6.04582 0.506459 0
M  V30 12504 H 1165.59 -4.87695 0.0223118 0
M  V30 12505 H 1164.59 -4.98232 2.32476 0
M  V30 12506 H 1165.82 -6.18525 2.80363 0
M  V30 12507 H 1163.76 -6.5337 0.586826 0
M  V30 12508 H 1163.68 -7.24308 2.16596 0
M  V30 12509 H 1164.95 -7.72028 1.07674 0
M  V30 12510 N 1169.18 -0.941978 -1.26351 0
M  V30 12511 C 1170.4 -0.606231 -1.98342 0
M  V30 12512 C 1170.83 0.812014 -1.6967 0
M  V30 12513 O 1170.19 1.54712 -0.9452 0
M  V30 12514 C 1170.23 -0.855864 -3.50296 0
M  V30 12515 O 1169.34 0.0716251 -4.12338 0
M  V30 12516 H 1168.68 -0.231815 -0.62222 0
M  V30 12517 H 1171.21 -1.26513 -1.60797 0
M  V30 12518 H 1171.22 -0.777079 -4.00531 0
M  V30 12519 H 1169.89 -1.8896 -3.70496 0
M  V30 12520 H 1168.47 -0.0582866 -3.72854 0
M  V30 12521 N 1170.66 1.40747 -0.709091 0
M  V30 12522 C 1171.59 2.33404 -0.0669763 0
M  V30 12523 C 1172.57 1.52546 0.752582 0
M  V30 12524 O 1173.75 1.81036 0.702823 0
M  V30 12525 C 1170.88 3.36476 0.860285 0
M  V30 12526 C 1169.84 4.27748 0.146828 0
M  V30 12527 C 1169.16 5.21304 1.18937 0
M  V30 12528 C 1170.46 5.12734 -0.995064 0
M  V30 12529 H 1172.16 2.87349 -0.840888 0
M  V30 12530 H 1169.7 1.38163 -0.405817 0
M  V30 12531 H 1171.65 4.00231 1.31883 0
M  V30 12532 H 1170.38 2.80912 1.66602 0
M  V30 12533 H 1169.04 3.65437 -0.291826 0
M  V30 12534 H 1168.69 4.62048 1.98798 0
M  V30 12535 H 1168.39 5.8321 0.716917 0
M  V30 12536 H 1169.91 5.87936 1.64815 0
M  V30 12537 H 1171.32 5.69979 -0.61618 0
M  V30 12538 H 1169.72 5.83649 -1.39547 0
M  V30 12539 H 1170.79 4.49097 -1.82867 0
M  V30 12540 N 1172.13 0.454803 1.50895 0
M  V30 12541 C 1173.06 -0.337982 2.31041 0
M  V30 12542 C 1174.04 -1.00523 1.37219 0
M  V30 12543 O 1175.23 -1.00553 1.66141 0
M  V30 12544 C 1172.36 -1.42964 3.1651 0
M  V30 12545 C 1171.31 -0.884907 4.18752 0
M  V30 12546 C 1170.64 -2.07363 4.92854 0
M  V30 12547 C 1171.94 0.0926716 5.22218 0
M  V30 12548 H 1173.63 0.33089 2.97566 0
M  V30 12549 H 1171.18 0.160577 1.43102 0
M  V30 12550 H 1173.13 -1.9916 3.71367 0
M  V30 12551 H 1171.86 -2.12705 2.47839 0
M  V30 12552 H 1170.52 -0.345031 3.64973 0
M  V30 12553 H 1170.16 -2.75764 4.2067 0
M  V30 12554 H 1169.86 -1.71545 5.62002 0
M  V30 12555 H 1171.39 -2.6408 5.5054 0
M  V30 12556 H 1172.8 -0.379568 5.72042 0
M  V30 12557 H 1171.2 0.3643 5.98993 0
M  V30 12558 H 1172.27 1.02383 4.73968 0
M  V30 12559 N 1173.61 -1.56489 0.186789 0
M  V30 12560 C 1174.86 -1.96517 -0.45433 0
M  V30 12561 C 1175.17 -1.07618 -1.63333 0
M  V30 12562 O 1176.38 -1.37392 -2.3417 0
M  V30 12563 C 1174.84 -3.49482 -0.859685 0
M  V30 12564 C 1174.44 -4.47031 0.294572 0
M  V30 12565 C 1176.19 -3.98296 -1.46835 0
M  V30 12566 C 1174.09 -5.91254 -0.131279 0
M  V30 12567 H 1173.02 -0.733765 -0.17351 0
M  V30 12568 H 1175.68 -1.8139 0.277485 0
M  V30 12569 H 1174.06 -3.60082 -1.64793 0
M  V30 12570 H 1175.23 -4.48156 1.07205 0
M  V30 12571 H 1173.55 -4.08362 0.814197 0
M  V30 12572 H 1176.14 -5.03518 -1.79928 0
M  V30 12573 H 1176.49 -3.42123 -2.37186 0
M  V30 12574 H 1177.02 -3.90776 -0.744247 0
M  V30 12575 H 1173.76 -6.51334 0.737839 0
M  V30 12576 H 1173.28 -5.93401 -0.873786 0
M  V30 12577 H 1174.96 -6.44485 -0.569913 0
M  V30 12578 N 1175.09 0.086862 -1.5736 0
M  V30 12579 C 1176.02 1.10538 -2.05678 0
M  V30 12580 C 1177 1.41281 -0.947293 0
M  V30 12581 O 1178.19 1.51169 -1.21908 0
M  V30 12582 C 1175.32 2.42302 -2.48812 0
M  V30 12583 C 1174.27 2.25948 -3.63499 0
M  V30 12584 C 1173.6 3.62961 -3.92637 0
M  V30 12585 C 1174.9 1.69319 -4.94094 0
M  V30 12586 H 1176.59 0.703371 -2.91021 0
M  V30 12587 H 1174.14 0.336895 -1.40004 0
M  V30 12588 H 1176.09 3.13833 -2.81224 0
M  V30 12589 H 1174.81 2.84454 -1.60479 0
M  V30 12590 H 1173.47 1.5686 -3.31347 0
M  V30 12591 H 1173.12 4.02656 -3.01459 0
M  V30 12592 H 1172.82 3.52862 -4.69853 0
M  V30 12593 H 1174.34 4.35946 -4.27531 0
M  V30 12594 H 1175.76 2.30699 -5.24834 0
M  V30 12595 H 1174.15 1.69957 -5.7553 0
M  V30 12596 H 1175.22 0.653318 -4.80479 0
M  V30 12597 N 1176.57 1.53483 0.357892 0
M  V30 12598 C 1177.8 1.73956 1.12013 0
M  V30 12599 C 1178.21 0.472053 1.82803 0
M  V30 12600 O 1177.57 -0.555499 1.7384 0
M  V30 12601 C 1177.62 2.91015 2.14459 0
M  V30 12602 O 1177.34 4.12862 1.4655 0
M  V30 12603 C 1178.84 3.23423 3.0317 0
M  V30 12604 H 1176.06 0.58161 0.334621 0
M  V30 12605 H 1178.6 2.00256 0.414467 0
M  V30 12606 H 1176.76 2.67087 2.80612 0
M  V30 12607 H 1177.17 4.78468 2.14869 0
M  V30 12608 H 1178.65 4.08717 3.71018 0
M  V30 12609 H 1179.12 2.39114 3.68404 0
M  V30 12610 H 1179.73 3.49305 2.42624 0
M  V30 12611 N 1178.05 -0.61812 1.44973 0
M  V30 12612 C 1179.46 -1.19994 1.43033 0
M  V30 12613 C 1179.81 -1.95607 0.152422 0
M  V30 12614 O 1178.93 -2.03114 -0.746571 0
M  V30 12615 C 1179.53 -2.18269 2.59122 0
M  V30 12616 C 1178.09 -2.7185 2.60336 0
M  V30 12617 C 1177.23 -1.4707 2.35086 0
M  V30 12618 H 1180.18 -0.408034 1.53365 0
M  V30 12619 H 1180.21 -3.01113 2.32619 0
M  V30 12620 H 1179.72 -1.63208 3.52115 0
M  V30 12621 H 1177.82 -3.30878 1.7132 0
M  V30 12622 H 1177.93 -3.17001 3.59231 0
M  V30 12623 H 1176.3 -1.75658 1.84435 0
M  V30 12624 H 1177.08 -0.938928 3.30211 0
M  V30 12625 N 1179.52 -1.32087 -0.859693 0
M  V30 12626 C 1180.45 -1.23204 -1.98351 0
M  V30 12627 C 1181.43 -0.116974 -1.69697 0
M  V30 12628 O 1182.62 -0.303301 -1.91817 0
M  V30 12629 C 1179.75 -0.949171 -3.34078 0
M  V30 12630 C 1178.7 -2.02493 -3.77069 0
M  V30 12631 C 1178.03 -1.59455 -5.1037 0
M  V30 12632 C 1179.33 -3.43934 -3.93074 0
M  V30 12633 H 1181.02 -2.17227 -2.0604 0
M  V30 12634 H 1178.57 -1.04577 -0.989931 0
M  V30 12635 H 1180.52 -0.873594 -4.12245 0
M  V30 12636 H 1179.25 0.0267095 -3.26589 0
M  V30 12637 H 1177.91 -2.09057 -3.01149 0
M  V30 12638 H 1177.55 -0.606256 -4.99333 0
M  V30 12639 H 1177.25 -2.31429 -5.40106 0
M  V30 12640 H 1178.78 -1.53325 -5.91036 0
M  V30 12641 H 1180.19 -3.39986 -4.61608 0
M  V30 12642 H 1178.59 -4.14214 -4.3422 0
M  V30 12643 H 1179.66 -3.83965 -2.9614 0
M  V30 12644 N 1181 1.07532 -1.15215 0
M  V30 12645 C 1181.93 2.1668 -0.870171 0
M  V30 12646 C 1182.91 1.69161 0.178483 0
M  V30 12647 O 1184.1 1.94172 0.0332489 0
M  V30 12648 C 1181.23 3.45464 -0.356666 0
M  V30 12649 C 1180.18 4.06424 -1.34179 0
M  V30 12650 C 1179.51 5.30266 -0.687206 0
M  V30 12651 C 1180.81 4.46666 -2.70715 0
M  V30 12652 H 1182.5 2.40526 -1.7829 0
M  V30 12653 H 1180.05 1.15598 -0.858665 0
M  V30 12654 H 1182 4.21144 -0.146947 0
M  V30 12655 H 1180.72 3.21199 0.591527 0
M  V30 12656 H 1179.38 3.32786 -1.53783 0
M  V30 12657 H 1179.03 5.0229 0.267077 0
M  V30 12658 H 1178.73 5.72009 -1.34462 0
M  V30 12659 H 1180.26 6.08653 -0.487218 0
M  V30 12660 H 1181.67 5.13483 -2.54966 0
M  V30 12661 H 1180.07 4.99355 -3.32813 0
M  V30 12662 H 1181.14 3.58123 -3.26919 0
M  V30 12663 N 1182.48 0.948665 1.2585 0
M  V30 12664 C 1183.73 0.59905 1.93018 0
M  V30 12665 C 1184.05 -0.865813 1.74725 0
M  V30 12666 O 1183.32 -1.61602 1.10732 0
M  V30 12667 H 1181.9 0.218565 0.71431 0
M  V30 12668 H 1184.56 1.20561 1.53137 0
M  V30 12669 H 1183.66 0.823244 3.01047 0
M  V30 12670 N 1183.96 -1.40369 0.716545 0
M  V30 12671 C 1184.89 -2.33365 0.0793533 0
M  V30 12672 C 1185.87 -1.52943 -0.744482 0
M  V30 12673 O 1187.05 -1.81406 -0.693212 0
M  V30 12674 C 1184.18 -3.36928 -0.842429 0
M  V30 12675 C 1183.14 -4.2782 -0.124142 0
M  V30 12676 C 1182.46 -5.21928 -1.1617 0
M  V30 12677 C 1183.76 -5.12199 1.02224 0
M  V30 12678 H 1185.46 -2.86899 0.856115 0
M  V30 12679 H 1183 -1.37946 0.413138 0
M  V30 12680 H 1184.96 -4.00925 -1.29759 0
M  V30 12681 H 1183.68 -2.81791 -1.6511 0
M  V30 12682 H 1182.34 -3.65277 0.311201 0
M  V30 12683 H 1181.99 -4.63096 -1.96345 0
M  V30 12684 H 1181.69 -5.83582 -0.685978 0
M  V30 12685 H 1183.21 -5.88802 -1.61694 0
M  V30 12686 H 1184.63 -5.69644 0.646399 0
M  V30 12687 H 1183.02 -5.82901 1.4264 0
M  V30 12688 H 1184.09 -4.4812 1.85246 0
M  V30 12689 N 1185.44 -0.462799 -1.50652 0
M  V30 12690 C 1186.66 0.0929761 -2.06691 0
M  V30 12691 C 1187.08 1.34241 -1.32758 0
M  V30 12692 O 1186.44 1.78187 -0.394427 0
M  V30 12693 C 1186.49 0.389492 -3.59396 0
M  V30 12694 O 1186.21 -0.810379 -4.3054 0
M  V30 12695 C 1187.71 0.993147 -4.32032 0
M  V30 12696 H 1184.93 -0.00338664 -0.670991 0
M  V30 12697 H 1187.47 -0.649201 -1.93922 0
M  V30 12698 H 1185.63 1.08159 -3.71995 0
M  V30 12699 H 1186.04 -0.54996 -5.21609 0
M  V30 12700 H 1187.52 1.15044 -5.39878 0
M  V30 12701 H 1187.99 1.98106 -3.91983 0
M  V30 12702 H 1188.6 0.339677 -4.23941 0
M  V30 12703 N 1186.91 1.56388 -0.195085 0
M  V30 12704 C 1188.16 1.98634 0.437717 0
M  V30 12705 C 1188.52 1.07985 1.59239 0
M  V30 12706 O 1187.81 0.124261 1.91197 0
M  V30 12707 C 1188 3.44651 0.946051 0
M  V30 12708 C 1187.83 4.49423 -0.157828 0
M  V30 12709 C 1186.6 5.01538 -0.615457 0
M  V30 12710 C 1188.8 5.05132 -0.966773 0
M  V30 12711 N 1186.78 5.89974 -1.69716 0
M  V30 12712 C 1188.15 5.90238 -1.89788 0
M  V30 12713 C 1190.21 4.87565 -1.00919 0
M  V30 12714 C 1188.91 6.59655 -2.86788 0
M  V30 12715 C 1190.94 5.57722 -1.96724 0
M  V30 12716 C 1190.3 6.42574 -2.88579 0
M  V30 12717 H 1186.4 0.77152 0.127594 0
M  V30 12718 H 1188.98 1.92363 -0.300777 0
M  V30 12719 H 1187.15 3.51423 1.65399 0
M  V30 12720 H 1188.88 3.73863 1.54946 0
M  V30 12721 H 1185.64 4.73139 -0.208806 0
M  V30 12722 H 1186.06 6.38896 -2.23921 0
M  V30 12723 H 1190.71 4.2164 -0.313023 0
M  V30 12724 H 1188.42 7.24779 -3.57381 0
M  V30 12725 H 1192.01 5.46106 -2.00647 0
M  V30 12726 H 1190.89 6.95906 -3.61503 0
M  V30 12727 N 1188.39 -0.0785156 1.57404 0
M  V30 12728 C 1189.64 -0.777399 1.8655 0
M  V30 12729 C 1189.96 -1.78451 0.786142 0
M  V30 12730 O 1189.23 -1.95016 -0.185911 0
M  V30 12731 H 1187.81 -0.290097 0.688369 0
M  V30 12732 H 1190.47 -0.0562017 1.94819 0
M  V30 12733 H 1189.57 -1.29776 2.83839 0
M  V30 12734 N 1189.87 -1.5367 -0.349747 0
M  V30 12735 C 1191.12 -1.70618 -1.09068 0
M  V30 12736 C 1191.45 -0.466133 -1.88832 0
M  V30 12737 O 1190.7 0.552079 -1.87751 0
M  V30 12738 C 1191 -2.91753 -2.06434 0
M  V30 12739 C 1190.67 -4.27614 -1.43029 0
M  V30 12740 C 1189.33 -4.64555 -1.25466 0
M  V30 12741 C 1191.68 -5.12037 -0.972987 0
M  V30 12742 C 1189.01 -5.83543 -0.607807 0
M  V30 12743 C 1191.36 -6.31685 -0.340073 0
M  V30 12744 C 1190.02 -6.67327 -0.152069 0
M  V30 12745 H 1189.29 -0.624334 -0.399108 0
M  V30 12746 H 1191.94 -1.87879 -0.370657 0
M  V30 12747 H 1190.25 -2.6907 -2.84796 0
M  V30 12748 H 1191.94 -3.02059 -2.63744 0
M  V30 12749 H 1188.53 -3.98535 -1.57696 0
M  V30 12750 H 1192.72 -4.84035 -1.09655 0
M  V30 12751 H 1187.97 -6.09737 -0.450705 0
M  V30 12752 H 1192.15 -6.96396 0.0223973 0
M  V30 12753 H 1189.77 -7.59388 0.35121 0
M  V30 12754 N 1191.35 0.610423 -1.45298 0
M  V30 12755 C 1192.6 1.3668 -1.48872 0
M  V30 12756 C 1192.92 1.94562 -0.130686 0
M  V30 12757 O 1192.19 1.76996 0.839607 0
M  V30 12758 H 1190.77 0.507393 -0.548235 0
M  V30 12759 H 1193.43 0.716997 -1.81232 0
M  V30 12760 H 1192.53 2.18766 -2.22593 0
M  V30 12761 N 1192.83 1.32541 0.852676 0
M  V30 12762 C 1194.08 1.22567 1.60188 0
M  V30 12763 C 1194.39 -0.210594 1.94463 0
M  V30 12764 O 1195.59 -0.432214 2.68038 0
M  V30 12765 C 1194.05 2.14678 2.88862 0
M  V30 12766 C 1193.66 3.63398 2.62004 0
M  V30 12767 C 1195.4 2.13545 3.66877 0
M  V30 12768 C 1193.31 4.47464 3.86691 0
M  V30 12769 H 1192.24 0.455184 0.601102 0
M  V30 12770 H 1194.89 1.57515 0.941347 0
M  V30 12771 H 1193.27 1.72647 3.56383 0
M  V30 12772 H 1194.45 4.13783 2.02782 0
M  V30 12773 H 1192.76 3.66681 1.97316 0
M  V30 12774 H 1195.36 2.73589 4.59405 0
M  V30 12775 H 1195.7 1.12694 4.00756 0
M  V30 12776 H 1196.23 2.53866 3.06263 0
M  V30 12777 H 1192.97 5.49136 3.57952 0
M  V30 12778 H 1192.49 4.01829 4.45302 0
M  V30 12779 H 1194.17 4.60565 4.5441 0
M  V30 12780 N 1194.3 -1.0692 1.15784 0
M  V30 12781 C 1195.55 -1.79245 0.933581 0
M  V30 12782 C 1195.87 -1.87362 -0.540427 0
M  V30 12783 O 1195.14 -1.37769 -1.39271 0
M  V30 12784 H 1193.72 -0.663898 0.342416 0
M  V30 12785 H 1196.39 -1.29189 1.45932 0
M  V30 12786 H 1195.48 -2.81546 1.34679 0
M  V30 12787 N 1195.78 -0.955326 -1.25345 0
M  V30 12788 C 1197.01 -0.627693 -1.97149 0
M  V30 12789 C 1197.43 0.800349 -1.70997 0
M  V30 12790 O 1196.78 1.53545 -0.986417 0
M  V30 12791 C 1196.83 -0.877675 -3.50684 0
M  V30 12792 O 1196.55 -2.24957 -3.75934 0
M  V30 12793 C 1198.06 -0.562524 -4.39716 0
M  V30 12794 H 1195.28 -0.235269 -0.628402 0
M  V30 12795 H 1197.82 -1.27989 -1.59496 0
M  V30 12796 H 1195.97 -0.271878 -3.86445 0
M  V30 12797 H 1196.39 -2.32022 -4.70389 0
M  V30 12798 H 1197.86 -0.787972 -5.46347 0
M  V30 12799 H 1198.34 0.50293 -4.36311 0
M  V30 12800 H 1198.95 -1.14767 -4.09522 0
M  V30 12801 N 1197.26 1.39987 -0.723979 0
M  V30 12802 C 1198.51 1.99964 -0.26406 0
M  V30 12803 C 1198.82 1.58084 1.1519 0
M  V30 12804 O 1200.03 2.10819 1.71077 0
M  V30 12805 C 1198.49 3.57427 -0.421174 0
M  V30 12806 C 1198.09 4.08276 -1.84432 0
M  V30 12807 C 1199.84 4.24494 -0.0224734 0
M  V30 12808 C 1197.74 5.58272 -1.95157 0
M  V30 12809 H 1196.67 0.747995 -0.0949728 0
M  V30 12810 H 1199.33 1.60122 -0.896276 0
M  V30 12811 H 1197.71 3.95011 0.279762 0
M  V30 12812 H 1198.88 3.82051 -2.57631 0
M  V30 12813 H 1197.2 3.53834 -2.19523 0
M  V30 12814 H 1199.79 5.34637 -0.0817744 0
M  V30 12815 H 1200.14 4.03593 1.02069 0
M  V30 12816 H 1200.67 3.92046 -0.67416 0
M  V30 12817 H 1197.41 5.84038 -2.97623 0
M  V30 12818 H 1196.93 5.86335 -1.2638 0
M  V30 12819 H 1198.61 6.23509 -1.72759 0
M  V30 12820 N 1198.74 0.470782 1.50404 0
M  V30 12821 C 1199.99 -0.0844409 2.02624 0
M  V30 12822 C 1200.32 -1.39398 1.3521 0
M  V30 12823 O 1199.59 -1.88542 0.477707 0
M  V30 12824 C 1199.88 -0.268563 3.59097 0
M  V30 12825 C 1199.73 1.06198 4.37084 0
M  V30 12826 C 1201.05 -1.02324 4.28039 0
M  V30 12827 H 1198.17 -0.0292141 0.736421 0
M  V30 12828 H 1200.81 0.616312 1.79726 0
M  V30 12829 H 1198.96 -0.865441 3.78738 0
M  V30 12830 H 1200.63 1.69541 4.29015 0
M  V30 12831 H 1198.87 1.65868 4.00837 0
M  V30 12832 H 1199.55 0.886795 5.4483 0
M  V30 12833 H 1202.02 -0.517325 4.12872 0
M  V30 12834 H 1200.9 -1.12087 5.37334 0
M  V30 12835 H 1201.16 -2.05974 3.91187 0
M  V30 12836 N 1200.22 -1.56282 0.203376 0
M  V30 12837 C 1201.49 -1.89587 -0.481256 0
M  V30 12838 C 1201.87 -1.11812 -1.79057 0
M  V30 12839 O 1201.22 -0.221759 -2.27421 0
M  V30 12840 C 1201.43 -3.42071 -0.691965 0
M  V30 12841 C 1202.78 -4.12471 -1.00761 0
M  V30 12842 O 1203.8 -3.47568 -0.779396 0
M  V30 12843 O 1202.66 -5.27194 -1.43974 0
M  V30 12844 H 1199.76 -0.787682 -0.251963 0
M  V30 12845 H 1202.3 -1.67934 0.244207 0
M  V30 12846 H 1201.08 -3.9061 0.232322 0
M  V30 12847 H 1200.7 -3.69444 -1.46958 0
M  V30 12848 N 1201.7 0.070167 -1.57444 0
M  V30 12849 C 1202.92 0.785703 -1.91941 0
M  V30 12850 C 1203.35 1.70243 -0.799932 0
M  V30 12851 O 1202.7 1.79608 0.247139 0
M  V30 12852 C 1202.75 1.55398 -3.25398 0
M  V30 12853 O 1201.86 2.66475 -3.14746 0
M  V30 12854 H 1201.2 0.214245 -0.628486 0
M  V30 12855 H 1203.73 0.0379243 -2.04565 0
M  V30 12856 H 1203.74 1.93287 -3.5931 0
M  V30 12857 H 1202.41 0.881366 -4.06454 0
M  V30 12858 H 1200.99 2.3143 -2.92394 0
M  V30 12859 N 1203.17 1.53854 0.341593 0
M  V30 12860 C 1204.11 1.78295 1.44027 0
M  V30 12861 C 1205.12 0.664303 1.4863 0
M  V30 12862 O 1206.31 0.941073 1.51678 0
M  V30 12863 C 1203.41 1.86947 2.82673 0
M  V30 12864 C 1202.58 3.16898 3.01487 0
M  V30 12865 C 1201.64 3.16483 4.20386 0
M  V30 12866 O 1200.67 3.90197 4.14409 0
M  V30 12867 N 1201.87 2.3899 5.29022 0
M  V30 12868 H 1204.63 2.73102 1.23431 0
M  V30 12869 H 1202.19 1.52928 0.531483 0
M  V30 12870 H 1204.19 1.84118 3.60392 0
M  V30 12871 H 1202.76 0.993169 2.96403 0
M  V30 12872 H 1201.98 3.32835 2.11221 0
M  V30 12873 H 1203.26 4.02733 3.1094 0
M  V30 12874 H 1202.66 1.78657 5.36748 0
M  V30 12875 H 1201.22 2.41957 6.05227 0
M  V30 12876 N 1204.65 -0.602709 1.4562 0
M  V30 12877 C 1205.6 -1.73425 1.55005 0
M  V30 12878 C 1206.59 -1.64118 0.419713 0
M  V30 12879 O 1207.8 -1.69853 0.595815 0
M  V30 12880 H 1204.17 -0.573038 0.486962 0
M  V30 12881 H 1206.15 -1.62637 2.50184 0
M  V30 12882 C 1204.89 -3.11808 1.53853 0
M  V30 12883 H 1204.22 -3.19631 2.40158 0
M  V30 12884 H 1205.66 -3.90798 1.64477 0
M  V30 12885 C 1204.12 -3.35866 0.263765 0
M  V30 12886 O 1204.65 -3.96334 -0.654364 0
M  V30 12887 N 1202.85 -2.90171 0.157927 0
M  V30 12888 H 1202.4 -2.41144 0.905944 0
M  V30 12889 H 1202.36 -3.06641 -0.694175 0
M  V30 12890 N 1206.13 -1.32992 -0.845635 0
M  V30 12891 C 1207.06 -1.25301 -1.97033 0
M  V30 12892 C 1208.04 -0.134966 -1.69564 0
M  V30 12893 O 1209.23 -0.323629 -1.91484 0
M  V30 12894 C 1206.36 -0.984551 -3.33052 0
M  V30 12895 C 1205.31 -2.06481 -3.749 0
M  V30 12896 C 1204.64 -1.6486 -5.08651 0
M  V30 12897 C 1205.94 -3.48083 -3.89404 0
M  V30 12898 H 1207.63 -2.194 -2.03725 0
M  V30 12899 H 1205.18 -1.05621 -0.978783 0
M  V30 12900 H 1207.13 -0.917269 -4.11296 0
M  V30 12901 H 1205.85 -0.00793116 -3.26599 0
M  V30 12902 H 1204.51 -2.1224 -2.98915 0
M  V30 12903 H 1204.16 -0.659183 -4.98662 0
M  V30 12904 H 1203.86 -2.37145 -5.37621 0
M  V30 12905 H 1205.38 -1.59585 -5.89377 0
M  V30 12906 H 1206.8 -3.44863 -4.57976 0
M  V30 12907 H 1205.19 -4.18796 -4.29802 0
M  V30 12908 H 1206.26 -3.87084 -2.92051 0
M  V30 12909 N 1207.61 1.06304 -1.1635 0
M  V30 12910 C 1208.57 2.11947 -0.872419 0
M  V30 12911 C 1209.57 1.60253 0.132534 0
M  V30 12912 O 1210.76 1.73922 -0.0983441 0
M  V30 12913 C 1207.89 3.39536 -0.304646 0
M  V30 12914 H 1209.09 2.39201 -1.80894 0
M  V30 12915 H 1206.64 1.22367 -0.972419 0
M  V30 12916 H 1207.37 3.17931 0.639565 0
M  V30 12917 H 1207.16 3.78363 -1.02878 0
M  V30 12918 H 1208.65 4.17431 -0.118936 0
M  V30 12919 N 1209.09 0.96196 1.24836 0
M  V30 12920 C 1210.33 0.631213 1.93358 0
M  V30 12921 C 1210.69 -0.823785 1.73872 0
M  V30 12922 O 1209.98 -1.58422 1.07764 0
M  V30 12923 C 1210.17 0.934481 3.44967 0
M  V30 12924 C 1210 2.41741 3.79198 0
M  V30 12925 C 1208.77 3.07624 4.00868 0
M  V30 12926 C 1210.97 3.39717 3.86131 0
M  V30 12927 N 1208.95 4.45714 4.22152 0
M  V30 12928 C 1210.32 4.63141 4.1219 0
M  V30 12929 C 1212.38 3.34454 3.68843 0
M  V30 12930 C 1211.08 5.81953 4.22757 0
M  V30 12931 C 1213.11 4.52611 3.80653 0
M  V30 12932 C 1212.47 5.74825 4.07131 0
M  V30 12933 H 1208.57 0.281719 0.729492 0
M  V30 12934 H 1211.15 1.23564 1.50466 0
M  V30 12935 H 1209.32 0.358917 3.86738 0
M  V30 12936 H 1211.06 0.562892 4.00766 0
M  V30 12937 H 1207.81 2.58172 3.97044 0
M  V30 12938 H 1208.23 5.1725 4.36785 0
M  V30 12939 H 1212.88 2.41008 3.47383 0
M  V30 12940 H 1210.59 6.75832 4.43031 0
M  V30 12941 H 1214.18 4.50095 3.68654 0
M  V30 12942 H 1213.06 6.64727 4.16061 0
M  V30 12943 N 1210.56 -1.39601 0.731392 0
M  V30 12944 C 1211.51 -2.27907 0.0651931 0
M  V30 12945 C 1212.5 -1.44075 -0.716334 0
M  V30 12946 O 1213.69 -1.6702 -0.585936 0
M  V30 12947 C 1210.82 -3.32763 -0.844023 0
M  V30 12948 C 1209.9 -4.24062 -0.0568388 0
M  V30 12949 N 1210.3 -4.96448 0.968146 0
M  V30 12950 C 1208.59 -4.45075 -0.287037 0
M  V30 12951 C 1209.29 -5.6353 1.44252 0
M  V30 12952 N 1208.27 -5.38236 0.761772 0
M  V30 12953 H 1212.07 -2.81324 0.850539 0
M  V30 12954 H 1209.59 -1.5224 0.565396 0
M  V30 12955 H 1211.58 -3.94888 -1.33674 0
M  V30 12956 H 1210.24 -2.80905 -1.62857 0
M  V30 12957 H 1211.25 -5.00011 1.34942 0
M  V30 12958 H 1207.93 -4.04167 -1.04667 0
M  V30 12959 H 1209.32 -6.31487 2.29508 0
M  V30 12960 N 1212.04 -0.478751 -1.50152 0
M  V30 12961 C 1213.29 0.073694 -2.02666 0
M  V30 12962 C 1213.62 1.38679 -1.35947 0
M  V30 12963 O 1212.9 1.88286 -0.4877 0
M  V30 12964 C 1213.18 0.249516 -3.59235 0
M  V30 12965 C 1213.03 -1.08514 -4.36514 0
M  V30 12966 C 1214.35 1.00053 -4.28576 0
M  V30 12967 H 1211.47 0.0253082 -0.736565 0
M  V30 12968 H 1214.11 -0.625834 -1.79397 0
M  V30 12969 H 1212.26 0.845343 -3.79192 0
M  V30 12970 H 1213.93 -1.71814 -4.28109 0
M  V30 12971 H 1212.18 -1.67992 -3.99952 0
M  V30 12972 H 1212.85 -0.915676 -5.44352 0
M  V30 12973 H 1215.32 0.495422 -4.1314 0
M  V30 12974 H 1214.2 1.09236 -5.37921 0
M  V30 12975 H 1214.46 2.03896 -3.92274 0
M  V30 12976 N 1213.52 1.56172 -0.211661 0
M  V30 12977 C 1214.77 1.97214 0.423008 0
M  V30 12978 C 1215.08 1.10203 1.616 0
M  V30 12979 O 1216.29 1.411 2.31955 0
M  V30 12980 C 1214.74 3.50805 0.803977 0
M  V30 12981 C 1214.35 4.46505 -0.365654 0
M  V30 12982 C 1216.1 4.00582 1.4048 0
M  V30 12983 C 1214 5.91388 0.0371986 0
M  V30 12984 H 1212.93 0.736432 0.161814 0
M  V30 12985 H 1215.58 1.80925 -0.306307 0
M  V30 12986 H 1213.97 3.62659 1.59043 0
M  V30 12987 H 1215.14 4.46394 -1.14321 0
M  V30 12988 H 1213.46 4.07015 -0.879061 0
M  V30 12989 H 1216.05 5.06317 1.71894 0
M  V30 12990 H 1216.4 3.45853 2.31713 0
M  V30 12991 H 1216.93 3.9191 0.681984 0
M  V30 12992 H 1213.67 6.50078 -0.841367 0
M  V30 12993 H 1213.19 5.94716 0.77927 0
M  V30 12994 H 1214.87 6.4531 0.467309 0
M  V30 12995 N 1215 -0.0618163 1.57479 0
M  V30 12996 C 1216.25 -0.759069 1.87735 0
M  V30 12997 C 1216.57 -1.77071 0.804732 0
M  V30 12998 O 1215.83 -1.94694 -0.198173 0
M  V30 12999 C 1216.13 -1.4939 3.2468 0
M  V30 13000 C 1215.79 -0.621312 4.46599 0
M  V30 13001 C 1214.46 -0.380873 4.7969 0
M  V30 13002 C 1216.81 -0.0168537 5.21197 0
M  V30 13003 C 1214.14 0.473341 5.84787 0
M  V30 13004 C 1216.49 0.824872 6.27199 0
M  V30 13005 C 1215.15 1.07509 6.58785 0
M  V30 13006 H 1214.42 -0.277763 0.686971 0
M  V30 13007 H 1217.07 -0.0195971 1.9149 0
M  V30 13008 H 1215.37 -2.30584 3.16762 0
M  V30 13009 H 1217.07 -2.03837 3.45328 0
M  V30 13010 H 1213.66 -0.818848 4.20705 0
M  V30 13011 H 1217.84 -0.189707 4.95937 0
M  V30 13012 H 1213.1 0.675842 6.07653 0
M  V30 13013 H 1217.27 1.29993 6.8416 0
M  V30 13014 H 1214.9 1.73876 7.40048 0
M  V30 13015 N 1216.48 -1.54033 -0.333429 0
M  V30 13016 C 1217.44 -1.82021 -1.39288 0
M  V30 13017 C 1218.44 -0.691623 -1.45166 0
M  V30 13018 O 1219.63 -0.959925 -1.45365 0
M  V30 13019 C 1216.76 -1.97136 -2.78119 0
M  V30 13020 H 1217.95 -2.76671 -1.1573 0
M  V30 13021 H 1215.51 -1.45599 -0.568376 0
M  V30 13022 H 1216.24 -1.04663 -3.06946 0
M  V30 13023 H 1216.03 -2.79251 -2.75247 0
M  V30 13024 H 1217.52 -2.20271 -3.54782 0
M  V30 13025 N 1217.95 0.594978 -1.45938 0
M  V30 13026 C 1218.88 1.71536 -1.58422 0
M  V30 13027 C 1219.87 1.64441 -0.435116 0
M  V30 13028 O 1221.05 1.82647 -0.659839 0
M  V30 13029 C 1218.18 3.10163 -1.56257 0
M  V30 13030 C 1217.13 3.3208 -2.70013 0
M  V30 13031 C 1216.46 4.71108 -2.52905 0
M  V30 13032 C 1217.76 3.21105 -4.11933 0
M  V30 13033 H 1219.45 1.61344 -2.52207 0
M  V30 13034 H 1217 0.774791 -1.2138 0
M  V30 13035 H 1218.95 3.88352 -1.63587 0
M  V30 13036 H 1217.68 3.21225 -0.590093 0
M  V30 13037 H 1216.34 2.56286 -2.62132 0
M  V30 13038 H 1215.98 4.7892 -1.53768 0
M  V30 13039 H 1215.68 4.86727 -3.29197 0
M  V30 13040 H 1217.21 5.51482 -2.62107 0
M  V30 13041 H 1218.62 3.89153 -4.2099 0
M  V30 13042 H 1217.02 3.4825 -4.88715 0
M  V30 13043 H 1218.09 2.18359 -4.32952 0
M  V30 13044 N 1219.43 1.33438 0.838571 0
M  V30 13045 C 1220.36 1.26344 1.96365 0
M  V30 13046 C 1221.34 0.143956 1.6949 0
M  V30 13047 O 1222.53 0.333779 1.9131 0
M  V30 13048 C 1219.66 1.0022 3.32526 0
M  V30 13049 C 1218.61 2.08466 3.73799 0
M  V30 13050 C 1217.94 1.67555 5.07769 0
M  V30 13051 C 1219.24 3.50144 3.87552 0
M  V30 13052 H 1220.93 2.20478 2.02558 0
M  V30 13053 H 1218.48 1.06139 0.973168 0
M  V30 13054 H 1220.43 0.939068 4.10803 0
M  V30 13055 H 1219.16 0.0252514 3.2659 0
M  V30 13056 H 1217.81 2.13822 2.97785 0
M  V30 13057 H 1217.46 0.685619 4.98305 0
M  V30 13058 H 1217.16 2.39993 5.36356 0
M  V30 13059 H 1218.69 1.62708 5.88522 0
M  V30 13060 H 1220.1 3.47287 4.56141 0
M  V30 13061 H 1218.5 4.21069 4.27575 0
M  V30 13062 H 1219.57 3.88628 2.89994 0
M  V30 13063 N 1220.91 -1.05686 1.16912 0
M  V30 13064 C 1221.86 -2.15417 0.877404 0
M  V30 13065 C 1222.85 -1.6868 -0.155986 0
M  V30 13066 O 1224.06 -1.79998 -0.00938156 0
M  V30 13067 H 1220.43 -0.70332 0.266168 0
M  V30 13068 H 1222.4 -2.37228 1.81012 0
M  V30 13069 C 1221.15 -3.45372 0.401696 0
M  V30 13070 H 1220.48 -3.81732 1.18832 0
M  V30 13071 H 1221.92 -4.2334 0.236418 0
M  V30 13072 C 1220.38 -3.25209 -0.87981 0
M  V30 13073 O 1220.91 -3.51322 -1.94771 0
M  V30 13074 N 1219.11 -2.78614 -0.825997 0
M  V30 13075 H 1218.66 -2.57564 0.0432439 0
M  V30 13076 H 1218.62 -2.65503 -1.68391 0
M  V30 13077 N 1222.39 -0.968567 -1.24324 0
M  V30 13078 C 1223.35 -0.504307 -2.23583 0
M  V30 13079 C 1224.35 0.399626 -1.55755 0
M  V30 13080 O 1225.54 0.194966 -1.73106 0
M  V30 13081 C 1222.67 0.26956 -3.39833 0
M  V30 13082 H 1223.87 -1.3818 -2.6617 0
M  V30 13083 H 1221.42 -0.753241 -1.36952 0
M  V30 13084 H 1222.15 1.16411 -3.02686 0
M  V30 13085 H 1221.94 -0.379133 -3.90263 0
M  V30 13086 H 1223.43 0.583376 -4.13505 0
M  V30 13087 N 1223.87 1.39211 -0.738786 0
M  V30 13088 C 1225.11 2.00436 -0.28839 0
M  V30 13089 C 1225.44 1.58626 1.12552 0
M  V30 13090 O 1224.7 0.808154 1.78234 0
M  V30 13091 C 1225 3.55758 -0.342224 0
M  V30 13092 C 1224.66 4.1723 -1.70968 0
M  V30 13093 C 1223.32 4.33734 -2.08395 0
M  V30 13094 C 1225.68 4.51294 -2.60736 0
M  V30 13095 C 1223 4.81592 -3.35091 0
M  V30 13096 C 1225.36 5.00562 -3.86808 0
M  V30 13097 C 1224.02 5.15274 -4.24322 0
M  V30 13098 H 1223.29 0.733447 -0.105529 0
M  V30 13099 H 1225.94 1.66481 -0.94637 0
M  V30 13100 H 1224.24 3.8976 0.399331 0
M  V30 13101 H 1225.94 4.00993 0.0244582 0
M  V30 13102 H 1222.53 4.04788 -1.4087 0
M  V30 13103 H 1226.71 4.38158 -2.3309 0
M  V30 13104 H 1221.97 4.91167 -3.64095 0
M  V30 13105 H 1226.14 5.25892 -4.5652 0
M  V30 13106 H 1223.77 5.52119 -5.2256 0
M  V30 13107 N 1225.34 0.486708 1.49896 0
M  V30 13108 C 1226.28 -0.335809 2.26727 0
M  V30 13109 C 1227.29 -0.94333 1.32684 0
M  V30 13110 O 1228.48 -0.82909 1.58077 0
M  V30 13111 C 1225.58 -1.48642 3.04563 0
M  V30 13112 C 1224.75 -0.988837 4.26076 0
M  V30 13113 C 1223.81 -2.01535 4.86076 0
M  V30 13114 O 1222.84 -1.58966 5.46552 0
M  V30 13115 N 1224.04 -3.34471 4.74457 0
M  V30 13116 H 1226.8 0.322919 2.97955 0
M  V30 13117 H 1224.36 0.318403 1.58738 0
M  V30 13118 H 1226.36 -2.17039 3.41579 0
M  V30 13119 H 1224.93 -2.04956 2.36033 0
M  V30 13120 H 1224.15 -0.130232 3.93985 0
M  V30 13121 H 1225.43 -0.634562 5.04827 0
M  V30 13122 H 1224.83 -3.71755 4.26398 0
M  V30 13123 H 1223.39 -3.98621 5.15698 0
M  V30 13124 N 1226.82 -1.56058 0.219941 0
M  V30 13125 C 1228.07 -1.97869 -0.411383 0
M  V30 13126 C 1228.39 -1.10878 -1.60409 0
M  V30 13127 O 1227.66 -0.185454 -1.9502 0
M  V30 13128 H 1226.24 -0.730747 -0.154979 0
M  V30 13129 H 1228.9 -1.92379 0.312461 0
M  V30 13130 H 1228 -3.0323 -0.738798 0
M  V30 13131 N 1228.3 0.053464 -1.57509 0
M  V30 13132 C 1229.55 0.749102 -1.88135 0
M  V30 13133 C 1229.88 1.76642 -0.814111 0
M  V30 13134 O 1229.13 1.94796 0.187845 0
M  V30 13135 C 1229.43 1.47666 -3.25468 0
M  V30 13136 C 1229.1 0.597619 -4.46922 0
M  V30 13137 C 1227.76 0.355429 -4.79886 0
M  V30 13138 C 1230.11 -0.0107869 -5.21199 0
M  V30 13139 C 1227.44 -0.504347 -5.84528 0
M  V30 13140 C 1229.79 -0.858123 -6.26753 0
M  V30 13141 C 1228.45 -1.11001 -6.58206 0
M  V30 13142 H 1227.72 0.274116 -0.688434 0
M  V30 13143 H 1230.37 0.00944162 -1.91498 0
M  V30 13144 H 1228.68 2.28901 -3.1798 0
M  V30 13145 H 1230.37 2.02002 -3.46404 0
M  V30 13146 H 1226.96 0.796526 -4.21134 0
M  V30 13147 H 1231.15 0.163404 -4.96031 0
M  V30 13148 H 1226.4 -0.708057 -6.07286 0
M  V30 13149 H 1230.58 -1.3362 -6.83461 0
M  V30 13150 H 1228.2 -1.77798 -7.39116 0
M  V30 13151 N 1229.78 1.54207 0.325255 0
M  V30 13152 C 1231.03 1.72331 1.0634 0
M  V30 13153 C 1231.35 0.496115 1.88066 0
M  V30 13154 O 1230.61 -0.52214 1.88606 0
M  V30 13155 C 1230.91 2.95 2.01766 0
M  V30 13156 C 1230.57 4.29835 1.36208 0
M  V30 13157 C 1229.24 4.66493 1.18059 0
M  V30 13158 C 1231.59 5.13521 0.891404 0
M  V30 13159 C 1228.92 5.84436 0.514894 0
M  V30 13160 C 1231.27 6.32146 0.239534 0
M  V30 13161 C 1229.93 6.67484 0.0458839 0
M  V30 13162 H 1229.2 0.630605 0.389125 0
M  V30 13163 H 1231.85 1.88445 0.34072 0
M  V30 13164 H 1230.15 2.73567 2.80479 0
M  V30 13165 H 1231.85 3.06217 2.58906 0
M  V30 13166 H 1228.44 4.00993 1.51335 0
M  V30 13167 H 1232.63 4.85718 1.01941 0
M  V30 13168 H 1227.88 6.10376 0.353644 0
M  V30 13169 H 1232.06 6.96273 -0.133185 0
M  V30 13170 H 1229.68 7.58733 -0.471978 0
M  V30 13171 N 1231.26 -0.58723 1.46251 0
M  V30 13172 C 1232.51 -1.34179 1.50595 0
M  V30 13173 C 1232.82 -1.94943 0.160171 0
M  V30 13174 O 1234.03 -2.71378 0.0813797 0
M  V30 13175 C 1232.48 -2.43159 2.65333 0
M  V30 13176 C 1232.09 -1.88718 4.06312 0
M  V30 13177 C 1233.83 -3.19986 2.78943 0
M  V30 13178 C 1231.74 -2.953 5.12398 0
M  V30 13179 H 1230.67 -0.504401 0.560442 0
M  V30 13180 H 1233.32 -0.627179 1.72449 0
M  V30 13181 H 1231.7 -3.17398 2.368 0
M  V30 13182 H 1232.88 -1.21051 4.44616 0
M  V30 13183 H 1231.19 -1.24572 3.97329 0
M  V30 13184 H 1233.79 -3.9952 3.5537 0
M  V30 13185 H 1234.13 -3.72288 1.86298 0
M  V30 13186 H 1234.67 -2.52852 3.07101 0
M  V30 13187 H 1231.4 -2.4789 6.0682 0
M  V30 13188 H 1230.92 -3.61469 4.78644 0
M  V30 13189 H 1232.6 -3.5933 5.38044 0
M  V30 13190 N 1232.74 -1.33881 -0.831482 0
M  V30 13191 C 1233.67 -1.27384 -1.95693 0
M  V30 13192 C 1234.65 -0.152943 -1.69411 0
M  V30 13193 O 1235.83 -0.34392 -1.9113 0
M  V30 13194 C 1232.96 -1.01982 -3.31989 0
M  V30 13195 C 1231.92 -2.10445 -3.72689 0
M  V30 13196 C 1231.24 -1.70245 -5.06873 0
M  V30 13197 C 1232.54 -3.52194 -3.8569 0
M  V30 13198 H 1234.24 -2.21549 -2.01386 0
M  V30 13199 H 1231.78 -1.06653 -0.967526 0
M  V30 13200 H 1233.73 -0.960841 -4.103 0
M  V30 13201 H 1232.46 -0.0425709 -3.26572 0
M  V30 13202 H 1231.12 -2.15398 -2.96647 0
M  V30 13203 H 1230.77 -0.712036 -4.97935 0
M  V30 13204 H 1230.47 -2.42834 -5.35075 0
M  V30 13205 H 1231.99 -1.65827 -5.87651 0
M  V30 13206 H 1233.4 -3.49701 -4.54293 0
M  V30 13207 H 1231.8 -4.23331 -4.25336 0
M  V30 13208 H 1232.87 -3.9016 -2.87929 0
M  V30 13209 N 1234.21 1.05064 -1.1747 0
M  V30 13210 C 1235.45 1.79662 -0.974724 0
M  V30 13211 C 1235.82 1.85699 0.487857 0
M  V30 13212 O 1237.02 2.56401 0.806954 0
M  V30 13213 C 1235.29 3.19597 -1.59976 0
M  V30 13214 S 1236.85 4.10657 -1.54615 0
M  V30 13215 H 1233.67 0.618746 -0.350249 0
M  V30 13216 H 1236.27 1.2605 -1.49438 0
M  V30 13217 H 1234.97 3.12807 -2.65669 0
M  V30 13218 H 1234.5 3.78286 -1.07996 0
M  V30 13219 H 1236.52 4.93086 -0.555033 0
M  V30 13220 N 1235.69 0.975146 1.23809 0
M  V30 13221 C 1236.94 0.641124 1.92083 0
M  V30 13222 C 1237.27 -0.824671 1.76152 0
M  V30 13223 O 1236.52 -1.6097 1.11298 0
M  V30 13224 C 1236.82 0.971016 3.43956 0
M  V30 13225 C 1236.49 2.42616 3.80063 0
M  V30 13226 C 1235.15 2.82386 3.8963 0
M  V30 13227 C 1237.5 3.37019 3.97577 0
M  V30 13228 C 1234.83 4.15585 4.14133 0
M  V30 13229 C 1237.18 4.69855 4.23579 0
M  V30 13230 C 1235.84 5.09391 4.31366 0
M  V30 13231 H 1235.11 0.234604 0.702881 0
M  V30 13232 H 1237.76 1.22803 1.46941 0
M  V30 13233 H 1236.07 0.301965 3.90635 0
M  V30 13234 H 1237.76 0.690858 3.95004 0
M  V30 13235 H 1234.35 2.10782 3.73187 0
M  V30 13236 H 1238.54 3.07474 3.89581 0
M  V30 13237 H 1233.79 4.45831 4.18383 0
M  V30 13238 H 1237.97 5.42966 4.36074 0
M  V30 13239 H 1235.59 6.12624 4.50106 0
M  V30 13240 N 1237.17 -1.38817 0.746158 0
M  V30 13241 C 1238.42 -1.99885 0.298425 0
M  V30 13242 C 1238.74 -1.59518 -1.12156 0
M  V30 13243 O 1238.01 -0.848568 -1.76568 0
M  V30 13244 H 1236.59 -0.739247 0.107347 0
M  V30 13245 H 1239.25 -1.69696 0.9586 0
M  V30 13246 H 1238.35 -3.10067 0.355656 0
M  V30 13247 N 1238.65 -0.49465 -1.49636 0
M  V30 13248 C 1239.9 0.0539277 -2.01628 0
M  V30 13249 C 1240.21 1.38634 -1.37986 0
M  V30 13250 O 1241.42 2.02123 -1.81269 0
M  V30 13251 C 1239.87 0.146582 -3.59601 0
M  V30 13252 C 1239.48 -1.1788 -4.32213 0
M  V30 13253 C 1241.22 0.645862 -4.19558 0
M  V30 13254 C 1239.13 -1.04866 -5.82028 0
M  V30 13255 H 1238.06 0.0239278 -0.75362 0
M  V30 13256 H 1240.71 -0.633112 -1.72232 0
M  V30 13257 H 1239.09 0.897931 -3.85685 0
M  V30 13258 H 1240.27 -1.94295 -4.17835 0
M  V30 13259 H 1238.58 -1.61102 -3.83973 0
M  V30 13260 H 1241.18 0.76064 -5.29262 0
M  V30 13261 H 1241.52 1.64313 -3.82501 0
M  V30 13262 H 1242.06 -0.04877 -3.9777 0
M  V30 13263 H 1238.79 -2.02 -6.23599 0
M  V30 13264 H 1238.31 -0.325293 -5.98917 0
M  V30 13265 H 1239.99 -0.724799 -6.42927 0
M  V30 13266 N 1240.13 1.55939 -0.228214 0
M  V30 13267 C 1241.06 2.2357 0.6737 0
M  V30 13268 C 1242.04 1.20964 1.1959 0
M  V30 13269 O 1243.22 1.49568 1.23867 0
M  V30 13270 C 1240.35 2.92076 1.87906 0
M  V30 13271 C 1239.31 4.01211 1.49043 0
M  V30 13272 C 1238.63 4.57047 2.77511 0
M  V30 13273 C 1239.93 5.17914 0.67544 0
M  V30 13274 H 1241.63 2.99199 0.109806 0
M  V30 13275 H 1239.17 1.43908 0.0513732 0
M  V30 13276 H 1241.12 3.38083 2.51551 0
M  V30 13277 H 1239.85 2.13906 2.46803 0
M  V30 13278 H 1238.51 3.55945 0.877411 0
M  V30 13279 H 1238.16 3.75599 3.34566 0
M  V30 13280 H 1237.86 5.30707 2.52239 0
M  V30 13281 H 1239.38 5.05776 3.42087 0
M  V30 13282 H 1240.79 5.60261 1.21575 0
M  V30 13283 H 1239.19 5.97847 0.519536 0
M  V30 13284 H 1240.26 4.83866 -0.316495 0
M  V30 13285 N 1241.6 -0.0451101 1.57535 0
M  V30 13286 C 1242.53 -1.05046 2.08537 0
M  V30 13287 C 1243.52 -1.3872 0.984418 0
M  V30 13288 O 1244.7 -1.47884 1.25873 0
M  V30 13289 C 1241.83 -2.3562 2.55148 0
M  V30 13290 C 1240.78 -2.16231 3.69362 0
M  V30 13291 C 1240.11 -3.52423 4.02122 0
M  V30 13292 C 1241.41 -1.56159 4.98409 0
M  V30 13293 H 1243.1 -0.625965 2.92783 0
M  V30 13294 H 1240.65 -0.299657 1.40848 0
M  V30 13295 H 1242.6 -3.06266 2.89446 0
M  V30 13296 H 1241.33 -2.80099 1.67964 0
M  V30 13297 H 1239.99 -1.4802 3.35389 0
M  V30 13298 H 1239.63 -3.94522 3.12028 0
M  V30 13299 H 1239.33 -3.4028 4.79044 0
M  V30 13300 H 1240.86 -4.24458 4.38939 0
M  V30 13301 H 1242.27 -2.16703 5.30766 0
M  V30 13302 H 1240.67 -1.54638 5.79834 0
M  V30 13303 H 1241.74 -0.525698 4.82042 0
M  V30 13304 N 1243.08 -1.54377 -0.317073 0
M  V30 13305 C 1244.36 -1.63551 -1.07287 0
M  V30 13306 C 1244.74 -0.473499 -2.05721 0
M  V30 13307 O 1244.09 0.531545 -2.22232 0
M  V30 13308 C 1244.3 -3.00842 -1.76904 0
M  V30 13309 C 1245.65 -3.57111 -2.29689 0
M  V30 13310 O 1246.67 -3.0319 -1.86961 0
M  V30 13311 O 1245.53 -4.51486 -3.07932 0
M  V30 13312 H 1242.62 -0.662557 -0.494922 0
M  V30 13313 H 1245.17 -1.66723 -0.316444 0
M  V30 13314 H 1243.94 -3.76854 -1.05341 0
M  V30 13315 H 1243.56 -3.01377 -2.59341 0
M  V30 13316 N 1244.56 0.579466 -1.4656 0
M  V30 13317 C 1245.79 1.36837 -1.55854 0
M  V30 13318 C 1246.21 1.87019 -0.20141 0
M  V30 13319 O 1245.57 1.61746 0.81901 0
M  V30 13320 C 1245.62 2.52965 -2.56985 0
M  V30 13321 O 1244.72 3.54505 -2.10713 0
M  V30 13322 H 1244.06 0.407379 -0.524345 0
M  V30 13323 H 1246.59 0.702558 -1.9216 0
M  V30 13324 H 1246.6 2.99838 -2.76697 0
M  V30 13325 H 1245.28 2.15793 -3.55536 0
M  V30 13326 H 1243.85 3.14089 -2.01003 0
M  V30 13327 N 1246.04 1.3432 0.824371 0
M  V30 13328 C 1246.99 1.25776 1.93517 0
M  V30 13329 C 1247.96 0.133298 1.65564 0
M  V30 13330 O 1249.14 0.31403 1.88198 0
M  V30 13331 C 1246.28 1.01766 3.29754 0
M  V30 13332 C 1245.39 2.22973 3.7001 0
M  V30 13333 C 1244.53 1.92258 4.95187 0
M  V30 13334 C 1243.57 3.09616 5.2802 0
M  V30 13335 N 1242.7 2.78793 6.44375 0
M  V30 13336 H 1247.54 2.20774 2.00157 0
M  V30 13337 H 1245.08 1.09766 0.979274 0
M  V30 13338 H 1247.04 0.858831 4.08265 0
M  V30 13339 H 1245.67 0.10437 3.22631 0
M  V30 13340 H 1244.72 2.49781 2.86903 0
M  V30 13341 H 1246.03 3.10661 3.90245 0
M  V30 13342 H 1245.19 1.73102 5.81481 0
M  V30 13343 H 1243.93 1.01827 4.76951 0
M  V30 13344 H 1242.93 3.29368 4.40223 0
M  V30 13345 H 1244.16 4.00822 5.48196 0
M  V30 13346 H 1242.1 1.90938 6.27598 0
M  V30 13347 H 1242.02 3.60014 6.64775 0
M  V30 13348 H 1243.29 2.63139 7.33743 0
M  V30 13349 N 1247.52 -1.0444 1.18026 0
M  V30 13350 C 1248.45 -2.14297 0.927314 0
M  V30 13351 C 1249.43 -1.69575 -0.13357 0
M  V30 13352 O 1250.61 -1.94191 0.0182439 0
M  V30 13353 C 1247.74 -3.44397 0.448134 0
M  V30 13354 C 1246.7 -4.02723 1.44907 0
M  V30 13355 C 1246.02 -5.28257 0.827555 0
M  V30 13356 C 1247.32 -4.39331 2.82463 0
M  V30 13357 H 1249.02 -2.35715 1.84605 0
M  V30 13358 H 1246.56 -1.13281 0.889012 0
M  V30 13359 H 1248.52 -4.20606 0.258554 0
M  V30 13360 H 1247.24 -3.22654 -0.506159 0
M  V30 13361 H 1245.9 -3.28591 1.62552 0
M  V30 13362 H 1245.55 -5.02822 -0.13381 0
M  V30 13363 H 1245.25 -5.68242 1.49581 0
M  V30 13364 H 1246.77 -6.07147 0.64842 0
M  V30 13365 H 1248.18 -5.06543 2.68491 0
M  V30 13366 H 1246.58 -4.90355 3.45936 0
M  V30 13367 H 1247.65 -3.4933 3.36299 0
M  V30 13368 N 1248.99 -0.981699 -1.2329 0
M  V30 13369 C 1250.41 -0.690539 -1.43888 0
M  V30 13370 C 1250.61 0.742816 -1.87309 0
M  V30 13371 O 1249.67 1.5151 -2.01993 0
M  V30 13372 C 1250.98 -1.68657 -2.48948 0
M  V30 13373 C 1252.53 -1.70076 -2.62761 0
M  V30 13374 C 1253 -2.68513 -3.71032 0
M  V30 13375 N 1254.49 -2.67039 -3.78476 0
M  V30 13376 C 1255.23 -3.39874 -4.61815 0
M  V30 13377 N 1254.72 -4.22273 -5.49233 0
M  V30 13378 N 1256.52 -3.28633 -4.56023 0
M  V30 13379 H 1248.67 -1.90758 -0.934077 0
M  V30 13380 H 1250.93 -0.822058 -0.472149 0
M  V30 13381 H 1250.64 -2.7117 -2.23964 0
M  V30 13382 H 1250.51 -1.47045 -3.47358 0
M  V30 13383 H 1252.9 -0.682673 -2.87095 0
M  V30 13384 H 1252.98 -1.95754 -1.64663 0
M  V30 13385 H 1252.62 -3.70464 -3.47446 0
M  V30 13386 H 1252.55 -2.40109 -4.68674 0
M  V30 13387 H 1255.04 -2.07241 -3.16006 0
M  V30 13388 H 1255.36 -4.74702 -6.09818 0
M  V30 13389 H 1253.7 -4.26364 -5.48852 0
M  V30 13390 H 1256.89 -2.6371 -3.86749 0
M  V30 13391 H 1257.07 -3.85656 -5.20743 0
M  V30 13392 N 1250.47 1.3842 -0.753509 0
M  V30 13393 C 1251.4 2.29039 -0.0859463 0
M  V30 13394 C 1252.42 1.47742 0.68383 0
M  V30 13395 O 1253.61 1.70607 0.524933 0
M  V30 13396 C 1250.71 3.26668 0.902296 0
M  V30 13397 C 1249.88 4.36986 0.190178 0
M  V30 13398 C 1248.94 5.14805 1.08916 0
M  V30 13399 O 1247.96 5.66441 0.559715 0
M  V30 13400 N 1249.17 5.27777 2.41726 0
M  V30 13401 H 1251.93 2.8697 -0.864196 0
M  V30 13402 H 1249.49 1.502 -0.604288 0
M  V30 13403 H 1251.48 3.75606 1.50672 0
M  V30 13404 H 1250.05 2.69636 1.58163 0
M  V30 13405 H 1249.27 3.89684 -0.594959 0
M  V30 13406 H 1250.56 5.07899 -0.302594 0
M  V30 13407 H 1249.96 4.87376 2.87196 0
M  V30 13408 H 1248.52 5.8009 2.97219 0
M  V30 13409 N 1251.95 0.502579 1.49372 0
M  V30 13410 C 1252.88 -0.264307 2.31999 0
M  V30 13411 C 1253.86 -0.96107 1.40348 0
M  V30 13412 O 1255.05 -0.952167 1.69255 0
M  V30 13413 C 1252.18 -1.32822 3.20898 0
M  V30 13414 C 1251.13 -0.751236 4.21355 0
M  V30 13415 C 1250.46 -1.91578 4.99201 0
M  V30 13416 C 1251.76 0.258764 5.21659 0
M  V30 13417 H 1253.45 0.425391 2.96363 0
M  V30 13418 H 1251 0.206022 1.42519 0
M  V30 13419 H 1252.95 -1.87245 3.77515 0
M  V30 13420 H 1251.67 -2.04712 2.54481 0
M  V30 13421 H 1250.33 -0.228743 3.65886 0
M  V30 13422 H 1249.98 -2.62241 4.2923 0
M  V30 13423 H 1249.68 -1.53578 5.67175 0
M  V30 13424 H 1251.2 -2.46432 5.58663 0
M  V30 13425 H 1252.62 -0.197385 5.7296 0
M  V30 13426 H 1251.02 0.554681 5.97531 0
M  V30 13427 H 1252.09 1.1741 4.70471 0
M  V30 13428 N 1253.43 -1.55816 0.23648 0
M  V30 13429 C 1254.36 -2.23924 -0.661834 0
M  V30 13430 C 1255.34 -1.21597 -1.18946 0
M  V30 13431 O 1256.52 -1.50222 -1.23073 0
M  V30 13432 C 1253.65 -2.93069 -1.86355 0
M  V30 13433 C 1252.61 -4.01996 -1.46913 0
M  V30 13434 C 1251.93 -4.58512 -2.75083 0
M  V30 13435 C 1253.23 -5.18265 -0.647964 0
M  V30 13436 H 1254.93 -2.99253 -0.0939368 0
M  V30 13437 H 1252.47 -1.43934 -0.0437407 0
M  V30 13438 H 1254.43 -3.39412 -2.49755 0
M  V30 13439 H 1253.15 -2.15212 -2.45665 0
M  V30 13440 H 1251.81 -3.56406 -0.858522 0
M  V30 13441 H 1251.46 -3.77368 -3.3257 0
M  V30 13442 H 1251.16 -5.32037 -2.49421 0
M  V30 13443 H 1252.68 -5.07583 -3.39399 0
M  V30 13444 H 1254.1 -5.60898 -1.18602 0
M  V30 13445 H 1252.49 -5.98114 -0.487823 0
M  V30 13446 H 1253.56 -4.83691 0.342151 0
M  V30 13447 N 1254.91 0.036755 -1.57557 0
M  V30 13448 C 1256.15 0.729106 -1.88919 0
M  V30 13449 C 1256.48 1.75769 -0.832801 0
M  V30 13450 O 1255.74 1.94985 0.167173 0
M  V30 13451 C 1256.04 1.44206 -3.27016 0
M  V30 13452 C 1255.7 0.550184 -4.47531 0
M  V30 13453 C 1254.36 0.304511 -4.80236 0
M  V30 13454 C 1256.72 -0.0660664 -5.21158 0
M  V30 13455 C 1254.04 -0.566316 -5.8396 0
M  V30 13456 C 1256.4 -0.92455 -6.25807 0
M  V30 13457 C 1255.06 -1.17976 -6.56992 0
M  V30 13458 H 1254.33 0.266799 -0.691303 0
M  V30 13459 H 1256.98 -0.0108698 -1.91497 0
M  V30 13460 H 1255.28 2.25516 -3.2039 0
M  V30 13461 H 1256.98 1.98317 -3.48527 0
M  V30 13462 H 1253.57 0.751814 -4.21955 0
M  V30 13463 H 1257.75 0.110784 -4.96176 0
M  V30 13464 H 1253.01 -0.772428 -6.06501 0
M  V30 13465 H 1257.18 -1.40861 -6.82005 0
M  V30 13466 H 1254.81 -1.85627 -7.37188 0
M  V30 13467 N 1256.39 1.54543 0.308881 0
M  V30 13468 C 1257.33 1.85693 1.40074 0
M  V30 13469 C 1258.33 0.730004 1.52864 0
M  V30 13470 O 1259.53 0.913884 1.55075 0
M  V30 13471 H 1255.91 0.588842 0.467728 0
M  V30 13472 H 1257.88 2.76973 1.11034 0
M  V30 13473 C 1256.63 2.11399 2.76054 0
M  V30 13474 H 1255.95 2.97583 2.66992 0
M  V30 13475 H 1257.39 2.37139 3.51484 0
M  V30 13476 C 1255.85 0.91007 3.24375 0
M  V30 13477 O 1256.38 0.12663 4.015 0
M  V30 13478 N 1254.59 0.717629 2.816 0
M  V30 13479 H 1254.13 1.35637 2.18998 0
M  V30 13480 H 1254.09 -0.0863585 3.14281 0
M  V30 13481 N 1257.86 -0.571685 1.46866 0
M  V30 13482 C 1258.81 -1.67992 1.58263 0
M  V30 13483 C 1259.78 -1.60535 0.426345 0
M  V30 13484 O 1260.97 -1.79584 0.644534 0
M  V30 13485 C 1258.11 -3.06327 1.58927 0
M  V30 13486 C 1257.22 -3.24328 2.85369 0
M  V30 13487 C 1256.35 -4.52976 2.77464 0
M  V30 13488 C 1255.39 -4.64359 3.98795 0
M  V30 13489 N 1254.53 -5.84345 3.89211 0
M  V30 13490 H 1259.37 -1.57589 2.52922 0
M  V30 13491 H 1256.91 -0.767883 1.25467 0
M  V30 13492 H 1258.86 -3.86411 1.57296 0
M  V30 13493 H 1257.49 -3.15601 0.677912 0
M  V30 13494 H 1256.55 -2.37774 2.96931 0
M  V30 13495 H 1257.86 -3.28605 3.7526 0
M  V30 13496 H 1257.01 -5.41303 2.74001 0
M  V30 13497 H 1255.75 -4.51155 1.85231 0
M  V30 13498 H 1254.76 -3.74448 4.02578 0
M  V30 13499 H 1255.98 -4.6795 4.92137 0
M  V30 13500 H 1253.93 -5.835 2.99772 0
M  V30 13501 H 1253.84 -5.89938 4.72768 0
M  V30 13502 H 1255.11 -6.75072 3.89741 0
M  V30 13503 N 1259.34 -1.34755 -0.817236 0
M  V30 13504 C 1260.27 -1.29452 -1.94331 0
M  V30 13505 C 1261.25 -0.170902 -1.69239 0
M  V30 13506 O 1262.44 -0.364173 -1.90755 0
M  V30 13507 C 1259.57 -1.05497 -3.30889 0
M  V30 13508 C 1258.52 -2.14386 -3.70436 0
M  V30 13509 C 1257.85 -1.75612 -5.05039 0
M  V30 13510 C 1259.15 -3.56265 -3.81933 0
M  V30 13511 H 1260.84 -2.23672 -1.99025 0
M  V30 13512 H 1258.39 -1.07674 -0.956159 0
M  V30 13513 H 1260.34 -1.0043 -4.09257 0
M  V30 13514 H 1259.06 -0.0772059 -3.26509 0
M  V30 13515 H 1257.72 -2.18532 -2.94345 0
M  V30 13516 H 1257.37 -0.764809 -4.97152 0
M  V30 13517 H 1257.07 -2.48495 -5.3247 0
M  V30 13518 H 1258.6 -1.72051 -5.85859 0
M  V30 13519 H 1260.01 -3.545 -4.50558 0
M  V30 13520 H 1258.41 -4.27818 -4.20822 0
M  V30 13521 H 1259.48 -3.93192 -2.83775 0
M  V30 13522 N 1260.82 1.03812 -1.18578 0
M  V30 13523 C 1262.04 1.8124 -1.00831 0
M  V30 13524 C 1262.47 1.82917 0.43853 0
M  V30 13525 O 1261.83 1.24835 1.31476 0
M  V30 13526 C 1261.88 3.24592 -1.57075 0
M  V30 13527 O 1260.98 4.04688 -0.793824 0
M  V30 13528 H 1260.32 0.559846 -0.357028 0
M  V30 13529 H 1262.85 1.30724 -1.57393 0
M  V30 13530 H 1262.86 3.75363 -1.59896 0
M  V30 13531 H 1261.54 3.22686 -2.62387 0
M  V30 13532 H 1260.11 3.63359 -0.838134 0
M  V30 13533 N 1262.3 0.988223 1.22768 0
M  V30 13534 C 1263.26 0.539813 2.22752 0
M  V30 13535 C 1264.26 -0.374796 1.56371 0
M  V30 13536 O 1265.45 -0.167402 1.73394 0
M  V30 13537 C 1262.58 -0.215461 3.40218 0
M  V30 13538 H 1263.78 1.42397 2.63938 0
M  V30 13539 H 1261.33 0.774933 1.35737 0
M  V30 13540 H 1262.06 -1.11581 3.045 0
M  V30 13541 H 1261.85 0.441173 3.8961 0
M  V30 13542 H 1263.34 -0.517517 4.14381 0
M  V30 13543 N 1263.78 -1.38018 0.760839 0
M  V30 13544 C 1264.71 -2.32995 0.153557 0
M  V30 13545 C 1265.69 -1.55234 -0.695448 0
M  V30 13546 O 1266.87 -1.8352 -0.635148 0
M  V30 13547 C 1264 -3.39437 -0.734811 0
M  V30 13548 C 1262.96 -4.27998 0.0120287 0
M  V30 13549 C 1262.28 -5.25359 -0.995067 0
M  V30 13550 C 1263.58 -5.08687 1.18468 0
M  V30 13551 H 1265.28 -2.8403 0.946956 0
M  V30 13552 H 1262.82 -1.36562 0.456816 0
M  V30 13553 H 1264.77 -4.0485 -1.16938 0
M  V30 13554 H 1263.5 -2.86901 -1.56061 0
M  V30 13555 H 1262.16 -3.64102 0.427254 0
M  V30 13556 H 1261.81 -4.69108 -1.81512 0
M  V30 13557 H 1261.51 -5.85469 -0.499969 0
M  V30 13558 H 1263.03 -5.93648 -1.4288 0
M  V30 13559 H 1264.44 -5.67299 0.8273 0
M  V30 13560 H 1262.84 -5.78068 1.61112 0
M  V30 13561 H 1263.91 -4.42 1.99409 0
M  V30 13562 N 1265.25 -0.510493 -1.49103 0
M  V30 13563 C 1266.48 0.0293113 -2.07379 0
M  V30 13564 C 1266.9 1.29195 -1.36713 0
M  V30 13565 O 1266.26 1.76204 -0.426838 0
M  V30 13566 C 1266.31 0.25629 -3.59688 0
M  V30 13567 O 1265.41 1.32907 -3.90397 0
M  V30 13568 H 1264.75 -0.0304449 -0.663302 0
M  V30 13569 H 1267.28 -0.712832 -1.91781 0
M  V30 13570 H 1267.29 0.484915 -4.05108 0
M  V30 13571 H 1265.97 -0.666163 -4.1053 0
M  V30 13572 H 1264.55 1.08464 -3.56777 0
M  V30 13573 N 1266.73 1.55688 -0.24474 0
M  V30 13574 C 1267.96 2.03743 0.387776 0
M  V30 13575 C 1268.38 1.1229 1.50906 0
M  V30 13576 O 1267.74 0.115445 1.80932 0
M  V30 13577 C 1267.79 3.49825 0.874927 0
M  V30 13578 O 1266.89 3.61504 1.98466 0
M  V30 13579 H 1266.23 0.658561 0.0848107 0
M  V30 13580 H 1268.76 2.01224 -0.370165 0
M  V30 13581 H 1268.77 3.90603 1.17871 0
M  V30 13582 H 1267.45 4.15864 0.0543852 0
M  V30 13583 H 1266.02 3.32622 1.68574 0
M  V30 13584 N 1268.21 -0.0283989 1.57574 0
M  V30 13585 C 1269.46 -0.714661 1.90432 0
M  V30 13586 C 1269.81 -1.72929 0.843409 0
M  V30 13587 O 1269.1 -1.91029 -0.147815 0
M  V30 13588 C 1269.3 -1.4247 3.27776 0
M  V30 13589 C 1269.13 -0.480353 4.47127 0
M  V30 13590 C 1267.9 -0.101157 5.05199 0
M  V30 13591 C 1270.09 0.241526 5.13733 0
M  V30 13592 N 1268.08 0.844371 6.08065 0
M  V30 13593 C 1269.45 1.04269 6.11169 0
M  V30 13594 C 1271.5 0.308398 4.96944 0
M  V30 13595 C 1270.21 1.90459 6.93627 0
M  V30 13596 C 1272.23 1.15742 5.79964 0
M  V30 13597 C 1271.59 1.94651 6.76971 0
M  V30 13598 H 1267.69 -0.23559 0.745668 0
M  V30 13599 H 1270.28 0.0252703 1.94684 0
M  V30 13600 H 1268.45 -2.13509 3.24451 0
M  V30 13601 H 1270.18 -2.0634 3.48146 0
M  V30 13602 H 1266.93 -0.463482 4.71327 0
M  V30 13603 H 1267.36 1.31166 6.64172 0
M  V30 13604 H 1272 -0.287369 4.21822 0
M  V30 13605 H 1269.72 2.51115 7.68093 0
M  V30 13606 H 1273.3 1.2127 5.69021 0
M  V30 13607 H 1272.18 2.59286 7.40095 0
M  V30 13608 N 1269.69 -1.54705 -0.300681 0
M  V30 13609 C 1270.63 -1.85678 -1.37084 0
M  V30 13610 C 1271.6 -0.70573 -1.50362 0
M  V30 13611 O 1272.79 -0.954385 -1.65215 0
M  V30 13612 C 1269.93 -2.10995 -2.73084 0
M  V30 13613 C 1269.04 -3.38621 -2.68254 0
M  V30 13614 C 1268.18 -3.53779 -3.9625 0
M  V30 13615 C 1267.22 -4.75195 -3.85818 0
M  V30 13616 N 1266.35 -4.87157 -5.05591 0
M  V30 13617 H 1271.19 -2.76967 -1.09971 0
M  V30 13618 H 1268.73 -1.37147 -0.531887 0
M  V30 13619 H 1270.69 -2.23669 -3.52176 0
M  V30 13620 H 1269.32 -1.22973 -2.98458 0
M  V30 13621 H 1268.37 -3.34566 -1.81025 0
M  V30 13622 H 1269.68 -4.27834 -2.56436 0
M  V30 13623 H 1268.84 -3.66119 -4.83779 0
M  V30 13624 H 1267.58 -2.62699 -4.10902 0
M  V30 13625 H 1266.58 -4.62888 -2.96673 0
M  V30 13626 H 1267.81 -5.67683 -3.72711 0
M  V30 13627 H 1265.75 -3.99001 -5.20706 0
M  V30 13628 H 1265.67 -5.70372 -4.96197 0
M  V30 13629 H 1266.94 -5.03854 -5.9477 0
M  V30 13630 N 1271.17 0.563888 -1.47167 0
M  V30 13631 C 1272.1 1.68655 -1.55204 0
M  V30 13632 C 1273.11 1.56776 -0.438769 0
M  V30 13633 O 1274.3 1.63856 -0.708059 0
M  V30 13634 C 1271.4 3.07068 -1.43396 0
M  V30 13635 C 1270.57 3.44767 -2.69174 0
M  V30 13636 C 1269.63 4.62316 -2.51298 0
M  V30 13637 O 1268.66 4.67231 -3.2509 0
M  V30 13638 N 1269.86 5.58389 -1.58688 0
M  V30 13639 H 1272.63 1.62209 -2.52009 0
M  V30 13640 H 1270.19 0.750359 -1.43462 0
M  V30 13641 H 1272.18 3.83529 -1.29181 0
M  V30 13642 H 1270.75 3.07777 -0.546997 0
M  V30 13643 H 1269.97 2.57821 -2.98198 0
M  V30 13644 H 1271.26 3.66726 -3.52689 0
M  V30 13645 H 1270.65 5.57169 -0.978737 0
M  V30 13646 H 1269.21 6.34204 -1.50428 0
M  V30 13647 N 1272.64 1.35187 0.810078 0
M  V30 13648 C 1273.87 1.31371 1.59841 0
M  V30 13649 C 1274.29 -0.109547 1.88482 0
M  V30 13650 O 1273.64 -1.06047 1.48527 0
M  V30 13651 C 1273.7 2.11496 2.93175 0
M  V30 13652 O 1273.42 3.48273 2.65777 0
M  V30 13653 C 1274.92 2.15226 3.87547 0
M  V30 13654 H 1272.14 0.451428 0.496441 0
M  V30 13655 H 1274.68 1.7799 1.00697 0
M  V30 13656 H 1272.84 1.68486 3.48843 0
M  V30 13657 H 1273.25 3.89845 3.50886 0
M  V30 13658 H 1274.72 2.75687 4.78226 0
M  V30 13659 H 1275.2 1.15007 4.23875 0
M  V30 13660 H 1275.81 2.58382 3.37815 0
M  V30 13661 N 1274.12 -1.03182 1.19127 0
M  V30 13662 C 1275.03 -2.14875 0.94159 0
M  V30 13663 C 1276.05 -1.73727 -0.0973872 0
M  V30 13664 O 1277.22 -2.01214 0.0865775 0
M  V30 13665 C 1274.29 -3.43356 0.480366 0
M  V30 13666 C 1273.35 -3.98835 1.58838 0
M  V30 13667 C 1272.58 -5.21183 1.14907 0
M  V30 13668 O 1272.81 -5.70399 0.0114141 0
M  V30 13669 O 1271.74 -5.69423 1.95042 0
M  V30 13670 H 1275.57 -2.38799 1.8764 0
M  V30 13671 H 1273.15 -1.13299 0.973841 0
M  V30 13672 H 1275.03 -4.20763 0.231658 0
M  V30 13673 H 1273.71 -3.20884 -0.426041 0
M  V30 13674 H 1272.62 -3.22776 1.8912 0
M  V30 13675 H 1273.95 -4.25665 2.47123 0
M  V30 13676 N 1275.6 -0.99472 -1.22242 0
M  V30 13677 C 1276.55 -0.546504 -2.24236 0
M  V30 13678 C 1277.52 0.422101 -1.60647 0
M  V30 13679 O 1278.7 0.326452 -1.87987 0
M  V30 13680 C 1275.84 0.130909 -3.44852 0
M  V30 13681 C 1274.96 -0.879653 -4.22949 0
M  V30 13682 C 1274.09 -0.175569 -5.3091 0
M  V30 13683 C 1273.13 -1.17438 -6.00729 0
M  V30 13684 N 1272.27 -0.498474 -7.00328 0
M  V30 13685 H 1277.11 -1.42099 -2.61939 0
M  V30 13686 H 1274.64 -0.711755 -1.28734 0
M  V30 13687 H 1276.6 0.540596 -4.13683 0
M  V30 13688 H 1275.23 0.96917 -3.07907 0
M  V30 13689 H 1274.28 -1.40765 -3.53397 0
M  V30 13690 H 1275.6 -1.64017 -4.71062 0
M  V30 13691 H 1274.75 0.290756 -6.06003 0
M  V30 13692 H 1273.49 0.617438 -4.83776 0
M  V30 13693 H 1272.49 -1.65131 -5.24416 0
M  V30 13694 H 1273.72 -1.96829 -6.4995 0
M  V30 13695 H 1271.66 0.275063 -6.55423 0
M  V30 13696 H 1271.58 -1.19741 -7.46457 0
M  V30 13697 H 1272.85 -0.0550119 -7.79481 0
M  V30 13698 N 1277.08 1.37613 -0.768148 0
M  V30 13699 C 1278.01 2.28935 -0.110234 0
M  V30 13700 C 1279.02 1.48459 0.668122 0
M  V30 13701 O 1280.21 1.71154 0.506808 0
M  V30 13702 C 1277.31 3.27606 0.867598 0
M  V30 13703 C 1276.49 4.37163 0.143819 0
M  V30 13704 C 1275.54 5.15931 1.03449 0
M  V30 13705 O 1274.57 5.67003 0.499605 0
M  V30 13706 N 1275.77 5.30311 2.36114 0
M  V30 13707 H 1278.54 2.86037 -0.894585 0
M  V30 13708 H 1276.1 1.4955 -0.620185 0
M  V30 13709 H 1278.09 3.77183 1.4668 0
M  V30 13710 H 1276.66 2.71298 1.55294 0
M  V30 13711 H 1275.88 3.89031 -0.636257 0
M  V30 13712 H 1277.17 5.0755 -0.356446 0
M  V30 13713 H 1276.57 4.90394 2.82011 0
M  V30 13714 H 1275.12 5.83209 2.9105 0
M  V30 13715 N 1278.56 0.518393 1.4883 0
M  V30 13716 C 1279.5 -0.264197 2.31095 0
M  V30 13717 C 1280.5 -0.946455 1.40494 0
M  V30 13718 O 1281.7 -0.872161 1.57459 0
M  V30 13719 H 1278.08 -0.104065 0.744765 0
M  V30 13720 H 1280.05 0.449375 2.94997 0
M  V30 13721 C 1278.8 -1.30527 3.2227 0
M  V30 13722 H 1278.12 -0.789695 3.91923 0
M  V30 13723 H 1279.56 -1.82449 3.82738 0
M  V30 13724 C 1278.02 -2.33274 2.43073 0
M  V30 13725 O 1278.55 -3.39493 2.14726 0
M  V30 13726 N 1276.76 -2.06189 2.04779 0
M  V30 13727 H 1276.3 -1.19829 2.28033 0
M  V30 13728 H 1276.26 -2.7516 1.521 0
M  V30 13729 N 1280.03 -1.55556 0.252993 0
M  V30 13730 C 1281.26 -2.03945 -0.376965 0
M  V30 13731 C 1281.68 -1.13089 -1.50308 0
M  V30 13732 O 1281.04 -0.125039 -1.80868 0
M  V30 13733 C 1281.09 -3.50284 -0.856363 0
M  V30 13734 O 1280.19 -3.62551 -1.96546 0
M  V30 13735 H 1279.54 -0.659002 -0.081317 0
M  V30 13736 H 1282.07 -2.01024 0.380831 0
M  V30 13737 H 1282.08 -3.91222 -1.15798 0
M  V30 13738 H 1280.75 -4.15887 -0.0323302 0
M  V30 13739 H 1279.33 -3.33511 -1.66808 0
M  V30 13740 N 1281.51 0.0200419 -1.57587 0
M  V30 13741 C 1282.74 0.724241 -1.94344 0
M  V30 13742 C 1283.16 1.67612 -0.853688 0
M  V30 13743 O 1282.52 1.80303 0.189873 0
M  V30 13744 C 1282.57 1.44967 -3.30177 0
M  V30 13745 O 1281.67 2.56326 -3.23064 0
M  V30 13746 H 1281.01 0.194142 -0.634984 0
M  V30 13747 H 1283.54 -0.0271756 -2.04582 0
M  V30 13748 H 1283.55 1.81758 -3.65278 0
M  V30 13749 H 1282.23 0.75161 -4.09052 0
M  V30 13750 H 1280.81 2.22011 -2.99609 0
M  V30 13751 N 1282.99 1.54862 0.292472 0
M  V30 13752 C 1284.27 1.65237 1.04671 0
M  V30 13753 C 1284.65 0.506168 2.04942 0
M  V30 13754 O 1284 -0.496123 2.23049 0
M  V30 13755 C 1284.21 3.03618 1.72095 0
M  V30 13756 C 1285.55 3.6072 2.23979 0
M  V30 13757 O 1286.58 3.06126 1.82114 0
M  V30 13758 O 1285.44 4.56328 3.0071 0
M  V30 13759 H 1282.53 0.670347 0.484319 0
M  V30 13760 H 1285.08 1.67206 0.28988 0
M  V30 13761 H 1283.85 3.78482 0.993324 0
M  V30 13762 H 1283.47 3.05464 2.54514 0
M  V30 13763 N 1284.47 -0.556076 1.47464 0
M  V30 13764 C 1285.4 -1.67275 1.62915 0
M  V30 13765 C 1286.38 -1.63229 0.478562 0
M  V30 13766 O 1287.56 -1.80833 0.708032 0
M  V30 13767 C 1284.69 -3.05911 1.64426 0
M  V30 13768 C 1283.65 -3.24804 2.78722 0
M  V30 13769 C 1282.97 -4.64238 2.65307 0
M  V30 13770 C 1284.27 -3.10071 4.20302 0
M  V30 13771 H 1285.97 -1.54601 2.56396 0
M  V30 13772 H 1283.51 -0.742337 1.23391 0
M  V30 13773 H 1285.47 -3.83878 1.73826 0
M  V30 13774 H 1284.19 -3.19547 0.675053 0
M  V30 13775 H 1282.85 -2.49246 2.68835 0
M  V30 13776 H 1282.5 -4.74675 1.66412 0
M  V30 13777 H 1282.2 -4.77828 3.41986 0
M  V30 13778 H 1283.72 -5.44339 2.76637 0
M  V30 13779 H 1285.14 -3.77855 4.3116 0
M  V30 13780 H 1283.53 -3.3517 4.97776 0
M  V30 13781 H 1284.6 -2.06803 4.38589 0
M  V30 13782 N 1285.95 -1.35615 -0.802897 0
M  V30 13783 C 1287.17 -1.32377 -1.59659 0
M  V30 13784 C 1287.6 0.0954235 -1.87858 0
M  V30 13785 O 1286.96 1.06336 -1.46842 0
M  V30 13786 C 1287 -2.13972 -2.90256 0
M  V30 13787 O 1286.11 -1.52296 -3.83249 0
M  V30 13788 H 1285.45 -0.453699 -0.484823 0
M  V30 13789 H 1287.98 -1.78708 -0.996217 0
M  V30 13790 H 1287.99 -2.26061 -3.39647 0
M  V30 13791 H 1286.66 -3.17145 -2.69057 0
M  V30 13792 H 1285.24 -1.49068 -3.41809 0
M  V30 13793 N 1287.43 1.02549 -1.19673 0
M  V30 13794 C 1288.39 2.09064 -0.939407 0
M  V30 13795 C 1289.39 1.60593 0.0814837 0
M  V30 13796 O 1290.58 1.73521 -0.153626 0
M  V30 13797 C 1287.71 3.38395 -0.412513 0
M  V30 13798 H 1288.9 2.33325 -1.88413 0
M  V30 13799 H 1286.46 1.19211 -1.01086 0
M  V30 13800 H 1287.19 3.19805 0.538094 0
M  V30 13801 H 1286.98 3.74898 -1.14863 0
M  V30 13802 H 1288.47 4.16841 -0.251678 0
M  V30 13803 N 1288.9 1.00119 1.21713 0
M  V30 13804 C 1289.85 0.558388 2.23943 0
M  V30 13805 C 1290.82 -0.413576 1.60869 0
M  V30 13806 O 1292.01 -0.316478 1.88157 0
M  V30 13807 C 1289.15 -0.112618 3.44916 0
M  V30 13808 C 1288.26 0.902071 4.22477 0
M  V30 13809 C 1287.39 0.203722 5.30809 0
M  V30 13810 C 1286.43 1.20622 6.00097 0
M  V30 13811 N 1285.57 0.535607 7.00054 0
M  V30 13812 H 1290.41 1.43486 2.61182 0
M  V30 13813 H 1287.95 0.718572 1.28355 0
M  V30 13814 H 1289.9 -0.51865 4.13964 0
M  V30 13815 H 1288.53 -0.952827 3.08417 0
M  V30 13816 H 1287.59 1.42637 3.52645 0
M  V30 13817 H 1288.9 1.66513 4.70186 0
M  V30 13818 H 1288.05 -0.258614 6.06149 0
M  V30 13819 H 1286.79 -0.591773 4.84096 0
M  V30 13820 H 1285.8 1.6791 5.23532 0
M  V30 13821 H 1287.02 2.00273 6.48897 0
M  V30 13822 H 1284.97 -0.2403 6.5556 0
M  V30 13823 H 1284.88 1.23698 7.45812 0
M  V30 13824 H 1286.15 0.0963489 7.7944 0
M  V30 13825 N 1290.38 -1.37203 0.775435 0
M  V30 13826 C 1291.79 -1.82224 0.406372 0
M  V30 13827 C 1292.14 -1.64587 -1.06796 0
M  V30 13828 O 1291.27 -1.15903 -1.82744 0
M  V30 13829 C 1291.86 -3.30824 0.730819 0
M  V30 13830 C 1290.42 -3.74108 0.414766 0
M  V30 13831 C 1289.57 -2.59679 0.972747 0
M  V30 13832 H 1292.52 -1.25623 0.969775 0
M  V30 13833 H 1292.54 -3.80496 0.0168066 0
M  V30 13834 H 1292.05 -3.43628 1.80392 0
M  V30 13835 H 1290.15 -3.66871 -0.650866 0
M  V30 13836 H 1290.27 -4.70074 0.925595 0
M  V30 13837 H 1288.63 -2.51591 0.396772 0
M  V30 13838 H 1289.41 -2.75274 2.05132 0
M  V30 13839 N 1291.86 -0.526279 -1.48553 0
M  V30 13840 C 1292.81 0.238513 -2.29564 0
M  V30 13841 C 1293.78 0.937222 -1.37133 0
M  V30 13842 O 1294.96 0.93897 -1.66096 0
M  V30 13843 C 1292.1 1.28173 -3.20415 0
M  V30 13844 C 1291.21 0.592244 -4.27921 0
M  V30 13845 C 1290.35 1.61808 -5.05956 0
M  V30 13846 C 1289.39 0.911846 -6.0527 0
M  V30 13847 N 1288.53 1.88305 -6.76377 0
M  V30 13848 H 1293.37 -0.458502 -2.94452 0
M  V30 13849 H 1290.9 -0.237948 -1.45163 0
M  V30 13850 H 1292.86 1.89883 -3.71484 0
M  V30 13851 H 1291.49 1.94718 -2.57458 0
M  V30 13852 H 1290.54 -0.138714 -3.80147 0
M  V30 13853 H 1291.85 0.0375427 -4.98786 0
M  V30 13854 H 1291.01 2.30956 -5.61021 0
M  V30 13855 H 1289.75 2.20667 -4.34922 0
M  V30 13856 H 1288.75 0.206273 -5.49413 0
M  V30 13857 H 1289.98 0.329415 -6.78301 0
M  V30 13858 H 1287.92 2.46079 -6.08096 0
M  V30 13859 H 1287.84 1.37969 -7.43304 0
M  V30 13860 H 1289.11 2.56663 -7.36033 0
M  V30 13861 N 1293.34 1.5542 -0.261239 0
M  V30 13862 C 1294.58 1.99284 0.359487 0
M  V30 13863 C 1294.91 1.14954 1.56894 0
M  V30 13864 O 1294.17 0.203796 1.94636 0
M  V30 13865 C 1294.47 3.48354 0.799021 0
M  V30 13866 C 1294.13 4.49872 -0.30426 0
M  V30 13867 C 1292.79 4.77353 -0.607237 0
M  V30 13868 C 1295.15 5.10547 -1.04838 0
M  V30 13869 C 1292.47 5.62781 -1.65816 0
M  V30 13870 C 1294.83 5.97115 -2.08893 0
M  V30 13871 C 1293.49 6.22923 -2.3984 0
M  V30 13872 H 1292.76 0.72923 0.131546 0
M  V30 13873 H 1295.41 1.87851 -0.372058 0
M  V30 13874 H 1293.71 3.57192 1.61001 0
M  V30 13875 H 1295.41 3.7969 1.28981 0
M  V30 13876 H 1292 4.28561 -0.0579863 0
M  V30 13877 H 1296.18 4.89352 -0.827566 0
M  V30 13878 H 1291.44 5.81026 -1.90311 0
M  V30 13879 H 1295.61 6.43168 -2.67035 0
M  V30 13880 H 1293.24 6.88912 -3.2141 0
M  V30 13881 N 1294.82 -0.0116844 1.57596 0
M  V30 13882 C 1296.04 -0.713924 1.94725 0
M  V30 13883 C 1296.47 -1.67157 0.862565 0
M  V30 13884 O 1295.82 -1.80401 -0.180308 0
M  V30 13885 C 1295.87 -1.43214 3.30941 0
M  V30 13886 O 1294.98 -2.5461 3.24419 0
M  V30 13887 H 1294.32 -0.190772 0.636005 0
M  V30 13888 H 1296.85 0.0380247 2.04565 0
M  V30 13889 H 1296.86 -1.79819 3.66237 0
M  V30 13890 H 1295.53 -0.729906 4.09445 0
M  V30 13891 H 1294.11 -2.20419 3.00782 0
M  V30 13892 N 1296.29 -1.55015 -0.284256 0
M  V30 13893 C 1297.24 -1.87122 -1.35107 0
M  V30 13894 C 1298.21 -0.721638 -1.49605 0
M  V30 13895 O 1299.4 -0.971855 -1.64194 0
M  V30 13896 C 1296.54 -2.1388 -2.70831 0
M  V30 13897 C 1295.65 -3.41447 -2.64647 0
M  V30 13898 C 1294.78 -3.57961 -3.92476 0
M  V30 13899 C 1293.82 -4.79261 -3.80757 0
M  V30 13900 N 1292.96 -4.92492 -5.00395 0
M  V30 13901 H 1297.8 -2.78117 -1.07027 0
M  V30 13902 H 1295.34 -1.37704 -0.517311 0
M  V30 13903 H 1297.29 -2.27391 -3.49784 0
M  V30 13904 H 1295.92 -1.26132 -2.97137 0
M  V30 13905 H 1294.98 -3.36467 -1.77466 0
M  V30 13906 H 1296.29 -4.3053 -2.51884 0
M  V30 13907 H 1295.44 -3.71229 -4.79868 0
M  V30 13908 H 1294.18 -2.67042 -4.08093 0
M  V30 13909 H 1293.19 -4.66008 -2.91747 0
M  V30 13910 H 1294.41 -5.71604 -3.66669 0
M  V30 13911 H 1292.36 -4.04501 -5.16445 0
M  V30 13912 H 1292.27 -5.75603 -4.9012 0
M  V30 13913 H 1293.54 -5.10134 -5.89392 0
M  V30 13914 N 1297.77 0.548248 -1.47757 0
M  V30 13915 C 1299.18 1.13033 -1.48595 0
M  V30 13916 C 1299.53 1.94657 -0.245575 0
M  V30 13917 O 1298.66 2.06445 0.648813 0
M  V30 13918 C 1299.25 2.05657 -2.69241 0
M  V30 13919 C 1297.81 2.59119 -2.73009 0
M  V30 13920 C 1296.96 1.35686 -2.41836 0
M  V30 13921 H 1299.91 0.334397 -1.55137 0
M  V30 13922 H 1299.93 2.89671 -2.4672 0
M  V30 13923 H 1299.44 1.46222 -3.595 0
M  V30 13924 H 1297.54 3.22327 -1.86912 0
M  V30 13925 H 1297.66 2.99501 -3.73946 0
M  V30 13926 H 1296.02 1.66659 -1.92606 0
M  V30 13927 H 1296.8 0.780311 -3.34314 0
M  V30 13928 N 1299.25 1.36039 0.795694 0
M  V30 13929 C 1300.5 1.29919 1.5533 0
M  V30 13930 C 1300.82 -0.123325 1.94109 0
M  V30 13931 O 1300.08 -1.09115 1.62457 0
M  V30 13932 C 1300.38 2.16166 2.84617 0
M  V30 13933 C 1300.04 3.64805 2.65006 0
M  V30 13934 C 1298.71 4.05319 2.59365 0
M  V30 13935 C 1301.06 4.59073 2.46781 0
M  V30 13936 C 1298.39 5.38251 2.33458 0
M  V30 13937 C 1300.74 5.92216 2.22402 0
M  V30 13938 C 1299.4 6.31862 2.1519 0
M  V30 13939 H 1298.67 0.475408 0.568391 0
M  V30 13940 H 1301.32 1.68035 0.918512 0
M  V30 13941 H 1299.62 1.70967 3.5253 0
M  V30 13942 H 1301.32 2.0876 3.42375 0
M  V30 13943 H 1297.91 3.32662 2.70248 0
M  V30 13944 H 1302.1 4.28651 2.50144 0
M  V30 13945 H 1297.35 5.67957 2.26352 0
M  V30 13946 H 1301.53 6.64833 2.07293 0
M  V30 13947 H 1299.15 7.34797 1.94878 0
M  V30 13948 N 1300.73 -1.01913 1.20215 0
M  V30 13949 C 1301.68 -2.12516 0.945493 0
M  V30 13950 C 1302.67 -1.69091 -0.102243 0
M  V30 13951 O 1303.88 -1.79936 0.047888 0
M  V30 13952 H 1300.25 -0.694496 0.288409 0
M  V30 13953 H 1302.22 -2.31349 1.88468 0
M  V30 13954 C 1300.97 -3.43919 0.51137 0
M  V30 13955 H 1300.29 -3.77758 1.30916 0
M  V30 13956 H 1301.73 -4.22374 0.370981 0
M  V30 13957 C 1300.19 -3.27844 -0.775902 0
M  V30 13958 O 1300.72 -3.5734 -1.83496 0
M  V30 13959 N 1298.93 -2.81101 -0.73694 0
M  V30 13960 H 1298.48 -2.57296 0.125164 0
M  V30 13961 H 1298.43 -2.70726 -1.59859 0
M  V30 13962 N 1302.21 -1.00763 -1.2118 0
M  V30 13963 C 1303.62 -0.724746 -1.72059 0
M  V30 13964 C 1303.97 0.757413 -1.80991 0
M  V30 13965 O 1303.09 1.59152 -1.46627 0
M  V30 13966 C 1303.69 -1.30893 -3.12494 0
M  V30 13967 C 1302.25 -1.07511 -3.60719 0
M  V30 13968 C 1301.39 -1.42014 -2.38175 0
M  V30 13969 H 1304.35 -1.17821 -1.0632 0
M  V30 13970 H 1304.37 -0.694919 -3.741 0
M  V30 13971 H 1303.88 -2.38767 -3.05961 0
M  V30 13972 H 1301.98 -0.0136518 -3.72597 0
M  V30 13973 H 1302.09 -1.74885 -4.4604 0
M  V30 13974 H 1300.46 -0.838972 -2.40486 0
M  V30 13975 H 1301.24 -2.50924 -2.34291 0
M  V30 13976 N 1303.68 1.3679 -0.7827 0
M  V30 13977 C 1304.61 2.32721 -0.190604 0
M  V30 13978 C 1305.6 1.56321 0.670663 0
M  V30 13979 O 1306.78 1.84507 0.605871 0
M  V30 13980 C 1303.91 3.40564 0.680717 0
M  V30 13981 C 1302.86 4.27925 -0.080118 0
M  V30 13982 C 1302.19 5.26876 0.911361 0
M  V30 13983 C 1303.49 5.06738 -1.26545 0
M  V30 13984 H 1305.18 2.82488 -0.992023 0
M  V30 13985 H 1302.73 1.35818 -0.478484 0
M  V30 13986 H 1304.68 4.06659 1.10482 0
M  V30 13987 H 1303.41 2.89348 1.51477 0
M  V30 13988 H 1302.07 3.63376 -0.485125 0
M  V30 13989 H 1301.71 4.71936 1.74026 0
M  V30 13990 H 1301.41 5.8619 0.406762 0
M  V30 13991 H 1302.94 5.95846 1.33418 0
M  V30 13992 H 1304.35 5.65911 -0.917448 0
M  V30 13993 H 1302.75 5.75432 -1.70289 0
M  V30 13994 H 1303.82 4.38772 -2.06415 0
M  V30 13995 N 1305.16 0.53415 1.48272 0
M  V30 13996 C 1306.09 -0.263508 2.2768 0
M  V30 13997 C 1307.11 -0.90064 1.35618 0
M  V30 13998 O 1308.3 -0.778379 1.60635 0
M  V30 13999 C 1305.4 -1.38878 3.09138 0
M  V30 14000 C 1304.57 -0.852784 4.29006 0
M  V30 14001 C 1303.63 -1.85969 4.92242 0
M  V30 14002 O 1302.65 -1.41497 5.51332 0
M  V30 14003 N 1303.86 -3.19207 4.84858 0
M  V30 14004 H 1306.62 0.417548 2.96777 0
M  V30 14005 H 1304.18 0.368743 1.57645 0
M  V30 14006 H 1306.17 -2.06062 3.48311 0
M  V30 14007 H 1304.74 -1.97343 2.42434 0
M  V30 14008 H 1303.96 -0.0048227 3.942 0
M  V30 14009 H 1305.25 -0.473634 5.06591 0
M  V30 14010 H 1304.65 -3.58001 4.38009 0
M  V30 14011 H 1303.21 -3.82013 5.28119 0
M  V30 14012 N 1306.64 -1.55279 0.269478 0
M  V30 14013 C 1307.59 -2.23723 -0.636468 0
M  V30 14014 C 1308.58 -1.23234 -1.16232 0
M  V30 14015 O 1309.79 -1.41181 -1.1166 0
M  V30 14016 H 1306.16 -0.71793 -0.223788 0
M  V30 14017 H 1308.13 -2.98378 -0.0363057 0
M  V30 14018 C 1306.88 -2.96755 -1.81195 0
M  V30 14019 H 1306.21 -3.73865 -1.4165 0
M  V30 14020 H 1307.65 -3.47975 -2.42258 0
M  V30 14021 C 1306.11 -2.01905 -2.69696 0
M  V30 14022 O 1306.64 -1.56662 -3.69892 0
M  V30 14023 N 1304.84 -1.68524 -2.36744 0
M  V30 14024 H 1304.39 -2.05512 -1.55314 0
M  V30 14025 H 1304.35 -1.05331 -2.96231 0
M  V30 14026 N 1308.12 0.00332656 -1.576 0
M  V30 14027 C 1309.07 0.99581 -2.08212 0
M  V30 14028 C 1310.04 1.34342 -0.976804 0
M  V30 14029 O 1311.22 1.44236 -1.24902 0
M  V30 14030 C 1308.36 2.2836 -2.58739 0
M  V30 14031 C 1307.47 1.99531 -3.8316 0
M  V30 14032 C 1306.61 3.22367 -4.222 0
M  V30 14033 C 1305.65 2.89209 -5.39467 0
M  V30 14034 N 1304.78 4.04572 -5.73817 0
M  V30 14035 H 1309.62 0.55727 -2.92743 0
M  V30 14036 H 1307.16 0.263513 -1.4472 0
M  V30 14037 H 1309.12 3.03639 -2.86111 0
M  V30 14038 H 1307.75 2.69889 -1.77087 0
M  V30 14039 H 1306.8 1.14634 -3.62716 0
M  V30 14040 H 1308.11 1.71089 -4.6854 0
M  V30 14041 H 1307.27 4.05994 -4.50837 0
M  V30 14042 H 1306.01 3.53944 -3.35522 0
M  V30 14043 H 1305.01 2.03989 -5.10557 0
M  V30 14044 H 1306.24 2.58883 -6.27819 0
M  V30 14045 H 1304.18 4.36052 -4.90096 0
M  V30 14046 H 1304.1 3.79643 -6.53764 0
M  V30 14047 H 1305.37 4.88998 -6.07043 0
M  V30 14048 N 1309.6 1.55164 0.276031 0
M  V30 14049 C 1310.84 1.7528 1.00604 0
M  V30 14050 C 1311.17 0.555256 1.86928 0
M  V30 14051 O 1310.44 -0.429917 1.91124 0
M  V30 14052 H 1309.02 0.646377 0.374441 0
M  V30 14053 H 1311.68 1.92562 0.300992 0
M  V30 14054 H 1310.77 2.65245 1.64473 0
M  V30 14055 N 1311.07 -0.540404 1.48045 0
M  V30 14056 C 1312.02 -1.64191 1.58194 0
M  V30 14057 C 1313.01 -1.54775 0.439703 0
M  V30 14058 O 1314.2 -1.62973 0.690572 0
M  V30 14059 C 1311.33 -3.02937 1.61505 0
M  V30 14060 C 1310.42 -3.17495 2.81172 0
M  V30 14061 N 1310.81 -3.02061 4.05701 0
M  V30 14062 C 1309.1 -3.4853 2.78286 0
M  V30 14063 C 1309.81 -3.19757 4.85932 0
M  V30 14064 N 1308.78 -3.46859 4.18557 0
M  V30 14065 H 1312.58 -1.50852 2.52232 0
M  V30 14066 H 1310.1 -0.745602 1.44272 0
M  V30 14067 H 1312.09 -3.82048 1.66868 0
M  V30 14068 H 1310.75 -3.17376 0.685753 0
M  V30 14069 H 1311.77 -2.79038 4.363 0
M  V30 14070 H 1308.44 -3.69391 1.94567 0
M  V30 14071 H 1309.83 -3.1265 5.94727 0
M  V30 14072 N 1312.55 -1.36459 -0.788468 0
M  V30 14073 C 1313.78 -1.33703 -1.57502 0
M  V30 14074 C 1314.19 0.0834961 -1.89016 0
M  V30 14075 O 1313.53 1.05107 -1.50659 0
M  V30 14076 C 1313.6 -2.09424 -2.92201 0
M  V30 14077 C 1313.26 -3.58507 -2.83411 0
M  V30 14078 C 1314.26 -4.52736 -2.5559 0
M  V30 14079 C 1311.94 -4.01405 -3.01959 0
M  V30 14080 C 1313.94 -5.87841 -2.46419 0
M  V30 14081 C 1311.62 -5.366 -2.92409 0
M  V30 14082 C 1312.62 -6.29631 -2.64677 0
M  V30 14083 O 1312.31 -7.62343 -2.55124 0
M  V30 14084 H 1312.04 -0.460221 -0.495149 0
M  V30 14085 H 1314.59 -1.80163 -0.986437 0
M  V30 14086 H 1312.82 -1.5763 -3.53114 0
M  V30 14087 H 1314.51 -1.99515 -3.53481 0
M  V30 14088 H 1315.28 -4.20906 -2.40962 0
M  V30 14089 H 1311.16 -3.29367 -3.2255 0
M  V30 14090 H 1314.7 -6.60423 -2.24694 0
M  V30 14091 H 1310.6 -5.68038 -3.066 0
M  V30 14092 H 1311.37 -7.72476 -2.70598 0
M  V30 14093 N 1314.03 1.01274 -1.20754 0
M  V30 14094 C 1314.99 2.08056 -0.961528 0
M  V30 14095 C 1315.99 1.60671 0.0644461 0
M  V30 14096 O 1317.18 1.73349 -0.172022 0
M  V30 14097 C 1314.32 3.37938 -0.448381 0
M  V30 14098 H 1315.51 2.31314 -1.90877 0
M  V30 14099 H 1313.06 1.18133 -1.02344 0
M  V30 14100 H 1313.8 3.20357 0.504144 0
M  V30 14101 H 1313.58 3.73659 -1.18833 0
M  V30 14102 H 1315.07 4.16551 -0.295876 0
M  V30 14103 N 1315.51 1.01404 1.20644 0
M  V30 14104 C 1316.76 0.701909 1.89946 0
M  V30 14105 C 1317.08 -0.768212 1.78686 0
M  V30 14106 O 1316.34 -1.57348 1.16363 0
M  V30 14107 C 1316.64 1.07995 3.40693 0
M  V30 14108 C 1316.3 2.54585 3.72152 0
M  V30 14109 C 1314.97 2.94639 3.80449 0
M  V30 14110 C 1317.32 3.49497 3.86654 0
M  V30 14111 C 1314.65 4.2855 4.00702 0
M  V30 14112 C 1317 4.83093 4.08416 0
M  V30 14113 C 1315.66 5.22857 4.14942 0
M  V30 14114 H 1314.93 0.256847 0.695062 0
M  V30 14115 H 1317.58 1.27415 1.4296 0
M  V30 14116 H 1315.88 0.426089 3.89476 0
M  V30 14117 H 1317.58 0.816176 3.92606 0
M  V30 14118 H 1314.17 2.22548 3.66292 0
M  V30 14119 H 1318.36 3.19713 3.79602 0
M  V30 14120 H 1313.61 4.58916 4.03988 0
M  V30 14121 H 1317.79 5.56565 4.18579 0
M  V30 14122 H 1315.41 6.26634 4.30388 0
M  V30 14123 N 1316.99 -1.36373 0.789944 0
M  V30 14124 C 1318.21 -2.04011 0.373396 0
M  V30 14125 C 1318.64 -1.59171 -1.00231 0
M  V30 14126 O 1318 -0.760431 -1.64582 0
M  V30 14127 C 1318.04 -3.5783 0.446083 0
M  V30 14128 O 1317.15 -4.08759 -0.54678 0
M  V30 14129 H 1316.49 -0.644807 0.158495 0
M  V30 14130 H 1319.02 -1.74317 1.0712 0
M  V30 14131 H 1319.03 -4.06822 0.309877 0
M  V30 14132 H 1317.7 -3.89819 1.44962 0
M  V30 14133 H 1316.28 -3.71038 -0.372192 0
M  V30 14134 N 1318.47 -0.542005 -1.47987 0
M  V30 14135 C 1319.42 0.234244 -2.26794 0
M  V30 14136 C 1320.4 0.899085 -1.33436 0
M  V30 14137 O 1321.59 0.799904 -1.57894 0
M  V30 14138 C 1318.72 1.27312 -3.18821 0
M  V30 14139 C 1317.81 0.612457 -4.19654 0
M  V30 14140 N 1318.2 -0.30875 -5.04857 0
M  V30 14141 C 1316.5 0.868224 -4.37468 0
M  V30 14142 C 1317.2 -0.691052 -5.77581 0
M  V30 14143 N 1316.17 -0.0493574 -5.43578 0
M  V30 14144 H 1319.97 -0.47427 -2.90048 0
M  V30 14145 H 1317.49 -0.360868 -1.5834 0
M  V30 14146 H 1319.49 1.84305 -3.73948 0
M  V30 14147 H 1318.15 1.98288 -2.57122 0
M  V30 14148 H 1319.16 -0.682054 -5.13389 0
M  V30 14149 H 1315.83 1.56765 -3.86951 0
M  V30 14150 H 1317.22 -1.44713 -6.56131 0
M  V30 14151 N 1319.94 1.55134 -0.277709 0
M  V30 14152 C 1321.17 2.04061 0.341601 0
M  V30 14153 C 1321.59 1.15597 1.49274 0
M  V30 14154 O 1320.94 0.176625 1.81643 0
M  V30 14155 C 1320.99 3.52074 0.820139 0
M  V30 14156 O 1320.72 4.37171 -0.28516 0
M  V30 14157 C 1322.22 4.16899 1.507 0
M  V30 14158 H 1319.44 0.666501 0.0775708 0
M  V30 14159 H 1321.98 2.00336 -0.410559 0
M  V30 14160 H 1320.14 3.56233 1.52238 0
M  V30 14161 H 1320.55 5.24434 0.0832022 0
M  V30 14162 H 1322.02 5.22061 1.79323 0
M  V30 14163 H 1322.5 3.65227 2.43939 0
M  V30 14164 H 1323.11 4.16749 0.848541 0
M  V30 14165 N 1321.42 0.00503138 1.57599 0
M  V30 14166 C 1322.67 -0.67742 1.90409 0
M  V30 14167 C 1322.99 -1.74033 0.87963 0
M  V30 14168 O 1322.26 -1.95727 -0.0822757 0
M  V30 14169 H 1320.84 -0.2532 0.702779 0
M  V30 14170 H 1323.5 0.0471466 1.94843 0
M  V30 14171 H 1322.6 -1.14548 2.90319 0
M  V30 14172 N 1322.9 -1.55308 -0.267798 0
M  V30 14173 C 1324.18 -1.66881 -1.02029 0
M  V30 14174 C 1324.56 -0.538708 -2.04111 0
M  V30 14175 O 1323.9 0.460575 -2.2381 0
M  V30 14176 C 1324.11 -3.06318 -1.67243 0
M  V30 14177 C 1325.46 -3.64237 -2.18212 0
M  V30 14178 O 1326.49 -3.08984 -1.77221 0
M  V30 14179 O 1325.35 -4.61055 -2.93413 0
M  V30 14180 H 1322.44 -0.677967 -0.473593 0
M  V30 14181 H 1324.99 -1.67646 -0.263242 0
M  V30 14182 H 1323.76 -3.80015 -0.932985 0
M  V30 14183 H 1323.38 -3.09475 -2.49622 0
M  V30 14184 N 1324.38 0.532545 -1.4833 0
M  V30 14185 C 1325.6 1.31809 -1.60129 0
M  V30 14186 C 1326.03 1.86283 -0.260807 0
M  V30 14187 O 1325.39 1.6427 0.767137 0
M  V30 14188 C 1325.43 2.44661 -2.64903 0
M  V30 14189 O 1324.54 3.47622 -2.21885 0
M  V30 14190 H 1323.88 0.390492 -0.53704 0
M  V30 14191 H 1326.41 0.641068 -1.94297 0
M  V30 14192 H 1326.42 2.90883 -2.86096 0
M  V30 14193 H 1325.09 2.04373 -3.62222 0
M  V30 14194 H 1323.67 3.07536 -2.10894 0
M  V30 14195 N 1325.86 1.36875 0.78122 0
M  V30 14196 C 1327.08 1.349 1.57533 0
M  V30 14197 C 1327.51 -0.0655249 1.87986 0
M  V30 14198 O 1326.86 -1.03986 1.48515 0
M  V30 14199 C 1326.91 2.18562 2.86815 0
M  V30 14200 O 1326.02 1.58374 3.80777 0
M  V30 14201 H 1325.36 0.461355 0.477543 0
M  V30 14202 H 1327.89 1.80271 0.96766 0
M  V30 14203 H 1327.9 2.31436 3.36008 0
M  V30 14204 H 1326.57 3.21385 2.63978 0
M  V30 14205 H 1325.15 1.54487 3.39394 0
M  V30 14206 N 1327.33 -1.00632 1.21289 0
M  V30 14207 C 1328.61 -1.71635 0.938124 0
M  V30 14208 C 1328.99 -2.03798 -0.550416 0
M  V30 14209 O 1328.34 -1.71065 -1.5149 0
M  V30 14210 C 1328.55 -2.97674 1.82184 0
M  V30 14211 C 1329.9 -3.7073 2.06989 0
M  V30 14212 O 1330.92 -3.07653 1.79522 0
M  V30 14213 O 1329.78 -4.84183 2.53435 0
M  V30 14214 H 1326.87 -0.748506 0.351664 0
M  V30 14215 H 1329.42 -1.06387 1.32212 0
M  V30 14216 H 1328.19 -2.70306 2.82931 0
M  V30 14217 H 1327.81 -3.70663 1.43858 0
M  V30 14218 N 1328.81 -1.02043 -1.20104 0
M  V30 14219 C 1329.76 -0.587332 -2.25063 0
M  V30 14220 C 1330.75 0.375844 -1.65178 0
M  V30 14221 O 1331.96 0.245347 -1.7832 0
M  V30 14222 H 1328.33 -0.171637 -0.732151 0
M  V30 14223 H 1330.31 -1.48339 -2.58917 0
M  V30 14224 C 1329.05 0.0546893 -3.47657 0
M  V30 14225 H 1328.38 -0.677457 -3.94018 0
M  V30 14226 H 1329.82 0.320786 -4.22785 0
M  V30 14227 C 1328.28 1.29869 -3.10863 0
M  V30 14228 O 1328.81 2.39161 -3.22746 0
M  V30 14229 N 1327.01 1.18423 -2.65376 0
M  V30 14230 H 1326.56 0.294895 -2.55906 0
M  V30 14231 H 1326.52 2.01755 -2.41128 0
M  V30 14232 N 1330.29 1.35952 -0.797165 0
M  V30 14233 C 1331.54 1.98283 -0.369685 0
M  V30 14234 C 1331.85 1.63968 1.06649 0
M  V30 14235 O 1333.06 2.19591 1.59662 0
M  V30 14236 C 1331.51 3.54692 -0.610046 0
M  V30 14237 C 1331.12 3.97925 -2.05814 0
M  V30 14238 C 1332.87 4.23778 -0.247457 0
M  V30 14239 C 1330.77 5.47142 -2.24475 0
M  V30 14240 H 1329.7 0.741909 -0.134489 0
M  V30 14241 H 1332.35 1.55146 -0.979893 0
M  V30 14242 H 1330.74 3.95938 0.0699822 0
M  V30 14243 H 1331.91 3.67857 -2.77521 0
M  V30 14244 H 1330.23 3.417 -2.37971 0
M  V30 14245 H 1332.82 5.33452 -0.365059 0
M  V30 14246 H 1333.17 4.08436 0.805315 0
M  V30 14247 H 1333.7 3.87921 -0.881028 0
M  V30 14248 H 1330.44 5.67441 -3.28163 0
M  V30 14249 H 1329.96 5.78811 -1.57282 0
M  V30 14250 H 1331.64 6.13475 -2.05567 0
M  V30 14251 N 1331.77 0.549846 1.47697 0
M  V30 14252 C 1332.7 -0.249645 2.2683 0
M  V30 14253 C 1333.68 -0.926968 1.33589 0
M  V30 14254 O 1334.86 -0.947423 1.62961 0
M  V30 14255 C 1331.99 -1.35511 3.1041 0
M  V30 14256 C 1331.04 -0.787118 4.19174 0
M  V30 14257 S 1331.87 0.360564 5.34285 0
M  V30 14258 C 1333.03 -0.746898 6.21428 0
M  V30 14259 H 1333.26 0.421876 2.94292 0
M  V30 14260 H 1330.79 0.336017 1.50699 0
M  V30 14261 H 1332.75 -1.98825 3.59137 0
M  V30 14262 H 1331.41 -1.99844 2.42325 0
M  V30 14263 H 1330.6 -1.61704 4.77355 0
M  V30 14264 H 1330.21 -0.230301 3.7329 0
M  V30 14265 H 1332.5 -1.6408 6.57331 0
M  V30 14266 H 1333.44 -0.202608 7.0781 0
M  V30 14267 H 1333.85 -1.03625 5.54907 0
M  V30 14268 N 1333.25 -1.54984 0.285932 0
M  V30 14269 C 1334.18 -2.25916 -0.590259 0
M  V30 14270 C 1335.16 -1.25319 -1.15018 0
M  V30 14271 O 1336.34 -1.54062 -1.18231 0
M  V30 14272 C 1333.47 -2.98849 -1.76936 0
M  V30 14273 C 1332.43 -4.06466 -1.3405 0
M  V30 14274 C 1331.75 -4.67032 -2.60356 0
M  V30 14275 C 1333.05 -5.20064 -0.482754 0
M  V30 14276 H 1334.75 -2.994 0.00131571 0
M  V30 14277 H 1332.29 -1.44 0.00207281 0
M  V30 14278 H 1334.25 -3.47186 -2.3883 0
M  V30 14279 H 1332.97 -2.22918 -2.38694 0
M  V30 14280 H 1331.63 -3.58957 -0.7447 0
M  V30 14281 H 1331.28 -3.87757 -3.20396 0
M  V30 14282 H 1330.98 -5.39703 -2.32368 0
M  V30 14283 H 1332.5 -5.18124 -3.23079 0
M  V30 14284 H 1333.91 -5.64387 -1.00697 0
M  V30 14285 H 1332.31 -5.99363 -0.297291 0
M  V30 14286 H 1333.38 -4.82358 0.495861 0
M  V30 14287 N 1334.72 -0.0133892 -1.57594 0
M  V30 14288 C 1335.95 0.679255 -1.95432 0
M  V30 14289 C 1336.37 1.66558 -0.889028 0
M  V30 14290 O 1335.72 1.82031 0.130755 0
M  V30 14291 C 1335.78 1.39943 -3.33314 0
M  V30 14292 O 1335.5 0.452643 -4.35755 0
M  V30 14293 C 1337 2.18535 -3.85691 0
M  V30 14294 H 1334.22 0.188337 -0.644026 0
M  V30 14295 H 1336.76 -0.0684861 -2.04385 0
M  V30 14296 H 1334.92 2.0987 -3.25628 0
M  V30 14297 H 1335.33 0.962243 -5.15598 0
M  V30 14298 H 1336.8 2.64403 -4.84557 0
M  V30 14299 H 1337.28 3.01779 -3.19102 0
M  V30 14300 H 1337.89 1.53598 -3.96595 0
M  V30 14301 N 1336.2 1.55448 0.259558 0
M  V30 14302 C 1337.13 1.85678 1.34373 0
M  V30 14303 C 1338.15 0.742155 1.449 0
M  V30 14304 O 1339.34 1.02015 1.46476 0
M  V30 14305 C 1336.44 2.01668 2.72366 0
M  V30 14306 C 1335.61 3.32434 2.84265 0
M  V30 14307 C 1334.67 3.38322 4.03019 0
M  V30 14308 O 1333.69 4.11616 3.93143 0
M  V30 14309 N 1334.9 2.66697 5.1561 0
M  V30 14310 H 1337.66 2.79261 1.08781 0
M  V30 14311 H 1335.22 1.5553 0.449672 0
M  V30 14312 H 1337.21 2.02963 3.50126 0
M  V30 14313 H 1335.78 1.14889 2.90722 0
M  V30 14314 H 1335 3.43564 1.93281 0
M  V30 14315 H 1336.29 4.18649 2.89155 0
M  V30 14316 H 1335.69 2.06857 5.26523 0
M  V30 14317 H 1334.25 2.73699 5.91551 0
M  V30 14318 N 1337.68 -0.524672 1.4861 0
M  V30 14319 C 1338.93 -1.28021 1.56898 0
M  V30 14320 C 1339.26 -1.92948 0.245203 0
M  V30 14321 O 1338.51 -1.8013 -0.764966 0
M  V30 14322 C 1338.81 -2.3871 2.65993 0
M  V30 14323 C 1338.48 -1.914 4.08261 0
M  V30 14324 C 1337.14 -1.78215 4.46982 0
M  V30 14325 C 1339.49 -1.55713 4.97396 0
M  V30 14326 C 1336.82 -1.27687 5.72637 0
M  V30 14327 C 1339.17 -1.06645 6.23546 0
M  V30 14328 C 1337.83 -0.920818 6.61118 0
M  V30 14329 H 1337.1 -0.468461 0.57413 0
M  V30 14330 H 1339.75 -0.584901 1.82349 0
M  V30 14331 H 1338.06 -3.13932 2.34422 0
M  V30 14332 H 1339.75 -2.96827 2.6962 0
M  V30 14333 H 1336.34 -2.02614 3.77684 0
M  V30 14334 H 1340.53 -1.64757 4.68155 0
M  V30 14335 H 1335.78 -1.15103 6.00468 0
M  V30 14336 H 1339.96 -0.781048 6.92006 0
M  V30 14337 H 1337.58 -0.527091 7.5837 0
M  V30 14338 N 1339.16 -1.37287 -0.77395 0
M  V30 14339 C 1340.4 -1.3257 -1.5347 0
M  V30 14340 C 1340.74 0.090346 -1.9399 0
M  V30 14341 O 1340.01 1.04719 -1.63903 0
M  V30 14342 C 1340.3 -2.26277 -2.80126 0
M  V30 14343 C 1340.15 -3.76651 -2.45874 0
M  V30 14344 C 1341.47 -2.18471 -3.82045 0
M  V30 14345 H 1338.59 -0.48289 -0.556764 0
M  V30 14346 H 1341.23 -1.6797 -0.888039 0
M  V30 14347 H 1339.38 -1.96219 -3.35306 0
M  V30 14348 H 1341.05 -4.17296 -1.96626 0
M  V30 14349 H 1339.29 -3.95327 -1.78602 0
M  V30 14350 H 1339.96 -4.3765 -3.36403 0
M  V30 14351 H 1342.44 -2.44962 -3.36352 0
M  V30 14352 H 1341.32 -2.86183 -4.68392 0
M  V30 14353 H 1341.58 -1.17692 -4.26147 0
M  V30 14354 N 1340.64 0.999871 -1.21821 0
M  V30 14355 C 1341.86 1.7794 -1.06546 0
M  V30 14356 C 1342.29 1.84219 0.380115 0
M  V30 14357 O 1341.64 1.28955 1.27438 0
M  V30 14358 C 1341.69 3.1943 -1.67322 0
M  V30 14359 O 1340.8 4.01957 -0.922171 0
M  V30 14360 H 1340.14 0.548204 -0.374658 0
M  V30 14361 H 1342.67 1.2565 -1.61472 0
M  V30 14362 H 1342.68 3.70086 -1.71757 0
M  V30 14363 H 1341.35 3.14175 -2.7252 0
M  V30 14364 H 1339.93 3.60509 -0.95331 0
M  V30 14365 N 1342.11 1.02678 1.19562 0
M  V30 14366 C 1343.06 0.599259 2.24748 0
M  V30 14367 C 1344.06 -0.367079 1.65375 0
M  V30 14368 O 1345.26 -0.235887 1.78448 0
M  V30 14369 H 1341.64 0.175517 0.73123 0
M  V30 14370 H 1343.61 1.4971 2.58127 0
M  V30 14371 C 1342.36 -0.0362515 3.47681 0
M  V30 14372 H 1341.68 0.698343 3.93654 0
M  V30 14373 H 1343.12 -0.298361 4.22949 0
M  V30 14374 C 1341.58 -1.28218 3.11547 0
M  V30 14375 O 1342.11 -2.37446 3.24009 0
M  V30 14376 N 1340.32 -1.17014 2.66 0
M  V30 14377 H 1339.86 -0.28132 2.56059 0
M  V30 14378 H 1339.82 -2.00473 2.42194 0
M  V30 14379 N 1343.59 -1.35528 0.804364 0
M  V30 14380 C 1344.5 -2.33616 0.214663 0
M  V30 14381 C 1345.52 -1.61757 -0.64115 0
M  V30 14382 O 1346.69 -1.93647 -0.553424 0
M  V30 14383 C 1343.76 -3.40951 -0.628778 0
M  V30 14384 C 1342.82 -4.28587 0.247269 0
M  V30 14385 C 1342.05 -5.30796 -0.556012 0
M  V30 14386 O 1342.28 -5.41557 -1.79088 0
M  V30 14387 O 1341.21 -6.01878 0.0519437 0
M  V30 14388 H 1345.04 -2.85843 1.02605 0
M  V30 14389 H 1342.62 -1.38259 0.566108 0
M  V30 14390 H 1344.5 -4.06538 -1.10926 0
M  V30 14391 H 1343.18 -2.90999 -1.4178 0
M  V30 14392 H 1342.09 -3.65988 0.774835 0
M  V30 14393 H 1343.42 -4.81931 1.00017 0
M  V30 14394 O 1345.11 -0.698724 -1.45603 0
M  V30 14395 H 1345.8 -0.23847 -1.92226 0
M  V30 END ATOM
M  V30 BEGIN BOND
M  V30 END BOND
M  V30 END CTAB
M  END
$$$$
