drugbank_target|Q5XXA6 Anoctamin-1 (DB04941)
 OpenBabel12092120583D

  0  0  0     0  0            999 V3000
M  V30 BEGIN CTAB
M  V30 COUNTS 16102 16303 0 0 0
M  V30 BEGIN ATOM
M  V30 1 H -0.908 1.98254 -0.117106 0
M  V30 2 N 0 1.576 0 0
M  V30 3 C 0.933 2.03868 1.02534 0
M  V30 4 C 1.911 0.928543 1.3348 0
M  V30 5 O 3.095 1.19667 1.45644 0
M  V30 6 C 0.222 2.43627 2.35294 0
M  V30 7 C -0.732 3.65373 2.2001 0
M  V30 8 S 0.101 5.13292 1.52614 0
M  V30 9 C 1.257 5.56322 2.86805 0
M  V30 10 H 1.49 2.90518 0.631377 0
M  V30 11 H -0.977 1.52953 0.210867 0
M  V30 12 H 0.981 2.67203 3.11629 0
M  V30 13 H -0.358 1.57376 2.7183 0
M  V30 14 H -1.165 3.90944 3.18086 0
M  V30 15 H -1.563 3.418 1.51819 0
M  V30 16 H 0.729 5.58782 3.83104 0
M  V30 17 H 1.672 6.56266 2.65933 0
M  V30 18 H 2.08 4.83886 2.90714 0
M  V30 19 N 1.4781 -0.272755 1.55222 0
M  V30 20 C 2.8941 -0.619959 1.47067 0
M  V30 21 C 3.0941 -1.895 0.684978 0
M  V30 22 O 2.1501 -2.51675 0.203931 0
M  V30 23 C 3.4631 -0.746693 2.91282 0
M  V30 24 C 5.0111 -0.840731 3.01497 0
M  V30 25 C 5.4861 -0.99924 4.46967 0
M  V30 26 N 6.9771 -1.06476 4.50796 0
M  V30 27 C 7.7121 -1.20621 5.6057 0
M  V30 28 N 7.2081 -1.31483 6.80209 0
M  V30 29 N 9.0011 -1.23733 5.48312 0
M  V30 30 H 1.1521 0.564606 2.04758 0
M  V30 31 H 3.4151 0.191177 0.928523 0
M  V30 32 H 3.1211 0.119753 3.51496 0
M  V30 33 H 2.9951 -1.6269 3.40311 0
M  V30 34 H 5.3821 -1.69764 2.41379 0
M  V30 35 H 5.4631 0.0640874 2.5572 0
M  V30 36 H 5.1071 -0.146984 5.07687 0
M  V30 37 H 5.0371 -1.91871 4.90401 0
M  V30 38 H 7.5281 -0.993196 3.64615 0
M  V30 39 H 7.8411 -1.42111 7.59621 0
M  V30 40 H 6.1861 -1.28487 6.8302 0
M  V30 41 H 9.3771 -1.14877 4.53785 0
M  V30 42 H 9.5501 -1.34412 6.33906 0
M  V30 43 N 2.9562 -1.48159 -0.537278 0
M  V30 44 C 4.2022 -1.56035 -1.29541 0
M  V30 45 C 4.5352 -0.230377 -1.92829 0
M  V30 46 O 3.8102 0.762952 -1.78911 0
M  V30 47 C 4.0932 -2.69323 -2.39034 0
M  V30 48 C 3.9462 -4.12002 -1.80485 0
M  V30 49 C 5.2652 -2.78408 -3.40847 0
M  V30 50 H 2.3842 -0.567992 -0.469632 0
M  V30 51 H 5.0262 -1.80302 -0.599277 0
M  V30 52 H 3.1762 -2.48763 -2.98412 0
M  V30 53 H 4.8482 -4.43981 -1.25215 0
M  V30 54 H 3.0912 -4.19344 -1.11055 0
M  V30 55 H 3.7622 -4.87077 -2.59731 0
M  V30 56 H 6.2382 -2.97012 -2.91416 0
M  V30 57 H 5.1142 -3.59416 -4.14863 0
M  V30 58 H 5.3752 -1.86269 -4.00944 0
M  V30 59 N 4.4343 0.785586 -1.36625 0
M  V30 60 C 5.3823 1.91978 -1.31329 0
M  V30 61 C 6.3763 1.68162 -0.204416 0
M  V30 62 O 7.5823 1.76122 -0.371645 0
M  V30 63 H 3.9573 0.631087 -0.408942 0
M  V30 64 H 5.9283 1.93562 -2.27104 0
M  V30 65 C 4.6773 3.29055 -1.12329 0
M  V30 66 H 4.0003 3.4795 -1.96903 0
M  V30 67 H 5.4403 4.08756 -1.12671 0
M  V30 68 C 3.8993 3.36461 0.171861 0
M  V30 69 O 4.4293 3.84576 1.16035 0
M  V30 70 N 2.6353 2.89782 0.217846 0
M  V30 71 H 2.1823 2.50819 -0.587183 0
M  V30 72 H 2.1403 2.95119 1.08408 0
M  V30 73 N 5.9124 1.20967 1.01018 0
M  V30 74 C 6.8224 0.980157 2.13143 0
M  V30 75 C 7.8384 -0.0660665 1.73875 0
M  V30 76 O 9.0144 0.122821 2.01025 0
M  V30 77 C 6.0794 0.54216 3.42435 0
M  V30 78 C 5.1404 1.65999 3.95908 0
M  V30 79 C 4.3734 1.2428 5.19028 0
M  V30 80 O 4.5964 0.114196 5.70286 0
M  V30 81 O 3.5304 2.05271 5.65816 0
M  V30 82 H 7.3564 1.91913 2.35379 0
M  V30 83 H 4.9414 0.994099 1.11526 0
M  V30 84 H 6.8234 0.30744 4.20277 0
M  V30 85 H 5.4984 -0.36815 3.216 0
M  V30 86 H 4.4054 1.94906 3.19316 0
M  V30 87 H 5.7384 2.54753 4.21143 0
M  V30 88 N 7.3905 -1.2043 1.01659 0
M  V30 89 C 8.3375 -2.23215 0.586822 0
M  V30 90 C 9.3075 -1.61382 -0.393085 0
M  V30 91 O 10.4925 -1.88544 -0.292525 0
M  V30 92 C 7.6325 -3.45032 -0.0687464 0
M  V30 93 C 6.7455 -4.21296 0.955724 0
M  V30 94 C 5.8805 -5.30507 0.271208 0
M  V30 95 C 4.9195 -5.98515 1.28244 0
M  V30 96 N 4.0565 -6.99316 0.62459 0
M  V30 97 H 8.8965 -2.59336 1.46796 0
M  V30 98 H 6.4335 -1.27431 0.734836 0
M  V30 99 H 8.3915 -4.1459 -0.465965 0
M  V30 100 H 7.0215 -3.09604 -0.913529 0
M  V30 101 H 6.0735 -3.50803 1.4711 0
M  V30 102 H 7.3855 -4.6803 1.72479 0
M  V30 103 H 6.5395 -6.06428 -0.18151 0
M  V30 104 H 5.2785 -4.8481 -0.530163 0
M  V30 105 H 4.2835 -5.21355 1.74554 0
M  V30 106 H 5.5085 -6.46298 2.08509 0
M  V30 107 H 3.4545 -6.55812 -0.156914 0
M  V30 108 H 3.3715 -7.44178 1.33172 0
M  V30 109 H 4.6395 -7.79255 0.195462 0
M  V30 110 N 8.8686 -0.792821 -1.36206 0
M  V30 111 C 10.0986 -0.378275 -2.03107 0
M  V30 112 C 10.5066 1.01119 -1.59911 0
M  V30 113 O 9.8496 1.66052 -0.785658 0
M  V30 114 C 9.9116 -0.366535 -3.57627 0
M  V30 115 C 9.5756 -1.70416 -4.24037 0
M  V30 116 C 10.5726 -2.6602 -4.46687 0
M  V30 117 C 8.2576 -1.98439 -4.6144 0
M  V30 118 C 10.2516 -3.8784 -5.05825 0
M  V30 119 C 7.9386 -3.20525 -5.20295 0
M  V30 120 C 8.9366 -4.15044 -5.42427 0
M  V30 121 O 8.6246 -5.34978 -6.00045 0
M  V30 122 H 8.3566 -0.153543 -0.658332 0
M  V30 123 H 10.9106 -1.07383 -1.75094 0
M  V30 124 H 9.1406 0.385539 -3.84773 0
M  V30 125 H 10.8296 0.0238088 -4.05893 0
M  V30 126 H 11.5956 -2.45658 -4.18183 0
M  V30 127 H 7.4746 -1.25686 -4.43536 0
M  V30 128 H 11.0186 -4.61628 -5.23015 0
M  V30 129 H 6.9156 -3.40764 -5.48225 0
M  V30 130 H 7.6836 -5.36088 -6.18508 0
M  V30 131 N 10.3467 1.47872 -0.545128 0
M  V30 132 C 11.5717 2.07391 -0.0190611 0
M  V30 133 C 11.9967 1.39688 1.25971 0
M  V30 134 O 11.3547 0.467816 1.7516 0
M  V30 135 C 11.4027 3.60188 0.172335 0
M  V30 136 O 10.5067 3.9339 1.23766 0
M  V30 137 H 9.8477 0.662411 -0.0459059 0
M  V30 138 H 12.3777 1.90066 -0.757365 0
M  V30 139 H 12.3877 4.06129 0.390305 0
M  V30 140 H 11.0627 4.08865 -0.761725 0
M  V30 141 H 9.6397 3.5921 1.00114 0
M  V30 142 N 11.8248 0.280983 1.55075 0
M  V30 143 C 13.0528 -0.337293 2.04132 0
M  V30 144 C 13.4678 -1.4903 1.15912 0
M  V30 145 O 12.8248 -1.81606 0.180459 0
M  V30 146 C 12.8758 -0.812706 3.52246 0
M  V30 147 O 12.5968 0.294387 4.3711 0
M  V30 148 C 14.0978 -1.4982 4.17216 0
M  V30 149 H 11.3178 -0.0761638 0.666663 0
M  V30 150 H 13.8618 0.414787 2.00249 0
M  V30 151 H 12.0168 -1.51486 3.56554 0
M  V30 152 H 12.4308 -0.0721325 5.2445 0
M  V30 153 H 13.9048 -1.7822 5.22438 0
M  V30 154 H 14.3818 -2.43168 3.65741 0
M  V30 155 H 14.9878 -0.839742 4.16927 0
M  V30 156 N 13.3029 -1.57598 0.00835791 0
M  V30 157 C 14.2329 -2.1198 -0.979113 0
M  V30 158 C 15.2139 -1.03091 -1.35301 0
M  V30 159 O 16.3989 -1.30818 -1.43528 0
M  V30 160 C 13.5289 -2.62995 -2.26828 0
M  V30 161 C 12.4829 -3.76485 -2.03576 0
M  V30 162 C 11.8089 -4.13846 -3.38579 0
M  V30 163 C 13.1089 -5.0342 -1.39161 0
M  V30 164 H 14.8029 -2.94738 -0.526281 0
M  V30 165 H 12.3489 -1.41783 -0.251704 0
M  V30 166 H 14.3019 -2.99669 -2.96271 0
M  V30 167 H 13.0259 -1.7737 -2.7424 0
M  V30 168 H 11.6849 -3.40217 -1.36557 0
M  V30 169 H 11.3329 -3.25232 -3.83709 0
M  V30 170 H 11.0329 -4.90312 -3.23834 0
M  V30 171 H 12.5569 -4.53086 -4.09323 0
M  V30 172 H 13.9709 -5.37812 -1.98573 0
M  V30 173 H 12.3679 -5.84746 -1.34878 0
M  V30 174 H 13.4379 -4.83548 -0.361868 0
M  V30 175 N 14.781 0.264519 -1.55364 0
M  V30 176 C 16.192 0.834936 -1.6699 0
M  V30 177 C 16.543 1.86718 -0.602552 0
M  V30 178 O 15.668 2.14899 0.254425 0
M  V30 179 C 16.263 1.5212 -3.02729 0
M  V30 180 C 14.822 2.03954 -3.16354 0
M  V30 181 C 13.969 0.884498 -2.62815 0
M  V30 182 H 16.92 0.0406869 -1.58648 0
M  V30 183 H 16.941 2.38853 -2.96191 0
M  V30 184 H 16.453 0.769668 -3.80392 0
M  V30 185 H 14.554 2.82041 -2.43482 0
M  V30 186 H 14.667 2.24902 -4.23032 0
M  V30 187 H 13.031 1.2802 -2.20188 0
M  V30 188 H 13.814 0.14634 -3.42988 0
M  V30 189 N 16.2591 1.48442 0.529413 0
M  V30 190 C 17.2221 1.62524 1.61612 0
M  V30 191 C 18.2221 0.498509 1.52877 0
M  V30 192 O 19.4121 0.76431 1.56537 0
M  V30 193 C 16.5441 1.59597 3.01233 0
M  V30 194 H 17.7371 2.59423 1.50465 0
M  V30 195 H 15.2901 1.37047 0.751514 0
M  V30 196 H 16.0251 0.641781 3.17886 0
M  V30 197 H 15.8101 2.41397 3.08982 0
M  V30 198 H 17.3001 1.72646 3.80241 0
M  V30 199 N 17.7372 -0.778329 1.37039 0
M  V30 200 C 18.6472 -1.92253 1.34446 0
M  V30 201 C 19.6632 -1.72267 0.244991 0
M  V30 202 O 20.8392 -1.95615 0.479258 0
M  V30 203 C 17.9042 -3.27282 1.144 0
M  V30 204 C 16.9652 -3.59969 2.33925 0
M  V30 205 C 16.1982 -4.88555 2.14825 0
M  V30 206 O 16.4212 -5.59113 1.12912 0
M  V30 207 O 15.3552 -5.20153 3.02861 0
M  V30 208 H 19.1812 -1.97392 2.30803 0
M  V30 209 H 16.7662 -0.920154 1.17701 0
M  V30 210 H 18.6482 -4.08062 1.05182 0
M  V30 211 H 17.3232 -3.23011 0.211124 0
M  V30 212 H 16.2302 -2.7945 2.48714 0
M  V30 213 H 17.5632 -3.68976 3.25757 0
M  V30 214 N 19.2153 -1.21501 -1.00376 0
M  V30 215 C 20.4923 -0.941745 -1.71437 0
M  V30 216 C 20.8723 0.546114 -2.03914 0
M  V30 217 O 20.2203 1.51128 -1.71384 0
M  V30 218 C 20.4303 -1.82812 -2.97289 0
M  V30 219 C 21.7783 -2.07771 -3.70292 0
M  V30 220 O 22.8023 -1.80171 -3.07273 0
M  V30 221 O 21.6613 -2.54456 -4.83647 0
M  V30 222 H 18.7553 -0.353243 -0.747762 0
M  V30 223 H 21.3013 -1.32436 -1.06108 0
M  V30 224 H 20.0733 -2.83501 -2.69709 0
M  V30 225 H 19.6963 -1.4464 -3.70358 0
M  V30 226 N 20.6934 1.19889 -1.02296 0
M  V30 227 C 22.1094 1.41462 -0.738954 0
M  V30 228 C 22.3094 1.89721 0.678846 0
M  V30 229 O 21.3654 2.07016 1.4457 0
M  V30 230 C 22.6784 2.43083 -1.77005 0
M  V30 231 C 24.2264 2.5684 -1.78892 0
M  V30 232 C 24.7014 3.61709 -2.80945 0
M  V30 233 N 26.1924 3.69199 -2.79725 0
M  V30 234 C 26.9274 4.50019 -3.55345 0
M  V30 235 N 26.4234 5.34592 -4.40662 0
M  V30 236 N 28.2164 4.44612 -3.43914 0
M  V30 237 H 20.3674 0.868827 -1.93817 0
M  V30 238 H 22.6304 0.44399 -0.837602 0
M  V30 239 H 22.3364 2.14636 -2.78612 0
M  V30 240 H 22.2104 3.4217 -1.58744 0
M  V30 241 H 24.5974 2.84614 -0.779674 0
M  V30 242 H 24.6784 1.57927 -2.01228 0
M  V30 243 H 24.3224 3.34678 -3.82038 0
M  V30 244 H 24.2524 4.60259 -2.5587 0
M  V30 245 H 26.7434 3.08794 -2.17842 0
M  V30 246 H 27.0564 5.93363 -4.95116 0
M  V30 247 H 25.4014 5.34073 -4.44737 0
M  V30 248 H 28.5924 3.7758 -2.76679 0
M  V30 249 H 28.7654 5.0736 -4.031 0
M  V30 250 N 22.1715 0.800033 1.35784 0
M  V30 251 C 23.3965 0.388511 2.03729 0
M  V30 252 C 23.8215 -0.990481 1.5991 0
M  V30 253 O 23.1795 -1.64013 0.772612 0
M  V30 254 C 23.2275 0.4726 3.5749 0
M  V30 255 O 22.3315 -0.51646 4.09153 0
M  V30 256 H 21.6725 0.163271 0.643614 0
M  V30 257 H 24.2025 1.0841 1.73518 0
M  V30 258 H 24.2125 0.34003 4.06581 0
M  V30 259 H 22.8875 1.47848 3.88734 0
M  V30 260 H 21.4645 -0.344673 3.71304 0
M  V30 261 N 23.6496 -1.47581 0.552962 0
M  V30 262 C 24.8956 -2.02782 0.0273648 0
M  V30 263 C 25.2286 -1.42687 -1.31734 0
M  V30 264 O 24.5036 -0.580897 -1.85623 0
M  V30 265 C 24.7866 -3.60031 -0.0702371 0
M  V30 266 C 24.6396 -4.30566 1.30126 0
M  V30 267 C 25.9586 -4.33028 -0.785771 0
M  V30 268 H 23.0776 -0.736912 0.0114185 0
M  V30 269 H 25.7196 -1.76056 0.714432 0
M  V30 270 H 23.8696 -3.82932 -0.655382 0
M  V30 271 H 25.5416 -4.19018 1.92929 0
M  V30 272 H 23.7846 -3.91086 1.87709 0
M  V30 273 H 24.4556 -5.39114 1.18573 0
M  V30 274 H 26.9316 -4.15095 -0.288982 0
M  V30 275 H 25.8076 -5.42695 -0.823013 0
M  V30 276 H 26.0686 -4.01945 -1.841 0
M  V30 277 N 25.1277 -0.289203 -1.54924 0
M  V30 278 C 26.0777 0.606939 -2.19773 0
M  V30 279 C 27.0617 1.10783 -1.16687 0
M  V30 280 O 28.2537 1.05057 -1.4245 0
M  V30 281 C 25.3827 1.78398 -2.93307 0
M  V30 282 C 24.4687 1.29961 -4.03697 0
M  V30 283 N 24.8597 0.532377 -5.0299 0
M  V30 284 C 23.1577 1.58136 -4.17024 0
M  V30 285 C 23.8587 0.275912 -5.81045 0
M  V30 286 N 22.8347 0.852365 -5.36876 0
M  V30 287 H 26.6367 0.0130779 -2.93897 0
M  V30 288 H 24.1507 -0.09341 -1.62131 0
M  V30 289 H 26.1477 2.43741 -3.38225 0
M  V30 290 H 24.8077 2.38166 -2.20697 0
M  V30 291 H 25.8187 0.17838 -5.17593 0
M  V30 292 H 22.4957 2.18738 -3.55612 0
M  V30 293 H 23.8857 -0.339502 -6.71042 0
M  V30 294 N 26.6058 1.57591 -0.0167156 0
M  V30 295 C 27.8548 1.90461 0.663877 0
M  V30 296 C 28.1678 0.893515 1.73999 0
M  V30 297 O 29.3738 1.11302 2.47637 0
M  V30 298 C 27.8298 3.38155 1.23204 0
M  V30 299 C 27.4378 4.47597 0.189866 0
M  V30 300 C 29.1818 3.80111 1.88986 0
M  V30 301 C 27.0888 5.86379 0.768964 0
M  V30 302 H 26.0188 0.710738 0.251729 0
M  V30 303 H 28.6698 1.83326 -0.0799926 0
M  V30 304 H 27.0518 3.40182 2.02712 0
M  V30 305 H 28.2258 4.57112 -0.581846 0
M  V30 306 H 26.5408 4.14766 -0.368475 0
M  V30 307 H 29.1378 4.81145 2.33247 0
M  V30 308 H 29.4808 3.14511 2.72743 0
M  V30 309 H 30.0138 3.80454 1.16187 0
M  V30 310 H 26.7528 6.55493 -0.0301957 0
M  V30 311 H 26.2728 5.80496 1.50945 0
M  V30 312 H 27.9518 6.34563 1.26251 0
M  V30 313 N 28.0839 -0.256276 1.55502 0
M  V30 314 C 29.3329 -0.983486 1.76098 0
M  V30 315 C 29.6459 -1.86837 0.578896 0
M  V30 316 O 30.8519 -2.63163 0.667648 0
M  V30 317 C 29.3079 -1.79868 3.1173 0
M  V30 318 C 28.9159 -0.961648 4.37557 0
M  V30 319 C 30.6599 -2.51919 3.41668 0
M  V30 320 C 28.5669 -1.77219 5.64223 0
M  V30 321 H 27.4969 -0.370936 0.656447 0
M  V30 322 H 30.1479 -0.238492 1.81944 0
M  V30 323 H 28.5299 -2.58527 2.99966 0
M  V30 324 H 29.7039 -0.218048 4.60284 0
M  V30 325 H 28.0189 -0.354913 4.14885 0
M  V30 326 H 30.6159 -3.12998 4.33516 0
M  V30 327 H 30.9589 -3.23059 2.62562 0
M  V30 328 H 31.4919 -1.80278 3.54605 0
M  V30 329 H 28.2309 -1.10471 6.46124 0
M  V30 330 H 27.7509 -2.49132 5.45613 0
M  V30 331 H 29.4299 -2.34169 6.03137 0
M  V30 332 N 29.562 -1.4872 -0.521534 0
M  V30 333 C 30.51 -1.64328 -1.64618 0
M  V30 334 C 31.504 -0.50953 -1.61555 0
M  V30 335 O 32.71 -0.688525 -1.66311 0
M  V30 336 H 29.085 -0.517805 -0.545328 0
M  V30 337 H 31.056 -2.58767 -1.48601 0
M  V30 338 C 29.805 -1.70805 -3.02855 0
M  V30 339 H 29.128 -2.5741 -3.05909 0
M  V30 340 H 30.568 -1.85766 -3.81139 0
M  V30 341 C 29.027 -0.448479 -3.33902 0
M  V30 342 O 29.557 0.434928 -3.99339 0
M  V30 343 N 27.763 -0.317616 -2.88859 0
M  V30 344 H 27.31 -1.03748 -2.35784 0
M  V30 345 H 27.268 0.524113 -3.10001 0
M  V30 346 N 31.0401 0.771051 -1.3745 0
M  V30 347 C 32.2891 1.52491 -1.3202 0
M  V30 348 C 32.6021 1.9538 0.0927347 0
M  V30 349 O 33.8081 2.70159 0.269503 0
M  V30 350 C 32.2641 2.75366 -2.31736 0
M  V30 351 C 31.8721 2.39573 -3.78562 0
M  V30 352 C 33.6161 3.53307 -2.35318 0
M  V30 353 C 31.5231 3.58954 -4.70007 0
M  V30 354 H 30.4531 0.572506 -0.490666 0
M  V30 355 H 33.1041 0.844474 -1.62914 0
M  V30 356 H 31.4861 3.45303 -1.93861 0
M  V30 357 H 32.6601 1.77415 -4.25277 0
M  V30 358 H 30.9751 1.74805 -3.77932 0
M  V30 359 H 33.5721 4.42039 -3.00842 0
M  V30 360 H 33.9151 3.93217 -1.36698 0
M  V30 361 H 34.4481 2.90367 -2.71904 0
M  V30 362 H 31.1871 3.24125 -5.69757 0
M  V30 363 H 30.7071 4.20214 -4.27996 0
M  V30 364 H 32.3861 4.25758 -4.87175 0
M  V30 365 N 32.5182 1.22032 0.997298 0
M  V30 366 C 33.7582 1.05375 1.75144 0
M  V30 367 C 34.1222 -0.404696 1.87686 0
M  V30 368 O 35.3232 -0.691998 2.5974 0
M  V30 369 C 33.5942 1.74046 3.12158 0
M  V30 370 S 35.1532 1.72745 4.03366 0
M  V30 371 H 31.9712 0.377449 0.602539 0
M  V30 372 H 34.5732 1.54902 1.19272 0
M  V30 373 H 33.2772 2.79332 3.00669 0
M  V30 374 H 32.8082 1.24731 3.73103 0
M  V30 375 H 34.8232 0.774015 4.90126 0
M  V30 376 N 33.9963 -1.19345 1.0293 0
M  V30 377 C 34.9593 -2.20793 0.615069 0
M  V30 378 C 35.9593 -1.57553 -0.321533 0
M  V30 379 O 37.1493 -1.73862 -0.108483 0
M  V30 380 C 34.2813 -3.40754 -0.0999222 0
M  V30 381 H 35.4743 -2.58955 1.51269 0
M  V30 382 H 33.0273 -1.3303 0.820534 0
M  V30 383 H 33.7623 -3.0811 -1.01187 0
M  V30 384 H 33.5473 -3.87889 0.57309 0
M  V30 385 H 35.0373 -4.15898 -0.376645 0
M  V30 386 N 35.4744 -0.807222 -1.35358 0
M  V30 387 C 36.7234 -0.384376 -1.98004 0
M  V30 388 C 37.0364 1.0543 -1.64754 0
M  V30 389 O 38.2424 1.58029 -2.20769 0
M  V30 390 C 36.6984 -0.636326 -3.5423 0
M  V30 391 C 36.3064 -2.08759 -3.96388 0
M  V30 392 C 38.0504 -0.278869 -4.23583 0
M  V30 393 C 35.9574 -2.28525 -5.45463 0
M  V30 394 H 34.8874 -0.139986 -0.740891 0
M  V30 395 H 37.5384 -0.991369 -1.54415 0
M  V30 396 H 35.9204 0.0406256 -3.95979 0
M  V30 397 H 37.0944 -2.8024 -3.6579 0
M  V30 398 H 35.4094 -2.40497 -3.39926 0
M  V30 399 H 38.0064 -0.404599 -5.33167 0
M  V30 400 H 38.3494 0.775012 -4.09022 0
M  V30 401 H 38.8824 -0.909764 -3.87257 0
M  V30 402 H 35.6214 -3.32361 -5.64992 0
M  V30 403 H 35.1414 -1.61569 -5.77629 0
M  V30 404 H 36.8204 -2.10109 -6.11934 0
M  V30 405 N 36.9525 1.47285 -0.560781 0
M  V30 406 C 37.8625 2.33846 0.187954 0
M  V30 407 C 38.8785 1.48412 0.908293 0
M  V30 408 O 40.0545 1.81332 0.876388 0
M  V30 409 C 37.1195 3.25178 1.2025 0
M  V30 410 C 36.1805 4.26504 0.489208 0
M  V30 411 C 35.4135 5.13472 1.45542 0
M  V30 412 O 35.6365 5.02959 2.6905 0
M  V30 413 O 34.5705 5.93902 0.977963 0
M  V30 414 H 38.3965 2.99177 -0.522177 0
M  V30 415 H 35.9815 1.45903 -0.321364 0
M  V30 416 H 37.8635 3.81584 1.78805 0
M  V30 417 H 36.5385 2.6247 1.89449 0
M  V30 418 H 35.4455 3.73847 -0.137627 0
M  V30 419 H 36.7785 4.91935 -0.161399 0
M  V30 420 N 38.4306 0.297415 1.54768 0
M  V30 421 C 39.7076 -0.365847 1.92148 0
M  V30 422 C 40.0876 -1.71975 1.22424 0
M  V30 423 O 39.4356 -2.25666 0.358739 0
M  V30 424 C 39.6456 -0.484056 3.45627 0
M  V30 425 C 40.9936 -0.756594 4.17805 0
M  V30 426 O 42.0176 -0.568007 3.51642 0
M  V30 427 O 40.8766 -1.11863 5.34929 0
M  V30 428 H 37.9706 -0.203919 0.801465 0
M  V30 429 H 40.5166 0.34521 1.66152 0
M  V30 430 H 39.2886 0.467865 3.88493 0
M  V30 431 H 38.9116 -1.24372 3.77647 0
M  V30 432 N 39.9087 -1.5758 0.0250728 0
M  V30 433 C 41.1577 -1.90811 -0.653767 0
M  V30 434 C 41.4707 -0.90273 -1.73523 0
M  V30 435 O 42.6767 -1.12614 -2.47043 0
M  V30 436 C 41.1327 -3.38804 -1.21409 0
M  V30 437 C 40.7407 -4.47692 -0.166126 0
M  V30 438 C 42.4847 -3.81108 -1.86967 0
M  V30 439 C 40.3917 -5.86779 -0.737856 0
M  V30 440 H 39.3217 -0.712063 -0.247956 0
M  V30 441 H 41.9727 -1.83281 0.0897137 0
M  V30 442 H 40.3547 -3.41252 -2.00905 0
M  V30 443 H 41.5287 -4.56797 0.606079 0
M  V30 444 H 39.8437 -4.14565 0.390466 0
M  V30 445 H 42.4407 -4.82375 -2.30692 0
M  V30 446 H 42.7837 -3.15953 -2.71071 0
M  V30 447 H 43.3167 -3.81065 -1.14167 0
M  V30 448 H 40.0557 -6.55468 0.0649577 0
M  V30 449 H 39.5757 -5.81288 -1.47864 0
M  V30 450 H 41.2547 -6.35223 -1.22884 0
M  V30 451 N 41.3868 0.248026 -1.55636 0
M  V30 452 C 42.6348 0.974295 -1.77065 0
M  V30 453 C 42.9558 1.85897 -0.588849 0
M  V30 454 O 42.2258 1.91868 0.395407 0
M  V30 455 H 40.8058 0.362733 -0.653019 0
M  V30 456 H 43.4678 0.266244 -1.93073 0
M  V30 457 H 42.5638 1.59667 -2.68166 0
M  V30 458 N 42.8649 1.48995 0.513639 0
M  V30 459 C 44.0949 1.61297 1.291 0
M  V30 460 C 44.5029 0.278656 1.87137 0
M  V30 461 O 43.8459 -0.744325 1.67945 0
M  V30 462 C 43.9079 2.61326 2.46879 0
M  V30 463 C 43.5719 4.05993 2.09807 0
M  V30 464 C 44.5689 4.93183 1.64519 0
M  V30 465 C 42.2539 4.51642 2.19829 0
M  V30 466 C 44.2479 6.24056 1.2974 0
M  V30 467 C 41.9349 5.82532 1.84662 0
M  V30 468 C 42.9329 6.68562 1.3969 0
M  V30 469 O 42.6209 7.97014 1.04992 0
M  V30 470 H 42.3529 0.546236 0.39825 0
M  V30 471 H 44.9069 1.95673 0.62459 0
M  V30 472 H 43.1369 2.22104 3.16554 0
M  V30 473 H 44.8259 2.6329 3.08923 0
M  V30 474 H 45.5919 4.59147 1.56233 0
M  V30 475 H 41.4709 3.84855 2.53786 0
M  V30 476 H 45.0149 6.91161 0.945659 0
M  V30 477 H 40.9119 6.16099 1.92594 0
M  V30 478 H 41.6799 8.09913 1.18249 0
M  V30 479 N 44.343 -0.763751 1.37857 0
M  V30 480 C 45.273 -1.89103 1.36975 0
M  V30 481 C 46.254 -1.68439 0.237152 0
M  V30 482 O 47.439 -1.8918 0.438713 0
M  V30 483 C 44.569 -3.26496 1.18395 0
M  V30 484 C 43.523 -3.61741 2.28751 0
M  V30 485 C 42.849 -4.97762 1.95286 0
M  V30 486 C 44.149 -3.67665 3.70972 0
M  V30 487 H 45.843 -1.90099 2.31307 0
M  V30 488 H 43.389 -0.91319 1.11341 0
M  V30 489 H 45.342 -4.05003 1.16406 0
M  V30 490 H 44.066 -3.25955 0.205215 0
M  V30 491 H 42.725 -2.85547 2.29909 0
M  V30 492 H 42.373 -4.93769 0.959221 0
M  V30 493 H 42.073 -5.22313 2.69189 0
M  V30 494 H 43.597 -5.7866 1.94898 0
M  V30 495 H 45.011 -4.36307 3.719 0
M  V30 496 H 43.408 -4.03718 4.43995 0
M  V30 497 H 44.478 -2.68134 4.0402 0
M  V30 498 N 45.8211 -1.22559 -0.990812 0
M  V30 499 C 47.2321 -1.04791 -1.54518 0
M  V30 500 C 47.5831 0.387998 -1.92325 0
M  V30 501 O 46.7081 1.27328 -1.74976 0
M  V30 502 C 47.3031 -1.896 -2.80779 0
M  V30 503 C 45.8621 -1.76124 -3.32652 0
M  V30 504 C 45.0091 -1.8594 -2.05722 0
M  V30 505 H 47.9601 -1.36374 -0.811662 0
M  V30 506 H 47.9811 -1.41464 -3.53225 0
M  V30 507 H 47.4931 -2.94101 -2.53231 0
M  V30 508 H 45.5941 -0.743643 -3.65104 0
M  V30 509 H 45.7071 -2.58913 -4.03114 0
M  V30 510 H 44.0711 -1.29403 -2.19379 0
M  V30 511 H 44.8541 -2.91976 -1.80568 0
M  V30 512 N 47.2992 1.18797 -1.03562 0
M  V30 513 C 48.5242 1.9314 -0.755764 0
M  V30 514 C 48.9492 1.7537 0.68022 0
M  V30 515 O 48.3072 1.06046 1.47051 0
M  V30 516 C 48.3552 3.42747 -1.12058 0
M  V30 517 O 47.4592 4.11683 -0.243124 0
M  V30 518 H 46.8002 0.602724 -0.278604 0
M  V30 519 H 49.3302 1.50678 -1.3841 0
M  V30 520 H 49.3402 3.93437 -1.08035 0
M  V30 521 H 48.0152 3.55002 -2.16672 0
M  V30 522 H 46.5922 3.71323 -0.342539 0
M  V30 523 N 48.7773 0.814389 1.34928 0
M  V30 524 C 49.6873 0.231978 2.3345 0
M  V30 525 C 50.7033 -0.629139 1.62228 0
M  V30 526 O 51.8793 -0.539052 1.94052 0
M  V30 527 C 48.9443 -0.603482 3.41407 0
M  V30 528 C 48.0053 0.279037 4.28392 0
M  V30 529 C 47.2383 -0.516643 5.31193 0
M  V30 530 O 47.4613 -1.75068 5.4287 0
M  V30 531 O 46.3953 0.0965652 6.01823 0
M  V30 532 H 50.2213 1.04721 2.85074 0
M  V30 533 H 47.8063 0.576343 1.37836 0
M  V30 534 H 49.6883 -1.07908 4.0735 0
M  V30 535 H 48.3633 -1.39618 2.92042 0
M  V30 536 H 47.2703 0.801948 3.65403 0
M  V30 537 H 48.6033 1.03588 4.81176 0
M  V30 538 N 50.2554 -1.46986 0.568584 0
M  V30 539 C 51.5034 -2.02041 0.0487022 0
M  V30 540 C 51.8244 -1.44408 -1.31039 0
M  V30 541 O 51.0944 -0.623477 -1.85714 0
M  V30 542 H 49.6744 -0.746849 0.015014 0
M  V30 543 H 52.3364 -1.80257 0.741168 0
M  V30 544 H 51.4324 -3.12085 -0.0308961 0
M  V30 545 N 51.7335 -0.305618 -1.54608 0
M  V30 546 C 52.9615 0.304775 -2.04643 0
M  V30 547 C 53.3765 1.47167 -1.18268 0
M  V30 548 O 52.7335 1.81296 -0.209328 0
M  V30 549 C 52.7845 0.756564 -3.53495 0
M  V30 550 O 52.5055 -0.36389 -4.36586 0
M  V30 551 C 54.0065 1.43163 -4.19546 0
M  V30 552 H 51.2265 0.0655481 -0.667791 0
M  V30 553 H 53.7705 -0.446592 -1.99564 0
M  V30 554 H 51.9255 1.45794 -3.58919 0
M  V30 555 H 52.3395 -0.0113121 -5.24499 0
M  V30 556 H 53.8135 1.69886 -5.25207 0
M  V30 557 H 54.2905 2.37318 -3.69563 0
M  V30 558 H 54.8965 0.773307 -4.18211 0
M  V30 559 N 53.2116 1.57565 -0.0334293 0
M  V30 560 C 54.1416 2.13511 0.945265 0
M  V30 561 C 55.1226 1.05231 1.33643 0
M  V30 562 O 56.3076 1.33084 1.41429 0
M  V30 563 C 53.4376 2.6657 2.22616 0
M  V30 564 C 52.3916 3.79676 1.97561 0
M  V30 565 C 51.7176 4.1918 3.31952 0
M  V30 566 C 53.0176 5.0557 1.31135 0
M  V30 567 H 54.7116 2.95538 0.479325 0
M  V30 568 H 52.2576 1.42166 0.229115 0
M  V30 569 H 54.2106 3.04344 2.91466 0
M  V30 570 H 52.9346 1.8171 2.71384 0
M  V30 571 H 51.5936 3.42347 1.31127 0
M  V30 572 H 51.2416 3.31296 3.78487 0
M  V30 573 H 50.9416 4.95402 3.15992 0
M  V30 574 H 52.4656 4.59541 4.02063 0
M  V30 575 H 53.8796 5.40903 1.89992 0
M  V30 576 H 52.2766 5.86818 1.25559 0
M  V30 577 H 53.3466 4.84062 0.284894 0
M  V30 578 N 54.6897 -0.239769 1.55765 0
M  V30 579 C 55.6197 -1.30052 1.9393 0
M  V30 580 C 56.6007 -1.49839 0.805132 0
M  V30 581 O 57.7857 -1.62328 1.06599 0
M  V30 582 C 54.9157 -2.65391 2.2402 0
M  V30 583 C 53.8697 -2.60289 3.39755 0
M  V30 584 C 53.1957 -3.99489 3.55405 0
M  V30 585 C 54.4957 -2.16654 4.75246 0
M  V30 586 H 56.1897 -0.983573 2.82783 0
M  V30 587 H 53.7357 -0.471701 1.36055 0
M  V30 588 H 55.6887 -3.3974 2.49308 0
M  V30 589 H 54.4127 -2.98736 1.32 0
M  V30 590 H 53.0717 -1.88398 3.14487 0
M  V30 591 H 52.7197 -4.30112 2.60793 0
M  V30 592 H 52.4197 -3.96962 4.33238 0
M  V30 593 H 53.9437 -4.75528 3.83022 0
M  V30 594 H 55.3577 -2.80737 4.99859 0
M  V30 595 H 53.7547 -2.25223 5.56232 0
M  V30 596 H 54.8247 -1.11835 4.71827 0
M  V30 597 N 56.1678 -1.49265 -0.50573 0
M  V30 598 C 57.1158 -1.66065 -1.62866 0
M  V30 599 C 58.1098 -0.526636 -1.61006 0
M  V30 600 O 59.3158 -0.706126 -1.65571 0
M  V30 601 H 55.6908 -0.52356 -0.539805 0
M  V30 602 H 57.6618 -2.60329 -1.45848 0
M  V30 603 C 56.4108 -1.74008 -3.01026 0
M  V30 604 H 55.7338 -2.6064 -3.03161 0
M  V30 605 H 57.1738 -1.89798 -3.79147 0
M  V30 606 C 55.6328 -0.483868 -3.33407 0
M  V30 607 O 56.1628 0.392548 -3.99777 0
M  V30 608 N 54.3688 -0.348236 -2.88506 0
M  V30 609 H 53.9158 -1.06242 -2.34671 0
M  V30 610 H 53.8738 0.491204 -3.10539 0
M  V30 611 N 57.6459 0.756429 -1.3826 0
M  V30 612 C 58.8709 1.55077 -1.37717 0
M  V30 613 C 59.2959 1.88073 0.03164 0
M  V30 614 O 58.6539 1.50364 1.01293 0
M  V30 615 C 58.7019 2.8283 -2.23695 0
M  V30 616 O 57.8059 3.77862 -1.6521 0
M  V30 617 H 57.1469 0.469152 -0.469885 0
M  V30 618 H 59.6769 0.935019 -1.81985 0
M  V30 619 H 59.6869 3.31783 -2.37453 0
M  V30 620 H 58.3619 2.58144 -3.2609 0
M  V30 621 H 56.9389 3.36555 -1.60578 0
M  V30 622 N 59.124 1.23083 0.984299 0
M  V30 623 C 60.054 1.03292 2.09411 0
M  V30 624 C 61.035 -0.048923 1.7003 0
M  V30 625 O 62.22 0.114967 1.93859 0
M  V30 626 C 59.35 0.619155 3.41736 0
M  V30 627 C 58.304 1.64791 3.95004 0
M  V30 628 C 57.63 1.0897 5.23478 0
M  V30 629 C 58.93 3.03999 4.24714 0
M  V30 630 H 60.624 1.96119 2.26225 0
M  V30 631 H 58.17 0.944344 1.08711 0
M  V30 632 H 60.123 0.467777 4.18796 0
M  V30 633 H 58.847 -0.344786 3.24775 0
M  V30 634 H 57.506 1.78721 3.20085 0
M  V30 635 H 57.154 0.11686 5.02864 0
M  V30 636 H 56.854 1.77704 5.60085 0
M  V30 637 H 58.378 0.950093 6.03163 0
M  V30 638 H 59.792 2.93393 4.92538 0
M  V30 639 H 58.189 3.69936 4.72512 0
M  V30 640 H 59.259 3.53285 3.32142 0
M  V30 641 N 60.6021 -1.18246 1.0419 0
M  V30 642 C 61.8271 -1.92736 0.765996 0
M  V30 643 C 62.2521 -1.75728 -0.67091 0
M  V30 644 O 61.6101 -1.06825 -1.46486 0
M  V30 645 C 61.6581 -3.42148 1.13875 0
M  V30 646 O 60.7621 -4.11548 0.264954 0
M  V30 647 H 60.1031 -0.601238 0.281797 0
M  V30 648 H 62.6331 -1.49942 1.39207 0
M  V30 649 H 62.6431 -3.92858 1.1012 0
M  V30 650 H 61.3181 -3.53848 2.18551 0
M  V30 651 H 59.8951 -3.71137 0.362226 0
M  V30 652 N 62.0802 -0.821533 -1.34494 0
M  V30 653 C 63.3262 -0.409552 -1.98622 0
M  V30 654 C 63.6592 1.0244 -1.64984 0
M  V30 655 O 62.9342 1.71325 -0.920758 0
M  V30 656 C 63.2172 -0.610458 -3.54888 0
M  V30 657 C 63.0702 -2.09043 -3.98273 0
M  V30 658 C 64.3892 -0.0455379 -4.40076 0
M  V30 659 H 61.5082 -0.15028 -0.721516 0
M  V30 660 H 64.1502 -1.03384 -1.59411 0
M  V30 661 H 62.3002 -0.079044 -3.8842 0
M  V30 662 H 63.9722 -2.68537 -3.75081 0
M  V30 663 H 62.2152 -2.58139 -3.48635 0
M  V30 664 H 62.8862 -2.18182 -5.07051 0
M  V30 665 H 65.3622 -0.499557 -4.1309 0
M  V30 666 H 64.2382 -0.215922 -5.48475 0
M  V30 667 H 64.4992 1.04939 -4.29465 0
M  V30 668 N 63.5583 1.46682 -0.576371 0
M  V30 669 C 64.8353 1.95599 0.00703437 0
M  V30 670 C 65.2153 1.51904 1.46589 0
M  V30 671 O 64.5633 0.766755 2.15251 0
M  V30 672 C 64.7733 3.4864 -0.158404 0
M  V30 673 C 66.1213 4.24594 -0.0229439 0
M  V30 674 O 67.1453 3.56094 -0.0869173 0
M  V30 675 O 66.0043 5.46373 0.118015 0
M  V30 676 H 63.0983 0.825275 0.053384 0
M  V30 677 H 65.6443 1.56996 -0.644244 0
M  V30 678 H 64.4163 3.7331 -1.17282 0
M  V30 679 H 64.0393 3.94057 0.5296 0
M  V30 680 N 65.0364 0.313813 1.54444 0
M  V30 681 C 66.4474 -0.176243 1.85866 0
M  V30 682 C 66.7984 -1.52405 1.23561 0
M  V30 683 O 65.9234 -2.09605 0.538016 0
M  V30 684 C 66.5184 -0.32657 3.37222 0
M  V30 685 C 65.0774 -0.760846 3.6863 0
M  V30 686 C 64.2244 0.123247 2.77026 0
M  V30 687 H 67.1754 0.534418 1.49431 0
M  V30 688 H 67.1964 -1.15908 3.62416 0
M  V30 689 H 66.7084 0.654531 3.82541 0
M  V30 690 H 64.8094 -1.75204 3.28838 0
M  V30 691 H 64.9224 -0.571353 4.75681 0
M  V30 692 H 63.2864 -0.399597 2.51546 0
M  V30 693 H 64.0694 1.10094 3.25168 0
M  V30 694 N 66.5145 -1.57545 0.0417849 0
M  V30 695 C 67.7915 -1.83642 -0.673433 0
M  V30 696 C 68.1715 -0.928298 -1.89594 0
M  V30 697 O 67.5195 0.0129955 -2.28496 0
M  V30 698 C 67.7295 -3.33155 -1.03964 0
M  V30 699 C 69.0775 -3.99941 -1.42592 0
M  V30 700 O 70.1015 -3.37725 -1.13226 0
M  V30 701 O 68.9605 -5.09619 -1.9736 0
M  V30 702 H 66.0545 -0.757638 -0.331533 0
M  V30 703 H 68.6005 -1.69554 0.070433 0
M  V30 704 H 67.3725 -3.9093 -0.170098 0
M  V30 705 H 66.9955 -3.52396 -1.84126 0
M  V30 706 N 67.9926 0.231505 -1.5589 0
M  V30 707 C 68.9556 1.27028 -1.90779 0
M  V30 708 C 69.9556 1.40308 -0.785507 0
M  V30 709 O 71.1456 1.38744 -1.05336 0
M  V30 710 C 68.2776 2.64566 -2.14983 0
M  V30 711 H 69.4706 0.973017 -2.83677 0
M  V30 712 H 67.0236 0.471486 -1.49019 0
M  V30 713 H 67.7586 2.99406 -1.24604 0
M  V30 714 H 67.5436 2.56305 -2.96732 0
M  V30 715 H 69.0336 3.39543 -2.43105 0
M  V30 716 N 69.4707 1.49531 0.497807 0
M  V30 717 C 70.3807 1.69176 1.62532 0
M  V30 718 C 71.3967 0.5744 1.64246 0
M  V30 719 O 72.5727 0.849497 1.82608 0
M  V30 720 C 69.6377 1.75695 2.98885 0
M  V30 721 C 68.6987 2.9929 3.07773 0
M  V30 722 C 67.9317 3.05488 4.37622 0
M  V30 723 O 68.1547 2.19192 5.26603 0
M  V30 724 O 67.0887 3.9798 4.51548 0
M  V30 725 H 70.9147 2.647 1.48887 0
M  V30 726 H 68.4997 1.3331 0.674441 0
M  V30 727 H 70.3817 1.82317 3.79919 0
M  V30 728 H 69.0567 0.8335 3.12785 0
M  V30 729 H 67.9637 2.98183 2.25915 0
M  V30 730 H 69.2967 3.91125 2.98801 0
M  V30 731 N 70.9488 -0.749086 1.3866 0
M  V30 732 C 72.1888 -1.52112 1.36534 0
M  V30 733 C 72.5528 -1.91951 -0.0432316 0
M  V30 734 O 73.7538 -2.68132 -0.189396 0
M  V30 735 C 72.0248 -2.73704 2.29828 0
M  V30 736 S 73.5838 -3.63519 2.45763 0
M  V30 737 H 70.4018 -0.520482 0.484375 0
M  V30 738 H 73.0038 -0.878963 1.74627 0
M  V30 739 H 71.7078 -2.42552 3.31054 0
M  V30 740 H 71.2388 -3.4286 1.929 0
M  V30 741 H 73.2538 -4.66712 1.68505 0
M  V30 742 N 72.4269 -1.23603 -0.977757 0
M  V30 743 C 73.3739 -1.01954 -2.07061 0
M  V30 744 C 74.3439 0.0638697 -1.65977 0
M  V30 745 O 75.5289 -0.0887624 -1.90593 0
M  V30 746 C 72.6689 -0.619658 -3.39491 0
M  V30 747 C 71.7819 -1.77547 -3.93829 0
M  V30 748 C 70.9169 -1.32212 -5.14484 0
M  V30 749 C 69.9559 -2.44852 -5.60994 0
M  V30 750 N 69.0929 -2.00456 -6.72876 0
M  V30 751 H 73.9329 -1.95495 -2.24913 0
M  V30 752 H 71.4699 -0.973861 -1.10247 0
M  V30 753 H 73.4279 -0.368898 -4.15566 0
M  V30 754 H 72.0579 0.278752 -3.21594 0
M  V30 755 H 71.1099 -2.14016 -3.14486 0
M  V30 756 H 72.4219 -2.62219 -4.24314 0
M  V30 757 H 71.5759 -1.02965 -5.97899 0
M  V30 758 H 70.3149 -0.445808 -4.85658 0
M  V30 759 H 69.3199 -2.74871 -4.76157 0
M  V30 760 H 70.5449 -3.33024 -5.91837 0
M  V30 761 H 68.4909 -1.15208 -6.45804 0
M  V30 762 H 68.4079 -2.78687 -7.02759 0
M  V30 763 H 69.6759 -1.7432 -7.59758 0
M  V30 764 N 73.905 1.17692 -1.04816 0
M  V30 765 C 75.135 1.91508 -0.775128 0
M  V30 766 C 75.543 1.76844 0.67253 0
M  V30 767 O 74.886 1.10057 1.47082 0
M  V30 768 C 74.948 3.43167 -1.0713 0
M  V30 769 C 74.612 3.81612 -2.51438 0
M  V30 770 C 75.609 3.84772 -3.49638 0
M  V30 771 C 73.294 4.12687 -2.86348 0
M  V30 772 C 75.288 4.18469 -4.80794 0
M  V30 773 C 72.975 4.46053 -4.17708 0
M  V30 774 C 73.973 4.48921 -5.14741 0
M  V30 775 O 73.661 4.81504 -6.43746 0
M  V30 776 H 73.393 0.614575 -0.281555 0
M  V30 777 H 75.947 1.50206 -1.40098 0
M  V30 778 H 74.177 3.84745 -0.388342 0
M  V30 779 H 75.866 3.98239 -0.784883 0
M  V30 780 H 76.632 3.60893 -3.24008 0
M  V30 781 H 72.511 4.09627 -2.11486 0
M  V30 782 H 76.055 4.20623 -5.56527 0
M  V30 783 H 71.952 4.69393 -4.43103 0
M  V30 784 H 72.72 4.99377 -6.4851 0
M  V30 785 N 75.3831 0.828654 1.34056 0
M  V30 786 C 76.6311 0.41863 1.97717 0
M  V30 787 C 76.9521 -1.02314 1.66002 0
M  V30 788 O 76.2221 -1.71119 0.953683 0
M  V30 789 H 74.8021 0.151809 0.731412 0
M  V30 790 H 77.4641 1.05936 1.63596 0
M  V30 791 H 76.5601 0.542318 3.07352 0
M  V30 792 N 76.8612 -1.46375 0.584142 0
M  V30 793 C 77.7912 -2.33103 -0.136037 0
M  V30 794 C 78.7722 -1.45431 -0.882255 0
M  V30 795 O 79.9572 -1.74246 -0.857434 0
M  V30 796 C 77.0872 -3.27731 -1.14933 0
M  V30 797 C 76.0412 -4.24855 -0.517862 0
M  V30 798 C 75.3672 -5.09001 -1.63773 0
M  V30 799 C 76.6672 -5.19439 0.545886 0
M  V30 800 H 78.3612 -2.93568 0.588086 0
M  V30 801 H 75.9072 -1.41166 0.284259 0
M  V30 802 H 77.8602 -3.87261 -1.66153 0
M  V30 803 H 76.5842 -2.65377 -1.90375 0
M  V30 804 H 75.2432 -3.6659 -0.0267361 0
M  V30 805 H 74.8912 -4.43031 -2.38185 0
M  V30 806 H 74.5912 -5.74777 -1.22085 0
M  V30 807 H 76.1152 -5.71396 -2.15266 0
M  V30 808 H 77.5292 -5.73177 0.118704 0
M  V30 809 H 75.9262 -5.93566 0.88317 0
M  V30 810 H 76.9962 -4.63285 1.43162 0
M  V30 811 N 78.3393 -0.321999 -1.54275 0
M  V30 812 C 79.5693 0.282642 -2.04658 0
M  V30 813 C 79.9773 1.46453 -1.19784 0
M  V30 814 O 79.3203 1.82367 -0.220932 0
M  V30 815 C 79.3823 0.781857 -3.50895 0
M  V30 816 C 79.0463 -0.277517 -4.56157 0
M  V30 817 C 80.0433 -1.11307 -5.07845 0
M  V30 818 C 77.7283 -0.425256 -5.00497 0
M  V30 819 C 79.7223 -2.08211 -6.02434 0
M  V30 820 C 77.4093 -1.39771 -5.94901 0
M  V30 821 C 78.4073 -2.2246 -6.45756 0
M  V30 822 O 78.0953 -3.18054 -7.38307 0
M  V30 823 H 77.8273 0.0622636 -0.673126 0
M  V30 824 H 80.3813 -0.465792 -2.00049 0
M  V30 825 H 78.6113 1.58118 -3.52896 0
M  V30 826 H 80.3003 1.30467 -3.84361 0
M  V30 827 H 81.0663 -1.00991 -4.74369 0
M  V30 828 H 76.9453 0.20847 -4.60528 0
M  V30 829 H 80.4893 -2.72791 -6.42052 0
M  V30 830 H 76.3863 -1.50152 -6.27794 0
M  V30 831 H 77.1543 -3.13275 -7.56175 0
M  V30 832 N 79.8174 1.5752 -0.0501392 0
M  V30 833 C 81.0644 1.9265 0.623874 0
M  V30 834 C 81.3924 0.928411 1.70912 0
M  V30 835 O 80.6474 -0.0594525 1.9561 0
M  V30 836 C 80.9464 3.34467 1.25963 0
M  V30 837 C 80.6124 4.49883 0.302689 0
M  V30 838 C 79.2744 4.81184 0.0393636 0
M  V30 839 C 81.6264 5.20002 -0.353205 0
M  V30 840 C 78.9544 5.79951 -0.887308 0
M  V30 841 C 81.3064 6.1976 -1.26806 0
M  V30 842 C 79.9704 6.49491 -1.54007 0
M  V30 843 H 79.2404 0.704957 0.228292 0
M  V30 844 H 81.8874 1.91146 -0.116398 0
M  V30 845 H 80.1924 3.32333 2.07514 0
M  V30 846 H 81.8894 3.58928 1.78806 0
M  V30 847 H 78.4794 4.25457 0.518109 0
M  V30 848 H 82.6634 4.96033 -0.162854 0
M  V30 849 H 77.9194 6.01322 -1.10553 0
M  V30 850 H 82.0934 6.73205 -1.78236 0
M  V30 851 H 79.7204 7.25837 -2.25976 0
M  V30 852 N 81.2955 -0.223234 1.56011 0
M  V30 853 C 82.7115 -0.572856 1.48965 0
M  V30 854 C 82.9115 -1.87225 0.74492 0
M  V30 855 O 81.9675 -2.50899 0.283896 0
M  V30 856 C 83.2805 -0.653646 2.9351 0
M  V30 857 C 84.8285 -0.744386 3.0402 0
M  V30 858 C 85.3035 -0.856535 4.49919 0
M  V30 859 N 86.7945 -0.9208 4.53955 0
M  V30 860 C 87.5295 -1.02726 5.64123 0
M  V30 861 N 87.0255 -1.09777 6.84047 0
M  V30 862 N 88.8185 -1.06226 5.51971 0
M  V30 863 H 80.9695 0.629462 2.02858 0
M  V30 864 H 83.2325 0.220621 0.921971 0
M  V30 865 H 82.9385 0.231518 3.50937 0
M  V30 866 H 82.8125 -1.51781 3.45315 0
M  V30 867 H 85.1995 -1.61999 2.46658 0
M  V30 868 H 85.2805 0.14541 2.55386 0
M  V30 869 H 84.9245 0.0146069 5.07898 0
M  V30 870 H 84.8545 -1.76172 4.96257 0
M  V30 871 H 87.3455 -0.876694 3.6759 0
M  V30 872 H 87.6585 -1.17872 7.63758 0
M  V30 873 H 86.0035 -1.06693 6.86762 0
M  V30 874 H 89.1945 -1.00382 4.5721 0
M  V30 875 H 89.3675 -1.14177 6.37862 0
M  V30 876 N 82.7736 -1.49793 -0.48987 0
M  V30 877 C 84.0506 -1.50348 -1.25119 0
M  V30 878 C 84.4306 -0.237466 -2.0976 0
M  V30 879 O 83.7786 0.77981 -2.14782 0
M  V30 880 C 83.9886 -2.78872 -2.09837 0
M  V30 881 C 85.3366 -3.288 -2.68655 0
M  V30 882 O 86.3606 -2.80065 -2.20096 0
M  V30 883 O 85.2196 -4.13707 -3.57083 0
M  V30 884 H 82.3136 -0.602242 -0.566775 0
M  V30 885 H 84.8596 -1.62067 -0.503229 0
M  V30 886 H 83.6316 -3.62499 -1.47343 0
M  V30 887 H 83.2546 -2.70066 -2.91805 0
M  V30 888 N 84.2517 0.741722 -1.39055 0
M  V30 889 C 85.4997 1.49818 -1.35643 0
M  V30 890 C 85.8207 1.94938 0.0491642 0
M  V30 891 O 85.0907 1.68505 0.999141 0
M  V30 892 H 83.6707 0.555755 -0.499144 0
M  V30 893 H 86.3327 0.880957 -1.73854 0
M  V30 894 H 85.4287 2.38348 -2.01486 0
M  V30 895 N 85.7298 1.2412 0.971189 0
M  V30 896 C 87.1458 1.00584 1.23916 0
M  V30 897 C 87.3458 -0.287481 1.99439 0
M  V30 898 O 86.4018 -1.00454 2.31658 0
M  V30 899 C 87.7148 2.21864 2.0297 0
M  V30 900 C 89.2628 2.26452 2.16076 0
M  V30 901 C 89.7378 3.47343 2.98524 0
M  V30 902 N 91.2288 3.47639 3.06107 0
M  V30 903 C 91.9638 4.37837 3.70251 0
M  V30 904 N 91.4598 5.38286 4.36142 0
M  V30 905 N 93.2528 4.25558 3.67228 0
M  V30 906 H 85.4038 2.07236 0.465499 0
M  V30 907 H 87.6668 0.909236 0.268315 0
M  V30 908 H 87.3728 3.15771 1.54861 0
M  V30 909 H 87.2468 2.23698 3.03709 0
M  V30 910 H 89.6338 1.33078 2.6339 0
M  V30 911 H 89.7148 2.28645 1.14696 0
M  V30 912 H 89.3588 4.41029 2.51905 0
M  V30 913 H 89.2888 3.42393 4.00093 0
M  V30 914 H 91.7798 2.74966 2.59233 0
M  V30 915 H 92.0928 6.03352 4.82894 0
M  V30 916 H 90.4378 5.42176 4.34822 0
M  V30 917 H 93.6288 3.46322 3.14927 0
M  V30 918 H 93.8018 4.96054 4.16935 0
M  V30 919 N 87.2079 -1.17134 1.05439 0
M  V30 920 C 88.6239 -1.39454 0.776201 0
M  V30 921 C 88.8239 -1.91454 -0.628307 0
M  V30 922 O 87.8799 -2.10777 -1.39031 0
M  V30 923 C 89.1929 -2.38305 1.83388 0
M  V30 924 C 90.7409 -2.52006 1.85639 0
M  V30 925 C 91.2159 -3.54133 2.90437 0
M  V30 926 N 92.7069 -3.61653 2.89415 0
M  V30 927 C 93.4419 -4.4044 3.67152 0
M  V30 928 N 92.9379 -5.22721 4.54681 0
M  V30 929 N 94.7309 -4.35337 3.55581 0
M  V30 930 H 86.8819 -0.817134 1.96053 0
M  V30 931 H 89.1449 -0.421626 0.849079 0
M  V30 932 H 88.8509 -2.07173 2.84204 0
M  V30 933 H 88.7249 -3.37841 1.67761 0
M  V30 934 H 91.1119 -2.82447 0.85486 0
M  V30 935 H 91.1929 -1.52537 2.05344 0
M  V30 936 H 90.8369 -3.24431 3.90777 0
M  V30 937 H 90.7669 -4.53313 2.67983 0
M  V30 938 H 93.2579 -3.02909 2.25952 0
M  V30 939 H 93.5709 -5.80027 5.10674 0
M  V30 940 H 91.9159 -5.22093 4.58741 0
M  V30 941 H 95.1069 -3.70112 2.86592 0
M  V30 942 H 95.2799 -4.96494 4.1641 0
M  V30 943 N 88.686 -0.835752 -1.33615 0
M  V30 944 C 89.633 -0.26473 -2.29277 0
M  V30 945 C 90.603 0.617712 -1.54187 0
M  V30 946 O 91.788 0.556641 -1.825 0
M  V30 947 C 88.928 0.556777 -3.40579 0
M  V30 948 C 88.041 -0.349339 -4.30585 0
M  V30 949 C 87.176 0.482969 -5.29 0
M  V30 950 C 86.215 -0.421732 -6.10645 0
M  V30 951 N 85.352 0.372262 -7.01112 0
M  V30 952 H 90.192 -1.08582 -2.77514 0
M  V30 953 H 87.729 -0.546927 -1.36554 0
M  V30 954 H 89.687 1.04852 -4.03809 0
M  V30 955 H 88.317 1.34286 -2.93542 0
M  V30 956 H 87.369 -0.959372 -3.68104 0
M  V30 957 H 88.681 -1.04445 -4.87742 0
M  V30 958 H 87.835 1.03866 -5.97743 0
M  V30 959 H 86.574 1.21153 -4.72412 0
M  V30 960 H 85.579 -0.989464 -5.40823 0
M  V30 961 H 86.804 -1.14861 -6.69316 0
M  V30 962 H 84.75 1.08426 -6.46977 0
M  V30 963 H 84.667 -0.264198 -7.55538 0
M  V30 964 H 85.935 0.910293 -7.74167 0
M  V30 965 N 90.1641 1.46063 -0.591896 0
M  V30 966 C 91.4101 2.02638 -0.0811191 0
M  V30 967 C 91.7431 1.4613 1.27905 0
M  V30 968 O 91.0181 0.629908 1.84017 0
M  V30 969 C 91.3011 3.60091 -0.0252436 0
M  V30 970 C 91.1541 4.26965 -1.41496 0
M  V30 971 C 92.4731 4.3496 0.670685 0
M  V30 972 H 89.5921 0.73635 -0.0309524 0
M  V30 973 H 92.2341 1.741 -0.760859 0
M  V30 974 H 90.3841 3.84535 0.553624 0
M  V30 975 H 92.0561 4.13756 -2.0397 0
M  V30 976 H 90.2991 3.85971 -1.98011 0
M  V30 977 H 90.9701 5.35781 -1.32825 0
M  V30 978 H 93.4461 4.15716 0.178825 0
M  V30 979 H 92.3221 5.44686 0.678837 0
M  V30 980 H 92.5831 4.06685 1.73379 0
M  V30 981 N 91.6422 0.330177 1.54103 0
M  V30 982 C 92.9192 -0.325007 1.92881 0
M  V30 983 C 93.2992 -1.6934 1.26045 0
M  V30 984 O 92.6472 -2.24855 0.406526 0
M  V30 985 C 92.8572 -0.410634 3.46576 0
M  V30 986 C 94.2052 -0.667801 4.19316 0
M  V30 987 O 95.2292 -0.49329 3.52768 0
M  V30 988 O 94.0882 -1.00491 5.37181 0
M  V30 989 H 91.1822 -0.186873 0.80561 0
M  V30 990 H 93.7282 0.380376 1.65382 0
M  V30 991 H 92.5002 0.550164 3.87413 0
M  V30 992 H 92.1232 -1.16333 3.802 0
M  V30 993 N 93.1203 -1.57491 0.0584922 0
M  V30 994 C 94.3503 -1.9701 -0.622134 0
M  V30 995 C 94.7583 -0.935034 -1.6448 0
M  V30 996 O 94.1013 0.0882904 -1.83488 0
M  V30 997 C 94.1633 -3.32794 -1.35972 0
M  V30 998 C 93.8273 -4.54343 -0.492043 0
M  V30 999 C 94.8243 -5.19323 0.244901 0
M  V30 1000 C 92.5093 -5.00534 -0.420821 0
M  V30 1001 C 94.5033 -6.28835 1.04143 0
M  V30 1002 C 92.1903 -6.09921 0.379389 0
M  V30 1003 C 93.1883 -6.73933 1.10919 0
M  V30 1004 O 92.8763 -7.81216 1.89623 0
M  V30 1005 H 92.6083 -0.653127 -0.174359 0
M  V30 1006 H 95.1623 -2.05029 0.123418 0
M  V30 1007 H 93.3923 -3.21351 -2.15105 0
M  V30 1008 H 95.0813 -3.5701 -1.93129 0
M  V30 1009 H 95.8473 -4.8459 0.19939 0
M  V30 1010 H 91.7263 -4.50496 -0.978474 0
M  V30 1011 H 95.2703 -6.7873 1.61157 0
M  V30 1012 H 91.1673 -6.44089 0.426512 0
M  V30 1013 H 91.9353 -7.98029 1.81913 0
M  V30 1014 N 94.5984 0.214957 -1.56127 0
M  V30 1015 C 95.8474 0.936451 -1.78643 0
M  V30 1016 C 96.1604 1.85237 -0.628229 0
M  V30 1017 O 97.3664 2.613 -0.737186 0
M  V30 1018 C 95.8224 1.7154 -3.16389 0
M  V30 1019 C 95.4304 0.845299 -4.39953 0
M  V30 1020 C 97.1744 2.42772 -3.48227 0
M  V30 1021 C 95.0814 1.62198 -5.68723 0
M  V30 1022 H 94.0114 0.353401 -0.666051 0
M  V30 1023 H 96.6624 0.190169 -1.82512 0
M  V30 1024 H 95.0444 2.50484 -3.06715 0
M  V30 1025 H 96.2184 0.0959353 -4.607 0
M  V30 1026 H 94.5334 0.244789 -4.1568 0
M  V30 1027 H 97.1304 3.01394 -4.41663 0
M  V30 1028 H 97.4734 3.15984 -2.71035 0
M  V30 1029 H 98.0064 1.70813 -3.5926 0
M  V30 1030 H 94.7454 0.933011 -6.48826 0
M  V30 1031 H 94.2654 2.34579 -5.52026 0
M  V30 1032 H 95.9444 2.18095 -6.09133 0
M  V30 1033 N 96.0765 1.50051 0.48192 0
M  V30 1034 C 97.0065 1.71046 1.58951 0
M  V30 1035 C 97.9875 0.559288 1.60642 0
M  V30 1036 O 99.1725 0.797243 1.77081 0
M  V30 1037 C 96.3025 1.79462 2.97339 0
M  V30 1038 C 95.2565 2.94558 3.10515 0
M  V30 1039 C 94.5825 2.88105 4.50444 0
M  V30 1040 C 95.8825 4.35227 2.88747 0
M  V30 1041 H 97.5765 2.6378 1.41635 0
M  V30 1042 H 95.1225 1.26936 0.679942 0
M  V30 1043 H 97.0755 1.92734 3.74742 0
M  V30 1044 H 95.7995 0.833412 3.15788 0
M  V30 1045 H 94.4585 2.80918 2.35543 0
M  V30 1046 H 94.1065 1.89853 4.65795 0
M  V30 1047 H 93.8065 3.65366 4.60197 0
M  V30 1048 H 95.3305 3.03412 5.29881 0
M  V30 1049 H 96.7445 4.49449 3.55905 0
M  V30 1050 H 95.1415 5.13856 3.09955 0
M  V30 1051 H 96.2115 4.48347 1.84696 0
M  V30 1052 N 97.5546 -0.734337 1.39446 0
M  V30 1053 C 98.8006 -1.49613 1.36908 0
M  V30 1054 C 99.1336 -1.94169 -0.0347829 0
M  V30 1055 O 98.4086 -1.66833 -0.999847 0
M  V30 1056 C 98.6916 -2.73534 2.34203 0
M  V30 1057 C 98.5446 -2.34993 3.83534 0
M  V30 1058 C 99.8636 -3.75635 2.29317 0
M  V30 1059 H 96.9826 -0.542714 0.498629 0
M  V30 1060 H 99.6246 -0.839597 1.70443 0
M  V30 1061 H 97.7746 -3.29553 2.05736 0
M  V30 1062 H 99.4466 -1.84601 4.22753 0
M  V30 1063 H 97.6896 -1.67213 4.00278 0
M  V30 1064 H 98.3606 -3.23738 4.47099 0
M  V30 1065 H 100.837 -3.29203 2.54489 0
M  V30 1066 H 99.7126 -4.60008 2.99472 0
M  V30 1067 H 99.9736 -4.22603 1.29842 0
M  V30 1068 N 99.0327 -1.24633 -0.964593 0
M  V30 1069 C 100.263 -1.11339 -1.74032 0
M  V30 1070 C 100.671 0.336593 -1.86182 0
M  V30 1071 O 100.014 1.24389 -1.35178 0
M  V30 1072 C 100.076 -1.68284 -3.1768 0
M  V30 1073 C 99.7397 -3.17196 -3.28992 0
M  V30 1074 C 100.737 -4.14308 -3.14078 0
M  V30 1075 C 98.4217 -3.57215 -3.53133 0
M  V30 1076 C 100.416 -5.4942 -3.23135 0
M  V30 1077 C 98.1027 -4.92468 -3.61827 0
M  V30 1078 C 99.1007 -5.8838 -3.46841 0
M  V30 1079 O 98.7887 -7.21173 -3.55197 0
M  V30 1080 H 98.5207 -0.389551 -0.552472 0
M  V30 1081 H 101.075 -1.65282 -1.21946 0
M  V30 1082 H 99.3047 -1.08777 -3.71085 0
M  V30 1083 H 100.994 -1.50234 -3.77074 0
M  V30 1084 H 101.76 -3.84731 -2.95308 0
M  V30 1085 H 97.6387 -2.83063 -3.63863 0
M  V30 1086 H 101.183 -6.24263 -3.11355 0
M  V30 1087 H 97.0797 -5.21714 -3.80111 0
M  V30 1088 H 97.8477 -7.29135 -3.71892 0
M  V30 1089 N 100.511 1.16574 -1.06058 0
M  V30 1090 C 101.461 2.18854 -0.63929 0
M  V30 1091 C 102.445 1.57505 0.328798 0
M  V30 1092 O 103.637 1.76408 0.144623 0
M  V30 1093 C 100.766 3.43291 -0.0247203 0
M  V30 1094 C 99.8518 4.11722 -1.01716 0
M  V30 1095 N 100.243 4.55841 -2.19186 0
M  V30 1096 C 98.5408 4.37872 -0.847569 0
M  V30 1097 C 99.2418 5.08751 -2.82042 0
M  V30 1098 N 98.2178 5.01489 -2.09784 0
M  V30 1099 H 102.02 2.5068 -1.53417 0
M  V30 1100 H 99.5338 1.32999 -0.931935 0
M  V30 1101 H 101.531 4.15856 0.294915 0
M  V30 1102 H 100.191 3.12954 0.865448 0
M  V30 1103 H 101.202 4.49649 -2.56975 0
M  V30 1104 H 97.8788 4.17499 -0.00918848 0
M  V30 1105 H 99.2688 5.52944 -3.81709 0
M  V30 1106 N 101.989 0.842826 1.3317 0
M  V30 1107 C 102.939 0.250877 2.26616 0
M  V30 1108 C 103.923 -0.596427 1.49437 0
M  V30 1109 O 105.115 -0.447747 1.71243 0
M  V30 1110 C 102.244 -0.569779 3.38539 0
M  V30 1111 C 101.33 0.289254 4.23112 0
M  V30 1112 N 101.721 1.36987 4.86897 0
M  V30 1113 C 100.019 0.0769631 4.45934 0
M  V30 1114 C 100.72 1.89737 5.49886 0
M  V30 1115 N 99.6959 1.19827 5.30229 0
M  V30 1116 H 103.498 1.07718 2.73448 0
M  V30 1117 H 101.012 0.687693 1.47121 0
M  V30 1118 H 103.009 -1.01018 4.04476 0
M  V30 1119 H 101.669 -1.39401 2.93253 0
M  V30 1120 H 102.68 1.75277 4.87338 0
M  V30 1121 H 99.3569 -0.713507 4.11358 0
M  V30 1122 H 100.747 2.80253 6.10662 0
M  V30 1123 N 103.467 -1.45747 0.599634 0
M  V30 1124 C 104.414 -2.30467 -0.123849 0
M  V30 1125 C 105.384 -1.41632 -0.86774 0
M  V30 1126 O 106.569 -1.70568 -0.855056 0
M  V30 1127 C 103.709 -3.26402 -1.12051 0
M  V30 1128 C 102.822 -4.3034 -0.37832 0
M  V30 1129 C 101.957 -5.13389 -1.364 0
M  V30 1130 C 100.996 -6.09061 -0.609171 0
M  V30 1131 N 100.133 -6.84918 -1.54374 0
M  V30 1132 H 104.973 -2.91802 0.604627 0
M  V30 1133 H 102.51 -1.43797 0.309972 0
M  V30 1134 H 104.468 -3.80482 -1.7114 0
M  V30 1135 H 103.098 -2.66839 -1.8165 0
M  V30 1136 H 102.15 -3.78984 0.327929 0
M  V30 1137 H 103.462 -4.98354 0.210997 0
M  V30 1138 H 102.616 -5.7183 -2.02719 0
M  V30 1139 H 101.355 -4.45376 -1.98725 0
M  V30 1140 H 100.36 -5.49758 0.0676979 0
M  V30 1141 H 101.585 -6.79099 0.00891991 0
M  V30 1142 H 99.531 -6.19601 -2.15478 0
M  V30 1143 H 99.448 -7.49254 -1.00766 0
M  V30 1144 H 100.716 -7.47906 -2.19676 0
M  V30 1145 N 104.945 -0.338344 -1.53925 0
M  V30 1146 C 106.361 0.0137736 -1.59594 0
M  V30 1147 C 106.561 1.49186 -1.35447 0
M  V30 1148 O 105.617 2.24987 -1.14616 0
M  V30 1149 C 106.93 -0.41773 -2.97784 0
M  V30 1150 C 108.478 -0.369633 -3.1081 0
M  V30 1151 C 108.953 -0.776524 -4.51369 0
M  V30 1152 N 110.444 -0.730506 -4.57403 0
M  V30 1153 C 111.179 -1.01736 -5.64303 0
M  V30 1154 N 110.675 -1.3721 -6.79077 0
M  V30 1155 N 112.468 -0.941942 -5.54151 0
M  V30 1156 H 104.619 -1.3012 -1.67876 0
M  V30 1157 H 106.882 -0.530082 -0.78595 0
M  V30 1158 H 106.588 -1.44811 -3.20504 0
M  V30 1159 H 106.462 0.209729 -3.76616 0
M  V30 1160 H 108.849 0.651568 -2.87817 0
M  V30 1161 H 108.93 -1.03223 -2.34049 0
M  V30 1162 H 108.574 -1.79571 -4.75096 0
M  V30 1163 H 108.504 -0.0914649 -5.26521 0
M  V30 1164 H 110.995 -0.468783 -3.74981 0
M  V30 1165 H 111.308 -1.57597 -7.5656 0
M  V30 1166 H 109.653 -1.4105 -6.80536 0
M  V30 1167 H 112.844 -0.664184 -4.63364 0
M  V30 1168 H 113.017 -1.16884 -6.37371 0
M  V30 1169 N 106.423 1.57458 -0.0668435 0
M  V30 1170 C 107.834 1.80776 0.466558 0
M  V30 1171 C 108.185 0.980361 1.69951 0
M  V30 1172 O 107.31 0.201441 2.1546 0
M  V30 1173 C 107.905 3.27881 0.85321 0
M  V30 1174 C 106.464 3.52062 1.3315 0
M  V30 1175 C 105.611 2.75513 0.314264 0
M  V30 1176 H 108.562 1.5598 -0.292588 0
M  V30 1177 H 108.583 3.39659 1.715 0
M  V30 1178 H 108.095 3.88075 -0.0443439 0
M  V30 1179 H 106.196 2.97167 2.24772 0
M  V30 1180 H 106.309 4.60762 1.31285 0
M  V30 1181 H 104.673 2.42123 0.790492 0
M  V30 1182 H 105.456 3.38442 -0.575477 0
M  V30 1183 N 107.901 -0.206675 1.56239 0
M  V30 1184 C 109.126 -0.949474 1.8439 0
M  V30 1185 C 109.551 -1.76549 0.649016 0
M  V30 1186 O 108.909 -1.76782 -0.402231 0
M  V30 1187 C 108.957 -1.83078 3.10668 0
M  V30 1188 O 108.061 -2.9281 2.90407 0
M  V30 1189 H 107.402 -0.268033 0.607499 0
M  V30 1190 H 109.932 -0.215488 2.03462 0
M  V30 1191 H 109.942 -2.2377 3.41161 0
M  V30 1192 H 108.617 -1.23112 3.97261 0
M  V30 1193 H 107.194 -2.55956 2.71184 0
M  V30 1194 N 109.379 -1.50304 -0.473955 0
M  V30 1195 C 110.627 -1.60832 -1.22382 0
M  V30 1196 C 110.948 -0.30939 -1.9253 0
M  V30 1197 O 110.218 0.67296 -1.83978 0
M  V30 1198 H 108.798 -0.592652 -0.454723 0
M  V30 1199 H 111.46 -1.87068 -0.546968 0
M  V30 1200 H 110.556 -2.41803 -1.97327 0
M  V30 1201 N 110.857 0.726932 -1.39834 0
M  V30 1202 C 111.805 1.86235 -1.39353 0
M  V30 1203 C 112.799 1.67144 -0.275555 0
M  V30 1204 O 114.005 1.74387 -0.44601 0
M  V30 1205 H 110.38 0.613174 -0.43534 0
M  V30 1206 H 112.351 1.83756 -2.35109 0
M  V30 1207 C 111.1 3.23995 -1.26185 0
M  V30 1208 H 110.423 3.39285 -2.11484 0
M  V30 1209 H 111.863 4.03609 -1.29907 0
M  V30 1210 C 110.322 3.36888 0.0290018 0
M  V30 1211 O 110.852 3.89152 0.99619 0
M  V30 1212 N 109.058 2.90446 0.0947437 0
M  V30 1213 H 108.605 2.48102 -0.693035 0
M  V30 1214 H 108.563 2.99451 0.957932 0
M  V30 1215 N 112.336 1.25143 0.95797 0
M  V30 1216 C 113.752 1.01892 1.22842 0
M  V30 1217 C 113.952 -0.266311 1.99732 0
M  V30 1218 O 113.008 -0.979913 2.3271 0
M  V30 1219 C 114.321 2.24004 2.00606 0
M  V30 1220 C 115.869 2.28731 2.13662 0
M  V30 1221 C 116.344 3.5049 2.94823 0
M  V30 1222 N 117.835 3.50866 3.02403 0
M  V30 1223 C 118.57 4.4174 3.65586 0
M  V30 1224 N 118.066 5.42882 4.30408 0
M  V30 1225 N 119.859 4.29429 3.62694 0
M  V30 1226 H 112.01 2.07718 0.443493 0
M  V30 1227 H 114.273 0.912031 0.258657 0
M  V30 1228 H 113.979 3.17395 1.51503 0
M  V30 1229 H 113.853 2.26907 3.01319 0
M  V30 1230 H 116.24 1.35865 2.61963 0
M  V30 1231 H 116.321 2.29848 1.12265 0
M  V30 1232 H 115.965 4.43676 2.47213 0
M  V30 1233 H 115.895 3.46617 3.96439 0
M  V30 1234 H 118.386 2.777 2.56302 0
M  V30 1235 H 118.699 6.0844 4.76467 0
M  V30 1236 H 117.044 5.46758 4.29047 0
M  V30 1237 H 120.235 3.49643 3.11236 0
M  V30 1238 H 120.408 5.00448 4.1165 0
M  V30 1239 N 113.814 -1.1601 1.06675 0
M  V30 1240 C 115.042 -1.90527 0.806667 0
M  V30 1241 C 115.457 -1.77643 -0.639396 0
M  V30 1242 O 114.814 -1.12369 -1.43803 0
M  V30 1243 C 114.865 -3.41106 1.19705 0
M  V30 1244 O 114.586 -3.53608 2.58636 0
M  V30 1245 C 116.087 -4.32663 0.965266 0
M  V30 1246 H 113.307 -0.604053 0.292166 0
M  V30 1247 H 115.851 -1.47026 1.4214 0
M  V30 1248 H 114.006 -3.82296 0.626774 0
M  V30 1249 H 114.42 -4.47011 2.74375 0
M  V30 1250 H 115.894 -5.36763 1.288 0
M  V30 1251 H 116.371 -4.39089 -0.0987936 0
M  V30 1252 H 116.977 -3.97206 1.52011 0
M  V30 1253 N 115.292 -0.849877 -1.32721 0
M  V30 1254 C 116.222 -0.306308 -2.31482 0
M  V30 1255 C 117.203 0.591952 -1.59468 0
M  V30 1256 O 118.388 0.513199 -1.87296 0
M  V30 1257 C 115.518 0.510204 -3.43532 0
M  V30 1258 C 114.472 -0.293209 -4.26994 0
M  V30 1259 C 113.798 0.647743 -5.30762 0
M  V30 1260 C 115.098 -1.51634 -4.99804 0
M  V30 1261 H 116.792 -1.13153 -2.77195 0
M  V30 1262 H 114.338 -0.545553 -1.33266 0
M  V30 1263 H 116.291 0.900856 -4.11658 0
M  V30 1264 H 115.015 1.36874 -2.96535 0
M  V30 1265 H 113.674 -0.665555 -3.60508 0
M  V30 1266 H 113.322 1.50299 -4.8002 0
M  V30 1267 H 113.022 0.11422 -5.87489 0
M  V30 1268 H 114.546 1.03567 -6.01753 0
M  V30 1269 H 115.96 -1.19824 -5.60638 0
M  V30 1270 H 114.357 -1.98745 -5.66234 0
M  V30 1271 H 115.427 -2.28018 -4.27943 0
M  V30 1272 N 116.77 1.45427 -0.607355 0
M  V30 1273 C 118.016 2.0254 -0.102607 0
M  V30 1274 C 118.349 1.47478 1.26348 0
M  V30 1275 O 117.624 0.64939 1.83339 0
M  V30 1276 C 117.907 3.60044 -0.0634347 0
M  V30 1277 C 117.76 4.2544 -1.46017 0
M  V30 1278 C 119.079 4.35646 0.624514 0
M  V30 1279 H 116.198 0.73598 -0.0387607 0
M  V30 1280 H 118.84 1.73284 -0.779282 0
M  V30 1281 H 116.99 3.85101 0.512808 0
M  V30 1282 H 118.662 4.11569 -2.08347 0
M  V30 1283 H 116.905 3.83849 -2.02094 0
M  V30 1284 H 117.576 5.34342 -1.385 0
M  V30 1285 H 120.052 4.15882 0.134723 0
M  V30 1286 H 118.928 5.45376 0.621028 0
M  V30 1287 H 119.189 4.08501 1.69055 0
M  V30 1288 N 118.248 0.346503 1.53744 0
M  V30 1289 C 119.664 -0.00530975 1.59599 0
M  V30 1290 C 119.864 -1.48465 1.36236 0
M  V30 1291 O 118.92 -2.24376 1.15808 0
M  V30 1292 C 120.233 0.433516 2.97559 0
M  V30 1293 C 121.781 0.386111 3.10609 0
M  V30 1294 C 122.256 0.800451 4.50951 0
M  V30 1295 N 123.747 0.754753 4.5701 0
M  V30 1296 C 124.482 1.04727 5.63755 0
M  V30 1297 N 123.978 1.4081 6.7834 0
M  V30 1298 N 125.771 0.971316 5.53644 0
M  V30 1299 H 117.922 1.31009 1.67184 0
M  V30 1300 H 120.185 0.534242 0.783128 0
M  V30 1301 H 119.891 1.46509 3.19731 0
M  V30 1302 H 119.765 -0.189753 3.76722 0
M  V30 1303 H 122.152 -0.636295 2.88158 0
M  V30 1304 H 122.233 1.04462 2.33498 0
M  V30 1305 H 121.877 1.82088 4.74137 0
M  V30 1306 H 121.807 0.119386 5.26465 0
M  V30 1307 H 124.298 0.488662 3.74727 0
M  V30 1308 H 124.611 1.61607 7.55714 0
M  V30 1309 H 122.956 1.44657 6.79779 0
M  V30 1310 H 126.147 0.688748 4.63005 0
M  V30 1311 H 126.32 1.20263 6.36742 0
M  V30 1312 N 119.726 -1.57421 0.075193 0
M  V30 1313 C 121.142 -1.57099 -0.281444 0
M  V30 1314 C 121.342 -1.08486 -1.69803 0
M  V30 1315 O 120.398 -0.752279 -2.41033 0
M  V30 1316 C 121.711 -3.00571 -0.0880041 0
M  V30 1317 C 123.259 -3.12605 -0.157281 0
M  V30 1318 C 123.734 -4.57999 0.0079207 0
M  V30 1319 N 125.225 -4.63176 -0.0475725 0
M  V30 1320 C 125.96 -5.73373 0.0557876 0
M  V30 1321 N 125.456 -6.92473 0.21286 0
M  V30 1322 N 127.249 -5.621 -0.00152098 0
M  V30 1323 H 119.4 -1.87335 1.00098 0
M  V30 1324 H 121.663 -0.86377 0.390646 0
M  V30 1325 H 121.369 -3.40262 0.889629 0
M  V30 1326 H 121.243 -3.67754 -0.838875 0
M  V30 1327 H 123.63 -2.72798 -1.1254 0
M  V30 1328 H 123.711 -2.48053 0.62475 0
M  V30 1329 H 123.355 -4.98496 0.972824 0
M  V30 1330 H 123.285 -5.20586 -0.793556 0
M  V30 1331 H 125.776 -3.7753 -0.167244 0
M  V30 1332 H 126.089 -7.72279 0.283781 0
M  V30 1333 H 124.434 -6.94556 0.248267 0
M  V30 1334 H 127.625 -4.67938 -0.122958 0
M  V30 1335 H 127.798 -6.47948 0.0824844 0
M  V30 1336 N 121.204 0.198386 -1.56346 0
M  V30 1337 C 122.45 0.920648 -1.80698 0
M  V30 1338 C 122.783 1.83045 -0.648697 0
M  V30 1339 O 122.058 1.91308 0.350925 0
M  V30 1340 C 122.341 1.73971 -3.15287 0
M  V30 1341 C 122.194 0.85485 -4.41602 0
M  V30 1342 C 123.513 2.71296 -3.46535 0
M  V30 1343 H 120.632 0.333261 -0.657348 0
M  V30 1344 H 123.274 0.188198 -1.89066 0
M  V30 1345 H 121.424 2.36416 -3.08285 0
M  V30 1346 H 123.096 0.245362 -4.60647 0
M  V30 1347 H 121.339 0.161398 -4.335 0
M  V30 1348 H 122.01 1.46286 -5.32264 0
M  V30 1349 H 124.486 2.18983 -3.53816 0
M  V30 1350 H 123.362 3.2569 -4.41834 0
M  V30 1351 H 123.623 3.5018 -2.69864 0
M  V30 1352 N 122.682 1.50554 0.465978 0
M  V30 1353 C 123.614 1.65949 1.58093 0
M  V30 1354 C 124.627 0.540827 1.53554 0
M  V30 1355 O 125.816 0.814187 1.5885 0
M  V30 1356 C 122.916 1.63261 2.96983 0
M  V30 1357 C 122.089 2.91245 3.26336 0
M  V30 1358 C 121.148 2.8113 4.44806 0
M  V30 1359 O 120.174 3.55086 4.44862 0
M  V30 1360 N 121.376 1.95032 5.46756 0
M  V30 1361 H 124.141 2.62122 1.45301 0
M  V30 1362 H 121.702 1.48082 0.65448 0
M  V30 1363 H 123.694 1.54101 3.74212 0
M  V30 1364 H 122.264 0.748032 3.03518 0
M  V30 1365 H 121.484 3.14493 2.37672 0
M  V30 1366 H 122.772 3.76022 3.42761 0
M  V30 1367 H 122.17 1.3427 5.49534 0
M  V30 1368 H 120.727 1.91772 6.2295 0
M  V30 1369 N 124.16 -0.719506 1.40217 0
M  V30 1370 C 125.11 -1.8251 1.36653 0
M  V30 1371 C 126.094 -1.59028 0.244732 0
M  V30 1372 O 127.286 -1.70268 0.483524 0
M  V30 1373 C 124.415 -3.20599 1.22763 0
M  V30 1374 C 123.501 -3.49858 2.39708 0
M  V30 1375 N 123.892 -3.49957 3.6519 0
M  V30 1376 C 122.19 -3.80297 2.33002 0
M  V30 1377 C 122.891 -3.77449 4.42614 0
M  V30 1378 N 121.867 -3.96002 3.72402 0
M  V30 1379 H 125.669 -1.80914 2.31619 0
M  V30 1380 H 123.183 -0.918455 1.33933 0
M  V30 1381 H 125.18 -3.99766 1.18292 0
M  V30 1382 H 123.84 -3.23424 0.287614 0
M  V30 1383 H 124.851 -3.309 3.98404 0
M  V30 1384 H 121.528 -3.90635 1.47346 0
M  V30 1385 H 122.918 -3.83863 5.51451 0
M  V30 1386 N 125.638 -1.25649 -0.95132 0
M  V30 1387 C 126.863 -1.13443 -1.73624 0
M  V30 1388 C 127.288 0.307565 -1.85568 0
M  V30 1389 O 126.646 1.22282 -1.33854 0
M  V30 1390 C 126.694 -1.79723 -3.12621 0
M  V30 1391 O 125.798 -1.07912 -3.98031 0
M  V30 1392 H 125.139 -0.395872 -0.533086 0
M  V30 1393 H 127.669 -1.66276 -1.1922 0
M  V30 1394 H 127.679 -1.86141 -3.63064 0
M  V30 1395 H 126.354 -2.84633 -3.03244 0
M  V30 1396 H 124.931 -1.09398 -3.56492 0
M  V30 1397 N 127.117 1.15442 -1.07289 0
M  V30 1398 C 128.394 1.82306 -0.708792 0
M  V30 1399 C 128.774 1.94991 0.808807 0
M  V30 1400 O 128.122 1.50085 1.72298 0
M  V30 1401 C 128.332 3.18695 -1.42247 0
M  V30 1402 C 129.68 3.94341 -1.57417 0
M  V30 1403 O 130.704 3.28247 -1.38319 0
M  V30 1404 O 129.563 5.12839 -1.88834 0
M  V30 1405 H 126.657 0.787628 -0.252132 0
M  V30 1406 H 129.203 1.22559 -1.17377 0
M  V30 1407 H 127.975 3.04557 -2.45684 0
M  V30 1408 H 127.598 3.86128 -0.948223 0
M  V30 1409 N 128.595 0.856903 1.32268 0
M  V30 1410 C 129.823 0.475439 2.01363 0
M  V30 1411 C 130.238 -0.928486 1.64392 0
M  V30 1412 O 129.595 -1.60624 0.866387 0
M  V30 1413 C 129.646 0.607545 3.56358 0
M  V30 1414 O 129.367 1.95617 3.92002 0
M  V30 1415 C 130.868 0.225382 4.42727 0
M  V30 1416 H 128.088 0.186636 0.644521 0
M  V30 1417 H 130.632 1.15446 1.68797 0
M  V30 1418 H 128.787 -0.0237719 3.87393 0
M  V30 1419 H 129.201 1.95455 4.86721 0
M  V30 1420 H 130.675 0.368813 5.50767 0
M  V30 1421 H 131.152 -0.834369 4.31202 0
M  V30 1422 H 131.758 0.831864 4.17085 0
M  V30 1423 N 130.073 -1.45103 0.615059 0
M  V30 1424 C 131.484 -1.85654 0.197383 0
M  V30 1425 C 131.835 -1.51433 -1.24749 0
M  V30 1426 O 130.96 -0.944608 -1.94695 0
M  V30 1427 C 131.555 -3.36972 0.351448 0
M  V30 1428 C 130.114 -3.76398 -0.011593 0
M  V30 1429 C 129.261 -2.69024 0.672394 0
M  V30 1430 H 132.212 -1.35797 0.821263 0
M  V30 1431 H 132.233 -3.78239 -0.414227 0
M  V30 1432 H 131.745 -3.61847 1.40314 0
M  V30 1433 H 129.846 -3.5714 -1.06217 0
M  V30 1434 H 129.959 -4.77532 0.387265 0
M  V30 1435 H 128.323 -2.54465 0.109284 0
M  V30 1436 H 129.106 -2.96735 1.72636 0
M  V30 1437 N 131.551 -0.354651 -1.53558 0
M  V30 1438 C 132.776 0.242153 -2.05981 0
M  V30 1439 C 133.201 1.42553 -1.2272 0
M  V30 1440 O 132.559 1.79656 -0.243604 0
M  V30 1441 C 132.607 0.624367 -3.55154 0
M  V30 1442 O 131.711 1.72301 -3.74681 0
M  V30 1443 H 131.052 0.0378432 -0.662921 0
M  V30 1444 H 133.582 -0.512087 -1.98088 0
M  V30 1445 H 133.592 0.898433 -3.97985 0
M  V30 1446 H 132.267 -0.240989 -4.15201 0
M  V30 1447 H 130.844 1.44535 -3.4375 0
M  V30 1448 N 133.029 1.57378 -0.0835403 0
M  V30 1449 C 134.277 1.93547 0.581718 0
M  V30 1450 C 134.598 0.96524 1.69435 0
M  V30 1451 O 133.868 0.0153369 1.95894 0
M  V30 1452 H 132.448 0.714521 0.217874 0
M  V30 1453 H 135.11 1.94366 -0.144158 0
M  V30 1454 H 134.206 2.95665 0.999423 0
M  V30 1455 N 134.507 -0.190092 1.56449 0
M  V30 1456 C 135.47 -1.21925 1.9408 0
M  V30 1457 C 136.47 -1.38176 0.822431 0
M  V30 1458 O 137.66 -1.35903 1.08977 0
M  V30 1459 C 134.792 -2.58773 2.21922 0
M  V30 1460 H 135.985 -0.897464 2.86157 0
M  V30 1461 H 133.538 -0.43181 1.50217 0
M  V30 1462 H 134.273 -2.95998 1.32499 0
M  V30 1463 H 134.058 -2.48348 3.03424 0
M  V30 1464 H 135.548 -3.32978 2.52022 0
M  V30 1465 N 135.985 -1.50799 -0.457987 0
M  V30 1466 C 137.401 -1.38515 -0.792819 0
M  V30 1467 C 137.601 -0.451409 -1.96379 0
M  V30 1468 O 136.657 0.10112 -2.52297 0
M  V30 1469 C 137.97 -2.80149 -1.09258 0
M  V30 1470 C 139.518 -2.89156 -1.19825 0
M  V30 1471 C 139.993 -4.31651 -1.53106 0
M  V30 1472 N 141.484 -4.34662 -1.60072 0
M  V30 1473 C 142.219 -5.41928 -1.87354 0
M  V30 1474 N 141.715 -6.59384 -2.12568 0
M  V30 1475 N 143.508 -5.29385 -1.88965 0
M  V30 1476 H 135.659 -2.10073 0.313511 0
M  V30 1477 H 137.922 -0.944803 0.0777862 0
M  V30 1478 H 137.628 -3.50374 -0.305084 0
M  V30 1479 H 137.502 -3.18204 -2.02549 0
M  V30 1480 H 139.889 -2.19141 -1.97639 0
M  V30 1481 H 139.97 -2.54626 -0.244821 0
M  V30 1482 H 139.614 -5.02208 -0.758266 0
M  V30 1483 H 139.544 -4.63678 -2.49621 0
M  V30 1484 H 142.035 -3.49973 -1.42573 0
M  V30 1485 H 142.348 -7.36934 -2.32696 0
M  V30 1486 H 140.693 -6.62535 -2.09933 0
M  V30 1487 H 143.884 -4.36616 -1.68772 0
M  V30 1488 H 144.057 -6.13066 -2.09891 0
M  V30 1489 N 137.463 0.71206 -1.40597 0
M  V30 1490 C 138.688 1.50617 -1.42581 0
M  V30 1491 C 139.113 1.88079 -0.0282102 0
M  V30 1492 O 138.471 1.53511 0.964579 0
M  V30 1493 C 138.519 2.7557 -2.3258 0
M  V30 1494 O 137.623 3.72414 -1.77148 0
M  V30 1495 H 136.964 0.453966 -0.484573 0
M  V30 1496 H 139.494 0.876649 -1.84868 0
M  V30 1497 H 139.504 3.2406 -2.47889 0
M  V30 1498 H 138.179 2.47639 -3.34138 0
M  V30 1499 H 136.756 3.31276 -1.71204 0
M  V30 1500 N 138.941 1.26152 0.944643 0
M  V30 1501 C 140.187 1.11657 1.69294 0
M  V30 1502 C 140.52 -0.339926 1.91202 0
M  V30 1503 O 139.795 -1.24994 1.49019 0
M  V30 1504 C 140.078 1.88236 3.06984 0
M  V30 1505 C 139.931 3.41772 2.92424 0
M  V30 1506 C 141.25 1.67343 4.07043 0
M  V30 1507 H 138.369 0.407004 0.614424 0
M  V30 1508 H 141.011 1.55106 1.09737 0
M  V30 1509 H 139.161 1.51308 3.57824 0
M  V30 1510 H 140.833 3.88433 2.48832 0
M  V30 1511 H 139.076 3.68974 2.28124 0
M  V30 1512 H 139.747 3.90579 3.90067 0
M  V30 1513 H 142.223 1.99509 3.65151 0
M  V30 1514 H 141.099 2.23346 5.01406 0
M  V30 1515 H 141.36 0.617158 4.37771 0
M  V30 1516 N 140.419 -1.14872 1.07899 0
M  V30 1517 C 141.366 -2.19791 0.704319 0
M  V30 1518 C 142.336 -1.63238 -0.306987 0
M  V30 1519 O 143.521 -1.8983 -0.192171 0
M  V30 1520 C 140.661 -3.44911 0.114244 0
M  V30 1521 C 139.774 -4.15637 1.1777 0
M  V30 1522 C 138.909 -5.28324 0.552037 0
M  V30 1523 C 137.948 -5.90875 1.59789 0
M  V30 1524 N 137.085 -6.95022 0.994404 0
M  V30 1525 H 141.925 -2.5119 1.60336 0
M  V30 1526 H 139.462 -1.23356 0.801352 0
M  V30 1527 H 141.42 -4.16477 -0.245544 0
M  V30 1528 H 140.05 -3.14011 -0.74813 0
M  V30 1529 H 139.102 -3.42512 1.65499 0
M  V30 1530 H 140.414 -4.5823 1.97046 0
M  V30 1531 H 139.568 -6.06538 0.1402 0
M  V30 1532 H 138.307 -4.86939 -0.272431 0
M  V30 1533 H 137.312 -5.11369 2.01945 0
M  V30 1534 H 138.537 -6.34337 2.42474 0
M  V30 1535 H 136.483 -6.55722 0.190939 0
M  V30 1536 H 136.4 -7.36073 1.72432 0
M  V30 1537 H 137.668 -7.77123 0.608253 0
M  V30 1538 N 141.898 -0.863906 -1.31812 0
M  V30 1539 C 142.83 -0.272485 -2.27575 0
M  V30 1540 C 143.843 0.56104 -1.52827 0
M  V30 1541 O 145.032 0.384021 -1.7432 0
M  V30 1542 C 142.132 0.63283 -3.32939 0
M  V30 1543 C 141.305 -0.166902 -4.37081 0
M  V30 1544 C 140.364 0.665608 -5.21973 0
M  V30 1545 O 139.39 0.0958091 -5.69119 0
M  V30 1546 N 140.592 1.9787 -5.45736 0
M  V30 1547 H 143.357 -1.0954 -2.78964 0
M  V30 1548 H 140.918 -0.724791 -1.4477 0
M  V30 1549 H 142.91 1.19532 -3.86645 0
M  V30 1550 H 141.48 1.35642 -2.81638 0
M  V30 1551 H 140.7 -0.910838 -3.83533 0
M  V30 1552 H 141.988 -0.715874 -5.03739 0
M  V30 1553 H 141.386 2.46484 -5.09178 0
M  V30 1554 H 139.943 2.48911 -6.024 0
M  V30 1555 N 143.376 1.44774 -0.622745 0
M  V30 1556 C 144.653 1.95522 -0.0551974 0
M  V30 1557 C 145.033 1.5649 1.41683 0
M  V30 1558 O 144.381 0.834848 2.12703 0
M  V30 1559 C 144.591 3.4796 -0.269242 0
M  V30 1560 C 145.939 4.24306 -0.158014 0
M  V30 1561 O 146.963 3.55637 -0.200162 0
M  V30 1562 O 145.822 5.46471 -0.0558693 0
M  V30 1563 H 142.916 0.826556 0.0271015 0
M  V30 1564 H 145.462 1.54866 -0.693864 0
M  V30 1565 H 144.234 3.6939 -1.29099 0
M  V30 1566 H 143.857 3.95543 0.403966 0
M  V30 1567 N 144.854 0.36279 1.53368 0
M  V30 1568 C 145.804 -0.501391 2.22419 0
M  V30 1569 C 146.788 -1.0509 1.2184 0
M  V30 1570 O 147.98 -0.981404 1.47301 0
M  V30 1571 C 145.109 -1.64201 3.01484 0
M  V30 1572 C 144.195 -1.10552 4.09438 0
M  V30 1573 N 144.586 -0.291788 5.04958 0
M  V30 1574 C 142.884 -1.3806 4.24094 0
M  V30 1575 C 143.585 0.00162655 5.817 0
M  V30 1576 N 142.561 -0.595244 5.40331 0
M  V30 1577 H 146.363 0.127159 2.93625 0
M  V30 1578 H 143.877 0.170658 1.61501 0
M  V30 1579 H 145.874 -2.27326 3.49469 0
M  V30 1580 H 144.534 -2.27365 2.31809 0
M  V30 1581 H 145.545 0.0687731 5.17854 0
M  V30 1582 H 142.222 -2.01522 3.65644 0
M  V30 1583 H 143.612 0.659278 6.68658 0
M  V30 1584 N 146.332 -1.57332 0.0918853 0
M  V30 1585 C 147.743 -1.81496 -0.437739 0
M  V30 1586 C 148.094 -1.00727 -1.6837 0
M  V30 1587 O 147.219 -0.235694 -2.15113 0
M  V30 1588 C 147.814 -3.29197 -0.800939 0
M  V30 1589 C 146.373 -3.54136 -1.27532 0
M  V30 1590 C 145.52 -2.75979 -0.270392 0
M  V30 1591 H 148.471 -1.55494 0.317366 0
M  V30 1592 H 148.492 -3.42344 -1.66074 0
M  V30 1593 H 148.004 -3.87955 0.106078 0
M  V30 1594 H 146.105 -3.00705 -2.20016 0
M  V30 1595 H 146.218 -4.62792 -1.23938 0
M  V30 1596 H 144.582 -2.43349 -0.751872 0
M  V30 1597 H 145.365 -3.37484 0.629248 0
M  V30 1598 N 147.81 0.181792 -1.56548 0
M  V30 1599 C 148.74 1.22765 -1.98623 0
M  V30 1600 C 149.721 1.46747 -0.860189 0
M  V30 1601 O 150.906 1.58259 -1.12551 0
M  V30 1602 C 148.036 2.56894 -2.33715 0
M  V30 1603 C 146.99 2.475 -3.49182 0
M  V30 1604 C 146.316 3.86023 -3.69986 0
M  V30 1605 C 147.616 1.98866 -4.82959 0
M  V30 1606 H 149.31 0.877942 -2.86239 0
M  V30 1607 H 146.856 0.42088 -1.37712 0
M  V30 1608 H 148.809 3.30253 -2.61746 0
M  V30 1609 H 147.533 2.93632 -1.42997 0
M  V30 1610 H 146.192 1.76596 -3.21262 0
M  V30 1611 H 145.84 4.20136 -2.76576 0
M  V30 1612 H 145.54 3.80609 -4.47672 0
M  V30 1613 H 147.064 4.60984 -4.00407 0
M  V30 1614 H 148.478 2.61992 -5.09934 0
M  V30 1615 H 146.875 2.04424 -5.64208 0
M  V30 1616 H 147.945 0.942465 -4.75653 0
M  V30 1617 N 149.288 1.51039 0.449983 0
M  V30 1618 C 150.699 1.557 1.03026 0
M  V30 1619 C 151.05 0.372939 1.92623 0
M  V30 1620 O 150.175 -0.511771 2.10261 0
M  V30 1621 C 150.77 2.82171 1.87523 0
M  V30 1622 C 149.329 2.89444 2.40622 0
M  V30 1623 C 148.476 2.50228 1.19504 0
M  V30 1624 H 151.427 1.56999 0.231745 0
M  V30 1625 H 151.448 2.65219 2.72835 0
M  V30 1626 H 150.96 3.68331 1.22286 0
M  V30 1627 H 149.061 2.07685 3.0935 0
M  V30 1628 H 149.174 3.92816 2.74285 0
M  V30 1629 H 147.538 2.03139 1.53644 0
M  V30 1630 H 148.321 3.38719 0.558972 0
M  V30 1631 N 150.766 -0.704594 1.40972 0
M  V30 1632 C 152.014 -1.46169 1.39568 0
M  V30 1633 C 152.335 -1.95 0.00253745 0
M  V30 1634 O 151.605 -1.71095 -0.954114 0
M  V30 1635 H 150.185 -0.542326 0.513704 0
M  V30 1636 H 152.847 -0.834553 1.76128 0
M  V30 1637 H 151.943 -2.32922 2.07735 0
M  V30 1638 N 152.244 -1.26651 -0.937939 0
M  V30 1639 C 153.191 -1.0849 -2.03712 0
M  V30 1640 C 154.161 0.011033 -1.66096 0
M  V30 1641 O 155.346 -0.149353 -1.90215 0
M  V30 1642 C 152.486 -0.72735 -3.37348 0
M  V30 1643 C 151.599 -1.89986 -3.87981 0
M  V30 1644 C 150.734 -1.48513 -5.10017 0
M  V30 1645 C 149.773 -2.62575 -5.5292 0
M  V30 1646 N 148.91 -2.21762 -6.66158 0
M  V30 1647 H 153.75 -2.02551 -2.18579 0
M  V30 1648 H 151.287 -1.00844 -1.07093 0
M  V30 1649 H 153.245 -0.50092 -4.14182 0
M  V30 1650 H 151.875 0.176298 -3.22318 0
M  V30 1651 H 150.927 -2.23913 -3.07518 0
M  V30 1652 H 152.239 -2.75586 -4.15757 0
M  V30 1653 H 151.393 -1.21934 -5.94321 0
M  V30 1654 H 150.132 -0.60009 -4.83994 0
M  V30 1655 H 149.137 -2.8988 -4.67172 0
M  V30 1656 H 150.362 -3.51685 -5.80943 0
M  V30 1657 H 148.308 -1.35696 -6.41812 0
M  V30 1658 H 148.225 -3.00903 -6.93537 0
M  V30 1659 H 149.493 -1.98403 -7.53828 0
M  V30 1660 N 153.722 1.14298 -1.08507 0
M  V30 1661 C 154.97 1.84993 -0.813763 0
M  V30 1662 C 155.291 1.83405 0.662393 0
M  V30 1663 O 154.561 1.28319 1.48024 0
M  V30 1664 H 153.141 0.684966 -0.298045 0
M  V30 1665 H 155.803 1.385 -1.37126 0
M  V30 1666 H 154.899 2.89788 -1.15884 0
M  V30 1667 N 155.201 0.870884 1.31352 0
M  V30 1668 C 156.164 0.332243 2.26779 0
M  V30 1669 C 157.164 -0.517302 1.52252 0
M  V30 1670 O 158.354 -0.326477 1.71113 0
M  V30 1671 C 155.486 -0.528066 3.36785 0
M  V30 1672 H 156.679 1.17469 2.75937 0
M  V30 1673 H 154.232 0.64655 1.423 0
M  V30 1674 H 154.967 -1.39167 2.92922 0
M  V30 1675 H 154.752 0.0802582 3.92018 0
M  V30 1676 H 156.242 -0.897179 4.07849 0
M  V30 1677 N 156.679 -1.44442 0.630414 0
M  V30 1678 C 157.904 -2.06927 0.139944 0
M  V30 1679 C 158.329 -1.46795 -1.17613 0
M  V30 1680 O 157.687 -0.569144 -1.72135 0
M  V30 1681 C 157.735 -3.6058 0.0379581 0
M  V30 1682 O 156.839 -3.99937 -1.0062 0
M  V30 1683 H 156.18 -0.658608 0.0844483 0
M  V30 1684 H 158.71 -1.85327 0.866891 0
M  V30 1685 H 158.72 -4.07714 -0.152856 0
M  V30 1686 H 157.395 -4.03728 0.998809 0
M  V30 1687 H 155.972 -3.64436 -0.79001 0
M  V30 1688 N 158.157 -0.370918 -1.53173 0
M  V30 1689 C 159.087 0.464847 -2.28826 0
M  V30 1690 C 160.068 1.07936 -1.31468 0
M  V30 1691 O 161.253 1.0956 -1.60344 0
M  V30 1692 C 158.383 1.60196 -3.08147 0
M  V30 1693 C 157.337 1.11443 -4.13237 0
M  V30 1694 C 156.663 2.3422 -4.80672 0
M  V30 1695 C 157.963 0.195384 -5.21934 0
M  V30 1696 H 159.657 -0.166329 -2.98938 0
M  V30 1697 H 157.203 -0.0814359 -1.4377 0
M  V30 1698 H 159.156 2.19332 -3.59822 0
M  V30 1699 H 157.88 2.26045 -2.35735 0
M  V30 1700 H 156.539 0.545727 -3.62515 0
M  V30 1701 H 156.187 2.98537 -4.04827 0
M  V30 1702 H 155.887 2.02269 -5.51689 0
M  V30 1703 H 157.411 2.94032 -5.35143 0
M  V30 1704 H 158.825 0.694375 -5.69079 0
M  V30 1705 H 157.222 -0.0335027 -6.00091 0
M  V30 1706 H 158.292 -0.760961 -4.78892 0
M  V30 1707 N 159.635 1.57281 -0.100228 0
M  V30 1708 C 160.912 1.86014 0.604812 0
M  V30 1709 C 161.292 0.998025 1.86018 0
M  V30 1710 O 160.64 0.0718184 2.28387 0
M  V30 1711 C 160.85 3.36784 0.915278 0
M  V30 1712 C 162.198 4.04957 1.27651 0
M  V30 1713 O 163.222 3.41695 1.00613 0
M  V30 1714 O 162.081 5.16593 1.7831 0
M  V30 1715 H 159.175 0.76942 0.303185 0
M  V30 1716 H 161.721 1.69176 -0.133313 0
M  V30 1717 H 160.493 3.91292 0.0248896 0
M  V30 1718 H 160.116 3.58987 1.70921 0
M  V30 1719 N 161.113 -0.173488 1.56642 0
M  V30 1720 C 162.076 -1.19859 1.95362 0
M  V30 1721 C 163.076 -1.37296 0.83704 0
M  V30 1722 O 164.266 -1.34739 1.10413 0
M  V30 1723 C 161.398 -2.56405 2.24654 0
M  V30 1724 H 162.591 -0.867062 2.87092 0
M  V30 1725 H 160.144 -0.415853 1.50666 0
M  V30 1726 H 160.879 -2.94576 1.35631 0
M  V30 1727 H 160.664 -2.45115 3.06041 0
M  V30 1728 H 162.154 -3.30287 2.5554 0
M  V30 1729 N 162.591 -1.51276 -0.441967 0
M  V30 1730 C 163.839 -1.63392 -1.18943 0
M  V30 1731 C 164.16 -0.350159 -1.9183 0
M  V30 1732 O 163.43 0.633784 -1.85364 0
M  V30 1733 H 162.01 -0.602164 -0.442049 0
M  V30 1734 H 164.672 -1.88186 -0.507165 0
M  V30 1735 H 163.768 -2.45934 -1.92154 0
M  V30 1736 N 164.069 0.697108 -1.41344 0
M  V30 1737 C 165.294 1.49096 -1.44171 0
M  V30 1738 C 165.719 1.88038 -0.0481568 0
M  V30 1739 O 165.077 1.54525 0.948243 0
M  V30 1740 C 165.125 2.73088 -2.3549 0
M  V30 1741 O 164.229 3.70514 -1.81088 0
M  V30 1742 H 163.57 0.448801 -0.489361 0
M  V30 1743 H 166.1 0.856992 -1.85787 0
M  V30 1744 H 166.11 3.21413 -2.51312 0
M  V30 1745 H 164.785 2.44081 -3.36745 0
M  V30 1746 H 163.362 3.29441 -1.74708 0
M  V30 1747 N 165.547 1.27147 0.931209 0
M  V30 1748 C 166.795 1.13055 1.6752 0
M  V30 1749 C 167.116 -0.324791 1.92276 0
M  V30 1750 O 166.386 -1.22775 1.52654 0
M  V30 1751 H 164.966 0.415391 0.620854 0
M  V30 1752 H 167.628 1.59623 1.11833 0
M  V30 1753 H 166.724 1.65694 2.64485 0
M  V30 1754 N 167.025 -1.13721 1.09112 0
M  V30 1755 C 167.935 -2.22638 0.73957 0
M  V30 1756 C 168.951 -1.72091 -0.257068 0
M  V30 1757 O 170.127 -2.01155 -0.0992154 0
M  V30 1758 C 167.192 -3.46322 0.16191 0
M  V30 1759 C 166.253 -4.11775 1.21408 0
M  V30 1760 C 165.486 -5.29555 0.663891 0
M  V30 1761 O 165.709 -5.68077 -0.514274 0
M  V30 1762 O 164.643 -5.84973 1.41738 0
M  V30 1763 H 168.469 -2.55074 1.64836 0
M  V30 1764 H 166.054 -1.21791 0.865289 0
M  V30 1765 H 167.936 -4.21107 -0.157073 0
M  V30 1766 H 166.611 -3.15593 -0.719932 0
M  V30 1767 H 165.518 -3.3883 1.58571 0
M  V30 1768 H 166.851 -4.46627 2.06845 0
M  V30 1769 N 168.503 -0.877838 -1.30888 0
M  V30 1770 C 169.914 -0.544193 -1.78593 0
M  V30 1771 C 170.265 0.939301 -1.72254 0
M  V30 1772 O 169.39 1.7337 -1.29505 0
M  V30 1773 C 169.985 -0.98105 -3.24285 0
M  V30 1774 C 168.544 -0.698935 -3.69854 0
M  V30 1775 C 167.691 -1.168 -2.51502 0
M  V30 1776 H 170.642 -1.06278 -1.17859 0
M  V30 1777 H 170.663 -0.307009 -3.79259 0
M  V30 1778 H 170.175 -2.06079 -3.28866 0
M  V30 1779 H 168.276 0.369112 -3.70767 0
M  V30 1780 H 168.389 -1.28148 -4.61644 0
M  V30 1781 H 166.753 -0.587535 -2.47831 0
M  V30 1782 H 167.536 -2.25533 -2.58824 0
M  V30 1783 N 169.982 1.44106 -0.638065 0
M  V30 1784 C 171.393 1.85316 -0.226894 0
M  V30 1785 C 171.744 1.53399 1.22324 0
M  V30 1786 O 170.869 0.975463 1.93167 0
M  V30 1787 C 171.464 3.3637 -0.405013 0
M  V30 1788 C 170.023 3.76369 -0.0482902 0
M  V30 1789 C 169.17 2.67921 -0.715108 0
M  V30 1790 H 172.121 1.34474 -0.842764 0
M  V30 1791 H 172.142 3.7885 0.354 0
M  V30 1792 H 171.654 3.59569 -1.46053 0
M  V30 1793 H 169.755 3.58784 1.00522 0
M  V30 1794 H 169.868 4.76856 -0.463187 0
M  V30 1795 H 168.232 2.54259 -0.149753 0
M  V30 1796 H 169.015 2.93951 -1.77335 0
M  V30 1797 N 171.46 0.379036 1.52974 0
M  V30 1798 C 172.393 -0.504932 2.22544 0
M  V30 1799 C 173.371 -1.0723 1.22231 0
M  V30 1800 O 174.555 -1.12589 1.51182 0
M  V30 1801 C 171.682 -1.69794 2.93066 0
M  V30 1802 C 170.728 -1.25678 4.07563 0
M  V30 1803 S 171.561 -0.246852 5.34931 0
M  V30 1804 C 172.717 -1.44588 6.08971 0
M  V30 1805 H 172.95 0.0858666 2.97176 0
M  V30 1806 H 170.483 0.163183 1.53535 0
M  V30 1807 H 172.441 -2.38219 3.34308 0
M  V30 1808 H 171.102 -2.26002 2.18133 0
M  V30 1809 H 170.295 -2.14725 4.5597 0
M  V30 1810 H 169.897 -0.651584 3.6828 0
M  V30 1811 H 172.189 -2.37469 6.34519 0
M  V30 1812 H 173.132 -1.00292 7.00962 0
M  V30 1813 H 173.54 -1.65804 5.39601 0
M  V30 1814 N 172.938 -1.57226 0.108567 0
M  V30 1815 C 174.215 -1.86333 -0.594939 0
M  V30 1816 C 174.595 -1.00788 -1.85486 0
M  V30 1817 O 173.943 -0.0839293 -2.28346 0
M  V30 1818 C 174.153 -3.37265 -0.897405 0
M  V30 1819 C 175.501 -4.05629 -1.25501 0
M  V30 1820 O 176.525 -3.42224 -0.987998 0
M  V30 1821 O 175.384 -5.17531 -1.75567 0
M  V30 1822 H 172.478 -0.771018 -0.2991 0
M  V30 1823 H 175.024 -1.69102 0.142283 0
M  V30 1824 H 173.796 -3.913 -0.00413806 0
M  V30 1825 H 173.419 -3.59889 -1.69014 0
M  V30 1826 N 174.416 0.165178 -1.56732 0
M  V30 1827 C 175.646 0.894919 -1.86212 0
M  V30 1828 C 176.054 1.76066 -0.692627 0
M  V30 1829 O 175.397 1.80387 0.347303 0
M  V30 1830 C 175.459 1.8174 -3.10179 0
M  V30 1831 C 175.123 1.13064 -4.42793 0
M  V30 1832 C 176.12 0.493169 -5.17556 0
M  V30 1833 C 173.805 1.12556 -4.89527 0
M  V30 1834 C 175.799 -0.140209 -6.37246 0
M  V30 1835 C 173.486 0.488366 -6.09145 0
M  V30 1836 C 174.484 -0.143411 -6.82849 0
M  V30 1837 O 174.172 -0.77055 -8.00199 0
M  V30 1838 H 173.904 0.265114 -0.621844 0
M  V30 1839 H 176.458 0.168242 -2.0471 0
M  V30 1840 H 174.688 2.58455 -2.87642 0
M  V30 1841 H 176.377 2.4175 -3.26055 0
M  V30 1842 H 177.143 0.489023 -4.82528 0
M  V30 1843 H 173.022 1.60672 -4.32094 0
M  V30 1844 H 176.566 -0.633932 -6.94714 0
M  V30 1845 H 172.463 0.490116 -6.43637 0
M  V30 1846 H 173.231 -0.670408 -8.1575 0
M  V30 1847 N 175.894 1.51508 0.433938 0
M  V30 1848 C 176.844 1.69451 1.52546 0
M  V30 1849 C 177.828 0.548474 1.51263 0
M  V30 1850 O 179.02 0.804529 1.57659 0
M  V30 1851 C 176.149 1.82604 2.90707 0
M  V30 1852 C 175.235 3.03002 2.96733 0
M  V30 1853 N 175.626 4.26121 2.72496 0
M  V30 1854 C 173.924 3.02327 3.27894 0
M  V30 1855 C 174.625 5.07407 2.84452 0
M  V30 1856 N 173.601 4.42126 3.16269 0
M  V30 1857 H 177.403 2.62305 1.32564 0
M  V30 1858 H 174.917 1.49202 0.641297 0
M  V30 1859 H 176.914 1.93569 3.69238 0
M  V30 1860 H 175.574 0.909339 3.11707 0
M  V30 1861 H 176.585 4.55009 2.4736 0
M  V30 1862 H 173.262 2.20301 3.54646 0
M  V30 1863 H 174.652 6.15422 2.69639 0
M  V30 1864 N 177.372 -0.689602 1.41712 0
M  V30 1865 C 178.282 -1.83314 1.46401 0
M  V30 1866 C 179.298 -1.7036 0.35405 0
M  V30 1867 O 180.474 -1.92171 0.602692 0
M  V30 1868 C 177.539 -3.19344 1.34982 0
M  V30 1869 C 176.6 -3.44363 2.56344 0
M  V30 1870 C 175.833 -4.73904 2.45461 0
M  V30 1871 O 176.056 -5.508 1.48241 0
M  V30 1872 O 174.99 -4.99839 3.35328 0
M  V30 1873 H 178.816 -1.82314 2.42889 0
M  V30 1874 H 176.401 -0.843438 1.23315 0
M  V30 1875 H 178.283 -4.00547 1.3092 0
M  V30 1876 H 176.958 -3.21014 0.41612 0
M  V30 1877 H 175.865 -2.63067 2.65982 0
M  V30 1878 H 177.198 -3.47512 3.48563 0
M  V30 1879 N 178.85 -1.27639 -0.924453 0
M  V30 1880 C 180.127 -1.04887 -1.651 0
M  V30 1881 C 180.507 0.415327 -2.06974 0
M  V30 1882 O 179.855 1.39923 -1.80648 0
M  V30 1883 C 180.065 -2.01348 -2.85061 0
M  V30 1884 C 181.413 -2.30899 -3.56329 0
M  V30 1885 O 182.437 -1.99348 -2.95193 0
M  V30 1886 O 181.296 -2.84699 -4.66485 0
M  V30 1887 H 178.39 -0.400083 -0.723784 0
M  V30 1888 H 180.936 -1.38916 -0.974703 0
M  V30 1889 H 179.708 -3.0008 -2.51133 0
M  V30 1890 H 179.331 -1.679 -3.6041 0
M  V30 1891 N 180.328 1.1314 -1.09713 0
M  V30 1892 C 181.605 1.80762 -0.747302 0
M  V30 1893 C 181.985 1.96663 0.767265 0
M  V30 1894 O 181.333 1.53706 1.69076 0
M  V30 1895 C 181.543 3.15606 -1.48975 0
M  V30 1896 C 182.891 3.90914 -1.65746 0
M  V30 1897 O 183.915 3.25239 -1.45251 0
M  V30 1898 O 182.774 5.08718 -1.9967 0
M  V30 1899 H 179.868 0.782103 -0.268782 0
M  V30 1900 H 182.414 1.20041 -1.19951 0
M  V30 1901 H 181.186 2.99278 -2.52088 0
M  V30 1902 H 180.809 3.84029 -1.02991 0
M  V30 1903 N 181.806 0.884767 1.30421 0
M  V30 1904 C 182.753 0.349642 2.28136 0
M  V30 1905 C 183.723 -0.560061 1.56373 0
M  V30 1906 O 184.908 -0.488524 1.8444 0
M  V30 1907 C 182.048 -0.42999 3.42411 0
M  V30 1908 C 181.161 0.508907 4.28992 0
M  V30 1909 C 180.296 -0.286301 5.30428 0
M  V30 1910 C 179.335 0.648079 6.08659 0
M  V30 1911 N 178.472 -0.111792 7.02011 0
M  V30 1912 H 183.312 1.18807 2.73293 0
M  V30 1913 H 180.849 0.597231 1.3443 0
M  V30 1914 H 182.807 -0.897923 4.07423 0
M  V30 1915 H 181.437 -1.23299 2.98324 0
M  V30 1916 H 180.489 1.09533 3.64289 0
M  V30 1917 H 181.801 1.22475 4.8353 0
M  V30 1918 H 180.955 -0.816098 6.01186 0
M  V30 1919 H 179.694 -1.03536 4.76583 0
M  V30 1920 H 178.699 1.18951 5.36778 0
M  V30 1921 H 179.924 1.39623 6.64592 0
M  V30 1922 H 177.87 -0.843395 6.50556 0
M  V30 1923 H 177.787 0.544429 7.54037 0
M  V30 1924 H 179.055 -0.622339 7.77012 0
M  V30 1925 N 183.284 -1.43765 0.645699 0
M  V30 1926 C 184.7 -1.56509 0.312591 0
M  V30 1927 C 184.9 -1.6307 -1.18365 0
M  V30 1928 O 183.956 -1.58167 -1.96824 0
M  V30 1929 C 185.269 -2.82968 1.01733 0
M  V30 1930 C 186.817 -2.96701 0.996865 0
M  V30 1931 C 187.292 -4.25982 1.68236 0
M  V30 1932 N 188.783 -4.32829 1.64964 0
M  V30 1933 C 189.518 -5.31613 2.14885 0
M  V30 1934 N 189.014 -6.36718 2.73061 0
M  V30 1935 N 190.807 -5.23217 2.05428 0
M  V30 1936 H 182.958 -1.3775 1.61675 0
M  V30 1937 H 185.221 -0.661067 0.679481 0
M  V30 1938 H 184.927 -2.84156 2.0724 0
M  V30 1939 H 184.801 -3.72957 0.564177 0
M  V30 1940 H 187.188 -2.95058 -0.0497719 0
M  V30 1941 H 187.269 -2.08022 1.48865 0
M  V30 1942 H 186.913 -4.28386 2.72852 0
M  V30 1943 H 186.843 -5.13545 1.16529 0
M  V30 1944 H 189.334 -3.57493 1.22503 0
M  V30 1945 H 189.647 -7.08401 3.08848 0
M  V30 1946 H 187.992 -6.37362 2.77118 0
M  V30 1947 H 191.183 -4.40019 1.59689 0
M  V30 1948 H 191.356 -6.00045 2.44643 0
M  V30 1949 N 184.763 -0.387143 -1.52771 0
M  V30 1950 C 186.01 0.195735 -2.01552 0
M  V30 1951 C 186.338 1.46995 -1.27369 0
M  V30 1952 O 185.593 1.92325 -0.361879 0
M  V30 1953 C 185.892 0.512209 -3.53711 0
M  V30 1954 C 185.558 -0.670202 -4.45891 0
M  V30 1955 C 184.22 -0.994586 -4.70809 0
M  V30 1956 C 186.572 -1.46134 -5.00294 0
M  V30 1957 C 183.9 -2.11169 -5.4738 0
M  V30 1958 C 186.252 -2.56903 -5.78086 0
M  V30 1959 C 184.916 -2.89852 -6.01284 0
M  V30 1960 H 184.186 0.0716246 -0.73753 0
M  V30 1961 H 186.833 -0.524046 -1.8419 0
M  V30 1962 H 185.138 1.31329 -3.69134 0
M  V30 1963 H 186.835 0.975804 -3.88946 0
M  V30 1964 H 183.425 -0.407366 -4.2666 0
M  V30 1965 H 187.609 -1.22397 -4.80971 0
M  V30 1966 H 182.865 -2.3707 -5.63567 0
M  V30 1967 H 187.039 -3.18608 -6.19243 0
M  V30 1968 H 184.666 -3.76533 -6.60399 0
M  V30 1969 N 186.241 1.57166 -0.116904 0
M  V30 1970 C 187.657 1.5779 0.239693 0
M  V30 1971 C 187.857 1.1295 1.66867 0
M  V30 1972 O 186.913 0.81592 2.38954 0
M  V30 1973 C 188.226 3.00699 0.00828202 0
M  V30 1974 C 189.774 3.12912 0.0743438 0
M  V30 1975 C 190.249 4.57817 -0.129348 0
M  V30 1976 N 191.74 4.63139 -0.075247 0
M  V30 1977 C 192.475 5.73023 -0.207788 0
M  V30 1978 N 191.971 6.91665 -0.396382 0
M  V30 1979 N 193.764 5.61906 -0.14751 0
M  V30 1980 H 185.915 1.84615 -1.05029 0
M  V30 1981 H 188.178 0.85311 -0.41341 0
M  V30 1982 H 187.884 3.37784 -0.979531 0
M  V30 1983 H 187.758 3.69848 0.741077 0
M  V30 1984 H 190.145 2.75686 1.05268 0
M  V30 1985 H 190.226 2.4631 -0.690297 0
M  V30 1986 H 189.87 4.95742 -1.10465 0
M  V30 1987 H 189.8 5.22507 0.655253 0
M  V30 1988 H 192.291 3.7784 0.0670898 0
M  V30 1989 H 192.604 7.71255 -0.488437 0
M  V30 1990 H 190.949 6.93654 -0.432329 0
M  V30 1991 H 194.14 4.681 -0.00115036 0
M  V30 1992 H 194.313 6.47501 -0.254247 0
M  V30 1993 N 187.719 -0.156864 1.56817 0
M  V30 1994 C 189.135 -0.50916 1.5126 0
M  V30 1995 C 189.335 -1.83897 0.823658 0
M  V30 1996 O 188.391 -2.49469 0.390055 0
M  V30 1997 C 189.704 -0.52857 2.96018 0
M  V30 1998 C 191.252 -0.614771 3.06903 0
M  V30 1999 C 191.727 -0.664938 4.53147 0
M  V30 2000 N 193.218 -0.727433 4.57452 0
M  V30 2001 C 193.953 -0.787067 5.67973 0
M  V30 2002 N 193.449 -0.806649 6.88088 0
M  V30 2003 N 195.242 -0.827195 5.5598 0
M  V30 2004 H 187.393 0.714935 2.00006 0
M  V30 2005 H 189.656 0.259526 0.911784 0
M  V30 2006 H 189.362 0.380154 3.49639 0
M  V30 2007 H 189.236 -1.36998 3.51442 0
M  V30 2008 H 191.623 -1.51392 2.53307 0
M  V30 2009 H 191.704 0.253597 2.5454 0
M  V30 2010 H 191.348 0.230011 5.07379 0
M  V30 2011 H 191.278 -1.54966 5.03282 0
M  V30 2012 H 193.769 -0.719998 3.70978 0
M  V30 2013 H 194.082 -0.853727 7.6807 0
M  V30 2014 H 192.427 -0.774687 6.90669 0
M  V30 2015 H 195.618 -0.808998 4.61056 0
M  V30 2016 H 195.791 -0.870206 6.4213 0
M  V30 2017 N 189.197 -1.51736 -0.425897 0
M  V30 2018 C 190.107 -1.76738 -1.54275 0
M  V30 2019 C 191.123 -0.65211 -1.61318 0
M  V30 2020 O 192.299 -0.935654 -1.78346 0
M  V30 2021 C 189.364 -1.89755 -2.90162 0
M  V30 2022 C 188.425 -3.13633 -2.93143 0
M  V30 2023 C 187.658 -3.2602 -4.22548 0
M  V30 2024 O 187.881 -2.44067 -5.15546 0
M  V30 2025 O 186.815 -4.19071 -4.32046 0
M  V30 2026 H 190.641 -2.71502 -1.36089 0
M  V30 2027 H 188.226 -1.36376 -0.610069 0
M  V30 2028 H 190.108 -2.00236 -3.70788 0
M  V30 2029 H 188.783 -0.981785 -3.08452 0
M  V30 2030 H 187.69 -3.08622 -2.11431 0
M  V30 2031 H 189.023 -4.04936 -2.798 0
M  V30 2032 N 190.675 0.682077 -1.42076 0
M  V30 2033 C 191.585 1.82535 -1.47371 0
M  V30 2034 C 192.601 1.7017 -0.363079 0
M  V30 2035 O 193.777 1.91848 -0.612875 0
M  V30 2036 C 190.842 3.18624 -1.36674 0
M  V30 2037 C 189.903 3.42999 -2.58167 0
M  V30 2038 C 189.136 4.72595 -2.4797 0
M  V30 2039 O 189.359 5.50006 -1.5116 0
M  V30 2040 O 188.293 4.98054 -3.37974 0
M  V30 2041 H 192.119 1.81023 -2.43853 0
M  V30 2042 H 189.704 0.836887 -1.2376 0
M  V30 2043 H 191.586 3.99847 -1.33043 0
M  V30 2044 H 190.261 3.20789 -0.433138 0
M  V30 2045 H 189.168 2.61653 -2.67373 0
M  V30 2046 H 190.501 3.45659 -3.50401 0
M  V30 2047 N 192.153 1.28127 0.917671 0
M  V30 2048 C 193.383 1.17722 1.6978 0
M  V30 2049 C 193.791 -0.267261 1.87303 0
M  V30 2050 O 193.134 -1.19286 1.39702 0
M  V30 2051 C 193.196 1.79958 3.11216 0
M  V30 2052 C 192.86 3.29187 3.16993 0
M  V30 2053 C 193.857 4.25679 2.98485 0
M  V30 2054 C 191.542 3.70075 3.39632 0
M  V30 2055 C 193.536 5.61035 3.02521 0
M  V30 2056 C 191.223 5.05557 3.433 0
M  V30 2057 C 192.221 6.00847 3.24764 0
M  V30 2058 O 191.909 7.33859 3.28187 0
M  V30 2059 H 191.641 0.409788 0.537634 0
M  V30 2060 H 194.195 1.69694 1.15728 0
M  V30 2061 H 192.425 1.22475 3.66793 0
M  V30 2062 H 194.114 1.64125 3.71238 0
M  V30 2063 H 194.88 3.95426 2.80826 0
M  V30 2064 H 190.759 2.96373 3.53106 0
M  V30 2065 H 194.303 6.35388 2.87971 0
M  V30 2066 H 190.2 5.35462 3.60486 0
M  V30 2067 H 190.968 7.42436 3.44575 0
M  V30 2068 N 193.631 -1.12557 1.10312 0
M  V30 2069 C 194.541 -2.21841 0.763142 0
M  V30 2070 C 195.557 -1.72354 -0.238801 0
M  V30 2071 O 196.733 -2.01249 -0.0778746 0
M  V30 2072 C 193.798 -3.46131 0.198632 0
M  V30 2073 C 192.859 -4.10464 1.25769 0
M  V30 2074 C 192.092 -5.28821 0.72002 0
M  V30 2075 O 192.315 -5.6859 -0.453993 0
M  V30 2076 O 191.249 -5.83437 1.47935 0
M  V30 2077 H 195.075 -2.53312 1.67532 0
M  V30 2078 H 192.66 -1.20867 0.878157 0
M  V30 2079 H 194.542 -4.2125 -0.112401 0
M  V30 2080 H 193.217 -3.16338 -0.686419 0
M  V30 2081 H 192.124 -3.3713 1.62156 0
M  V30 2082 H 193.457 -4.44408 2.11571 0
M  V30 2083 N 195.109 -0.891671 -1.2995 0
M  V30 2084 C 196.357 -0.512486 -1.95494 0
M  V30 2085 C 196.678 0.942776 -1.70695 0
M  V30 2086 O 195.948 1.66374 -1.03424 0
M  V30 2087 H 194.528 -0.186533 -0.723336 0
M  V30 2088 H 197.19 -1.13621 -1.58355 0
M  V30 2089 H 196.286 -0.688342 -3.04415 0
M  V30 2090 N 196.587 1.43421 -0.653314 0
M  V30 2091 C 197.535 2.32546 0.0501531 0
M  V30 2092 C 198.529 1.48617 0.812985 0
M  V30 2093 O 199.735 1.64825 0.723375 0
M  V30 2094 H 196.11 0.751185 0.0350032 0
M  V30 2095 H 198.081 2.89602 -0.719261 0
M  V30 2096 C 196.83 3.32925 1.00279 0
M  V30 2097 H 196.153 3.97532 0.425236 0
M  V30 2098 H 197.593 3.9792 1.46409 0
M  V30 2099 C 196.052 2.63532 2.09886 0
M  V30 2100 O 196.582 2.45092 3.18265 0
M  V30 2101 N 194.788 2.22905 1.86445 0
M  V30 2102 H 194.335 2.38103 0.98309 0
M  V30 2103 H 194.293 1.76805 2.59976 0
M  V30 2104 N 198.065 0.39524 1.52563 0
M  V30 2105 C 198.995 -0.428384 2.29537 0
M  V30 2106 C 199.976 -1.05831 1.33169 0
M  V30 2107 O 201.161 -1.06995 1.62067 0
M  V30 2108 C 198.291 -1.55274 3.10656 0
M  V30 2109 C 197.245 -1.04855 4.14957 0
M  V30 2110 C 196.571 -2.26543 4.84337 0
M  V30 2111 C 197.871 -0.112324 5.22179 0
M  V30 2112 H 199.565 0.213867 2.98635 0
M  V30 2113 H 197.111 0.104298 1.43622 0
M  V30 2114 H 199.064 -2.1358 3.63265 0
M  V30 2115 H 197.788 -2.22266 2.39302 0
M  V30 2116 H 196.447 -0.487985 3.63338 0
M  V30 2117 H 196.095 -2.92059 4.09525 0
M  V30 2118 H 195.795 -1.93466 5.54837 0
M  V30 2119 H 197.319 -2.85481 5.39753 0
M  V30 2120 H 198.733 -0.603752 5.70112 0
M  V30 2121 H 197.13 0.128968 5.99961 0
M  V30 2122 H 198.2 0.837052 4.77621 0
M  V30 2123 N 199.544 -1.57102 0.125237 0
M  V30 2124 C 200.474 -2.18659 -0.819174 0
M  V30 2125 C 201.455 -1.12843 -1.27281 0
M  V30 2126 O 202.64 -1.41104 -1.33429 0
M  V30 2127 C 199.77 -2.79096 -2.06695 0
M  V30 2128 C 198.724 -3.90548 -1.75088 0
M  V30 2129 C 198.05 -4.37821 -3.06948 0
M  V30 2130 C 199.35 -5.12356 -1.01435 0
M  V30 2131 H 201.044 -2.9783 -0.306202 0
M  V30 2132 H 198.59 -1.4326 -0.145839 0
M  V30 2133 H 200.543 -3.2082 -2.73226 0
M  V30 2134 H 199.267 -1.97223 -2.60328 0
M  V30 2135 H 197.926 -3.49409 -1.10944 0
M  V30 2136 H 197.574 -3.52799 -3.58527 0
M  V30 2137 H 197.274 -5.12982 -2.86571 0
M  V30 2138 H 198.798 -4.822 -3.74587 0
M  V30 2139 H 200.212 -5.5106 -1.58132 0
M  V30 2140 H 198.609 -5.9314 -0.911319 0
M  V30 2141 H 199.679 -4.849 -0.00218681 0
M  V30 2142 N 201.022 0.148545 -1.56898 0
M  V30 2143 C 201.932 1.20293 -2.01412 0
M  V30 2144 C 202.948 1.47107 -0.929273 0
M  V30 2145 O 204.124 1.58807 -1.23863 0
M  V30 2146 C 201.189 2.51682 -2.38447 0
M  V30 2147 C 200.25 2.32529 -3.60872 0
M  V30 2148 C 199.483 3.57653 -3.96132 0
M  V30 2149 O 199.706 4.63771 -3.32073 0
M  V30 2150 O 198.64 3.50408 -4.89385 0
M  V30 2151 H 202.466 0.855025 -2.91416 0
M  V30 2152 H 200.051 0.357151 -1.45068 0
M  V30 2153 H 201.933 3.29147 -2.63135 0
M  V30 2154 H 200.608 2.86006 -1.51599 0
M  V30 2155 H 199.515 1.53019 -3.41373 0
M  V30 2156 H 200.848 2.03121 -4.48333 0
M  V30 2157 N 202.5 1.5196 0.417844 0
M  V30 2158 C 203.463 1.74065 1.49111 0
M  V30 2159 C 204.463 0.610537 1.48758 0
M  V30 2160 O 205.653 0.87832 1.50437 0
M  V30 2161 C 202.785 1.81502 2.88565 0
M  V30 2162 H 203.978 2.69869 1.30807 0
M  V30 2163 H 201.531 1.42244 0.647785 0
M  V30 2164 H 202.266 0.875813 3.1225 0
M  V30 2165 H 202.051 2.63651 2.90225 0
M  V30 2166 H 203.541 2.00376 3.66387 0
M  V30 2167 N 203.978 -0.674533 1.42435 0
M  V30 2168 C 205.226 -1.43175 1.42637 0
M  V30 2169 C 205.547 -1.94951 0.0438992 0
M  V30 2170 O 204.817 -1.7308 -0.917607 0
M  V30 2171 H 203.397 -0.531307 0.525092 0
M  V30 2172 H 206.059 -0.797006 1.77859 0
M  V30 2173 H 205.155 -2.28463 2.12629 0
M  V30 2174 N 205.456 -1.28612 -0.910864 0
M  V30 2175 C 206.386 -1.15326 -2.03032 0
M  V30 2176 C 207.367 -0.0502924 -1.70026 0
M  V30 2177 O 208.552 -0.227797 -1.92859 0
M  V30 2178 C 205.682 -0.817343 -3.37545 0
M  V30 2179 C 204.636 -1.8754 -3.84724 0
M  V30 2180 C 203.962 -1.39305 -5.16235 0
M  V30 2181 C 205.262 -3.28244 -4.06267 0
M  V30 2182 H 206.956 -2.08975 -2.14406 0
M  V30 2183 H 204.502 -1.00612 -1.03021 0
M  V30 2184 H 206.455 -0.711151 -4.15356 0
M  V30 2185 H 205.179 0.154846 -3.26233 0
M  V30 2186 H 203.838 -1.97079 -3.09121 0
M  V30 2187 H 203.486 -0.409846 -5.01328 0
M  V30 2188 H 203.186 -2.10057 -5.48771 0
M  V30 2189 H 204.71 -1.30014 -5.96598 0
M  V30 2190 H 206.124 -3.21611 -4.74594 0
M  V30 2191 H 204.521 -3.96855 -4.5014 0
M  V30 2192 H 205.591 -3.72048 -3.10979 0
M  V30 2193 N 206.934 1.1197 -1.10907 0
M  V30 2194 C 207.844 2.21433 -0.774896 0
M  V30 2195 C 208.86 1.72478 0.229657 0
M  V30 2196 O 210.036 2.01288 0.0672008 0
M  V30 2197 C 207.101 3.4602 -0.216986 0
M  V30 2198 C 206.162 4.09791 -1.27944 0
M  V30 2199 C 205.395 5.28431 -0.748055 0
M  V30 2200 O 205.618 5.68823 0.423833 0
M  V30 2201 O 204.552 5.82644 -1.51027 0
M  V30 2202 H 208.378 2.5242 -1.68873 0
M  V30 2203 H 205.963 1.20399 -0.884555 0
M  V30 2204 H 207.845 4.21304 0.090059 0
M  V30 2205 H 206.52 3.16698 0.669633 0
M  V30 2206 H 205.427 3.36265 -1.63941 0
M  V30 2207 H 206.76 4.4328 -2.13925 0
M  V30 2208 N 208.412 0.89855 1.29475 0
M  V30 2209 C 209.342 0.39201 2.30186 0
M  V30 2210 C 210.323 -0.532359 1.61555 0
M  V30 2211 O 211.508 -0.443331 1.89072 0
M  V30 2212 C 208.638 -0.382353 3.45189 0
M  V30 2213 C 207.592 0.451483 4.25612 0
M  V30 2214 C 206.918 -0.450307 5.328 0
M  V30 2215 C 208.218 1.70079 4.93832 0
M  V30 2216 H 209.912 1.23362 2.72804 0
M  V30 2217 H 207.458 0.594638 1.31149 0
M  V30 2218 H 209.411 -0.747451 4.14718 0
M  V30 2219 H 208.135 -1.25774 3.01411 0
M  V30 2220 H 206.794 0.798897 3.57789 0
M  V30 2221 H 206.442 -1.32379 4.85268 0
M  V30 2222 H 206.142 0.103902 5.87508 0
M  V30 2223 H 207.666 -0.811623 6.05182 0
M  V30 2224 H 209.08 1.40549 5.55805 0
M  V30 2225 H 207.477 2.19623 5.58467 0
M  V30 2226 H 208.547 2.43744 4.19186 0
M  V30 2227 N 209.89 -1.43072 0.660911 0
M  V30 2228 C 210.8 -2.34585 -0.0264163 0
M  V30 2229 C 211.816 -1.54316 -0.803898 0
M  V30 2230 O 212.992 -1.86939 -0.749391 0
M  V30 2231 C 210.057 -3.32689 -0.975639 0
M  V30 2232 C 209.118 -4.2886 -0.194236 0
M  V30 2233 C 208.351 -5.22278 -1.09825 0
M  V30 2234 O 208.574 -5.20299 -2.33763 0
M  V30 2235 O 207.508 -5.99228 -0.566513 0
M  V30 2236 H 211.334 -2.94869 0.727034 0
M  V30 2237 H 208.919 -1.43342 0.42111 0
M  V30 2238 H 210.801 -3.92995 -1.52094 0
M  V30 2239 H 209.476 -2.74898 -1.70918 0
M  V30 2240 H 208.383 -3.72011 0.394835 0
M  V30 2241 H 209.716 -4.89655 0.499899 0
M  V30 2242 N 211.368 -0.403325 -1.52352 0
M  V30 2243 C 212.784 -0.0539281 -1.59509 0
M  V30 2244 C 212.984 1.43307 -1.41652 0
M  V30 2245 O 212.04 2.19924 -1.24056 0
M  V30 2246 C 213.353 -0.543654 -2.95745 0
M  V30 2247 C 214.901 -0.501125 -3.08962 0
M  V30 2248 C 215.376 -0.967267 -4.47669 0
M  V30 2249 N 216.867 -0.923849 -4.53893 0
M  V30 2250 C 217.602 -1.25578 -5.5948 0
M  V30 2251 N 217.098 -1.65889 -6.72646 0
M  V30 2252 N 218.891 -1.17613 -5.49658 0
M  V30 2253 H 211.042 -1.37123 -1.62206 0
M  V30 2254 H 213.305 -0.56294 -0.76276 0
M  V30 2255 H 213.011 -1.58275 -3.14073 0
M  V30 2256 H 212.885 0.0498042 -3.77167 0
M  V30 2257 H 215.272 0.528909 -2.90321 0
M  V30 2258 H 215.353 -1.13056 -2.2946 0
M  V30 2259 H 214.997 -1.9956 -4.67053 0
M  V30 2260 H 214.927 -0.314698 -5.25659 0
M  V30 2261 H 217.418 -0.627403 -3.72655 0
M  V30 2262 H 217.731 -1.89543 -7.49195 0
M  V30 2263 H 216.076 -1.69787 -6.73942 0
M  V30 2264 H 219.267 -0.860115 -4.6013 0
M  V30 2265 H 219.44 -1.43812 -6.3184 0
M  V30 2266 N 212.846 1.57033 -0.133567 0
M  V30 2267 C 214.123 1.87256 0.56522 0
M  V30 2268 C 214.503 1.03726 1.83859 0
M  V30 2269 O 213.851 0.120247 2.28183 0
M  V30 2270 C 214.061 3.3865 0.843636 0
M  V30 2271 C 215.409 4.07574 1.19032 0
M  V30 2272 O 216.433 3.43752 0.933429 0
M  V30 2273 O 215.292 5.20259 1.67312 0
M  V30 2274 H 212.386 0.775678 0.286796 0
M  V30 2275 H 214.932 1.68855 -0.169168 0
M  V30 2276 H 213.704 3.91257 -0.0581149 0
M  V30 2277 H 213.327 3.62532 1.63268 0
M  V30 2278 N 214.325 -0.140222 1.56975 0
M  V30 2279 C 215.235 -1.19223 2.02047 0
M  V30 2280 C 216.251 -1.46612 0.937062 0
M  V30 2281 O 217.427 -1.58148 1.24704 0
M  V30 2282 C 214.492 -2.50414 2.39778 0
M  V30 2283 C 213.553 -2.30612 3.621 0
M  V30 2284 C 212.786 -3.55547 3.98023 0
M  V30 2285 O 213.009 -4.62004 3.34528 0
M  V30 2286 O 211.943 -3.47808 4.91237 0
M  V30 2287 H 215.769 -0.839559 2.91865 0
M  V30 2288 H 213.354 -0.349453 1.45256 0
M  V30 2289 H 215.236 -3.27747 2.64877 0
M  V30 2290 H 213.911 -2.85198 1.53114 0
M  V30 2291 H 212.818 -1.51207 3.4218 0
M  V30 2292 H 214.151 -2.00741 4.49404 0
M  V30 2293 N 215.803 -1.52179 -0.40978 0
M  V30 2294 C 217.08 -1.56769 -1.16974 0
M  V30 2295 C 217.46 -0.348322 -2.08206 0
M  V30 2296 O 216.808 0.664862 -2.18613 0
M  V30 2297 C 217.018 -2.89603 -1.9476 0
M  V30 2298 C 218.366 -3.42579 -2.50849 0
M  V30 2299 O 219.39 -2.91338 -2.04941 0
M  V30 2300 O 218.249 -4.32054 -3.34652 0
M  V30 2301 H 215.343 -0.631439 -0.534054 0
M  V30 2302 H 217.889 -1.64507 -0.416613 0
M  V30 2303 H 216.661 -3.698 -1.27921 0
M  V30 2304 H 216.284 -2.85155 -2.77079 0
M  V30 2305 N 217.281 0.66697 -1.42791 0
M  V30 2306 C 218.509 1.45505 -1.47091 0
M  V30 2307 C 218.924 1.8861 -0.0845873 0
M  V30 2308 O 218.281 1.58632 0.90234 0
M  V30 2309 C 218.332 2.69906 -2.40485 0
M  V30 2310 O 218.053 2.28608 -3.73725 0
M  V30 2311 C 219.554 3.63396 -2.53886 0
M  V30 2312 H 216.774 0.447459 -0.500022 0
M  V30 2313 H 219.318 0.818866 -1.8739 0
M  V30 2314 H 217.473 3.29696 -2.03419 0
M  V30 2315 H 217.887 3.08997 -4.23817 0
M  V30 2316 H 219.361 4.47387 -3.2334 0
M  V30 2317 H 219.838 4.09824 -1.57927 0
M  V30 2318 H 220.444 3.09495 -2.91706 0
M  V30 2319 N 218.759 1.29093 0.90403 0
M  V30 2320 C 219.706 1.13853 2.00764 0
M  V30 2321 C 220.676 0.0330084 1.66067 0
M  V30 2322 O 221.861 0.199733 1.89752 0
M  V30 2323 C 219.001 0.816537 3.35301 0
M  V30 2324 C 218.114 2.00206 3.82807 0
M  V30 2325 C 217.249 1.61983 5.059 0
M  V30 2326 C 216.288 2.77143 5.45764 0
M  V30 2327 N 215.425 2.39346 6.60044 0
M  V30 2328 H 220.265 2.08276 2.13132 0
M  V30 2329 H 217.802 1.03648 1.04381 0
M  V30 2330 H 219.76 0.610557 4.12708 0
M  V30 2331 H 218.39 -0.090779 3.22672 0
M  V30 2332 H 217.442 2.31988 3.01473 0
M  V30 2333 H 218.754 2.86512 4.08304 0
M  V30 2334 H 217.908 1.37649 5.90879 0
M  V30 2335 H 216.647 0.728202 4.82233 0
M  V30 2336 H 215.652 3.02165 4.59322 0
M  V30 2337 H 216.877 3.66964 5.71414 0
M  V30 2338 H 214.823 1.52665 6.37989 0
M  V30 2339 H 214.74 3.19185 6.85315 0
M  V30 2340 H 216.008 2.1832 7.48303 0
M  V30 2341 N 220.237 -1.11381 1.11499 0
M  V30 2342 C 221.486 -1.82494 0.858993 0
M  V30 2343 C 221.799 -1.85605 -0.617278 0
M  V30 2344 O 223.005 -2.52824 -0.989552 0
M  V30 2345 C 221.461 -3.27745 1.48699 0
M  V30 2346 C 221.069 -3.32961 2.99735 0
M  V30 2347 C 222.813 -4.03754 1.31085 0
M  V30 2348 C 220.72 -4.72612 3.55516 0
M  V30 2349 H 219.65 -0.683802 0.317696 0
M  V30 2350 H 222.301 -1.25331 1.34031 0
M  V30 2351 H 220.683 -3.84844 0.933339 0
M  V30 2352 H 221.857 -2.85741 3.61509 0
M  V30 2353 H 220.172 -2.70433 3.16631 0
M  V30 2354 H 222.769 -5.06891 1.70192 0
M  V30 2355 H 223.112 -4.15527 0.253496 0
M  V30 2356 H 223.645 -3.53043 1.83318 0
M  V30 2357 H 220.384 -4.66036 4.60967 0
M  V30 2358 H 219.904 -5.2024 2.98513 0
M  V30 2359 H 221.583 -5.4157 3.53992 0
M  V30 2360 N 221.715 -0.905404 -1.28997 0
M  V30 2361 C 222.665 -0.358713 -2.25161 0
M  V30 2362 C 223.649 0.524449 -1.52113 0
M  V30 2363 O 224.841 0.365534 -1.73184 0
M  V30 2364 C 221.97 0.407609 -3.40872 0
M  V30 2365 C 221.056 -0.490797 -4.21251 0
M  V30 2366 N 221.447 -1.60061 -4.79806 0
M  V30 2367 C 219.745 -0.289636 -4.45059 0
M  V30 2368 C 220.446 -2.15757 -5.40207 0
M  V30 2369 N 219.422 -1.44988 -5.23908 0
M  V30 2370 H 223.224 -1.20642 -2.67998 0
M  V30 2371 H 220.738 -0.757103 -1.43672 0
M  V30 2372 H 222.735 0.816046 -4.08835 0
M  V30 2373 H 221.395 1.25251 -2.9957 0
M  V30 2374 H 222.406 -1.98329 -4.7842 0
M  V30 2375 H 219.083 0.51643 -4.14294 0
M  V30 2376 H 220.473 -3.09069 -5.96595 0
M  V30 2377 N 223.193 1.4272 -0.668489 0
M  V30 2378 C 224.441 2.01226 -0.187769 0
M  V30 2379 C 224.762 1.53092 1.2078 0
M  V30 2380 O 224.032 0.74993 1.80977 0
M  V30 2381 H 222.612 0.744041 -0.0664272 0
M  V30 2382 H 225.274 1.74723 -0.863583 0
M  V30 2383 H 224.37 3.11556 -0.184166 0
M  V30 2384 N 224.671 0.411399 1.52136 0
M  V30 2385 C 225.917 -0.163888 2.02137 0
M  V30 2386 C 226.25 -1.44597 1.29636 0
M  V30 2387 O 225.525 -1.90272 0.403353 0
M  V30 2388 C 225.808 -0.40927 3.57767 0
M  V30 2389 C 225.661 0.889643 4.40914 0
M  V30 2390 C 226.98 -1.19042 4.23694 0
M  V30 2391 H 224.099 -0.0580896 0.734707 0
M  V30 2392 H 226.741 0.54531 1.82007 0
M  V30 2393 H 224.891 -1.0134 3.7505 0
M  V30 2394 H 226.563 1.52575 4.35337 0
M  V30 2395 H 224.806 1.50011 4.07037 0
M  V30 2396 H 225.477 0.672314 5.4789 0
M  V30 2397 H 227.953 -0.678942 4.10524 0
M  V30 2398 H 226.829 -1.33086 5.32522 0
M  V30 2399 H 227.09 -2.21166 3.82803 0
M  V30 2400 N 226.149 -1.5696 0.141893 0
M  V30 2401 C 227.397 -1.95573 -0.509484 0
M  V30 2402 C 227.718 -1.02746 -1.65736 0
M  V30 2403 O 226.988 -0.0880311 -1.95702 0
M  V30 2404 H 225.568 -0.722115 -0.191205 0
M  V30 2405 H 228.23 -1.93697 0.216196 0
M  V30 2406 H 227.326 -2.99171 -0.889 0
M  V30 2407 N 227.627 0.131896 -1.57047 0
M  V30 2408 C 228.874 0.841932 -1.84168 0
M  V30 2409 C 229.202 1.8048 -0.725066 0
M  V30 2410 O 228.457 1.93618 0.284692 0
M  V30 2411 C 228.756 1.63703 -3.17704 0
M  V30 2412 C 228.422 0.81961 -4.43388 0
M  V30 2413 C 227.084 0.594148 -4.77518 0
M  V30 2414 C 229.436 0.248977 -5.20605 0
M  V30 2415 C 226.764 -0.212409 -5.86315 0
M  V30 2416 C 229.116 -0.544701 -6.30251 0
M  V30 2417 C 227.78 -0.780599 -6.6292 0
M  V30 2418 H 227.05 0.308085 -0.673917 0
M  V30 2419 H 229.697 0.104867 -1.91213 0
M  V30 2420 H 228.002 2.44464 -3.06177 0
M  V30 2421 H 229.699 2.19015 -3.35907 0
M  V30 2422 H 226.289 1.00542 -4.16641 0
M  V30 2423 H 230.473 0.410408 -4.946 0
M  V30 2424 H 225.729 -0.404524 -6.1006 0
M  V30 2425 H 229.903 -0.993922 -6.89271 0
M  V30 2426 H 227.53 -1.40742 -7.47058 0
M  V30 2427 N 229.106 1.52395 0.401703 0
M  V30 2428 C 230.352 1.67065 1.14966 0
M  V30 2429 C 230.685 0.403052 1.89971 0
M  V30 2430 O 229.96 -0.598774 1.85054 0
M  V30 2431 C 230.243 2.8975 2.13815 0
M  V30 2432 C 230.096 4.26578 1.42658 0
M  V30 2433 C 231.415 3.07965 3.14397 0
M  V30 2434 H 228.534 0.607968 0.416587 0
M  V30 2435 H 231.176 1.84965 0.434511 0
M  V30 2436 H 229.326 2.74619 2.74803 0
M  V30 2437 H 230.998 4.53451 0.847329 0
M  V30 2438 H 229.241 4.27639 0.72849 0
M  V30 2439 H 229.912 5.08483 2.14823 0
M  V30 2440 H 232.388 3.22043 2.63491 0
M  V30 2441 H 231.264 3.95308 3.80819 0
M  V30 2442 H 231.525 2.21611 3.82545 0
M  V30 2443 N 230.584 -0.659388 1.43143 0
M  V30 2444 C 231.531 -1.77249 1.47822 0
M  V30 2445 C 232.501 -1.62818 0.328558 0
M  V30 2446 O 233.686 -1.83151 0.534838 0
M  V30 2447 C 230.826 -3.15371 1.40126 0
M  V30 2448 C 229.939 -3.4098 2.65249 0
M  V30 2449 C 229.074 -4.68915 2.49584 0
M  V30 2450 C 228.113 -4.87608 3.70006 0
M  V30 2451 N 227.25 -6.06796 3.53189 0
M  V30 2452 H 232.09 -1.72584 2.42938 0
M  V30 2453 H 229.627 -0.842297 1.20598 0
M  V30 2454 H 231.585 -3.9521 1.33659 0
M  V30 2455 H 230.215 -3.19121 0.485964 0
M  V30 2456 H 229.267 -2.55282 2.8202 0
M  V30 2457 H 230.579 -3.50681 3.54717 0
M  V30 2458 H 229.733 -5.56871 2.4079 0
M  V30 2459 H 228.472 -4.61524 1.5763 0
M  V30 2460 H 227.477 -3.9809 3.79215 0
M  V30 2461 H 228.702 -4.96834 4.62961 0
M  V30 2462 H 226.648 -6.00549 2.63965 0
M  V30 2463 H 226.565 -6.17428 4.36255 0
M  V30 2464 H 227.833 -6.9739 3.48236 0
M  V30 2465 N 232.062 -1.29571 -0.897171 0
M  V30 2466 C 233.311 -1.1706 -1.64256 0
M  V30 2467 C 233.624 0.276476 -1.93636 0
M  V30 2468 O 234.83 0.52294 -2.66416 0
M  V30 2469 C 233.286 -2.0475 -2.95982 0
M  V30 2470 C 232.894 -3.54295 -2.74187 0
M  V30 2471 C 234.638 -2.0097 -3.73914 0
M  V30 2472 C 232.545 -4.34081 -4.01656 0
M  V30 2473 H 231.475 -0.43452 -0.616205 0
M  V30 2474 H 234.126 -1.54229 -0.994268 0
M  V30 2475 H 232.508 -1.60452 -3.62038 0
M  V30 2476 H 233.682 -4.06662 -2.1671 0
M  V30 2477 H 231.997 -3.59773 -2.09648 0
M  V30 2478 H 234.594 -2.57838 -4.68427 0
M  V30 2479 H 234.937 -0.990273 -4.0435 0
M  V30 2480 H 235.47 -2.43325 -3.14703 0
M  V30 2481 H 232.209 -5.36671 -3.76384 0
M  V30 2482 H 231.729 -3.86483 -4.58684 0
M  V30 2483 H 233.408 -4.44877 -4.69781 0
M  V30 2484 N 233.54 1.10788 -1.12088 0
M  V30 2485 C 234.49 2.15158 -0.754401 0
M  V30 2486 C 235.474 1.59026 0.244846 0
M  V30 2487 O 236.666 1.76927 0.0509097 0
M  V30 2488 C 233.795 3.42677 -0.206657 0
M  V30 2489 C 232.881 4.05751 -1.23398 0
M  V30 2490 N 233.272 4.43582 -2.43041 0
M  V30 2491 C 231.57 4.32764 -1.07848 0
M  V30 2492 C 232.271 4.93085 -3.08613 0
M  V30 2493 N 231.247 4.89664 -2.36072 0
M  V30 2494 H 235.049 2.42195 -1.6649 0
M  V30 2495 H 232.563 1.27872 -1.00112 0
M  V30 2496 H 234.56 4.16834 0.0740646 0
M  V30 2497 H 233.22 3.17101 0.698342 0
M  V30 2498 H 234.231 4.35395 -2.80449 0
M  V30 2499 H 230.908 4.16863 -0.230483 0
M  V30 2500 H 232.298 5.31933 -4.10483 0
M  V30 2501 N 235.018 0.912232 1.28515 0
M  V30 2502 C 235.981 0.404223 2.25607 0
M  V30 2503 C 236.981 -0.468602 1.53821 0
M  V30 2504 O 238.171 -0.271873 1.72065 0
M  V30 2505 C 235.303 -0.420653 3.38295 0
M  V30 2506 H 236.496 1.26188 2.7206 0
M  V30 2507 H 234.049 0.691495 1.40171 0
M  V30 2508 H 234.784 -1.29777 2.97201 0
M  V30 2509 H 234.569 0.204935 3.91564 0
M  V30 2510 H 236.059 -0.766971 4.10496 0
M  V30 2511 N 236.496 -1.42363 0.676048 0
M  V30 2512 C 237.907 -1.84649 0.275948 0
M  V30 2513 C 238.258 -1.56588 -1.18214 0
M  V30 2514 O 237.383 -1.02634 -1.90513 0
M  V30 2515 C 237.978 -3.35178 0.494053 0
M  V30 2516 C 236.537 -3.76109 0.148061 0
M  V30 2517 C 235.684 -2.65931 0.785891 0
M  V30 2518 H 238.635 -1.32192 0.878121 0
M  V30 2519 H 238.656 -3.79655 -0.25343 0
M  V30 2520 H 238.168 -3.55571 1.55535 0
M  V30 2521 H 236.269 -3.61323 -0.909742 0
M  V30 2522 H 236.382 -4.7546 0.589454 0
M  V30 2523 H 234.746 -2.53773 0.217113 0
M  V30 2524 H 235.529 -2.89146 1.85067 0
M  V30 2525 N 237.974 -0.419461 -1.51915 0
M  V30 2526 C 239.22 0.145505 -2.02879 0
M  V30 2527 C 239.575 1.41926 -1.29903 0
M  V30 2528 O 238.868 1.87383 -0.399782 0
M  V30 2529 C 239.062 0.437067 -3.54717 0
M  V30 2530 C 238.891 -0.806877 -4.42402 0
M  V30 2531 C 237.661 -1.33514 -4.87342 0
M  V30 2532 C 239.859 -1.68796 -4.85811 0
M  V30 2533 N 237.841 -2.53349 -5.59185 0
M  V30 2534 C 239.212 -2.73247 -5.56539 0
M  V30 2535 C 241.267 -1.70449 -4.67816 0
M  V30 2536 C 239.97 -3.79276 -6.11181 0
M  V30 2537 C 241.996 -2.75403 -5.23361 0
M  V30 2538 C 241.358 -3.78575 -5.9402 0
M  V30 2539 H 237.457 0.0145424 -0.781865 0
M  V30 2540 H 240.041 -0.576126 -1.85981 0
M  V30 2541 H 238.212 1.12774 -3.71667 0
M  V30 2542 H 239.944 0.99182 -3.92358 0
M  V30 2543 H 236.699 -0.891657 -4.65131 0
M  V30 2544 H 237.123 -3.14066 -5.99743 0
M  V30 2545 H 241.765 -0.920209 -4.12664 0
M  V30 2546 H 239.483 -4.58554 -6.65397 0
M  V30 2547 H 243.069 -2.77603 -5.113 0
M  V30 2548 H 241.949 -4.58453 -6.36231 0
M  V30 2549 N 239.452 1.56882 -0.150215 0
M  V30 2550 C 240.4 2.18214 0.805313 0
M  V30 2551 C 241.394 1.14006 1.25296 0
M  V30 2552 O 242.6 1.3225 1.22107 0
M  V30 2553 H 238.975 0.698762 0.277913 0
M  V30 2554 H 240.946 2.97231 0.263862 0
M  V30 2555 C 239.695 2.82065 2.03309 0
M  V30 2556 H 239.018 3.61968 1.69763 0
M  V30 2557 H 240.458 3.28477 2.68103 0
M  V30 2558 C 238.917 1.80739 2.84315 0
M  V30 2559 O 239.447 1.27983 3.80767 0
M  V30 2560 N 237.653 1.4997 2.48913 0
M  V30 2561 H 237.2 1.93062 1.70542 0
M  V30 2562 H 237.158 0.824217 3.03404 0
M  V30 2563 N 240.93 -0.123565 1.57115 0
M  V30 2564 C 242.176 -0.833386 1.84885 0
M  V30 2565 C 242.509 -1.79742 0.735292 0
M  V30 2566 O 241.784 -1.92764 -0.25925 0
M  V30 2567 C 242.067 -1.5873 3.23228 0
M  V30 2568 C 241.92 -0.643183 4.45178 0
M  V30 2569 C 243.239 -2.54453 3.59085 0
M  V30 2570 H 240.358 -0.301518 0.6725 0
M  V30 2571 H 243 -0.097778 1.89748 0
M  V30 2572 H 241.15 -2.21438 3.19214 0
M  V30 2573 H 242.822 -0.0253015 4.61293 0
M  V30 2574 H 241.065 0.0456139 4.33776 0
M  V30 2575 H 241.736 -1.20724 5.38637 0
M  V30 2576 H 244.212 -2.01853 3.63861 0
M  V30 2577 H 243.088 -3.04238 4.5687 0
M  V30 2578 H 243.349 -3.36906 2.86264 0
M  V30 2579 N 242.408 -1.52605 -0.393616 0
M  V30 2580 C 243.338 -1.80022 -1.48709 0
M  V30 2581 C 244.319 -0.651995 -1.57108 0
M  V30 2582 O 245.504 -0.89913 -1.72132 0
M  V30 2583 C 242.634 -1.96492 -2.86371 0
M  V30 2584 C 241.588 -3.12161 -2.92813 0
M  V30 2585 C 240.914 -3.13877 -4.3288 0
M  V30 2586 C 242.214 -4.51322 -2.6288 0
M  V30 2587 H 243.908 -2.71589 -1.26015 0
M  V30 2588 H 241.454 -1.30684 -0.604778 0
M  V30 2589 H 243.407 -2.14255 -3.62867 0
M  V30 2590 H 242.131 -1.01611 -3.10391 0
M  V30 2591 H 240.79 -2.94173 -2.18764 0
M  V30 2592 H 240.438 -2.16687 -4.53933 0
M  V30 2593 H 240.138 -3.91576 -4.38112 0
M  V30 2594 H 241.662 -3.33789 -5.1129 0
M  V30 2595 H 243.076 -4.69435 -3.29096 0
M  V30 2596 H 241.473 -5.31053 -2.79468 0
M  V30 2597 H 242.543 -4.58353 -1.58242 0
M  V30 2598 N 243.887 0.651787 -1.4349 0
M  V30 2599 C 245.127 1.42345 -1.46688 0
M  V30 2600 C 245.491 1.91793 -0.0891023 0
M  V30 2601 O 246.692 2.688 0.00423594 0
M  V30 2602 C 244.963 2.57221 -2.48137 0
M  V30 2603 S 246.522 3.45725 -2.70221 0
M  V30 2604 H 243.34 0.485878 -0.51908 0
M  V30 2605 H 245.942 0.756578 -1.80267 0
M  V30 2606 H 244.646 2.1917 -3.46976 0
M  V30 2607 H 244.177 3.28757 -2.16061 0
M  V30 2608 H 246.192 4.53996 -2.00255 0
M  V30 2609 N 245.365 1.30045 0.890287 0
M  V30 2610 C 246.781 1.08261 1.17268 0
M  V30 2611 C 246.981 -0.160063 2.00863 0
M  V30 2612 O 246.037 -0.855181 2.37577 0
M  V30 2613 C 247.35 2.34323 1.8845 0
M  V30 2614 C 248.898 2.39735 2.01237 0
M  V30 2615 C 249.373 3.65625 2.7583 0
M  V30 2616 N 250.864 3.66402 2.83379 0
M  V30 2617 C 251.599 4.60498 3.41657 0
M  V30 2618 N 251.095 5.64933 4.01026 0
M  V30 2619 N 252.888 4.48051 3.39421 0
M  V30 2620 H 245.039 2.09777 0.332762 0
M  V30 2621 H 247.302 0.92446 0.209948 0
M  V30 2622 H 247.008 3.2498 1.34465 0
M  V30 2623 H 246.882 2.4256 2.88867 0
M  V30 2624 H 249.269 1.4956 2.54393 0
M  V30 2625 H 249.35 2.35476 0.999232 0
M  V30 2626 H 248.994 4.56156 2.23347 0
M  V30 2627 H 248.924 3.67144 3.77509 0
M  V30 2628 H 251.415 2.90896 2.41222 0
M  V30 2629 H 251.728 6.32841 4.43545 0
M  V30 2630 H 250.073 5.68732 3.99461 0
M  V30 2631 H 253.264 3.65649 2.92264 0
M  V30 2632 H 253.437 5.21565 3.84544 0
M  V30 2633 N 246.843 -1.10192 1.12674 0
M  V30 2634 C 247.753 -2.20172 0.810026 0
M  V30 2635 C 248.769 -1.72821 -0.202188 0
M  V30 2636 O 249.945 -2.01369 -0.0351691 0
M  V30 2637 C 247.01 -3.45631 0.272007 0
M  V30 2638 C 246.071 -4.07704 1.34447 0
M  V30 2639 C 245.304 -5.27175 0.832029 0
M  V30 2640 O 245.527 -5.69425 -0.333284 0
M  V30 2641 O 244.461 -5.80168 1.60277 0
M  V30 2642 H 248.287 -2.49701 1.72867 0
M  V30 2643 H 245.872 -1.18977 0.903597 0
M  V30 2644 H 247.754 -4.21394 -0.0230219 0
M  V30 2645 H 246.429 -3.17723 -0.619164 0
M  V30 2646 H 245.336 -3.33614 1.6927 0
M  V30 2647 H 246.669 -4.3982 2.2095 0
M  V30 2648 N 248.321 -0.919034 -1.28029 0
M  V30 2649 C 249.284 -0.416182 -2.2539 0
M  V30 2650 C 250.284 0.460438 -1.54067 0
M  V30 2651 O 251.474 0.262744 -1.72207 0
M  V30 2652 C 248.606 0.402707 -3.38513 0
M  V30 2653 H 249.799 -1.27629 -2.71387 0
M  V30 2654 H 247.352 -0.698919 -1.39803 0
M  V30 2655 H 248.087 1.282 -2.97885 0
M  V30 2656 H 247.872 -0.225698 -3.9145 0
M  V30 2657 H 249.362 0.745191 -4.10897 0
M  V30 2658 N 249.799 1.42003 -0.683588 0
M  V30 2659 C 250.709 2.34597 -0.0109075 0
M  V30 2660 C 251.725 1.55576 0.779245 0
M  V30 2661 O 252.901 1.88107 0.719555 0
M  V30 2662 C 249.966 3.34199 0.922588 0
M  V30 2663 C 249.027 4.29115 0.125984 0
M  V30 2664 C 248.26 5.23959 1.01502 0
M  V30 2665 O 248.483 5.23952 2.25456 0
M  V30 2666 O 247.417 6.00053 0.47111 0
M  V30 2667 H 251.243 2.93675 -0.773853 0
M  V30 2668 H 248.828 1.42654 -0.443861 0
M  V30 2669 H 250.71 3.95365 1.45823 0
M  V30 2670 H 249.385 2.77582 1.66523 0
M  V30 2671 H 248.292 3.71335 -0.453969 0
M  V30 2672 H 249.625 4.88798 -0.577736 0
M  V30 2673 N 251.277 0.427512 1.51691 0
M  V30 2674 C 252.524 -0.142229 2.02 0
M  V30 2675 C 252.852 -1.43566 1.31221 0
M  V30 2676 O 252.107 -1.91298 0.412744 0
M  V30 2677 C 252.406 -0.418249 3.54944 0
M  V30 2678 C 252.072 0.788187 4.43958 0
M  V30 2679 C 250.734 1.11906 4.68007 0
M  V30 2680 C 253.086 1.59347 4.96244 0
M  V30 2681 C 250.414 2.25608 5.41588 0
M  V30 2682 C 252.766 2.7214 5.71072 0
M  V30 2683 C 251.43 3.05692 5.93387 0
M  V30 2684 H 250.7 -0.0520451 0.73917 0
M  V30 2685 H 253.347 0.572697 1.82736 0
M  V30 2686 H 251.652 -1.21496 3.72486 0
M  V30 2687 H 253.349 -0.872339 3.91397 0
M  V30 2688 H 249.939 0.520344 4.2543 0
M  V30 2689 H 254.123 1.35106 4.77556 0
M  V30 2690 H 249.379 2.51929 5.57083 0
M  V30 2691 H 253.553 3.34914 6.10578 0
M  V30 2692 H 251.18 3.9391 6.50184 0
M  V30 2693 N 252.755 -1.56801 0.158532 0
M  V30 2694 C 253.685 -2.20347 -0.772609 0
M  V30 2695 C 254.666 -1.15518 -1.24859 0
M  V30 2696 O 255.851 -1.43902 -1.30406 0
M  V30 2697 C 252.981 -2.83417 -2.00729 0
M  V30 2698 C 251.935 -3.94174 -1.66765 0
M  V30 2699 C 251.261 -4.44233 -2.97592 0
M  V30 2700 C 252.561 -5.14392 -0.905447 0
M  V30 2701 H 254.255 -2.98413 -0.242959 0
M  V30 2702 H 251.801 -1.43537 -0.115419 0
M  V30 2703 H 253.754 -3.26543 -2.6636 0
M  V30 2704 H 252.478 -2.02701 -2.56086 0
M  V30 2705 H 251.137 -3.51684 -1.03508 0
M  V30 2706 H 250.785 -3.60325 -3.50963 0
M  V30 2707 H 250.485 -5.18945 -2.75626 0
M  V30 2708 H 252.009 -4.90037 -3.64274 0
M  V30 2709 H 253.423 -5.5429 -1.46408 0
M  V30 2710 H 251.82 -5.9494 -0.7853 0
M  V30 2711 H 252.89 -4.84795 0.100668 0
M  V30 2712 N 254.233 0.115231 -1.57178 0
M  V30 2713 C 255.18 1.14115 -2.00615 0
M  V30 2714 C 256.15 1.40939 -0.878941 0
M  V30 2715 O 257.335 1.52741 -1.14345 0
M  V30 2716 C 254.475 2.46156 -2.4187 0
M  V30 2717 C 253.588 2.26236 -3.68024 0
M  V30 2718 C 252.723 3.51534 -3.98243 0
M  V30 2719 C 251.762 3.26787 -5.17568 0
M  V30 2720 N 250.899 4.44298 -5.43639 0
M  V30 2721 H 255.739 0.763743 -2.88047 0
M  V30 2722 H 253.276 0.365615 -1.42484 0
M  V30 2723 H 255.234 3.23189 -2.63827 0
M  V30 2724 H 253.864 2.81783 -1.57475 0
M  V30 2725 H 252.916 1.40102 -3.5366 0
M  V30 2726 H 254.228 2.03929 -4.55208 0
M  V30 2727 H 253.382 4.36984 -4.20868 0
M  V30 2728 H 252.121 3.76876 -3.09541 0
M  V30 2729 H 251.126 2.39729 -4.94783 0
M  V30 2730 H 252.351 3.02812 -6.0785 0
M  V30 2731 H 250.297 4.69754 -4.57895 0
M  V30 2732 H 250.214 4.25109 -6.25154 0
M  V30 2733 H 251.482 5.3087 -5.70786 0
M  V30 2734 N 255.711 1.52812 0.385517 0
M  V30 2735 C 256.641 1.80808 1.47752 0
M  V30 2736 C 257.622 0.660318 1.5676 0
M  V30 2737 O 258.807 0.908246 1.71652 0
M  V30 2738 C 255.937 1.98008 2.85324 0
M  V30 2739 C 254.891 3.13709 2.91154 0
M  V30 2740 C 254.217 3.16169 4.31209 0
M  V30 2741 C 255.517 4.52709 2.60483 0
M  V30 2742 H 257.211 2.72253 1.24573 0
M  V30 2743 H 254.757 1.31003 0.597839 0
M  V30 2744 H 256.71 2.16176 3.61726 0
M  V30 2745 H 255.434 1.03255 3.09848 0
M  V30 2746 H 254.093 2.95329 2.17201 0
M  V30 2747 H 253.741 2.19092 4.52778 0
M  V30 2748 H 253.441 3.93894 4.36029 0
M  V30 2749 H 254.965 3.36496 5.09512 0
M  V30 2750 H 256.379 4.71173 3.26602 0
M  V30 2751 H 254.776 5.32528 2.76648 0
M  V30 2752 H 255.846 4.59186 1.55809 0
M  V30 2753 N 257.189 -0.644168 1.43834 0
M  V30 2754 C 258.136 -1.75671 1.49694 0
M  V30 2755 C 259.106 -1.6246 0.345809 0
M  V30 2756 O 260.291 -1.82573 0.554234 0
M  V30 2757 C 257.431 -3.13867 1.43463 0
M  V30 2758 C 256.544 -3.38147 2.6885 0
M  V30 2759 C 255.679 -4.66241 2.54544 0
M  V30 2760 C 254.718 -4.83657 3.75157 0
M  V30 2761 N 253.855 -6.03016 3.59605 0
M  V30 2762 H 258.695 -1.69998 2.44754 0
M  V30 2763 H 256.232 -0.829458 1.21484 0
M  V30 2764 H 258.19 -3.9377 1.37843 0
M  V30 2765 H 256.82 -3.18588 0.519783 0
M  V30 2766 H 255.872 -2.52276 2.84712 0
M  V30 2767 H 257.184 -3.46899 3.58417 0
M  V30 2768 H 256.338 -5.54285 2.46683 0
M  V30 2769 H 255.077 -4.59826 1.62516 0
M  V30 2770 H 254.082 -3.94046 3.83416 0
M  V30 2771 H 255.307 -4.91896 4.68204 0
M  V30 2772 H 253.253 -5.97715 2.7032 0
M  V30 2773 H 253.17 -6.12766 4.42779 0
M  V30 2774 H 254.438 -6.93657 3.55613 0
M  V30 2775 N 258.668 -1.30515 -0.883378 0
M  V30 2776 C 259.601 -1.11359 -1.99184 0
M  V30 2777 C 260.579 -0.0207858 -1.62587 0
M  V30 2778 O 261.763 -0.174646 -1.87689 0
M  V30 2779 C 258.89 -0.69871 -3.31415 0
M  V30 2780 C 257.936 -1.79261 -3.86998 0
M  V30 2781 S 258.769 -3.39536 -4.14096 0
M  V30 2782 C 259.925 -2.99954 -5.49344 0
M  V30 2783 H 260.158 -2.052 -2.15128 0
M  V30 2784 H 257.691 -1.14847 -1.03196 0
M  V30 2785 H 259.649 -0.466075 -4.07846 0
M  V30 2786 H 258.31 0.220368 -3.13326 0
M  V30 2787 H 257.503 -1.45464 -4.82552 0
M  V30 2788 H 257.105 -1.97961 -3.17313 0
M  V30 2789 H 259.397 -2.48013 -6.30473 0
M  V30 2790 H 260.34 -3.9442 -5.8808 0
M  V30 2791 H 260.748 -2.37775 -5.1198 0
M  V30 2792 N 260.146 1.09593 -1.13257 0
M  V30 2793 C 261.557 1.63229 -0.906274 0
M  V30 2794 C 261.908 1.8811 0.557578 0
M  V30 2795 O 261.033 1.62953 1.42391 0
M  V30 2796 C 261.628 2.96535 -1.63867 0
M  V30 2797 C 260.187 3.47003 -1.45828 0
M  V30 2798 C 259.334 2.2145 -1.66898 0
M  V30 2799 H 262.285 0.92978 -1.28611 0
M  V30 2800 H 262.306 3.64411 -1.09476 0
M  V30 2801 H 261.818 2.78394 -2.70404 0
M  V30 2802 H 259.919 3.70272 -0.415848 0
M  V30 2803 H 260.032 4.24551 -2.2202 0
M  V30 2804 H 258.396 2.30022 -1.09371 0
M  V30 2805 H 259.179 2.0583 -2.74752 0
M  V30 2806 N 261.624 0.925811 1.2754 0
M  V30 2807 C 262.852 0.581509 1.9856 0
M  V30 2808 C 263.267 -0.840041 1.69082 0
M  V30 2809 O 262.624 -1.55805 0.950312 0
M  V30 2810 C 262.675 0.795589 3.52637 0
M  V30 2811 O 262.396 2.16121 3.81082 0
M  V30 2812 C 263.897 0.459744 4.4091 0
M  V30 2813 H 261.117 0.220538 0.633722 0
M  V30 2814 H 263.661 1.24232 1.6244 0
M  V30 2815 H 261.816 0.18161 3.86974 0
M  V30 2816 H 262.23 2.2098 4.75676 0
M  V30 2817 H 263.704 0.660244 5.48037 0
M  V30 2818 H 264.181 -0.604625 4.35018 0
M  V30 2819 H 264.787 1.05178 4.12089 0
M  V30 2820 N 263.102 -1.41638 0.69111 0
M  V30 2821 C 264.049 -2.30789 0.0229705 0
M  V30 2822 C 265.019 -1.46863 -0.775911 0
M  V30 2823 O 266.204 -1.75661 -0.74485 0
M  V30 2824 C 263.344 -3.32868 -0.910666 0
M  V30 2825 C 262.457 -4.31875 -0.103874 0
M  V30 2826 C 261.592 -5.21024 -1.03475 0
M  V30 2827 C 260.631 -6.11702 -0.220598 0
M  V30 2828 N 259.768 -6.93349 -1.10504 0
M  V30 2829 H 264.608 -2.87366 0.788978 0
M  V30 2830 H 262.145 -1.41535 0.400794 0
M  V30 2831 H 264.103 -3.90596 -1.46597 0
M  V30 2832 H 262.733 -2.77851 -1.64312 0
M  V30 2833 H 261.785 -3.76131 0.568285 0
M  V30 2834 H 263.097 -4.96003 0.527504 0
M  V30 2835 H 262.251 -5.83565 -1.65943 0
M  V30 2836 H 260.99 -4.57112 -1.69999 0
M  V30 2837 H 259.995 -5.48215 0.417187 0
M  V30 2838 H 261.22 -6.77668 0.440784 0
M  V30 2839 H 259.166 -6.3205 -1.75638 0
M  V30 2840 H 259.083 -7.54146 -0.529125 0
M  V30 2841 H 260.351 -7.60362 -1.71667 0
M  V30 2842 N 264.58 -0.43555 -1.51462 0
M  V30 2843 C 265.527 0.376797 -2.27703 0
M  V30 2844 C 266.497 1.01838 -1.31219 0
M  V30 2845 O 267.682 1.03762 -1.60119 0
M  V30 2846 C 264.822 1.47301 -3.12084 0
M  V30 2847 C 263.935 0.849744 -4.2356 0
M  V30 2848 C 263.07 1.92086 -4.95254 0
M  V30 2849 C 262.109 1.27593 -5.98654 0
M  V30 2850 N 261.246 2.28833 -6.63762 0
M  V30 2851 H 266.086 -0.279734 -2.96684 0
M  V30 2852 H 263.623 -0.149795 -1.46335 0
M  V30 2853 H 265.581 2.11984 -3.59331 0
M  V30 2854 H 264.211 2.0992 -2.45221 0
M  V30 2855 H 263.263 0.0912529 -3.80291 0
M  V30 2856 H 264.575 0.338878 -4.97648 0
M  V30 2857 H 263.729 2.64435 -5.46039 0
M  V30 2858 H 262.468 2.46545 -4.20793 0
M  V30 2859 H 261.473 0.537893 -5.47162 0
M  V30 2860 H 262.698 0.738693 -6.7507 0
M  V30 2861 H 260.644 2.82375 -5.92115 0
M  V30 2862 H 260.561 1.82632 -7.33608 0
M  V30 2863 H 261.829 3.00671 -7.19178 0
M  V30 2864 N 266.058 1.56714 -0.166846 0
M  V30 2865 C 266.991 2.13577 0.80375 0
M  V30 2866 C 267.969 1.06464 1.22899 0
M  V30 2867 O 269.153 1.34413 1.32157 0
M  V30 2868 C 266.28 2.67168 2.0818 0
M  V30 2869 C 265.326 3.86612 1.80093 0
M  V30 2870 S 266.159 5.26565 0.97416 0
M  V30 2871 C 267.315 5.83558 2.26297 0
M  V30 2872 H 267.548 2.9557 0.320267 0
M  V30 2873 H 265.081 1.54326 0.0477555 0
M  V30 2874 H 267.039 2.98692 2.8159 0
M  V30 2875 H 265.7 1.85269 2.53642 0
M  V30 2876 H 264.893 4.22422 2.7491 0
M  V30 2877 H 264.495 3.55951 1.14781 0
M  V30 2878 H 266.787 5.962 3.21795 0
M  V30 2879 H 267.73 6.80731 1.94962 0
M  V30 2880 H 268.138 5.11944 2.37853 0
M  V30 2881 N 267.536 -0.106894 1.57237 0
M  V30 2882 C 268.766 -0.825191 1.89405 0
M  V30 2883 C 269.174 -1.73374 0.757496 0
M  V30 2884 O 268.517 -1.81552 -0.280115 0
M  V30 2885 C 268.579 -1.70102 3.1671 0
M  V30 2886 C 268.243 -0.965523 4.46684 0
M  V30 2887 C 269.24 -0.300741 5.19029 0
M  V30 2888 C 266.925 -0.943105 4.93367 0
M  V30 2889 C 268.919 0.376622 6.36286 0
M  V30 2890 C 266.606 -0.261949 6.10538 0
M  V30 2891 C 267.604 0.396748 6.81847 0
M  V30 2892 O 267.292 1.06701 7.96787 0
M  V30 2893 H 267.024 -0.241852 0.631255 0
M  V30 2894 H 269.578 -0.0921491 2.05193 0
M  V30 2895 H 267.808 -2.47601 2.97036 0
M  V30 2896 H 269.497 -2.29483 3.34802 0
M  V30 2897 H 270.263 -0.309599 4.84011 0
M  V30 2898 H 266.142 -1.44524 4.3776 0
M  V30 2899 H 269.686 0.891334 6.91882 0
M  V30 2900 H 265.583 -0.250896 6.45012 0
M  V30 2901 H 266.351 0.972707 8.127 0
M  V30 2902 N 269.014 -1.53014 -0.377408 0
M  V30 2903 C 269.964 -1.74996 -1.46152 0
M  V30 2904 C 270.948 -0.604236 -1.49123 0
M  V30 2905 O 272.14 -0.862489 -1.54564 0
M  V30 2906 C 269.269 -1.93267 -2.8373 0
M  V30 2907 C 268.355 -3.13807 -2.85283 0
M  V30 2908 N 268.746 -4.35941 -2.56493 0
M  V30 2909 C 267.044 -3.14288 -3.16448 0
M  V30 2910 C 267.745 -5.17615 -2.65424 0
M  V30 2911 N 266.721 -4.53559 -2.99641 0
M  V30 2912 H 270.523 -2.67044 -1.22738 0
M  V30 2913 H 268.037 -1.51479 -0.585479 0
M  V30 2914 H 270.034 -2.0714 -3.61799 0
M  V30 2915 H 268.694 -1.0244 -3.08117 0
M  V30 2916 H 269.705 -4.63876 -2.30302 0
M  V30 2917 H 266.382 -2.33312 -3.46225 0
M  V30 2918 H 267.772 -6.25006 -2.46612 0
M  V30 2919 N 270.492 0.636531 -1.44174 0
M  V30 2920 C 271.741 1.39213 -1.45954 0
M  V30 2921 C 272.054 1.95374 -0.0939119 0
M  V30 2922 O 273.26 2.71498 0.0107767 0
M  V30 2923 C 271.716 2.52025 -2.56927 0
M  V30 2924 C 271.324 2.024 -3.99673 0
M  V30 2925 C 273.068 3.29269 -2.67922 0
M  V30 2926 C 270.975 3.12521 -5.0208 0
M  V30 2927 H 269.905 0.523132 -0.542999 0
M  V30 2928 H 272.556 0.685349 -1.70221 0
M  V30 2929 H 270.938 3.25253 -2.25891 0
M  V30 2930 H 272.112 1.36073 -4.40251 0
M  V30 2931 H 270.427 1.37987 -3.92872 0
M  V30 2932 H 273.024 4.11352 -3.41605 0
M  V30 2933 H 273.367 3.78397 -1.73555 0
M  V30 2934 H 273.9 2.63129 -2.98342 0
M  V30 2935 H 270.639 2.68343 -5.98057 0
M  V30 2936 H 270.159 3.77507 -4.66099 0
M  V30 2937 H 271.838 3.77385 -5.25538 0
M  V30 2938 N 271.97 1.30982 0.876444 0
M  V30 2939 C 272.918 1.18006 2.00443 0
M  V30 2940 C 273.912 0.0898871 1.69161 0
M  V30 2941 O 275.118 0.251333 1.78237 0
M  V30 2942 H 271.493 0.365196 0.65737 0
M  V30 2943 H 273.464 2.13453 2.0852 0
M  V30 2944 C 272.213 0.897521 3.35916 0
M  V30 2945 H 271.536 1.7285 3.60504 0
M  V30 2946 H 272.976 0.846874 4.15456 0
M  V30 2947 C 271.435 -0.399674 3.34521 0
M  V30 2948 O 271.965 -1.41852 3.7582 0
M  V30 2949 N 270.171 -0.413893 2.87637 0
M  V30 2950 H 269.718 0.41571 2.54224 0
M  V30 2951 H 269.676 -1.28175 2.87086 0
M  V30 2952 N 273.449 -1.08991 1.13837 0
M  V30 2953 C 274.359 -2.19301 0.833333 0
M  V30 2954 C 275.375 -1.73026 -0.183847 0
M  V30 2955 O 276.551 -2.01395 -0.0138092 0
M  V30 2956 C 273.616 -3.45323 0.308651 0
M  V30 2957 C 272.677 -4.06255 1.38764 0
M  V30 2958 C 271.91 -5.26262 0.887896 0
M  V30 2959 O 272.133 -5.69747 -0.27287 0
M  V30 2960 O 271.067 -5.78435 1.66421 0
M  V30 2961 H 274.893 -2.47854 1.75506 0
M  V30 2962 H 272.478 -1.18012 0.916166 0
M  V30 2963 H 274.36 -4.21394 0.0216739 0
M  V30 2964 H 273.035 -3.18362 -0.585431 0
M  V30 2965 H 271.942 -3.318 1.72799 0
M  V30 2966 H 273.275 -4.37452 2.25602 0
M  V30 2967 N 274.927 -0.932562 -1.27047 0
M  V30 2968 C 276.155 -0.592031 -1.98249 0
M  V30 2969 C 276.57 0.831062 -1.69525 0
M  V30 2970 O 275.927 1.55299 -0.958561 0
M  V30 2971 C 275.978 -0.814279 -3.5221 0
M  V30 2972 O 275.699 -2.18139 -3.7993 0
M  V30 2973 C 277.2 -0.483121 -4.4066 0
M  V30 2974 H 274.42 -0.223896 -0.632544 0
M  V30 2975 H 276.964 -1.25091 -1.61779 0
M  V30 2976 H 275.119 -0.20213 -3.86872 0
M  V30 2977 H 275.533 -2.235 -4.74498 0
M  V30 2978 H 277.007 -0.689298 -5.47679 0
M  V30 2979 H 277.484 0.581546 -4.35333 0
M  V30 2980 H 278.09 -1.07362 -4.11526 0
M  V30 2981 N 276.405 1.4127 -0.698611 0
M  V30 2982 C 277.821 1.55241 -0.370462 0
M  V30 2983 C 278.021 1.67351 1.12231 0
M  V30 2984 O 277.077 1.65363 1.90818 0
M  V30 2985 C 278.39 2.78997 -1.12165 0
M  V30 2986 C 279.938 2.92797 -1.1063 0
M  V30 2987 C 280.413 4.19445 -1.8393 0
M  V30 2988 N 281.904 4.26409 -1.80914 0
M  V30 2989 C 282.639 5.23271 -2.34467 0
M  V30 2990 N 282.135 6.26145 -2.96504 0
M  V30 2991 N 283.928 5.15232 -2.24706 0
M  V30 2992 H 276.079 1.31654 -1.66676 0
M  V30 2993 H 278.342 0.635393 -0.703548 0
M  V30 2994 H 278.048 2.76268 -2.17644 0
M  V30 2995 H 277.922 3.70606 -0.702209 0
M  V30 2996 H 280.309 2.95039 -0.0597713 0
M  V30 2997 H 280.39 2.02353 -1.56483 0
M  V30 2998 H 280.034 4.17964 -2.88563 0
M  V30 2999 H 279.964 5.08866 -1.35509 0
M  V30 3000 H 282.455 3.527 -1.35687 0
M  V30 3001 H 282.768 6.96451 -3.34927 0
M  V30 3002 H 281.113 6.26638 -3.00583 0
M  V30 3003 H 284.304 4.33789 -1.7591 0
M  V30 3004 H 284.477 5.90552 -2.66745 0
M  V30 3005 N 277.883 0.443576 1.51229 0
M  V30 3006 C 279.131 -0.120557 2.0174 0
M  V30 3007 C 279.452 -1.42665 1.32935 0
M  V30 3008 O 278.722 -1.9028 0.465866 0
M  V30 3009 H 277.302 -0.0475426 0.745486 0
M  V30 3010 H 279.964 0.587711 1.85828 0
M  V30 3011 H 279.06 -0.291972 3.10731 0
M  V30 3012 N 279.361 -1.56624 0.175154 0
M  V30 3013 C 280.291 -2.21155 -0.749195 0
M  V30 3014 C 281.272 -1.16836 -1.23626 0
M  V30 3015 O 282.457 -1.45277 -1.28873 0
M  V30 3016 C 279.587 -2.8553 -1.97711 0
M  V30 3017 C 278.541 -3.95921 -1.62575 0
M  V30 3018 C 277.867 -4.47365 -2.92864 0
M  V30 3019 C 279.167 -5.15323 -0.850838 0
M  V30 3020 H 280.861 -2.98653 -0.211295 0
M  V30 3021 H 278.407 -1.43651 -0.100188 0
M  V30 3022 H 280.36 -3.2935 -2.62881 0
M  V30 3023 H 279.084 -2.05406 -2.53921 0
M  V30 3024 H 277.743 -3.52762 -0.997719 0
M  V30 3025 H 277.391 -3.64027 -3.47122 0
M  V30 3026 H 277.091 -5.21839 -2.70106 0
M  V30 3027 H 278.615 -4.93873 -3.59056 0
M  V30 3028 H 280.029 -5.55812 -1.40521 0
M  V30 3029 H 278.426 -5.95739 -0.722154 0
M  V30 3030 H 279.496 -4.84661 0.152082 0
M  V30 3031 N 280.839 0.0985539 -1.57292 0
M  V30 3032 C 281.769 1.12064 -2.04851 0
M  V30 3033 C 282.75 1.41981 -0.936767 0
M  V30 3034 O 283.935 1.52071 -1.20781 0
M  V30 3035 C 281.065 2.44144 -2.47004 0
M  V30 3036 C 280.019 2.28643 -3.6181 0
M  V30 3037 C 279.345 3.65869 -3.89929 0
M  V30 3038 C 280.645 1.72986 -4.92822 0
M  V30 3039 H 282.339 0.724979 -2.9049 0
M  V30 3040 H 279.885 0.34729 -1.39749 0
M  V30 3041 H 281.838 3.15914 -2.78884 0
M  V30 3042 H 280.562 2.85639 -1.5836 0
M  V30 3043 H 279.221 1.59318 -3.30172 0
M  V30 3044 H 278.869 4.04885 -2.98458 0
M  V30 3045 H 278.569 3.56344 -4.67218 0
M  V30 3046 H 280.093 4.39112 -4.2428 0
M  V30 3047 H 281.507 2.34593 -5.23105 0
M  V30 3048 H 279.904 1.74229 -5.74251 0
M  V30 3049 H 280.974 0.689007 -4.7998 0
M  V30 3050 N 282.317 1.53212 0.369288 0
M  V30 3051 C 283.264 1.79388 1.45219 0
M  V30 3052 C 284.234 0.638059 1.53356 0
M  V30 3053 O 285.419 0.879852 1.69302 0
M  V30 3054 C 282.559 1.98623 2.82211 0
M  V30 3055 C 281.672 3.26337 2.8307 0
M  V30 3056 C 280.807 3.35779 4.11614 0
M  V30 3057 C 279.846 4.5754 4.06601 0
M  V30 3058 N 278.983 4.64155 5.26787 0
M  V30 3059 H 283.823 2.71794 1.22198 0
M  V30 3060 H 281.36 1.34642 0.592444 0
M  V30 3061 H 283.318 2.07761 3.61789 0
M  V30 3062 H 281.948 1.09558 3.03639 0
M  V30 3063 H 281 3.26171 1.95747 0
M  V30 3064 H 282.312 4.15988 2.75237 0
M  V30 3065 H 281.466 3.44208 4.99606 0
M  V30 3066 H 280.205 2.44137 4.22195 0
M  V30 3067 H 279.21 4.49215 3.16996 0
M  V30 3068 H 280.435 5.50519 3.97625 0
M  V30 3069 H 278.381 3.75413 5.3796 0
M  V30 3070 H 278.298 5.47706 5.21109 0
M  V30 3071 H 279.566 4.76863 6.16621 0
M  V30 3072 N 283.795 -0.628877 1.44509 0
M  V30 3073 C 284.742 -1.74074 1.51549 0
M  V30 3074 C 285.712 -1.62084 0.363021 0
M  V30 3075 O 286.897 -1.81975 0.573567 0
M  V30 3076 C 284.037 -3.12328 1.46784 0
M  V30 3077 C 283.15 -3.35277 2.72422 0
M  V30 3078 C 282.285 -4.63515 2.59475 0
M  V30 3079 C 281.324 -4.7965 3.80266 0
M  V30 3080 N 280.461 -5.99168 3.65981 0
M  V30 3081 H 285.301 -1.67392 2.46544 0
M  V30 3082 H 282.838 -0.816527 1.22357 0
M  V30 3083 H 284.796 -3.92286 1.42012 0
M  V30 3084 H 283.426 -3.18018 0.553544 0
M  V30 3085 H 282.478 -2.49242 2.87372 0
M  V30 3086 H 283.79 -3.43078 3.62076 0
M  V30 3087 H 282.944 -5.51638 2.52548 0
M  V30 3088 H 281.683 -4.58076 1.67384 0
M  V30 3089 H 280.688 -3.89957 3.87574 0
M  V30 3090 H 281.913 -4.86902 4.73395 0
M  V30 3091 H 279.859 -5.94814 2.76644 0
M  V30 3092 H 279.776 -6.08035 4.49254 0
M  V30 3093 H 281.044 -6.89846 3.6295 0
M  V30 3094 N 285.273 -1.31445 -0.869486 0
M  V30 3095 C 286.522 -1.20517 -1.61736 0
M  V30 3096 C 286.835 0.235341 -1.94179 0
M  V30 3097 O 288.041 0.466312 -2.67465 0
M  V30 3098 C 286.497 -2.10982 -2.91573 0
M  V30 3099 C 286.105 -3.60032 -2.66611 0
M  V30 3100 C 287.849 -2.08856 -3.69567 0
M  V30 3101 C 285.756 -4.42503 -3.92358 0
M  V30 3102 H 284.686 -0.447493 -0.606849 0
M  V30 3103 H 287.337 -1.56303 -0.96133 0
M  V30 3104 H 285.719 -1.68095 -3.58553 0
M  V30 3105 H 286.893 -4.11167 -2.08035 0
M  V30 3106 H 285.208 -3.64139 -2.0197 0
M  V30 3107 H 287.805 -2.67716 -4.62852 0
M  V30 3108 H 288.148 -1.07582 -4.02159 0
M  V30 3109 H 288.681 -2.49945 -3.09471 0
M  V30 3110 H 285.42 -5.44533 -3.64916 0
M  V30 3111 H 284.94 -3.96125 -4.50383 0
M  V30 3112 H 286.619 -4.54741 -4.60238 0
M  V30 3113 N 286.751 1.08385 -1.14413 0
M  V30 3114 C 287.699 2.17406 -0.826888 0
M  V30 3115 C 288.693 1.6827 0.195312 0
M  V30 3116 O 289.899 1.79927 0.0513892 0
M  V30 3117 H 286.274 0.70934 -0.249681 0
M  V30 3118 H 288.245 2.41388 -1.75426 0
M  V30 3119 C 286.994 3.46215 -0.320979 0
M  V30 3120 H 286.317 3.84401 -1.0989 0
M  V30 3121 H 287.757 4.23777 -0.137549 0
M  V30 3122 C 286.216 3.23067 0.955472 0
M  V30 3123 O 286.746 3.4668 2.02918 0
M  V30 3124 N 284.952 2.7661 0.890798 0
M  V30 3125 H 284.499 2.57594 0.0168815 0
M  V30 3126 H 284.457 2.61501 1.74542 0
M  V30 3127 N 288.23 0.939286 1.26551 0
M  V30 3128 C 289.455 0.602008 1.98471 0
M  V30 3129 C 289.88 -0.815624 1.69497 0
M  V30 3130 O 289.238 -1.54912 0.941905 0
M  V30 3131 C 289.286 0.848407 3.50477 0
M  V30 3132 O 288.39 -0.0804009 4.12322 0
M  V30 3133 H 287.731 0.23049 0.622712 0
M  V30 3134 H 290.261 1.2617 1.61066 0
M  V30 3135 H 290.271 0.768553 4.00696 0
M  V30 3136 H 288.946 1.88171 3.70897 0
M  V30 3137 H 287.523 0.0503508 3.72866 0
M  V30 3138 N 289.708 -1.40897 0.706093 0
M  V30 3139 C 290.954 -2.01352 0.241889 0
M  V30 3140 C 291.287 -1.55832 -1.15888 0
M  V30 3141 O 290.562 -0.774145 -1.7843 0
M  V30 3142 C 290.845 -3.58752 0.311311 0
M  V30 3143 C 290.698 -4.1437 1.74978 0
M  V30 3144 C 292.017 -4.38914 -0.322922 0
M  V30 3145 H 289.136 -0.731562 0.0893687 0
M  V30 3146 H 291.778 -1.67504 0.896802 0
M  V30 3147 H 289.928 -3.87718 -0.246302 0
M  V30 3148 H 291.6 -3.96239 2.36205 0
M  V30 3149 H 289.843 -3.69016 2.28057 0
M  V30 3150 H 290.514 -5.23532 1.74981 0
M  V30 3151 H 292.99 -4.15822 0.152089 0
M  V30 3152 H 291.866 -5.48358 -0.243855 0
M  V30 3153 H 292.127 -4.19176 -1.40513 0
M  V30 3154 N 291.186 -0.45159 -1.50991 0
M  V30 3155 C 292.116 0.342898 -2.30969 0
M  V30 3156 C 293.097 1.00815 -1.37005 0
M  V30 3157 O 294.282 1.00907 -1.65926 0
M  V30 3158 C 291.412 1.43637 -3.16205 0
M  V30 3159 C 290.366 0.893818 -4.18563 0
M  V30 3160 C 289.692 2.08411 -4.92411 0
M  V30 3161 C 290.992 -0.0815568 -5.22236 0
M  V30 3162 H 292.686 -0.324556 -2.97636 0
M  V30 3163 H 290.232 -0.157531 -1.43136 0
M  V30 3164 H 292.185 1.9995 -3.70942 0
M  V30 3165 H 290.909 2.13232 -2.47386 0
M  V30 3166 H 289.568 0.352798 -3.64898 0
M  V30 3167 H 289.216 2.76658 -4.20082 0
M  V30 3168 H 288.916 1.72741 -5.61636 0
M  V30 3169 H 290.44 2.65251 -5.49976 0
M  V30 3170 H 291.854 0.391742 -5.7196 0
M  V30 3171 H 290.251 -0.351551 -5.99069 0
M  V30 3172 H 291.321 -1.01374 -4.74185 0
M  V30 3173 N 292.664 1.56529 -0.183458 0
M  V30 3174 C 293.596 2.15747 0.773697 0
M  V30 3175 C 294.609 1.1162 1.1851 0
M  V30 3176 O 295.798 1.3876 1.12285 0
M  V30 3177 C 292.898 2.6952 2.05456 0
M  V30 3178 C 292.071 3.98429 1.8048 0
M  V30 3179 C 291.13 4.37145 2.92901 0
M  V30 3180 O 290.156 5.04791 2.6301 0
M  V30 3181 N 291.358 3.99695 4.2098 0
M  V30 3182 H 294.123 2.98505 0.26736 0
M  V30 3183 H 291.684 1.619 -0.0010878 0
M  V30 3184 H 293.676 2.92412 2.79781 0
M  V30 3185 H 292.246 1.91282 2.47245 0
M  V30 3186 H 291.466 3.8379 0.899947 0
M  V30 3187 H 292.754 4.82597 1.61175 0
M  V30 3188 H 292.152 3.4526 4.48121 0
M  V30 3189 H 290.709 4.27562 4.9197 0
M  V30 3190 N 294.142 -0.090211 1.57342 0
M  V30 3191 C 295.089 -1.10909 2.02405 0
M  V30 3192 C 296.059 -1.39523 0.901252 0
M  V30 3193 O 297.244 -1.50903 1.1676 0
M  V30 3194 C 294.384 -2.42277 2.45755 0
M  V30 3195 C 293.497 -2.20352 3.71576 0
M  V30 3196 C 292.632 -3.45154 4.03785 0
M  V30 3197 C 291.671 -3.18512 5.22701 0
M  V30 3198 N 290.808 -4.35593 5.50639 0
M  V30 3199 H 295.648 -0.71782 2.89225 0
M  V30 3200 H 293.185 -0.342901 1.43048 0
M  V30 3201 H 295.143 -3.18951 2.68935 0
M  V30 3202 H 293.773 -2.79242 1.61938 0
M  V30 3203 H 292.825 -1.34458 3.55844 0
M  V30 3204 H 294.137 -1.96661 4.58395 0
M  V30 3205 H 293.291 -4.30233 4.27767 0
M  V30 3206 H 292.03 -3.71904 3.15498 0
M  V30 3207 H 291.035 -2.31827 4.98534 0
M  V30 3208 H 292.26 -2.93103 6.12591 0
M  V30 3209 H 290.206 -4.6241 4.6531 0
M  V30 3210 H 290.123 -4.1511 6.31838 0
M  V30 3211 H 291.391 -5.21723 5.7916 0
M  V30 3212 N 295.62 -1.53406 -0.361157 0
M  V30 3213 C 296.869 -1.69022 -1.10066 0
M  V30 3214 C 297.182 -0.450838 -1.90333 0
M  V30 3215 O 298.388 -0.487617 -2.67085 0
M  V30 3216 C 296.844 -2.98812 -2.00598 0
M  V30 3217 C 296.452 -4.30027 -1.25621 0
M  V30 3218 C 298.196 -3.23795 -2.74513 0
M  V30 3219 C 296.103 -5.50903 -2.1508 0
M  V30 3220 H 295.033 -0.629776 -0.414606 0
M  V30 3221 H 297.684 -1.79907 -0.361348 0
M  V30 3222 H 296.066 -2.8174 -2.78278 0
M  V30 3223 H 297.24 -4.57745 -0.529739 0
M  V30 3224 H 295.555 -4.11522 -0.635496 0
M  V30 3225 H 298.152 -4.11289 -3.41681 0
M  V30 3226 H 298.495 -2.40045 -3.40123 0
M  V30 3227 H 299.028 -3.41561 -2.03914 0
M  V30 3228 H 295.767 -6.37143 -1.54041 0
M  V30 3229 H 295.287 -5.27459 -2.85565 0
M  V30 3230 H 296.966 -5.85865 -2.74538 0
M  V30 3231 N 297.098 0.621204 -1.44841 0
M  V30 3232 C 298.326 1.40752 -1.51646 0
M  V30 3233 C 298.741 1.88246 -0.144549 0
M  V30 3234 O 298.098 1.61422 0.851416 0
M  V30 3235 C 298.149 2.62119 -2.4895 0
M  V30 3236 O 297.87 2.16602 -3.80808 0
M  V30 3237 C 299.371 3.55135 -2.65319 0
M  V30 3238 H 296.591 0.431325 -0.514004 0
M  V30 3239 H 299.135 0.758835 -1.899 0
M  V30 3240 H 297.29 3.23058 -2.13805 0
M  V30 3241 H 297.704 2.95358 -4.33433 0
M  V30 3242 H 299.178 4.36874 -3.37409 0
M  V30 3243 H 299.655 4.04592 -1.70886 0
M  V30 3244 H 300.261 3.00058 -3.01405 0
M  V30 3245 N 298.576 1.31904 0.862503 0
M  V30 3246 C 299.853 1.12644 1.59908 0
M  V30 3247 C 300.233 -0.316104 2.0872 0
M  V30 3248 O 299.581 -1.31145 1.87118 0
M  V30 3249 C 299.791 2.1472 2.7513 0
M  V30 3250 C 301.139 2.47637 3.44907 0
M  V30 3251 O 302.163 2.13205 2.85346 0
M  V30 3252 O 301.022 3.06632 4.52371 0
M  V30 3253 H 298.116 0.43416 0.703871 0
M  V30 3254 H 300.662 1.43408 0.907314 0
M  V30 3255 H 299.434 3.1172 2.3653 0
M  V30 3256 H 299.057 1.84905 3.51989 0
M  V30 3257 N 300.054 -1.07777 1.14986 0
M  V30 3258 C 301.465 -1.61766 0.932127 0
M  V30 3259 C 301.816 -1.88974 -0.527581 0
M  V30 3260 O 300.941 -1.65198 -1.39781 0
M  V30 3261 C 301.536 -2.93891 1.68563 0
M  V30 3262 C 300.095 -3.44639 1.5133 0
M  V30 3263 C 299.242 -2.18767 1.704 0
M  V30 3264 H 302.193 -0.909201 1.30074 0
M  V30 3265 H 302.214 -3.62623 1.15259 0
M  V30 3266 H 301.726 -2.74057 2.74799 0
M  V30 3267 H 299.827 -3.69564 0.474702 0
M  V30 3268 H 299.94 -4.20966 2.28746 0
M  V30 3269 H 298.304 -2.28253 1.13016 0
M  V30 3270 H 299.087 -2.01433 2.77992 0
M  V30 3271 N 301.532 -0.945985 -1.26051 0
M  V30 3272 C 302.781 -0.591836 -1.92822 0
M  V30 3273 C 303.094 0.873956 -1.7499 0
M  V30 3274 O 304.3 1.33769 -2.36259 0
M  V30 3275 C 302.756 -1.00776 -3.45503 0
M  V30 3276 C 302.364 -2.4955 -3.7206 0
M  V30 3277 C 304.108 -0.725735 -4.1825 0
M  V30 3278 C 302.015 -2.84988 -5.18205 0
M  V30 3279 H 300.945 -0.217635 -0.721908 0
M  V30 3280 H 303.596 -1.14927 -1.43052 0
M  V30 3281 H 301.978 -0.378812 -3.94184 0
M  V30 3282 H 303.152 -3.1739 -3.34066 0
M  V30 3283 H 301.467 -2.75133 -3.12555 0
M  V30 3284 H 304.064 -0.966771 -5.25887 0
M  V30 3285 H 304.407 0.337639 -4.14929 0
M  V30 3286 H 304.94 -1.31463 -3.7545 0
M  V30 3287 H 301.679 -3.90307 -5.26631 0
M  V30 3288 H 301.199 -2.21813 -5.57278 0
M  V30 3289 H 302.878 -2.73712 -5.86252 0
M  V30 3290 N 303.011 1.40521 -0.713556 0
M  V30 3291 C 303.943 2.29191 -0.0203126 0
M  V30 3292 C 304.956 1.45723 0.725864 0
M  V30 3293 O 306.145 1.69033 0.573581 0
M  V30 3294 C 303.245 3.2395 0.995486 0
M  V30 3295 C 302.418 4.36262 0.315256 0
M  V30 3296 C 301.477 5.11474 1.23616 0
M  V30 3297 O 300.503 5.64606 0.721719 0
M  V30 3298 N 301.705 5.20638 2.56743 0
M  V30 3299 H 304.47 2.89327 -0.781652 0
M  V30 3300 H 302.031 1.51869 -0.561022 0
M  V30 3301 H 304.023 3.71137 1.61368 0
M  V30 3302 H 302.593 2.64995 1.6582 0
M  V30 3303 H 301.813 3.91228 -0.483106 0
M  V30 3304 H 303.101 5.08558 -0.157004 0
M  V30 3305 H 302.499 4.7895 3.01037 0
M  V30 3306 H 301.056 5.71339 3.13712 0
M  V30 3307 N 304.489 0.459591 1.5075 0
M  V30 3308 C 305.9 0.00171547 1.867 0
M  V30 3309 C 306.251 -1.39934 1.37525 0
M  V30 3310 O 305.376 -2.03523 0.735349 0
M  V30 3311 C 305.971 -0.00366298 3.388 0
M  V30 3312 C 304.53 -0.406026 3.74204 0
M  V30 3313 C 303.677 0.38673 2.7459 0
M  V30 3314 H 306.628 0.674413 1.43657 0
M  V30 3315 H 306.649 -0.808371 3.71814 0
M  V30 3316 H 306.161 1.01617 3.74561 0
M  V30 3317 H 304.262 -1.43063 3.4404 0
M  V30 3318 H 304.375 -0.115362 4.78961 0
M  V30 3319 H 302.739 -0.158019 2.54209 0
M  V30 3320 H 303.522 1.40585 3.13194 0
M  V30 3321 N 305.967 -1.56429 0.191757 0
M  V30 3322 C 306.914 -2.18936 -0.730454 0
M  V30 3323 C 307.884 -1.13557 -1.21219 0
M  V30 3324 O 309.069 -1.41794 -1.27668 0
M  V30 3325 C 306.209 -2.85013 -1.9458 0
M  V30 3326 C 305.322 -4.04909 -1.50574 0
M  V30 3327 C 304.457 -4.58853 -2.67634 0
M  V30 3328 C 303.496 -5.71114 -2.20217 0
M  V30 3329 N 302.633 -6.19478 -3.30442 0
M  V30 3330 H 307.473 -2.97389 -0.190664 0
M  V30 3331 H 305.01 -1.46869 -0.0823694 0
M  V30 3332 H 306.968 -3.21492 -2.65893 0
M  V30 3333 H 305.598 -2.09129 -2.45896 0
M  V30 3334 H 304.65 -3.74115 -0.688605 0
M  V30 3335 H 305.962 -4.86113 -1.11784 0
M  V30 3336 H 305.116 -4.97619 -3.47074 0
M  V30 3337 H 303.855 -3.76749 -3.09696 0
M  V30 3338 H 302.86 -5.31879 -1.3923 0
M  V30 3339 H 304.085 -6.55033 -1.79189 0
M  V30 3340 H 302.031 -5.40297 -3.72041 0
M  V30 3341 H 301.948 -6.95725 -2.9581 0
M  V30 3342 H 303.216 -6.62898 -4.10106 0
M  V30 3343 N 307.445 0.0818655 -1.57387 0
M  V30 3344 C 308.691 0.784074 -1.8703 0
M  V30 3345 C 309.024 1.77729 -0.782689 0
M  V30 3346 O 308.299 1.93384 0.208051 0
M  V30 3347 C 308.582 1.50105 -3.27323 0
M  V30 3348 C 308.435 0.524925 -4.46727 0
M  V30 3349 C 309.754 2.44843 -3.65705 0
M  V30 3350 H 306.873 0.283582 -0.680257 0
M  V30 3351 H 309.515 0.0474352 -1.89941 0
M  V30 3352 H 307.665 2.12897 -3.24972 0
M  V30 3353 H 309.337 -0.0970111 -4.61198 0
M  V30 3354 H 307.58 -0.160606 -4.33503 0
M  V30 3355 H 308.251 1.064 -5.41648 0
M  V30 3356 H 310.727 1.92135 -3.69085 0
M  V30 3357 H 309.603 2.92018 -4.64776 0
M  V30 3358 H 309.864 3.29197 -2.95096 0
M  V30 3359 N 308.923 1.53595 0.353017 0
M  V30 3360 C 309.886 1.80232 1.41594 0
M  V30 3361 C 310.886 0.673081 1.46035 0
M  V30 3362 O 312.076 0.941335 1.46576 0
M  V30 3363 C 309.208 1.93578 2.80607 0
M  V30 3364 H 310.401 2.75174 1.19244 0
M  V30 3365 H 307.954 1.44864 0.586872 0
M  V30 3366 H 308.689 1.00746 3.08254 0
M  V30 3367 H 308.474 2.75724 2.78781 0
M  V30 3368 H 309.964 2.15735 3.57558 0
M  V30 3369 N 310.401 -0.613514 1.45168 0
M  V30 3370 C 311.311 -1.75296 1.55912 0
M  V30 3371 C 312.327 -1.68244 0.443856 0
M  V30 3372 O 313.503 -1.88706 0.70371 0
M  V30 3373 C 310.568 -3.1174 1.5172 0
M  V30 3374 C 309.629 -3.30291 2.74238 0
M  V30 3375 C 308.862 -4.60226 2.70236 0
M  V30 3376 O 309.085 -5.42168 1.77229 0
M  V30 3377 O 308.019 -4.81361 3.61352 0
M  V30 3378 H 311.845 -1.69183 2.52212 0
M  V30 3379 H 309.43 -0.776886 1.27612 0
M  V30 3380 H 311.312 -3.93044 1.51968 0
M  V30 3381 H 309.987 -3.18357 0.585697 0
M  V30 3382 H 308.894 -2.48598 2.79553 0
M  V30 3383 H 310.227 -3.28547 3.66494 0
M  V30 3384 N 311.879 -1.3236 -0.855495 0
M  V30 3385 C 312.829 -1.17809 -1.95205 0
M  V30 3386 C 313.813 -0.0852319 -1.60674 0
M  V30 3387 O 315.005 -0.311651 -1.74235 0
M  V30 3388 C 312.134 -0.902437 -3.31226 0
M  V30 3389 C 311.22 -2.03695 -3.7198 0
M  V30 3390 N 311.611 -3.28544 -3.84568 0
M  V30 3391 C 309.909 -1.93993 -4.016 0
M  V30 3392 C 310.61 -4.02847 -4.19629 0
M  V30 3393 N 309.586 -3.31138 -4.31102 0
M  V30 3394 H 313.388 -2.12462 -2.0307 0
M  V30 3395 H 310.902 -1.24127 -1.0472 0
M  V30 3396 H 312.899 -0.77915 -4.09554 0
M  V30 3397 H 311.559 0.0357267 -3.2468 0
M  V30 3398 H 312.57 -3.6349 -3.68911 0
M  V30 3399 H 309.247 -1.07733 -4.03361 0
M  V30 3400 H 310.637 -5.10506 -4.36845 0
M  V30 3401 N 313.357 1.07166 -1.15556 0
M  V30 3402 C 314.773 1.31899 -0.898603 0
M  V30 3403 C 314.973 1.96333 0.453383 0
M  V30 3404 O 314.029 2.22438 1.19489 0
M  V30 3405 C 315.342 2.20826 -2.04099 0
M  V30 3406 C 316.89 2.34269 -2.07574 0
M  V30 3407 C 317.365 3.26546 -3.21141 0
M  V30 3408 N 318.856 3.34127 -3.20801 0
M  V30 3409 C 319.591 4.05595 -4.05315 0
M  V30 3410 N 319.087 4.79661 -4.99897 0
M  V30 3411 N 320.88 4.01555 -3.93332 0
M  V30 3412 H 313.031 0.637302 -2.02613 0
M  V30 3413 H 315.294 0.343468 -0.883591 0
M  V30 3414 H 315 1.80744 -3.01703 0
M  V30 3415 H 314.874 3.21364 -1.97496 0
M  V30 3416 H 317.261 2.73603 -1.10568 0
M  V30 3417 H 317.342 1.33429 -2.18244 0
M  V30 3418 H 316.986 2.87931 -4.184 0
M  V30 3419 H 316.916 4.27345 -3.07708 0
M  V30 3420 H 319.407 2.81336 -2.52306 0
M  V30 3421 H 319.72 5.31694 -5.60822 0
M  V30 3422 H 318.065 4.78671 -5.03884 0
M  V30 3423 H 321.256 3.42806 -3.18751 0
M  V30 3424 H 321.429 4.56987 -4.5942 0
M  V30 3425 N 314.835 0.952656 1.25548 0
M  V30 3426 C 316.246 0.647392 1.75116 0
M  V30 3427 C 316.597 -0.837274 1.77438 0
M  V30 3428 O 315.722 -1.65525 1.39393 0
M  V30 3429 C 316.317 1.16845 3.18014 0
M  V30 3430 C 314.876 0.913382 3.6515 0
M  V30 3431 C 314.023 1.31265 2.44264 0
M  V30 3432 H 316.974 1.12968 1.11462 0
M  V30 3433 H 316.995 0.527606 3.76824 0
M  V30 3434 H 316.507 2.24902 3.16292 0
M  V30 3435 H 314.608 -0.152316 3.72289 0
M  V30 3436 H 314.721 1.54845 4.53387 0
M  V30 3437 H 313.085 0.731028 2.43984 0
M  V30 3438 H 313.868 2.40239 2.45234 0
M  V30 3439 N 316.313 -1.40141 0.720998 0
M  V30 3440 C 317.245 -2.29177 0.0324669 0
M  V30 3441 C 318.258 -1.46105 -0.718126 0
M  V30 3442 O 319.447 -1.69335 -0.564608 0
M  V30 3443 C 316.547 -3.24473 -0.978292 0
M  V30 3444 C 315.72 -4.36423 -0.292115 0
M  V30 3445 C 314.779 -5.12122 -1.20901 0
M  V30 3446 O 313.805 -5.64981 -0.691766 0
M  V30 3447 N 315.007 -5.21992 -2.53978 0
M  V30 3448 H 317.772 -2.88909 0.796984 0
M  V30 3449 H 315.333 -1.51569 0.569068 0
M  V30 3450 H 317.325 -3.71987 -1.59398 0
M  V30 3451 H 315.895 -2.65871 -1.64413 0
M  V30 3452 H 315.115 -3.90967 0.503847 0
M  V30 3453 H 316.403 -5.08467 0.183971 0
M  V30 3454 H 315.801 -4.8054 -2.98493 0
M  V30 3455 H 314.358 -5.72995 -3.10677 0
M  V30 3456 N 317.792 -0.46758 -1.50504 0
M  V30 3457 C 319.02 0.0864133 -2.06719 0
M  V30 3458 C 319.435 1.33819 -1.33184 0
M  V30 3459 O 318.792 1.78061 -0.400083 0
M  V30 3460 C 318.843 0.378079 -3.59517 0
M  V30 3461 O 318.564 -0.824044 -4.3028 0
M  V30 3462 C 320.065 0.979426 -4.32345 0
M  V30 3463 H 317.285 -0.00551697 -0.670977 0
M  V30 3464 H 319.829 -0.655354 -1.93715 0
M  V30 3465 H 317.984 1.06977 -3.72337 0
M  V30 3466 H 318.398 -0.566518 -5.21432 0
M  V30 3467 H 319.872 1.1333 -5.40241 0
M  V30 3468 H 320.349 1.9686 -3.9261 0
M  V30 3469 H 320.955 0.326216 -4.24047 0
M  V30 3470 N 319.27 1.56325 -0.20005 0
M  V30 3471 C 320.203 2.15234 0.758267 0
M  V30 3472 C 321.181 1.09046 1.20614 0
M  V30 3473 O 322.365 1.37186 1.29276 0
M  V30 3474 C 319.492 2.71524 2.02466 0
M  V30 3475 C 318.538 3.90345 1.71852 0
M  V30 3476 S 319.371 5.28513 0.862249 0
M  V30 3477 C 320.527 5.88227 2.13868 0
M  V30 3478 H 320.76 2.96183 0.2575 0
M  V30 3479 H 318.293 1.54393 0.0150099 0
M  V30 3480 H 320.251 3.04598 2.75191 0
M  V30 3481 H 318.912 1.90607 2.49655 0
M  V30 3482 H 318.105 4.28158 2.65888 0
M  V30 3483 H 317.707 3.58306 1.07205 0
M  V30 3484 H 319.999 6.02891 3.09076 0
M  V30 3485 H 320.942 6.84714 1.80479 0
M  V30 3486 H 321.35 5.16874 2.2694 0
M  V30 3487 N 320.748 -0.0735177 1.57428 0
M  V30 3488 C 321.695 -1.08756 2.0357 0
M  V30 3489 C 322.665 -1.38559 0.916 0
M  V30 3490 O 323.85 -1.49656 1.18354 0
M  V30 3491 C 320.99 -2.39657 2.48311 0
M  V30 3492 C 320.103 -2.16399 3.73892 0
M  V30 3493 C 319.238 -3.40852 4.07423 0
M  V30 3494 C 318.277 -3.1295 5.2605 0
M  V30 3495 N 317.414 -4.29729 5.55228 0
M  V30 3496 H 322.254 -0.687104 2.8997 0
M  V30 3497 H 319.791 -0.327709 1.43403 0
M  V30 3498 H 321.749 -3.16081 2.72303 0
M  V30 3499 H 320.379 -2.77508 1.64891 0
M  V30 3500 H 319.431 -1.30676 3.57251 0
M  V30 3501 H 320.743 -1.91788 4.60455 0
M  V30 3502 H 319.897 -4.25671 4.32306 0
M  V30 3503 H 318.636 -3.68537 3.19425 0
M  V30 3504 H 317.641 -2.26526 5.00965 0
M  V30 3505 H 318.866 -2.86589 6.15665 0
M  V30 3506 H 316.812 -4.57448 4.70188 0
M  V30 3507 H 316.729 -4.08385 6.36206 0
M  V30 3508 H 317.997 -5.1555 5.84661 0
M  V30 3509 N 322.226 -1.5378 -0.344866 0
M  V30 3510 C 323.642 -1.44015 -0.687888 0
M  V30 3511 C 323.842 -0.595834 -1.92489 0
M  V30 3512 O 322.898 -0.0863064 -2.52352 0
M  V30 3513 C 324.211 -2.87481 -0.881758 0
M  V30 3514 C 325.759 -2.97247 -0.980459 0
M  V30 3515 C 326.234 -4.41819 -1.20665 0
M  V30 3516 N 327.725 -4.45339 -1.27389 0
M  V30 3517 C 328.46 -5.54333 -1.46639 0
M  V30 3518 N 327.956 -6.73335 -1.63071 0
M  V30 3519 N 329.749 -5.41944 -1.49176 0
M  V30 3520 H 321.9 -2.07169 0.468475 0
M  V30 3521 H 324.163 -0.93643 0.147655 0
M  V30 3522 H 323.869 -3.51672 -0.0443444 0
M  V30 3523 H 323.743 -3.32352 -1.78388 0
M  V30 3524 H 326.13 -2.33197 -1.8084 0
M  V30 3525 H 326.211 -2.5574 -0.0552713 0
M  V30 3526 H 325.855 -5.06449 -0.383652 0
M  V30 3527 H 325.785 -4.80917 -2.14539 0
M  V30 3528 H 328.276 -3.59585 -1.1622 0
M  V30 3529 H 328.589 -7.52165 -1.77391 0
M  V30 3530 H 326.934 -6.76282 -1.60209 0
M  V30 3531 H 330.125 -4.47932 -1.3592 0
M  V30 3532 H 330.298 -6.26946 -1.63837 0
M  V30 3533 N 323.704 0.605807 -1.45491 0
M  V30 3534 C 324.634 1.72709 -1.57143 0
M  V30 3535 C 325.615 1.6476 -0.422884 0
M  V30 3536 O 326.8 1.83132 -0.646247 0
M  V30 3537 C 323.93 3.11316 -1.53948 0
M  V30 3538 C 322.884 3.34077 -2.67537 0
M  V30 3539 C 322.21 4.72975 -2.49397 0
M  V30 3540 C 323.51 3.24158 -4.09535 0
M  V30 3541 H 325.204 1.63214 -2.51001 0
M  V30 3542 H 322.75 0.78379 -1.208 0
M  V30 3543 H 324.703 3.89557 -1.60696 0
M  V30 3544 H 323.427 3.21655 -0.566205 0
M  V30 3545 H 322.086 2.58227 -2.6022 0
M  V30 3546 H 321.734 4.8005 -1.50205 0
M  V30 3547 H 321.434 4.8916 -3.25571 0
M  V30 3548 H 322.958 5.53414 -2.58002 0
M  V30 3549 H 324.372 3.92271 -4.18086 0
M  V30 3550 H 322.769 3.51872 -4.86113 0
M  V30 3551 H 323.839 2.2157 -4.31317 0
M  V30 3552 N 325.182 1.32811 0.848464 0
M  V30 3553 C 326.407 1.26882 1.6406 0
M  V30 3554 C 326.832 -0.15913 1.87426 0
M  V30 3555 O 326.19 -1.11258 1.43148 0
M  V30 3556 C 326.238 2.03997 2.97351 0
M  V30 3557 O 325.342 1.39201 3.88197 0
M  V30 3558 H 324.683 0.436982 0.499943 0
M  V30 3559 H 327.213 1.75224 1.0563 0
M  V30 3560 H 327.223 2.14403 3.47124 0
M  V30 3561 H 325.898 3.0783 2.79666 0
M  V30 3562 H 324.475 1.37381 3.46671 0
M  V30 3563 N 326.66 -1.06551 1.16123 0
M  V30 3564 C 327.89 -1.8274 0.963838 0
M  V30 3565 C 328.298 -1.82712 -0.491228 0
M  V30 3566 O 327.641 -1.24294 -1.35265 0
M  V30 3567 C 327.703 -3.3065 1.41106 0
M  V30 3568 C 327.367 -3.54384 2.88549 0
M  V30 3569 C 328.364 -3.4765 3.86569 0
M  V30 3570 C 326.049 -3.81789 3.26408 0
M  V30 3571 C 328.043 -3.67982 5.2045 0
M  V30 3572 C 325.73 -4.01772 4.60459 0
M  V30 3573 C 326.728 -3.94866 5.57288 0
M  V30 3574 O 326.416 -4.14306 6.88916 0
M  V30 3575 H 326.148 -0.583136 0.341948 0
M  V30 3576 H 328.702 -1.35351 1.54497 0
M  V30 3577 H 326.932 -3.78887 0.773394 0
M  V30 3578 H 328.621 -3.88324 1.1815 0
M  V30 3579 H 329.387 -3.2647 3.58667 0
M  V30 3580 H 325.266 -3.86276 2.51619 0
M  V30 3581 H 328.81 -3.62507 5.96015 0
M  V30 3582 H 324.707 -4.2244 4.88072 0
M  V30 3583 H 325.475 -4.31609 6.95454 0
M  V30 3584 N 328.138 -0.959301 -1.25041 0
M  V30 3585 C 329.549 -0.65667 -1.74771 0
M  V30 3586 C 329.9 0.827852 -1.77879 0
M  V30 3587 O 329.025 1.64783 -1.40269 0
M  V30 3588 C 329.62 -1.1853 -3.1739 0
M  V30 3589 C 328.179 -0.932734 -3.6466 0
M  V30 3590 C 327.326 -1.32558 -2.43564 0
M  V30 3591 H 330.277 -1.13558 -1.10862 0
M  V30 3592 H 330.298 -0.547582 -3.76539 0
M  V30 3593 H 329.81 -2.26576 -3.15095 0
M  V30 3594 H 327.911 0.13257 -3.72364 0
M  V30 3595 H 328.024 -1.57248 -4.52559 0
M  V30 3596 H 326.388 -0.743956 -2.43593 0
M  V30 3597 H 327.171 -2.41537 -2.43957 0
M  V30 3598 N 329.616 1.39756 -0.72842 0
M  V30 3599 C 330.863 2.00645 -0.273487 0
M  V30 3600 C 331.191 1.57786 1.13727 0
M  V30 3601 O 330.446 0.794886 1.7883 0
M  V30 3602 C 330.745 3.56002 -0.315776 0
M  V30 3603 C 330.411 4.18489 -1.67863 0
M  V30 3604 C 329.073 4.3527 -2.05166 0
M  V30 3605 C 331.425 4.53219 -2.57375 0
M  V30 3606 C 328.753 4.84069 -3.31503 0
M  V30 3607 C 331.105 5.03423 -3.83077 0
M  V30 3608 C 329.769 5.18413 -4.20481 0
M  V30 3609 H 329.039 0.734211 -0.100076 0
M  V30 3610 H 331.686 1.6718 -0.933972 0
M  V30 3611 H 329.991 3.89452 0.428285 0
M  V30 3612 H 331.688 4.00963 0.0542575 0
M  V30 3613 H 328.278 4.05824 -1.37858 0
M  V30 3614 H 332.462 4.39878 -2.29827 0
M  V30 3615 H 327.718 4.93859 -3.60435 0
M  V30 3616 H 331.892 5.2927 -4.52599 0
M  V30 3617 H 329.519 5.55987 -5.18443 0
M  V30 3618 N 331.094 0.475555 1.50254 0
M  V30 3619 C 332.319 -0.0777042 2.07254 0
M  V30 3620 C 332.744 -1.3235 1.3366 0
M  V30 3621 O 332.102 -1.77152 0.385597 0
M  V30 3622 C 332.15 -0.340169 3.58992 0
M  V30 3623 O 331.254 -1.41982 3.87188 0
M  V30 3624 H 330.595 0.0149556 0.663832 0
M  V30 3625 H 333.125 0.667878 1.93392 0
M  V30 3626 H 333.135 -0.579332 4.03866 0
M  V30 3627 H 331.81 0.570167 4.11973 0
M  V30 3628 H 330.387 -1.16762 3.54148 0
M  V30 3629 N 332.573 -1.56217 0.208337 0
M  V30 3630 C 333.989 -1.58919 -0.14729 0
M  V30 3631 C 334.189 -1.22486 -1.59998 0
M  V30 3632 O 333.245 -0.953849 -2.3379 0
M  V30 3633 C 334.558 -3.00236 0.167048 0
M  V30 3634 C 336.106 -3.12813 0.108219 0
M  V30 3635 C 336.581 -4.56284 0.396049 0
M  V30 3636 N 338.072 -4.61912 0.345142 0
M  V30 3637 C 338.807 -5.70837 0.541523 0
M  V30 3638 N 338.303 -6.88178 0.798968 0
M  V30 3639 N 340.096 -5.60091 0.474867 0
M  V30 3640 H 332.247 -1.78177 1.15614 0
M  V30 3641 H 334.51 -0.827555 0.462446 0
M  V30 3642 H 334.216 -3.31499 1.1748 0
M  V30 3643 H 334.09 -3.7354 -0.524184 0
M  V30 3644 H 336.477 -2.81354 -0.890157 0
M  V30 3645 H 336.558 -2.41866 0.832729 0
M  V30 3646 H 336.202 -4.88458 1.3918 0
M  V30 3647 H 336.132 -5.25439 -0.349502 0
M  V30 3648 H 338.623 -3.77589 0.153316 0
M  V30 3649 H 338.936 -7.67095 0.93727 0
M  V30 3650 H 337.281 -6.89953 0.836013 0
M  V30 3651 H 340.472 -4.67297 0.274064 0
M  V30 3652 H 340.645 -6.44917 0.631326 0
M  V30 3653 N 334.051 0.0651679 -1.57465 0
M  V30 3654 C 334.961 1.09448 -2.07505 0
M  V30 3655 C 335.977 1.41974 -1.00595 0
M  V30 3656 O 337.153 1.52018 -1.32107 0
M  V30 3657 C 334.218 2.38689 -2.51453 0
M  V30 3658 C 333.279 2.13073 -3.72691 0
M  V30 3659 C 332.512 3.36152 -4.14533 0
M  V30 3660 O 332.735 4.45517 -3.56189 0
M  V30 3661 O 331.669 3.23974 -5.07272 0
M  V30 3662 H 335.495 0.69935 -2.95538 0
M  V30 3663 H 333.08 0.279752 -1.46757 0
M  V30 3664 H 334.962 3.14736 -2.80212 0
M  V30 3665 H 333.637 2.77568 -1.66546 0
M  V30 3666 H 332.544 1.34709 -3.49005 0
M  V30 3667 H 333.877 1.79071 -4.5847 0
M  V30 3668 N 335.529 1.53961 0.336706 0
M  V30 3669 C 336.476 1.82428 1.41381 0
M  V30 3670 C 337.446 0.670444 1.51968 0
M  V30 3671 O 338.631 0.915565 1.67398 0
M  V30 3672 C 335.771 2.04564 2.77934 0
M  V30 3673 C 334.884 3.32267 2.76084 0
M  V30 3674 C 334.019 3.44434 4.04399 0
M  V30 3675 C 333.058 4.66061 3.96804 0
M  V30 3676 N 332.195 4.75224 5.16823 0
M  V30 3677 H 337.035 2.74324 1.16405 0
M  V30 3678 H 334.572 1.35869 0.563752 0
M  V30 3679 H 336.53 2.15388 3.57301 0
M  V30 3680 H 335.16 1.15974 3.01247 0
M  V30 3681 H 334.212 3.3025 1.88784 0
M  V30 3682 H 335.524 4.21733 2.66351 0
M  V30 3683 H 334.678 3.54728 4.92192 0
M  V30 3684 H 333.417 2.53037 4.16921 0
M  V30 3685 H 332.422 4.55838 3.07396 0
M  V30 3686 H 333.647 5.58829 3.85858 0
M  V30 3687 H 331.593 3.86739 5.29876 0
M  V30 3688 H 331.51 5.58636 5.09374 0
M  V30 3689 H 332.778 4.89835 6.06367 0
M  V30 3690 N 337.007 -0.598083 1.45811 0
M  V30 3691 C 337.939 -1.72231 1.51225 0
M  V30 3692 C 338.952 -1.57757 0.402059 0
M  V30 3693 O 340.141 -1.65464 0.669624 0
M  V30 3694 C 337.241 -3.10331 1.3619 0
M  V30 3695 C 336.414 -3.50955 2.61054 0
M  V30 3696 C 335.473 -4.68055 2.40439 0
M  V30 3697 O 334.499 -4.74691 3.14097 0
M  V30 3698 N 335.701 -5.61941 1.45612 0
M  V30 3699 H 338.466 -1.68046 2.48154 0
M  V30 3700 H 336.027 -0.783637 1.41671 0
M  V30 3701 H 338.019 -3.86439 1.20195 0
M  V30 3702 H 336.589 -3.0897 0.475015 0
M  V30 3703 H 335.809 -2.64711 2.92099 0
M  V30 3704 H 337.097 -3.74858 3.44034 0
M  V30 3705 H 336.495 -5.59301 0.848431 0
M  V30 3706 H 335.052 -6.37542 1.35585 0
M  V30 3707 N 338.485 -1.33259 -0.841409 0
M  V30 3708 C 339.435 -1.19872 -1.93945 0
M  V30 3709 C 340.419 -0.102269 -1.60575 0
M  V30 3710 O 341.611 -0.330114 -1.73894 0
M  V30 3711 C 338.74 -0.937517 -3.30251 0
M  V30 3712 C 337.826 -2.07629 -3.69799 0
M  V30 3713 N 338.217 -3.32604 -3.81062 0
M  V30 3714 C 336.515 -1.98242 -3.9952 0
M  V30 3715 C 337.216 -4.07275 -4.15333 0
M  V30 3716 N 336.192 -3.35691 -4.27566 0
M  V30 3717 H 339.994 -2.14604 -2.00805 0
M  V30 3718 H 337.508 -1.2523 -1.03398 0
M  V30 3719 H 339.505 -0.822545 -4.08705 0
M  V30 3720 H 338.165 0.00128798 -3.247 0
M  V30 3721 H 339.176 -3.67382 -3.65035 0
M  V30 3722 H 335.853 -1.12005 -4.02195 0
M  V30 3723 H 337.243 -5.1511 -4.31406 0
M  V30 3724 N 339.963 1.05934 -1.16686 0
M  V30 3725 C 340.893 2.1546 -0.899949 0
M  V30 3726 C 341.874 1.69391 0.155154 0
M  V30 3727 O 343.059 1.94199 0.00648693 0
M  V30 3728 C 340.189 3.44939 -0.404241 0
M  V30 3729 C 339.143 4.04536 -1.39767 0
M  V30 3730 C 338.469 5.29268 -0.760216 0
M  V30 3731 C 339.769 4.42893 -2.76845 0
M  V30 3732 H 341.463 2.38046 -1.81588 0
M  V30 3733 H 339.009 1.14404 -0.874514 0
M  V30 3734 H 340.962 4.20901 -0.204971 0
M  V30 3735 H 339.686 3.21983 0.547206 0
M  V30 3736 H 338.345 3.30635 -1.58355 0
M  V30 3737 H 337.993 5.02611 0.197831 0
M  V30 3738 H 337.693 5.70101 -1.42332 0
M  V30 3739 H 339.217 6.07924 -0.57105 0
M  V30 3740 H 340.631 5.09921 -2.62019 0
M  V30 3741 H 339.028 4.94721 -3.39663 0
M  V30 3742 H 340.098 3.53584 -3.31823 0
M  V30 3743 N 341.441 0.965919 1.2453 0
M  V30 3744 C 342.688 0.626831 1.92554 0
M  V30 3745 C 343.016 -0.837739 1.75534 0
M  V30 3746 O 342.271 -1.61793 1.10098 0
M  V30 3747 C 342.57 0.945428 3.44669 0
M  V30 3748 C 342.236 2.39785 3.81856 0
M  V30 3749 C 340.898 2.79483 3.91718 0
M  V30 3750 C 343.25 3.34055 4.00071 0
M  V30 3751 C 340.578 4.12496 4.1721 0
M  V30 3752 C 342.93 4.66694 4.27059 0
M  V30 3753 C 341.594 5.06172 4.3514 0
M  V30 3754 H 340.864 0.229374 0.704605 0
M  V30 3755 H 343.511 1.21707 1.4785 0
M  V30 3756 H 341.816 0.272926 3.90848 0
M  V30 3757 H 343.513 0.661484 3.95507 0
M  V30 3758 H 340.103 2.08003 3.74743 0
M  V30 3759 H 344.287 3.04571 3.91855 0
M  V30 3760 H 339.543 4.42709 4.21685 0
M  V30 3761 H 343.717 5.3971 4.40097 0
M  V30 3762 H 341.344 6.09262 4.54646 0
M  V30 3763 N 342.919 -1.39368 0.735821 0
M  V30 3764 C 344.196 -1.94465 0.210395 0
M  V30 3765 C 344.576 -1.67254 -1.28799 0
M  V30 3766 O 343.924 -1.00123 -2.05396 0
M  V30 3767 C 344.134 -3.4472 0.544897 0
M  V30 3768 C 345.482 -4.21708 0.494689 0
M  V30 3769 O 346.506 -3.52922 0.482136 0
M  V30 3770 O 345.365 -5.44299 0.489947 0
M  V30 3771 H 342.459 -0.826096 0.0386666 0
M  V30 3772 H 345.005 -1.48863 0.814735 0
M  V30 3773 H 343.777 -3.57963 1.58045 0
M  V30 3774 H 343.4 -3.97502 -0.08837 0
M  V30 3775 N 344.397 -0.483516 -1.5 0
M  V30 3776 C 345.327 0.293829 -2.31644 0
M  V30 3777 C 346.308 0.978864 -1.39112 0
M  V30 3778 O 347.493 0.973644 -1.68029 0
M  V30 3779 C 344.623 1.36897 -3.19181 0
M  V30 3780 C 343.577 0.804833 -4.20365 0
M  V30 3781 C 342.903 1.9792 -4.96721 0
M  V30 3782 C 344.203 -0.192313 -5.21946 0
M  V30 3783 H 345.897 -0.387616 -2.9688 0
M  V30 3784 H 343.443 -0.187856 -1.42769 0
M  V30 3785 H 345.396 1.92037 -3.751 0
M  V30 3786 H 344.12 2.07936 -2.51853 0
M  V30 3787 H 342.779 0.275319 -3.65565 0
M  V30 3788 H 342.427 2.67686 -4.25856 0
M  V30 3789 H 342.127 1.60789 -5.65173 0
M  V30 3790 H 343.651 2.53526 -5.55479 0
M  V30 3791 H 345.065 0.270333 -5.72662 0
M  V30 3792 H 343.462 -0.478543 -5.98189 0
M  V30 3793 H 344.532 -1.11409 -4.71928 0
M  V30 3794 N 345.875 1.56104 -0.216619 0
M  V30 3795 C 347.1 2.0301 0.424462 0
M  V30 3796 C 347.525 1.0955 1.52907 0
M  V30 3797 O 346.883 0.0827914 1.81111 0
M  V30 3798 C 346.931 3.4819 0.937883 0
M  V30 3799 O 346.035 3.57865 2.04955 0
M  V30 3800 H 345.376 0.656925 0.0966755 0
M  V30 3801 H 347.906 2.01859 -0.33381 0
M  V30 3802 H 347.916 3.88413 1.24897 0
M  V30 3803 H 346.591 4.15699 0.129387 0
M  V30 3804 H 345.168 3.29527 1.74546 0
M  V30 3805 N 347.353 -0.0568162 1.57498 0
M  V30 3806 C 348.63 -0.786954 1.79071 0
M  V30 3807 C 349.01 -1.95028 0.80792 0
M  V30 3808 O 348.358 -2.27968 -0.155858 0
M  V30 3809 C 348.568 -1.24594 3.26002 0
M  V30 3810 C 349.916 -1.67323 3.90241 0
M  V30 3811 O 350.94 -1.34124 3.29984 0
M  V30 3812 O 349.799 -2.28842 4.9628 0
M  V30 3813 H 346.893 -0.378262 0.735423 0
M  V30 3814 H 349.439 -0.035734 1.69662 0
M  V30 3815 H 348.211 -0.41423 3.89101 0
M  V30 3816 H 347.834 -2.05803 3.40192 0
M  V30 3817 N 348.832 -1.54138 -0.328536 0
M  V30 3818 C 349.779 -1.83176 -1.40411 0
M  V30 3819 C 350.749 -0.678494 -1.5161 0
M  V30 3820 O 351.934 -0.92443 -1.6691 0
M  V30 3821 C 349.074 -2.06035 -2.76846 0
M  V30 3822 C 348.187 -3.33727 -2.74318 0
M  V30 3823 C 347.322 -3.46574 -4.02567 0
M  V30 3824 C 346.361 -4.68159 -3.94327 0
M  V30 3825 N 345.498 -4.77959 -5.14296 0
M  V30 3826 H 350.338 -2.74938 -1.14948 0
M  V30 3827 H 347.875 -1.36166 -0.556538 0
M  V30 3828 H 349.833 -2.1728 -3.56153 0
M  V30 3829 H 348.463 -1.1757 -3.00628 0
M  V30 3830 H 347.515 -3.31246 -1.8703 0
M  V30 3831 H 348.827 -4.23139 -2.64111 0
M  V30 3832 H 347.981 -3.57333 -4.90304 0
M  V30 3833 H 346.72 -2.55245 -4.15574 0
M  V30 3834 H 345.725 -4.57461 -3.04974 0
M  V30 3835 H 346.95 -5.60868 -3.82889 0
M  V30 3836 H 344.896 -3.89544 -5.27818 0
M  V30 3837 H 344.813 -5.6133 -5.06404 0
M  V30 3838 H 346.081 -4.93044 -6.03761 0
M  V30 3839 N 350.31 0.590341 -1.46126 0
M  V30 3840 C 351.587 1.35029 -1.41515 0
M  V30 3841 C 351.967 2.10888 -0.0946472 0
M  V30 3842 O 351.315 2.08998 0.923693 0
M  V30 3843 C 351.525 2.28269 -2.63997 0
M  V30 3844 C 352.873 2.90338 -3.09821 0
M  V30 3845 O 353.897 2.38585 -2.64492 0
M  V30 3846 O 352.756 3.84321 -3.88535 0
M  V30 3847 H 349.85 0.606317 -0.562413 0
M  V30 3848 H 352.396 0.611994 -1.58281 0
M  V30 3849 H 351.168 1.71591 -3.51671 0
M  V30 3850 H 350.791 3.0945 -2.49652 0
M  V30 3851 N 351.788 1.33704 0.83433 0
M  V30 3852 C 353.013 1.28615 1.62705 0
M  V30 3853 C 353.438 -0.139242 1.87584 0
M  V30 3854 O 352.796 -1.09734 1.4432 0
M  V30 3855 C 352.844 2.07139 2.95171 0
M  V30 3856 O 351.948 1.4331 3.86699 0
M  V30 3857 H 351.289 0.44226 0.49528 0
M  V30 3858 H 353.819 1.76335 1.03766 0
M  V30 3859 H 353.829 2.18073 3.44831 0
M  V30 3860 H 352.504 3.10779 2.76386 0
M  V30 3861 H 351.081 1.4105 3.45195 0
M  V30 3862 N 353.266 -1.05314 1.17247 0
M  V30 3863 C 354.513 -1.78293 0.960091 0
M  V30 3864 C 354.841 -1.87658 -0.51136 0
M  V30 3865 O 354.096 -1.3718 -1.39571 0
M  V30 3866 C 354.395 -3.2229 1.54479 0
M  V30 3867 C 354.061 -3.32987 3.04024 0
M  V30 3868 C 352.723 -3.35613 3.44844 0
M  V30 3869 C 355.075 -3.34102 4.00031 0
M  V30 3870 C 352.403 -3.36982 4.8027 0
M  V30 3871 C 354.755 -3.3701 5.35357 0
M  V30 3872 C 353.419 -3.37923 5.75642 0
M  V30 3873 H 352.689 -0.652422 0.351322 0
M  V30 3874 H 355.336 -1.23782 1.46117 0
M  V30 3875 H 353.641 -3.7972 0.965391 0
M  V30 3876 H 355.338 -3.77376 1.35603 0
M  V30 3877 H 351.928 -3.31655 2.71483 0
M  V30 3878 H 356.112 -3.31276 3.69554 0
M  V30 3879 H 351.368 -3.35999 5.10798 0
M  V30 3880 H 355.542 -3.36822 6.09528 0
M  V30 3881 H 353.169 -3.38738 6.80559 0
M  V30 3882 N 354.744 -0.972509 -1.24016 0
M  V30 3883 C 355.991 -0.637034 -1.92219 0
M  V30 3884 C 356.319 0.828418 -1.75976 0
M  V30 3885 O 355.574 1.61206 -1.10955 0
M  V30 3886 C 355.873 -0.963694 -3.44162 0
M  V30 3887 C 355.539 -2.41807 -3.80579 0
M  V30 3888 C 354.201 -2.81556 -3.9023 0
M  V30 3889 C 356.553 -3.36172 -3.98293 0
M  V30 3890 C 353.881 -4.14702 -4.15017 0
M  V30 3891 C 356.233 -4.68952 -4.24578 0
M  V30 3892 C 354.897 -5.08472 -4.32449 0
M  V30 3893 H 354.167 -0.233107 -0.703379 0
M  V30 3894 H 356.814 -1.2249 -1.47202 0
M  V30 3895 H 355.119 -0.29365 -3.90698 0
M  V30 3896 H 356.816 -0.682449 -3.9515 0
M  V30 3897 H 353.406 -2.09988 -3.73635 0
M  V30 3898 H 357.59 -3.06644 -3.90234 0
M  V30 3899 H 352.846 -4.4494 -4.19331 0
M  V30 3900 H 357.02 -5.42037 -4.37229 0
M  V30 3901 H 354.647 -6.11665 -4.51409 0
M  V30 3902 N 356.222 1.38976 -0.743202 0
M  V30 3903 C 357.499 1.94351 -0.220705 0
M  V30 3904 C 357.879 1.67935 1.2791 0
M  V30 3905 O 357.227 1.01211 2.04862 0
M  V30 3906 C 357.437 3.44426 -0.563171 0
M  V30 3907 C 358.785 4.2144 -0.517046 0
M  V30 3908 O 359.809 3.52661 -0.500846 0
M  V30 3909 O 358.668 5.44032 -0.518806 0
M  V30 3910 H 355.762 0.825879 -0.043047 0
M  V30 3911 H 358.308 1.48429 -0.822618 0
M  V30 3912 H 357.08 3.5712 -1.59941 0
M  V30 3913 H 356.703 3.97543 0.0672883 0
M  V30 3914 N 357.7 0.491464 1.49741 0
M  V30 3915 C 358.925 -0.0557177 2.07325 0
M  V30 3916 C 359.35 -1.30925 1.35056 0
M  V30 3917 O 358.708 -1.76733 0.404365 0
M  V30 3918 C 358.756 -0.302074 3.59333 0
M  V30 3919 O 357.86 -1.37868 3.88672 0
M  V30 3920 H 357.201 0.0219956 0.663636 0
M  V30 3921 H 359.731 0.688352 1.92673 0
M  V30 3922 H 359.741 -0.536464 4.04458 0
M  V30 3923 H 358.416 0.61383 4.11345 0
M  V30 3924 H 356.993 -1.12999 3.55367 0
M  V30 3925 N 359.178 -1.55987 0.224894 0
M  V30 3926 C 360.125 -2.20436 -0.68385 0
M  V30 3927 C 361.095 -1.16102 -1.18783 0
M  V30 3928 O 362.28 -1.4447 -1.24632 0
M  V30 3929 C 359.42 -2.89076 -1.88491 0
M  V30 3930 C 358.533 -4.08012 -1.41951 0
M  V30 3931 C 357.668 -4.64426 -2.5784 0
M  V30 3932 C 356.707 -5.75656 -2.08053 0
M  V30 3933 N 355.844 -6.26347 -3.17227 0
M  V30 3934 H 360.684 -2.97727 -0.12754 0
M  V30 3935 H 358.221 -1.47011 -0.0511978 0
M  V30 3936 H 360.179 -3.27059 -2.59014 0
M  V30 3937 H 358.809 -2.14298 -2.41405 0
M  V30 3938 H 357.861 -3.75492 -0.609095 0
M  V30 3939 H 359.173 -4.88375 -1.01447 0
M  V30 3940 H 358.327 -5.04869 -3.3644 0
M  V30 3941 H 357.066 -3.83233 -3.01635 0
M  V30 3942 H 356.071 -5.34712 -1.27916 0
M  V30 3943 H 357.296 -6.58686 -1.65255 0
M  V30 3944 H 355.242 -5.48067 -3.60497 0
M  V30 3945 H 355.159 -7.01843 -2.80986 0
M  V30 3946 H 356.427 -6.71447 -3.95953 0
M  V30 3947 N 360.656 0.0484629 -1.57525 0
M  V30 3948 C 361.884 0.755421 -1.92616 0
M  V30 3949 C 362.299 1.69919 -0.822984 0
M  V30 3950 O 361.656 1.81378 0.202085 0
M  V30 3951 C 361.707 1.52915 -3.27566 0
M  V30 3952 O 361.428 0.62329 -4.33644 0
M  V30 3953 C 362.929 2.33502 -3.76818 0
M  V30 3954 H 360.149 0.213465 -0.63614 0
M  V30 3955 H 362.693 0.0117698 -2.04497 0
M  V30 3956 H 360.848 2.22486 -3.17142 0
M  V30 3957 H 361.262 1.16383 -5.11425 0
M  V30 3958 H 362.736 2.83214 -4.73808 0
M  V30 3959 H 363.213 3.14068 -3.07014 0
M  V30 3960 H 363.819 1.69043 -3.90262 0
M  V30 3961 N 362.134 1.5431 0.320358 0
M  V30 3962 C 363.55 1.45091 0.664889 0
M  V30 3963 C 363.75 0.626382 1.91517 0
M  V30 3964 O 362.806 0.126443 2.52183 0
M  V30 3965 C 364.119 2.88848 0.83591 0
M  V30 3966 C 365.667 2.9877 0.933046 0
M  V30 3967 C 366.142 4.43683 1.13621 0
M  V30 3968 N 367.633 4.47309 1.20287 0
M  V30 3969 C 368.368 5.56595 1.37801 0
M  V30 3970 N 367.864 6.75844 1.52338 0
M  V30 3971 N 369.657 5.44248 1.40535 0
M  V30 3972 H 361.808 2.06398 -0.501374 0
M  V30 3973 H 364.071 0.933963 -0.162534 0
M  V30 3974 H 363.777 3.51698 -0.0116092 0
M  V30 3975 H 363.651 3.35148 1.73078 0
M  V30 3976 H 366.038 2.36045 1.77107 0
M  V30 3977 H 366.119 2.55796 0.0145782 0
M  V30 3978 H 365.763 5.06995 0.303032 0
M  V30 3979 H 365.693 4.84269 2.0686 0
M  V30 3980 H 368.184 3.61388 1.10485 0
M  V30 3981 H 368.497 7.54892 1.65403 0
M  V30 3982 H 366.842 6.78746 1.4943 0
M  V30 3983 H 370.033 4.50038 1.28777 0
M  V30 3984 H 370.206 6.29473 1.53842 0
M  V30 3985 N 363.613 -0.582584 1.46437 0
M  V30 3986 C 364.838 -1.37168 1.55563 0
M  V30 3987 C 365.263 -1.87061 0.19743 0
M  V30 3988 O 364.621 -1.61572 -0.822451 0
M  V30 3989 C 364.669 -2.53511 2.56446 0
M  V30 3990 O 363.773 -3.54953 2.09958 0
M  V30 3991 H 363.114 -0.408494 0.523477 0
M  V30 3992 H 365.644 -0.706646 1.9201 0
M  V30 3993 H 365.654 -3.00426 2.76058 0
M  V30 3994 H 364.329 -2.16549 3.55076 0
M  V30 3995 H 362.906 -3.14516 2.00334 0
M  V30 3996 N 365.091 -1.34144 -0.827227 0
M  V30 3997 C 366.319 -1.29325 -1.61501 0
M  V30 3998 C 366.734 0.13354 -1.88327 0
M  V30 3999 O 366.091 1.0793 -1.47164 0
M  V30 4000 C 366.142 -2.07746 -2.95844 0
M  V30 4001 O 365.863 -3.4486 -2.70191 0
M  V30 4002 C 367.364 -2.10273 -3.90256 0
M  V30 4003 H 364.584 -0.445069 -0.50215 0
M  V30 4004 H 367.128 -1.76693 -1.02955 0
M  V30 4005 H 365.283 -1.6403 -3.5096 0
M  V30 4006 H 365.697 -3.85345 -3.55822 0
M  V30 4007 H 367.171 -2.69575 -4.81698 0
M  V30 4008 H 367.648 -1.096 -4.25305 0
M  V30 4009 H 368.254 -2.54059 -3.41078 0
M  V30 4010 N 366.569 1.04691 -1.17803 0
M  V30 4011 C 367.818 1.77176 -0.963931 0
M  V30 4012 C 368.131 1.88888 0.508015 0
M  V30 4013 O 369.337 2.58164 0.840465 0
M  V30 4014 C 367.793 3.18518 -1.67555 0
M  V30 4015 C 367.401 3.14919 -3.18637 0
M  V30 4016 C 369.145 3.95424 -1.54402 0
M  V30 4017 C 367.052 4.51081 -3.82466 0
M  V30 4018 H 365.982 0.664116 -0.357023 0
M  V30 4019 H 368.633 1.17303 -1.4111 0
M  V30 4020 H 367.015 3.78748 -1.15613 0
M  V30 4021 H 368.189 2.64178 -3.77554 0
M  V30 4022 H 366.504 2.51512 -3.31859 0
M  V30 4023 H 369.101 4.96106 -1.99456 0
M  V30 4024 H 369.444 4.13343 -0.495329 0
M  V30 4025 H 369.977 3.41754 -2.0359 0
M  V30 4026 H 366.716 4.38368 -4.87354 0
M  V30 4027 H 366.236 5.01951 -3.28337 0
M  V30 4028 H 367.915 5.2001 -3.84965 0
M  V30 4029 N 368.047 0.979072 1.23499 0
M  V30 4030 C 369.293 0.648178 1.92163 0
M  V30 4031 C 369.626 -0.816049 1.76222 0
M  V30 4032 O 368.901 -1.58849 1.12237 0
M  V30 4033 C 369.184 1.03773 3.44824 0
M  V30 4034 C 369.037 2.55948 3.69879 0
M  V30 4035 C 370.356 0.580653 4.36253 0
M  V30 4036 H 367.475 0.236952 0.69787 0
M  V30 4037 H 370.117 1.22012 1.45647 0
M  V30 4038 H 368.267 0.551058 3.84572 0
M  V30 4039 H 369.939 3.12179 3.3962 0
M  V30 4040 H 368.182 2.98641 3.14636 0
M  V30 4041 H 368.853 2.78255 4.76737 0
M  V30 4042 H 371.329 0.998465 4.03943 0
M  V30 4043 H 370.205 0.881663 5.41773 0
M  V30 4044 H 370.466 -0.519052 4.39042 0
M  V30 4045 N 369.525 -1.3858 0.750561 0
M  V30 4046 C 370.755 -2.04175 0.31564 0
M  V30 4047 C 371.163 -1.56726 -1.05989 0
M  V30 4048 O 370.506 -0.734225 -1.68389 0
M  V30 4049 C 370.568 -3.58585 0.256389 0
M  V30 4050 C 370.232 -4.29077 1.57296 0
M  V30 4051 C 371.229 -4.54656 2.52159 0
M  V30 4052 C 368.914 -4.67324 1.84156 0
M  V30 4053 C 370.908 -5.17512 3.72103 0
M  V30 4054 C 368.595 -5.29905 3.04374 0
M  V30 4055 C 369.593 -5.54933 3.98168 0
M  V30 4056 O 369.281 -6.16212 5.16273 0
M  V30 4057 H 369.013 -0.662742 0.133226 0
M  V30 4058 H 371.567 -1.78313 1.01948 0
M  V30 4059 H 369.797 -3.83406 -0.503677 0
M  V30 4060 H 371.486 -4.05628 -0.148612 0
M  V30 4061 H 372.252 -4.25539 2.32683 0
M  V30 4062 H 368.131 -4.47191 1.11988 0
M  V30 4063 H 371.675 -5.36963 4.45327 0
M  V30 4064 H 367.572 -5.58444 3.23745 0
M  V30 4065 H 368.34 -6.34701 5.16815 0
M  V30 4066 N 371.003 -0.499398 -1.49478 0
M  V30 4067 C 371.913 0.284489 -2.32869 0
M  V30 4068 C 372.929 0.968885 -1.44529 0
M  V30 4069 O 374.105 0.95062 -1.77553 0
M  V30 4070 C 371.17 1.33594 -3.19928 0
M  V30 4071 C 370.231 0.665149 -4.24116 0
M  V30 4072 C 369.464 1.6665 -5.07014 0
M  V30 4073 O 369.687 2.89618 -4.91404 0
M  V30 4074 O 368.621 1.22271 -5.8935 0
M  V30 4075 H 372.447 -0.39802 -3.01081 0
M  V30 4076 H 370.032 -0.260758 -1.47107 0
M  V30 4077 H 371.914 1.94431 -3.73864 0
M  V30 4078 H 370.589 2.0014 -2.54412 0
M  V30 4079 H 369.496 0.0170769 -3.74096 0
M  V30 4080 H 370.829 0.0421555 -4.92182 0
M  V30 4081 N 372.481 1.55866 -0.233164 0
M  V30 4082 C 373.73 1.97779 0.39579 0
M  V30 4083 C 374.043 1.12419 1.60066 0
M  V30 4084 O 375.249 1.44283 2.29988 0
M  V30 4085 C 373.705 3.5188 0.755556 0
M  V30 4086 C 373.313 4.45959 -0.427152 0
M  V30 4087 C 375.057 4.02479 1.34946 0
M  V30 4088 C 372.964 5.91383 -0.0443043 0
M  V30 4089 H 371.894 0.738592 0.15165 0
M  V30 4090 H 374.545 1.80486 -0.331212 0
M  V30 4091 H 372.927 3.64816 1.5403 0
M  V30 4092 H 374.101 4.44776 -1.20462 0
M  V30 4093 H 372.416 4.05765 -0.935068 0
M  V30 4094 H 375.013 5.08637 1.649 0
M  V30 4095 H 375.356 3.49014 2.26925 0
M  V30 4096 H 375.889 3.92813 0.62791 0
M  V30 4097 H 372.628 6.48857 -0.930874 0
M  V30 4098 H 372.148 5.95734 0.697238 0
M  V30 4099 H 373.827 6.45893 0.378334 0
M  V30 4100 N 373.959 -0.0401083 1.57549 0
M  V30 4101 C 374.889 -1.04384 2.08869 0
M  V30 4102 C 375.87 -1.38407 0.988817 0
M  V30 4103 O 377.055 -1.47483 1.26342 0
M  V30 4104 C 374.185 -2.34808 2.55895 0
M  V30 4105 C 373.139 -2.15057 3.70047 0
M  V30 4106 C 372.465 -3.51145 4.03239 0
M  V30 4107 C 373.765 -1.54576 4.98902 0
M  V30 4108 H 375.459 -0.616666 2.92981 0
M  V30 4109 H 373.005 -0.295184 1.40942 0
M  V30 4110 H 374.958 -3.05346 2.90417 0
M  V30 4111 H 373.682 -2.79565 1.68853 0
M  V30 4112 H 372.341 -1.46954 3.35857 0
M  V30 4113 H 371.989 -3.93529 3.13279 0
M  V30 4114 H 371.689 -3.38758 4.80122 0
M  V30 4115 H 373.213 -4.23062 4.40285 0
M  V30 4116 H 374.627 -2.15017 5.31451 0
M  V30 4117 H 373.024 -1.52796 5.80322 0
M  V30 4118 H 374.094 -0.51039 4.82206 0
M  V30 4119 N 375.437 -1.54477 -0.31217 0
M  V30 4120 C 376.384 -1.84655 -1.38461 0
M  V30 4121 C 377.354 -0.694536 -1.50882 0
M  V30 4122 O 378.539 -0.942081 -1.6592 0
M  V30 4123 C 375.679 -2.0896 -2.74645 0
M  V30 4124 C 374.792 -3.36618 -2.70763 0
M  V30 4125 C 373.927 -3.50824 -3.98868 0
M  V30 4126 C 372.966 -4.72315 -3.89339 0
M  V30 4127 N 372.103 -4.83387 -5.09197 0
M  V30 4128 H 376.943 -2.76142 -1.12026 0
M  V30 4129 H 374.48 -1.36748 -0.542065 0
M  V30 4130 H 376.438 -2.21045 -3.53829 0
M  V30 4131 H 375.068 -1.20752 -2.99364 0
M  V30 4132 H 374.12 -3.33211 -1.83506 0
M  V30 4133 H 375.432 -4.25917 -2.59608 0
M  V30 4134 H 374.586 -3.62513 -4.86486 0
M  V30 4135 H 373.325 -2.59638 -4.12843 0
M  V30 4136 H 372.33 -4.6067 -3.00105 0
M  V30 4137 H 373.555 -5.64897 -3.76919 0
M  V30 4138 H 371.501 -3.9512 -5.23657 0
M  V30 4139 H 371.418 -5.66669 -5.00422 0
M  V30 4140 H 372.686 -4.9942 -5.98498 0
M  V30 4141 N 376.915 0.57481 -1.46744 0
M  V30 4142 C 378.331 0.898981 -1.31873 0
M  V30 4143 C 378.531 1.99313 -0.29605 0
M  V30 4144 O 377.587 2.50728 0.298621 0
M  V30 4145 C 378.9 1.30886 -2.7072 0
M  V30 4146 C 380.448 1.42127 -2.78871 0
M  V30 4147 C 380.923 1.86478 -4.18318 0
M  V30 4148 N 382.414 1.93658 -4.20774 0
M  V30 4149 C 383.149 2.29267 -5.2557 0
M  V30 4150 N 382.645 2.63612 -6.40688 0
M  V30 4151 N 384.438 2.29889 -5.1294 0
M  V30 4152 H 376.589 -0.147839 -2.11885 0
M  V30 4153 H 378.852 -0.00347013 -0.947994 0
M  V30 4154 H 378.558 0.578853 -3.46904 0
M  V30 4155 H 378.432 2.26874 -3.01343 0
M  V30 4156 H 380.819 2.14213 -2.0297 0
M  V30 4157 H 380.9 0.443705 -2.51922 0
M  V30 4158 H 380.544 1.14968 -4.94717 0
M  V30 4159 H 380.474 2.85207 -4.42679 0
M  V30 4160 H 382.965 1.69574 -3.37718 0
M  V30 4161 H 383.278 2.89759 -7.16421 0
M  V30 4162 H 381.623 2.61232 -6.44036 0
M  V30 4163 H 384.814 2.02485 -4.22039 0
M  V30 4164 H 384.987 2.57312 -5.94722 0
M  V30 4165 N 378.394 1.34581 0.820102 0
M  V30 4166 C 379.622 1.3018 1.60813 0
M  V30 4167 C 380.037 -0.123551 1.88395 0
M  V30 4168 O 379.394 -1.07148 1.47735 0
M  V30 4169 C 379.445 2.09312 2.94739 0
M  V30 4170 O 379.166 3.46288 2.68358 0
M  V30 4171 C 380.667 2.1234 3.89136 0
M  V30 4172 H 377.887 0.447726 0.499782 0
M  V30 4173 H 380.431 1.77237 1.02017 0
M  V30 4174 H 378.586 1.65889 3.50085 0
M  V30 4175 H 379 3.87227 3.53774 0
M  V30 4176 H 380.474 2.72126 4.80262 0
M  V30 4177 H 380.951 1.11854 4.24718 0
M  V30 4178 H 381.557 2.55864 3.39726 0
M  V30 4179 N 379.872 -1.04064 1.18357 0
M  V30 4180 C 381.1 -1.80916 1.00384 0
M  V30 4181 C 381.515 -1.83414 -0.447738 0
M  V30 4182 O 380.872 -1.26962 -1.31099 0
M  V30 4183 C 380.923 -3.26516 1.55144 0
M  V30 4184 O 380.644 -3.2424 2.94618 0
M  V30 4185 C 382.145 -4.20013 1.41789 0
M  V30 4186 H 379.365 -0.569728 0.354474 0
M  V30 4187 H 381.909 -1.31151 1.56906 0
M  V30 4188 H 380.064 -3.73512 1.02798 0
M  V30 4189 H 380.478 -4.15452 3.20156 0
M  V30 4190 H 381.952 -5.20111 1.84901 0
M  V30 4191 H 382.429 -4.37667 0.36661 0
M  V30 4192 H 383.035 -3.78881 1.93207 0
M  V30 4193 N 381.35 -0.985608 -1.22978 0
M  V30 4194 C 382.59 -0.665487 -1.93263 0
M  V30 4195 C 382.954 0.78706 -1.75127 0
M  V30 4196 O 384.155 1.21826 -2.39608 0
M  V30 4197 C 382.426 -1.0515 -3.41582 0
M  V30 4198 S 383.985 -0.848637 -4.30516 0
M  V30 4199 H 380.803 -0.24355 -0.667985 0
M  V30 4200 H 383.405 -1.26635 -1.48942 0
M  V30 4201 H 382.109 -2.10517 -3.52293 0
M  V30 4202 H 381.64 -0.442134 -3.90908 0
M  V30 4203 H 383.655 0.264717 -4.95493 0
M  V30 4204 N 382.828 1.3818 -0.7579 0
M  V30 4205 C 384.056 2.04301 -0.326937 0
M  V30 4206 C 384.471 1.57163 1.0462 0
M  V30 4207 O 383.828 0.746626 1.66529 0
M  V30 4208 C 383.879 3.59846 -0.345363 0
M  V30 4209 O 383.6 4.05256 -1.66432 0
M  V30 4210 C 385.101 4.4319 0.098927 0
M  V30 4211 H 382.321 0.656443 -0.139012 0
M  V30 4212 H 384.865 1.76786 -1.02796 0
M  V30 4213 H 383.02 3.86182 0.306955 0
M  V30 4214 H 383.434 4.99709 -1.59345 0
M  V30 4215 H 384.908 5.51989 0.0348745 0
M  V30 4216 H 385.385 4.23947 1.14741 0
M  V30 4217 H 385.991 4.22051 -0.52468 0
M  V30 4218 N 384.306 0.507319 1.49211 0
M  V30 4219 C 385.253 -0.267728 2.29242 0
M  V30 4220 C 386.223 -0.954609 1.35928 0
M  V30 4221 O 387.408 -0.960046 1.64887 0
M  V30 4222 C 384.548 -1.32243 3.18756 0
M  V30 4223 C 383.661 -0.64669 4.27132 0
M  V30 4224 C 382.796 -1.68238 5.03855 0
M  V30 4225 C 381.835 -0.98885 6.0406 0
M  V30 4226 N 380.972 -1.96903 6.73924 0
M  V30 4227 H 385.812 0.420968 2.95012 0
M  V30 4228 H 383.349 0.219443 1.45454 0
M  V30 4229 H 385.307 -1.94599 3.69036 0
M  V30 4230 H 383.937 -1.97981 2.54958 0
M  V30 4231 H 382.989 0.0902926 3.80293 0
M  V30 4232 H 384.301 -0.101058 4.98698 0
M  V30 4233 H 383.455 -2.38081 5.58034 0
M  V30 4234 H 382.194 -2.26187 4.32077 0
M  V30 4235 H 381.199 -0.276222 5.49106 0
M  V30 4236 H 382.424 -0.415767 6.77826 0
M  V30 4237 H 380.37 -2.53803 6.04913 0
M  V30 4238 H 380.287 -1.47423 7.41487 0
M  V30 4239 H 381.555 -2.66015 7.32705 0
M  V30 4240 N 385.784 -1.5574 0.241426 0
M  V30 4241 C 386.747 -2.19877 -0.647063 0
M  V30 4242 C 387.747 -1.16642 -1.10686 0
M  V30 4243 O 388.937 -1.41757 -1.01245 0
M  V30 4244 C 386.069 -2.83797 -1.88871 0
M  V30 4245 H 387.262 -2.99772 -0.087574 0
M  V30 4246 H 384.815 -1.56298 -0.00813574 0
M  V30 4247 H 385.55 -2.07824 -2.48957 0
M  V30 4248 H 385.335 -3.59414 -1.56728 0
M  V30 4249 H 386.825 -3.32898 -2.52129 0
M  V30 4250 N 387.262 0.0317525 -1.57568 0
M  V30 4251 C 388.209 1.0332 -2.06382 0
M  V30 4252 C 389.179 1.36082 -0.952414 0
M  V30 4253 O 390.364 1.46466 -1.2228 0
M  V30 4254 C 387.504 2.32989 -2.54578 0
M  V30 4255 C 386.617 2.0641 -3.79498 0
M  V30 4256 C 385.752 3.2993 -4.16317 0
M  V30 4257 C 384.791 2.98893 -5.34162 0
M  V30 4258 N 383.928 4.14857 -5.66426 0
M  V30 4259 H 388.768 0.609982 -2.9169 0
M  V30 4260 H 386.305 0.289573 -1.44222 0
M  V30 4261 H 388.263 3.0875 -2.80587 0
M  V30 4262 H 386.893 2.73039 -1.7219 0
M  V30 4263 H 385.945 1.21158 -3.6059 0
M  V30 4264 H 387.257 1.79513 -4.65378 0
M  V30 4265 H 386.411 4.1406 -4.4344 0
M  V30 4266 H 385.15 3.59938 -3.29083 0
M  V30 4267 H 384.155 2.13164 -5.06795 0
M  V30 4268 H 385.38 2.70165 -6.23047 0
M  V30 4269 H 383.326 4.44821 -4.82151 0
M  V30 4270 H 383.243 3.91374 -6.4681 0
M  V30 4271 H 384.511 4.99868 -5.98124 0
M  V30 4272 N 388.74 1.54641 0.303973 0
M  V30 4273 C 389.97 1.77511 1.05705 0
M  V30 4274 C 390.378 0.533228 1.81531 0
M  V30 4275 O 389.721 -0.506423 1.76582 0
M  V30 4276 C 389.783 2.92779 2.08617 0
M  V30 4277 C 389.447 4.30977 1.52013 0
M  V30 4278 C 390.444 5.11115 0.9517 0
M  V30 4279 C 388.129 4.77571 1.55665 0
M  V30 4280 C 390.123 6.35966 0.427327 0
M  V30 4281 C 387.81 6.02384 1.02841 0
M  V30 4282 C 388.808 6.81417 0.464713 0
M  V30 4283 O 388.496 8.03881 -0.0555283 0
M  V30 4284 H 388.228 0.59579 0.319391 0
M  V30 4285 H 390.782 2.02401 0.349712 0
M  V30 4286 H 389.012 2.63506 2.83022 0
M  V30 4287 H 390.701 3.03252 2.69802 0
M  V30 4288 H 391.467 4.76264 0.916407 0
M  V30 4289 H 387.346 4.16085 1.9848 0
M  V30 4290 H 390.89 6.97599 -0.0133062 0
M  V30 4291 H 386.787 6.36723 1.06084 0
M  V30 4292 H 387.555 8.18479 0.0580522 0
M  V30 4293 N 390.218 -0.567019 1.47046 0
M  V30 4294 C 391.443 -1.3551 1.57009 0
M  V30 4295 C 391.868 -1.86841 0.217259 0
M  V30 4296 O 391.226 -1.62435 -0.805268 0
M  V30 4297 C 391.274 -2.50777 2.5912 0
M  V30 4298 O 390.378 -3.52706 2.13711 0
M  V30 4299 H 389.719 -0.402919 0.52778 0
M  V30 4300 H 392.249 -0.686241 1.92748 0
M  V30 4301 H 392.259 -2.97481 2.79229 0
M  V30 4302 H 390.934 -2.12771 3.57353 0
M  V30 4303 H 389.511 -3.12374 2.03659 0
M  V30 4304 N 391.696 -1.35014 -0.812953 0
M  V30 4305 C 392.629 -1.21761 -1.93001 0
M  V30 4306 C 393.607 -0.10694 -1.62248 0
M  V30 4307 O 394.791 -0.273891 -1.865 0
M  V30 4308 C 391.918 -0.873404 -3.27245 0
M  V30 4309 C 390.964 -1.99523 -3.76952 0
M  V30 4310 S 391.797 -3.61009 -3.95516 0
M  V30 4311 C 392.953 -3.28651 -5.32672 0
M  V30 4312 H 393.186 -2.16315 -2.03948 0
M  V30 4313 H 390.719 -1.20156 -0.969631 0
M  V30 4314 H 392.677 -0.68161 -4.04802 0
M  V30 4315 H 391.338 0.053971 -3.14054 0
M  V30 4316 H 390.531 -1.70838 -4.74163 0
M  V30 4317 H 390.133 -2.14503 -3.06373 0
M  V30 4318 H 392.425 -2.81085 -6.1644 0
M  V30 4319 H 393.368 -4.25039 -5.66346 0
M  V30 4320 H 393.776 -2.6458 -4.98656 0
M  V30 4321 N 393.175 1.03435 -1.18907 0
M  V30 4322 C 394.423 1.76394 -0.986382 0
M  V30 4323 C 394.744 1.88883 0.484567 0
M  V30 4324 O 394.014 1.41843 1.3512 0
M  V30 4325 H 392.594 0.65344 -0.361975 0
M  V30 4326 H 395.256 1.248 -1.49703 0
M  V30 4327 H 394.352 2.77424 -1.42978 0
M  V30 4328 N 394.653 0.992116 1.22453 0
M  V30 4329 C 395.902 0.662992 1.90492 0
M  V30 4330 C 396.215 -0.808407 1.78113 0
M  V30 4331 O 397.421 -1.24908 2.41061 0
M  V30 4332 C 395.877 1.1353 3.41524 0
M  V30 4333 C 395.485 2.63187 3.62542 0
M  V30 4334 C 397.229 0.880465 4.15269 0
M  V30 4335 C 395.136 3.04024 5.0727 0
M  V30 4336 H 394.066 0.244278 0.713333 0
M  V30 4337 H 396.717 1.20157 1.38688 0
M  V30 4338 H 395.099 0.52485 3.92506 0
M  V30 4339 H 396.273 3.2957 3.22056 0
M  V30 4340 H 394.588 2.86543 3.02129 0
M  V30 4341 H 397.185 1.16128 5.21937 0
M  V30 4342 H 397.528 -0.183408 4.15896 0
M  V30 4343 H 398.061 1.45307 3.70312 0
M  V30 4344 H 394.8 4.09584 5.11782 0
M  V30 4345 H 394.32 2.42343 5.48662 0
M  V30 4346 H 395.999 2.95282 5.75689 0
M  V30 4347 N 396.131 -1.37776 0.765217 0
M  V30 4348 C 397.359 -2.04124 0.337767 0
M  V30 4349 C 397.774 -1.57715 -1.03785 0
M  V30 4350 O 397.131 -0.755447 -1.6613 0
M  V30 4351 C 397.182 -3.59658 0.364442 0
M  V30 4352 O 396.903 -4.04367 1.68579 0
M  V30 4353 C 398.404 -4.43236 -0.0754221 0
M  V30 4354 H 395.624 -0.655696 0.142491 0
M  V30 4355 H 398.168 -1.76238 1.03732 0
M  V30 4356 H 396.323 -3.86339 -0.286471 0
M  V30 4357 H 396.737 -4.98857 1.61993 0
M  V30 4358 H 398.211 -5.52 -0.00560067 0
M  V30 4359 H 398.688 -4.2455 -1.12491 0
M  V30 4360 H 399.294 -4.21767 0.547055 0
M  V30 4361 N 397.609 -0.515225 -1.4894 0
M  V30 4362 C 398.834 0.022727 -2.07388 0
M  V30 4363 C 399.259 1.2876 -1.37122 0
M  V30 4364 O 398.617 1.76067 -0.432431 0
M  V30 4365 C 398.665 0.244869 -3.59768 0
M  V30 4366 O 397.769 1.31667 -3.90817 0
M  V30 4367 H 397.11 -0.0325506 -0.663202 0
M  V30 4368 H 399.64 -0.718918 -1.91553 0
M  V30 4369 H 399.65 0.47205 -4.0526 0
M  V30 4370 H 398.325 -0.679194 -4.10317 0
M  V30 4371 H 396.902 1.07331 -3.5712 0
M  V30 4372 N 399.087 1.5561 -0.249682 0
M  V30 4373 C 400.017 2.24477 0.642826 0
M  V30 4374 C 400.998 1.22601 1.17911 0
M  V30 4375 O 402.183 1.5126 1.21795 0
M  V30 4376 C 399.313 2.94638 1.83863 0
M  V30 4377 C 398.267 4.03227 1.435 0
M  V30 4378 C 397.593 4.60828 2.71186 0
M  V30 4379 C 398.893 5.18796 0.604002 0
M  V30 4380 H 400.587 2.99321 0.0685625 0
M  V30 4381 H 398.133 1.43965 0.0315363 0
M  V30 4382 H 400.086 3.41517 2.46868 0
M  V30 4383 H 398.81 2.17287 2.43832 0
M  V30 4384 H 397.469 3.57121 0.828275 0
M  V30 4385 H 397.117 3.80174 3.29358 0
M  V30 4386 H 396.817 5.34132 2.44901 0
M  V30 4387 H 398.341 5.10442 3.35084 0
M  V30 4388 H 399.755 5.61883 1.13842 0
M  V30 4389 H 398.152 5.98506 0.437097 0
M  V30 4390 H 399.222 4.83384 -0.383147 0
M  V30 4391 N 400.565 -0.0233959 1.57583 0
M  V30 4392 C 401.495 -1.02162 2.09965 0
M  V30 4393 C 402.476 -1.3735 1.00344 0
M  V30 4394 O 403.661 -1.46135 1.27899 0
M  V30 4395 C 400.791 -2.32081 2.58371 0
M  V30 4396 C 399.745 -2.1112 3.72307 0
M  V30 4397 C 399.071 -3.46848 4.06941 0
M  V30 4398 C 400.371 -1.49276 5.00514 0
M  V30 4399 H 402.065 -0.585557 2.93618 0
M  V30 4400 H 399.611 -0.280218 1.41247 0
M  V30 4401 H 401.564 -3.02249 2.93639 0
M  V30 4402 H 400.288 -2.77758 1.71808 0
M  V30 4403 H 398.947 -1.43384 3.37397 0
M  V30 4404 H 398.595 -3.90184 3.17436 0
M  V30 4405 H 398.295 -3.33646 4.83688 0
M  V30 4406 H 399.819 -4.18369 4.44747 0
M  V30 4407 H 401.233 -2.09368 5.33702 0
M  V30 4408 H 399.63 -1.46632 5.8191 0
M  V30 4409 H 400.7 -0.459217 4.82721 0
M  V30 4410 N 402.043 -1.548 -0.295768 0
M  V30 4411 C 403.006 -1.85363 -1.34808 0
M  V30 4412 C 404.006 -0.726817 -1.43436 0
M  V30 4413 O 405.196 -0.995088 -1.42981 0
M  V30 4414 C 402.328 -2.03859 -2.73229 0
M  V30 4415 H 403.521 -2.7941 -1.08949 0
M  V30 4416 H 401.074 -1.46942 -0.532702 0
M  V30 4417 H 401.809 -1.12117 -3.04303 0
M  V30 4418 H 401.594 -2.8588 -2.68356 0
M  V30 4419 H 403.084 -2.28857 -3.49305 0
M  V30 4420 N 403.521 0.559213 -1.47345 0
M  V30 4421 C 404.469 1.68747 -1.60085 0
M  V30 4422 C 405.463 1.628 -0.46825 0
M  V30 4423 O 406.669 1.68009 -0.645977 0
M  V30 4424 H 403.044 0.558329 -0.503759 0
M  V30 4425 H 405.015 1.55138 -2.54902 0
M  V30 4426 C 403.764 3.07103 -1.63042 0
M  V30 4427 H 403.087 3.12361 -2.49541 0
M  V30 4428 H 404.527 3.85743 -1.76006 0
M  V30 4429 C 402.986 3.34935 -0.363357 0
M  V30 4430 O 403.516 3.98102 0.536416 0
M  V30 4431 N 401.722 2.89574 -0.244 0
M  V30 4432 H 401.269 2.38348 -0.977133 0
M  V30 4433 H 401.227 3.08566 0.602836 0
M  V30 4434 N 404.999 1.35443 0.805782 0
M  V30 4435 C 406.247 1.28507 1.55982 0
M  V30 4436 C 406.568 -0.140046 1.94496 0
M  V30 4437 O 405.838 -1.07666 1.63661 0
M  V30 4438 H 404.418 0.472676 0.578434 0
M  V30 4439 H 407.08 1.69555 0.961098 0
M  V30 4440 H 406.176 1.90148 2.47488 0
M  V30 4441 N 406.477 -1.02803 1.19454 0
M  V30 4442 C 407.723 -1.76478 0.999171 0
M  V30 4443 C 408.056 -1.88456 -0.468828 0
M  V30 4444 O 407.331 -1.40198 -1.34814 0
M  V30 4445 C 407.614 -3.19044 1.66981 0
M  V30 4446 C 407.467 -3.14932 3.21151 0
M  V30 4447 C 408.786 -4.17456 1.39349 0
M  V30 4448 H 405.905 -0.640614 0.364393 0
M  V30 4449 H 408.547 -1.20005 1.47305 0
M  V30 4450 H 406.697 -3.67263 1.2669 0
M  V30 4451 H 408.369 -2.74605 3.70661 0
M  V30 4452 H 406.612 -2.52625 3.52652 0
M  V30 4453 H 407.283 -4.1566 3.63223 0
M  V30 4454 H 409.759 -3.77842 1.74283 0
M  V30 4455 H 408.635 -5.154 1.88823 0
M  V30 4456 H 408.896 -4.40949 0.318813 0
M  V30 4457 N 407.956 -0.998596 -1.21925 0
M  V30 4458 C 409.186 -0.695276 -1.94549 0
M  V30 4459 C 409.594 0.745079 -1.73911 0
M  V30 4460 O 408.937 1.51507 -1.03881 0
M  V30 4461 C 408.999 -0.928485 -3.47303 0
M  V30 4462 C 408.663 -2.35443 -3.91683 0
M  V30 4463 C 409.66 -3.33428 -3.98901 0
M  V30 4464 C 407.345 -2.69038 -4.24174 0
M  V30 4465 C 409.339 -4.63079 -4.37992 0
M  V30 4466 C 407.026 -3.98906 -4.62944 0
M  V30 4467 C 408.024 -4.95738 -4.69822 0
M  V30 4468 O 407.712 -6.23285 -5.07711 0
M  V30 4469 H 407.444 -0.255902 -0.625692 0
M  V30 4470 H 409.998 -1.33767 -1.5587 0
M  V30 4471 H 408.228 -0.228917 -3.86022 0
M  V30 4472 H 409.917 -0.619539 -4.01144 0
M  V30 4473 H 410.683 -3.08807 -3.73983 0
M  V30 4474 H 406.562 -1.94367 -4.18022 0
M  V30 4475 H 410.106 -5.38658 -4.43275 0
M  V30 4476 H 406.003 -4.23314 -4.87314 0
M  V30 4477 H 406.771 -6.27306 -5.25766 0
M  V30 4478 N 409.434 1.37368 -0.772513 0
M  V30 4479 C 410.397 2.28601 -0.165541 0
M  V30 4480 C 411.397 1.48062 0.627238 0
M  V30 4481 O 412.587 1.68268 0.450715 0
M  V30 4482 C 409.719 3.32023 0.772897 0
M  V30 4483 H 410.912 2.83787 -0.969787 0
M  V30 4484 H 408.465 1.46647 -0.540775 0
M  V30 4485 H 409.2 2.81962 1.60212 0
M  V30 4486 H 408.985 3.91555 0.206585 0
M  V30 4487 H 410.475 4.00197 1.19298 0
M  V30 4488 N 410.912 0.523116 1.48665 0
M  V30 4489 C 411.875 -0.232592 2.28017 0
M  V30 4490 C 412.875 -0.874021 1.34972 0
M  V30 4491 O 414.065 -0.735132 1.57929 0
M  V30 4492 C 411.197 -1.33586 3.13636 0
M  V30 4493 H 412.39 0.464008 2.96289 0
M  V30 4494 H 409.943 0.278816 1.53793 0
M  V30 4495 H 410.678 -2.06593 2.4998 0
M  V30 4496 H 410.463 -0.881125 3.82071 0
M  V30 4497 H 411.953 -1.86759 3.73511 0
M  V30 4498 N 412.39 -1.55475 0.257931 0
M  V30 4499 C 413.353 -2.20551 -0.623706 0
M  V30 4500 C 414.353 -1.17809 -1.09443 0
M  V30 4501 O 415.543 -1.42823 -0.997362 0
M  V30 4502 C 412.675 -2.85784 -1.8585 0
M  V30 4503 H 413.868 -2.99848 -0.0557743 0
M  V30 4504 H 411.421 -1.56298 0.0084422 0
M  V30 4505 H 412.156 -2.10453 -2.46739 0
M  V30 4506 H 411.941 -3.61057 -1.52907 0
M  V30 4507 H 413.431 -3.35553 -2.48584 0
M  V30 4508 N 413.868 0.0150385 -1.57593 0
M  V30 4509 C 415.098 0.713359 -1.93894 0
M  V30 4510 C 415.506 1.68663 -0.857289 0
M  V30 4511 O 414.849 1.82876 0.173788 0
M  V30 4512 C 414.911 1.51348 -3.26089 0
M  V30 4513 C 414.575 0.703451 -4.51554 0
M  V30 4514 C 415.572 -0.00237924 -5.199 0
M  V30 4515 C 413.257 0.653854 -4.98026 0
M  V30 4516 C 415.251 -0.746955 -6.33008 0
M  V30 4517 C 412.938 -0.0944578 -6.11027 0
M  V30 4518 C 413.936 -0.793609 -6.78374 0
M  V30 4519 O 413.624 -1.52974 -7.89211 0
M  V30 4520 H 413.356 0.204637 -0.644282 0
M  V30 4521 H 415.91 -0.0276411 -2.05381 0
M  V30 4522 H 414.14 2.29862 -3.10967 0
M  V30 4523 H 415.829 2.09572 -3.47612 0
M  V30 4524 H 416.595 0.0268803 -4.84993 0
M  V30 4525 H 412.474 1.18756 -4.45441 0
M  V30 4526 H 416.018 -1.2932 -6.85509 0
M  V30 4527 H 411.915 -0.125591 -6.45378 0
M  V30 4528 H 412.683 -1.44488 -8.05646 0
M  V30 4529 N 415.346 1.54954 0.287554 0
M  V30 4530 C 416.757 1.65732 0.859634 0
M  V30 4531 C 417.108 0.574767 1.87592 0
M  V30 4532 O 416.233 -0.286299 2.14498 0
M  V30 4533 C 416.828 3.00438 1.56597 0
M  V30 4534 C 415.387 3.13292 2.08627 0
M  V30 4535 C 414.534 2.61473 0.923416 0
M  V30 4536 H 417.485 1.5857 0.0642338 0
M  V30 4537 H 417.506 2.92613 2.43224 0
M  V30 4538 H 417.018 3.79207 0.826053 0
M  V30 4539 H 415.119 2.39268 2.85625 0
M  V30 4540 H 415.232 4.19647 2.31157 0
M  V30 4541 H 413.596 2.18264 1.31275 0
M  V30 4542 H 414.379 3.42733 0.197241 0
M  V30 4543 N 416.824 -0.551391 1.4764 0
M  V30 4544 C 417.754 -1.66757 1.63445 0
M  V30 4545 C 418.735 -1.63077 0.483742 0
M  V30 4546 O 419.92 -1.80607 0.71377 0
M  V30 4547 C 417.05 -3.05387 1.65396 0
M  V30 4548 C 416.004 -3.23918 2.79752 0
M  V30 4549 C 415.33 -4.63393 2.66779 0
M  V30 4550 C 416.63 -3.08735 4.21284 0
M  V30 4551 H 418.324 -1.53786 2.56886 0
M  V30 4552 H 415.87 -0.738415 1.23626 0
M  V30 4553 H 417.823 -3.83325 1.75043 0
M  V30 4554 H 416.547 -3.19332 0.685195 0
M  V30 4555 H 415.206 -2.48391 2.69625 0
M  V30 4556 H 414.854 -4.74144 1.67918 0
M  V30 4557 H 414.554 -4.7674 3.43501 0
M  V30 4558 H 416.078 -5.43458 2.78364 0
M  V30 4559 H 417.492 -3.76484 4.32357 0
M  V30 4560 H 415.889 -3.33588 4.98838 0
M  V30 4561 H 416.959 -2.0541 4.39243 0
M  V30 4562 N 418.302 -1.35869 -0.798587 0
M  V30 4563 C 419.252 -1.25982 -1.90033 0
M  V30 4564 C 420.236 -0.153303 -1.60168 0
M  V30 4565 O 421.428 -0.38527 -1.72756 0
M  V30 4566 C 418.557 -1.04211 -3.27101 0
M  V30 4567 C 417.643 -2.19289 -3.63006 0
M  V30 4568 N 418.034 -3.44559 -3.70287 0
M  V30 4569 C 416.332 -2.10852 -3.93011 0
M  V30 4570 C 417.033 -4.20283 -4.02166 0
M  V30 4571 N 416.009 -3.49124 -4.16669 0
M  V30 4572 H 419.811 -2.20883 -1.93876 0
M  V30 4573 H 417.325 -1.28457 -0.993614 0
M  V30 4574 H 419.322 -0.952155 -4.05881 0
M  V30 4575 H 417.982 -0.102013 -3.2454 0
M  V30 4576 H 418.993 -3.7881 -3.53162 0
M  V30 4577 H 415.67 -1.24744 -3.98428 0
M  V30 4578 H 417.06 -5.28575 -4.14799 0
M  V30 4579 N 419.78 1.02168 -1.19998 0
M  V30 4580 C 421.057 1.72816 -0.916191 0
M  V30 4581 C 421.437 2.03081 0.576325 0
M  V30 4582 O 420.785 1.69122 1.53656 0
M  V30 4583 C 420.995 2.9997 -1.78378 0
M  V30 4584 C 422.343 3.73336 -2.02251 0
M  V30 4585 O 423.367 3.09914 -1.75589 0
M  V30 4586 O 422.226 4.87371 -2.47249 0
M  V30 4587 H 419.32 0.752924 -0.342103 0
M  V30 4588 H 421.866 1.08062 -1.30846 0
M  V30 4589 H 420.638 2.73888 -2.79466 0
M  V30 4590 H 420.261 3.72464 -1.39126 0
M  V30 4591 N 421.258 1.00505 1.21394 0
M  V30 4592 C 422.506 0.686415 1.90086 0
M  V30 4593 C 422.827 -0.785264 1.7849 0
M  V30 4594 O 422.097 -1.56387 1.17983 0
M  V30 4595 H 420.677 0.2509 0.703604 0
M  V30 4596 H 423.339 1.27417 1.47482 0
M  V30 4597 H 422.435 0.959621 2.96981 0
M  V30 4598 N 422.737 -1.36956 0.779787 0
M  V30 4599 C 424.014 -1.93697 0.272156 0
M  V30 4600 C 424.394 -1.71267 -1.23413 0
M  V30 4601 O 423.742 -1.06607 -2.02107 0
M  V30 4602 C 423.952 -3.42812 0.654291 0
M  V30 4603 C 425.3 -4.19921 0.628602 0
M  V30 4604 O 426.324 -3.51209 0.594172 0
M  V30 4605 O 425.183 -5.42465 0.662864 0
M  V30 4606 H 422.277 -0.824447 0.0649286 0
M  V30 4607 H 424.823 -1.46196 0.861682 0
M  V30 4608 H 423.595 -3.52754 1.69353 0
M  V30 4609 H 423.218 -3.97582 0.0381369 0
M  V30 4610 N 424.215 -0.530993 -1.48385 0
M  V30 4611 C 425.445 -0.00133928 -2.066 0
M  V30 4612 C 425.853 1.28599 -1.38777 0
M  V30 4613 O 425.196 1.77599 -0.469495 0
M  V30 4614 C 425.258 0.292137 -3.58311 0
M  V30 4615 C 424.922 -0.901864 -4.48013 0
M  V30 4616 C 425.919 -1.80053 -4.87726 0
M  V30 4617 C 423.604 -1.10915 -4.89901 0
M  V30 4618 C 425.598 -2.89038 -5.68098 0
M  V30 4619 C 423.285 -2.20213 -5.70043 0
M  V30 4620 C 424.283 -3.09107 -6.0905 0
M  V30 4621 O 423.971 -4.16514 -6.87583 0
M  V30 4622 H 423.703 -0.0308475 -0.675296 0
M  V30 4623 H 426.257 -0.736335 -1.91748 0
M  V30 4624 H 424.487 1.08112 -3.7128 0
M  V30 4625 H 426.176 0.763994 -3.98645 0
M  V30 4626 H 426.942 -1.65234 -4.55986 0
M  V30 4627 H 422.821 -0.426498 -4.59023 0
M  V30 4628 H 426.365 -3.58451 -5.98464 0
M  V30 4629 H 422.262 -2.35016 -6.01197 0
M  V30 4630 H 423.03 -4.14237 -7.05939 0
M  V30 4631 N 425.693 1.55336 -0.266172 0
M  V30 4632 C 426.641 2.23587 0.641228 0
M  V30 4633 C 427.635 1.22986 1.16494 0
M  V30 4634 O 428.841 1.40943 1.1196 0
M  V30 4635 H 425.216 0.717452 0.225315 0
M  V30 4636 H 427.187 2.9837 0.0426561 0
M  V30 4637 C 425.936 2.96369 1.81826 0
M  V30 4638 H 425.259 3.73563 1.42445 0
M  V30 4639 H 426.699 3.47459 2.42998 0
M  V30 4640 C 425.158 2.0133 2.70125 0
M  V30 4641 O 425.688 1.55875 3.70224 0
M  V30 4642 N 423.894 1.6802 2.37102 0
M  V30 4643 H 423.441 2.05181 1.55751 0
M  V30 4644 H 423.399 1.047 2.96454 0
M  V30 4645 N 427.171 -0.0066808 1.57599 0
M  V30 4646 C 428.419 -0.691552 1.899 0
M  V30 4647 C 428.74 -1.74682 0.866672 0
M  V30 4648 O 428.01 -1.95661 -0.0968189 0
M  V30 4649 H 426.59 -0.258416 0.700878 0
M  V30 4650 H 429.252 0.0326655 1.94873 0
M  V30 4651 H 428.348 -1.16702 2.8946 0
M  V30 4652 N 428.649 -1.55105 -0.279332 0
M  V30 4653 C 429.559 -1.90638 -1.36727 0
M  V30 4654 C 430.575 -0.802899 -1.54368 0
M  V30 4655 O 431.751 -1.10138 -1.68616 0
M  V30 4656 C 428.816 -2.16547 -2.70755 0
M  V30 4657 C 427.877 -3.40146 -2.61915 0
M  V30 4658 C 427.11 -3.6481 -3.8955 0
M  V30 4659 O 427.333 -2.92095 -4.89935 0
M  V30 4660 O 426.267 -4.58343 -3.90135 0
M  V30 4661 H 430.093 -2.83237 -1.09591 0
M  V30 4662 H 427.678 -1.4157 -0.477306 0
M  V30 4663 H 429.56 -2.34665 -3.50014 0
M  V30 4664 H 428.235 -1.27131 -2.9769 0
M  V30 4665 H 427.142 -3.2737 -1.81052 0
M  V30 4666 H 428.475 -4.29761 -2.3993 0
M  V30 4667 N 430.127 0.543554 -1.4793 0
M  V30 4668 C 431.075 1.67039 -1.61866 0
M  V30 4669 C 432.069 1.62294 -0.48549 0
M  V30 4670 O 433.275 1.67315 -0.66376 0
M  V30 4671 H 429.65 0.552954 -0.509652 0
M  V30 4672 H 431.621 1.52426 -2.56533 0
M  V30 4673 C 430.37 3.05357 -1.6629 0
M  V30 4674 H 429.693 3.09696 -2.5284 0
M  V30 4675 H 431.133 3.83855 -1.80088 0
M  V30 4676 C 429.592 3.34531 -0.398861 0
M  V30 4677 O 430.122 3.98649 0.494162 0
M  V30 4678 N 428.328 2.89299 -0.2747 0
M  V30 4679 H 427.875 2.37298 -1.00236 0
M  V30 4680 H 427.833 3.09188 0.570075 0
M  V30 4681 N 431.605 1.3629 0.791371 0
M  V30 4682 C 432.851 1.30605 1.55146 0
M  V30 4683 C 433.184 -0.115042 1.93859 0
M  V30 4684 O 432.459 -1.06798 1.62556 0
M  V30 4685 C 432.742 2.22692 2.82985 0
M  V30 4686 C 432.595 3.73489 2.50651 0
M  V30 4687 C 433.914 2.13588 3.84796 0
M  V30 4688 H 431.033 0.475761 0.562868 0
M  V30 4689 H 433.675 1.66825 0.909358 0
M  V30 4690 H 431.825 1.91933 3.37778 0
M  V30 4691 H 433.497 4.14758 2.01924 0
M  V30 4692 H 431.74 3.93021 1.83622 0
M  V30 4693 H 432.411 4.3333 3.41949 0
M  V30 4694 H 434.887 2.40659 3.39445 0
M  V30 4695 H 433.763 2.80195 4.71998 0
M  V30 4696 H 434.024 1.12256 4.27611 0
M  V30 4697 N 433.083 -1.0153 1.20538 0
M  V30 4698 C 433.993 -2.13557 0.971113 0
M  V30 4699 C 435.009 -1.73845 -0.0734366 0
M  V30 4700 O 436.185 -2.01075 0.114299 0
M  V30 4701 C 433.25 -3.42661 0.527639 0
M  V30 4702 C 432.311 -3.96608 1.64319 0
M  V30 4703 C 431.544 -5.1955 1.22078 0
M  V30 4704 O 431.767 -5.70329 0.0900198 0
M  V30 4705 O 430.701 -5.66681 2.02871 0
M  V30 4706 H 434.527 -2.3619 1.90913 0
M  V30 4707 H 432.112 -1.11946 0.989362 0
M  V30 4708 H 433.994 -4.20404 0.289621 0
M  V30 4709 H 432.669 -3.21441 -0.381779 0
M  V30 4710 H 431.576 -3.20139 1.93551 0
M  V30 4711 H 432.909 -4.22219 2.52966 0
M  V30 4712 N 434.561 -1.01147 -1.20859 0
M  V30 4713 C 435.808 -0.697865 -1.90095 0
M  V30 4714 C 436.136 0.772014 -1.78522 0
M  V30 4715 O 435.391 1.57595 -1.16027 0
M  V30 4716 C 435.69 -1.0727 -3.40922 0
M  V30 4717 C 435.356 -2.53792 -3.72693 0
M  V30 4718 C 434.018 -2.93829 -3.81075 0
M  V30 4719 C 436.37 -3.48674 -3.87397 0
M  V30 4720 C 433.698 -4.27696 -4.01613 0
M  V30 4721 C 436.05 -4.82223 -4.09444 0
M  V30 4722 C 434.714 -5.21973 -4.16054 0
M  V30 4723 H 433.984 -0.255367 -0.695607 0
M  V30 4724 H 436.631 -1.27111 -1.43231 0
M  V30 4725 H 434.936 -0.417799 -3.89566 0
M  V30 4726 H 436.633 -0.807818 -3.92779 0
M  V30 4727 H 433.223 -2.21768 -3.66765 0
M  V30 4728 H 437.407 -3.18904 -3.80281 0
M  V30 4729 H 432.663 -4.58055 -4.04964 0
M  V30 4730 H 436.837 -5.55672 -4.19763 0
M  V30 4731 H 434.464 -6.25717 -4.31721 0
M  V30 4732 N 436.039 1.36541 -0.78704 0
M  V30 4733 C 436.987 2.31965 -0.171724 0
M  V30 4734 C 437.981 1.55689 0.667631 0
M  V30 4735 O 439.187 1.70969 0.562981 0
M  V30 4736 H 435.562 0.751101 -0.0367545 0
M  V30 4737 H 437.533 2.81428 -0.992017 0
M  V30 4738 C 436.282 3.40968 0.680904 0
M  V30 4739 H 435.605 3.99775 0.0443961 0
M  V30 4740 H 437.045 4.10063 1.07815 0
M  V30 4741 C 435.504 2.82338 1.83813 0
M  V30 4742 O 436.034 2.74311 2.93456 0
M  V30 4743 N 434.24 2.39661 1.6435 0
M  V30 4744 H 433.787 2.46389 0.751668 0
M  V30 4745 H 433.745 2.00779 2.4194 0
M  V30 4746 N 437.518 0.538854 1.48102 0
M  V30 4747 C 438.795 -0.0568108 1.95517 0
M  V30 4748 C 439.175 -1.50408 1.48124 0
M  V30 4749 O 438.523 -2.17133 0.711727 0
M  V30 4750 C 438.733 0.0696262 3.48931 0
M  V30 4751 C 440.081 -0.0851202 4.24515 0
M  V30 4752 O 441.105 -0.0037347 3.562 0
M  V30 4753 O 439.964 -0.257025 5.45895 0
M  V30 4754 H 437.058 -0.0743695 0.823649 0
M  V30 4755 H 439.604 0.604081 1.58584 0
M  V30 4756 H 438.376 1.07744 3.76174 0
M  V30 4757 H 437.999 -0.629714 3.92582 0
M  V30 4758 N 438.996 -1.55193 0.274407 0
M  V30 4759 C 440.412 -1.59401 -0.0797543 0
M  V30 4760 C 440.612 -1.29162 -1.54659 0
M  V30 4761 O 439.668 -1.05215 -2.29534 0
M  V30 4762 C 440.981 -2.99257 0.294238 0
M  V30 4763 C 442.529 -3.12072 0.240796 0
M  V30 4764 C 443.004 -4.54194 0.589218 0
M  V30 4765 N 444.495 -4.60033 0.540744 0
M  V30 4766 C 445.23 -5.68027 0.783147 0
M  V30 4767 N 444.726 -6.8417 1.09013 0
M  V30 4768 N 446.519 -5.57572 0.711993 0
M  V30 4769 H 438.67 -1.73113 1.23067 0
M  V30 4770 H 440.933 -0.807197 0.497129 0
M  V30 4771 H 440.639 -3.26217 1.31435 0
M  V30 4772 H 440.513 -3.75427 -0.365281 0
M  V30 4773 H 442.9 -2.84877 -0.770024 0
M  V30 4774 H 442.981 -2.38117 0.934563 0
M  V30 4775 H 442.625 -4.82115 1.59772 0
M  V30 4776 H 442.555 -5.26448 -0.126331 0
M  V30 4777 H 445.046 -3.76599 0.313327 0
M  V30 4778 H 445.359 -7.6243 1.26178 0
M  V30 4779 H 443.704 -6.85787 1.12789 0
M  V30 4780 H 446.895 -4.65714 0.472014 0
M  V30 4781 H 447.068 -6.41659 0.90429 0
M  V30 4782 N 440.474 -0.00167713 -1.576 0
M  V30 4783 C 441.421 0.989195 -2.08527 0
M  V30 4784 C 442.391 1.34031 -0.981065 0
M  V30 4785 O 443.576 1.43839 -1.2536 0
M  V30 4786 C 440.716 2.27537 -2.59463 0
M  V30 4787 C 439.829 1.98314 -3.83791 0
M  V30 4788 C 438.964 3.21025 -4.23222 0
M  V30 4789 C 438.003 2.87495 -5.40382 0
M  V30 4790 N 437.14 4.02749 -5.75098 0
M  V30 4791 H 441.98 0.547973 -2.92919 0
M  V30 4792 H 439.517 0.258917 -1.44803 0
M  V30 4793 H 441.475 3.02729 -2.87073 0
M  V30 4794 H 440.105 2.69325 -1.77943 0
M  V30 4795 H 439.157 1.13482 -3.63078 0
M  V30 4796 H 440.469 1.69601 -4.69081 0
M  V30 4797 H 439.623 4.04561 -4.52123 0
M  V30 4798 H 438.362 3.52877 -3.36644 0
M  V30 4799 H 437.367 2.02367 -5.11202 0
M  V30 4800 H 438.592 2.56889 -6.28637 0
M  V30 4801 H 436.538 4.34494 -4.91478 0
M  V30 4802 H 436.455 3.77566 -6.54966 0
M  V30 4803 H 437.723 4.87068 -6.08592 0
M  V30 4804 N 441.952 1.55251 0.271103 0
M  V30 4805 C 442.882 1.9127 1.33933 0
M  V30 4806 C 443.863 0.77478 1.5143 0
M  V30 4807 O 445.048 1.03307 1.64442 0
M  V30 4808 C 442.178 2.18627 2.69851 0
M  V30 4809 C 441.132 3.34442 2.67081 0
M  V30 4810 C 440.458 3.47284 4.06569 0
M  V30 4811 C 441.758 4.70784 2.26185 0
M  V30 4812 H 443.452 2.80744 1.04035 0
M  V30 4813 H 440.998 1.35077 0.499017 0
M  V30 4814 H 442.951 2.42413 3.44694 0
M  V30 4815 H 441.675 1.25955 3.01335 0
M  V30 4816 H 440.334 3.10627 1.94695 0
M  V30 4817 H 439.982 2.52074 4.35279 0
M  V30 4818 H 439.682 4.25152 4.0561 0
M  V30 4819 H 441.206 3.73363 4.83148 0
M  V30 4820 H 442.62 4.94102 2.90751 0
M  V30 4821 H 441.017 5.51582 2.36384 0
M  V30 4822 H 442.087 4.69478 1.21319 0
M  V30 4823 N 443.43 -0.535701 1.48216 0
M  V30 4824 C 444.36 -1.65014 1.65204 0
M  V30 4825 C 445.341 -1.62554 0.501011 0
M  V30 4826 O 446.526 -1.7984 0.732886 0
M  V30 4827 C 443.656 -3.03616 1.68626 0
M  V30 4828 C 442.61 -3.20932 2.83172 0
M  V30 4829 C 441.936 -4.60537 2.71679 0
M  V30 4830 C 443.236 -3.04249 4.24535 0
M  V30 4831 H 444.93 -1.51053 2.58502 0
M  V30 4832 H 442.476 -0.725262 1.24402 0
M  V30 4833 H 444.429 -3.81446 1.79099 0
M  V30 4834 H 443.153 -3.18587 0.719026 0
M  V30 4835 H 441.812 -2.45517 2.72244 0
M  V30 4836 H 441.46 -4.72336 1.72937 0
M  V30 4837 H 441.16 -4.73069 3.48538 0
M  V30 4838 H 442.684 -5.40475 2.84112 0
M  V30 4839 H 444.098 -3.71877 4.36326 0
M  V30 4840 H 442.495 -3.28278 5.02348 0
M  V30 4841 H 443.565 -2.00739 4.41397 0
M  V30 4842 N 444.908 -1.36708 -0.784132 0
M  V30 4843 C 446.138 -1.34203 -1.57077 0
M  V30 4844 C 446.546 0.0774945 -1.89041 0
M  V30 4845 O 445.889 1.04628 -1.50992 0
M  V30 4846 C 445.951 -2.10351 -2.91535 0
M  V30 4847 C 445.615 -3.59405 -2.82272 0
M  V30 4848 C 446.612 -4.53545 -2.54151 0
M  V30 4849 C 444.297 -4.02362 -3.00683 0
M  V30 4850 C 446.291 -5.8862 -2.44551 0
M  V30 4851 C 443.978 -5.37526 -2.90704 0
M  V30 4852 C 444.976 -6.30468 -2.62677 0
M  V30 4853 O 444.664 -7.63149 -2.52702 0
M  V30 4854 H 444.396 -0.461791 -0.493685 0
M  V30 4855 H 446.95 -1.80475 -0.980712 0
M  V30 4856 H 445.18 -1.5875 -3.52612 0
M  V30 4857 H 446.869 -2.00636 -3.52845 0
M  V30 4858 H 447.635 -4.21669 -2.39625 0
M  V30 4859 H 443.514 -3.30389 -3.21503 0
M  V30 4860 H 447.058 -6.61133 -2.22596 0
M  V30 4861 H 442.955 -5.69008 -3.04795 0
M  V30 4862 H 443.723 -7.73331 -2.68144 0
M  V30 4863 N 446.386 1.0089 -1.21074 0
M  V30 4864 C 447.296 2.13039 -0.982425 0
M  V30 4865 C 448.312 1.73881 0.0642161 0
M  V30 4866 O 449.488 2.01012 -0.12496 0
M  V30 4867 C 446.553 3.42377 -0.545803 0
M  V30 4868 C 445.614 3.95731 -1.6642 0
M  V30 4869 C 444.847 5.18896 -1.24832 0
M  V30 4870 O 445.07 5.70273 -0.120265 0
M  V30 4871 O 444.004 5.65597 -2.05873 0
M  V30 4872 H 447.83 2.35175 -1.92163 0
M  V30 4873 H 445.415 1.1142 -0.995285 0
M  V30 4874 H 447.297 4.20244 -0.311912 0
M  V30 4875 H 445.972 3.21639 0.364727 0
M  V30 4876 H 444.879 3.19108 -1.95246 0
M  V30 4877 H 446.212 4.20872 -2.55201 0
M  V30 4878 N 447.864 1.01787 1.20321 0
M  V30 4879 C 448.774 0.598898 2.26827 0
M  V30 4880 C 449.79 -0.36418 1.70146 0
M  V30 4881 O 450.966 -0.224812 2.00141 0
M  V30 4882 C 448.031 -0.0549769 3.46656 0
M  V30 4883 C 447.092 0.954205 4.18561 0
M  V30 4884 C 446.325 0.331439 5.3267 0
M  V30 4885 O 446.548 -0.86851 5.63749 0
M  V30 4886 O 445.482 1.0488 5.92692 0
M  V30 4887 H 449.308 1.48562 2.64883 0
M  V30 4888 H 446.893 0.787434 1.26964 0
M  V30 4889 H 448.775 -0.420102 4.19301 0
M  V30 4890 H 447.45 -0.915876 3.10473 0
M  V30 4891 H 446.357 1.37072 3.48083 0
M  V30 4892 H 447.69 1.78511 4.58688 0
M  V30 4893 N 449.342 -1.36122 0.79427 0
M  V30 4894 C 450.588 -1.99846 0.378542 0
M  V30 4895 C 450.943 -1.61898 -1.03955 0
M  V30 4896 O 450.236 -0.866013 -1.70912 0
M  V30 4897 C 450.43 -3.5409 0.48527 0
M  V30 4898 C 450.259 -4.0702 1.91219 0
M  V30 4899 C 449.029 -4.36944 2.53787 0
M  V30 4900 C 451.227 -4.26435 2.87502 0
M  V30 4901 N 449.209 -4.75727 3.88017 0
M  V30 4902 C 450.58 -4.68077 4.06576 0
M  V30 4903 C 452.635 -4.08616 2.84495 0
M  V30 4904 C 451.338 -4.93765 5.23057 0
M  V30 4905 C 453.364 -4.35453 4.00169 0
M  V30 4906 C 452.726 -4.77355 5.17988 0
M  V30 4907 H 448.825 -0.759549 0.186034 0
M  V30 4908 H 451.409 -1.65043 1.0329 0
M  V30 4909 H 449.58 -3.88151 -0.139023 0
M  V30 4910 H 451.312 -4.04675 0.0453192 0
M  V30 4911 H 448.067 -4.26822 2.05231 0
M  V30 4912 H 448.491 -4.99396 4.57092 0
M  V30 4913 H 453.133 -3.75373 1.94564 0
M  V30 4914 H 450.851 -5.25887 6.1357 0
M  V30 4915 H 454.437 -4.2323 3.99208 0
M  V30 4916 H 453.317 -4.97718 6.06008 0
M  V30 4917 N 450.82 -0.546701 -1.47814 0
M  V30 4918 C 451.783 0.196287 -2.28358 0
M  V30 4919 C 452.783 0.852437 -1.36346 0
M  V30 4920 O 453.973 0.709913 -1.59078 0
M  V30 4921 C 451.105 1.28579 -3.15722 0
M  V30 4922 H 452.298 -0.511086 -2.95513 0
M  V30 4923 H 449.851 -0.303248 -1.5333 0
M  V30 4924 H 450.586 2.0259 -2.53235 0
M  V30 4925 H 450.371 0.820229 -3.83425 0
M  V30 4926 H 451.861 1.80793 -3.76435 0
M  V30 4927 N 452.299 1.55045 -0.282633 0
M  V30 4928 C 453.715 1.59441 0.0712997 0
M  V30 4929 C 453.915 1.2998 1.53972 0
M  V30 4930 O 452.971 1.06431 2.28973 0
M  V30 4931 C 454.284 2.99097 -0.310104 0
M  V30 4932 C 455.832 3.1194 -0.257343 0
M  V30 4933 C 456.307 4.53875 -0.613297 0
M  V30 4934 N 457.798 4.5974 -0.565134 0
M  V30 4935 C 458.533 5.67603 -0.81326 0
M  V30 4936 N 458.029 6.83582 -1.1264 0
M  V30 4937 N 459.822 5.57187 -0.741553 0
M  V30 4938 H 451.973 1.72458 -1.23984 0
M  V30 4939 H 454.236 0.804549 -0.501403 0
M  V30 4940 H 453.942 3.25516 -1.33163 0
M  V30 4941 H 453.816 3.75616 0.345366 0
M  V30 4942 H 456.203 2.85281 0.754905 0
M  V30 4943 H 456.284 2.37618 -0.947178 0
M  V30 4944 H 455.928 4.81261 -1.62327 0
M  V30 4945 H 455.858 5.26508 0.09841 0
M  V30 4946 H 458.349 3.76427 -0.333294 0
M  V30 4947 H 458.662 7.6175 -1.30219 0
M  V30 4948 H 457.007 6.85179 -1.16425 0
M  V30 4949 H 460.198 4.65457 -0.496705 0
M  V30 4950 H 460.371 6.41171 -0.938306 0
M  V30 4951 N 453.777 0.010035 1.57597 0
M  V30 4952 C 455.007 -0.682422 1.95004 0
M  V30 4953 C 455.415 -1.67278 0.884014 0
M  V30 4954 O 454.758 -1.83129 -0.144672 0
M  V30 4955 C 454.82 -1.46141 3.28456 0
M  V30 4956 C 454.484 -0.631523 4.52615 0
M  V30 4957 C 455.481 0.0850905 5.1983 0
M  V30 4958 C 453.166 -0.574539 4.99003 0
M  V30 4959 C 455.16 0.847566 6.3174 0
M  V30 4960 C 452.847 0.191655 6.10799 0
M  V30 4961 C 453.845 0.901432 6.77025 0
M  V30 4962 O 453.533 1.65511 7.86677 0
M  V30 4963 H 453.265 -0.194361 0.647456 0
M  V30 4964 H 455.819 0.060312 2.05311 0
M  V30 4965 H 454.049 -2.24885 3.14585 0
M  V30 4966 H 455.738 -2.04016 3.50902 0
M  V30 4967 H 456.504 0.0502812 4.84974 0
M  V30 4968 H 452.383 -1.11654 4.47274 0
M  V30 4969 H 455.927 1.4021 6.83364 0
M  V30 4970 H 451.824 0.228249 6.45096 0
M  V30 4971 H 452.592 1.57287 8.03245 0
M  V30 4972 N 455.255 -1.55392 -0.262866 0
M  V30 4973 C 456.503 -1.76127 -0.991147 0
M  V30 4974 C 456.824 -0.571083 -1.8645 0
M  V30 4975 O 456.094 0.413698 -1.91482 0
M  V30 4976 H 454.674 -0.649528 -0.368948 0
M  V30 4977 H 457.336 -1.9281 -0.284655 0
M  V30 4978 H 456.432 -2.6663 -1.62219 0
M  V30 4979 N 456.733 0.527833 -1.48498 0
M  V30 4980 C 457.979 1.28545 -1.56857 0
M  V30 4981 C 458.312 1.92678 -0.242651 0
M  V30 4982 O 457.587 1.79394 0.751545 0
M  V30 4983 C 457.87 2.37314 -2.70839 0
M  V30 4984 C 457.723 1.77858 -4.13142 0
M  V30 4985 C 459.042 3.39068 -2.80573 0
M  V30 4986 H 456.161 0.466006 -0.570971 0
M  V30 4987 H 458.803 0.587784 -1.8068 0
M  V30 4988 H 456.953 2.96821 -2.50658 0
M  V30 4989 H 458.625 1.22385 -4.44769 0
M  V30 4990 H 456.868 1.08383 -4.20042 0
M  V30 4991 H 457.539 2.56624 -4.88721 0
M  V30 4992 H 460.015 2.89518 -2.98862 0
M  V30 4993 H 458.891 4.12566 -3.6205 0
M  V30 4994 H 459.152 3.9975 -1.88818 0
M  V30 4995 N 458.211 1.37122 0.776871 0
M  V30 4996 C 459.458 1.32047 1.53524 0
M  V30 4997 C 459.786 -0.0965631 1.9426 0
M  V30 4998 O 459.041 -1.06866 1.63945 0
M  V30 4999 C 459.34 2.20068 2.81611 0
M  V30 5000 C 459.006 3.68423 2.59953 0
M  V30 5001 C 457.668 4.08854 2.53755 0
M  V30 5002 C 460.02 4.62431 2.40431 0
M  V30 5003 C 457.348 5.41417 2.26018 0
M  V30 5004 C 459.7 5.95225 2.14219 0
M  V30 5005 C 458.364 6.34767 2.06462 0
M  V30 5006 H 457.634 0.483196 0.561785 0
M  V30 5007 H 460.281 1.69284 0.895268 0
M  V30 5008 H 458.586 1.75809 3.50141 0
M  V30 5009 H 460.283 2.13458 3.39465 0
M  V30 5010 H 456.873 3.36354 2.65638 0
M  V30 5011 H 461.057 4.32057 2.44213 0
M  V30 5012 H 456.313 5.71022 2.18504 0
M  V30 5013 H 460.487 6.67626 1.98112 0
M  V30 5014 H 458.114 7.37413 1.84733 0
M  V30 5015 N 459.689 -1.00246 1.21608 0
M  V30 5016 C 460.919 -1.77373 1.05935 0
M  V30 5017 C 461.327 -1.85059 -0.393686 0
M  V30 5018 O 460.67 -1.31289 -1.28487 0
M  V30 5019 C 460.732 -3.22705 1.58435 0
M  V30 5020 C 460.396 -3.38591 3.06929 0
M  V30 5021 C 461.393 -3.2667 4.04454 0
M  V30 5022 C 459.078 -3.6395 3.46187 0
M  V30 5023 C 461.072 -3.39877 5.39224 0
M  V30 5024 C 458.759 -3.768 4.81108 0
M  V30 5025 C 459.757 -3.6477 5.77436 0
M  V30 5026 O 459.445 -3.77206 7.09909 0
M  V30 5027 H 459.177 -0.56419 0.372378 0
M  V30 5028 H 461.731 -1.26971 1.61454 0
M  V30 5029 H 459.961 -3.74255 0.973147 0
M  V30 5030 H 461.65 -3.81515 1.38568 0
M  V30 5031 H 462.416 -3.06999 3.75468 0
M  V30 5032 H 458.295 -3.72395 2.71741 0
M  V30 5033 H 461.839 -3.30404 6.14393 0
M  V30 5034 H 457.736 -3.95975 5.09779 0
M  V30 5035 H 458.504 -3.94138 7.17355 0
M  V30 5036 N 461.167 -1.02423 -1.1978 0
M  V30 5037 C 462.114 -0.601023 -2.22837 0
M  V30 5038 C 463.084 0.382801 -1.61629 0
M  V30 5039 O 464.269 0.280514 -1.88727 0
M  V30 5040 C 461.409 0.0467755 -3.45068 0
M  V30 5041 C 460.522 -0.98253 -4.20678 0
M  V30 5042 C 459.657 -0.304982 -5.30324 0
M  V30 5043 C 458.696 -1.32052 -5.97686 0
M  V30 5044 N 457.833 -0.669105 -6.98904 0
M  V30 5045 H 462.673 -1.48444 -2.58396 0
M  V30 5046 H 460.21 -0.742936 -1.2696 0
M  V30 5047 H 462.168 0.439556 -4.14878 0
M  V30 5048 H 460.798 0.893796 -3.10179 0
M  V30 5049 H 459.85 -1.49341 -3.49859 0
M  V30 5050 H 461.162 -1.75455 -4.66923 0
M  V30 5051 H 460.316 0.142893 -6.06532 0
M  V30 5052 H 459.055 0.499283 -4.85138 0
M  V30 5053 H 458.06 -1.7787 -5.20233 0
M  V30 5054 H 459.285 -2.1262 -6.44957 0
M  V30 5055 H 457.231 0.115152 -6.55899 0
M  V30 5056 H 457.148 -1.37908 -7.43315 0
M  V30 5057 H 458.416 -0.245076 -7.79115 0
M  V30 5058 N 462.645 1.35699 -0.801477 0
M  V30 5059 C 463.875 2.02862 -0.3912 0
M  V30 5060 C 464.283 1.60552 1.00099 0
M  V30 5061 O 463.626 0.796215 1.65548 0
M  V30 5062 C 463.688 3.57386 -0.389299 0
M  V30 5063 C 463.352 4.22943 -1.73113 0
M  V30 5064 C 464.349 4.44984 -2.68859 0
M  V30 5065 C 462.034 4.60167 -2.01373 0
M  V30 5066 C 464.028 5.03345 -3.91053 0
M  V30 5067 C 461.715 5.18243 -3.23832 0
M  V30 5068 C 462.713 5.39773 -4.1849 0
M  V30 5069 O 462.401 5.96626 -5.38788 0
M  V30 5070 H 462.133 0.657341 -0.157732 0
M  V30 5071 H 464.687 1.74407 -1.08496 0
M  V30 5072 H 462.917 3.85011 0.361031 0
M  V30 5073 H 464.606 4.059 -0.0020365 0
M  V30 5074 H 465.372 4.1661 -2.48316 0
M  V30 5075 H 461.251 4.42726 -1.28508 0
M  V30 5076 H 464.795 5.20065 -4.64949 0
M  V30 5077 H 460.692 5.46044 -3.44248 0
M  V30 5078 H 461.46 6.15082 -5.40015 0
M  V30 5079 N 464.123 0.554532 1.47522 0
M  V30 5080 C 465.055 -0.232106 2.28022 0
M  V30 5081 C 466.068 -0.881865 1.36847 0
M  V30 5082 O 467.257 -0.756168 1.61692 0
M  V30 5083 C 464.357 -1.34604 3.11022 0
M  V30 5084 C 463.53 -0.793582 4.30141 0
M  V30 5085 C 462.589 -1.79168 4.94758 0
M  V30 5086 O 461.615 -1.33886 5.5323 0
M  V30 5087 N 462.817 -3.12495 4.89211 0
M  V30 5088 H 465.582 0.458407 2.96173 0
M  V30 5089 H 463.143 0.390433 1.57122 0
M  V30 5090 H 465.135 -2.01243 3.51118 0
M  V30 5091 H 463.705 -1.93983 2.45131 0
M  V30 5092 H 462.925 0.0495025 3.94169 0
M  V30 5093 H 464.213 -0.403776 5.07195 0
M  V30 5094 H 463.611 -3.51931 4.42901 0
M  V30 5095 H 462.168 -3.74698 5.33333 0
M  V30 5096 N 465.601 -1.54893 0.290851 0
M  V30 5097 C 467.012 -1.85584 -0.203816 0
M  V30 5098 C 467.363 -1.21285 -1.54222 0
M  V30 5099 O 466.488 -0.506841 -2.10381 0
M  V30 5100 C 467.083 -3.367 -0.376595 0
M  V30 5101 C 465.642 -3.6746 -0.815485 0
M  V30 5102 C 464.789 -2.77178 0.0821087 0
M  V30 5103 H 467.74 -1.50208 0.512175 0
M  V30 5104 H 467.761 -3.60656 -1.21275 0
M  V30 5105 H 467.273 -3.8347 0.59767 0
M  V30 5106 H 465.374 -3.26201 -1.80066 0
M  V30 5107 H 465.487 -4.7478 -0.641905 0
M  V30 5108 H 463.851 -2.50925 -0.436895 0
M  V30 5109 H 464.634 -3.26767 1.05254 0
M  V30 5110 N 467.08 -0.0183926 -1.57589 0
M  V30 5111 C 468.329 0.66185 -1.90532 0
M  V30 5112 C 468.642 1.73904 -0.895366 0
M  V30 5113 O 469.848 2.47518 -1.11566 0
M  V30 5114 C 468.304 1.22844 -3.38286 0
M  V30 5115 C 467.912 0.185103 -4.47617 0
M  V30 5116 C 469.656 1.88581 -3.80312 0
M  V30 5117 C 467.563 0.762723 -5.86461 0
M  V30 5118 H 466.493 0.250972 -0.711006 0
M  V30 5119 H 469.144 -0.0819435 -1.83317 0
M  V30 5120 H 467.526 2.0235 -3.40398 0
M  V30 5121 H 468.7 -0.58671 -4.5705 0
M  V30 5122 H 467.015 -0.372889 -4.14727 0
M  V30 5123 H 469.612 2.32735 -4.81392 0
M  V30 5124 H 469.955 2.72408 -3.14801 0
M  V30 5125 H 470.488 1.15782 -3.80578 0
M  V30 5126 H 467.227 -0.0371713 -6.55489 0
M  V30 5127 H 466.747 1.50327 -5.80656 0
M  V30 5128 H 468.426 1.25576 -6.34697 0
M  V30 5129 N 468.558 1.5553 0.254621 0
M  V30 5130 C 469.835 1.6774 1.00611 0
M  V30 5131 C 470.215 0.555993 2.03647 0
M  V30 5132 O 469.563 -0.441583 2.24193 0
M  V30 5133 C 469.773 3.07725 1.6464 0
M  V30 5134 C 471.121 3.66074 2.15116 0
M  V30 5135 O 472.145 3.10476 1.74595 0
M  V30 5136 O 471.004 4.63526 2.89493 0
M  V30 5137 H 468.098 0.681958 0.467828 0
M  V30 5138 H 470.644 1.67863 0.24902 0
M  V30 5139 H 469.416 3.80792 0.900734 0
M  V30 5140 H 469.039 3.1158 2.46989 0
M  V30 5141 N 470.036 -0.519951 1.48776 0
M  V30 5142 C 470.966 -1.63253 1.66945 0
M  V30 5143 C 471.947 -1.62014 0.518224 0
M  V30 5144 O 473.132 -1.79053 0.751919 0
M  V30 5145 C 470.262 -3.0181 1.71836 0
M  V30 5146 C 469.216 -3.17911 2.8656 0
M  V30 5147 C 468.542 -4.5763 2.76548 0
M  V30 5148 C 469.842 -2.99729 4.27738 0
M  V30 5149 H 471.536 -1.48302 2.6009 0
M  V30 5150 H 469.082 -0.712026 1.25165 0
M  V30 5151 H 471.035 -3.79525 1.83135 0
M  V30 5152 H 469.759 -3.17806 0.752775 0
M  V30 5153 H 468.418 -2.42616 2.74833 0
M  V30 5154 H 468.066 -4.70476 1.77937 0
M  V30 5155 H 467.766 -4.69346 3.53536 0
M  V30 5156 H 469.29 -5.37431 2.89828 0
M  V30 5157 H 470.704 -3.67228 4.40246 0
M  V30 5158 H 469.101 -3.22932 5.05801 0
M  V30 5159 H 470.171 -1.96047 4.43502 0
M  V30 5160 N 471.514 -1.37532 -0.769588 0
M  V30 5161 C 472.76 -1.33057 -1.53048 0
M  V30 5162 C 473.093 0.0841865 -1.94017 0
M  V30 5163 O 472.368 1.04198 -1.64235 0
M  V30 5164 C 472.651 -2.27166 -2.79406 0
M  V30 5165 C 472.504 -3.77429 -2.44677 0
M  V30 5166 C 473.823 -2.19683 -3.81349 0
M  V30 5167 H 470.942 -0.484655 -0.555228 0
M  V30 5168 H 473.584 -1.68251 -0.882702 0
M  V30 5169 H 471.734 -1.97283 -3.34682 0
M  V30 5170 H 473.406 -4.17918 -1.953 0
M  V30 5171 H 471.649 -3.95892 -1.77346 0
M  V30 5172 H 472.32 -4.38716 -3.35011 0
M  V30 5173 H 474.796 -2.46029 -3.35573 0
M  V30 5174 H 473.672 -2.87668 -4.67481 0
M  V30 5175 H 473.933 -1.19045 -4.25771 0
M  V30 5176 N 472.992 0.995999 -1.22138 0
M  V30 5177 C 474.408 1.25917 -0.980667 0
M  V30 5178 C 474.608 1.98819 0.327604 0
M  V30 5179 O 473.664 2.29587 1.05101 0
M  V30 5180 C 474.977 2.07399 -2.17729 0
M  V30 5181 C 476.525 2.20594 -2.22052 0
M  V30 5182 C 477 3.05462 -3.41258 0
M  V30 5183 N 478.491 3.13049 -3.41401 0
M  V30 5184 C 479.226 3.78997 -4.30289 0
M  V30 5185 N 478.722 4.46899 -5.2939 0
M  V30 5186 N 480.515 3.75728 -4.18073 0
M  V30 5187 H 472.666 0.507158 -2.06256 0
M  V30 5188 H 474.929 0.28658 -0.903646 0
M  V30 5189 H 474.635 1.61191 -3.12586 0
M  V30 5190 H 474.509 3.08154 -2.17534 0
M  V30 5191 H 476.896 2.66017 -1.27745 0
M  V30 5192 H 476.977 1.1928 -2.26287 0
M  V30 5193 H 476.621 2.60739 -4.35864 0
M  V30 5194 H 476.551 4.06911 -3.34262 0
M  V30 5195 H 479.042 2.64721 -2.69688 0
M  V30 5196 H 479.355 4.94952 -5.935 0
M  V30 5197 H 477.7 4.45657 -5.33306 0
M  V30 5198 H 480.891 3.2184 -3.39907 0
M  V30 5199 H 481.064 4.26845 -4.87553 0
M  V30 5200 N 474.47 1.03057 1.19235 0
M  V30 5201 C 475.417 0.612832 2.22515 0
M  V30 5202 C 476.387 -0.374224 1.61829 0
M  V30 5203 O 477.572 -0.270501 1.88873 0
M  V30 5204 C 474.712 -0.028475 3.45088 0
M  V30 5205 C 473.825 1.00483 4.20151 0
M  V30 5206 C 472.96 0.333102 5.30155 0
M  V30 5207 C 471.999 1.3522 5.96977 0
M  V30 5208 N 471.136 0.70616 6.9854 0
M  V30 5209 H 475.976 1.49812 2.57605 0
M  V30 5210 H 473.513 0.749658 1.26564 0
M  V30 5211 H 475.471 -0.417548 4.15105 0
M  V30 5212 H 474.101 -0.877334 3.10649 0
M  V30 5213 H 473.153 1.51194 3.49062 0
M  V30 5214 H 474.465 1.77929 4.65986 0
M  V30 5215 H 473.619 -0.110725 6.06599 0
M  V30 5216 H 472.358 -0.473547 4.85396 0
M  V30 5217 H 471.363 1.80627 5.19282 0
M  V30 5218 H 472.588 2.16037 6.4382 0
M  V30 5219 H 470.534 -0.0803667 6.55951 0
M  V30 5220 H 470.451 1.41848 7.42573 0
M  V30 5221 H 471.719 0.286391 7.78974 0
M  V30 5222 N 475.948 -1.35272 0.808662 0
M  V30 5223 C 477.178 -2.02652 0.401953 0
M  V30 5224 C 477.586 -1.6108 -0.992462 0
M  V30 5225 O 476.929 -0.804984 -1.65123 0
M  V30 5226 C 476.991 -3.57174 0.408246 0
M  V30 5227 C 476.655 -4.22019 1.75353 0
M  V30 5228 C 477.652 -4.43552 2.71215 0
M  V30 5229 C 475.337 -4.59093 2.03811 0
M  V30 5230 C 477.331 -5.01264 3.93717 0
M  V30 5231 C 475.018 -5.16519 3.26576 0
M  V30 5232 C 476.016 -5.37546 4.21347 0
M  V30 5233 O 475.704 -5.93761 5.41944 0
M  V30 5234 H 475.436 -0.656495 0.161216 0
M  V30 5235 H 477.99 -1.73829 1.0942 0
M  V30 5236 H 476.22 -3.85197 -0.340608 0
M  V30 5237 H 477.909 -4.05893 0.0235623 0
M  V30 5238 H 478.675 -4.15288 2.50522 0
M  V30 5239 H 474.554 -4.42039 1.30854 0
M  V30 5240 H 478.098 -5.17592 4.67701 0
M  V30 5241 H 473.995 -5.4421 3.47139 0
M  V30 5242 H 474.763 -6.1221 5.43269 0
M  V30 5243 N 477.426 -0.562348 -1.47226 0
M  V30 5244 C 478.673 -0.0402165 -2.0246 0
M  V30 5245 C 479.001 1.31169 -1.43614 0
M  V30 5246 O 478.256 1.86805 -0.5833 0
M  V30 5247 C 478.555 0.0969817 -3.57268 0
M  V30 5248 C 478.221 -1.1847 -4.35058 0
M  V30 5249 C 476.883 -1.53588 -4.56031 0
M  V30 5250 C 479.235 -2.03378 -4.79882 0
M  V30 5251 C 476.563 -2.73452 -5.19077 0
M  V30 5252 C 478.915 -3.2245 -5.44251 0
M  V30 5253 C 477.579 -3.57876 -5.63455 0
M  V30 5254 H 476.849 -0.0147163 -0.740854 0
M  V30 5255 H 479.496 -0.734895 -1.76838 0
M  V30 5256 H 477.801 0.87466 -3.81912 0
M  V30 5257 H 479.498 0.516408 -3.97661 0
M  V30 5258 H 476.088 -0.90126 -4.19017 0
M  V30 5259 H 480.272 -1.77553 -4.63453 0
M  V30 5260 H 475.528 -3.01062 -5.32139 0
M  V30 5261 H 479.702 -3.88526 -5.77945 0
M  V30 5262 H 477.329 -4.50849 -6.12078 0
M  V30 5263 N 478.904 1.54736 -0.299062 0
M  V30 5264 C 480.152 1.99706 0.31017 0
M  V30 5265 C 480.473 1.18896 1.54559 0
M  V30 5266 O 479.743 0.284445 1.93824 0
M  V30 5267 H 478.323 0.737686 0.117596 0
M  V30 5268 H 480.985 1.9054 -0.409943 0
M  V30 5269 H 480.081 3.06596 0.58355 0
M  V30 5270 N 480.382 0.0267497 1.57577 0
M  V30 5271 C 481.292 -0.971633 2.13533 0
M  V30 5272 C 482.308 -1.35868 1.08701 0
M  V30 5273 O 483.484 -1.44058 1.40746 0
M  V30 5274 C 480.549 -2.23622 2.64941 0
M  V30 5275 C 479.61 -1.90982 3.8448 0
M  V30 5276 C 478.843 -3.11411 4.33427 0
M  V30 5277 O 479.066 -4.23992 3.81558 0
M  V30 5278 O 478 -2.93848 5.25297 0
M  V30 5279 H 481.826 -0.525853 2.99113 0
M  V30 5280 H 479.411 -0.193712 1.48139 0
M  V30 5281 H 481.293 -2.97864 2.98086 0
M  V30 5282 H 479.968 -2.67386 1.82446 0
M  V30 5283 H 478.875 -1.14132 3.56265 0
M  V30 5284 H 480.208 -1.52036 4.6813 0
M  V30 5285 N 481.861 -1.55662 -0.24637 0
M  V30 5286 C 482.808 -1.90361 -1.30504 0
M  V30 5287 C 483.778 -0.757905 -1.47801 0
M  V30 5288 O 484.963 -1.01161 -1.61775 0
M  V30 5289 C 482.103 -2.2042 -2.65535 0
M  V30 5290 C 481.216 -3.47799 -2.56242 0
M  V30 5291 C 480.351 -3.67426 -3.8363 0
M  V30 5292 C 479.39 -4.88403 -3.68956 0
M  V30 5293 N 478.527 -5.04548 -4.88237 0
M  V30 5294 H 483.367 -2.80645 -1.00213 0
M  V30 5295 H 480.904 -1.38924 -0.483577 0
M  V30 5296 H 482.862 -2.35853 -3.44135 0
M  V30 5297 H 481.492 -1.3334 -2.93973 0
M  V30 5298 H 480.544 -3.40694 -1.69208 0
M  V30 5299 H 481.856 -4.36544 -2.4131 0
M  V30 5300 H 481.01 -3.82821 -4.70673 0
M  V30 5301 H 479.749 -2.76914 -4.01459 0
M  V30 5302 H 478.754 -4.72984 -2.80296 0
M  V30 5303 H 479.979 -5.80375 -3.52621 0
M  V30 5304 H 477.925 -4.16974 -5.06427 0
M  V30 5305 H 477.842 -5.87384 -4.75937 0
M  V30 5306 H 479.11 -5.24355 -5.76777 0
M  V30 5307 N 483.339 0.512053 -1.4905 0
M  V30 5308 C 484.588 1.26343 -1.57227 0
M  V30 5309 C 484.901 1.93876 -0.259155 0
M  V30 5310 O 486.107 2.70612 -0.219358 0
M  V30 5311 C 484.563 2.29343 -2.77362 0
M  V30 5312 C 484.171 1.67799 -4.15388 0
M  V30 5313 C 485.915 3.05378 -2.94864 0
M  V30 5314 C 483.822 2.68845 -5.2676 0
M  V30 5315 H 482.752 0.475231 -0.585382 0
M  V30 5316 H 485.403 0.53862 -1.75417 0
M  V30 5317 H 483.785 3.04938 -2.52643 0
M  V30 5318 H 484.959 0.982715 -4.50199 0
M  V30 5319 H 483.274 1.04194 -4.03153 0
M  V30 5320 H 485.871 3.80921 -3.75238 0
M  V30 5321 H 486.214 3.62327 -2.05 0
M  V30 5322 H 486.747 2.36898 -3.19569 0
M  V30 5323 H 483.486 2.16692 -6.18647 0
M  V30 5324 H 483.006 3.36647 -4.96416 0
M  V30 5325 H 484.685 3.31487 -5.5563 0
M  V30 5326 N 484.817 1.37938 0.762283 0
M  V30 5327 C 486.065 1.33404 1.51815 0
M  V30 5328 C 486.386 -0.0780975 1.94844 0
M  V30 5329 O 485.656 -1.02405 1.67003 0
M  V30 5330 H 484.236 0.490839 0.563104 0
M  V30 5331 H 486.898 1.72527 0.906669 0
M  V30 5332 H 485.994 1.97926 2.41313 0
M  V30 5333 N 486.295 -0.989507 1.22664 0
M  V30 5334 C 487.225 -2.09847 1.02404 0
M  V30 5335 C 488.206 -1.70007 -0.0561303 0
M  V30 5336 O 489.391 -1.93906 0.106748 0
M  V30 5337 C 486.521 -3.41996 0.604663 0
M  V30 5338 C 485.475 -3.95699 1.63115 0
M  V30 5339 C 484.801 -5.23936 1.0675 0
M  V30 5340 C 486.101 -4.25999 3.02196 0
M  V30 5341 H 487.795 -2.27054 1.95158 0
M  V30 5342 H 485.341 -1.09111 0.939727 0
M  V30 5343 H 487.294 -4.1899 0.45002 0
M  V30 5344 H 486.018 -3.24626 -0.35855 0
M  V30 5345 H 484.677 -3.2084 1.77362 0
M  V30 5346 H 484.325 -5.02909 0.0955422 0
M  V30 5347 H 484.025 -5.60833 1.75328 0
M  V30 5348 H 485.549 -6.0356 0.924516 0
M  V30 5349 H 486.963 -4.93777 2.91303 0
M  V30 5350 H 485.36 -4.74076 3.67929 0
M  V30 5351 H 486.43 -3.33636 3.51873 0
M  V30 5352 N 487.773 -1.03688 -1.18687 0
M  V30 5353 C 489.003 -0.756819 -1.92239 0
M  V30 5354 C 489.411 0.689374 -1.76194 0
M  V30 5355 O 488.754 1.48126 -1.08648 0
M  V30 5356 C 488.816 -1.03851 -3.44173 0
M  V30 5357 C 488.48 -2.47785 -3.83994 0
M  V30 5358 C 489.477 -3.4595 -3.88091 0
M  V30 5359 C 487.162 -2.82397 -4.154 0
M  V30 5360 C 489.156 -4.76779 -4.23038 0
M  V30 5361 C 486.843 -4.13433 -4.50018 0
M  V30 5362 C 487.841 -5.10434 -4.53813 0
M  V30 5363 O 487.529 -6.39122 -4.87625 0
M  V30 5364 H 487.261 -0.275678 -0.617234 0
M  V30 5365 H 489.815 -1.38658 -1.51536 0
M  V30 5366 H 488.045 -0.351612 -3.85098 0
M  V30 5367 H 489.734 -0.746846 -3.9897 0
M  V30 5368 H 490.5 -3.20549 -3.63969 0
M  V30 5369 H 486.379 -2.07568 -4.11627 0
M  V30 5370 H 489.923 -5.52488 -4.25914 0
M  V30 5371 H 485.82 -4.38604 -4.736 0
M  V30 5372 H 486.588 -6.43715 -5.05542 0
M  V30 5373 N 489.251 1.34841 -0.815825 0
M  V30 5374 C 490.498 1.98499 -0.400535 0
M  V30 5375 C 490.826 1.64699 1.03463 0
M  V30 5376 O 490.081 0.907006 1.73412 0
M  V30 5377 C 490.38 3.53273 -0.541541 0
M  V30 5378 C 490.046 4.06966 -1.94138 0
M  V30 5379 C 488.708 4.21341 -2.32433 0
M  V30 5380 C 491.06 4.35933 -2.85677 0
M  V30 5381 C 488.388 4.62007 -3.61617 0
M  V30 5382 C 490.74 4.78042 -4.14317 0
M  V30 5383 C 489.404 4.90622 -4.52599 0
M  V30 5384 H 488.674 0.72636 -0.146566 0
M  V30 5385 H 491.321 1.60902 -1.0384 0
M  V30 5386 H 489.626 3.91387 0.179741 0
M  V30 5387 H 491.323 4.00497 -0.20085 0
M  V30 5388 H 487.913 3.96235 -1.63388 0
M  V30 5389 H 492.097 4.24372 -2.57337 0
M  V30 5390 H 487.353 4.69937 -3.91113 0
M  V30 5391 H 491.527 4.99415 -4.85342 0
M  V30 5392 H 489.154 5.2189 -5.52752 0
M  V30 5393 N 490.729 0.570148 1.46925 0
M  V30 5394 C 491.692 -0.159933 2.28641 0
M  V30 5395 C 492.692 -0.830638 1.37685 0
M  V30 5396 O 493.882 -0.684516 1.60187 0
M  V30 5397 C 491.014 -1.2354 3.17727 0
M  V30 5398 H 492.207 0.558035 2.94662 0
M  V30 5399 H 489.76 0.327603 1.52828 0
M  V30 5400 H 490.495 -1.98535 2.56426 0
M  V30 5401 H 490.28 -0.759125 3.84681 0
M  V30 5402 H 491.77 -1.74782 3.79264 0
M  V30 5403 N 492.207 -1.54576 0.307264 0
M  V30 5404 C 493.453 -2.01272 -0.293453 0
M  V30 5405 C 493.808 -1.19178 -1.51044 0
M  V30 5406 O 493.101 -0.261704 -1.89804 0
M  V30 5407 C 493.295 -3.50572 -0.695253 0
M  V30 5408 C 493.124 -4.47118 0.481249 0
M  V30 5409 C 491.894 -4.958 0.97524 0
M  V30 5410 C 494.092 -4.96853 1.32823 0
M  V30 5411 N 492.074 -5.76212 2.11785 0
M  V30 5412 C 493.445 -5.75028 2.31824 0
M  V30 5413 C 495.5 -4.79026 1.35788 0
M  V30 5414 C 494.203 -6.37276 3.33574 0
M  V30 5415 C 496.229 -5.42097 2.364 0
M  V30 5416 C 495.591 -6.2011 3.34129 0
M  V30 5417 H 491.69 -0.778709 -0.0716705 0
M  V30 5418 H 494.274 -1.89695 0.438602 0
M  V30 5419 H 492.445 -3.62427 -1.39647 0
M  V30 5420 H 494.177 -3.84056 -1.27604 0
M  V30 5421 H 490.932 -4.70405 0.549184 0
M  V30 5422 H 491.356 -6.21101 2.69375 0
M  V30 5423 H 495.998 -4.18288 0.616021 0
M  V30 5424 H 493.716 -6.97144 4.08676 0
M  V30 5425 H 497.302 -5.30229 2.39475 0
M  V30 5426 H 496.182 -6.68049 4.10707 0
M  V30 5427 N 493.685 -0.035106 -1.57561 0
M  V30 5428 C 494.615 0.942993 -2.13612 0
M  V30 5429 C 495.596 1.33531 -1.05373 0
M  V30 5430 O 496.781 1.41287 -1.33235 0
M  V30 5431 C 493.911 2.22332 -2.66807 0
M  V30 5432 C 492.865 1.97156 -3.79886 0
M  V30 5433 C 492.191 3.31506 -4.19533 0
M  V30 5434 C 493.491 1.30596 -5.05709 0
M  V30 5435 H 495.185 0.476179 -2.95589 0
M  V30 5436 H 492.731 0.227602 -1.4219 0
M  V30 5437 H 494.684 2.91142 -3.04654 0
M  V30 5438 H 493.408 2.7119 -1.81999 0
M  V30 5439 H 492.067 1.30763 -3.42486 0
M  V30 5440 H 491.715 3.78134 -3.31698 0
M  V30 5441 H 491.415 3.15465 -4.95738 0
M  V30 5442 H 492.939 4.01574 -4.59968 0
M  V30 5443 H 494.353 1.89416 -5.41105 0
M  V30 5444 H 492.75 1.24934 -5.86951 0
M  V30 5445 H 493.82 0.279742 -4.84092 0
M  V30 5446 N 495.163 1.55791 0.238111 0
M  V30 5447 C 496.411 1.77681 0.963001 0
M  V30 5448 C 496.732 0.600674 1.85518 0
M  V30 5449 O 496.002 -0.383182 1.92116 0
M  V30 5450 H 494.582 0.655315 0.358568 0
M  V30 5451 H 497.244 1.93239 0.253945 0
M  V30 5452 H 496.34 2.69177 1.57956 0
M  V30 5453 N 496.642 -0.504142 1.49319 0
M  V30 5454 C 497.888 -1.26033 1.58882 0
M  V30 5455 C 498.221 -1.92268 0.273274 0
M  V30 5456 O 497.496 -1.80567 -0.72291 0
M  V30 5457 C 497.779 -2.32976 2.7458 0
M  V30 5458 C 497.632 -1.71263 4.1592 0
M  V30 5459 C 498.951 -3.34561 2.85932 0
M  V30 5460 H 496.07 -0.456863 0.578312 0
M  V30 5461 H 498.712 -0.558965 1.81592 0
M  V30 5462 H 496.862 -2.92796 2.55348 0
M  V30 5463 H 498.534 -1.15294 4.4666 0
M  V30 5464 H 496.777 -1.01686 4.21714 0
M  V30 5465 H 497.448 -2.48816 4.92742 0
M  V30 5466 H 499.924 -2.84727 3.0343 0
M  V30 5467 H 498.8 -4.06754 3.68568 0
M  V30 5468 H 499.061 -3.96695 1.95154 0
M  V30 5469 N 498.12 -1.38341 -0.754957 0
M  V30 5470 C 499.35 -1.37504 -1.54195 0
M  V30 5471 C 499.758 0.0373787 -1.89163 0
M  V30 5472 O 499.101 1.01402 -1.53178 0
M  V30 5473 C 499.163 -2.16488 -2.87008 0
M  V30 5474 C 498.827 -3.65311 -2.74585 0
M  V30 5475 C 499.824 -4.58834 -2.44474 0
M  V30 5476 C 497.509 -4.08649 -2.9208 0
M  V30 5477 C 499.503 -5.93675 -2.32011 0
M  V30 5478 C 497.19 -5.43571 -2.79237 0
M  V30 5479 C 498.188 -6.35898 -2.49245 0
M  V30 5480 O 497.876 -7.68338 -2.36458 0
M  V30 5481 H 497.608 -0.472159 -0.483779 0
M  V30 5482 H 500.162 -1.82515 -0.94221 0
M  V30 5483 H 498.392 -1.66194 -3.49166 0
M  V30 5484 H 500.081 -2.08076 -3.4851 0
M  V30 5485 H 500.847 -4.26657 -2.30627 0
M  V30 5486 H 496.726 -3.37134 -3.14422 0
M  V30 5487 H 500.27 -6.65706 -2.08522 0
M  V30 5488 H 496.167 -5.75345 -2.92657 0
M  V30 5489 H 496.935 -7.78845 -2.5168 0
M  V30 5490 N 499.598 0.982988 -1.23187 0
M  V30 5491 C 500.826 1.75921 -1.08901 0
M  V30 5492 C 501.241 1.85341 0.359719 0
M  V30 5493 O 500.598 1.33072 1.24892 0
M  V30 5494 C 500.649 3.18742 -1.70545 0
M  V30 5495 O 500.37 3.09814 -3.09753 0
M  V30 5496 C 501.871 4.1277 -1.61667 0
M  V30 5497 H 499.091 0.552166 -0.381252 0
M  V30 5498 H 501.635 1.23516 -1.62985 0
M  V30 5499 H 499.79 3.68182 -1.20501 0
M  V30 5500 H 500.204 3.99703 -3.39614 0
M  V30 5501 H 501.678 5.10697 -2.09506 0
M  V30 5502 H 502.155 4.3542 -0.575009 0
M  V30 5503 H 502.761 3.69232 -2.11064 0
M  V30 5504 N 501.076 1.04316 1.18135 0
M  V30 5505 C 502.008 0.594444 2.21357 0
M  V30 5506 C 503.021 -0.337215 1.59269 0
M  V30 5507 O 504.21 -0.131337 1.78016 0
M  V30 5508 C 501.31 -0.151251 3.38562 0
M  V30 5509 C 500.483 0.788907 4.30227 0
M  V30 5510 C 499.542 0.0860572 5.2613 0
M  V30 5511 O 498.568 0.717302 5.64662 0
M  V30 5512 N 499.77 -1.17969 5.68387 0
M  V30 5513 H 502.535 1.48227 2.60478 0
M  V30 5514 H 500.096 0.92396 1.32946 0
M  V30 5515 H 502.088 -0.631352 3.99745 0
M  V30 5516 H 500.658 -0.940639 2.98112 0
M  V30 5517 H 499.878 1.44882 3.6661 0
M  V30 5518 H 501.166 1.42738 4.88368 0
M  V30 5519 H 500.564 -1.71302 5.3914 0
M  V30 5520 H 499.121 -1.60402 6.31755 0
M  V30 5521 N 502.554 -1.34406 0.822964 0
M  V30 5522 C 503.487 -2.27407 0.190124 0
M  V30 5523 C 504.465 -1.4889 -0.653486 0
M  V30 5524 O 505.649 -1.78109 -0.617216 0
M  V30 5525 C 502.776 -3.3064 -0.734477 0
M  V30 5526 C 501.822 -4.26488 0.0316099 0
M  V30 5527 S 502.655 -5.17445 1.3788 0
M  V30 5528 C 503.811 -6.24214 0.45907 0
M  V30 5529 H 504.044 -2.80733 0.978586 0
M  V30 5530 H 501.577 -1.41455 0.618866 0
M  V30 5531 H 503.535 -3.90607 -1.26238 0
M  V30 5532 H 502.196 -2.76161 -1.49646 0
M  V30 5533 H 501.389 -4.9951 -0.671285 0
M  V30 5534 H 500.991 -3.70775 0.490066 0
M  V30 5535 H 503.283 -6.76599 -0.349357 0
M  V30 5536 H 504.226 -6.98551 1.15896 0
M  V30 5537 H 504.634 -5.6448 0.0474825 0
M  V30 5538 N 504.032 -0.577932 -1.46621 0
M  V30 5539 C 504.962 0.145917 -2.33044 0
M  V30 5540 C 505.943 0.888412 -1.45056 0
M  V30 5541 O 507.128 0.864812 -1.73881 0
M  V30 5542 C 504.258 1.16322 -3.27241 0
M  V30 5543 C 503.212 0.535868 -4.24632 0
M  V30 5544 C 502.538 1.65929 -5.08303 0
M  V30 5545 C 503.838 -0.523861 -5.19666 0
M  V30 5546 H 505.532 -0.575636 -2.93814 0
M  V30 5547 H 503.078 -0.278272 -1.41286 0
M  V30 5548 H 505.031 1.67793 -3.86553 0
M  V30 5549 H 503.755 1.91498 -2.64567 0
M  V30 5550 H 502.414 0.0422759 -3.66576 0
M  V30 5551 H 502.062 2.40061 -4.42018 0
M  V30 5552 H 501.762 1.2452 -5.74255 0
M  V30 5553 H 503.286 2.17686 -5.70478 0
M  V30 5554 H 504.7 -0.0944059 -5.73222 0
M  V30 5555 H 503.097 -0.858 -5.93935 0
M  V30 5556 H 504.167 -1.41197 -4.63887 0
M  V30 5557 N 505.51 1.54411 -0.315457 0
M  V30 5558 C 506.759 1.99599 0.290395 0
M  V30 5559 C 507.072 1.20746 1.53882 0
M  V30 5560 O 508.278 1.56272 2.22017 0
M  V30 5561 C 506.734 3.5539 0.56797 0
M  V30 5562 C 506.342 4.43068 -0.662945 0
M  V30 5563 C 508.086 4.09067 1.13422 0
M  V30 5564 C 505.993 5.90317 -0.357722 0
M  V30 5565 H 504.923 0.745592 0.112286 0
M  V30 5566 H 507.574 1.78477 -0.426418 0
M  V30 5567 H 505.956 3.72468 1.34476 0
M  V30 5568 H 507.13 4.37765 -1.43869 0
M  V30 5569 H 505.445 4.00238 -1.14884 0
M  V30 5570 H 508.042 5.16663 1.37707 0
M  V30 5571 H 508.385 3.60552 2.08106 0
M  V30 5572 H 508.918 3.95589 0.418805 0
M  V30 5573 H 505.657 6.4301 -1.27351 0
M  V30 5574 H 505.177 5.98592 0.380472 0
M  V30 5575 H 506.856 6.4699 0.0354284 0
M  V30 5576 N 506.988 0.0434614 1.5754 0
M  V30 5577 C 508.399 -0.493343 1.80064 0
M  V30 5578 C 508.75 -1.71388 0.955023 0
M  V30 5579 O 507.875 -2.15736 0.169434 0
M  V30 5580 C 508.47 -0.90179 3.26578 0
M  V30 5581 C 507.029 -1.38362 3.50047 0
M  V30 5582 C 506.176 -0.355129 2.75017 0
M  V30 5583 H 509.127 0.2694 1.56397 0
M  V30 5584 H 509.148 -1.76523 3.37075 0
M  V30 5585 H 508.66 -0.013271 3.88098 0
M  V30 5586 H 506.761 -2.29159 2.93798 0
M  V30 5587 H 506.874 -1.3811 4.58762 0
M  V30 5588 H 505.238 -0.826348 2.40922 0
M  V30 5589 H 506.021 0.525172 3.39259 0
M  V30 5590 N 508.466 -1.55915 -0.229846 0
M  V30 5591 C 509.429 -1.90914 -1.26824 0
M  V30 5592 C 510.429 -0.786999 -1.40225 0
M  V30 5593 O 511.619 -1.05484 -1.38632 0
M  V30 5594 C 508.751 -2.15264 -2.64337 0
M  V30 5595 H 509.944 -2.8378 -0.969998 0
M  V30 5596 H 507.497 -1.49069 -0.4699 0
M  V30 5597 H 508.232 -1.24923 -2.99274 0
M  V30 5598 H 508.017 -2.97005 -2.55989 0
M  V30 5599 H 509.507 -2.43467 -3.39284 0
M  V30 5600 N 509.944 0.496216 -1.49584 0
M  V30 5601 C 511.169 1.27865 -1.63295 0
M  V30 5602 C 511.594 1.85592 -0.306156 0
M  V30 5603 O 510.952 1.66092 0.726851 0
M  V30 5604 C 511 2.38128 -2.7079 0
M  V30 5605 O 510.104 3.42108 -2.30296 0
M  V30 5606 H 509.445 0.377279 -0.546403 0
M  V30 5607 H 511.975 0.593497 -1.95803 0
M  V30 5608 H 511.985 2.8382 -2.93104 0
M  V30 5609 H 510.66 1.95479 -3.67098 0
M  V30 5610 H 509.237 3.02301 -2.18331 0
M  V30 5611 N 511.423 1.38739 0.74761 0
M  V30 5612 C 512.672 1.3459 1.50228 0
M  V30 5613 C 512.985 -0.0595592 1.95509 0
M  V30 5614 O 514.191 -0.22361 2.70578 0
M  V30 5615 C 512.647 2.36377 2.71393 0
M  V30 5616 C 512.255 3.82573 2.33113 0
M  V30 5617 C 513.999 2.41281 3.49262 0
M  V30 5618 C 511.906 4.76032 3.50924 0
M  V30 5619 H 510.836 0.500312 0.564096 0
M  V30 5620 H 513.487 1.64324 0.8167 0
M  V30 5621 H 511.869 1.99694 3.41962 0
M  V30 5622 H 513.043 4.28227 1.70171 0
M  V30 5623 H 511.358 3.80844 1.68365 0
M  V30 5624 H 513.955 3.08301 4.36869 0
M  V30 5625 H 514.298 1.43353 3.9084 0
M  V30 5626 H 514.831 2.76793 2.85711 0
M  V30 5627 H 511.57 5.75177 3.14408 0
M  V30 5628 H 511.09 4.35066 4.12889 0
M  V30 5629 H 512.769 4.94331 4.17427 0
M  V30 5630 N 512.901 -0.976442 1.23707 0
M  V30 5631 C 514.147 -1.72081 1.07312 0
M  V30 5632 C 514.48 -1.90275 -0.388476 0
M  V30 5633 O 513.755 -1.4579 -1.28746 0
M  V30 5634 C 514.038 -3.11675 1.80363 0
M  V30 5635 C 513.891 -3.01027 3.3422 0
M  V30 5636 C 515.21 -4.1117 1.5693 0
M  V30 5637 H 512.329 -0.624583 0.391236 0
M  V30 5638 H 514.971 -1.13649 1.52263 0
M  V30 5639 H 513.121 -3.61559 1.42153 0
M  V30 5640 H 514.793 -2.58637 3.81975 0
M  V30 5641 H 513.036 -2.3744 3.63049 0
M  V30 5642 H 513.707 -3.9988 3.80525 0
M  V30 5643 H 516.183 -3.7011 1.90151 0
M  V30 5644 H 515.059 -5.06928 2.10513 0
M  V30 5645 H 515.32 -4.392 0.505548 0
M  V30 5646 N 514.379 -1.04941 -1.1758 0
M  V30 5647 C 515.627 -0.756492 -1.87408 0
M  V30 5648 C 515.948 0.718478 -1.81281 0
M  V30 5649 O 515.218 1.519 -1.23706 0
M  V30 5650 H 513.798 -0.276841 -0.693807 0
M  V30 5651 H 516.46 -1.32803 -1.42652 0
M  V30 5652 H 515.556 -1.06918 -2.93215 0
M  V30 5653 N 515.857 1.33968 -0.830081 0
M  V30 5654 C 517.106 1.97323 -0.417928 0
M  V30 5655 C 517.419 1.6652 1.02618 0
M  V30 5656 O 518.625 2.2342 1.54259 0
M  V30 5657 C 517.081 3.53099 -0.696359 0
M  V30 5658 C 516.689 3.92788 -2.15457 0
M  V30 5659 C 518.433 4.23049 -0.350724 0
M  V30 5660 C 516.34 5.41506 -2.37751 0
M  V30 5661 H 515.27 0.738409 -0.152541 0
M  V30 5662 H 517.921 1.52711 -1.01744 0
M  V30 5663 H 516.303 3.95991 -0.0265904 0
M  V30 5664 H 517.477 3.6098 -2.86408 0
M  V30 5665 H 515.792 3.35795 -2.46232 0
M  V30 5666 H 518.389 5.32403 -0.495036 0
M  V30 5667 H 518.732 4.10279 0.705476 0
M  V30 5668 H 519.265 3.85657 -0.975362 0
M  V30 5669 H 516.004 5.5927 -3.41903 0
M  V30 5670 H 515.524 5.74804 -1.7135 0
M  V30 5671 H 517.203 6.0828 -2.20465 0
M  V30 5672 N 517.335 0.585699 1.46312 0
M  V30 5673 C 518.584 0.0701192 2.01578 0
M  V30 5674 C 518.897 -1.29889 1.46247 0
M  V30 5675 O 520.103 -1.90598 1.93351 0
M  V30 5676 C 518.559 0.0747499 3.59822 0
M  V30 5677 C 518.167 1.44226 4.24149 0
M  V30 5678 C 519.911 -0.38673 4.22735 0
M  V30 5679 C 517.818 1.40446 5.74481 0
M  V30 5680 H 516.748 0.0224441 0.753666 0
M  V30 5681 H 519.399 0.737789 1.68015 0
M  V30 5682 H 517.781 -0.659144 3.90476 0
M  V30 5683 H 518.955 2.19612 4.05101 0
M  V30 5684 H 517.27 1.84401 3.73343 0
M  V30 5685 H 519.867 -0.433853 5.32937 0
M  V30 5686 H 520.21 -1.40489 3.91878 0
M  V30 5687 H 520.743 0.293195 3.96718 0
M  V30 5688 H 517.482 2.39952 6.10003 0
M  V30 5689 H 517.002 0.692845 5.95785 0
M  V30 5690 H 518.681 1.11865 6.37256 0
M  V30 5691 N 518.813 -1.54241 0.323641 0
M  V30 5692 C 520.059 -2.00867 -0.279323 0
M  V30 5693 C 520.392 -1.21146 -1.5178 0
M  V30 5694 O 519.667 -0.29378 -1.92269 0
M  V30 5695 C 519.95 -3.54837 -0.613387 0
M  V30 5696 C 519.803 -4.45284 0.635803 0
M  V30 5697 C 521.122 -4.16186 -1.43099 0
M  V30 5698 H 518.241 -0.730177 -0.100049 0
M  V30 5699 H 520.883 -1.84829 0.440235 0
M  V30 5700 H 519.033 -3.68634 -1.22641 0
M  V30 5701 H 520.705 -4.43357 1.27406 0
M  V30 5702 H 518.948 -4.14956 1.26466 0
M  V30 5703 H 519.619 -5.5084 0.357597 0
M  V30 5704 H 522.095 -4.05964 -0.912814 0
M  V30 5705 H 520.971 -5.24031 -1.6335 0
M  V30 5706 H 521.232 -3.69516 -2.42715 0
M  V30 5707 N 520.291 -0.0518155 -1.57515 0
M  V30 5708 C 521.538 0.621823 -1.92716 0
M  V30 5709 C 521.866 1.70813 -0.930229 0
M  V30 5710 O 521.121 1.95616 0.0573708 0
M  V30 5711 C 521.42 1.25607 -3.34601 0
M  V30 5712 C 521.086 0.297901 -4.49915 0
M  V30 5713 C 519.748 0.034243 -4.81188 0
M  V30 5714 C 522.1 -0.358738 -5.19964 0
M  V30 5715 C 519.428 -0.893479 -5.79857 0
M  V30 5716 C 521.78 -1.27466 -6.19625 0
M  V30 5717 C 520.444 -1.54698 -6.49326 0
M  V30 5718 H 519.714 0.227541 -0.705199 0
M  V30 5719 H 522.361 -0.118432 -1.91133 0
M  V30 5720 H 520.666 2.07161 -3.32553 0
M  V30 5721 H 522.363 1.78424 -3.59118 0
M  V30 5722 H 518.953 0.513581 -4.25512 0
M  V30 5723 H 523.137 -0.168133 -4.96015 0
M  V30 5724 H 518.393 -1.11193 -6.01204 0
M  V30 5725 H 522.567 -1.78953 -6.73015 0
M  V30 5726 H 520.194 -2.26748 -7.25596 0
M  V30 5727 N 521.769 1.56035 0.221574 0
M  V30 5728 C 522.699 1.95434 1.2778 0
M  V30 5729 C 523.68 0.822564 1.48889 0
M  V30 5730 O 524.865 1.08486 1.61072 0
M  V30 5731 C 521.995 2.27102 2.62759 0
M  V30 5732 C 520.949 3.4277 2.56306 0
M  V30 5733 C 520.275 3.60043 3.95314 0
M  V30 5734 C 521.575 4.77742 2.11093 0
M  V30 5735 H 523.269 2.83912 0.950504 0
M  V30 5736 H 520.815 1.36596 0.455791 0
M  V30 5737 H 522.768 2.53256 3.36807 0
M  V30 5738 H 521.492 1.35478 2.97176 0
M  V30 5739 H 520.151 3.16664 1.84715 0
M  V30 5740 H 519.799 2.65794 4.27039 0
M  V30 5741 H 519.499 4.37841 3.91879 0
M  V30 5742 H 521.023 3.88545 4.71025 0
M  V30 5743 H 522.437 5.03102 2.74885 0
M  V30 5744 H 520.834 5.58823 2.18716 0
M  V30 5745 H 521.904 4.731 1.06321 0
M  V30 5746 N 523.247 -0.488276 1.49845 0
M  V30 5747 C 524.477 -1.26344 1.63465 0
M  V30 5748 C 524.885 -1.86637 0.310379 0
M  V30 5749 O 524.228 -1.69184 -0.715712 0
M  V30 5750 C 524.29 -2.42407 2.65479 0
M  V30 5751 C 523.954 -2.02886 4.09495 0
M  V30 5752 C 524.951 -1.56124 4.95904 0
M  V30 5753 C 522.636 -2.12131 4.55308 0
M  V30 5754 C 524.63 -1.19129 6.26169 0
M  V30 5755 C 522.317 -1.74747 5.85582 0
M  V30 5756 C 523.315 -1.28322 6.70837 0
M  V30 5757 O 523.003 -0.914491 7.98682 0
M  V30 5758 H 522.735 -0.388921 0.552916 0
M  V30 5759 H 525.289 -0.591288 1.96705 0
M  V30 5760 H 523.519 -3.12739 2.27445 0
M  V30 5761 H 525.208 -3.04409 2.68495 0
M  V30 5762 H 525.974 -1.48417 4.61733 0
M  V30 5763 H 521.853 -2.47217 3.89107 0
M  V30 5764 H 525.397 -0.828211 6.92666 0
M  V30 5765 H 521.294 -1.82109 6.19279 0
M  V30 5766 H 522.062 -1.04485 8.11804 0
M  V30 5767 N 524.725 -1.39134 -0.740242 0
M  V30 5768 C 525.973 -1.35803 -1.49673 0
M  V30 5769 C 526.294 0.0470897 -1.94943 0
M  V30 5770 O 525.564 0.997347 -1.68611 0
M  V30 5771 H 524.144 -0.499736 -0.555224 0
M  V30 5772 H 526.806 -1.73947 -0.879107 0
M  V30 5773 H 525.902 -2.0174 -2.38133 0
M  V30 5774 N 526.204 0.969867 -1.24223 0
M  V30 5775 C 527.444 1.72754 -1.0925 0
M  V30 5776 C 527.808 1.88541 0.362787 0
M  V30 5777 O 529.009 2.61217 0.633969 0
M  V30 5778 C 527.28 3.08204 -1.80957 0
M  V30 5779 S 528.839 3.99418 -1.81688 0
M  V30 5780 H 525.657 0.593981 -0.390778 0
M  V30 5781 H 528.259 1.15792 -1.5752 0
M  V30 5782 H 526.963 2.94372 -2.85961 0
M  V30 5783 H 526.494 3.70232 -1.33012 0
M  V30 5784 H 528.509 4.8828 -0.883001 0
M  V30 5785 N 527.682 1.05563 1.17022 0
M  V30 5786 C 528.645 0.664098 2.19368 0
M  V30 5787 C 529.645 -0.286358 1.5823 0
M  V30 5788 O 530.835 -0.069728 1.7406 0
M  V30 5789 C 527.967 -0.0239932 3.40892 0
M  V30 5790 H 529.16 1.57 2.55521 0
M  V30 5791 H 526.713 0.849964 1.31169 0
M  V30 5792 H 527.448 -0.942988 3.10287 0
M  V30 5793 H 527.233 0.659351 3.86516 0
M  V30 5794 H 528.723 -0.283909 4.16634 0
M  V30 5795 N 529.16 -1.33526 0.837174 0
M  V30 5796 C 530.388 -2.02047 0.445494 0
M  V30 5797 C 530.803 -1.62995 -0.952788 0
M  V30 5798 O 530.16 -0.842447 -1.61892 0
M  V30 5799 C 530.211 -3.57221 0.554577 0
M  V30 5800 O 529.932 -3.94863 1.89776 0
M  V30 5801 C 531.433 -4.43012 0.159634 0
M  V30 5802 H 528.653 -0.647221 0.177048 0
M  V30 5803 H 531.197 -1.70492 1.12928 0
M  V30 5804 H 529.352 -3.87315 -0.0812781 0
M  V30 5805 H 529.766 -4.89569 1.88208 0
M  V30 5806 H 531.24 -5.51253 0.28701 0
M  V30 5807 H 531.717 -4.29916 -0.898289 0
M  V30 5808 H 532.323 -4.18274 0.769855 0
M  V30 5809 N 530.638 -0.59345 -1.46 0
M  V30 5810 C 531.571 0.182196 -2.27472 0
M  V30 5811 C 532.549 0.886901 -1.36282 0
M  V30 5812 O 533.733 0.898627 -1.65701 0
M  V30 5813 C 530.86 1.26236 -3.14296 0
M  V30 5814 C 529.906 0.662331 -4.21326 0
M  V30 5815 S 530.739 -0.519017 -5.32979 0
M  V30 5816 C 531.895 0.562086 -6.23371 0
M  V30 5817 H 532.128 -0.509056 -2.92909 0
M  V30 5818 H 529.661 -0.380607 -1.49635 0
M  V30 5819 H 531.619 1.88075 -3.64881 0
M  V30 5820 H 530.28 1.92562 -2.48151 0
M  V30 5821 H 529.473 1.47461 -4.81945 0
M  V30 5822 H 529.075 0.119381 -3.73809 0
M  V30 5823 H 531.367 1.44494 -6.61912 0
M  V30 5824 H 532.31 -0.00760776 -7.081 0
M  V30 5825 H 532.718 0.871061 -5.57739 0
M  V30 5826 N 532.116 1.54067 -0.331816 0
M  V30 5827 C 533.393 1.92915 0.322955 0
M  V30 5828 C 533.773 1.26225 1.69205 0
M  V30 5829 O 533.121 0.408919 2.24811 0
M  V30 5830 C 533.331 3.46619 0.406946 0
M  V30 5831 C 534.679 4.19386 0.663339 0
M  V30 5832 O 535.703 3.5282 0.489536 0
M  V30 5833 O 534.562 5.37288 0.999193 0
M  V30 5834 H 531.656 0.805808 0.186016 0
M  V30 5835 H 534.202 1.65342 -0.382135 0
M  V30 5836 H 532.974 3.87354 -0.554287 0
M  V30 5837 H 532.597 3.80324 1.15929 0
M  V30 5838 N 533.594 0.0601682 1.57485 0
M  V30 5839 C 534.504 -0.926121 2.15546 0
M  V30 5840 C 535.52 -1.33532 1.11558 0
M  V30 5841 O 536.696 -1.4104 1.4377 0
M  V30 5842 C 533.761 -2.17952 2.69625 0
M  V30 5843 C 532.822 -1.82783 3.88444 0
M  V30 5844 C 532.055 -3.02148 4.39935 0
M  V30 5845 O 532.278 -4.15803 3.90466 0
M  V30 5846 O 531.212 -2.82639 5.31412 0
M  V30 5847 H 535.038 -0.462289 3.00161 0
M  V30 5848 H 532.623 -0.162246 1.48516 0
M  V30 5849 H 534.505 -2.91474 3.04337 0
M  V30 5850 H 533.18 -2.63456 1.88077 0
M  V30 5851 H 532.087 -1.06549 3.58606 0
M  V30 5852 H 533.42 -1.42072 4.7125 0
M  V30 5853 N 535.072 -1.5615 -0.213296 0
M  V30 5854 C 536.02 -1.93953 -1.28394 0
M  V30 5855 C 537.014 -0.822592 -1.48087 0
M  V30 5856 O 538.22 -1.00748 -1.49164 0
M  V30 5857 H 534.595 -0.61648 -0.430646 0
M  V30 5858 H 536.566 -2.83275 -0.937977 0
M  V30 5859 C 535.315 -2.27969 -2.62537 0
M  V30 5860 H 534.638 -3.13432 -2.48194 0
M  V30 5861 H 536.078 -2.58297 -3.36242 0
M  V30 5862 C 534.537 -1.10775 -3.18167 0
M  V30 5863 O 535.067 -0.373201 -3.99963 0
M  V30 5864 N 533.273 -0.889377 -2.76656 0
M  V30 5865 H 532.82 -1.48843 -2.10246 0
M  V30 5866 H 532.778 -0.107 -3.14218 0
M  V30 5867 N 536.55 0.480323 -1.50102 0
M  V30 5868 C 537.799 1.22979 -1.59872 0
M  V30 5869 C 538.112 1.93282 -0.30022 0
M  V30 5870 O 539.318 2.70086 -0.276709 0
M  V30 5871 C 537.774 2.23408 -2.82164 0
M  V30 5872 C 537.382 1.5895 -4.18854 0
M  V30 5873 C 539.126 2.99055 -3.01275 0
M  V30 5874 C 537.033 2.57611 -5.32344 0
M  V30 5875 H 535.963 0.462707 -0.59533 0
M  V30 5876 H 538.614 0.501291 -1.7652 0
M  V30 5877 H 536.996 2.99511 -2.59055 0
M  V30 5878 H 538.17 0.887 -4.52182 0
M  V30 5879 H 536.485 0.956191 -4.05273 0
M  V30 5880 H 539.082 3.72876 -3.83233 0
M  V30 5881 H 539.425 3.57897 -2.12639 0
M  V30 5882 H 539.958 2.30066 -3.24522 0
M  V30 5883 H 536.697 2.03521 -6.23105 0
M  V30 5884 H 536.217 3.26041 -5.03445 0
M  V30 5885 H 537.896 3.19627 -5.62537 0
M  V30 5886 N 538.028 1.39524 0.732853 0
M  V30 5887 C 539.439 1.32905 1.31122 0
M  V30 5888 C 539.79 -0.00558708 1.96199 0
M  V30 5889 O 538.915 -0.907706 1.96443 0
M  V30 5890 C 539.51 2.40704 2.38426 0
M  V30 5891 C 538.069 2.37599 2.91931 0
M  V30 5892 C 537.216 2.2248 1.65523 0
M  V30 5893 H 540.167 1.49581 0.530207 0
M  V30 5894 H 540.188 2.07616 3.18867 0
M  V30 5895 H 539.7 3.37829 1.91033 0
M  V30 5896 H 537.801 1.44119 3.43599 0
M  V30 5897 H 537.914 3.32538 3.44899 0
M  V30 5898 H 536.278 1.69691 1.8994 0
M  V30 5899 H 537.061 3.21577 1.20178 0
M  V30 5900 N 539.506 -0.963266 1.24736 0
M  V30 5901 C 540.731 -1.74699 1.11781 0
M  V30 5902 C 541.156 -1.85267 -0.325258 0
M  V30 5903 O 540.514 -1.32681 -1.23553 0
M  V30 5904 C 540.562 -3.14322 1.76731 0
M  V30 5905 O 539.666 -3.99043 1.04109 0
M  V30 5906 H 539.007 -0.53684 0.390767 0
M  V30 5907 H 541.537 -1.20801 1.65131 0
M  V30 5908 H 541.547 -3.64824 1.82668 0
M  V30 5909 H 540.222 -3.05946 2.81726 0
M  V30 5910 H 538.799 -3.5752 1.05991 0
M  V30 5911 N 540.985 -1.06182 -1.16461 0
M  V30 5912 C 541.918 -0.615859 -2.19733 0
M  V30 5913 C 542.896 0.360766 -1.58547 0
M  V30 5914 O 544.08 0.270009 -1.86556 0
M  V30 5915 C 541.207 0.097312 -3.3856 0
M  V30 5916 C 540.253 -0.835889 -4.18229 0
M  V30 5917 S 541.086 -2.33052 -4.82128 0
M  V30 5918 C 542.242 -1.62881 -6.04335 0
M  V30 5919 H 542.475 -1.49079 -2.57221 0
M  V30 5920 H 540.008 -0.874692 -1.27234 0
M  V30 5921 H 541.966 0.502563 -4.07412 0
M  V30 5922 H 540.627 0.948418 -2.99439 0
M  V30 5923 H 539.82 -0.283426 -5.03202 0
M  V30 5924 H 539.422 -1.18097 -3.54865 0
M  V30 5925 H 541.714 -0.933764 -6.71034 0
M  V30 5926 H 542.657 -2.45641 -6.64128 0
M  V30 5927 H 543.065 -1.11189 -5.53441 0
M  V30 5928 N 542.463 1.3308 -0.844243 0
M  V30 5929 C 543.373 2.32876 -0.283922 0
M  V30 5930 C 544.389 1.63589 0.592846 0
M  V30 5931 O 545.565 1.95205 0.495693 0
M  V30 5932 C 542.63 3.42667 0.527283 0
M  V30 5933 C 541.691 4.27664 -0.374394 0
M  V30 5934 C 540.924 5.32212 0.39819 0
M  V30 5935 O 541.147 5.46635 1.62932 0
M  V30 5936 O 540.081 6.01458 -0.2306 0
M  V30 5937 H 543.907 2.82671 -1.11045 0
M  V30 5938 H 541.492 1.36518 -0.606903 0
M  V30 5939 H 543.374 4.09652 0.988078 0
M  V30 5940 H 542.049 2.95079 1.33078 0
M  V30 5941 H 540.956 3.63526 -0.883144 0
M  V30 5942 H 542.289 4.78749 -1.1428 0
M  V30 5943 N 543.941 0.601185 1.45683 0
M  V30 5944 C 544.874 -0.17013 2.27565 0
M  V30 5945 C 545.852 -0.879661 1.36751 0
M  V30 5946 O 547.036 -0.889827 1.66176 0
M  V30 5947 C 544.163 -1.24568 3.14961 0
M  V30 5948 C 543.209 -0.639978 4.21671 0
M  V30 5949 S 544.042 0.547275 5.32696 0
M  V30 5950 C 545.198 -0.529019 6.2366 0
M  V30 5951 H 545.431 0.524583 2.92635 0
M  V30 5952 H 542.964 0.388537 1.49431 0
M  V30 5953 H 544.922 -1.86138 3.65873 0
M  V30 5954 H 543.583 -1.91243 2.49169 0
M  V30 5955 H 542.776 -1.44903 4.8272 0
M  V30 5956 H 542.378 -0.0995558 3.73867 0
M  V30 5957 H 544.67 -1.40981 6.62669 0
M  V30 5958 H 545.613 0.0451599 7.08086 0
M  V30 5959 H 546.021 -0.84147 5.58193 0
M  V30 5960 N 545.419 -1.53889 0.339982 0
M  V30 5961 C 546.659 -2.02765 -0.258011 0
M  V30 5962 C 547.023 -1.22249 -1.48051 0
M  V30 5963 O 548.224 -1.61007 -2.15245 0
M  V30 5964 C 546.495 -3.5286 -0.567872 0
M  V30 5965 S 548.054 -4.23647 -1.14318 0
M  V30 5966 H 544.872 -0.706814 -0.0770389 0
M  V30 5967 H 547.474 -1.89594 0.476917 0
M  V30 5968 H 546.178 -4.09073 0.329745 0
M  V30 5969 H 545.709 -3.70144 -1.33256 0
M  V30 5970 H 547.724 -4.32676 -2.42911 0
M  V30 5971 N 546.897 -0.0685191 -1.57451 0
M  V30 5972 C 548.174 0.642167 -1.84758 0
M  V30 5973 C 548.554 1.87991 -0.960344 0
M  V30 5974 O 547.902 2.28485 -0.0257894 0
M  V30 5975 C 548.112 0.982946 -3.34872 0
M  V30 5976 C 549.46 1.35784 -4.02303 0
M  V30 5977 O 550.484 1.07477 -3.39598 0
M  V30 5978 O 549.343 1.88681 -5.12895 0
M  V30 5979 H 546.437 0.318625 -0.763156 0
M  V30 5980 H 548.983 -0.0992015 -1.6941 0
M  V30 5981 H 547.755 0.10372 -3.91163 0
M  V30 5982 H 547.378 1.78119 -3.55471 0
M  V30 5983 N 548.375 1.56261 0.205012 0
M  V30 5984 C 549.307 1.90266 1.27795 0
M  V30 5985 C 550.32 0.792397 1.42214 0
M  V30 5986 O 551.509 1.07077 1.42817 0
M  V30 5987 C 548.609 2.11074 2.65143 0
M  V30 5988 C 547.782 3.42176 2.7246 0
M  V30 5989 C 546.841 3.52216 3.90936 0
M  V30 5990 O 545.867 4.25119 3.78501 0
M  V30 5991 N 547.069 2.84573 5.05963 0
M  V30 5992 H 549.834 2.82896 0.989434 0
M  V30 5993 H 547.395 1.57008 0.394981 0
M  V30 5994 H 549.387 2.15089 3.4281 0
M  V30 5995 H 547.957 1.2499 2.86524 0
M  V30 5996 H 547.177 3.50116 1.81142 0
M  V30 5997 H 548.465 4.28509 2.74331 0
M  V30 5998 H 547.863 2.25152 5.18963 0
M  V30 5999 H 546.42 2.94228 5.81613 0
M  V30 6000 N 549.853 -0.472356 1.50355 0
M  V30 6001 C 551.269 -0.806001 1.37753 0
M  V30 6002 C 551.469 -1.968 0.432649 0
M  V30 6003 O 550.525 -2.52189 -0.12519 0
M  V30 6004 C 551.838 -1.11926 2.79093 0
M  V30 6005 C 553.386 -1.22579 2.87999 0
M  V30 6006 C 553.861 -1.57218 4.3017 0
M  V30 6007 N 555.352 -1.64212 4.33115 0
M  V30 6008 C 556.087 -1.92517 5.40116 0
M  V30 6009 N 555.583 -2.1885 6.57325 0
M  V30 6010 N 557.376 -1.94008 5.27558 0
M  V30 6011 H 549.527 0.293451 2.10363 0
M  V30 6012 H 551.79 0.0687672 0.945503 0
M  V30 6013 H 551.496 -0.338504 3.50067 0
M  V30 6014 H 551.37 -2.05577 3.16256 0
M  V30 6015 H 553.757 -1.99722 2.17245 0
M  V30 6016 H 553.838 -0.269107 2.54381 0
M  V30 6017 H 553.482 -0.806154 5.01461 0
M  V30 6018 H 553.412 -2.54034 4.61275 0
M  V30 6019 H 555.903 -1.45906 3.48597 0
M  V30 6020 H 556.216 -2.39718 7.3468 0
M  V30 6021 H 554.561 -2.16245 6.60502 0
M  V30 6022 H 557.752 -1.72931 4.34986 0
M  V30 6023 H 557.925 -2.15731 6.11035 0
M  V30 6024 N 551.331 -1.39911 -0.725443 0
M  V30 6025 C 552.281 -1.35878 -1.83088 0
M  V30 6026 C 553.265 -0.237989 -1.5913 0
M  V30 6027 O 554.457 -0.476302 -1.70471 0
M  V30 6028 C 551.586 -1.21403 -3.21117 0
M  V30 6029 C 550.672 -2.38223 -3.50871 0
M  V30 6030 N 551.063 -3.63703 -3.51502 0
M  V30 6031 C 549.361 -2.31388 -3.81281 0
M  V30 6032 C 550.062 -4.4101 -3.79322 0
M  V30 6033 N 549.038 -3.7072 -3.97577 0
M  V30 6034 H 552.84 -2.3085 -1.81895 0
M  V30 6035 H 550.354 -1.33543 -0.924125 0
M  V30 6036 H 552.351 -1.16597 -4.00263 0
M  V30 6037 H 551.011 -0.273902 -3.23543 0
M  V30 6038 H 552.022 -3.96998 -3.32586 0
M  V30 6039 H 548.699 -1.45689 -3.91256 0
M  V30 6040 H 550.089 -5.49819 -3.86198 0
M  V30 6041 N 552.809 0.956637 -1.25245 0
M  V30 6042 C 553.757 2.0743 -1.0524 0
M  V30 6043 C 554.751 1.69392 0.0160725 0
M  V30 6044 O 555.957 1.7946 -0.139382 0
M  V30 6045 H 552.332 0.678921 -0.323373 0
M  V30 6046 H 554.303 2.2146 -1.99995 0
M  V30 6047 C 553.052 3.40872 -0.685702 0
M  V30 6048 H 552.375 3.70607 -1.49968 0
M  V30 6049 H 553.815 4.19939 -0.585415 0
M  V30 6050 C 552.274 3.31367 0.608082 0
M  V30 6051 O 552.804 3.66214 1.65076 0
M  V30 6052 N 551.01 2.84486 0.592955 0
M  V30 6053 H 550.557 2.56326 -0.25592 0
M  V30 6054 H 550.515 2.78509 1.45877 0
M  V30 6055 N 554.287 1.06798 1.15896 0
M  V30 6056 C 555.536 0.782796 1.8589 0
M  V30 6057 C 555.849 -0.693498 1.82893 0
M  V30 6058 O 557.055 -1.09325 2.48516 0
M  V30 6059 C 555.511 1.3502 3.33613 0
M  V30 6060 C 555.119 2.8571 3.45071 0
M  V30 6061 C 556.863 1.14278 4.08829 0
M  V30 6062 C 554.77 3.35669 4.86909 0
M  V30 6063 H 553.7 0.289149 0.696354 0
M  V30 6064 H 556.351 1.28734 1.30766 0
M  V30 6065 H 554.733 0.773407 3.88374 0
M  V30 6066 H 555.907 3.49385 3.00445 0
M  V30 6067 H 554.222 3.05178 2.83294 0
M  V30 6068 H 556.819 1.49087 5.13495 0
M  V30 6069 H 557.162 0.0814575 4.1622 0
M  V30 6070 H 557.695 1.68563 3.60321 0
M  V30 6071 H 554.434 4.41302 4.84698 0
M  V30 6072 H 553.954 2.76745 5.32139 0
M  V30 6073 H 555.633 3.31296 5.55745 0
M  V30 6074 N 555.766 -1.3263 0.851289 0
M  V30 6075 C 556.994 -2.01563 0.466899 0
M  V30 6076 C 557.409 -1.63996 -0.935447 0
M  V30 6077 O 556.766 -0.85957 -1.6099 0
M  V30 6078 C 556.817 -3.56613 0.592433 0
M  V30 6079 O 556.538 -3.92828 1.93954 0
M  V30 6080 C 558.039 -4.42818 0.206612 0
M  V30 6081 H 555.259 -0.645307 0.183902 0
M  V30 6082 H 557.803 -1.69285 1.1473 0
M  V30 6083 H 555.958 -3.87379 -0.0401936 0
M  V30 6084 H 556.372 -4.87545 1.9339 0
M  V30 6085 H 557.846 -5.50918 0.345462 0
M  V30 6086 H 558.323 -4.30844 -0.85264 0
M  V30 6087 H 558.929 -4.17434 0.814176 0
M  V30 6088 N 557.244 -0.608902 -1.45362 0
M  V30 6089 C 558.177 0.158059 -2.27652 0
M  V30 6090 C 559.155 0.872397 -1.37215 0
M  V30 6091 O 560.339 0.881002 -1.66645 0
M  V30 6092 C 557.466 1.22896 -3.15617 0
M  V30 6093 C 556.512 0.617607 -4.22005 0
M  V30 6094 S 557.345 -0.575518 -5.32398 0
M  V30 6095 C 558.501 0.495938 -6.23932 0
M  V30 6096 H 558.734 -0.540095 -2.92353 0
M  V30 6097 H 556.267 -0.396456 -1.49223 0
M  V30 6098 H 558.225 1.84195 -3.66855 0
M  V30 6099 H 556.886 1.89919 -2.50179 0
M  V30 6100 H 556.079 1.42341 -4.83482 0
M  V30 6101 H 555.681 0.0797273 -3.73915 0
M  V30 6102 H 557.973 1.37465 -6.63408 0
M  V30 6103 H 558.916 -0.0827108 -7.08052 0
M  V30 6104 H 559.324 0.811856 -5.58631 0
M  V30 6105 N 558.722 1.53707 -0.348139 0
M  V30 6106 C 559.962 2.02899 0.247254 0
M  V30 6107 C 560.326 1.23033 1.47401 0
M  V30 6108 O 561.527 1.62146 2.14388 0
M  V30 6109 C 559.798 3.53156 0.549151 0
M  V30 6110 S 561.357 4.24247 1.1207 0
M  V30 6111 H 558.175 0.707213 0.0732894 0
M  V30 6112 H 560.777 1.89338 -0.486965 0
M  V30 6113 H 559.481 4.08893 -0.351435 0
M  V30 6114 H 559.012 3.70845 1.31291 0
M  V30 6115 H 561.027 4.33958 2.40613 0
M  V30 6116 N 560.2 0.0768682 1.57412 0
M  V30 6117 C 561.611 -0.455037 1.8107 0
M  V30 6118 C 561.962 -1.69323 0.991162 0
M  V30 6119 O 561.087 -2.15328 0.215156 0
M  V30 6120 C 561.682 -0.832316 3.28417 0
M  V30 6121 C 560.241 -1.30906 3.52903 0
M  V30 6122 C 559.388 -0.296714 2.75708 0
M  V30 6123 H 562.339 0.302514 1.5579 0
M  V30 6124 H 562.36 -1.69333 3.40744 0
M  V30 6125 H 561.872 0.0690532 3.88039 0
M  V30 6126 H 559.973 -2.22875 2.98592 0
M  V30 6127 H 560.086 -1.28348 4.61588 0
M  V30 6128 H 558.45 -0.775059 2.42621 0
M  V30 6129 H 559.233 0.597015 3.38069 0
M  V30 6130 N 561.678 -1.56367 -0.196722 0
M  V30 6131 C 562.608 -1.97442 -1.24655 0
M  V30 6132 C 563.589 -0.846147 -1.47561 0
M  V30 6133 O 564.774 -1.11035 -1.59326 0
M  V30 6134 C 561.904 -2.31253 -2.59112 0
M  V30 6135 C 560.858 -3.46804 -2.50821 0
M  V30 6136 C 560.184 -3.66286 -3.89536 0
M  V30 6137 C 561.484 -4.8104 -2.03465 0
M  V30 6138 H 563.178 -2.85388 -0.905216 0
M  V30 6139 H 560.724 -1.37304 -0.434002 0
M  V30 6140 H 562.677 -2.58583 -3.32736 0
M  V30 6141 H 561.401 -1.40188 -2.94983 0
M  V30 6142 H 560.06 -3.19563 -1.79653 0
M  V30 6143 H 559.708 -2.72555 -4.22756 0
M  V30 6144 H 559.408 -4.4402 -3.84864 0
M  V30 6145 H 560.932 -3.9599 -4.64784 0
M  V30 6146 H 562.346 -5.07411 -2.66846 0
M  V30 6147 H 560.743 -5.62232 -2.09798 0
M  V30 6148 H 561.813 -4.74732 -0.98781 0
M  V30 6149 N 563.156 0.464375 -1.50603 0
M  V30 6150 C 564.396 1.22573 -1.6357 0
M  V30 6151 C 564.76 1.89111 -0.331834 0
M  V30 6152 O 565.961 2.66679 -0.336999 0
M  V30 6153 C 564.232 2.23643 -2.7878 0
M  V30 6154 S 565.791 3.08628 -3.1192 0
M  V30 6155 H 562.609 0.416058 -0.576556 0
M  V30 6156 H 565.211 0.521637 -1.88412 0
M  V30 6157 H 563.915 1.73354 -3.7199 0
M  V30 6158 H 563.446 2.98672 -2.56044 0
M  V30 6159 H 565.461 4.24904 -2.56264 0
M  V30 6160 N 564.634 1.40294 0.718013 0
M  V30 6161 C 565.911 1.2894 1.47084 0
M  V30 6162 C 566.291 -0.0933625 2.10893 0
M  V30 6163 O 565.639 -1.10598 1.99951 0
M  V30 6164 C 565.849 2.4264 2.50852 0
M  V30 6165 C 567.197 2.8276 3.16752 0
M  V30 6166 O 568.221 2.42215 2.61171 0
M  V30 6167 O 567.08 3.528 4.17366 0
M  V30 6168 H 564.174 0.506236 0.653952 0
M  V30 6169 H 566.72 1.52208 0.750394 0
M  V30 6170 H 565.492 3.35009 2.022 0
M  V30 6171 H 565.115 2.21129 3.30435 0
M  V30 6172 N 566.112 -0.949982 1.2575 0
M  V30 6173 C 567.059 -2.04738 1.06541 0
M  V30 6174 C 568.029 -1.66078 -0.0268818 0
M  V30 6175 O 569.214 -1.90348 0.131196 0
M  V30 6176 C 566.354 -3.38027 0.695127 0
M  V30 6177 C 565.467 -3.89776 1.86276 0
M  V30 6178 C 564.602 -5.11411 1.4364 0
M  V30 6179 C 563.641 -5.554 2.57287 0
M  V30 6180 N 562.778 -6.68244 2.15395 0
M  V30 6181 H 567.618 -2.20502 2.00457 0
M  V30 6182 H 565.155 -1.0805 0.998178 0
M  V30 6183 H 567.113 -4.14641 0.461375 0
M  V30 6184 H 565.743 -3.22135 -0.207046 0
M  V30 6185 H 564.795 -3.0964 2.20969 0
M  V30 6186 H 566.107 -4.18368 2.71606 0
M  V30 6187 H 565.261 -5.95457 1.16257 0
M  V30 6188 H 564 -4.84545 0.553879 0
M  V30 6189 H 563.005 -4.69916 2.85409 0
M  V30 6190 H 564.23 -5.84272 3.46125 0
M  V30 6191 H 562.176 -6.43078 1.29565 0
M  V30 6192 H 562.093 -6.96377 2.94272 0
M  V30 6193 H 563.361 -7.55687 1.91201 0
M  V30 6194 N 567.59 -1.07411 -1.15328 0
M  V30 6195 C 568.818 -0.818782 -1.90009 0
M  V30 6196 C 569.233 0.628072 -1.78047 0
M  V30 6197 O 568.59 1.43085 -1.13282 0
M  V30 6198 C 568.641 -1.21874 -3.40337 0
M  V30 6199 O 568.362 -2.60883 -3.51954 0
M  V30 6200 C 569.863 -0.992796 -4.3204 0
M  V30 6201 H 567.083 -0.296007 -0.60218 0
M  V30 6202 H 569.627 -1.43073 -1.46117 0
M  V30 6203 H 567.782 -0.651103 -3.81889 0
M  V30 6204 H 568.196 -2.77216 -4.45255 0
M  V30 6205 H 569.67 -1.32215 -5.35932 0
M  V30 6206 H 570.147 0.0708331 -4.39143 0
M  V30 6207 H 570.753 -1.54537 -3.9623 0
M  V30 6208 N 569.068 1.32177 -0.85831 0
M  V30 6209 C 570.308 1.98927 -0.469822 0
M  V30 6210 C 570.672 1.66423 0.95746 0
M  V30 6211 O 571.873 2.26293 1.45069 0
M  V30 6212 C 570.144 3.50352 -0.706288 0
M  V30 6213 S 571.703 4.36824 -0.415918 0
M  V30 6214 H 568.521 0.688909 -0.175855 0
M  V30 6215 H 571.123 1.60807 -1.11181 0
M  V30 6216 H 569.827 3.71497 -1.74407 0
M  V30 6217 H 569.358 3.93367 -0.0508568 0
M  V30 6218 H 571.373 4.90398 0.756581 0
M  V30 6219 N 570.547 0.616602 1.45037 0
M  V30 6220 C 571.772 0.120192 2.07051 0
M  V30 6221 C 572.197 -1.19008 1.45666 0
M  V30 6222 O 571.555 -1.7267 0.552692 0
M  V30 6223 C 571.603 0.00354901 3.606 0
M  V30 6224 O 570.707 -1.04431 3.98958 0
M  V30 6225 H 570.048 0.0781599 0.659384 0
M  V30 6226 H 572.578 0.849167 1.86146 0
M  V30 6227 H 572.588 -0.191754 4.07549 0
M  V30 6228 H 571.263 0.960239 4.04663 0
M  V30 6229 H 569.84 -0.824749 3.63665 0
M  V30 6230 N 572.025 -1.5352 0.356285 0
M  V30 6231 C 573.255 -2.05236 -0.236983 0
M  V30 6232 C 573.663 -1.23016 -1.43749 0
M  V30 6233 O 573.006 -0.2615 -1.81829 0
M  V30 6234 C 573.068 -3.52549 -0.7035 0
M  V30 6235 C 572.732 -4.55425 0.379059 0
M  V30 6236 C 573.729 -5.0524 1.22592 0
M  V30 6237 C 571.414 -4.99425 0.536638 0
M  V30 6238 C 573.408 -5.97647 2.21578 0
M  V30 6239 C 571.095 -5.9164 1.52988 0
M  V30 6240 C 572.093 -6.4064 2.3679 0
M  V30 6241 O 571.781 -7.31039 3.34421 0
M  V30 6242 H 571.513 -0.674346 -0.047254 0
M  V30 6243 H 574.067 -1.98962 0.510238 0
M  V30 6244 H 572.297 -3.56331 -1.50217 0
M  V30 6245 H 573.986 -3.87171 -1.21873 0
M  V30 6246 H 574.752 -4.72002 1.11532 0
M  V30 6247 H 570.631 -4.60879 -0.105834 0
M  V30 6248 H 574.175 -6.35816 2.87025 0
M  V30 6249 H 570.072 -6.24293 1.64099 0
M  V30 6250 H 570.84 -7.49009 3.30041 0
M  V30 6251 N 573.503 -0.0852151 -1.57369 0
M  V30 6252 C 574.749 0.575588 -1.95086 0
M  V30 6253 C 575.104 1.66402 -0.96582 0
M  V30 6254 O 574.397 1.91598 0.00978463 0
M  V30 6255 C 574.591 1.18482 -3.3719 0
M  V30 6256 C 574.42 0.156928 -4.49426 0
M  V30 6257 C 573.19 -0.263126 -5.04614 0
M  V30 6258 C 575.388 -0.611068 -5.10657 0
M  V30 6259 N 573.37 -1.28032 -6.00401 0
M  V30 6260 C 574.741 -1.48036 -6.02068 0
M  V30 6261 C 576.796 -0.665669 -4.9343 0
M  V30 6262 C 575.499 -2.39943 -6.781 0
M  V30 6263 C 577.525 -1.5723 -5.70116 0
M  V30 6264 C 576.887 -2.42924 -6.61186 0
M  V30 6265 H 572.986 0.181249 -0.760705 0
M  V30 6266 H 575.57 -0.165484 -1.93995 0
M  V30 6267 H 573.741 1.89575 -3.38992 0
M  V30 6268 H 575.473 1.80718 -3.62109 0
M  V30 6269 H 572.228 0.122664 -4.73441 0
M  V30 6270 H 572.652 -1.78682 -6.52994 0
M  V30 6271 H 577.294 -0.0173214 -4.22796 0
M  V30 6272 H 575.012 -3.05807 -7.48002 0
M  V30 6273 H 578.598 -1.61956 -5.58804 0
M  V30 6274 H 577.478 -3.1194 -7.19488 0
M  V30 6275 N 574.981 1.5647 0.188427 0
M  V30 6276 C 575.928 1.95073 1.23349 0
M  V30 6277 C 576.898 0.812238 1.44886 0
M  V30 6278 O 578.083 1.07095 1.57909 0
M  V30 6279 C 575.223 2.30124 2.57171 0
M  V30 6280 C 574.336 3.57069 2.43157 0
M  V30 6281 C 573.471 3.81411 3.69729 0
M  V30 6282 C 572.51 5.0176 3.50575 0
M  V30 6283 N 571.647 5.22321 4.69175 0
M  V30 6284 H 576.487 2.84171 0.89728 0
M  V30 6285 H 574.024 1.40623 0.431683 0
M  V30 6286 H 575.982 2.48463 3.35145 0
M  V30 6287 H 574.612 1.44159 2.88822 0
M  V30 6288 H 573.664 3.4674 1.56447 0
M  V30 6289 H 574.976 4.452 2.24942 0
M  V30 6290 H 574.13 4.00026 4.56141 0
M  V30 6291 H 572.869 2.91624 3.90905 0
M  V30 6292 H 571.874 4.83061 2.62549 0
M  V30 6293 H 573.099 5.93063 3.30837 0
M  V30 6294 H 571.045 4.35483 4.90602 0
M  V30 6295 H 570.962 6.04643 4.53809 0
M  V30 6296 H 572.23 5.45401 5.56919 0
M  V30 6297 N 576.459 -0.456382 1.50847 0
M  V30 6298 C 577.392 -1.57177 1.65441 0
M  V30 6299 C 578.37 -1.54649 0.502224 0
M  V30 6300 O 579.554 -1.74057 0.723633 0
M  V30 6301 C 576.681 -2.95763 1.65052 0
M  V30 6302 C 575.727 -3.16389 2.86007 0
M  V30 6303 S 576.56 -2.94716 4.47105 0
M  V30 6304 C 577.716 -4.35617 4.49432 0
M  V30 6305 H 577.949 -1.44561 2.59787 0
M  V30 6306 H 575.482 -0.644758 1.40293 0
M  V30 6307 H 577.44 -3.75654 1.65512 0
M  V30 6308 H 576.101 -3.05756 0.719153 0
M  V30 6309 H 575.294 -4.17667 2.82081 0
M  V30 6310 H 574.896 -2.44293 2.8319 0
M  V30 6311 H 577.188 -5.28503 4.239 0
M  V30 6312 H 578.131 -4.44582 5.51137 0
M  V30 6313 H 578.539 -4.18382 3.78967 0
M  V30 6314 N 577.937 -1.40673 -0.710563 0
M  V30 6315 C 579.162 -1.42741 -1.50465 0
M  V30 6316 C 579.587 -0.0302116 -1.88076 0
M  V30 6317 O 578.945 0.962945 -1.53613 0
M  V30 6318 C 578.993 -2.32873 -2.75322 0
M  V30 6319 O 578.097 -1.77544 -3.72226 0
M  V30 6320 H 577.438 -0.485056 -0.45345 0
M  V30 6321 H 579.968 -1.84961 -0.874681 0
M  V30 6322 H 579.978 -2.48233 -3.23797 0
M  V30 6323 H 578.653 -3.34401 -2.47283 0
M  V30 6324 H 577.23 -1.71556 -3.31093 0
M  V30 6325 N 579.415 0.9433 -1.26252 0
M  V30 6326 C 580.64 1.72898 -1.14547 0
M  V30 6327 C 581.065 1.85761 0.295743 0
M  V30 6328 O 580.423 1.3463 1.21427 0
M  V30 6329 C 580.471 3.11471 -1.8171 0
M  V30 6330 O 579.575 3.97336 -1.10445 0
M  V30 6331 H 578.916 0.530555 -0.399259 0
M  V30 6332 H 581.446 1.18159 -1.67032 0
M  V30 6333 H 581.456 3.61872 -1.88449 0
M  V30 6334 H 580.131 3.01425 -2.86558 0
M  V30 6335 H 578.708 3.55788 -1.11666 0
M  V30 6336 N 580.893 1.08022 1.14757 0
M  V30 6337 C 581.856 0.71048 2.1791 0
M  V30 6338 C 582.856 -0.252731 1.58801 0
M  V30 6339 O 584.046 -0.0327915 1.74169 0
M  V30 6340 C 581.178 0.0483203 3.40866 0
M  V30 6341 H 582.371 1.62384 2.52134 0
M  V30 6342 H 579.924 0.877595 1.29337 0
M  V30 6343 H 580.659 -0.876959 3.12218 0
M  V30 6344 H 580.444 0.741189 3.85031 0
M  V30 6345 H 581.934 -0.195471 4.17142 0
M  V30 6346 N 582.371 -1.3172 0.865308 0
M  V30 6347 C 583.611 -1.98675 0.480365 0
M  V30 6348 C 583.975 -1.66929 -0.948621 0
M  V30 6349 O 585.176 -2.27059 -1.43867 0
M  V30 6350 C 583.447 -3.49972 0.724858 0
M  V30 6351 S 585.006 -4.36598 0.439078 0
M  V30 6352 H 581.824 -0.687967 0.179506 0
M  V30 6353 H 584.426 -1.60215 1.12033 0
M  V30 6354 H 583.13 -3.70567 1.76375 0
M  V30 6355 H 582.661 -3.93335 0.0717173 0
M  V30 6356 H 584.676 -4.90792 -0.730564 0
M  V30 6357 N 583.85 -0.624285 -1.44708 0
M  V30 6358 C 584.812 0.0749638 -2.29077 0
M  V30 6359 C 585.812 0.778965 -1.40673 0
M  V30 6360 O 587.003 0.624591 -1.62618 0
M  V30 6361 C 584.135 1.11663 -3.22094 0
M  V30 6362 H 585.327 -0.667013 -2.92388 0
M  V30 6363 H 582.88 -0.384098 -1.51507 0
M  V30 6364 H 583.615 1.88881 -2.63618 0
M  V30 6365 H 583.401 0.61583 -3.87234 0
M  V30 6366 H 584.891 1.60585 -3.8549 0
M  V30 6367 N 585.328 1.53329 -0.364422 0
M  V30 6368 C 586.556 2.05657 0.226424 0
M  V30 6369 C 586.971 1.23801 1.42544 0
M  V30 6370 O 586.328 0.27839 1.80364 0
M  V30 6371 C 586.379 3.56125 0.621056 0
M  V30 6372 O 586.1 4.34879 -0.530304 0
M  V30 6373 C 587.601 4.24706 1.27041 0
M  V30 6374 H 584.821 0.669806 0.0400056 0
M  V30 6375 H 587.365 1.97714 -0.522456 0
M  V30 6376 H 585.52 3.64223 1.31985 0
M  V30 6377 H 585.934 5.24073 -0.211546 0
M  V30 6378 H 587.408 5.3131 1.49711 0
M  V30 6379 H 587.885 3.78354 2.23036 0
M  V30 6380 H 588.491 4.20858 0.613079 0
M  V30 6381 N 586.806 0.0935595 1.57322 0
M  V30 6382 C 587.769 -0.851426 2.12799 0
M  V30 6383 C 588.769 -1.21187 1.0569 0
M  V30 6384 O 589.959 -1.14156 1.31583 0
M  V30 6385 C 587.091 -2.14779 2.64731 0
M  V30 6386 H 588.284 -0.369733 2.97612 0
M  V30 6387 H 585.837 -0.155417 1.55525 0
M  V30 6388 H 586.572 -2.67437 1.83434 0
M  V30 6389 H 586.357 -1.89907 3.43042 0
M  V30 6390 H 587.847 -2.82383 3.07651 0
M  V30 6391 N 588.284 -1.56567 -0.180126 0
M  V30 6392 C 589.7 -1.50488 -0.531559 0
M  V30 6393 C 589.9 -0.796267 -1.851 0
M  V30 6394 O 588.956 -0.352978 -2.50021 0
M  V30 6395 C 590.269 -2.95201 -0.572456 0
M  V30 6396 C 591.817 -3.05957 -0.660264 0
M  V30 6397 C 592.292 -4.5211 -0.732135 0
M  V30 6398 N 593.783 -4.56322 -0.795262 0
M  V30 6399 C 594.518 -5.66742 -0.871296 0
M  V30 6400 N 594.014 -6.86815 -0.908708 0
M  V30 6401 N 595.807 -5.54691 -0.909639 0
M  V30 6402 H 587.958 -2.01045 0.685165 0
M  V30 6403 H 590.221 -0.915536 0.245962 0
M  V30 6404 H 589.927 -3.50165 0.328208 0
M  V30 6405 H 589.801 -3.49369 -1.422 0
M  V30 6406 H 592.188 -2.51032 -1.55136 0
M  V30 6407 H 592.269 -2.54888 0.215783 0
M  V30 6408 H 591.913 -5.07664 0.154664 0
M  V30 6409 H 591.843 -5.00926 -1.6242 0
M  V30 6410 H 594.334 -3.69868 -0.77499 0
M  V30 6411 H 594.647 -7.66718 -0.967654 0
M  V30 6412 H 592.992 -6.89443 -0.877132 0
M  V30 6413 H 596.183 -4.59804 -0.877353 0
M  V30 6414 H 596.356 -6.40768 -0.965434 0
M  V30 6415 N 589.762 0.448376 -1.51087 0
M  V30 6416 C 590.725 1.52588 -1.71025 0
M  V30 6417 C 591.725 1.49958 -0.580442 0
M  V30 6418 O 592.915 1.52176 -0.847833 0
M  V30 6419 C 590.047 2.92163 -1.75652 0
M  V30 6420 H 591.24 1.36218 -2.67179 0
M  V30 6421 H 588.793 0.676313 -1.4091 0
M  V30 6422 H 589.528 3.13951 -0.812724 0
M  V30 6423 H 589.313 2.95478 -2.57751 0
M  V30 6424 H 590.803 3.70349 -1.92953 0
M  V30 6425 N 591.24 1.41047 0.703093 0
M  V30 6426 C 592.465 1.43537 1.49706 0
M  V30 6427 C 592.89 0.0401853 1.88057 0
M  V30 6428 O 592.248 -0.954785 1.54122 0
M  V30 6429 C 592.296 2.3433 2.74084 0
M  V30 6430 O 591.4 1.79515 3.71279 0
M  V30 6431 H 590.741 0.487454 0.450871 0
M  V30 6432 H 593.271 1.85422 0.86486 0
M  V30 6433 H 593.281 2.49947 3.22476 0
M  V30 6434 H 591.956 3.35708 2.45506 0
M  V30 6435 H 590.533 1.7331 3.30179 0
M  V30 6436 N 592.718 -0.936591 1.26751 0
M  V30 6437 C 593.668 -2.0219 1.05371 0
M  V30 6438 C 594.652 -1.60893 -0.0154112 0
M  V30 6439 O 595.844 -1.75843 0.202085 0
M  V30 6440 C 592.973 -3.36222 0.693541 0
M  V30 6441 C 592.059 -3.8399 1.80035 0
M  V30 6442 N 592.45 -4.0436 3.03852 0
M  V30 6443 C 590.748 -4.12945 1.685 0
M  V30 6444 C 591.449 -4.44 3.75818 0
M  V30 6445 N 590.425 -4.50966 3.03531 0
M  V30 6446 H 594.227 -2.15958 1.99347 0
M  V30 6447 H 591.741 -1.12277 1.17335 0
M  V30 6448 H 593.738 -4.13625 0.521513 0
M  V30 6449 H 592.398 -3.23821 -0.238693 0
M  V30 6450 H 593.409 -3.9092 3.39709 0
M  V30 6451 H 590.086 -4.09308 0.822986 0
M  V30 6452 H 591.476 -4.67914 4.82189 0
M  V30 6453 N 594.196 -1.08629 -1.14182 0
M  V30 6454 C 595.126 -0.740003 -2.21464 0
M  V30 6455 C 596.107 0.278591 -1.67803 0
M  V30 6456 O 597.292 0.148461 -1.93632 0
M  V30 6457 C 594.422 -0.150952 -3.46972 0
M  V30 6458 C 593.376 -1.09815 -4.13672 0
M  V30 6459 C 592.702 -0.3712 -5.3341 0
M  V30 6460 C 594.002 -2.43722 -4.61949 0
M  V30 6461 H 595.696 -1.63697 -2.50686 0
M  V30 6462 H 593.242 -0.788526 -1.20492 0
M  V30 6463 H 595.195 0.103325 -4.21273 0
M  V30 6464 H 593.919 0.781164 -3.1712 0
M  V30 6465 H 592.578 -1.33756 -3.41328 0
M  V30 6466 H 592.226 0.564792 -4.99819 0
M  V30 6467 H 591.926 -1.00267 -5.78982 0
M  V30 6468 H 593.45 -0.12503 -6.10472 0
M  V30 6469 H 594.864 -2.24034 -5.27714 0
M  V30 6470 H 593.261 -3.02582 -5.18232 0
M  V30 6471 H 594.331 -3.05082 -3.76899 0
M  V30 6472 N 595.674 1.31259 -0.872281 0
M  V30 6473 C 596.921 1.96622 -0.484365 0
M  V30 6474 C 597.249 1.68939 0.963841 0
M  V30 6475 O 596.504 0.97974 1.6941 0
M  V30 6476 C 596.803 3.50659 -0.690889 0
M  V30 6477 C 596.469 3.98366 -2.11224 0
M  V30 6478 C 595.131 4.11104 -2.50094 0
M  V30 6479 C 597.483 4.23425 -3.0391 0
M  V30 6480 C 594.811 4.46254 -3.80887 0
M  V30 6481 C 597.163 4.60039 -4.3422 0
M  V30 6482 C 595.827 4.70984 -4.73001 0
M  V30 6483 H 595.097 0.71949 -0.177242 0
M  V30 6484 H 597.744 1.56353 -1.10571 0
M  V30 6485 H 596.049 3.91798 0.0135782 0
M  V30 6486 H 597.746 3.99284 -0.370534 0
M  V30 6487 H 594.336 3.88949 -1.80047 0
M  V30 6488 H 598.52 4.13075 -2.75104 0
M  V30 6489 H 593.776 4.52926 -4.10692 0
M  V30 6490 H 597.95 4.78381 -5.06088 0
M  V30 6491 H 595.577 4.97977 -5.7439 0
M  V30 6492 N 597.152 0.631951 1.44375 0
M  V30 6493 C 598.429 0.067646 1.95483 0
M  V30 6494 C 598.809 -1.40683 1.57389 0
M  V30 6495 O 598.157 -2.12167 0.848375 0
M  V30 6496 C 598.367 0.291392 3.47781 0
M  V30 6497 C 599.715 0.185028 4.24197 0
M  V30 6498 O 600.739 0.222803 3.55503 0
M  V30 6499 O 599.598 0.0906642 5.46425 0
M  V30 6500 H 596.692 -0.0218379 0.826712 0
M  V30 6501 H 599.238 0.703711 1.54421 0
M  V30 6502 H 598.01 1.31449 3.68561 0
M  V30 6503 H 597.633 -0.378772 3.95792 0
M  V30 6504 N 598.631 -1.53133 0.372548 0
M  V30 6505 C 599.579 -2.27473 -0.485681 0
M  V30 6506 C 600.573 -1.30719 -1.07745 0
M  V30 6507 O 601.779 -1.48321 -1.01985 0
M  V30 6508 H 598.154 -0.731269 -0.175356 0
M  V30 6509 H 600.125 -2.97955 0.162986 0
M  V30 6510 C 598.874 -3.08191 -1.60978 0
M  V30 6511 H 598.197 -3.82488 -1.16373 0
M  V30 6512 H 599.637 -3.63373 -2.18485 0
M  V30 6513 C 598.096 -2.19461 -2.55614 0
M  V30 6514 O 598.626 -1.81008 -3.58607 0
M  V30 6515 N 596.832 -1.83955 -2.24965 0
M  V30 6516 H 596.379 -2.15423 -1.41247 0
M  V30 6517 H 596.337 -1.24874 -2.88538 0
M  V30 6518 N 600.109 -0.101901 -1.5727 0
M  V30 6519 C 601.52 0.426173 -1.81771 0
M  V30 6520 C 601.871 1.67725 -1.01797 0
M  V30 6521 O 600.996 2.14958 -0.249386 0
M  V30 6522 C 601.591 0.779962 -3.297 0
M  V30 6523 C 600.15 1.25275 -3.54941 0
M  V30 6524 C 599.297 0.252814 -2.76145 0
M  V30 6525 H 602.248 -0.32726 -1.55289 0
M  V30 6526 H 602.269 1.63891 -3.43395 0
M  V30 6527 H 601.781 -0.130778 -3.8788 0
M  V30 6528 H 599.882 2.18097 -3.021 0
M  V30 6529 H 599.995 1.20988 -4.63572 0
M  V30 6530 H 598.359 0.736362 -2.43823 0
M  V30 6531 H 599.142 -0.650724 -3.37076 0
M  V30 6532 N 601.587 1.56661 0.17182 0
M  V30 6533 C 602.55 1.9549 1.19651 0
M  V30 6534 C 603.55 0.838501 1.37207 0
M  V30 6535 O 604.74 1.10556 1.34622 0
M  V30 6536 C 601.872 2.24927 2.56166 0
M  V30 6537 H 603.065 2.87184 0.864007 0
M  V30 6538 H 600.618 1.50711 0.41425 0
M  V30 6539 H 601.353 1.35944 2.94431 0
M  V30 6540 H 601.138 3.06301 2.4479 0
M  V30 6541 H 602.628 2.55891 3.30014 0
M  V30 6542 N 603.065 -0.440357 1.51323 0
M  V30 6543 C 604.293 -1.21255 1.67645 0
M  V30 6544 C 604.708 -1.85088 0.37252 0
M  V30 6545 O 604.065 -1.70582 -0.648683 0
M  V30 6546 C 604.116 -2.29881 2.78993 0
M  V30 6547 O 603.837 -1.68659 4.04334 0
M  V30 6548 C 605.338 -3.20214 3.06558 0
M  V30 6549 H 602.558 -0.36558 0.562666 0
M  V30 6550 H 605.102 -0.52214 1.97722 0
M  V30 6551 H 603.257 -2.94643 2.51524 0
M  V30 6552 H 603.671 -2.40426 4.6615 0
M  V30 6553 H 605.145 -3.92575 3.88058 0
M  V30 6554 H 605.622 -3.80794 2.18844 0
M  V30 6555 H 606.228 -2.61156 3.35675 0
M  V30 6556 N 604.543 -1.41418 -0.695603 0
M  V30 6557 C 605.789 -1.40982 -1.4578 0
M  V30 6558 C 606.122 -0.0187763 -1.94191 0
M  V30 6559 O 605.397 0.95346 -1.69527 0
M  V30 6560 C 605.68 -2.41657 -2.66972 0
M  V30 6561 C 605.533 -3.89869 -2.24327 0
M  V30 6562 C 606.852 -2.39589 -3.69168 0
M  V30 6563 H 603.971 -0.513405 -0.528757 0
M  V30 6564 H 606.613 -1.72693 -0.792275 0
M  V30 6565 H 604.763 -2.14746 -3.23754 0
M  V30 6566 H 606.435 -4.27683 -1.72872 0
M  V30 6567 H 604.678 -4.04737 -1.56111 0
M  V30 6568 H 605.349 -4.55857 -3.11285 0
M  V30 6569 H 607.825 -2.63471 -3.2206 0
M  V30 6570 H 606.701 -3.12044 -4.51575 0
M  V30 6571 H 606.962 -1.41447 -4.18862 0
M  V30 6572 N 606.021 0.929856 -1.27246 0
M  V30 6573 C 607.268 1.67731 -1.13457 0
M  V30 6574 C 607.596 1.9185 0.319998 0
M  V30 6575 O 606.851 1.50524 1.25064 0
M  V30 6576 C 607.15 3.05116 -1.86115 0
M  V30 6577 C 606.816 3.00715 -3.35978 0
M  V30 6578 C 605.478 2.99222 -3.76855 0
M  V30 6579 C 607.83 2.92168 -4.3161 0
M  V30 6580 C 605.158 2.86962 -5.11732 0
M  V30 6581 C 607.51 2.81449 -5.66542 0
M  V30 6582 C 606.174 2.78305 -6.06715 0
M  V30 6583 H 605.444 0.613772 -0.415168 0
M  V30 6584 H 608.091 1.08456 -1.57827 0
M  V30 6585 H 606.396 3.68083 -1.34246 0
M  V30 6586 H 608.093 3.61822 -1.72876 0
M  V30 6587 H 604.683 3.02664 -3.03468 0
M  V30 6588 H 608.867 2.92421 -4.01003 0
M  V30 6589 H 604.123 2.82913 -5.42006 0
M  V30 6590 H 608.297 2.738 -6.40317 0
M  V30 6591 H 605.924 2.68561 -7.11181 0
M  V30 6592 N 607.499 1.09233 1.13605 0
M  V30 6593 C 608.746 0.827159 1.84836 0
M  V30 6594 C 609.074 -0.647199 1.83416 0
M  V30 6595 O 608.329 -1.49228 1.26608 0
M  V30 6596 C 608.628 1.305 3.32723 0
M  V30 6597 C 608.294 2.78864 3.54325 0
M  V30 6598 C 606.956 3.19382 3.59928 0
M  V30 6599 C 609.308 3.74532 3.62457 0
M  V30 6600 C 606.636 4.54346 3.71196 0
M  V30 6601 C 608.988 5.09283 3.75252 0
M  V30 6602 C 607.652 5.49394 3.79108 0
M  V30 6603 H 606.922 0.302679 0.676363 0
M  V30 6604 H 609.569 1.36676 1.34134 0
M  V30 6605 H 607.874 0.68517 3.85762 0
M  V30 6606 H 609.571 1.07648 3.86281 0
M  V30 6607 H 606.161 2.46507 3.50617 0
M  V30 6608 H 610.345 3.44343 3.57409 0
M  V30 6609 H 605.601 4.84864 3.72447 0
M  V30 6610 H 609.775 5.83269 3.80487 0
M  V30 6611 H 607.402 6.5397 3.87591 0
M  V30 6612 N 608.977 -1.30795 0.87923 0
M  V30 6613 C 610.202 -2.01063 0.508769 0
M  V30 6614 C 610.627 -1.65508 -0.893803 0
M  V30 6615 O 609.985 -0.868616 -1.59138 0
M  V30 6616 C 610.033 -3.54054 0.683991 0
M  V30 6617 O 609.137 -4.11498 -0.272654 0
M  V30 6618 H 608.478 -0.632786 0.201191 0
M  V30 6619 H 611.008 -1.66776 1.18519 0
M  V30 6620 H 611.018 -4.03845 0.580798 0
M  V30 6621 H 609.693 -3.79271 1.70665 0
M  V30 6622 H 608.27 -3.72695 -0.12364 0
M  V30 6623 N 610.455 -0.639598 -1.44038 0
M  V30 6624 C 611.701 -0.147698 -2.02261 0
M  V30 6625 C 612.034 1.23031 -1.50256 0
M  V30 6626 O 611.309 1.81847 -0.690068 0
M  V30 6627 C 611.592 -0.14362 -3.59813 0
M  V30 6628 C 611.445 -1.55458 -4.22082 0
M  V30 6629 C 612.764 0.527317 -4.36929 0
M  V30 6630 H 609.883 -0.0551453 -0.734934 0
M  V30 6631 H 612.525 -0.817688 -1.71505 0
M  V30 6632 H 610.675 0.426898 -3.86147 0
M  V30 6633 H 612.347 -2.17464 -4.06826 0
M  V30 6634 H 610.59 -2.10594 -3.79253 0
M  V30 6635 H 611.261 -1.50369 -5.31124 0
M  V30 6636 H 613.737 0.0420504 -4.16079 0
M  V30 6637 H 612.613 0.499389 -5.46624 0
M  V30 6638 H 612.874 1.59914 -4.12165 0
M  V30 6639 N 611.933 1.52934 -0.380664 0
M  V30 6640 C 613.18 2.01467 0.204278 0
M  V30 6641 C 613.508 1.26744 1.47533 0
M  V30 6642 O 612.763 0.353723 1.92477 0
M  V30 6643 C 613.062 3.5349 0.527199 0
M  V30 6644 C 612.728 4.46171 -0.651295 0
M  V30 6645 C 611.39 4.71227 -0.974619 0
M  V30 6646 C 613.742 5.00909 -1.44012 0
M  V30 6647 C 611.07 5.4827 -2.08847 0
M  V30 6648 C 613.422 5.7917 -2.5445 0
M  V30 6649 C 612.086 6.02507 -2.87301 0
M  V30 6650 H 611.356 0.73722 0.0747504 0
M  V30 6651 H 614.003 1.84411 -0.516234 0
M  V30 6652 H 612.308 3.68574 1.32892 0
M  V30 6653 H 614.005 3.88529 0.992283 0
M  V30 6654 H 610.595 4.26829 -0.389276 0
M  V30 6655 H 614.779 4.81485 -1.20357 0
M  V30 6656 H 610.035 5.64567 -2.34679 0
M  V30 6657 H 614.209 6.20588 -3.1598 0
M  V30 6658 H 611.836 6.61989 -3.7373 0
M  V30 6659 N 613.412 0.11024 1.57214 0
M  V30 6660 C 614.345 -0.880224 2.1054 0
M  V30 6661 C 615.323 -1.26658 1.01964 0
M  V30 6662 O 616.507 -1.36917 1.29561 0
M  V30 6663 C 613.634 -2.17676 2.59489 0
M  V30 6664 C 612.68 -1.93914 3.79868 0
M  V30 6665 S 613.513 -1.16336 5.2271 0
M  V30 6666 C 614.669 -2.47188 5.75021 0
M  V30 6667 H 614.902 -0.426614 2.94223 0
M  V30 6668 H 612.435 -0.10336 1.54054 0
M  V30 6669 H 614.393 -2.92175 2.88347 0
M  V30 6670 H 613.054 -2.60156 1.76005 0
M  V30 6671 H 612.247 -2.8996 4.12236 0
M  V30 6672 H 611.849 -1.27539 3.51582 0
M  V30 6673 H 614.141 -3.43079 5.84211 0
M  V30 6674 H 615.084 -2.19377 6.7326 0
M  V30 6675 H 615.492 -2.56154 5.03036 0
M  V30 6676 N 614.89 -1.56749 -0.16351 0
M  V30 6677 C 615.853 -1.96121 -1.18613 0
M  V30 6678 C 616.853 -0.845765 -1.36761 0
M  V30 6679 O 618.043 -1.11268 -1.34033 0
M  V30 6680 C 615.175 -2.26282 -2.54969 0
M  V30 6681 H 616.368 -2.87639 -0.848764 0
M  V30 6682 H 613.921 -1.50928 -0.406251 0
M  V30 6683 H 614.656 -1.37504 -2.93706 0
M  V30 6684 H 614.441 -3.07595 -2.43162 0
M  V30 6685 H 615.931 -2.57638 -3.28653 0
M  V30 6686 N 616.368 0.432326 -1.51554 0
M  V30 6687 C 617.298 1.53242 -1.76179 0
M  V30 6688 C 618.279 1.58717 -0.611801 0
M  V30 6689 O 619.464 1.74364 -0.855033 0
M  V30 6690 C 616.594 2.91278 -1.89141 0
M  V30 6691 C 615.548 3.00663 -3.04608 0
M  V30 6692 C 614.874 4.40728 -3.02759 0
M  V30 6693 C 616.174 2.74281 -4.44485 0
M  V30 6694 H 617.868 1.32886 -2.68294 0
M  V30 6695 H 615.414 0.637841 -1.29103 0
M  V30 6696 H 617.367 3.68203 -2.04951 0
M  V30 6697 H 616.091 3.12877 -0.936785 0
M  V30 6698 H 614.75 2.26179 -2.88511 0
M  V30 6699 H 614.398 4.59301 -2.05065 0
M  V30 6700 H 614.098 4.47936 -3.80299 0
M  V30 6701 H 615.622 5.19619 -3.20669 0
M  V30 6702 H 617.036 3.40936 -4.60907 0
M  V30 6703 H 615.433 2.92893 -5.23769 0
M  V30 6704 H 616.503 1.69856 -4.54177 0
M  V30 6705 N 617.846 1.41785 0.688094 0
M  V30 6706 C 619.092 1.42753 1.4489 0
M  V30 6707 C 619.447 0.0384235 1.92362 0
M  V30 6708 O 618.74 -0.937066 1.67122 0
M  V30 6709 C 618.934 2.37532 2.67046 0
M  V30 6710 C 618.763 3.85521 2.31525 0
M  V30 6711 C 617.533 4.54152 2.21527 0
M  V30 6712 C 619.731 4.76299 1.94019 0
M  V30 6713 N 617.713 5.87233 1.78969 0
M  V30 6714 C 619.084 5.98386 1.62279 0
M  V30 6715 C 621.139 4.63877 1.80895 0
M  V30 6716 C 619.842 7.09433 1.18732 0
M  V30 6717 C 621.868 5.74893 1.38752 0
M  V30 6718 C 621.23 6.96083 1.07927 0
M  V30 6719 H 617.329 0.577575 0.527192 0
M  V30 6720 H 619.913 1.77713 0.795375 0
M  V30 6721 H 618.084 2.04656 3.30107 0
M  V30 6722 H 619.816 2.29169 3.33562 0
M  V30 6723 H 616.571 4.08188 2.40166 0
M  V30 6724 H 616.995 6.57785 1.60151 0
M  V30 6725 H 621.637 3.70671 2.03378 0
M  V30 6726 H 619.355 8.02497 0.949937 0
M  V30 6727 H 622.941 5.67287 1.29136 0
M  V30 6728 H 621.821 7.80527 0.758111 0
M  V30 6729 N 619.324 -0.923095 1.27737 0
M  V30 6730 C 620.287 -2.00587 1.10894 0
M  V30 6731 C 621.287 -1.60718 0.0514927 0
M  V30 6732 O 622.477 -1.71658 0.296481 0
M  V30 6733 C 619.609 -3.33829 0.690717 0
M  V30 6734 H 620.802 -2.16959 2.07048 0
M  V30 6735 H 618.355 -1.10451 1.1059 0
M  V30 6736 H 619.09 -3.23157 -0.272 0
M  V30 6737 H 618.875 -3.64125 1.45448 0
M  V30 6738 H 620.365 -4.13336 0.595252 0
M  V30 6739 N 620.802 -1.09834 -1.13024 0
M  V30 6740 C 621.765 -0.745058 -2.16752 0
M  V30 6741 C 622.765 0.227435 -1.59183 0
M  V30 6742 O 623.955 0.0050786 -1.74199 0
M  V30 6743 C 621.087 -0.102543 -3.40746 0
M  V30 6744 H 622.28 -1.66375 -2.49518 0
M  V30 6745 H 619.833 -0.898061 -1.27924 0
M  V30 6746 H 620.568 0.827177 -3.13573 0
M  V30 6747 H 620.353 -0.80235 -3.83803 0
M  V30 6748 H 621.843 0.129082 -4.174 0
M  V30 6749 N 622.28 1.30327 -0.886154 0
M  V30 6750 C 623.508 2.00254 -0.520176 0
M  V30 6751 C 623.923 1.66419 0.891637 0
M  V30 6752 O 623.28 0.901951 1.58654 0
M  V30 6753 C 623.331 3.54916 -0.686775 0
M  V30 6754 O 623.052 3.87547 -2.04301 0
M  V30 6755 C 624.553 4.42115 -0.323945 0
M  V30 6756 H 621.773 0.640204 -0.200947 0
M  V30 6757 H 624.317 1.66183 -1.19178 0
M  V30 6758 H 622.472 3.8735 -0.0625273 0
M  V30 6759 H 622.886 4.82247 -2.06249 0
M  V30 6760 H 624.36 5.49808 -0.491407 0
M  V30 6761 H 624.837 4.32953 0.73811 0
M  V30 6762 H 625.443 4.15129 -0.924565 0
M  V30 6763 N 623.758 0.647228 1.43697 0
M  V30 6764 C 625.005 0.158188 2.01881 0
M  V30 6765 C 625.333 -1.22573 1.51017 0
M  V30 6766 O 624.588 -1.83086 0.69122 0
M  V30 6767 C 624.887 0.111481 3.57226 0
M  V30 6768 C 624.553 1.43633 4.27411 0
M  V30 6769 C 623.215 1.79915 4.463 0
M  V30 6770 C 625.567 2.31011 4.67208 0
M  V30 6771 C 622.895 3.03251 5.02251 0
M  V30 6772 C 625.247 3.53633 5.24525 0
M  V30 6773 C 623.911 3.90118 5.41631 0
M  V30 6774 H 623.181 0.0578851 0.738736 0
M  V30 6775 H 625.828 0.836746 1.72252 0
M  V30 6776 H 624.133 -0.650507 3.86362 0
M  V30 6777 H 625.83 -0.283682 3.99995 0
M  V30 6778 H 622.42 1.14403 4.1305 0
M  V30 6779 H 626.604 2.04272 4.52313 0
M  V30 6780 H 621.86 3.31575 5.13681 0
M  V30 6781 H 626.034 4.21561 5.5431 0
M  V30 6782 H 623.661 4.85768 5.84751 0
M  V30 6783 N 625.236 -1.5273 0.388769 0
M  V30 6784 C 626.169 -2.22861 -0.490752 0
M  V30 6785 C 627.147 -1.22912 -1.06449 0
M  V30 6786 O 628.331 -1.51896 -1.11624 0
M  V30 6787 C 625.458 -2.94141 -1.67925 0
M  V30 6788 C 624.504 -4.08355 -1.23081 0
M  V30 6789 S 625.337 -5.35077 -0.212786 0
M  V30 6790 C 626.493 -6.09879 -1.40708 0
M  V30 6791 H 626.726 -2.97115 0.104787 0
M  V30 6792 H 624.259 -1.53428 0.172956 0
M  V30 6793 H 626.217 -3.35818 -2.36085 0
M  V30 6794 H 624.878 -2.19568 -2.24608 0
M  V30 6795 H 624.071 -4.57328 -2.11818 0
M  V30 6796 H 623.673 -3.68688 -0.628121 0
M  V30 6797 H 625.965 -6.36018 -2.33424 0
M  V30 6798 H 626.908 -7.01586 -0.958271 0
M  V30 6799 H 627.316 -5.40646 -1.62364 0
M  V30 6800 N 626.714 -0.118576 -1.57153 0
M  V30 6801 C 627.624 0.845484 -2.18835 0
M  V30 6802 C 628.64 1.29299 -1.16438 0
M  V30 6803 O 629.816 1.35607 -1.48905 0
M  V30 6804 C 626.881 2.07795 -2.77529 0
M  V30 6805 C 625.942 1.6824 -3.9496 0
M  V30 6806 C 625.175 2.85612 -4.50845 0
M  V30 6807 O 625.398 4.01025 -4.05629 0
M  V30 6808 O 624.332 2.62721 -5.41536 0
M  V30 6809 H 628.158 0.350568 -3.0167 0
M  V30 6810 H 625.743 0.107013 -1.49016 0
M  V30 6811 H 627.625 2.79978 -3.14945 0
M  V30 6812 H 626.3 2.56294 -1.97725 0
M  V30 6813 H 625.207 0.931663 -3.62313 0
M  V30 6814 H 626.54 1.24484 -4.76198 0
M  V30 6815 N 628.193 1.56834 0.155195 0
M  V30 6816 C 629.143 1.94061 1.19684 0
M  V30 6817 C 630.127 0.810851 1.38975 0
M  V30 6818 O 631.319 1.07422 1.40675 0
M  V30 6819 C 628.448 2.31778 2.53247 0
M  V30 6820 C 627.534 3.51305 2.37583 0
M  V30 6821 N 627.925 4.68081 1.9166 0
M  V30 6822 C 626.223 3.56228 2.6836 0
M  V30 6823 C 626.924 5.50193 1.88845 0
M  V30 6824 N 625.9 4.91676 2.31852 0
M  V30 6825 H 629.702 2.81826 0.833747 0
M  V30 6826 H 627.216 1.58284 0.363328 0
M  V30 6827 H 629.213 2.56649 3.28538 0
M  V30 6828 H 627.873 1.4536 2.90346 0
M  V30 6829 H 628.884 4.91993 1.6175 0
M  V30 6830 H 625.561 2.8033 3.09389 0
M  V30 6831 H 626.951 6.53801 1.54901 0
M  V30 6832 N 629.671 -0.424282 1.51781 0
M  V30 6833 C 630.917 -1.17117 1.66298 0
M  V30 6834 C 631.272 -1.88595 0.380767 0
M  V30 6835 O 630.565 -1.81151 -0.624094 0
M  V30 6836 C 630.759 -2.20418 2.81337 0
M  V30 6837 C 630.588 -1.59081 4.20622 0
M  V30 6838 C 629.358 -1.37007 4.86371 0
M  V30 6839 C 631.556 -1.05992 5.0326 0
M  V30 6840 N 629.538 -0.714049 6.09733 0
M  V30 6841 C 630.909 -0.529933 6.17731 0
M  V30 6842 C 632.964 -0.952927 4.88696 0
M  V30 6843 C 631.667 0.0965457 7.19235 0
M  V30 6844 C 633.693 -0.340325 5.9042 0
M  V30 6845 C 633.055 0.179057 7.04172 0
M  V30 6846 H 629.154 -0.41577 0.662314 0
M  V30 6847 H 631.738 -0.46579 1.89046 0
M  V30 6848 H 629.909 -2.8833 2.60231 0
M  V30 6849 H 631.641 -2.8736 2.84968 0
M  V30 6850 H 628.396 -1.63543 4.44467 0
M  V30 6851 H 628.82 -0.403101 6.75799 0
M  V30 6852 H 633.462 -1.34033 4.00993 0
M  V30 6853 H 631.18 0.496044 8.06576 0
M  V30 6854 H 634.766 -0.259266 5.81222 0
M  V30 6855 H 633.646 0.645626 7.81538 0
M  V30 6856 N 631.149 -1.42148 -0.680565 0
M  V30 6857 C 632.096 -1.45175 -1.79424 0
M  V30 6858 C 633.066 -0.304352 -1.63288 0
M  V30 6859 O 634.251 -0.507591 -1.83924 0
M  V30 6860 C 631.391 -1.35429 -3.17416 0
M  V30 6861 C 630.504 -2.60158 -3.4488 0
M  V30 6862 C 629.639 -2.42596 -4.72568 0
M  V30 6863 C 628.678 -3.62727 -4.93047 0
M  V30 6864 N 627.815 -3.44143 -6.11973 0
M  V30 6865 H 632.655 -2.40349 -1.76172 0
M  V30 6866 H 630.192 -1.19334 -0.860107 0
M  V30 6867 H 632.15 -1.27777 -3.97151 0
M  V30 6868 H 630.78 -0.438536 -3.19807 0
M  V30 6869 H 629.832 -2.78199 -2.5944 0
M  V30 6870 H 631.144 -3.49473 -3.55908 0
M  V30 6871 H 630.298 -2.32497 -5.60384 0
M  V30 6872 H 629.037 -1.50761 -4.63813 0
M  V30 6873 H 628.042 -3.73264 -4.03676 0
M  V30 6874 H 629.267 -4.55534 -5.03652 0
M  V30 6875 H 627.213 -2.5502 -6.04401 0
M  V30 6876 H 627.13 -4.27041 -6.23836 0
M  V30 6877 H 628.398 -3.37845 -7.02482 0
M  V30 6878 N 632.627 0.916307 -1.28225 0
M  V30 6879 C 634.043 1.19425 -1.05876 0
M  V30 6880 C 634.243 2.005 0.2005 0
M  V30 6881 O 633.299 2.35806 0.902873 0
M  V30 6882 C 634.612 1.93133 -2.30478 0
M  V30 6883 C 636.16 2.06026 -2.35632 0
M  V30 6884 C 636.635 2.83141 -3.59994 0
M  V30 6885 N 638.126 2.90704 -3.60618 0
M  V30 6886 C 638.861 3.50865 -4.53521 0
M  V30 6887 N 638.357 4.12327 -5.56739 0
M  V30 6888 N 640.15 3.48379 -4.41122 0
M  V30 6889 H 632.301 0.37496 -2.09064 0
M  V30 6890 H 634.564 0.228531 -0.920042 0
M  V30 6891 H 634.27 1.40985 -3.22205 0
M  V30 6892 H 634.144 2.93696 -2.36691 0
M  V30 6893 H 636.531 2.57355 -1.44404 0
M  V30 6894 H 636.612 1.04647 -2.33415 0
M  V30 6895 H 636.256 2.32492 -4.51564 0
M  V30 6896 H 636.186 3.84829 -3.59464 0
M  V30 6897 H 638.677 2.47034 -2.85977 0
M  V30 6898 H 638.99 4.56205 -6.23776 0
M  V30 6899 H 637.335 4.10839 -5.60568 0
M  V30 6900 H 640.526 2.99572 -3.59686 0
M  V30 6901 H 640.699 3.94974 -5.13712 0
M  V30 6902 N 634.105 1.10431 1.1244 0
M  V30 6903 C 635.052 0.753103 2.18167 0
M  V30 6904 C 636.022 -0.270549 1.63882 0
M  V30 6905 O 637.207 -0.149837 1.90211 0
M  V30 6906 C 634.347 0.191046 3.44571 0
M  V30 6907 C 633.46 1.26999 4.12911 0
M  V30 6908 C 632.595 0.669586 5.26963 0
M  V30 6909 C 631.634 1.72912 5.87169 0
M  V30 6910 N 630.771 1.14898 6.92635 0
M  V30 6911 H 635.611 1.65892 2.47556 0
M  V30 6912 H 633.148 0.828631 1.21541 0
M  V30 6913 H 635.106 -0.152712 4.1692 0
M  V30 6914 H 633.736 -0.677997 3.15599 0
M  V30 6915 H 632.788 1.73087 3.3874 0
M  V30 6916 H 634.1 2.07204 4.53727 0
M  V30 6917 H 633.254 0.275274 6.06075 0
M  V30 6918 H 631.993 -0.163895 4.87425 0
M  V30 6919 H 630.998 2.13286 5.06744 0
M  V30 6920 H 632.223 2.56544 6.28778 0
M  V30 6921 H 630.169 0.336956 6.55134 0
M  V30 6922 H 630.086 1.88786 7.32049 0
M  V30 6923 H 631.354 0.78121 7.75576 0
M  V30 6924 N 635.583 -1.29855 0.893053 0
M  V30 6925 C 636.515 -2.26911 0.32311 0
M  V30 6926 C 637.528 -1.54039 -0.526858 0
M  V30 6927 O 638.717 -1.75132 -0.345095 0
M  V30 6928 C 635.817 -3.34266 -0.558509 0
M  V30 6929 C 634.99 -4.36601 0.264222 0
M  V30 6930 C 634.049 -5.23326 -0.549171 0
M  V30 6931 O 633.075 -5.69192 0.0309883 0
M  V30 6932 N 634.277 -5.50008 -1.85664 0
M  V30 6933 H 637.042 -2.76455 1.15726 0
M  V30 6934 H 634.603 -1.4312 0.756859 0
M  V30 6935 H 636.595 -3.89211 -1.1089 0
M  V30 6936 H 635.165 -2.8459 -1.29334 0
M  V30 6937 H 634.385 -3.81409 0.996046 0
M  V30 6938 H 635.673 -5.02019 0.827906 0
M  V30 6939 H 635.071 -5.14542 -2.35081 0
M  V30 6940 H 633.628 -6.07796 -2.35431 0
M  V30 6941 N 637.061 -0.65484 -1.43351 0
M  V30 6942 C 637.994 0.0855537 -2.2804 0
M  V30 6943 C 638.972 0.828301 -1.39921 0
M  V30 6944 O 640.156 0.827539 -1.69364 0
M  V30 6945 C 637.283 1.12792 -3.19368 0
M  V30 6946 C 636.329 0.483037 -4.23756 0
M  V30 6947 S 637.162 -0.744605 -5.30298 0
M  V30 6948 C 638.318 0.297187 -6.25194 0
M  V30 6949 H 638.551 -0.632831 -2.90487 0
M  V30 6950 H 636.084 -0.44373 -1.47886 0
M  V30 6951 H 638.042 1.7243 -3.72529 0
M  V30 6952 H 636.703 1.81863 -2.56095 0
M  V30 6953 H 635.896 1.26888 -4.87766 0
M  V30 6954 H 635.498 -0.0392713 -3.73979 0
M  V30 6955 H 637.79 1.1629 -6.67445 0
M  V30 6956 H 638.733 -0.30793 -7.0743 0
M  V30 6957 H 639.141 0.633721 -5.60932 0
M  V30 6958 N 638.539 1.52521 -0.396863 0
M  V30 6959 C 639.955 1.5953 -0.0471659 0
M  V30 6960 C 640.155 1.41044 1.43906 0
M  V30 6961 O 639.211 1.23122 2.20448 0
M  V30 6962 C 640.524 2.95972 -0.531113 0
M  V30 6963 C 642.072 3.09172 -0.488024 0
M  V30 6964 C 642.547 4.48075 -0.948281 0
M  V30 6965 N 644.038 4.54281 -0.9046 0
M  V30 6966 C 644.773 5.60007 -1.23205 0
M  V30 6967 N 644.269 6.73343 -1.63036 0
M  V30 6968 N 646.062 5.50151 -1.15282 0
M  V30 6969 H 638.213 1.62786 -1.36435 0
M  V30 6970 H 640.476 0.76514 -0.559701 0
M  V30 6971 H 640.182 3.14741 -1.56942 0
M  V30 6972 H 640.056 3.77143 0.0657922 0
M  V30 6973 H 642.443 2.90095 0.541211 0
M  V30 6974 H 642.524 2.29937 -1.12083 0
M  V30 6975 H 642.168 4.67894 -1.97578 0
M  V30 6976 H 642.098 5.25788 -0.292412 0
M  V30 6977 H 644.589 3.72918 -0.6116 0
M  V30 6978 H 644.902 7.49992 -1.86365 0
M  V30 6979 H 643.247 6.74655 -1.66929 0
M  V30 6980 H 646.438 4.6049 -0.840602 0
M  V30 6981 H 646.611 6.32444 -1.41133 0
M  V30 6982 N 640.017 0.126909 1.57088 0
M  V30 6983 C 640.947 -0.816847 2.18746 0
M  V30 6984 C 641.928 -1.27161 1.12979 0
M  V30 6985 O 643.113 -1.33279 1.41246 0
M  V30 6986 C 640.243 -2.06398 2.79315 0
M  V30 6987 C 639.197 -1.74673 3.90735 0
M  V30 6988 C 638.523 -3.06482 4.38147 0
M  V30 6989 C 639.823 -1.0089 5.12463 0
M  V30 6990 H 641.517 -0.303032 2.97863 0
M  V30 6991 H 639.063 -0.144314 1.43275 0
M  V30 6992 H 641.016 -2.72885 3.2111 0
M  V30 6993 H 639.74 -2.60118 1.975 0
M  V30 6994 H 638.399 -1.10572 3.49527 0
M  V30 6995 H 638.047 -3.58152 3.5318 0
M  V30 6996 H 637.747 -2.86025 5.13287 0
M  V30 6997 H 639.271 -3.74073 4.82599 0
M  V30 6998 H 640.685 -1.57546 5.51228 0
M  V30 6999 H 639.082 -0.905006 5.93237 0
M  V30 7000 H 640.152 0.00297335 4.849 0
M  V30 7001 N 641.495 -1.56914 -0.146875 0
M  V30 7002 C 642.443 -1.99224 -1.20053 0
M  V30 7003 C 643.437 -0.884661 -1.44465 0
M  V30 7004 O 644.643 -1.06984 -1.44756 0
M  V30 7005 H 641.018 -0.634191 -0.404112 0
M  V30 7006 H 642.989 -2.86998 -0.816987 0
M  V30 7007 C 641.738 -2.38899 -2.52632 0
M  V30 7008 H 641.061 -3.23677 -2.34677 0
M  V30 7009 H 642.501 -2.72326 -3.24984 0
M  V30 7010 C 640.96 -1.2417 -3.13183 0
M  V30 7011 O 641.49 -0.542503 -3.9802 0
M  V30 7012 N 639.696 -1.00592 -2.72635 0
M  V30 7013 H 639.243 -1.57627 -2.03744 0
M  V30 7014 H 639.201 -0.240174 -3.13481 0
M  V30 7015 N 642.974 0.416227 -1.52004 0
M  V30 7016 C 644.204 1.18401 -1.69307 0
M  V30 7017 C 644.612 1.84943 -0.399072 0
M  V30 7018 O 643.955 1.72406 0.634177 0
M  V30 7019 C 644.017 2.29465 -2.76742 0
M  V30 7020 C 643.681 1.83117 -4.18709 0
M  V30 7021 C 644.678 1.32286 -5.02789 0
M  V30 7022 C 642.363 1.90167 -4.64911 0
M  V30 7023 C 644.357 0.891178 -6.31139 0
M  V30 7024 C 642.044 1.4661 -5.93253 0
M  V30 7025 C 643.042 0.961696 -6.76196 0
M  V30 7026 O 642.73 0.532388 -8.02135 0
M  V30 7027 H 642.462 0.362098 -0.570843 0
M  V30 7028 H 645.016 0.496764 -1.99302 0
M  V30 7029 H 643.246 3.01531 -2.42107 0
M  V30 7030 H 644.935 2.91252 -2.82713 0
M  V30 7031 H 645.701 1.26218 -4.68288 0
M  V30 7032 H 641.58 2.28371 -4.00459 0
M  V30 7033 H 645.124 0.496788 -6.95829 0
M  V30 7034 H 641.021 1.52355 -6.27263 0
M  V30 7035 H 641.789 0.656339 -8.15864 0
M  V30 7036 N 644.452 1.42507 0.673017 0
M  V30 7037 C 645.868 1.25472 0.986355 0
M  V30 7038 C 646.068 0.160181 2.00862 0
M  V30 7039 O 645.124 -0.467993 2.48125 0
M  V30 7040 C 646.437 2.61219 1.48947 0
M  V30 7041 C 647.985 2.68589 1.60715 0
M  V30 7042 C 648.46 4.04707 2.14422 0
M  V30 7043 N 649.951 4.0667 2.21752 0
M  V30 7044 C 650.686 5.0881 2.64386 0
M  V30 7045 N 650.182 6.21332 3.0646 0
M  V30 7046 N 651.975 4.96166 2.64151 0
M  V30 7047 H 644.126 2.124 -0.00378532 0
M  V30 7048 H 646.389 0.946046 0.0608367 0
M  V30 7049 H 646.095 3.42179 0.812812 0
M  V30 7050 H 645.969 2.85261 2.46791 0
M  V30 7051 H 648.356 1.87974 2.27486 0
M  V30 7052 H 648.437 2.48333 0.613552 0
M  V30 7053 H 648.081 4.8578 1.48258 0
M  V30 7054 H 648.011 4.22315 3.14575 0
M  V30 7055 H 650.502 3.25438 1.92089 0
M  V30 7056 H 650.815 6.95118 3.37684 0
M  V30 7057 H 649.16 6.24835 3.04313 0
M  V30 7058 H 652.351 4.07334 2.30644 0
M  V30 7059 H 652.524 5.759 2.97057 0
M  V30 7060 N 645.93 -0.909495 1.28709 0
M  V30 7061 C 647.176 -1.66175 1.17293 0
M  V30 7062 C 647.531 -1.90426 -0.274891 0
M  V30 7063 O 646.824 -1.49659 -1.19635 0
M  V30 7064 C 647.018 -3.02117 1.90945 0
M  V30 7065 C 646.847 -2.91134 3.42741 0
M  V30 7066 C 645.617 -2.92429 4.12085 0
M  V30 7067 C 647.815 -2.68889 4.3841 0
M  V30 7068 N 645.797 -2.72078 5.50315 0
M  V30 7069 C 647.168 -2.57423 5.64033 0
M  V30 7070 C 649.223 -2.53919 4.28287 0
M  V30 7071 C 647.926 -2.32513 6.80683 0
M  V30 7072 C 649.952 -2.3039 5.44678 0
M  V30 7073 C 649.314 -2.19682 6.69268 0
M  V30 7074 H 645.413 -0.614095 0.48416 0
M  V30 7075 H 647.997 -1.07377 1.62414 0
M  V30 7076 H 646.168 -3.58993 1.48252 0
M  V30 7077 H 647.9 -3.66388 1.71878 0
M  V30 7078 H 644.655 -3.03345 3.63701 0
M  V30 7079 H 645.079 -2.64983 6.22987 0
M  V30 7080 H 649.721 -2.60946 3.32666 0
M  V30 7081 H 647.439 -2.24225 7.76369 0
M  V30 7082 H 651.025 -2.19665 5.38738 0
M  V30 7083 H 649.905 -2.01725 7.5781 0
M  V30 7084 N 647.408 -1.11026 -1.11852 0
M  V30 7085 C 648.685 -0.768347 -1.79877 0
M  V30 7086 C 649.065 0.744261 -1.97545 0
M  V30 7087 O 648.413 1.67271 -1.55669 0
M  V30 7088 C 648.623 -1.52648 -3.13846 0
M  V30 7089 C 649.971 -1.70297 -3.88953 0
M  V30 7090 O 650.995 -1.49037 -3.23522 0
M  V30 7091 O 649.854 -2.05593 -5.06353 0
M  V30 7092 H 646.948 -0.277891 -0.778913 0
M  V30 7093 H 649.494 -1.21343 -1.18633 0
M  V30 7094 H 648.266 -2.55564 -2.96315 0
M  V30 7095 H 647.889 -1.07466 -3.82801 0
M  V30 7096 N 648.886 1.2938 -0.899927 0
M  V30 7097 C 649.816 2.30144 -0.39446 0
M  V30 7098 C 650.797 1.61611 0.530639 0
M  V30 7099 O 651.982 1.89119 0.441319 0
M  V30 7100 C 649.112 3.45229 0.37868 0
M  V30 7101 C 648.066 4.25564 -0.456012 0
M  V30 7102 C 647.392 5.32848 0.444637 0
M  V30 7103 C 648.692 4.93651 -1.70605 0
M  V30 7104 H 650.386 2.72673 -1.23653 0
M  V30 7105 H 647.932 1.31086 -0.596034 0
M  V30 7106 H 649.885 4.14797 0.743037 0
M  V30 7107 H 648.609 3.01545 1.25453 0
M  V30 7108 H 647.268 3.57704 -0.802704 0
M  V30 7109 H 646.916 4.85408 1.31863 0
M  V30 7110 H 646.616 5.87497 -0.110154 0
M  V30 7111 H 648.14 6.05268 0.805182 0
M  V30 7112 H 649.554 5.55655 -1.41141 0
M  V30 7113 H 647.951 5.58233 -2.20217 0
M  V30 7114 H 649.021 4.18926 -2.4419 0
M  V30 7115 N 650.364 0.662433 1.43002 0
M  V30 7116 C 651.592 0.187615 2.06048 0
M  V30 7117 C 652.007 -1.15039 1.49705 0
M  V30 7118 O 651.364 -1.71209 0.631956 0
M  V30 7119 C 651.415 0.100498 3.6136 0
M  V30 7120 O 651.136 1.38562 4.15611 0
M  V30 7121 C 652.637 -0.399298 4.41498 0
M  V30 7122 H 649.857 0.0941675 0.664359 0
M  V30 7123 H 652.401 0.905681 1.83351 0
M  V30 7124 H 650.556 -0.568181 3.83211 0
M  V30 7125 H 650.97 1.25084 5.09366 0
M  V30 7126 H 652.444 -0.409187 5.50481 0
M  V30 7127 H 652.921 -1.43232 4.15188 0
M  V30 7128 H 653.527 0.23721 4.24638 0
M  V30 7129 N 651.842 -1.52309 0.404946 0
M  V30 7130 C 653.09 -2.01368 -0.17186 0
M  V30 7131 C 653.411 -1.29261 -1.46002 0
M  V30 7132 O 652.681 -0.41729 -1.91404 0
M  V30 7133 H 651.261 -0.744034 -0.0664993 0
M  V30 7134 H 653.923 -1.87263 0.540228 0
M  V30 7135 H 653.019 -3.09888 -0.370957 0
M  V30 7136 N 653.32 -0.135238 -1.57019 0
M  V30 7137 C 654.567 0.518794 -1.95742 0
M  V30 7138 C 654.895 1.65642 -1.01947 0
M  V30 7139 O 654.15 1.95645 -0.0464016 0
M  V30 7140 C 654.449 1.07694 -3.40788 0
M  V30 7141 C 654.115 0.058992 -4.50861 0
M  V30 7142 C 652.777 -0.220872 -4.80693 0
M  V30 7143 C 655.129 -0.633856 -5.17331 0
M  V30 7144 C 652.457 -1.19959 -5.74305 0
M  V30 7145 C 654.809 -1.60131 -6.11997 0
M  V30 7146 C 653.473 -1.889 -6.40213 0
M  V30 7147 H 652.743 0.18984 -0.716269 0
M  V30 7148 H 655.39 -0.219581 -1.90237 0
M  V30 7149 H 653.695 1.89241 -3.43067 0
M  V30 7150 H 655.392 1.59137 -3.68071 0
M  V30 7151 H 651.982 0.287304 -4.27636 0
M  V30 7152 H 656.166 -0.430823 -4.94427 0
M  V30 7153 H 651.422 -1.42905 -5.94465 0
M  V30 7154 H 655.596 -2.14376 -6.62583 0
M  V30 7155 H 653.223 -2.64891 -7.12556 0
M  V30 7156 N 654.798 1.5699 0.138552 0
M  V30 7157 C 655.708 2.02174 1.19008 0
M  V30 7158 C 656.724 0.938622 1.46512 0
M  V30 7159 O 657.9 1.24872 1.58016 0
M  V30 7160 C 654.965 2.40045 2.50159 0
M  V30 7161 C 654.026 3.62346 2.30226 0
M  V30 7162 C 653.259 3.98401 3.55123 0
M  V30 7163 O 653.482 3.35019 4.61647 0
M  V30 7164 O 652.416 4.91606 3.47285 0
M  V30 7165 H 656.242 2.91954 0.836452 0
M  V30 7166 H 653.827 1.45293 0.347907 0
M  V30 7167 H 655.709 2.65225 3.27465 0
M  V30 7168 H 654.384 1.53417 2.85035 0
M  V30 7169 H 653.291 3.42341 1.50843 0
M  V30 7170 H 654.624 4.49617 2.00262 0
M  V30 7171 N 656.276 -0.40816 1.52223 0
M  V30 7172 C 657.186 -1.52202 1.78526 0
M  V30 7173 C 658.202 -1.60546 0.670892 0
M  V30 7174 O 659.378 -1.77242 0.956404 0
M  V30 7175 C 656.443 -2.87928 1.93128 0
M  V30 7176 C 655.504 -2.89463 3.17033 0
M  V30 7177 C 654.737 -4.18715 3.30929 0
M  V30 7178 O 654.96 -5.12662 2.50067 0
M  V30 7179 O 653.894 -4.27125 4.24084 0
M  V30 7180 H 657.72 -1.32911 2.73072 0
M  V30 7181 H 655.305 -0.594112 1.37079 0
M  V30 7182 H 657.187 -3.68426 2.04549 0
M  V30 7183 H 655.862 -3.07285 1.01772 0
M  V30 7184 H 654.769 -2.07815 3.11069 0
M  V30 7185 H 656.102 -2.75055 4.08174 0
M  V30 7186 N 657.755 -1.42862 -0.66545 0
M  V30 7187 C 658.665 -1.49491 -1.80803 0
M  V30 7188 C 659.681 -0.382914 -1.69734 0
M  V30 7189 O 660.857 -0.635223 -1.9112 0
M  V30 7190 C 657.922 -1.40383 -3.17007 0
M  V30 7191 C 656.983 -2.62152 -3.39963 0
M  V30 7192 C 656.216 -2.53469 -4.69669 0
M  V30 7193 O 656.439 -1.57568 -5.48205 0
M  V30 7194 O 655.373 -3.43763 -4.94075 0
M  V30 7195 H 659.199 -2.45949 -1.78165 0
M  V30 7196 H 656.784 -1.24728 -0.822387 0
M  V30 7197 H 658.666 -1.377 -3.98267 0
M  V30 7198 H 657.341 -0.470546 -3.20262 0
M  V30 7199 H 656.248 -2.70409 -2.58515 0
M  V30 7200 H 657.581 -3.54411 -3.41546 0
M  V30 7201 N 659.233 0.902656 -1.29189 0
M  V30 7202 C 660.143 2.03946 -1.15944 0
M  V30 7203 C 661.159 1.738 -0.0833803 0
M  V30 7204 O 662.335 1.9923 -0.29487 0
M  V30 7205 C 659.4 3.36519 -0.834006 0
M  V30 7206 C 658.461 3.80203 -1.9936 0
M  V30 7207 C 657.694 5.06449 -1.68359 0
M  V30 7208 O 657.917 5.67202 -0.603141 0
M  V30 7209 O 656.851 5.46114 -2.53067 0
M  V30 7210 H 660.677 2.18043 -2.11403 0
M  V30 7211 H 658.262 1.02584 -1.08613 0
M  V30 7212 H 660.144 4.16089 -0.666949 0
M  V30 7213 H 658.819 3.23573 0.0908245 0
M  V30 7214 H 657.726 3.01413 -2.21588 0
M  V30 7215 H 659.059 3.97729 -2.89952 0
M  V30 7216 N 660.711 1.11618 1.11262 0
M  V30 7217 C 661.621 0.78898 2.20935 0
M  V30 7218 C 662.637 -0.21867 1.7262 0
M  V30 7219 O 663.813 -0.0543826 2.01327 0
M  V30 7220 C 660.878 0.239014 3.45875 0
M  V30 7221 C 659.939 1.3055 4.08968 0
M  V30 7222 C 659.172 0.781687 5.27944 0
M  V30 7223 O 659.395 -0.387605 5.69082 0
M  V30 7224 O 658.329 1.54734 5.81671 0
M  V30 7225 H 662.155 1.70477 2.51339 0
M  V30 7226 H 659.74 0.892203 1.19834 0
M  V30 7227 H 661.622 -0.0632312 4.21353 0
M  V30 7228 H 660.297 -0.649454 3.17118 0
M  V30 7229 H 659.204 1.66079 3.35214 0
M  V30 7230 H 660.537 2.16743 4.41909 0
M  V30 7231 N 662.189 -1.289 0.906776 0
M  V30 7232 C 663.152 -2.25777 0.394656 0
M  V30 7233 C 664.152 -1.53621 -0.475119 0
M  V30 7234 O 665.342 -1.71949 -0.279165 0
M  V30 7235 C 662.474 -3.38113 -0.43499 0
M  V30 7236 H 663.667 -2.72592 1.25033 0
M  V30 7237 H 661.22 -1.40463 0.685547 0
M  V30 7238 H 661.955 -2.96648 -1.31036 0
M  V30 7239 H 661.74 -3.91647 0.188334 0
M  V30 7240 H 663.23 -4.10168 -0.784365 0
M  V30 7241 N 663.667 -0.670007 -1.42649 0
M  V30 7242 C 664.913 -0.190568 -2.01903 0
M  V30 7243 C 665.246 1.19817 -1.52832 0
M  V30 7244 O 664.521 1.80342 -0.728485 0
M  V30 7245 C 664.804 -0.21991 -3.59428 0
M  V30 7246 C 664.657 -1.64376 -4.18689 0
M  V30 7247 C 665.976 0.434519 -4.3795 0
M  V30 7248 H 663.095 -0.0707219 -0.733599 0
M  V30 7249 H 665.737 -0.853883 -1.69732 0
M  V30 7250 H 663.887 0.344894 -3.86966 0
M  V30 7251 H 665.559 -2.26044 -4.02122 0
M  V30 7252 H 663.802 -2.18591 -3.747 0
M  V30 7253 H 664.473 -1.61601 -5.27815 0
M  V30 7254 H 666.949 -0.0462156 -4.16074 0
M  V30 7255 H 665.825 0.38333 -5.4756 0
M  V30 7256 H 666.086 1.51135 -4.15464 0
M  V30 7257 N 665.145 1.52092 -0.413018 0
M  V30 7258 C 666.092 2.27119 0.410558 0
M  V30 7259 C 667.062 1.29692 1.03774 0
M  V30 7260 O 668.247 1.58561 1.06128 0
M  V30 7261 C 665.387 3.09863 1.51918 0
M  V30 7262 C 664.5 4.22252 0.912528 0
M  V30 7263 C 663.635 4.92348 1.99417 0
M  V30 7264 C 662.674 5.96694 1.36466 0
M  V30 7265 N 661.811 6.60292 2.38661 0
M  V30 7266 H 666.651 2.97067 -0.235661 0
M  V30 7267 H 664.188 1.46542 -0.128055 0
M  V30 7268 H 666.146 3.56144 2.17295 0
M  V30 7269 H 664.776 2.42078 2.13537 0
M  V30 7270 H 663.828 3.80113 0.147697 0
M  V30 7271 H 665.14 4.9709 0.412717 0
M  V30 7272 H 664.294 5.42054 2.72512 0
M  V30 7273 H 663.033 4.17087 2.52764 0
M  V30 7274 H 662.038 5.46304 0.61906 0
M  V30 7275 H 663.263 6.73899 0.838827 0
M  V30 7276 H 661.209 5.87858 2.91134 0
M  V30 7277 H 661.126 7.30816 1.93503 0
M  V30 7278 H 662.394 7.14635 3.11314 0
M  V30 7279 N 666.623 0.143563 1.56945 0
M  V30 7280 C 667.9 -0.553285 1.87612 0
M  V30 7281 C 668.28 -1.83195 1.04894 0
M  V30 7282 O 667.628 -2.28102 0.134773 0
M  V30 7283 C 667.838 -0.822055 3.3918 0
M  V30 7284 C 669.186 -1.16435 4.08324 0
M  V30 7285 O 670.21 -0.911522 3.4434 0
M  V30 7286 O 669.069 -1.63996 5.21313 0
M  V30 7287 H 666.163 -0.281851 0.777489 0
M  V30 7288 H 668.709 0.179916 1.68744 0
M  V30 7289 H 667.481 0.0830265 3.91212 0
M  V30 7290 H 667.104 -1.60956 3.63564 0
M  V30 7291 N 668.101 -1.57061 -0.130224 0
M  V30 7292 C 669.051 -1.95941 -1.16582 0
M  V30 7293 C 670.035 -0.832858 -1.37667 0
M  V30 7294 O 671.227 -1.09647 -1.38948 0
M  V30 7295 C 668.356 -2.35777 -2.49528 0
M  V30 7296 C 667.442 -3.5504 -2.31964 0
M  V30 7297 N 667.833 -4.71071 -1.84189 0
M  V30 7298 C 666.131 -3.60453 -2.62659 0
M  V30 7299 C 666.832 -5.53128 -1.80068 0
M  V30 7300 N 665.808 -4.95303 -2.24001 0
M  V30 7301 H 669.61 -2.83117 -0.788806 0
M  V30 7302 H 667.124 -1.58842 -0.3381 0
M  V30 7303 H 669.121 -2.61843 -3.24413 0
M  V30 7304 H 667.781 -1.49961 -2.87996 0
M  V30 7305 H 668.792 -4.94504 -1.53903 0
M  V30 7306 H 665.469 -2.85217 -3.0489 0
M  V30 7307 H 666.859 -6.56182 -1.4448 0
M  V30 7308 N 669.579 0.400081 -1.52437 0
M  V30 7309 C 670.99 0.97851 -1.59003 0
M  V30 7310 C 671.341 1.91293 -0.436068 0
M  V30 7311 O 670.466 2.1183 0.442365 0
M  V30 7312 C 671.061 1.78145 -2.88184 0
M  V30 7313 C 669.62 2.30976 -2.97199 0
M  V30 7314 C 668.767 1.11212 -2.54022 0
M  V30 7315 H 671.718 0.180002 -1.57676 0
M  V30 7316 H 671.739 2.63968 -2.74046 0
M  V30 7317 H 671.251 1.1011 -3.72152 0
M  V30 7318 H 669.352 3.02355 -2.17744 0
M  V30 7319 H 669.465 2.61221 -4.01622 0
M  V30 7320 H 667.829 1.46882 -2.08081 0
M  V30 7321 H 668.612 0.447307 -3.40373 0
M  V30 7322 N 671.057 1.43213 0.657864 0
M  V30 7323 C 672.473 1.26511 0.972992 0
M  V30 7324 C 672.673 0.181477 2.00681 0
M  V30 7325 O 671.729 -0.441649 2.48608 0
M  V30 7326 C 673.042 2.62784 1.46168 0
M  V30 7327 C 674.59 2.70278 1.57857 0
M  V30 7328 C 675.065 4.06958 2.10117 0
M  V30 7329 N 676.556 4.08999 2.17426 0
M  V30 7330 C 677.291 5.11585 2.58975 0
M  V30 7331 N 676.787 6.24548 2.99853 0
M  V30 7332 N 678.58 4.9894 2.58873 0
M  V30 7333 H 670.731 2.12384 -0.0263129 0
M  V30 7334 H 672.994 0.946638 0.0507992 0
M  V30 7335 H 672.7 3.43022 0.776474 0
M  V30 7336 H 672.574 2.87863 2.43751 0
M  V30 7337 H 674.961 1.90376 2.25479 0
M  V30 7338 H 675.042 2.4897 0.587179 0
M  V30 7339 H 674.686 4.87325 1.43098 0
M  V30 7340 H 674.616 4.25628 3.10078 0
M  V30 7341 H 677.107 3.27457 1.88627 0
M  V30 7342 H 677.42 6.98661 3.30292 0
M  V30 7343 H 675.765 6.28027 2.97669 0
M  V30 7344 H 678.956 4.09757 2.26311 0
M  V30 7345 H 679.129 5.79019 2.90932 0
M  V30 7346 N 672.536 -0.895792 1.29666 0
M  V30 7347 C 673.499 -1.98189 1.15124 0
M  V30 7348 C 674.499 -1.60572 0.0855717 0
M  V30 7349 O 675.689 -1.70991 0.332826 0
M  V30 7350 C 672.821 -3.32289 0.761372 0
M  V30 7351 H 674.014 -2.12518 2.11603 0
M  V30 7352 H 671.567 -1.0808 1.12908 0
M  V30 7353 H 672.302 -3.23662 -0.203393 0
M  V30 7354 H 672.087 -3.60958 1.53139 0
M  V30 7355 H 673.577 -4.1198 0.682792 0
M  V30 7356 N 674.014 -1.12206 -1.10668 0
M  V30 7357 C 674.924 -0.800686 -2.20513 0
M  V30 7358 C 675.94 0.209512 -1.72734 0
M  V30 7359 O 677.116 0.043705 -2.01353 0
M  V30 7360 C 674.181 -0.257353 -3.45744 0
M  V30 7361 C 673.242 -1.32718 -4.0827 0
M  V30 7362 C 672.475 -0.809674 -5.27522 0
M  V30 7363 O 672.698 0.35742 -5.69279 0
M  V30 7364 O 671.632 -1.57816 -5.80842 0
M  V30 7365 H 675.458 -1.71807 -2.50432 0
M  V30 7366 H 673.043 -0.898546 -1.19359 0
M  V30 7367 H 674.925 0.0408849 -4.2138 0
M  V30 7368 H 673.6 0.632627 -3.17458 0
M  V30 7369 H 672.507 -1.67855 -3.34329 0
M  V30 7370 H 673.84 -2.19083 -4.40753 0
M  V30 7371 N 675.492 1.28418 -0.913599 0
M  V30 7372 C 676.722 1.98817 -0.56172 0
M  V30 7373 C 677.13 1.68457 0.861321 0
M  V30 7374 O 676.473 0.933653 1.58204 0
M  V30 7375 C 676.535 3.52801 -0.690785 0
M  V30 7376 C 676.199 4.0675 -2.08334 0
M  V30 7377 C 677.196 4.20597 -3.05604 0
M  V30 7378 C 674.881 4.41445 -2.39648 0
M  V30 7379 C 676.875 4.68392 -4.32305 0
M  V30 7380 C 674.562 4.88934 -3.66588 0
M  V30 7381 C 675.56 5.02364 -4.6273 0
M  V30 7382 O 675.248 5.48817 -5.87414 0
M  V30 7383 H 674.98 0.641608 -0.212874 0
M  V30 7384 H 677.534 1.64584 -1.22887 0
M  V30 7385 H 675.764 3.86686 0.0334336 0
M  V30 7386 H 677.453 4.04422 -0.346031 0
M  V30 7387 H 678.219 3.94067 -2.8273 0
M  V30 7388 H 674.098 4.30242 -1.65567 0
M  V30 7389 H 677.642 4.7879 -5.07352 0
M  V30 7390 H 673.539 5.14904 -3.89287 0
M  V30 7391 H 674.307 5.67103 -5.90201 0
M  V30 7392 N 676.97 0.677563 1.42291 0
M  V30 7393 C 677.88 0.000962654 2.346 0
M  V30 7394 C 678.896 -0.785833 1.55244 0
M  V30 7395 O 680.072 -0.727523 1.87801 0
M  V30 7396 C 677.137 -0.936746 3.33805 0
M  V30 7397 C 676.198 -0.144173 4.29058 0
M  V30 7398 C 675.431 -1.03722 5.23524 0
M  V30 7399 O 675.654 -2.27675 5.22992 0
M  V30 7400 O 674.588 -0.496542 5.99848 0
M  V30 7401 H 678.414 0.761397 2.94001 0
M  V30 7402 H 675.999 0.43781 1.42841 0
M  V30 7403 H 677.881 -1.47497 3.94744 0
M  V30 7404 H 676.556 -1.67698 2.76874 0
M  V30 7405 H 675.463 0.438224 3.71524 0
M  V30 7406 H 676.796 0.55701 4.89038 0
M  V30 7407 N 678.448 -1.51871 0.421078 0
M  V30 7408 C 679.411 -2.25914 -0.386712 0
M  V30 7409 C 680.411 -1.28733 -0.963555 0
M  V30 7410 O 681.601 -1.52579 -0.840556 0
M  V30 7411 C 678.733 -3.03853 -1.54551 0
M  V30 7412 H 679.926 -2.98754 0.261978 0
M  V30 7413 H 677.479 -1.5533 0.173862 0
M  V30 7414 H 678.214 -2.35392 -2.23072 0
M  V30 7415 H 677.999 -3.75215 -1.13824 0
M  V30 7416 H 679.489 -3.59984 -2.11663 0
M  V30 7417 N 679.926 -0.151884 -1.56866 0
M  V30 7418 C 681.342 0.204486 -1.58285 0
M  V30 7419 C 681.542 1.6431 -1.16639 0
M  V30 7420 O 680.598 2.37077 -0.868946 0
M  V30 7421 C 681.911 -0.0587019 -3.00643 0
M  V30 7422 C 683.459 0.00462303 -3.13 0
M  V30 7423 C 683.934 -0.231297 -4.57416 0
M  V30 7424 N 685.425 -0.178394 -4.62856 0
M  V30 7425 C 686.16 -0.335379 -5.72418 0
M  V30 7426 N 685.656 -0.550355 -6.90611 0
M  V30 7427 N 687.449 -0.272641 -5.61438 0
M  V30 7428 H 679.6 -1.09116 -1.82229 0
M  V30 7429 H 681.863 -0.432311 -0.843689 0
M  V30 7430 H 681.569 -1.05453 -3.35518 0
M  V30 7431 H 681.443 0.658508 -3.71407 0
M  V30 7432 H 683.83 0.991009 -2.77962 0
M  V30 7433 H 683.911 -0.744992 -2.44711 0
M  V30 7434 H 683.555 -1.2148 -4.93158 0
M  V30 7435 H 683.485 0.5387 -5.23837 0
M  V30 7436 H 685.976 -0.0170923 -3.77896 0
M  V30 7437 H 686.289 -0.660116 -7.69976 0
M  V30 7438 H 684.634 -0.586736 -6.92519 0
M  V30 7439 H 687.825 -0.105421 -4.67981 0
M  V30 7440 H 687.998 -0.398418 -6.46774 0
M  V30 7441 N 681.404 1.57128 0.121893 0
M  V30 7442 C 682.65 1.84974 0.831418 0
M  V30 7443 C 682.983 0.737204 1.79663 0
M  V30 7444 O 682.258 -0.257199 1.92792 0
M  V30 7445 C 682.541 3.23397 1.58386 0
M  V30 7446 C 682.394 4.45246 0.638445 0
M  V30 7447 C 683.713 3.59355 2.54071 0
M  V30 7448 H 680.832 0.67282 0.300803 0
M  V30 7449 H 683.474 1.89759 0.0957587 0
M  V30 7450 H 681.624 3.19449 2.21098 0
M  V30 7451 H 683.296 4.61295 0.0203925 0
M  V30 7452 H 681.539 4.33771 -0.05023 0
M  V30 7453 H 682.21 5.38765 1.20151 0
M  V30 7454 H 684.686 3.64075 2.01465 0
M  V30 7455 H 683.562 4.57193 3.03752 0
M  V30 7456 H 683.823 2.86622 3.36601 0
M  V30 7457 N 682.882 -0.391992 1.52647 0
M  V30 7458 C 683.812 -1.48517 1.8018 0
M  V30 7459 C 684.793 -1.57039 0.653667 0
M  V30 7460 O 685.978 -1.72036 0.900962 0
M  V30 7461 C 683.108 -2.86161 1.96797 0
M  V30 7462 C 682.062 -2.92481 3.12472 0
M  V30 7463 C 681.388 -4.32546 3.14338 0
M  V30 7464 C 682.688 -2.624 4.51601 0
M  V30 7465 H 684.382 -1.25726 2.71723 0
M  V30 7466 H 681.928 -0.603387 1.30749 0
M  V30 7467 H 683.881 -3.62639 2.14641 0
M  V30 7468 H 682.605 -3.10283 1.01941 0
M  V30 7469 H 681.264 -2.18451 2.94406 0
M  V30 7470 H 680.912 -4.53703 2.1717 0
M  V30 7471 H 680.612 -4.37695 3.92042 0
M  V30 7472 H 682.136 -5.10934 3.34333 0
M  V30 7473 H 683.55 -3.28596 4.69785 0
M  V30 7474 H 681.947 -2.78903 5.3135 0
M  V30 7475 H 683.017 -1.57754 4.58521 0
M  V30 7476 N 684.36 -1.4356 -0.65026 0
M  V30 7477 C 685.27 -1.514 -1.79207 0
M  V30 7478 C 686.286 -0.400895 -1.69319 0
M  V30 7479 O 687.462 -0.655458 -1.90436 0
M  V30 7480 C 684.527 -1.43737 -3.155 0
M  V30 7481 C 683.588 -2.65743 -3.37163 0
M  V30 7482 C 682.821 -2.58436 -4.66954 0
M  V30 7483 O 683.044 -1.63374 -5.46503 0
M  V30 7484 O 681.978 -3.48984 -4.90402 0
M  V30 7485 H 685.804 -2.47825 -1.75547 0
M  V30 7486 H 683.389 -1.25594 -0.809111 0
M  V30 7487 H 685.271 -1.41916 -3.96784 0
M  V30 7488 H 683.946 -0.504488 -3.19745 0
M  V30 7489 H 682.853 -2.73136 -2.55632 0
M  V30 7490 H 684.186 -3.58014 -3.37768 0
M  V30 7491 N 685.838 0.888903 -1.30139 0
M  V30 7492 C 686.785 1.99422 -1.16188 0
M  V30 7493 C 687.755 1.66017 -0.0523869 0
M  V30 7494 O 688.94 1.89506 -0.221864 0
M  V30 7495 C 686.08 3.34325 -0.855612 0
M  V30 7496 C 685.193 3.80445 -2.0466 0
M  V30 7497 C 684.328 5.03975 -1.67876 0
M  V30 7498 C 683.367 5.42492 -2.83493 0
M  V30 7499 N 682.504 6.57206 -2.47032 0
M  V30 7500 H 687.344 2.10687 -2.10749 0
M  V30 7501 H 684.881 1.03165 -1.04859 0
M  V30 7502 H 686.839 4.11968 -0.658681 0
M  V30 7503 H 685.469 3.22756 0.0531155 0
M  V30 7504 H 684.521 2.98745 -2.3549 0
M  V30 7505 H 685.833 4.04933 -2.91257 0
M  V30 7506 H 684.987 5.89232 -1.44535 0
M  V30 7507 H 683.726 4.8135 -0.784431 0
M  V30 7508 H 682.731 4.55764 -3.07505 0
M  V30 7509 H 683.956 5.67093 -3.73607 0
M  V30 7510 H 681.902 6.36164 -1.601 0
M  V30 7511 H 681.819 6.81543 -3.27161 0
M  V30 7512 H 683.087 7.45704 -2.27038 0
M  V30 7513 N 687.317 1.12792 1.10072 0
M  V30 7514 C 688.542 0.908838 1.86427 0
M  V30 7515 C 688.967 -0.536793 1.80278 0
M  V30 7516 O 688.325 -1.38033 1.17543 0
M  V30 7517 C 688.373 1.39295 3.3261 0
M  V30 7518 O 687.477 0.573846 4.08388 0
M  V30 7519 H 686.818 0.326234 0.578331 0
M  V30 7520 H 689.348 1.50094 1.39043 0
M  V30 7521 H 689.358 1.39366 3.83459 0
M  V30 7522 H 688.033 2.44555 3.36401 0
M  V30 7523 H 686.61 0.640438 3.67359 0
M  V30 7524 N 688.795 -1.27931 0.920396 0
M  V30 7525 C 689.725 -2.29487 0.431024 0
M  V30 7526 C 690.706 -1.62435 -0.504861 0
M  V30 7527 O 691.891 -1.89797 -0.411176 0
M  V30 7528 C 689.021 -3.45788 -0.323709 0
M  V30 7529 C 687.975 -4.24784 0.523658 0
M  V30 7530 C 687.301 -5.33488 -0.359809 0
M  V30 7531 C 688.601 -4.90874 1.78437 0
M  V30 7532 H 690.295 -2.70671 1.27975 0
M  V30 7533 H 687.841 -1.30121 0.616813 0
M  V30 7534 H 689.794 -4.15927 -0.676952 0
M  V30 7535 H 688.518 -3.03502 -1.2064 0
M  V30 7536 H 687.177 -3.56382 0.85951 0
M  V30 7537 H 686.825 -4.87445 -1.24124 0
M  V30 7538 H 686.525 -5.87247 0.203605 0
M  V30 7539 H 688.049 -6.06472 -0.708787 0
M  V30 7540 H 689.463 -5.53339 1.49963 0
M  V30 7541 H 687.86 -5.54659 2.29071 0
M  V30 7542 H 688.93 -4.14988 2.50824 0
M  V30 7543 N 690.273 -0.685099 -1.4193 0
M  V30 7544 C 691.22 -0.0131869 -2.30796 0
M  V30 7545 C 692.19 0.782129 -1.46533 0
M  V30 7546 O 693.375 0.75229 -1.75343 0
M  V30 7547 C 690.515 0.924768 -3.32479 0
M  V30 7548 C 689.628 0.122181 -4.31827 0
M  V30 7549 C 688.763 1.05682 -5.20581 0
M  V30 7550 C 687.802 0.246526 -6.11603 0
M  V30 7551 N 686.939 1.13442 -6.92875 0
M  V30 7552 H 691.779 -0.776789 -2.87698 0
M  V30 7553 H 689.316 -0.394791 -1.41703 0
M  V30 7554 H 691.274 1.48251 -3.89971 0
M  V30 7555 H 689.904 1.65488 -2.77152 0
M  V30 7556 H 688.956 -0.552335 -3.76369 0
M  V30 7557 H 690.268 -0.506473 -4.96222 0
M  V30 7558 H 689.422 1.68415 -5.82856 0
M  V30 7559 H 688.161 1.71935 -4.56388 0
M  V30 7560 H 687.166 -0.393944 -5.48387 0
M  V30 7561 H 688.391 -0.412053 -6.77849 0
M  V30 7562 H 686.337 1.78316 -6.313 0
M  V30 7563 H 686.254 0.561089 -7.53915 0
M  V30 7564 H 687.522 1.74889 -7.59628 0
M  V30 7565 N 691.751 1.51645 -0.429126 0
M  V30 7566 C 692.698 2.27542 0.386446 0
M  V30 7567 C 693.668 1.30786 1.02393 0
M  V30 7568 O 694.853 1.59678 1.0444 0
M  V30 7569 C 691.993 3.11457 1.48623 0
M  V30 7570 C 691.106 4.23196 0.867691 0
M  V30 7571 C 690.241 4.94435 1.94183 0
M  V30 7572 C 689.28 5.98108 1.30129 0
M  V30 7573 N 688.417 6.62786 2.31644 0
M  V30 7574 H 693.257 2.968 -0.267155 0
M  V30 7575 H 690.794 1.46397 -0.143591 0
M  V30 7576 H 692.752 3.58429 2.13506 0
M  V30 7577 H 691.382 2.44329 2.10957 0
M  V30 7578 H 690.434 3.80248 0.107373 0
M  V30 7579 H 691.746 4.97499 0.35997 0
M  V30 7580 H 690.9 5.44914 2.66747 0
M  V30 7581 H 689.639 4.19744 2.48326 0
M  V30 7582 H 688.644 5.4693 0.561082 0
M  V30 7583 H 689.869 6.74751 0.767303 0
M  V30 7584 H 687.815 5.90913 2.84883 0
M  V30 7585 H 687.732 7.32828 1.85741 0
M  V30 7586 H 689 7.17897 3.03717 0
M  V30 7587 N 693.229 0.160201 1.56784 0
M  V30 7588 C 694.139 -0.787167 2.21 0
M  V30 7589 C 695.155 -1.26167 1.19825 0
M  V30 7590 O 696.331 -1.31611 1.52448 0
M  V30 7591 C 693.396 -2.00364 2.8294 0
M  V30 7592 C 692.457 -1.5771 3.99282 0
M  V30 7593 C 691.69 -2.73558 4.58259 0
M  V30 7594 O 691.913 -3.90129 4.16119 0
M  V30 7595 O 690.847 -2.48271 5.48311 0
M  V30 7596 H 694.673 -0.270462 3.02493 0
M  V30 7597 H 692.258 -0.0674666 1.49248 0
M  V30 7598 H 694.14 -2.71529 3.22257 0
M  V30 7599 H 692.815 -2.50961 2.04451 0
M  V30 7600 H 691.722 -0.835274 3.64656 0
M  V30 7601 H 693.055 -1.11815 4.79331 0
M  V30 7602 N 694.707 -1.5719 -0.113559 0
M  V30 7603 C 695.932 -1.89702 -0.838336 0
M  V30 7604 C 696.357 -0.752679 -1.72384 0
M  V30 7605 O 695.715 0.296575 -1.78858 0
M  V30 7606 C 695.763 -3.20989 -1.64312 0
M  V30 7607 O 694.867 -3.07278 -2.75053 0
M  V30 7608 H 694.208 -0.622339 -0.231496 0
M  V30 7609 H 696.738 -2.04382 -0.0943228 0
M  V30 7610 H 696.748 -3.53843 -2.03123 0
M  V30 7611 H 695.423 -4.03869 -0.993119 0
M  V30 7612 H 694 -2.85901 -2.39406 0
M  V30 7613 N 696.185 0.383891 -1.52853 0
M  V30 7614 C 697.601 0.724316 -1.42218 0
M  V30 7615 C 697.801 1.93943 -0.546654 0
M  V30 7616 O 696.857 2.5249 -0.0220562 0
M  V30 7617 C 698.17 0.954635 -2.85144 0
M  V30 7618 C 699.718 1.05579 -2.94656 0
M  V30 7619 C 700.193 1.3187 -4.38605 0
M  V30 7620 N 701.684 1.38681 -4.41952 0
M  V30 7621 C 702.419 1.60699 -5.50421 0
M  V30 7622 N 701.915 1.80154 -6.68967 0
M  V30 7623 N 703.708 1.6292 -5.37972 0
M  V30 7624 H 695.859 -0.4156 -2.08294 0
M  V30 7625 H 698.122 -0.123776 -0.939885 0
M  V30 7626 H 697.828 0.133829 -3.51445 0
M  V30 7627 H 697.702 1.86788 -3.27704 0
M  V30 7628 H 700.089 1.86716 -2.2852 0
M  V30 7629 H 700.17 0.120338 -2.55517 0
M  V30 7630 H 699.814 0.512416 -5.05309 0
M  V30 7631 H 699.744 2.26708 -4.75301 0
M  V30 7632 H 702.235 1.25334 -3.56511 0
M  V30 7633 H 702.548 1.96476 -7.47407 0
M  V30 7634 H 700.893 1.77368 -6.71986 0
M  V30 7635 H 704.084 1.47276 -4.44328 0
M  V30 7636 H 704.257 1.79739 -6.22574 0
M  V30 7637 N 697.663 1.43903 0.642637 0
M  V30 7638 C 698.611 1.50164 1.77634 0
M  V30 7639 C 699.605 0.374294 1.65213 0
M  V30 7640 O 700.811 0.548748 1.71431 0
M  V30 7641 H 697.186 0.470974 0.586249 0
M  V30 7642 H 699.157 2.45603 1.69474 0
M  V30 7643 C 697.906 1.45196 3.15933 0
M  V30 7644 H 697.229 2.31253 3.26132 0
M  V30 7645 H 698.669 1.53638 3.95185 0
M  V30 7646 C 697.128 0.171043 3.36466 0
M  V30 7647 O 697.658 -0.763413 3.94379 0
M  V30 7648 N 695.864 0.077847 2.90496 0
M  V30 7649 H 695.411 0.8391 2.43551 0
M  V30 7650 H 695.369 -0.778473 3.0461 0
M  V30 7651 N 699.141 -0.881989 1.30609 0
M  V30 7652 C 700.088 -1.98803 1.17244 0
M  V30 7653 C 701.058 -1.65987 0.0611905 0
M  V30 7654 O 702.243 -1.89385 0.231911 0
M  V30 7655 C 699.383 -3.33867 0.87333 0
M  V30 7656 C 698.496 -3.79354 2.06675 0
M  V30 7657 C 697.631 -5.03078 1.70547 0
M  V30 7658 C 696.67 -5.40981 2.86366 0
M  V30 7659 N 695.807 -6.55886 2.50514 0
M  V30 7660 H 700.647 -2.09566 2.11863 0
M  V30 7661 H 698.184 -1.02607 1.05405 0
M  V30 7662 H 700.142 -4.11612 0.680519 0
M  V30 7663 H 698.772 -3.2278 -0.0359983 0
M  V30 7664 H 697.824 -2.97492 2.37071 0
M  V30 7665 H 699.136 -4.03382 2.93401 0
M  V30 7666 H 698.29 -5.88457 1.47658 0
M  V30 7667 H 697.029 -4.80927 0.809947 0
M  V30 7668 H 696.034 -4.54127 3.09917 0
M  V30 7669 H 697.259 -5.65104 3.76609 0
M  V30 7670 H 695.205 -6.35306 1.63471 0
M  V30 7671 H 695.122 -6.79799 3.30771 0
M  V30 7672 H 696.39 -7.44489 2.30989 0
M  V30 7673 N 700.619 -1.13374 -1.09472 0
M  V30 7674 C 701.529 -0.824029 -2.19652 0
M  V30 7675 C 702.545 0.19118 -1.72947 0
M  V30 7676 O 703.721 0.0223464 -2.01388 0
M  V30 7677 C 700.786 -0.294009 -3.45451 0
M  V30 7678 C 699.847 -1.3704 -4.0684 0
M  V30 7679 C 699.08 -0.86558 -5.26634 0
M  V30 7680 O 699.303 0.29702 -5.69626 0
M  V30 7681 O 698.237 -1.63968 -5.79136 0
M  V30 7682 H 702.063 -1.74454 -2.48595 0
M  V30 7683 H 699.648 -0.911155 -1.18399 0
M  V30 7684 H 701.53 -0.00381039 -4.214 0
M  V30 7685 H 700.205 0.598921 -3.18111 0
M  V30 7686 H 699.112 -1.71391 -3.3253 0
M  V30 7687 H 700.445 -2.23746 -4.38405 0
M  V30 7688 N 702.098 1.27442 -0.927168 0
M  V30 7689 C 703.045 2.26863 -0.424459 0
M  V30 7690 C 704.015 1.5813 0.508346 0
M  V30 7691 O 705.2 1.85946 0.42762 0
M  V30 7692 C 702.34 3.43639 0.31718 0
M  V30 7693 C 701.453 4.27087 -0.649675 0
M  V30 7694 C 700.588 5.31082 0.111753 0
M  V30 7695 C 699.627 6.062 -0.847843 0
M  V30 7696 N 698.764 7.01999 -0.119074 0
M  V30 7697 H 703.604 2.69239 -1.27728 0
M  V30 7698 H 701.141 1.32394 -0.641106 0
M  V30 7699 H 703.099 4.10155 0.763486 0
M  V30 7700 H 701.729 3.02217 1.13424 0
M  V30 7701 H 700.781 3.60491 -1.21451 0
M  V30 7702 H 702.093 4.79242 -1.38307 0
M  V30 7703 H 701.247 6.03544 0.618 0
M  V30 7704 H 699.986 4.7973 0.878114 0
M  V30 7705 H 698.991 5.32577 -1.36534 0
M  V30 7706 H 700.216 6.59642 -1.61398 0
M  V30 7707 H 698.162 6.52977 0.629051 0
M  V30 7708 H 698.079 7.5184 -0.792046 0
M  V30 7709 H 699.347 7.78638 0.366537 0
M  V30 7710 N 703.576 0.692616 1.41565 0
M  V30 7711 C 704.992 0.363878 1.55397 0
M  V30 7712 C 705.192 -1.1294 1.66874 0
M  V30 7713 O 704.248 -1.91517 1.64552 0
M  V30 7714 C 705.561 1.10982 2.7947 0
M  V30 7715 C 707.109 1.09387 2.93263 0
M  V30 7716 C 707.584 1.8215 4.20221 0
M  V30 7717 N 709.075 1.79105 4.27172 0
M  V30 7718 C 709.81 2.32247 5.2426 0
M  V30 7719 N 709.306 2.93847 6.27396 0
M  V30 7720 N 711.099 2.22519 5.1618 0
M  V30 7721 H 703.25 1.66116 1.3236 0
M  V30 7722 H 705.513 0.700848 0.63837 0
M  V30 7723 H 705.219 2.1647 2.77188 0
M  V30 7724 H 705.093 0.686492 3.709 0
M  V30 7725 H 707.48 0.0472638 2.95062 0
M  V30 7726 H 707.561 1.55623 2.03015 0
M  V30 7727 H 707.205 2.86789 4.19183 0
M  V30 7728 H 707.135 1.33351 5.09436 0
M  V30 7729 H 709.626 1.34191 3.53272 0
M  V30 7730 H 709.939 3.31972 6.97864 0
M  V30 7731 H 708.284 2.97924 6.27906 0
M  V30 7732 H 711.475 1.7407 4.34531 0
M  V30 7733 H 711.648 2.64239 5.91677 0
M  V30 7734 N 705.054 -1.51416 0.437162 0
M  V30 7735 C 706.47 -1.59349 0.0894459 0
M  V30 7736 C 706.67 -1.44809 -1.40116 0
M  V30 7737 O 705.726 -1.28924 -2.17106 0
M  V30 7738 C 707.039 -2.9446 0.609398 0
M  V30 7739 C 708.587 -3.07769 0.569824 0
M  V30 7740 C 709.062 -4.45404 1.06675 0
M  V30 7741 N 710.553 -4.51723 1.02473 0
M  V30 7742 C 711.288 -5.56544 1.3801 0
M  V30 7743 N 710.784 -6.68784 1.80831 0
M  V30 7744 N 712.577 -5.46901 1.29828 0
M  V30 7745 H 704.728 -1.59112 1.40703 0
M  V30 7746 H 706.991 -0.750031 0.579791 0
M  V30 7747 H 706.697 -3.1047 1.65231 0
M  V30 7748 H 706.571 -3.77184 0.0342236 0
M  V30 7749 H 708.958 -2.91428 -0.464107 0
M  V30 7750 H 709.039 -2.26885 1.1814 0
M  V30 7751 H 708.683 -4.62492 2.09914 0
M  V30 7752 H 708.613 -5.24827 0.431712 0
M  V30 7753 H 711.104 -3.71165 0.710258 0
M  V30 7754 H 711.417 -7.44787 2.06185 0
M  V30 7755 H 709.762 -6.69992 1.84757 0
M  V30 7756 H 712.953 -4.581 0.962397 0
M  V30 7757 H 713.126 -6.2848 1.57851 0
M  V30 7758 N 706.532 -0.168513 -1.56696 0
M  V30 7759 C 707.482 0.7751 -2.14421 0
M  V30 7760 C 708.466 1.19476 -1.07769 0
M  V30 7761 O 709.658 1.15759 -1.33898 0
M  V30 7762 C 706.787 2.00549 -2.7863 0
M  V30 7763 C 705.873 1.60795 -3.92436 0
M  V30 7764 N 706.264 0.919812 -4.97366 0
M  V30 7765 C 704.562 1.89917 -4.03544 0
M  V30 7766 C 705.263 0.724485 -5.77171 0
M  V30 7767 N 704.239 1.26505 -5.28675 0
M  V30 7768 H 708.041 0.240349 -2.92916 0
M  V30 7769 H 705.555 0.0322675 -1.62368 0
M  V30 7770 H 707.552 2.6917 -3.1836 0
M  V30 7771 H 706.212 2.54522 -2.01615 0
M  V30 7772 H 707.223 0.578169 -5.14663 0
M  V30 7773 H 703.9 2.45587 -3.37629 0
M  V30 7774 H 705.29 0.180521 -6.71657 0
M  V30 7775 N 708.01 1.57248 0.105221 0
M  V30 7776 C 709.259 1.84756 0.809198 0
M  V30 7777 C 709.572 0.756262 1.80389 0
M  V30 7778 O 710.778 0.918158 2.55504 0
M  V30 7779 C 709.234 3.27613 1.48989 0
M  V30 7780 C 708.842 4.44788 0.535484 0
M  V30 7781 C 710.586 3.64356 2.17819 0
M  V30 7782 C 708.493 5.78676 1.22019 0
M  V30 7783 H 707.423 0.689139 0.305946 0
M  V30 7784 H 710.074 1.83395 0.0620371 0
M  V30 7785 H 708.456 3.23485 2.28415 0
M  V30 7786 H 709.63 4.60243 -0.226557 0
M  V30 7787 H 707.945 4.16374 -0.0465769 0
M  V30 7788 H 710.542 4.61663 2.69761 0
M  V30 7789 H 710.885 2.92474 2.96251 0
M  V30 7790 H 711.418 3.70328 1.45264 0
M  V30 7791 H 708.157 6.53763 0.476875 0
M  V30 7792 H 707.677 5.67083 1.9539 0
M  V30 7793 H 709.356 6.22897 1.74952 0
M  V30 7794 N 709.488 -0.375779 1.53054 0
M  V30 7795 C 710.899 -0.95309 1.6054 0
M  V30 7796 C 711.25 -1.90575 0.466446 0
M  V30 7797 O 710.375 -2.12507 -0.408609 0
M  V30 7798 C 710.97 -1.73537 2.90982 0
M  V30 7799 C 709.529 -2.26218 3.00836 0
M  V30 7800 C 708.676 -1.07157 2.55759 0
M  V30 7801 H 711.627 -0.154895 1.57942 0
M  V30 7802 H 711.648 -2.59574 2.78211 0
M  V30 7803 H 711.16 -1.04176 3.73857 0
M  V30 7804 H 709.261 -2.98852 2.22527 0
M  V30 7805 H 709.374 -2.54799 4.05727 0
M  V30 7806 H 707.738 -1.43553 2.10391 0
M  V30 7807 H 708.521 -0.393099 3.41042 0
M  V30 7808 N 710.966 -1.44241 -0.634997 0
M  V30 7809 C 711.876 -1.53293 -1.77591 0
M  V30 7810 C 712.892 -0.418831 -1.68884 0
M  V30 7811 O 714.068 -0.675619 -1.8973 0
M  V30 7812 C 711.133 -1.47075 -3.13958 0
M  V30 7813 C 710.194 -2.69304 -3.34326 0
M  V30 7814 C 709.427 -2.63374 -4.64187 0
M  V30 7815 O 709.65 -1.69161 -5.44739 0
M  V30 7816 O 708.584 -3.54166 -4.86673 0
M  V30 7817 H 712.41 -2.49673 -1.72908 0
M  V30 7818 H 709.995 -1.26445 -0.795745 0
M  V30 7819 H 711.877 -1.46117 -3.95257 0
M  V30 7820 H 710.552 -0.538373 -3.19192 0
M  V30 7821 H 709.459 -2.75831 -2.52721 0
M  V30 7822 H 710.792 -3.61576 -3.33951 0
M  V30 7823 N 712.444 0.87505 -1.31075 0
M  V30 7824 C 713.354 2.01441 -1.20244 0
M  V30 7825 C 714.37 1.73584 -0.120227 0
M  V30 7826 O 715.546 1.98559 -0.337063 0
M  V30 7827 C 712.611 3.34675 -0.905199 0
M  V30 7828 C 711.672 3.75889 -2.0738 0
M  V30 7829 C 710.905 5.02764 -1.79064 0
M  V30 7830 O 711.128 5.65795 -0.723318 0
M  V30 7831 O 710.062 5.40623 -2.64594 0
M  V30 7832 H 713.888 2.13509 -2.1598 0
M  V30 7833 H 711.473 1.00257 -1.10765 0
M  V30 7834 H 713.355 4.1458 -0.755057 0
M  V30 7835 H 712.03 3.23692 0.0221695 0
M  V30 7836 H 710.937 2.96645 -2.27931 0
M  V30 7837 H 712.27 3.91489 -2.98324 0
M  V30 7838 N 713.922 1.13953 1.08869 0
M  V30 7839 C 715.147 0.928559 1.85452 0
M  V30 7840 C 715.572 -0.517642 1.80837 0
M  V30 7841 O 714.93 -1.36779 1.19001 0
M  V30 7842 C 714.978 1.42814 3.31114 0
M  V30 7843 O 714.082 0.617129 4.07756 0
M  V30 7844 H 713.423 0.33235 0.574839 0
M  V30 7845 H 715.953 1.5156 1.37443 0
M  V30 7846 H 715.963 1.43425 3.8196 0
M  V30 7847 H 714.638 2.48109 3.33788 0
M  V30 7848 H 713.215 0.679365 3.66659 0
M  V30 7849 N 715.4 -1.26948 0.933913 0
M  V30 7850 C 716.628 -1.98186 0.59414 0
M  V30 7851 C 717.043 -1.69614 -0.829257 0
M  V30 7852 O 716.4 -0.960213 -1.55197 0
M  V30 7853 C 716.451 -3.52123 0.818026 0
M  V30 7854 O 716.172 -3.79698 2.18543 0
M  V30 7855 C 717.673 -4.40608 0.48781 0
M  V30 7856 H 714.893 -0.632305 0.224569 0
M  V30 7857 H 717.437 -1.61646 1.25263 0
M  V30 7858 H 715.592 -3.86851 0.206246 0
M  V30 7859 H 716.006 -4.7426 2.24005 0
M  V30 7860 H 717.48 -5.47606 0.695126 0
M  V30 7861 H 717.957 -4.35394 -0.576913 0
M  V30 7862 H 718.563 -4.11411 1.078 0
M  V30 7863 N 716.879 -0.700114 -1.41195 0
M  V30 7864 C 717.827 -0.0263301 -2.32585 0
M  V30 7865 C 718.821 0.763683 -1.51209 0
M  V30 7866 O 720.027 0.668793 -1.67114 0
M  V30 7867 H 716.402 0.0102869 -0.75193 0
M  V30 7868 H 718.373 -0.814087 -2.8708 0
M  V30 7869 C 717.122 0.892793 -3.36042 0
M  V30 7870 H 716.445 0.294306 -3.98715 0
M  V30 7871 H 717.885 1.33247 -4.02518 0
M  V30 7872 C 716.344 2.01109 -2.7029 0
M  V30 7873 O 716.874 3.10035 -2.55423 0
M  V30 7874 N 715.08 1.79015 -2.28915 0
M  V30 7875 H 714.627 0.904275 -2.41207 0
M  V30 7876 H 714.585 2.54022 -1.85257 0
M  V30 7877 N 718.357 1.51182 -0.445186 0
M  V30 7878 C 719.304 2.27939 0.362291 0
M  V30 7879 C 720.274 1.31864 1.01 0
M  V30 7880 O 721.459 1.60776 1.02741 0
M  V30 7881 C 718.599 3.13016 1.45311 0
M  V30 7882 C 717.712 4.24093 0.822757 0
M  V30 7883 C 716.847 4.96467 1.88928 0
M  V30 7884 C 715.886 5.99454 1.23778 0
M  V30 7885 N 715.023 6.65206 2.24602 0
M  V30 7886 H 719.863 2.965 -0.29862 0
M  V30 7887 H 717.4 1.46237 -0.15911 0
M  V30 7888 H 719.358 3.60673 2.09692 0
M  V30 7889 H 717.988 2.46553 2.08354 0
M  V30 7890 H 717.04 3.80341 0.0670364 0
M  V30 7891 H 718.352 4.97853 0.307184 0
M  V30 7892 H 717.506 5.47712 2.60953 0
M  V30 7893 H 716.245 4.22355 2.4386 0
M  V30 7894 H 715.25 5.47494 0.503042 0
M  V30 7895 H 716.475 6.75527 0.695694 0
M  V30 7896 H 714.421 5.93901 2.78599 0
M  V30 7897 H 714.338 7.34756 1.77958 0
M  V30 7898 H 715.606 7.21078 2.96085 0
M  V30 7899 N 719.835 0.176821 1.56605 0
M  V30 7900 C 721.081 -0.460868 1.9811 0
M  V30 7901 C 721.436 -1.60488 1.06119 0
M  V30 7902 O 720.729 -1.91329 0.101939 0
M  V30 7903 C 720.923 -0.986208 3.43524 0
M  V30 7904 C 720.752 0.105368 4.49577 0
M  V30 7905 C 719.522 0.556883 5.02222 0
M  V30 7906 C 721.72 0.907756 5.06226 0
M  V30 7907 N 719.702 1.62819 5.91915 0
M  V30 7908 C 721.073 1.82887 5.92412 0
M  V30 7909 C 723.128 0.952221 4.8871 0
M  V30 7910 C 721.831 2.7907 6.62957 0
M  V30 7911 C 723.857 1.90202 5.5998 0
M  V30 7912 C 723.219 2.8106 6.45898 0
M  V30 7913 H 719.318 -0.136589 0.769979 0
M  V30 7914 H 721.902 0.278307 1.92701 0
M  V30 7915 H 720.073 -1.69489 3.49468 0
M  V30 7916 H 721.805 -1.59298 3.7203 0
M  V30 7917 H 718.56 0.153575 4.73351 0
M  V30 7918 H 718.984 2.1645 6.41466 0
M  V30 7919 H 723.626 0.263794 4.21976 0
M  V30 7920 H 721.344 3.48898 7.28901 0
M  V30 7921 H 724.93 1.9426 5.48411 0
M  V30 7922 H 723.81 3.53357 7.00077 0
M  V30 7923 N 721.313 -1.57302 -0.09688 0
M  V30 7924 C 722.26 -2.01933 -1.11766 0
M  V30 7925 C 723.23 -0.895329 -1.39904 0
M  V30 7926 O 724.415 -1.16119 -1.51397 0
M  V30 7927 C 721.555 -2.44726 -2.43317 0
M  V30 7928 C 720.668 -3.70639 -2.21925 0
M  V30 7929 C 719.803 -4.02318 -3.46862 0
M  V30 7930 C 718.842 -5.21346 -3.20725 0
M  V30 7931 N 717.979 -5.48787 -4.37924 0
M  V30 7932 H 722.819 -2.88919 -0.730075 0
M  V30 7933 H 720.356 -1.42901 -0.348962 0
M  V30 7934 H 722.314 -2.6758 -3.20088 0
M  V30 7935 H 720.944 -1.60753 -2.79926 0
M  V30 7936 H 719.996 -3.55271 -1.35965 0
M  V30 7937 H 721.308 -4.57557 -1.98603 0
M  V30 7938 H 720.462 -4.25939 -4.32042 0
M  V30 7939 H 719.201 -3.13918 -3.73238 0
M  V30 7940 H 718.206 -4.97547 -2.33938 0
M  V30 7941 H 719.431 -6.11343 -2.95697 0
M  V30 7942 H 717.377 -4.63346 -4.64378 0
M  V30 7943 H 717.294 -6.30073 -4.17785 0
M  V30 7944 H 718.562 -5.76943 -5.24173 0
M  V30 7945 N 722.791 0.367657 -1.53252 0
M  V30 7946 C 723.723 1.47032 -1.75824 0
M  V30 7947 C 724.736 1.49736 -0.63898 0
M  V30 7948 O 725.925 1.53253 -0.915193 0
M  V30 7949 C 723.025 2.85805 -1.82122 0
M  V30 7950 C 722.198 3.06822 -3.11736 0
M  V30 7951 C 721.257 4.25698 -3.09302 0
M  V30 7952 O 720.283 4.20972 -3.83107 0
M  V30 7953 N 721.485 5.33002 -2.29977 0
M  V30 7954 H 724.25 1.28048 -2.70968 0
M  V30 7955 H 721.811 0.557363 -1.52004 0
M  V30 7956 H 723.803 3.63465 -1.77975 0
M  V30 7957 H 722.373 2.98046 -0.942716 0
M  V30 7958 H 721.593 2.1684 -3.29202 0
M  V30 7959 H 722.881 3.17731 -3.97397 0
M  V30 7960 H 722.279 5.39703 -1.69521 0
M  V30 7961 H 720.836 6.09247 -2.3165 0
M  V30 7962 N 724.269 1.44576 0.627338 0
M  V30 7963 C 725.685 1.28546 0.945938 0
M  V30 7964 C 725.885 0.224003 2.00251 0
M  V30 7965 O 724.941 -0.388817 2.49488 0
M  V30 7966 C 726.254 2.65825 1.40561 0
M  V30 7967 C 727.802 2.73566 1.52088 0
M  V30 7968 C 728.277 4.11323 2.01438 0
M  V30 7969 N 729.768 4.13519 2.08702 0
M  V30 7970 C 730.503 5.16964 2.48065 0
M  V30 7971 N 729.999 6.30768 2.86538 0
M  V30 7972 N 731.792 5.04319 2.48232 0
M  V30 7973 H 723.943 2.1228 -0.0713567 0
M  V30 7974 H 726.206 0.947503 0.0307081 0
M  V30 7975 H 725.912 3.44591 0.703539 0
M  V30 7976 H 725.786 2.92969 2.37591 0
M  V30 7977 H 728.173 1.95116 2.21391 0
M  V30 7978 H 728.254 2.50159 0.534237 0
M  V30 7979 H 727.898 4.9025 1.32729 0
M  V30 7980 H 727.828 4.32109 3.0098 0
M  V30 7981 H 730.319 3.31385 1.81638 0
M  V30 7982 H 730.632 7.0551 3.15398 0
M  V30 7983 H 728.977 6.342 2.84281 0
M  V30 7984 H 732.168 4.14465 2.17569 0
M  V30 7985 H 732.341 5.85059 2.78585 0
M  V30 7986 N 725.747 -0.868086 1.31537 0
M  V30 7987 C 726.993 -1.62367 1.2151 0
M  V30 7988 C 727.326 -1.92883 -0.225819 0
M  V30 7989 O 726.601 -1.56176 -1.15927 0
M  V30 7990 C 726.884 -2.95268 2.06129 0
M  V30 7991 C 726.737 -2.71619 3.58529 0
M  V30 7992 C 728.056 -3.96391 1.91212 0
M  V30 7993 H 725.175 -0.589178 0.442762 0
M  V30 7994 H 727.817 -1.00336 1.61347 0
M  V30 7995 H 725.967 -3.4821 1.72284 0
M  V30 7996 H 727.639 -2.25334 4.0252 0
M  V30 7997 H 725.882 -2.05817 3.81866 0
M  V30 7998 H 726.553 -3.66192 4.13047 0
M  V30 7999 H 729.029 -3.52663 2.20834 0
M  V30 8000 H 727.905 -4.87263 2.52718 0
M  V30 8001 H 728.166 -4.33335 0.875953 0
M  V30 8002 N 727.225 -1.14528 -1.08264 0
M  V30 8003 C 728.172 -0.833556 -2.15222 0
M  V30 8004 C 729.142 0.209539 -1.64773 0
M  V30 8005 O 730.327 0.0791388 -1.90636 0
M  V30 8006 C 727.467 -0.318799 -3.43624 0
M  V30 8007 C 726.58 -1.42237 -4.07913 0
M  V30 8008 C 725.715 -0.864704 -5.24115 0
M  V30 8009 C 724.754 -1.94585 -5.80347 0
M  V30 8010 N 723.891 -1.40525 -6.87893 0
M  V30 8011 H 728.731 -1.74965 -2.41228 0
M  V30 8012 H 726.268 -0.873169 -1.18381 0
M  V30 8013 H 728.226 -0.00213088 -4.172 0
M  V30 8014 H 726.856 0.560397 -3.17898 0
M  V30 8015 H 725.908 -1.8554 -3.32083 0
M  V30 8016 H 727.22 -2.23901 -4.45724 0
M  V30 8017 H 726.374 -0.500025 -6.04636 0
M  V30 8018 H 725.113 -0.0171219 -4.87697 0
M  V30 8019 H 724.118 -2.31946 -4.98479 0
M  V30 8020 H 725.343 -2.79704 -6.18823 0
M  V30 8021 H 723.289 -0.579873 -6.53432 0
M  V30 8022 H 723.206 -2.15825 -7.24538 0
M  V30 8023 H 724.474 -1.06852 -7.72142 0
M  V30 8024 N 728.703 1.26451 -0.940633 0
M  V30 8025 C 729.931 1.97868 -0.604642 0
M  V30 8026 C 730.346 1.70051 0.820251 0
M  V30 8027 O 729.703 0.96843 1.54686 0
M  V30 8028 C 729.754 3.51684 -0.836689 0
M  V30 8029 O 729.475 3.78533 -2.20554 0
M  V30 8030 C 730.976 4.40343 -0.511169 0
M  V30 8031 H 728.196 0.631105 -0.227919 0
M  V30 8032 H 730.74 1.60979 -1.26119 0
M  V30 8033 H 728.895 3.86736 -0.226759 0
M  V30 8034 H 729.309 4.73065 -2.26517 0
M  V30 8035 H 730.783 5.47229 -0.724157 0
M  V30 8036 H 731.26 4.35694 0.553815 0
M  V30 8037 H 731.866 4.10834 -1.0998 0
M  V30 8038 N 730.181 0.707592 1.40822 0
M  V30 8039 C 731.144 0.0587224 2.29125 0
M  V30 8040 C 732.144 -0.695624 1.44975 0
M  V30 8041 O 733.334 -0.528718 1.65983 0
M  V30 8042 C 730.466 -0.926939 3.28056 0
M  V30 8043 H 731.659 0.836349 2.88002 0
M  V30 8044 H 729.212 0.471778 1.4901 0
M  V30 8045 H 729.947 -1.7319 2.74182 0
M  V30 8046 H 729.732 -0.389015 3.90165 0
M  V30 8047 H 731.222 -1.37837 3.94196 0
M  V30 8048 N 731.66 -1.50943 0.453197 0
M  V30 8049 C 732.593 -2.24742 -0.395787 0
M  V30 8050 C 733.571 -1.27316 -1.01141 0
M  V30 8051 O 734.755 -1.56494 -1.05081 0
M  V30 8052 C 731.882 -3.00999 -1.55298 0
M  V30 8053 C 730.928 -4.13207 -1.0565 0
M  V30 8054 S 731.761 -5.35498 0.01435 0
M  V30 8055 C 732.917 -6.15298 -1.14714 0
M  V30 8056 H 733.15 -2.96403 0.23071 0
M  V30 8057 H 730.683 -1.52557 0.237874 0
M  V30 8058 H 732.641 -3.45529 -2.2163 0
M  V30 8059 H 731.302 -2.28896 -2.15094 0
M  V30 8060 H 730.495 -4.65901 -1.9223 0
M  V30 8061 H 730.097 -3.7102 -0.471182 0
M  V30 8062 H 732.389 -6.45346 -2.06239 0
M  V30 8063 H 733.332 -7.05019 -0.659842 0
M  V30 8064 H 733.74 -5.47046 -1.39288 0
M  V30 8065 N 733.138 -0.185124 -1.56509 0
M  V30 8066 C 734.101 0.72591 -2.17401 0
M  V30 8067 C 735.101 1.14819 -1.12575 0
M  V30 8068 O 736.291 1.0629 -1.38015 0
M  V30 8069 C 733.423 1.98979 -2.76803 0
M  V30 8070 H 734.616 0.195588 -2.99262 0
M  V30 8071 H 732.169 0.0644772 -1.56167 0
M  V30 8072 H 732.904 2.56287 -1.98714 0
M  V30 8073 H 732.689 1.69583 -3.53531 0
M  V30 8074 H 734.179 2.63966 -3.23592 0
M  V30 8075 N 734.616 1.57351 0.0885366 0
M  V30 8076 C 735.864 1.86051 0.789262 0
M  V30 8077 C 736.185 0.774763 1.78948 0
M  V30 8078 O 735.455 -0.198324 1.94894 0
M  V30 8079 H 734.035 0.686508 0.294475 0
M  V30 8080 H 736.697 1.94779 0.0686055 0
M  V30 8081 H 735.793 2.83007 1.31581 0
M  V30 8082 N 736.094 -0.359525 1.53444 0
M  V30 8083 C 737.34 -1.10315 1.70172 0
M  V30 8084 C 737.673 -1.88788 0.455287 0
M  V30 8085 O 736.948 -1.86635 -0.547514 0
M  V30 8086 C 737.231 -2.05744 2.95536 0
M  V30 8087 C 737.084 -1.3084 4.3035 0
M  V30 8088 C 738.403 -3.05784 3.16518 0
M  V30 8089 H 735.522 -0.399662 0.619225 0
M  V30 8090 H 738.164 -0.383338 1.86093 0
M  V30 8091 H 736.314 -2.67125 2.82093 0
M  V30 8092 H 737.986 -0.721959 4.55615 0
M  V30 8093 H 736.229 -0.610283 4.29486 0
M  V30 8094 H 736.9 -2.00718 5.14214 0
M  V30 8095 H 739.376 -2.5451 3.29187 0
M  V30 8096 H 738.252 -3.69772 4.05659 0
M  V30 8097 H 738.513 -3.76289 2.32076 0
M  V30 8098 N 737.572 -1.44907 -0.619662 0
M  V30 8099 C 738.519 -1.52654 -1.73105 0
M  V30 8100 C 739.489 -0.373334 -1.6185 0
M  V30 8101 O 740.674 -0.585143 -1.81606 0
M  V30 8102 C 737.814 -1.48769 -3.11387 0
M  V30 8103 C 736.927 -2.74551 -3.33535 0
M  V30 8104 C 736.062 -2.62421 -4.61854 0
M  V30 8105 C 735.101 -3.83312 -4.77219 0
M  V30 8106 N 734.238 -3.69789 -5.96826 0
M  V30 8107 H 739.078 -2.47605 -1.65819 0
M  V30 8108 H 736.615 -1.22875 -0.808719 0
M  V30 8109 H 738.573 -1.44507 -3.91374 0
M  V30 8110 H 737.203 -0.573783 -3.1766 0
M  V30 8111 H 736.255 -2.88953 -2.47408 0
M  V30 8112 H 737.567 -3.64253 -3.40765 0
M  V30 8113 H 736.721 -2.56056 -5.50019 0
M  V30 8114 H 735.46 -1.70298 -4.57001 0
M  V30 8115 H 734.465 -3.90049 -3.87481 0
M  V30 8116 H 735.69 -4.76486 -4.83878 0
M  V30 8117 H 733.636 -2.80426 -5.93041 0
M  V30 8118 H 733.553 -4.53116 -6.05163 0
M  V30 8119 H 734.821 -3.67335 -6.87521 0
M  V30 8120 N 739.05 0.861098 -1.31996 0
M  V30 8121 C 739.98 1.98482 -1.22993 0
M  V30 8122 C 740.961 1.6971 -0.115168 0
M  V30 8123 O 742.146 1.91849 -0.30126 0
M  V30 8124 C 739.276 3.34179 -0.945615 0
M  V30 8125 C 738.23 3.77284 -2.02091 0
M  V30 8126 C 737.556 5.1054 -1.58912 0
M  V30 8127 C 738.856 3.93439 -3.43515 0
M  V30 8128 H 740.55 2.06271 -2.17008 0
M  V30 8129 H 738.096 0.991043 -1.04472 0
M  V30 8130 H 740.049 4.12338 -0.869206 0
M  V30 8131 H 738.773 3.26586 0.0301849 0
M  V30 8132 H 737.432 3.01371 -2.08737 0
M  V30 8133 H 737.08 4.99397 -0.600942 0
M  V30 8134 H 736.78 5.40352 -2.30854 0
M  V30 8135 H 738.304 5.91199 -1.52696 0
M  V30 8136 H 739.718 4.6197 -3.39495 0
M  V30 8137 H 738.115 4.34661 -4.13751 0
M  V30 8138 H 739.185 2.96548 -3.8365 0
M  V30 8139 N 740.528 1.15101 1.07655 0
M  V30 8140 C 741.756 0.947731 1.83918 0
M  V30 8141 C 742.171 -0.503927 1.81951 0
M  V30 8142 O 741.528 -1.34941 1.2287 0
M  V30 8143 C 741.579 1.4503 3.31132 0
M  V30 8144 O 741.3 2.84508 3.33146 0
M  V30 8145 C 742.801 1.28806 4.24174 0
M  V30 8146 H 740.021 0.336786 0.580358 0
M  V30 8147 H 742.565 1.52799 1.35914 0
M  V30 8148 H 740.72 0.912632 3.76497 0
M  V30 8149 H 741.134 3.0723 4.251 0
M  V30 8150 H 742.608 1.6882 5.25551 0
M  V30 8151 H 743.085 0.231851 4.38588 0
M  V30 8152 H 743.691 1.81465 3.84643 0
M  V30 8153 N 742.006 -1.2595 0.947325 0
M  V30 8154 C 743.283 -1.88676 0.515824 0
M  V30 8155 C 743.663 -1.85547 -1.00675 0
M  V30 8156 O 743.011 -1.31399 -1.8694 0
M  V30 8157 C 743.221 -3.31734 1.08415 0
M  V30 8158 C 744.569 -4.08545 1.15654 0
M  V30 8159 O 745.593 -3.40826 1.03517 0
M  V30 8160 O 744.452 -5.29663 1.34608 0
M  V30 8161 H 741.546 -0.809537 0.169055 0
M  V30 8162 H 744.092 -1.34075 1.04029 0
M  V30 8163 H 742.864 -3.28404 2.1276 0
M  V30 8164 H 742.487 -3.93882 0.542499 0
M  V30 8165 N 743.484 -0.715051 -1.40445 0
M  V30 8166 C 744.431 -0.0621393 -2.30716 0
M  V30 8167 C 745.401 0.750871 -1.48159 0
M  V30 8168 O 746.586 0.714928 -1.76899 0
M  V30 8169 C 743.726 0.854036 -3.34365 0
M  V30 8170 C 742.839 0.0305565 -4.31989 0
M  V30 8171 C 741.974 0.946162 -5.22706 0
M  V30 8172 C 741.013 0.116741 -6.11989 0
M  V30 8173 N 740.15 0.987194 -6.95125 0
M  V30 8174 H 744.99 -0.83764 -2.85985 0
M  V30 8175 H 742.527 -0.424759 -1.40834 0
M  V30 8176 H 744.485 1.39946 -3.93028 0
M  V30 8177 H 743.115 1.59572 -2.806 0
M  V30 8178 H 742.167 -0.632044 -3.75112 0
M  V30 8179 H 743.479 -0.611615 -4.95036 0
M  V30 8180 H 742.633 1.56014 -5.86297 0
M  V30 8181 H 741.372 1.62216 -4.59932 0
M  V30 8182 H 740.377 -0.510176 -5.47428 0
M  V30 8183 H 741.602 -0.555742 -6.76822 0
M  V30 8184 H 739.548 1.64885 -6.3494 0
M  V30 8185 H 739.465 0.401046 -7.54936 0
M  V30 8186 H 740.733 1.58737 -7.63166 0
M  V30 8187 N 744.962 1.50701 -0.461195 0
M  V30 8188 C 746.208 2.02566 0.0973411 0
M  V30 8189 C 746.541 1.3432 1.40257 0
M  V30 8190 O 745.816 0.465692 1.88843 0
M  V30 8191 C 746.099 3.58919 0.291423 0
M  V30 8192 C 745.952 4.37751 -1.03413 0
M  V30 8193 C 747.271 4.27379 1.05048 0
M  V30 8194 H 744.39 0.73622 0.0339026 0
M  V30 8195 H 747.032 1.80115 -0.604855 0
M  V30 8196 H 745.182 3.78179 0.889539 0
M  V30 8197 H 746.854 4.30085 -1.66806 0
M  V30 8198 H 745.097 4.01885 -1.63313 0
M  V30 8199 H 745.768 5.45384 -0.852085 0
M  V30 8200 H 748.244 4.12534 0.543603 0
M  V30 8201 H 747.12 5.36609 1.15506 0
M  V30 8202 H 747.381 3.89868 2.0846 0
M  V30 8203 N 746.441 0.193421 1.56409 0
M  V30 8204 C 747.388 -0.728124 2.19014 0
M  V30 8205 C 748.358 -1.21098 1.13686 0
M  V30 8206 O 749.543 -1.27517 1.4193 0
M  V30 8207 C 746.683 -1.94277 2.8522 0
M  V30 8208 C 745.796 -1.50143 4.05069 0
M  V30 8209 C 744.931 -2.67145 4.59137 0
M  V30 8210 C 743.97 -2.19609 5.71348 0
M  V30 8211 N 743.107 -3.29782 6.19829 0
M  V30 8212 H 747.947 -0.187499 2.9741 0
M  V30 8213 H 745.484 -0.0808064 1.46878 0
M  V30 8214 H 747.442 -2.65551 3.21774 0
M  V30 8215 H 746.072 -2.45673 2.09391 0
M  V30 8216 H 745.124 -0.684624 3.74189 0
M  V30 8217 H 746.436 -1.11266 4.86232 0
M  V30 8218 H 745.59 -3.46544 4.97988 0
M  V30 8219 H 744.329 -3.09295 3.77078 0
M  V30 8220 H 743.334 -1.38664 5.32027 0
M  V30 8221 H 744.559 -1.78492 6.55223 0
M  V30 8222 H 742.505 -3.71466 5.40693 0
M  V30 8223 H 742.422 -2.95069 6.96039 0
M  V30 8224 H 743.69 -4.094 6.63334 0
M  V30 8225 N 747.919 -1.57396 -0.0801906 0
M  V30 8226 C 748.849 -2.06145 -1.09665 0
M  V30 8227 C 749.83 -0.953273 -1.40878 0
M  V30 8228 O 751.015 -1.22548 -1.50651 0
M  V30 8229 C 748.145 -2.49836 -2.41245 0
M  V30 8230 C 747.099 -3.64454 -2.24405 0
M  V30 8231 C 746.425 -3.94172 -3.61293 0
M  V30 8232 C 747.725 -4.94807 -1.67223 0
M  V30 8233 H 749.419 -2.91316 -0.691028 0
M  V30 8234 H 746.965 -1.40145 -0.330957 0
M  V30 8235 H 748.918 -2.82552 -3.12638 0
M  V30 8236 H 747.642 -1.61683 -2.83771 0
M  V30 8237 H 746.301 -3.32008 -1.55454 0
M  V30 8238 H 745.949 -3.03163 -4.01374 0
M  V30 8239 H 745.649 -4.71345 -3.50867 0
M  V30 8240 H 747.173 -4.29376 -4.3413 0
M  V30 8241 H 748.587 -5.25807 -2.28472 0
M  V30 8242 H 746.984 -5.76245 -1.67515 0
M  V30 8243 H 748.054 -4.80751 -0.632944 0
M  V30 8244 N 749.397 0.351382 -1.53633 0
M  V30 8245 C 750.625 1.11275 -1.74429 0
M  V30 8246 C 751.04 1.82602 -0.479798 0
M  V30 8247 O 750.397 1.74074 0.548125 0
M  V30 8248 C 750.448 2.13223 -2.91921 0
M  V30 8249 O 750.169 1.44798 -4.13479 0
M  V30 8250 C 751.67 3.01797 -3.24706 0
M  V30 8251 H 748.89 0.332153 -0.583023 0
M  V30 8252 H 751.434 0.405974 -2.0043 0
M  V30 8253 H 749.589 2.79477 -2.68274 0
M  V30 8254 H 750.003 2.12839 -4.79374 0
M  V30 8255 H 751.477 3.69282 -4.10286 0
M  V30 8256 H 751.954 3.67387 -2.40673 0
M  V30 8257 H 752.56 2.41141 -3.5033 0
M  V30 8258 N 750.875 1.45233 0.611969 0
M  V30 8259 C 752.121 1.50233 1.37119 0
M  V30 8260 C 752.476 0.140336 1.91888 0
M  V30 8261 O 751.769 -0.847161 1.71854 0
M  V30 8262 C 751.963 2.51353 2.54079 0
M  V30 8263 C 751.792 3.97251 2.10764 0
M  V30 8264 C 750.562 4.65256 1.97141 0
M  V30 8265 C 752.76 4.85914 1.68499 0
M  V30 8266 N 750.742 5.95895 1.4759 0
M  V30 8267 C 752.113 6.06147 1.30331 0
M  V30 8268 C 754.168 4.72813 1.56051 0
M  V30 8269 C 752.871 7.14729 0.809591 0
M  V30 8270 C 754.897 5.8144 1.08083 0
M  V30 8271 C 754.259 7.00825 0.708775 0
M  V30 8272 H 750.358 0.604708 0.495835 0
M  V30 8273 H 752.942 1.81679 0.700055 0
M  V30 8274 H 751.113 2.21866 3.18795 0
M  V30 8275 H 752.845 2.46528 3.20945 0
M  V30 8276 H 749.6 4.20345 2.18191 0
M  V30 8277 H 750.024 6.65349 1.25059 0
M  V30 8278 H 754.666 3.80931 1.83443 0
M  V30 8279 H 752.384 8.06404 0.523215 0
M  V30 8280 H 755.97 5.73335 0.988842 0
M  V30 8281 H 754.85 7.83448 0.343305 0
M  V30 8282 N 752.353 -0.854086 1.3245 0
M  V30 8283 C 753.769 -1.14238 1.11453 0
M  V30 8284 C 753.969 -2.01228 -0.10461 0
M  V30 8285 O 753.025 -2.39845 -0.789339 0
M  V30 8286 C 754.338 -1.81916 2.39431 0
M  V30 8287 C 755.886 -1.94549 2.45193 0
M  V30 8288 C 756.361 -2.65642 3.73093 0
M  V30 8289 N 757.852 -2.73167 3.74078 0
M  V30 8290 C 758.587 -3.28828 4.69744 0
M  V30 8291 N 758.083 -3.85295 5.75778 0
M  V30 8292 N 759.876 -3.26936 4.57241 0
M  V30 8293 H 752.027 -0.274786 2.10615 0
M  V30 8294 H 754.29 -0.184375 0.929898 0
M  V30 8295 H 753.996 -1.25452 3.28565 0
M  V30 8296 H 753.87 -2.82068 2.50434 0
M  V30 8297 H 756.257 -2.50172 1.56518 0
M  V30 8298 H 756.338 -0.933914 2.38142 0
M  V30 8299 H 755.982 -2.10683 4.62142 0
M  V30 8300 H 755.912 -3.6724 3.77415 0
M  V30 8301 H 758.403 -2.33108 2.97438 0
M  V30 8302 H 758.716 -4.25925 6.44832 0
M  V30 8303 H 757.061 -3.83625 5.79531 0
M  V30 8304 H 760.252 -2.8207 3.7357 0
M  V30 8305 H 760.425 -3.70014 5.31971 0
M  V30 8306 N 753.831 -1.1567 -1.07043 0
M  V30 8307 C 755.108 -0.843948 -1.76456 0
M  V30 8308 C 755.488 0.659806 -2.00524 0
M  V30 8309 O 754.836 1.60518 -1.62623 0
M  V30 8310 C 755.046 -1.65822 -3.0709 0
M  V30 8311 C 756.394 -1.8664 -3.8138 0
M  V30 8312 O 757.418 -1.62624 -3.1691 0
M  V30 8313 O 756.277 -2.26884 -4.97178 0
M  V30 8314 H 753.371 -0.310677 -0.766426 0
M  V30 8315 H 755.917 -1.26266 -1.1338 0
M  V30 8316 H 754.689 -2.67902 -2.85209 0
M  V30 8317 H 754.312 -1.23605 -3.77899 0
M  V30 8318 N 755.309 1.25446 -0.953992 0
M  V30 8319 C 756.725 1.4539 -0.658316 0
M  V30 8320 C 756.925 1.85607 0.784356 0
M  V30 8321 O 755.981 1.98568 1.55972 0
M  V30 8322 C 757.294 2.52643 -1.6307 0
M  V30 8323 C 758.842 2.66484 -1.64181 0
M  V30 8324 C 759.317 3.76921 -2.60182 0
M  V30 8325 N 760.808 3.84331 -2.58542 0
M  V30 8326 C 761.543 4.69271 -3.29503 0
M  V30 8327 N 761.039 5.58503 -4.09934 0
M  V30 8328 N 762.832 4.6323 -3.18393 0
M  V30 8329 H 754.983 0.976337 -1.8863 0
M  V30 8330 H 757.246 0.490343 -0.811337 0
M  V30 8331 H 756.952 2.29949 -2.66114 0
M  V30 8332 H 756.826 3.50547 -1.39271 0
M  V30 8333 H 759.213 2.88545 -0.618552 0
M  V30 8334 H 759.294 1.68982 -1.92038 0
M  V30 8335 H 758.938 3.55612 -3.62633 0
M  V30 8336 H 758.868 4.73906 -2.29609 0
M  V30 8337 H 761.359 3.20544 -2.0015 0
M  V30 8338 H 761.672 6.20241 -4.61 0
M  V30 8339 H 760.017 5.58214 -4.14032 0
M  V30 8340 H 763.208 3.92527 -2.5503 0
M  V30 8341 H 763.381 5.29204 -3.73961 0
M  V30 8342 N 756.787 0.722489 1.40064 0
M  V30 8343 C 758.034 0.264979 2.00759 0
M  V30 8344 C 758.362 -1.14395 1.57302 0
M  V30 8345 O 757.617 -1.79165 0.787298 0
M  V30 8346 C 757.916 0.300682 3.56133 0
M  V30 8347 C 757.582 1.66087 4.19197 0
M  V30 8348 C 756.244 2.03319 4.36136 0
M  V30 8349 C 758.596 2.55452 4.54306 0
M  V30 8350 C 755.924 3.29448 4.8547 0
M  V30 8351 C 758.276 3.8094 5.05042 0
M  V30 8352 C 756.94 4.1828 5.2019 0
M  V30 8353 H 756.21 0.0969625 0.734629 0
M  V30 8354 H 758.857 0.926877 1.67575 0
M  V30 8355 H 757.162 -0.44479 3.89267 0
M  V30 8356 H 758.859 -0.0712542 4.00937 0
M  V30 8357 H 755.449 1.36137 4.06405 0
M  V30 8358 H 759.633 2.27961 4.40849 0
M  V30 8359 H 754.889 3.58338 4.95382 0
M  V30 8360 H 759.063 4.50351 5.31184 0
M  V30 8361 H 756.69 5.16081 5.58179 0
M  V30 8362 N 758.265 -1.50454 0.469181 0
M  V30 8363 C 759.676 -1.86695 0.0136034 0
M  V30 8364 C 760.027 -1.38413 -1.39055 0
M  V30 8365 O 759.152 -0.748294 -2.03051 0
M  V30 8366 C 759.747 -3.38795 0.0179098 0
M  V30 8367 C 758.306 -3.74455 -0.382191 0
M  V30 8368 C 757.453 -2.74338 0.404207 0
M  V30 8369 H 760.404 -1.43225 0.683547 0
M  V30 8370 H 760.425 -3.72321 -0.78468 0
M  V30 8371 H 759.937 -3.73906 1.04 0
M  V30 8372 H 758.038 -3.44944 -1.4087 0
M  V30 8373 H 758.151 -4.79025 -0.084862 0
M  V30 8374 H 756.515 -2.54305 -0.141829 0
M  V30 8375 H 757.298 -3.12293 1.42577 0
M  V30 8376 N 759.743 -0.201713 -1.56304 0
M  V30 8377 C 760.706 0.702811 -2.18159 0
M  V30 8378 C 761.706 1.13619 -1.13787 0
M  V30 8379 O 762.896 1.0482 -1.39134 0
M  V30 8380 C 760.028 1.96032 -2.78898 0
M  V30 8381 H 761.221 0.163836 -2.99452 0
M  V30 8382 H 758.774 0.04791 -1.56227 0
M  V30 8383 H 759.509 2.54165 -2.01421 0
M  V30 8384 H 759.294 1.65824 -3.55309 0
M  V30 8385 H 760.784 2.60519 -3.26373 0
M  V30 8386 N 761.222 1.57436 0.0718424 0
M  V30 8387 C 762.452 1.91196 0.782795 0
M  V30 8388 C 762.86 0.795927 1.71644 0
M  V30 8389 O 762.203 -0.239604 1.82131 0
M  V30 8390 C 762.265 3.20421 1.63005 0
M  V30 8391 C 761.929 4.48724 0.865782 0
M  V30 8392 C 762.926 5.19571 0.185051 0
M  V30 8393 C 760.611 4.95345 0.832971 0
M  V30 8394 C 762.605 6.3529 -0.518264 0
M  V30 8395 C 760.292 6.1097 0.125884 0
M  V30 8396 C 761.29 6.80794 -0.548533 0
M  V30 8397 O 760.978 7.94213 -1.24423 0
M  V30 8398 H 760.71 0.636486 0.227731 0
M  V30 8399 H 763.264 2.05348 0.0464187 0
M  V30 8400 H 761.494 3.02478 2.40923 0
M  V30 8401 H 763.183 3.39831 2.21968 0
M  V30 8402 H 763.949 4.8458 0.201707 0
M  V30 8403 H 759.828 4.40871 1.34737 0
M  V30 8404 H 763.372 6.89725 -1.04523 0
M  V30 8405 H 759.269 6.45411 0.107155 0
M  V30 8406 H 760.037 8.10331 -1.1535 0
M  V30 8407 N 762.7 -0.34323 1.53817 0
M  V30 8408 C 763.63 -1.42709 1.84814 0
M  V30 8409 C 764.611 -1.5488 0.703297 0
M  V30 8410 O 765.796 -1.69082 0.955237 0
M  V30 8411 C 762.926 -2.79756 2.05801 0
M  V30 8412 C 761.88 -2.82392 3.21619 0
M  V30 8413 C 761.206 -4.22326 3.2794 0
M  V30 8414 C 762.506 -2.479 4.59721 0
M  V30 8415 H 764.2 -1.17018 2.75585 0
M  V30 8416 H 761.746 -0.561485 1.32602 0
M  V30 8417 H 763.699 -3.55627 2.26069 0
M  V30 8418 H 762.423 -3.06883 1.11761 0
M  V30 8419 H 761.082 -2.08974 3.01207 0
M  V30 8420 H 760.73 -4.46564 2.31494 0
M  V30 8421 H 760.43 -4.25001 4.05768 0
M  V30 8422 H 761.954 -5.00039 3.50419 0
M  V30 8423 H 763.368 -3.13484 4.80001 0
M  V30 8424 H 761.765 -2.61857 5.39954 0
M  V30 8425 H 762.835 -1.43087 4.63308 0
M  V30 8426 N 764.178 -1.45556 -0.604258 0
M  V30 8427 C 765.406 -1.53278 -1.38973 0
M  V30 8428 C 765.821 -0.166509 -1.88064 0
M  V30 8429 O 765.178 0.832519 -1.62405 0
M  V30 8430 C 765.229 -2.51992 -2.59195 0
M  V30 8431 O 764.95 -3.8331 -2.12143 0
M  V30 8432 C 766.451 -2.69445 -3.52015 0
M  V30 8433 H 763.671 -0.519003 -0.425297 0
M  V30 8434 H 766.215 -1.90773 -0.736621 0
M  V30 8435 H 764.37 -2.17561 -3.2054 0
M  V30 8436 H 764.784 -4.3685 -2.90279 0
M  V30 8437 H 766.258 -3.42485 -4.32907 0
M  V30 8438 H 766.735 -1.75596 -4.0257 0
M  V30 8439 H 767.341 -3.04886 -2.9652 0
M  V30 8440 N 765.656 0.84705 -1.32902 0
M  V30 8441 C 766.604 1.97765 -1.22441 0
M  V30 8442 C 767.598 1.68919 -0.127546 0
M  V30 8443 O 768.804 1.77633 -0.290973 0
M  V30 8444 H 765.179 0.649072 -0.379748 0
M  V30 8445 H 767.15 2.03713 -2.18044 0
M  V30 8446 C 765.899 3.33834 -0.972125 0
M  V30 8447 H 765.222 3.56564 -1.80837 0
M  V30 8448 H 766.662 4.13467 -0.939209 0
M  V30 8449 C 765.121 3.35328 0.325059 0
M  V30 8450 O 765.651 3.78887 1.33445 0
M  V30 8451 N 763.857 2.88488 0.349718 0
M  V30 8452 H 763.404 2.53234 -0.472236 0
M  V30 8453 H 763.362 2.8987 1.21748 0
M  V30 8454 N 767.134 1.16236 1.06428 0
M  V30 8455 C 768.064 0.890807 2.1584 0
M  V30 8456 C 769.045 -0.162333 1.69324 0
M  V30 8457 O 770.23 -0.0147191 1.94194 0
M  V30 8458 C 767.36 0.389615 3.45108 0
M  V30 8459 C 766.314 1.38051 4.05125 0
M  V30 8460 C 765.64 0.737773 5.29586 0
M  V30 8461 C 766.94 2.74965 4.44062 0
M  V30 8462 H 768.634 1.80577 2.38814 0
M  V30 8463 H 766.18 0.869657 1.14774 0
M  V30 8464 H 768.133 0.187127 4.20984 0
M  V30 8465 H 766.857 -0.560851 3.21748 0
M  V30 8466 H 765.516 1.56952 3.31303 0
M  V30 8467 H 765.164 -0.219135 5.02522 0
M  V30 8468 H 764.864 1.39914 5.70699 0
M  V30 8469 H 766.388 0.545275 6.0816 0
M  V30 8470 H 767.802 2.59855 5.11027 0
M  V30 8471 H 766.199 3.37563 4.96156 0
M  V30 8472 H 767.269 3.30321 3.54987 0
M  V30 8473 N 768.612 -1.24939 0.960631 0
M  V30 8474 C 769.858 -1.93104 0.61958 0
M  V30 8475 C 770.191 -1.74991 -0.84212 0
M  V30 8476 O 769.466 -1.09867 -1.60498 0
M  V30 8477 C 769.749 -3.46326 0.986422 0
M  V30 8478 C 769.602 -3.73638 2.50429 0
M  V30 8479 C 770.921 -4.37067 0.515827 0
M  V30 8480 H 768.04 -0.701311 0.226566 0
M  V30 8481 H 770.682 -1.47442 1.19836 0
M  V30 8482 H 768.832 -3.85348 0.493907 0
M  V30 8483 H 770.504 -3.44217 3.07103 0
M  V30 8484 H 768.747 -3.19035 2.93937 0
M  V30 8485 H 769.418 -4.80815 2.71147 0
M  V30 8486 H 771.894 -4.05381 0.938389 0
M  V30 8487 H 770.77 -5.43022 0.80114 0
M  V30 8488 H 771.031 -4.38224 -0.584171 0
M  V30 8489 N 770.09 -0.729906 -1.39679 0
M  V30 8490 C 771.315 -0.284345 -2.05442 0
M  V30 8491 C 771.74 1.07056 -1.54663 0
M  V30 8492 O 771.098 1.67732 -0.688157 0
M  V30 8493 C 771.146 -0.290089 -3.59431 0
M  V30 8494 O 770.25 0.723978 -4.05995 0
M  V30 8495 H 769.591 -0.130311 -0.651088 0
M  V30 8496 H 772.121 -0.994403 -1.78809 0
M  V30 8497 H 772.131 -0.132712 -4.07784 0
M  V30 8498 H 770.806 -1.27877 -3.95753 0
M  V30 8499 H 769.383 0.533154 -3.69069 0
M  V30 8500 N 771.568 1.50203 -0.477153 0
M  V30 8501 C 772.817 2.01551 0.0774548 0
M  V30 8502 C 773.13 1.36359 1.40234 0
M  V30 8503 O 774.336 1.78898 2.04225 0
M  V30 8504 C 772.792 3.59406 0.188539 0
M  V30 8505 C 772.4 4.3356 -1.12828 0
M  V30 8506 C 774.144 4.18776 0.694782 0
M  V30 8507 C 772.051 5.83213 -0.98066 0
M  V30 8508 H 770.981 0.75329 0.0327212 0
M  V30 8509 H 773.632 1.72959 -0.612969 0
M  V30 8510 H 772.014 3.84611 0.942881 0
M  V30 8511 H 773.188 4.20074 -1.89405 0
M  V30 8512 H 771.503 3.85827 -1.5661 0
M  V30 8513 H 774.1 5.28338 0.822356 0
M  V30 8514 H 774.443 3.80557 1.68766 0
M  V30 8515 H 774.976 3.978 -0.00234519 0
M  V30 8516 H 771.715 6.25914 -1.94709 0
M  V30 8517 H 771.235 5.99256 -0.255375 0
M  V30 8518 H 772.914 6.4373 -0.649717 0
M  V30 8519 N 773.046 0.209999 1.56195 0
M  V30 8520 C 774.295 -0.425106 1.97169 0
M  V30 8521 C 774.608 -1.61718 1.10031 0
M  V30 8522 O 775.814 -2.32105 1.40853 0
M  V30 8523 C 774.27 -0.80771 3.50719 0
M  V30 8524 C 773.878 0.360902 4.46544 0
M  V30 8525 C 775.622 -1.40906 4.00432 0
M  V30 8526 C 773.529 -0.0434919 5.91384 0
M  V30 8527 H 772.459 -0.162598 0.736259 0
M  V30 8528 H 775.11 0.304382 1.80958 0
M  V30 8529 H 773.492 -1.59429 3.62489 0
M  V30 8530 H 774.666 1.13846 4.46515 0
M  V30 8531 H 772.981 0.874729 4.07109 0
M  V30 8532 H 775.578 -1.72433 5.06133 0
M  V30 8533 H 775.921 -2.32081 3.45607 0
M  V30 8534 H 776.454 -0.686154 3.91838 0
M  V30 8535 H 773.193 0.834448 6.50167 0
M  V30 8536 H 772.713 -0.785598 5.94633 0
M  V30 8537 H 774.392 -0.474176 6.4526 0
M  V30 8538 N 774.524 -1.57472 -0.0634922 0
M  V30 8539 C 775.771 -1.87654 -0.761066 0
M  V30 8540 C 776.099 -0.802847 -1.77157 0
M  V30 8541 O 775.354 0.200244 -1.94673 0
M  V30 8542 C 775.653 -3.24521 -1.49736 0
M  V30 8543 C 775.319 -4.46532 -0.626065 0
M  V30 8544 C 773.981 -4.7965 -0.385978 0
M  V30 8545 C 776.333 -5.21195 -0.0224001 0
M  V30 8546 C 773.661 -5.84837 0.467118 0
M  V30 8547 C 776.013 -6.27286 0.818198 0
M  V30 8548 C 774.677 -6.58899 1.06808 0
M  V30 8549 H 773.947 -0.686675 -0.278494 0
M  V30 8550 H 776.594 -1.91488 -0.0216348 0
M  V30 8551 H 774.899 -3.16516 -2.30921 0
M  V30 8552 H 776.596 -3.45111 -2.04204 0
M  V30 8553 H 773.186 -4.20618 -0.823325 0
M  V30 8554 H 777.37 -4.95917 -0.194985 0
M  V30 8555 H 772.626 -6.07725 0.669375 0
M  V30 8556 H 776.8 -6.84298 1.29265 0
M  V30 8557 H 774.427 -7.40233 1.73088 0
M  V30 8558 N 776.003 0.335068 -1.53997 0
M  V30 8559 C 776.936 1.43533 -1.77407 0
M  V30 8560 C 777.914 1.5017 -0.623529 0
M  V30 8561 O 779.098 1.67756 -0.85966 0
M  V30 8562 C 776.225 2.81712 -1.88033 0
M  V30 8563 C 775.271 2.92661 -3.10245 0
M  V30 8564 S 776.104 2.58254 -4.69111 0
M  V30 8565 C 777.26 3.98525 -4.82627 0
M  V30 8566 H 777.493 1.2346 -2.70453 0
M  V30 8567 H 775.026 0.531234 -1.44973 0
M  V30 8568 H 776.984 3.61314 -1.9484 0
M  V30 8569 H 775.645 2.99075 -0.959849 0
M  V30 8570 H 774.838 3.93931 -3.14379 0
M  V30 8571 H 774.44 2.21017 -3.01708 0
M  V30 8572 H 776.732 4.93146 -4.64557 0
M  V30 8573 H 777.675 3.9938 -5.84723 0
M  V30 8574 H 778.083 3.86945 -4.11016 0
M  V30 8575 N 777.481 1.45874 0.596531 0
M  V30 8576 C 778.73 1.49737 1.35135 0
M  V30 8577 C 779.043 0.147755 1.95041 0
M  V30 8578 O 780.249 0.0640984 2.71424 0
M  V30 8579 C 778.705 2.6378 2.44843 0
M  V30 8580 C 778.313 4.05102 1.91301 0
M  V30 8581 C 780.057 2.769 3.21755 0
M  V30 8582 C 777.964 5.10508 2.98557 0
M  V30 8583 H 776.894 0.557219 0.507959 0
M  V30 8584 H 779.545 1.72046 0.638147 0
M  V30 8585 H 777.927 2.34774 3.189 0
M  V30 8586 H 779.101 4.43836 1.2388 0
M  V30 8587 H 777.416 3.96528 1.271 0
M  V30 8588 H 780.013 3.52819 4.01775 0
M  V30 8589 H 780.356 1.83924 3.73467 0
M  V30 8590 H 780.889 3.05485 2.54802 0
M  V30 8591 H 777.628 6.0523 2.51749 0
M  V30 8592 H 777.148 4.76332 3.6451 0
M  V30 8593 H 778.827 5.35745 3.62748 0
M  V30 8594 N 778.959 -0.83999 1.33349 0
M  V30 8595 C 779.922 -1.93128 1.23426 0
M  V30 8596 C 780.922 -1.60065 0.153599 0
M  V30 8597 O 782.112 -1.69425 0.405049 0
M  V30 8598 C 779.244 -3.28761 0.901622 0
M  V30 8599 H 780.437 -2.03352 2.20427 0
M  V30 8600 H 777.99 -1.03194 1.17391 0
M  V30 8601 H 778.725 -3.24233 -0.0659337 0
M  V30 8602 H 778.51 -3.54138 1.68311 0
M  V30 8603 H 780 -4.08714 0.856913 0
M  V30 8604 N 780.437 -1.16799 -1.0581 0
M  V30 8605 C 781.683 -0.953935 -1.78963 0
M  V30 8606 C 782.016 0.516638 -1.87202 0
M  V30 8607 O 781.291 1.38338 -1.36721 0
M  V30 8608 C 781.574 -1.58808 -3.23191 0
M  V30 8609 C 781.427 -3.13032 -3.23003 0
M  V30 8610 C 782.746 -1.2868 -4.20867 0
M  V30 8611 H 779.865 -0.347972 -0.64968 0
M  V30 8612 H 782.507 -1.44204 -1.23715 0
M  V30 8613 H 780.657 -1.17303 -3.70368 0
M  V30 8614 H 782.329 -3.63553 -2.83949 0
M  V30 8615 H 780.572 -3.46108 -2.61518 0
M  V30 8616 H 781.243 -3.52527 -4.24769 0
M  V30 8617 H 783.719 -1.6461 -3.82155 0
M  V30 8618 H 782.595 -1.75645 -5.20038 0
M  V30 8619 H 782.856 -0.206491 -4.41618 0
M  V30 8620 N 781.915 1.24427 -0.967243 0
M  V30 8621 C 783.143 1.96541 -0.646477 0
M  V30 8622 C 783.558 1.71753 0.783996 0
M  V30 8623 O 782.915 1.00102 1.52597 0
M  V30 8624 C 782.966 3.4983 -0.911098 0
M  V30 8625 O 782.687 3.7377 -2.28534 0
M  V30 8626 C 784.188 4.3916 -0.604458 0
M  V30 8627 H 781.408 0.626129 -0.241255 0
M  V30 8628 H 783.952 1.58268 -1.29505 0
M  V30 8629 H 782.107 3.86168 -0.308741 0
M  V30 8630 H 782.521 4.68154 -2.365 0
M  V30 8631 H 783.995 5.4557 -0.840069 0
M  V30 8632 H 784.472 4.36771 0.461273 0
M  V30 8633 H 785.078 4.08409 -1.1867 0
M  V30 8634 N 783.393 0.737304 1.3929 0
M  V30 8635 C 784.64 0.286257 2.00467 0
M  V30 8636 C 784.968 -1.1272 1.58507 0
M  V30 8637 O 784.223 -1.7832 0.806257 0
M  V30 8638 C 784.522 0.338438 3.55794 0
M  V30 8639 C 784.188 1.70524 4.17411 0
M  V30 8640 C 782.85 2.07934 4.33955 0
M  V30 8641 C 785.202 2.60256 4.51571 0
M  V30 8642 C 782.53 3.34578 4.81948 0
M  V30 8643 C 784.882 3.86275 5.00974 0
M  V30 8644 C 783.546 4.23774 5.15725 0
M  V30 8645 H 782.816 0.104749 0.733559 0
M  V30 8646 H 785.463 0.944598 1.66582 0
M  V30 8647 H 783.768 -0.403478 3.89717 0
M  V30 8648 H 785.465 -0.0287255 4.0099 0
M  V30 8649 H 782.055 1.40439 4.04938 0
M  V30 8650 H 786.239 2.32624 4.38406 0
M  V30 8651 H 781.495 3.63572 4.91554 0
M  V30 8652 H 785.669 4.5596 5.26378 0
M  V30 8653 H 783.296 5.21972 5.52674 0
M  V30 8654 N 784.871 -1.49948 0.485112 0
M  V30 8655 C 785.834 -2.27351 -0.290546 0
M  V30 8656 C 786.834 -1.32704 -0.908087 0
M  V30 8657 O 788.024 -1.56007 -0.775085 0
M  V30 8658 C 785.156 -3.10135 -1.41524 0
M  V30 8659 H 786.349 -2.97374 0.388454 0
M  V30 8660 H 783.902 -1.54453 0.239586 0
M  V30 8661 H 784.637 -2.44641 -2.12888 0
M  V30 8662 H 784.422 -3.79705 -0.978074 0
M  V30 8663 H 785.912 -3.68638 -1.96204 0
M  V30 8664 N 786.349 -0.21828 -1.56081 0
M  V30 8665 C 787.598 0.414644 -1.97392 0
M  V30 8666 C 787.911 1.61132 -1.10887 0
M  V30 8667 O 789.117 2.31355 -1.42082 0
M  V30 8668 C 787.573 0.789099 -3.51143 0
M  V30 8669 C 787.181 -0.384578 -4.46346 0
M  V30 8670 C 788.925 1.38781 -4.01173 0
M  V30 8671 C 786.832 0.0121288 -5.91399 0
M  V30 8672 H 785.762 0.158691 -0.737111 0
M  V30 8673 H 788.413 -0.313974 -1.80794 0
M  V30 8674 H 786.795 1.57505 -3.6333 0
M  V30 8675 H 787.969 -1.16212 -4.45905 0
M  V30 8676 H 786.284 -0.896306 -4.06639 0
M  V30 8677 H 788.881 1.69746 -5.07041 0
M  V30 8678 H 789.224 2.30245 -3.46833 0
M  V30 8679 H 789.757 0.665364 -3.92196 0
M  V30 8680 H 786.496 -0.868917 -6.49715 0
M  V30 8681 H 786.016 0.754053 -5.95041 0
M  V30 8682 H 787.695 0.439949 -6.45502 0
M  V30 8683 N 787.827 1.57504 0.0551401 0
M  V30 8684 C 789.073 1.88334 0.752216 0
M  V30 8685 C 789.406 0.812742 1.76375 0
M  V30 8686 O 788.681 -0.175198 1.93709 0
M  V30 8687 C 788.964 3.29824 1.44528 0
M  V30 8688 C 788.817 4.47553 0.449026 0
M  V30 8689 C 790.136 3.69808 2.38601 0
M  V30 8690 H 787.255 0.684973 0.271995 0
M  V30 8691 H 789.897 1.89994 0.0151895 0
M  V30 8692 H 788.047 3.28539 2.07351 0
M  V30 8693 H 789.719 4.60967 -0.175277 0
M  V30 8694 H 787.962 4.33168 -0.234162 0
M  V30 8695 H 788.633 5.43376 0.971917 0
M  V30 8696 H 791.109 3.72293 1.85842 0
M  V30 8697 H 789.985 4.69665 2.84088 0
M  V30 8698 H 790.246 3.00641 3.24141 0
M  V30 8699 N 789.305 -0.326896 1.54172 0
M  V30 8700 C 790.235 -1.40741 1.86317 0
M  V30 8701 C 791.216 -1.54125 0.719684 0
M  V30 8702 O 792.401 -1.6806 0.973117 0
M  V30 8703 C 789.531 -2.77557 2.08757 0
M  V30 8704 C 788.485 -2.78965 3.24596 0
M  V30 8705 C 787.811 -4.18824 3.32401 0
M  V30 8706 C 789.111 -2.4301 4.62324 0
M  V30 8707 H 790.805 -1.14088 2.76811 0
M  V30 8708 H 788.351 -0.547389 1.3319 0
M  V30 8709 H 790.304 -3.53209 2.29829 0
M  V30 8710 H 789.028 -3.0568 1.15009 0
M  V30 8711 H 787.687 -2.05767 3.03406 0
M  V30 8712 H 787.335 -4.44083 2.36218 0
M  V30 8713 H 787.035 -4.20673 4.10253 0
M  V30 8714 H 788.559 -4.96294 3.55703 0
M  V30 8715 H 789.973 -3.08375 4.83299 0
M  V30 8716 H 788.37 -2.56116 5.42701 0
M  V30 8717 H 789.44 -1.38165 4.64799 0
M  V30 8718 N 790.784 -1.46188 -0.588786 0
M  V30 8719 C 792.032 -1.50885 -1.34455 0
M  V30 8720 C 792.353 -0.159555 -1.94346 0
M  V30 8721 O 791.623 0.813239 -1.78222 0
M  V30 8722 H 790.203 -0.555707 -0.499198 0
M  V30 8723 H 792.865 -1.82277 -0.690014 0
M  V30 8724 H 791.961 -2.25816 -2.15438 0
M  V30 8725 N 792.262 0.832906 -1.33792 0
M  V30 8726 C 793.508 1.59089 -1.25772 0
M  V30 8727 C 793.841 1.93414 0.174601 0
M  V30 8728 O 793.116 1.59195 1.11746 0
M  V30 8729 C 793.399 2.89699 -2.13885 0
M  V30 8730 C 793.252 2.62017 -3.65605 0
M  V30 8731 C 794.571 3.91182 -2.01654 0
M  V30 8732 H 791.69 0.577232 -0.458227 0
M  V30 8733 H 794.332 0.960227 -1.6395 0
M  V30 8734 H 792.482 3.4352 -1.81456 0
M  V30 8735 H 794.154 2.14582 -4.08353 0
M  V30 8736 H 792.397 1.95621 -3.87189 0
M  V30 8737 H 793.068 3.55112 -4.2261 0
M  V30 8738 H 795.544 3.46684 -2.30107 0
M  V30 8739 H 794.42 4.80391 -2.65548 0
M  V30 8740 H 794.681 4.30861 -0.990536 0
M  V30 8741 N 793.74 1.17359 1.05189 0
M  V30 8742 C 794.989 0.956412 1.77583 0
M  V30 8743 C 795.302 -0.516018 1.88671 0
M  V30 8744 O 796.508 -0.851401 2.57805 0
M  V30 8745 C 794.964 1.66203 3.19225 0
M  V30 8746 C 794.572 3.17299 3.16267 0
M  V30 8747 C 796.316 1.52725 3.96075 0
M  V30 8748 C 794.223 3.8055 4.52698 0
M  V30 8749 H 793.153 0.354204 0.665624 0
M  V30 8750 H 795.804 1.40612 1.17901 0
M  V30 8751 H 794.186 1.14006 3.79234 0
M  V30 8752 H 795.36 3.76431 2.65776 0
M  V30 8753 H 793.675 3.3079 2.52917 0
M  V30 8754 H 796.272 1.97351 4.96947 0
M  V30 8755 H 796.615 0.477803 4.13549 0
M  V30 8756 H 797.148 2.02139 3.42614 0
M  V30 8757 H 793.887 4.85492 4.4043 0
M  V30 8758 H 793.407 3.26206 5.03339 0
M  V30 8759 H 795.086 3.82757 5.21638 0
M  V30 8760 N 795.218 -1.23913 0.973828 0
M  V30 8761 C 796.467 -1.91455 0.63464 0
M  V30 8762 C 796.78 -1.76893 -0.834759 0
M  V30 8763 O 797.986 -2.3918 -1.28473 0
M  V30 8764 C 796.442 -3.43172 1.08447 0
M  V30 8765 C 796.05 -3.66409 2.57776 0
M  V30 8766 C 797.794 -4.1653 0.818721 0
M  V30 8767 C 795.701 -5.11728 2.9646 0
M  V30 8768 H 794.631 -0.716881 0.233661 0
M  V30 8769 H 797.282 -1.40457 1.18085 0
M  V30 8770 H 795.664 -3.93242 0.466524 0
M  V30 8771 H 796.838 -3.26913 3.24753 0
M  V30 8772 H 795.153 -3.06349 2.82027 0
M  V30 8773 H 797.75 -5.23603 1.08367 0
M  V30 8774 H 798.093 -4.15578 -0.245128 0
M  V30 8775 H 798.626 -3.72428 1.39793 0
M  V30 8776 H 795.365 -5.17806 4.01941 0
M  V30 8777 H 794.885 -5.52199 2.34172 0
M  V30 8778 H 796.564 -5.80009 2.86703 0
M  V30 8779 N 796.696 -0.74468 -1.38897 0
M  V30 8780 C 797.926 -0.306982 -2.04307 0
M  V30 8781 C 798.334 1.06652 -1.56275 0
M  V30 8782 O 797.677 1.68699 -0.72708 0
M  V30 8783 C 797.739 -0.241186 -3.5869 0
M  V30 8784 C 797.403 -1.55476 -4.2974 0
M  V30 8785 C 798.4 -2.50229 -4.55721 0
M  V30 8786 C 796.085 -1.82173 -4.68101 0
M  V30 8787 C 798.079 -3.69905 -5.19085 0
M  V30 8788 C 795.766 -3.02125 -5.31191 0
M  V30 8789 C 796.764 -3.95812 -5.56616 0
M  V30 8790 O 796.452 -5.13656 -6.18395 0
M  V30 8791 H 796.184 -0.130416 -0.663301 0
M  V30 8792 H 798.738 -1.01192 -1.78744 0
M  V30 8793 H 796.968 0.519925 -3.83189 0
M  V30 8794 H 798.657 0.165806 -4.05561 0
M  V30 8795 H 799.423 -2.30877 -4.26522 0
M  V30 8796 H 795.302 -1.10091 -4.47662 0
M  V30 8797 H 798.846 -4.43047 -5.38846 0
M  V30 8798 H 794.743 -3.21374 -5.59811 0
M  V30 8799 H 795.511 -5.14119 -6.36886 0
M  V30 8800 N 798.174 1.49689 -0.493057 0
M  V30 8801 C 799.59 1.58907 -0.148526 0
M  V30 8802 C 799.79 1.4991 1.34645 0
M  V30 8803 O 798.846 1.36893 2.12171 0
M  V30 8804 C 800.159 2.91996 -0.718265 0
M  V30 8805 C 801.707 3.05443 -0.683658 0
M  V30 8806 C 802.182 4.41138 -1.23132 0
M  V30 8807 N 803.673 4.47608 -1.19167 0
M  V30 8808 C 804.408 5.51038 -1.5857 0
M  V30 8809 N 803.904 6.61612 -2.05528 0
M  V30 8810 N 805.697 5.41706 -1.50036 0
M  V30 8811 H 797.848 1.5378 -1.46511 0
M  V30 8812 H 800.111 0.727996 -0.607228 0
M  V30 8813 H 799.817 3.04123 -1.7664 0
M  V30 8814 H 799.691 3.76798 -0.17419 0
M  V30 8815 H 802.078 2.92949 0.355626 0
M  V30 8816 H 802.159 2.22344 -1.26479 0
M  V30 8817 H 801.803 4.54382 -2.26935 0
M  V30 8818 H 801.733 5.22864 -0.626201 0
M  V30 8819 H 804.224 3.68274 -0.847524 0
M  V30 8820 H 804.537 7.36622 -2.33685 0
M  V30 8821 H 802.882 6.62674 -2.09497 0
M  V30 8822 H 806.073 4.54212 -1.13176 0
M  V30 8823 H 806.246 6.22188 -1.81068 0
M  V30 8824 N 799.652 0.226554 1.55963 0
M  V30 8825 C 800.901 -0.40417 1.97609 0
M  V30 8826 C 801.214 -1.60541 1.1174 0
M  V30 8827 O 802.42 -2.30598 1.43307 0
M  V30 8828 C 800.876 -0.770466 3.51556 0
M  V30 8829 C 800.484 0.408244 4.46136 0
M  V30 8830 C 802.228 -1.36651 4.01904 0
M  V30 8831 C 800.135 0.0192347 5.91397 0
M  V30 8832 H 799.065 -0.15478 0.737943 0
M  V30 8833 H 801.716 0.323558 1.80625 0
M  V30 8834 H 800.098 -1.55575 3.6416 0
M  V30 8835 H 801.272 1.18575 4.45283 0
M  V30 8836 H 799.587 0.917859 4.06158 0
M  V30 8837 H 802.184 -1.67055 5.07934 0
M  V30 8838 H 802.527 -2.28403 3.48049 0
M  V30 8839 H 803.06 -0.644556 3.92543 0
M  V30 8840 H 799.799 0.90336 6.49245 0
M  V30 8841 H 799.319 -0.722485 5.95433 0
M  V30 8842 H 800.998 -0.405711 6.45727 0
M  V30 8843 N 801.13 -1.57531 -0.0467866 0
M  V30 8844 C 802.355 -1.93087 -0.757123 0
M  V30 8845 C 802.78 -0.825116 -1.69037 0
M  V30 8846 O 802.138 0.220449 -1.79955 0
M  V30 8847 C 802.186 -3.27669 -1.5055 0
M  V30 8848 O 801.29 -3.18667 -2.61773 0
M  V30 8849 H 800.631 -0.631597 -0.204892 0
M  V30 8850 H 803.161 -2.04599 -0.00755232 0
M  V30 8851 H 803.171 -3.6214 -1.87932 0
M  V30 8852 H 801.846 -4.07717 -0.820931 0
M  V30 8853 H 800.423 -2.95798 -2.27064 0
M  V30 8854 N 802.608 0.318715 -1.54344 0
M  V30 8855 C 803.541 1.41644 -1.7892 0
M  V30 8856 C 804.519 1.495 -0.639421 0
M  V30 8857 O 805.703 1.66835 -0.877404 0
M  V30 8858 C 802.83 2.79701 -1.9101 0
M  V30 8859 C 801.876 2.89354 -3.13331 0
M  V30 8860 S 802.709 2.53264 -4.71824 0
M  V30 8861 C 803.865 3.93384 -4.86826 0
M  V30 8862 H 804.098 1.20585 -2.71747 0
M  V30 8863 H 801.631 0.515828 -1.45529 0
M  V30 8864 H 803.589 3.59227 -1.98661 0
M  V30 8865 H 802.25 2.9804 -0.991516 0
M  V30 8866 H 801.443 3.90574 -3.1854 0
M  V30 8867 H 801.045 2.17805 -3.04035 0
M  V30 8868 H 803.337 4.88191 -4.69761 0
M  V30 8869 H 804.28 3.93156 -5.88926 0
M  V30 8870 H 804.688 3.82564 -4.15097 0
M  V30 8871 N 804.086 1.46499 0.581025 0
M  V30 8872 C 805.049 1.5677 1.672 0
M  V30 8873 C 806.049 0.444716 1.54528 0
M  V30 8874 O 807.239 0.709074 1.59116 0
M  V30 8875 C 804.371 1.4896 3.06633 0
M  V30 8876 H 805.564 2.54 1.5945 0
M  V30 8877 H 803.117 1.34334 0.799003 0
M  V30 8878 H 803.852 0.530168 3.19937 0
M  V30 8879 H 803.637 2.30439 3.17239 0
M  V30 8880 H 805.127 1.59237 3.86048 0
M  V30 8881 N 805.565 -0.825799 1.34232 0
M  V30 8882 C 806.528 -1.91808 1.25468 0
M  V30 8883 C 807.528 -1.59893 0.170567 0
M  V30 8884 O 808.718 -1.68986 0.422996 0
M  V30 8885 C 805.85 -3.27786 0.93644 0
M  V30 8886 H 807.043 -2.01003 2.22571 0
M  V30 8887 H 804.596 -1.01944 1.18479 0
M  V30 8888 H 805.331 -3.24285 -0.0315408 0
M  V30 8889 H 805.116 -3.52333 1.72057 0
M  V30 8890 H 806.606 -4.07782 0.900214 0
M  V30 8891 N 807.043 -1.17915 -1.04565 0
M  V30 8892 C 808.006 -0.903787 -2.10628 0
M  V30 8893 C 809.006 0.10873 -1.60432 0
M  V30 8894 O 810.196 -0.124152 -1.73757 0
M  V30 8895 C 807.328 -0.355017 -3.39046 0
M  V30 8896 H 808.521 -1.84425 -2.3649 0
M  V30 8897 H 806.074 -0.990477 -1.2091 0
M  V30 8898 H 806.809 0.592297 -3.18845 0
M  V30 8899 H 806.594 -1.08484 -3.76794 0
M  V30 8900 H 808.084 -0.180891 -4.17208 0
M  V30 8901 N 808.521 1.23394 -0.980386 0
M  V30 8902 C 809.451 2.2717 -0.540024 0
M  V30 8903 C 810.432 1.64659 0.426787 0
M  V30 8904 O 811.617 1.91543 0.320153 0
M  V30 8905 C 808.747 3.46939 0.15836 0
M  V30 8906 C 807.701 4.21802 -0.725732 0
M  V30 8907 C 807.027 5.34597 0.104866 0
M  V30 8908 C 808.327 4.81802 -2.01654 0
M  V30 8909 H 810.021 2.64257 -1.40743 0
M  V30 8910 H 807.567 1.2703 -0.678193 0
M  V30 8911 H 809.52 4.18683 0.477737 0
M  V30 8912 H 808.244 3.08912 1.06022 0
M  V30 8913 H 806.903 3.51875 -1.02857 0
M  V30 8914 H 806.551 4.92812 1.00726 0
M  V30 8915 H 806.251 5.85607 -0.483557 0
M  V30 8916 H 807.775 6.09163 0.418624 0
M  V30 8917 H 809.189 5.45554 -1.76193 0
M  V30 8918 H 807.586 5.43098 -2.55273 0
M  V30 8919 H 808.656 4.02549 -2.70338 0
M  V30 8920 N 809.999 0.752036 1.385 0
M  V30 8921 C 810.962 0.131587 2.28822 0
M  V30 8922 C 811.962 -0.649149 1.47115 0
M  V30 8923 O 813.152 -0.475645 1.67581 0
M  V30 8924 C 810.284 -0.822101 3.30839 0
M  V30 8925 H 811.477 0.927551 2.85196 0
M  V30 8926 H 809.03 0.518945 1.47434 0
M  V30 8927 H 809.765 -1.6438 2.79553 0
M  V30 8928 H 809.55 -0.264689 3.91206 0
M  V30 8929 H 811.04 -1.25226 3.98382 0
M  V30 8930 N 811.477 -1.49425 0.500989 0
M  V30 8931 C 812.41 -2.25887 -0.324087 0
M  V30 8932 C 813.388 -1.30469 -0.970388 0
M  V30 8933 O 814.572 -1.59758 -1.00049 0
M  V30 8934 C 811.699 -3.05787 -1.45643 0
M  V30 8935 C 810.745 -4.16359 -0.924508 0
M  V30 8936 S 811.578 -5.35181 0.184707 0
M  V30 8937 C 812.734 -6.18636 -0.950806 0
M  V30 8938 H 812.967 -2.95519 0.324891 0
M  V30 8939 H 810.5 -1.51723 0.286289 0
M  V30 8940 H 812.458 -3.52405 -2.10525 0
M  V30 8941 H 811.119 -2.35624 -2.07703 0
M  V30 8942 H 810.312 -4.71781 -1.77311 0
M  V30 8943 H 809.914 -3.72331 -0.352907 0
M  V30 8944 H 812.206 -6.51581 -1.85603 0
M  V30 8945 H 813.149 -7.06761 -0.435212 0
M  V30 8946 H 813.557 -5.512 -1.21813 0
M  V30 8947 N 812.955 -0.234822 -1.55841 0
M  V30 8948 C 813.903 0.686145 -2.22249 0
M  V30 8949 C 814.897 1.18948 -1.20614 0
M  V30 8950 O 816.103 1.14777 -1.38659 0
M  V30 8951 H 812.478 0.239724 -0.712767 0
M  V30 8952 H 814.449 0.102762 -2.98223 0
M  V30 8953 C 813.198 1.8776 -2.92646 0
M  V30 8954 H 812.521 1.49943 -3.70617 0
M  V30 8955 H 813.961 2.4995 -3.42493 0
M  V30 8956 C 812.42 2.74127 -1.95847 0
M  V30 8957 O 812.95 3.7329 -1.48384 0
M  V30 8958 N 811.156 2.4044 -1.63209 0
M  V30 8959 H 810.703 1.59854 -2.02001 0
M  V30 8960 H 810.661 2.98504 -0.987063 0
M  V30 8961 N 814.433 1.57553 0.0384317 0
M  V30 8962 C 815.658 1.93485 0.746872 0
M  V30 8963 C 816.083 0.834069 1.68597 0
M  V30 8964 O 815.441 -0.210902 1.80069 0
M  V30 8965 C 815.489 3.28463 1.4881 0
M  V30 8966 O 814.593 3.20051 2.60079 0
M  V30 8967 H 813.934 0.632675 0.201539 0
M  V30 8968 H 816.464 2.046 -0.00329815 0
M  V30 8969 H 816.474 3.63132 1.86009 0
M  V30 8970 H 815.149 4.08147 0.799297 0
M  V30 8971 H 813.726 2.96998 2.25492 0
M  V30 8972 N 815.911 -0.310526 1.54511 0
M  V30 8973 C 817.136 -1.07046 1.7764 0
M  V30 8974 C 817.561 -1.80488 0.529696 0
M  V30 8975 O 816.919 -1.73702 -0.519361 0
M  V30 8976 C 816.967 -2.03411 2.97752 0
M  V30 8977 O 816.071 -3.11545 2.7021 0
M  V30 8978 H 815.412 -0.307994 0.588248 0
M  V30 8979 H 817.942 -0.350848 2.01569 0
M  V30 8980 H 817.952 -2.46048 3.2546 0
M  V30 8981 H 816.627 -1.49361 3.88155 0
M  V30 8982 H 815.204 -2.7349 2.53491 0
M  V30 8983 N 817.389 -1.46805 -0.573248 0
M  V30 8984 C 818.8 -1.46655 -1.15539 0
M  V30 8985 C 819.151 -0.2125 -1.95046 0
M  V30 8986 O 818.276 0.683759 -2.05314 0
M  V30 8987 C 818.871 -2.65711 -2.10198 0
M  V30 8988 C 817.43 -2.68572 -2.63716 0
M  V30 8989 C 816.577 -2.39498 -1.39772 0
M  V30 8990 H 819.528 -1.54547 -0.36068 0
M  V30 8991 H 819.549 -2.41768 -2.93817 0
M  V30 8992 H 819.061 -3.56967 -1.52303 0
M  V30 8993 H 817.162 -1.81414 -3.25453 0
M  V30 8994 H 817.275 -3.68809 -3.05805 0
M  V30 8995 H 815.639 -1.89749 -1.69904 0
M  V30 8996 H 816.422 -3.32942 -0.836943 0
M  V30 8997 N 818.867 0.818669 -1.34668 0
M  V30 8998 C 820.092 1.61193 -1.30505 0
M  V30 8999 C 820.517 1.87734 0.117341 0
M  V30 9000 O 819.875 1.45591 1.08042 0
M  V30 9001 C 819.923 2.92733 -2.1057 0
M  V30 9002 O 819.027 3.85 -1.47813 0
M  V30 9003 H 818.368 0.490085 -0.44801 0
M  V30 9004 H 820.898 1.01701 -1.77534 0
M  V30 9005 H 820.908 3.42262 -2.22082 0
M  V30 9006 H 819.583 2.7274 -3.13984 0
M  V30 9007 H 818.16 3.43525 -1.45069 0
M  V30 9008 N 820.346 1.18468 1.03938 0
M  V30 9009 C 821.592 0.982286 1.77423 0
M  V30 9010 C 821.925 -0.48679 1.88 0
M  V30 9011 O 821.2 -1.36146 1.38905 0
M  V30 9012 C 821.483 1.63929 3.20623 0
M  V30 9013 C 821.336 3.18132 3.17982 0
M  V30 9014 C 822.655 1.3536 4.18767 0
M  V30 9015 H 819.774 0.358264 0.644062 0
M  V30 9016 H 822.416 1.46154 1.21405 0
M  V30 9017 H 820.566 1.2318 3.68455 0
M  V30 9018 H 822.238 3.68024 2.78129 0
M  V30 9019 H 820.481 3.50225 2.55978 0
M  V30 9020 H 821.152 3.5924 4.19107 0
M  V30 9021 H 823.628 1.70669 3.79488 0
M  V30 9022 H 822.504 1.83896 5.17178 0
M  V30 9023 H 822.765 0.276722 4.41233 0
M  V30 9024 N 821.824 -1.22873 0.986916 0
M  V30 9025 C 823.24 -1.43594 0.696633 0
M  V30 9026 C 823.44 -1.87622 -0.734869 0
M  V30 9027 O 822.496 -2.02633 -1.50652 0
M  V30 9028 C 823.809 -2.48231 1.69711 0
M  V30 9029 C 825.357 -2.62037 1.71188 0
M  V30 9030 C 825.832 -3.6989 2.70084 0
M  V30 9031 N 827.323 -3.77341 2.68641 0
M  V30 9032 C 828.058 -4.6037 3.41829 0
M  V30 9033 N 827.554 -5.47438 4.24598 0
M  V30 9034 N 829.347 -4.54626 3.30563 0
M  V30 9035 H 821.498 -0.925982 1.91153 0
M  V30 9036 H 823.761 -0.46866 0.824052 0
M  V30 9037 H 823.467 -2.22812 2.72117 0
M  V30 9038 H 823.341 -3.46731 1.48516 0
M  V30 9039 H 825.728 -2.86803 0.694837 0
M  V30 9040 H 825.809 -1.63831 1.96451 0
M  V30 9041 H 825.453 -3.45872 3.71934 0
M  V30 9042 H 825.383 -4.67652 2.42093 0
M  V30 9043 H 827.874 -3.15124 2.08578 0
M  V30 9044 H 828.187 -6.078 4.77283 0
M  V30 9045 H 826.532 -5.4704 4.28687 0
M  V30 9046 H 829.723 -3.85627 2.65347 0
M  V30 9047 H 829.896 -5.19103 3.8786 0
M  V30 9048 N 823.302 -0.75937 -1.38099 0
M  V30 9049 C 824.527 -0.327859 -2.04792 0
M  V30 9050 C 824.952 1.03752 -1.56899 0
M  V30 9051 O 824.31 1.66235 -0.723581 0
M  V30 9052 C 824.358 -0.366264 -3.58735 0
M  V30 9053 O 823.462 0.637697 -4.0744 0
M  V30 9054 H 822.803 -0.144092 -0.648177 0
M  V30 9055 H 825.333 -1.03211 -1.7666 0
M  V30 9056 H 825.343 -0.219179 -4.07411 0
M  V30 9057 H 824.018 -1.36243 -3.92951 0
M  V30 9058 H 822.595 0.454749 -3.70117 0
M  V30 9059 N 824.78 1.49157 -0.508906 0
M  V30 9060 C 825.728 2.30922 0.278906 0
M  V30 9061 C 826.722 1.39889 0.955382 0
M  V30 9062 O 827.928 1.56901 0.882169 0
M  V30 9063 H 824.303 0.744087 0.108805 0
M  V30 9064 H 826.274 2.95277 -0.430583 0
M  V30 9065 C 825.023 3.21432 1.32576 0
M  V30 9066 H 824.346 3.91413 0.814634 0
M  V30 9067 H 825.786 3.81568 1.84882 0
M  V30 9068 C 824.245 2.41583 2.34817 0
M  V30 9069 O 824.775 2.1256 3.40854 0
M  V30 9070 N 822.981 2.03462 2.07489 0
M  V30 9071 H 822.528 2.27265 1.21278 0
M  V30 9072 H 822.486 1.50345 2.76123 0
M  V30 9073 N 826.258 0.243083 1.55714 0
M  V30 9074 C 827.507 -0.383188 1.98027 0
M  V30 9075 C 827.82 -1.59347 1.13436 0
M  V30 9076 O 829.026 -2.29065 1.45745 0
M  V30 9077 C 827.482 -0.733135 3.52354 0
M  V30 9078 C 827.09 0.455539 4.45678 0
M  V30 9079 C 828.834 -1.32381 4.03331 0
M  V30 9080 C 826.741 0.0819591 5.91343 0
M  V30 9081 H 825.671 -0.146944 0.739543 0
M  V30 9082 H 828.322 0.342697 1.80272 0
M  V30 9083 H 826.704 -1.51704 3.65789 0
M  V30 9084 H 827.878 1.23291 4.44 0
M  V30 9085 H 826.193 0.960886 4.05162 0
M  V30 9086 H 828.79 -1.61658 5.09677 0
M  V30 9087 H 829.133 -2.24698 3.50452 0
M  V30 9088 H 829.666 -0.602885 3.93205 0
M  V30 9089 H 826.405 0.972171 6.48251 0
M  V30 9090 H 825.925 -0.659291 5.96166 0
M  V30 9091 H 827.604 -0.3372 6.46121 0
M  V30 9092 N 827.736 -1.57571 -0.0300757 0
M  V30 9093 C 829.152 -1.54869 -0.385703 0
M  V30 9094 C 829.352 -0.969068 -1.76667 0
M  V30 9095 O 828.408 -0.589676 -2.45518 0
M  V30 9096 C 829.721 -2.99313 -0.288482 0
M  V30 9097 C 831.269 -3.10857 -0.365638 0
M  V30 9098 C 831.744 -4.5703 -0.297878 0
M  V30 9099 N 833.235 -4.61825 -0.356703 0
M  V30 9100 C 833.97 -5.72466 -0.327146 0
M  V30 9101 N 833.466 -6.92349 -0.249941 0
M  V30 9102 N 835.259 -5.60836 -0.376801 0
M  V30 9103 H 827.41 -1.936 0.87367 0
M  V30 9104 H 829.673 -0.887924 0.332106 0
M  V30 9105 H 829.379 -3.45443 0.66047 0
M  V30 9106 H 829.253 -3.61332 -1.08253 0
M  V30 9107 H 831.64 -2.64676 -1.30502 0
M  V30 9108 H 831.721 -2.51671 0.457744 0
M  V30 9109 H 831.365 -5.03879 0.637835 0
M  V30 9110 H 831.295 -5.14127 -1.13935 0
M  V30 9111 H 833.786 -3.75571 -0.418926 0
M  V30 9112 H 834.099 -7.7245 -0.23246 0
M  V30 9113 H 832.444 -6.94664 -0.216004 0
M  V30 9114 H 835.635 -4.66073 -0.435101 0
M  V30 9115 H 835.808 -6.47052 -0.350298 0
M  V30 9116 N 829.214 0.302327 -1.54673 0
M  V30 9117 C 830.46 1.03924 -1.74149 0
M  V30 9118 C 830.793 1.86968 -0.525041 0
M  V30 9119 O 830.068 1.88538 0.477868 0
M  V30 9120 C 830.351 1.94633 -3.02969 0
M  V30 9121 C 830.204 1.14778 -4.34909 0
M  V30 9122 C 831.523 2.93826 -3.27649 0
M  V30 9123 H 828.642 0.376405 -0.633631 0
M  V30 9124 H 831.284 0.314007 -1.87387 0
M  V30 9125 H 829.434 2.56471 -2.91813 0
M  V30 9126 H 831.106 0.552363 -4.57981 0
M  V30 9127 H 829.349 0.450462 -4.31455 0
M  V30 9128 H 830.02 1.81495 -5.21309 0
M  V30 9129 H 832.496 2.42117 -3.38406 0
M  V30 9130 H 831.372 3.54462 -4.19104 0
M  V30 9131 H 831.633 3.67416 -2.45882 0
M  V30 9132 N 830.692 1.47107 0.565454 0
M  V30 9133 C 831.92 1.56909 1.3486 0
M  V30 9134 C 832.335 0.216312 1.87557 0
M  V30 9135 O 831.692 -0.789168 1.64555 0
M  V30 9136 C 831.743 2.58776 2.52423 0
M  V30 9137 O 831.464 3.888 2.01906 0
M  V30 9138 C 832.965 2.78683 3.44747 0
M  V30 9139 H 830.185 0.530096 0.411387 0
M  V30 9140 H 832.729 1.92658 0.685782 0
M  V30 9141 H 830.884 2.25983 3.1466 0
M  V30 9142 H 831.298 4.44393 2.78595 0
M  V30 9143 H 832.772 3.53842 4.23674 0
M  V30 9144 H 833.249 1.86208 3.97773 0
M  V30 9145 H 833.855 3.12641 2.88333 0
M  V30 9146 N 832.17 -0.811516 1.35101 0
M  V30 9147 C 833.416 -1.57068 1.28287 0
M  V30 9148 C 833.749 -1.93667 -0.143808 0
M  V30 9149 O 833.024 -1.60953 -1.09199 0
M  V30 9150 C 833.307 -2.86259 2.18466 0
M  V30 9151 C 833.16 -2.56168 3.69727 0
M  V30 9152 C 834.479 -3.87924 2.07852 0
M  V30 9153 H 831.598 -0.569869 0.467353 0
M  V30 9154 H 834.24 -0.934023 1.65457 0
M  V30 9155 H 832.39 -3.4059 1.86898 0
M  V30 9156 H 834.062 -2.08059 4.11715 0
M  V30 9157 H 832.305 -1.89436 3.90252 0
M  V30 9158 H 832.976 -3.48344 4.28206 0
M  V30 9159 H 835.452 -3.4298 2.35593 0
M  V30 9160 H 834.328 -4.76106 2.73157 0
M  V30 9161 H 834.589 -4.2923 1.05896 0
M  V30 9162 N 833.648 -1.19017 -1.03309 0
M  V30 9163 C 834.876 -1.01534 -1.80273 0
M  V30 9164 C 835.291 0.43605 -1.83696 0
M  V30 9165 O 834.648 1.30288 -1.27794 0
M  V30 9166 C 834.699 -1.5722 -3.25522 0
M  V30 9167 O 834.42 -2.96677 -3.22358 0
M  V30 9168 C 835.921 -1.4446 -4.19102 0
M  V30 9169 H 833.141 -0.358094 -0.567459 0
M  V30 9170 H 835.685 -1.57738 -1.3015 0
M  V30 9171 H 833.84 -1.05174 -3.7285 0
M  V30 9172 H 834.254 -3.22795 -4.13405 0
M  V30 9173 H 835.728 -1.88209 -5.18923 0
M  V30 9174 H 836.205 -0.394471 -4.37425 0
M  V30 9175 H 836.811 -1.95616 -3.77643 0
M  V30 9176 N 835.127 1.22348 -0.993418 0
M  V30 9177 C 836.09 2.22522 -0.549251 0
M  V30 9178 C 837.09 1.56529 0.368164 0
M  V30 9179 O 838.28 1.73463 0.16005 0
M  V30 9180 C 835.412 3.40307 0.201037 0
M  V30 9181 H 836.605 2.63332 -1.43515 0
M  V30 9182 H 834.158 1.35407 -0.78068 0
M  V30 9183 H 834.893 3.0497 1.10289 0
M  V30 9184 H 834.678 3.8942 -0.457685 0
M  V30 9185 H 836.168 4.14597 0.499946 0
M  V30 9186 N 836.605 0.766683 1.37694 0
M  V30 9187 C 837.833 0.339939 2.04088 0
M  V30 9188 C 838.248 -1.03617 1.57826 0
M  V30 9189 O 837.605 -1.6605 0.757214 0
M  V30 9190 C 837.656 0.368269 3.59619 0
M  V30 9191 O 837.377 1.69009 4.04188 0
M  V30 9192 C 838.878 -0.0707053 4.43244 0
M  V30 9193 H 836.098 0.143189 0.655544 0
M  V30 9194 H 838.642 1.03919 1.76128 0
M  V30 9195 H 836.797 -0.282359 3.8637 0
M  V30 9196 H 837.211 1.62523 4.98685 0
M  V30 9197 H 838.685 0.000273538 5.52 0
M  V30 9198 H 839.162 -1.1204 4.24669 0
M  V30 9199 H 839.768 0.551543 4.21709 0
M  V30 9200 N 838.083 -1.48885 0.516809 0
M  V30 9201 C 839.046 -2.27916 -0.242256 0
M  V30 9202 C 840.046 -1.34601 -0.879735 0
M  V30 9203 O 841.236 -1.57616 -0.74182 0
M  V30 9204 C 838.368 -3.13067 -1.34914 0
M  V30 9205 H 839.561 -2.96483 0.451444 0
M  V30 9206 H 837.114 -1.5391 0.272294 0
M  V30 9207 H 837.849 -2.49102 -2.07651 0
M  V30 9208 H 837.634 -3.81695 -0.897313 0
M  V30 9209 H 839.124 -3.72716 -1.88341 0
M  V30 9210 N 839.561 -0.251338 -1.55583 0
M  V30 9211 C 840.807 0.37272 -1.99346 0
M  V30 9212 C 841.14 1.57266 -1.13934 0
M  V30 9213 O 840.415 1.9343 -0.20377 0
M  V30 9214 C 840.698 0.778245 -3.5159 0
M  V30 9215 C 840.551 -0.427394 -4.47765 0
M  V30 9216 C 841.87 1.62358 -4.09057 0
M  V30 9217 H 838.989 0.134002 -0.724715 0
M  V30 9218 H 841.631 -0.353536 -1.86682 0
M  V30 9219 H 839.781 1.39704 -3.62512 0
M  V30 9220 H 841.453 -1.06586 -4.48818 0
M  V30 9221 H 839.696 -1.06972 -4.20404 0
M  V30 9222 H 840.367 -0.10025 -5.51909 0
M  V30 9223 H 842.843 1.1012 -4.01264 0
M  V30 9224 H 841.719 1.87617 -5.1584 0
M  V30 9225 H 841.98 2.59688 -3.57791 0
M  V30 9226 N 841.039 1.57585 0.0217189 0
M  V30 9227 C 842.288 1.88786 0.710125 0
M  V30 9228 C 842.601 0.850819 1.76126 0
M  V30 9229 O 843.807 1.0523 2.50277 0
M  V30 9230 C 842.263 3.3505 1.31413 0
M  V30 9231 C 841.871 4.47001 0.298959 0
M  V30 9232 C 843.615 3.7539 1.98199 0
M  V30 9233 C 841.522 5.8433 0.911727 0
M  V30 9234 H 840.452 0.704388 0.268986 0
M  V30 9235 H 843.103 1.83466 -0.0352638 0
M  V30 9236 H 841.485 3.35138 2.10947 0
M  V30 9237 H 842.659 4.58395 -0.470203 0
M  V30 9238 H 840.974 4.15542 -0.267222 0
M  V30 9239 H 843.571 4.75314 2.4491 0
M  V30 9240 H 843.914 3.07766 2.80331 0
M  V30 9241 H 844.447 3.77508 1.2543 0
M  V30 9242 H 841.186 6.55372 0.129659 0
M  V30 9243 H 840.706 5.76643 1.65056 0
M  V30 9244 H 842.385 6.31295 1.41688 0
M  V30 9245 N 842.517 -0.29412 1.54831 0
M  V30 9246 C 843.766 -1.02614 1.73647 0
M  V30 9247 C 844.079 -1.88193 0.533162 0
M  V30 9248 O 845.285 -2.64713 0.603275 0
M  V30 9249 C 843.741 -1.87417 3.07251 0
M  V30 9250 C 843.349 -1.06806 4.35082 0
M  V30 9251 C 845.093 -2.60176 3.35423 0
M  V30 9252 C 843 -1.90926 5.59733 0
M  V30 9253 H 841.93 -0.386834 0.647206 0
M  V30 9254 H 844.581 -0.282789 1.81308 0
M  V30 9255 H 842.963 -2.65765 2.93572 0
M  V30 9256 H 844.137 -0.330226 4.59615 0
M  V30 9257 H 842.452 -0.455979 4.13896 0
M  V30 9258 H 845.049 -3.23476 4.25755 0
M  V30 9259 H 845.392 -3.29365 2.54606 0
M  V30 9260 H 845.925 -1.88871 3.50103 0
M  V30 9261 H 842.664 -1.26194 6.43238 0
M  V30 9262 H 842.184 -2.62363 5.39375 0
M  V30 9263 H 843.863 -2.48807 5.97247 0
M  V30 9264 N 843.995 -1.47404 -0.557645 0
M  V30 9265 C 844.943 -1.60265 -1.68576 0
M  V30 9266 C 845.937 -0.469982 -1.6275 0
M  V30 9267 O 847.143 -0.647764 -1.67941 0
M  V30 9268 H 843.518 -0.504353 -0.557792 0
M  V30 9269 H 845.489 -2.55066 -1.54867 0
M  V30 9270 C 844.238 -1.63369 -3.0693 0
M  V30 9271 H 843.561 -2.49874 -3.12095 0
M  V30 9272 H 845.001 -1.76417 -3.85556 0
M  V30 9273 C 843.46 -0.366921 -3.34896 0
M  V30 9274 O 843.99 0.53218 -3.98159 0
M  V30 9275 N 842.196 -0.247082 -2.89548 0
M  V30 9276 H 841.743 -0.979669 -2.38244 0
M  V30 9277 H 841.701 0.599552 -3.0863 0
M  V30 9278 N 845.473 0.80434 -1.35529 0
M  V30 9279 C 846.403 1.93086 -1.31301 0
M  V30 9280 C 847.384 1.69068 -0.187044 0
M  V30 9281 O 848.569 1.90399 -0.382359 0
M  V30 9282 C 845.699 3.29867 -1.0865 0
M  V30 9283 C 844.653 3.68373 -2.17911 0
M  V30 9284 C 843.979 5.0334 -1.80423 0
M  V30 9285 C 845.279 3.78516 -3.59893 0
M  V30 9286 H 846.973 1.96882 -2.25561 0
M  V30 9287 H 844.519 0.945841 -1.08581 0
M  V30 9288 H 846.472 4.08281 -1.04331 0
M  V30 9289 H 845.196 3.2642 -0.108359 0
M  V30 9290 H 843.855 2.92247 -2.21331 0
M  V30 9291 H 843.503 4.96399 -0.812213 0
M  V30 9292 H 843.203 5.30074 -2.53565 0
M  V30 9293 H 844.727 5.84191 -1.77633 0
M  V30 9294 H 846.141 4.47155 -3.58783 0
M  V30 9295 H 844.538 4.16721 -4.31814 0
M  V30 9296 H 845.608 2.8001 -3.95882 0
M  V30 9297 N 846.951 1.19563 1.02676 0
M  V30 9298 C 848.197 1.00105 1.76371 0
M  V30 9299 C 848.53 -0.466823 1.88506 0
M  V30 9300 O 847.805 -1.34665 1.40341 0
M  V30 9301 C 848.088 1.67321 3.18866 0
M  V30 9302 C 847.941 3.21486 3.1459 0
M  V30 9303 C 849.26 1.39794 4.17308 0
M  V30 9304 H 846.379 0.365075 0.640226 0
M  V30 9305 H 849.021 1.47433 1.19848 0
M  V30 9306 H 847.171 1.27081 3.67128 0
M  V30 9307 H 848.843 3.70953 2.7421 0
M  V30 9308 H 847.086 3.5292 2.52249 0
M  V30 9309 H 847.757 3.63665 4.15273 0
M  V30 9310 H 850.233 1.74685 3.77657 0
M  V30 9311 H 849.109 1.89371 5.15199 0
M  V30 9312 H 849.37 0.323505 4.40915 0
M  V30 9313 N 848.429 -1.21819 0.999893 0
M  V30 9314 C 849.675 -1.91035 0.680701 0
M  V30 9315 C 850.008 -1.77582 -0.786021 0
M  V30 9316 O 849.283 -1.14917 -1.56921 0
M  V30 9317 C 849.566 -3.43013 1.0961 0
M  V30 9318 C 849.419 -3.65481 2.6219 0
M  V30 9319 C 850.738 -4.35204 0.654616 0
M  V30 9320 H 847.857 -0.693748 0.248763 0
M  V30 9321 H 850.499 -1.43555 1.24466 0
M  V30 9322 H 848.649 -3.83581 0.616253 0
M  V30 9323 H 850.321 -3.34273 3.17899 0
M  V30 9324 H 848.564 -3.09522 3.03938 0
M  V30 9325 H 849.235 -4.71945 2.86307 0
M  V30 9326 H 851.711 -4.0219 1.06688 0
M  V30 9327 H 850.587 -5.40198 0.973492 0
M  V30 9328 H 850.848 -4.3986 -0.444458 0
M  V30 9329 N 849.908 -0.773975 -1.37286 0
M  V30 9330 C 851.157 -0.335977 -1.98882 0
M  V30 9331 C 851.47 1.09416 -1.62134 0
M  V30 9332 O 852.676 1.63366 -2.1685 0
M  V30 9333 C 851.132 -0.549756 -3.55676 0
M  V30 9334 C 850.74 -1.9903 -4.01361 0
M  V30 9335 C 852.484 -0.175493 -4.24137 0
M  V30 9336 C 850.391 -2.15156 -5.50874 0
M  V30 9337 H 849.321 -0.121877 -0.744085 0
M  V30 9338 H 851.972 -0.953419 -1.56787 0
M  V30 9339 H 850.354 0.137175 -3.95762 0
M  V30 9340 H 851.528 -2.71237 -3.72515 0
M  V30 9341 H 849.843 -2.32137 -3.4569 0
M  V30 9342 H 852.44 -0.274463 -5.33995 0
M  V30 9343 H 852.783 0.874524 -4.07011 0
M  V30 9344 H 853.316 -0.815058 -3.89361 0
M  V30 9345 H 850.055 -3.18485 -5.72929 0
M  V30 9346 H 849.575 -1.47435 -5.81397 0
M  V30 9347 H 851.254 -1.95124 -6.16876 0
M  V30 9348 N 851.386 1.48609 -0.524698 0
M  V30 9349 C 852.635 2.01696 0.0132937 0
M  V30 9350 C 852.948 1.40751 1.35825 0
M  V30 9351 O 854.154 1.85304 1.9843 0
M  V30 9352 C 852.61 3.59824 0.0741012 0
M  V30 9353 C 852.218 4.2975 -1.26564 0
M  V30 9354 C 853.962 4.20774 0.5612 0
M  V30 9355 C 851.869 5.79798 -1.16571 0
M  V30 9356 H 850.799 0.753949 0.00873931 0
M  V30 9357 H 853.45 1.70922 -0.667684 0
M  V30 9358 H 851.832 3.87416 0.820043 0
M  V30 9359 H 853.006 4.13836 -2.02674 0
M  V30 9360 H 851.321 3.80649 -1.68806 0
M  V30 9361 H 853.918 5.30687 0.653853 0
M  V30 9362 H 854.261 3.85734 1.56573 0
M  V30 9363 H 854.794 3.97591 -0.128901 0
M  V30 9364 H 851.533 6.19403 -2.14523 0
M  V30 9365 H 851.053 5.9814 -0.445894 0
M  V30 9366 H 852.732 6.41337 -0.854186 0
M  V30 9367 N 852.864 0.259585 1.55447 0
M  V30 9368 C 853.794 -0.62852 2.24882 0
M  V30 9369 C 854.775 -1.17128 1.23349 0
M  V30 9370 O 855.96 -1.20829 1.52033 0
M  V30 9371 C 853.09 -1.81983 2.95803 0
M  V30 9372 C 852.044 -1.40929 4.04132 0
M  V30 9373 C 851.37 -2.68246 4.62545 0
M  V30 9374 C 852.67 -0.570956 5.1917 0
M  V30 9375 H 854.364 -0.0495021 2.99359 0
M  V30 9376 H 851.91 -0.0223688 1.43983 0
M  V30 9377 H 853.863 -2.44689 3.43082 0
M  V30 9378 H 852.587 -2.42444 2.18835 0
M  V30 9379 H 851.246 -0.805519 3.57641 0
M  V30 9380 H 850.894 -3.26931 3.82263 0
M  V30 9381 H 850.594 -2.41495 5.35681 0
M  V30 9382 H 852.118 -3.31827 5.12565 0
M  V30 9383 H 853.532 -1.10262 5.62597 0
M  V30 9384 H 851.929 -0.398979 5.98772 0
M  V30 9385 H 852.999 0.413918 4.8313 0
M  V30 9386 N 854.342 -1.57594 -0.0133615 0
M  V30 9387 C 855.272 -2.10611 -1.00823 0
M  V30 9388 C 856.253 -1.01217 -1.36708 0
M  V30 9389 O 857.438 -1.28827 -1.45318 0
M  V30 9390 C 854.568 -2.59844 -2.30431 0
M  V30 9391 C 853.522 -3.73644 -2.08745 0
M  V30 9392 C 852.848 -4.09141 -3.4425 0
M  V30 9393 C 854.148 -5.01454 -1.46086 0
M  V30 9394 H 855.842 -2.93985 -0.566849 0
M  V30 9395 H 853.388 -1.41423 -0.271219 0
M  V30 9396 H 855.341 -2.95557 -3.00373 0
M  V30 9397 H 854.065 -1.73573 -2.76658 0
M  V30 9398 H 852.724 -3.38303 -1.41232 0
M  V30 9399 H 852.372 -3.19914 -3.88155 0
M  V30 9400 H 852.072 -4.85802 -3.3056 0
M  V30 9401 H 853.596 -4.47402 -4.15528 0
M  V30 9402 H 855.01 -5.35024 -2.05966 0
M  V30 9403 H 853.407 -5.82832 -1.42924 0
M  V30 9404 H 854.477 -4.83003 -0.428471 0
M  V30 9405 N 855.82 0.285905 -1.54985 0
M  V30 9406 C 857.097 1.0397 -1.65679 0
M  V30 9407 C 857.477 2.04725 -0.514851 0
M  V30 9408 O 856.825 2.23257 0.486663 0
M  V30 9409 C 857.035 1.70807 -3.04345 0
M  V30 9410 C 858.383 2.22447 -3.61666 0
M  V30 9411 O 859.407 1.80815 -3.06895 0
M  V30 9412 O 858.266 2.98773 -4.57599 0
M  V30 9413 H 855.36 0.481473 -0.672394 0
M  V30 9414 H 857.906 0.282789 -1.67327 0
M  V30 9415 H 856.678 0.977271 -3.789 0
M  V30 9416 H 856.301 2.53217 -3.06541 0
M  V30 9417 N 857.298 1.47698 0.54982 0
M  V30 9418 C 858.208 1.63386 1.68351 0
M  V30 9419 C 859.224 0.516583 1.66155 0
M  V30 9420 O 860.4 0.785088 1.85468 0
M  V30 9421 C 857.465 1.6513 3.04849 0
M  V30 9422 C 856.526 2.88338 3.18056 0
M  V30 9423 C 855.759 2.8999 4.48042 0
M  V30 9424 O 855.982 2.00633 5.3395 0
M  V30 9425 O 854.916 3.81938 4.65196 0
M  V30 9426 H 858.742 2.59329 1.58057 0
M  V30 9427 H 856.327 1.30869 0.72067 0
M  V30 9428 H 858.209 1.68913 3.86065 0
M  V30 9429 H 856.884 0.723555 3.1551 0
M  V30 9430 H 855.791 2.90097 2.36209 0
M  V30 9431 H 857.124 3.80431 3.12302 0
M  V30 9432 N 858.776 -0.797141 1.35954 0
M  V30 9433 C 860.022 -1.55698 1.29946 0
M  V30 9434 C 860.355 -1.93808 -0.123259 0
M  V30 9435 O 859.63 -1.62102 -1.07486 0
M  V30 9436 C 859.913 -2.83926 2.2149 0
M  V30 9437 C 859.766 -2.52232 3.72423 0
M  V30 9438 C 861.085 -3.85698 2.11955 0
M  V30 9439 H 858.204 -0.56488 0.47337 0
M  V30 9440 H 860.846 -0.916421 1.66438 0
M  V30 9441 H 858.996 -3.38588 1.905 0
M  V30 9442 H 860.668 -2.0368 4.13899 0
M  V30 9443 H 858.911 -1.85286 3.92239 0
M  V30 9444 H 859.582 -3.43782 4.31877 0
M  V30 9445 H 862.058 -3.40462 2.39218 0
M  V30 9446 H 860.934 -4.73182 2.78191 0
M  V30 9447 H 861.195 -4.28083 1.10442 0
M  V30 9448 N 860.254 -1.20106 -1.0204 0
M  V30 9449 C 861.484 -1.0329 -1.78927 0
M  V30 9450 C 861.892 0.421115 -1.84454 0
M  V30 9451 O 861.235 1.30422 -1.29367 0
M  V30 9452 C 861.297 -1.53627 -3.25021 0
M  V30 9453 C 860.961 -3.01869 -3.4311 0
M  V30 9454 C 861.958 -3.9956 -3.32638 0
M  V30 9455 C 859.643 -3.40746 -3.6905 0
M  V30 9456 C 861.637 -5.34119 -3.47844 0
M  V30 9457 C 859.324 -4.75462 -3.839 0
M  V30 9458 C 860.322 -5.71957 -3.73302 0
M  V30 9459 O 860.01 -7.04231 -3.87703 0
M  V30 9460 H 859.742 -0.363962 -0.569656 0
M  V30 9461 H 862.296 -1.59551 -1.29354 0
M  V30 9462 H 860.526 -0.917481 -3.75658 0
M  V30 9463 H 862.215 -1.32889 -3.8353 0
M  V30 9464 H 862.981 -3.70869 -3.12539 0
M  V30 9465 H 858.86 -2.66182 -3.76388 0
M  V30 9466 H 862.404 -6.09421 -3.39488 0
M  V30 9467 H 858.301 -5.03844 -4.03499 0
M  V30 9468 H 859.069 -7.11425 -4.04744 0
M  V30 9469 N 861.732 1.21287 -1.00634 0
M  V30 9470 C 862.98 1.90013 -0.688438 0
M  V30 9471 C 863.301 1.78573 0.783365 0
M  V30 9472 O 862.571 1.1815 1.56261 0
M  V30 9473 H 861.151 0.703336 -0.251648 0
M  V30 9474 H 863.813 1.47346 -1.27574 0
M  V30 9475 H 862.909 2.96879 -0.962781 0
M  V30 9476 N 863.21 0.781244 1.36873 0
M  V30 9477 C 864.45 0.355185 2.0129 0
M  V30 9478 C 864.814 -1.05115 1.6067 0
M  V30 9479 O 866.015 -1.57785 2.17618 0
M  V30 9480 C 864.286 0.504587 3.5382 0
M  V30 9481 S 865.845 0.165196 4.38489 0
M  V30 9482 H 862.663 0.136133 0.697846 0
M  V30 9483 H 865.265 1.01794 1.66908 0
M  V30 9484 H 863.969 1.52857 3.80871 0
M  V30 9485 H 863.5 -0.174392 3.93013 0
M  V30 9486 H 865.515 -1.03605 4.85263 0
M  V30 9487 N 864.689 -1.48329 0.532571 0
M  V30 9488 C 865.938 -2.017 -0.00259705 0
M  V30 9489 C 866.251 -1.41469 -1.35077 0
M  V30 9490 O 867.457 -1.86354 -1.97445 0
M  V30 9491 C 865.913 -3.59858 -0.0550179 0
M  V30 9492 C 865.521 -4.29073 1.28842 0
M  V30 9493 C 867.265 -4.21066 -0.538878 0
M  V30 9494 C 865.172 -5.79171 1.19644 0
M  V30 9495 H 864.102 -0.753985 -0.00474081 0
M  V30 9496 H 866.753 -1.70565 0.676739 0
M  V30 9497 H 865.135 -3.87846 -0.799486 0
M  V30 9498 H 866.309 -4.12755 2.04865 0
M  V30 9499 H 864.624 -3.79748 1.70822 0
M  V30 9500 H 867.221 -5.31026 -0.6257 0
M  V30 9501 H 867.564 -3.86559 -1.54525 0
M  V30 9502 H 868.097 -3.97517 0.149984 0
M  V30 9503 H 864.836 -6.18257 2.17805 0
M  V30 9504 H 864.356 -5.97895 0.477609 0
M  V30 9505 H 866.035 -6.40875 0.888186 0
M  V30 9506 N 866.167 -0.267825 -1.55308 0
M  V30 9507 C 867.13 0.60965 -2.20943 0
M  V30 9508 C 868.13 1.0869 -1.18504 0
M  V30 9509 O 869.32 0.988248 -1.43455 0
M  V30 9510 C 866.452 1.84027 -2.86961 0
M  V30 9511 H 867.645 0.0366806 -2.99878 0
M  V30 9512 H 865.198 -0.0183941 -1.56289 0
M  V30 9513 H 865.933 2.45394 -2.1202 0
M  V30 9514 H 865.718 1.50605 -3.62023 0
M  V30 9515 H 867.208 2.46442 -3.37129 0
M  V30 9516 N 867.645 1.57599 0.00500368 0
M  V30 9517 C 869.061 1.55463 0.361015 0
M  V30 9518 C 869.261 0.997051 1.75103 0
M  V30 9519 O 868.317 0.628661 2.44549 0
M  V30 9520 C 869.63 2.99734 0.240828 0
M  V30 9521 C 871.178 3.11399 0.316138 0
M  V30 9522 C 871.653 4.57446 0.22513 0
M  V30 9523 N 873.144 4.62334 0.283186 0
M  V30 9524 C 873.879 5.72914 0.23603 0
M  V30 9525 N 873.375 6.92659 0.139762 0
M  V30 9526 N 875.168 5.61364 0.287529 0
M  V30 9527 H 867.319 1.92185 -0.904359 0
M  V30 9528 H 869.582 0.882529 -0.34619 0
M  V30 9529 H 869.288 3.44348 -0.715343 0
M  V30 9530 H 869.162 3.63009 1.02491 0
M  V30 9531 H 871.549 2.66718 1.26275 0
M  V30 9532 H 871.63 2.50911 -0.497725 0
M  V30 9533 H 871.274 5.02801 -0.717917 0
M  V30 9534 H 871.204 5.15874 1.05742 0
M  V30 9535 H 873.695 3.7619 0.359123 0
M  V30 9536 H 874.008 7.72722 0.10954 0
M  V30 9537 H 872.353 6.9492 0.105462 0
M  V30 9538 H 875.544 4.66707 0.360897 0
M  V30 9539 H 875.717 6.47528 0.247313 0
M  V30 9540 N 869.123 -0.277682 1.55134 0
M  V30 9541 C 870.369 -1.00733 1.76704 0
M  V30 9542 C 870.724 -1.84107 0.55879 0
M  V30 9543 O 870.017 -1.86275 -0.448591 0
M  V30 9544 C 870.211 -1.92599 3.01065 0
M  V30 9545 C 870.04 -1.18266 4.3387 0
M  V30 9546 C 868.81 -0.900254 4.97216 0
M  V30 9547 C 871.008 -0.575419 5.11071 0
M  V30 9548 N 868.99 -0.129637 6.13763 0
M  V30 9549 C 870.361 0.0612637 6.1997 0
M  V30 9550 C 872.416 -0.482794 4.95554 0
M  V30 9551 C 871.119 0.781637 7.15041 0
M  V30 9552 C 873.145 0.223977 5.90976 0
M  V30 9553 C 872.507 0.849416 6.9926 0
M  V30 9554 H 868.606 -0.35075 0.698927 0
M  V30 9555 H 871.19 -0.283482 1.92625 0
M  V30 9556 H 869.361 -2.62214 2.86528 0
M  V30 9557 H 871.093 -2.5889 3.1106 0
M  V30 9558 H 867.848 -1.20434 4.58031 0
M  V30 9559 H 868.272 0.242865 6.76564 0
M  V30 9560 H 872.914 -0.952023 4.11942 0
M  V30 9561 H 870.632 1.26256 7.98176 0
M  V30 9562 H 874.218 0.2959 5.81047 0
M  V30 9563 H 873.098 1.3876 7.71826 0
M  V30 9564 N 870.601 -1.47988 -0.541979 0
M  V30 9565 C 871.531 -1.64503 -1.65713 0
M  V30 9566 C 872.512 -0.494116 -1.62765 0
M  V30 9567 O 873.697 -0.725256 -1.80149 0
M  V30 9568 C 870.827 -1.67337 -3.04328 0
M  V30 9569 C 869.781 -2.81809 -3.2213 0
M  V30 9570 C 869.107 -2.69724 -4.61685 0
M  V30 9571 C 870.407 -4.23241 -3.06046 0
M  V30 9572 H 872.101 -2.5786 -1.52147 0
M  V30 9573 H 869.647 -1.24094 -0.730529 0
M  V30 9574 H 871.6 -1.77481 -3.82202 0
M  V30 9575 H 870.324 -0.705514 -3.18889 0
M  V30 9576 H 868.983 -2.71201 -2.46669 0
M  V30 9577 H 868.631 -1.70934 -4.73065 0
M  V30 9578 H 868.331 -3.4653 -4.74543 0
M  V30 9579 H 869.855 -2.81818 -5.41674 0
M  V30 9580 H 871.269 -4.34746 -3.73723 0
M  V30 9581 H 869.666 -5.00952 -3.30405 0
M  V30 9582 H 870.736 -4.40543 -2.02609 0
M  V30 9583 N 872.079 0.78992 -1.36375 0
M  V30 9584 C 873.307 1.57873 -1.3373 0
M  V30 9585 C 873.722 1.88624 0.0815544 0
M  V30 9586 O 873.079 1.50085 1.03831 0
M  V30 9587 C 873.13 2.90003 -2.15825 0
M  V30 9588 O 872.851 2.60578 -3.5218 0
M  V30 9589 C 874.352 3.84309 -2.20955 0
M  V30 9590 H 871.572 0.489685 -0.458748 0
M  V30 9591 H 874.116 0.980436 -1.79465 0
M  V30 9592 H 872.271 3.46303 -1.73646 0
M  V30 9593 H 872.685 3.4506 -3.95011 0
M  V30 9594 H 874.159 4.74081 -2.82756 0
M  V30 9595 H 874.636 4.22121 -1.21287 0
M  V30 9596 H 875.242 3.33942 -2.63368 0
M  V30 9597 N 873.557 1.20646 1.01402 0
M  V30 9598 C 874.504 0.957618 2.09996 0
M  V30 9599 C 875.474 -0.113115 1.65714 0
M  V30 9600 O 876.659 0.032142 1.90773 0
M  V30 9601 C 873.799 0.5186 3.41181 0
M  V30 9602 C 872.912 1.65777 3.98926 0
M  V30 9603 C 872.047 1.16881 5.18182 0
M  V30 9604 C 871.086 2.2809 5.68015 0
M  V30 9605 N 870.223 1.80392 6.7853 0
M  V30 9606 H 875.063 1.88732 2.30617 0
M  V30 9607 H 872.6 0.940703 1.13089 0
M  V30 9608 H 874.558 0.245367 4.16478 0
M  V30 9609 H 873.188 -0.3741 3.20625 0
M  V30 9610 H 872.24 2.04586 3.207 0
M  V30 9611 H 873.552 2.49507 4.31912 0
M  V30 9612 H 872.706 0.851694 6.00692 0
M  V30 9613 H 871.445 0.301434 4.86768 0
M  V30 9614 H 870.45 2.60614 4.84108 0
M  V30 9615 H 871.675 3.15308 6.01463 0
M  V30 9616 H 869.621 0.959856 6.4894 0
M  V30 9617 H 869.538 2.57701 7.10722 0
M  V30 9618 H 870.806 1.51688 7.64598 0
M  V30 9619 N 875.035 -1.20752 1.01276 0
M  V30 9620 C 876.284 -1.8934 0.695229 0
M  V30 9621 C 876.597 -1.79459 -0.77806 0
M  V30 9622 O 877.803 -2.43146 -1.20799 0
M  V30 9623 C 876.259 -3.39548 1.1931 0
M  V30 9624 C 875.867 -3.58023 2.69302 0
M  V30 9625 C 877.611 -4.13714 0.950823 0
M  V30 9626 C 875.518 -5.02037 3.1259 0
M  V30 9627 H 874.448 -0.709084 0.25635 0
M  V30 9628 H 877.099 -1.36629 1.22494 0
M  V30 9629 H 875.481 -3.91559 0.591395 0
M  V30 9630 H 876.655 -3.16416 3.34989 0
M  V30 9631 H 874.97 -2.97222 2.9163 0
M  V30 9632 H 877.567 -5.19891 1.24971 0
M  V30 9633 H 877.91 -4.16147 -0.112791 0
M  V30 9634 H 878.443 -3.67792 1.51571 0
M  V30 9635 H 875.182 -5.04757 4.18211 0
M  V30 9636 H 874.702 -5.44469 2.51621 0
M  V30 9637 H 876.381 -5.70594 3.0501 0
M  V30 9638 N 876.513 -0.788492 -1.36457 0
M  V30 9639 C 877.423 -0.187385 -2.3385 0
M  V30 9640 C 878.439 0.659984 -1.60998 0
M  V30 9641 O 879.615 0.575986 -1.92988 0
M  V30 9642 C 876.68 0.668525 -3.40194 0
M  V30 9643 C 875.741 -0.197234 -4.28847 0
M  V30 9644 C 874.974 0.61792 -5.30111 0
M  V30 9645 O 875.197 1.85396 -5.3943 0
M  V30 9646 O 874.131 0.0183016 -6.01897 0
M  V30 9647 H 877.957 -0.992617 -2.87021 0
M  V30 9648 H 875.542 -0.549934 -1.3891 0
M  V30 9649 H 877.424 1.15663 -4.05216 0
M  V30 9650 H 876.099 1.45166 -2.89324 0
M  V30 9651 H 875.006 -0.73207 -3.66867 0
M  V30 9652 H 876.339 -0.943863 -4.83065 0
M  V30 9653 N 877.991 1.48044 -0.54043 0
M  V30 9654 C 879.237 2.02797 -0.0101718 0
M  V30 9655 C 879.57 1.41565 1.32939 0
M  V30 9656 O 878.845 0.565139 1.86109 0
M  V30 9657 C 879.128 3.59959 0.100758 0
M  V30 9658 C 878.981 4.31654 -1.26471 0
M  V30 9659 C 880.3 4.32347 0.822455 0
M  V30 9660 H 877.419 0.736982 -0.00517052 0
M  V30 9661 H 880.061 1.76656 -0.69948 0
M  V30 9662 H 878.211 3.82363 0.687824 0
M  V30 9663 H 879.883 4.20639 -1.89369 0
M  V30 9664 H 878.126 3.92663 -1.84386 0
M  V30 9665 H 878.797 5.401 -1.13998 0
M  V30 9666 H 881.273 4.14835 0.324164 0
M  V30 9667 H 880.149 5.41978 0.868993 0
M  V30 9668 H 880.41 4.00369 1.87501 0
M  V30 9669 N 879.47 0.276058 1.55163 0
M  V30 9670 C 880.881 -0.221516 1.85381 0
M  V30 9671 C 881.232 -1.55372 1.19808 0
M  V30 9672 O 880.357 -2.10855 0.486742 0
M  V30 9673 C 880.952 -0.408706 3.36326 0
M  V30 9674 C 879.511 -0.850512 3.66665 0
M  V30 9675 C 878.658 0.055656 2.77244 0
M  V30 9676 H 881.609 0.497819 1.5069 0
M  V30 9677 H 881.63 -1.24711 3.59482 0
M  V30 9678 H 881.142 0.561052 3.84023 0
M  V30 9679 H 879.243 -1.83171 3.24468 0
M  V30 9680 H 879.356 -0.687181 4.74146 0
M  V30 9681 H 877.72 -0.460819 2.50497 0
M  V30 9682 H 878.503 1.02131 3.27756 0
M  V30 9683 N 880.948 -1.576 0.00335426 0
M  V30 9684 C 881.895 -2.08632 -0.986975 0
M  V30 9685 C 882.865 -0.982491 -1.33927 0
M  V30 9686 O 884.05 -1.25513 -1.43705 0
M  V30 9687 C 881.19 -2.59705 -2.27261 0
M  V30 9688 C 880.303 -3.84002 -1.97905 0
M  V30 9689 C 879.438 -4.23563 -3.20574 0
M  V30 9690 C 878.477 -5.40688 -2.8692 0
M  V30 9691 N 877.614 -5.75526 -4.02136 0
M  V30 9692 H 882.454 -2.92977 -0.544855 0
M  V30 9693 H 879.991 -1.44831 -0.257376 0
M  V30 9694 H 881.949 -2.87395 -3.02423 0
M  V30 9695 H 880.579 -1.7823 -2.69136 0
M  V30 9696 H 879.631 -3.63199 -1.13096 0
M  V30 9697 H 880.943 -4.69261 -1.69102 0
M  V30 9698 H 880.097 -4.52554 -4.04079 0
M  V30 9699 H 878.836 -3.37019 -3.52518 0
M  V30 9700 H 877.841 -5.11417 -2.01822 0
M  V30 9701 H 879.066 -6.2891 -2.5622 0
M  V30 9702 H 877.012 -4.9194 -4.33971 0
M  V30 9703 H 876.929 -6.55367 -3.76869 0
M  V30 9704 H 878.197 -6.0911 -4.8642 0
M  V30 9705 N 882.426 0.269451 -1.5528 0
M  V30 9706 C 883.654 1.01872 -1.80082 0
M  V30 9707 C 884.069 1.79802 -0.575917 0
M  V30 9708 O 883.426 1.76735 0.455081 0
M  V30 9709 C 883.477 1.9745 -3.02813 0
M  V30 9710 O 883.198 1.22677 -4.20573 0
M  V30 9711 C 884.699 2.8416 -3.40247 0
M  V30 9712 H 881.919 0.300781 -0.59981 0
M  V30 9713 H 884.463 0.29916 -2.023 0
M  V30 9714 H 882.618 2.64864 -2.82712 0
M  V30 9715 H 883.032 1.87129 -4.89982 0
M  V30 9716 H 884.506 3.47014 -4.29284 0
M  V30 9717 H 884.983 3.54113 -2.59809 0
M  V30 9718 H 885.589 2.22232 -3.6262 0
M  V30 9719 N 883.904 1.48273 0.534124 0
M  V30 9720 C 884.814 1.65162 1.66609 0
M  V30 9721 C 885.83 0.534177 1.65598 0
M  V30 9722 O 887.006 0.804715 1.84625 0
M  V30 9723 C 884.071 1.68354 3.03081 0
M  V30 9724 C 883.132 2.91696 3.1498 0
M  V30 9725 C 882.365 2.94725 4.44941 0
M  V30 9726 O 882.588 2.06285 5.31792 0
M  V30 9727 O 881.522 3.8685 4.61119 0
M  V30 9728 H 885.348 2.60991 1.55298 0
M  V30 9729 H 882.933 1.31626 0.706749 0
M  V30 9730 H 884.815 1.72998 3.84252 0
M  V30 9731 H 883.49 0.756978 3.14725 0
M  V30 9732 H 882.397 2.92586 2.33119 0
M  V30 9733 H 883.73 3.83722 3.0825 0
M  V30 9734 N 885.382 -0.782676 1.36792 0
M  V30 9735 C 886.329 -1.89558 1.31667 0
M  V30 9736 C 887.299 -1.65076 0.184147 0
M  V30 9737 O 888.484 -1.87143 0.371753 0
M  V30 9738 C 885.624 -3.26469 1.11858 0
M  V30 9739 C 884.737 -3.62978 2.34245 0
M  V30 9740 C 883.872 -4.89041 2.07394 0
M  V30 9741 C 882.911 -5.18249 3.25706 0
M  V30 9742 N 882.048 -6.35497 2.98476 0
M  V30 9743 H 886.888 -1.93274 2.26824 0
M  V30 9744 H 884.425 -0.945057 1.12726 0
M  V30 9745 H 886.383 -4.05431 0.983968 0
M  V30 9746 H 885.013 -3.22158 0.203531 0
M  V30 9747 H 884.065 -2.79087 2.58485 0
M  V30 9748 H 885.377 -3.80507 3.22514 0
M  V30 9749 H 884.531 -5.75883 1.90901 0
M  V30 9750 H 883.27 -4.73594 1.16446 0
M  V30 9751 H 882.275 -4.29887 3.4275 0
M  V30 9752 H 883.5 -5.35611 4.1749 0
M  V30 9753 H 881.446 -6.21429 2.10146 0
M  V30 9754 H 881.363 -6.5339 3.80286 0
M  V30 9755 H 882.631 -7.25304 2.85577 0
M  V30 9756 N 886.86 -1.21182 -1.00761 0
M  V30 9757 C 888.085 -1.05411 -1.78615 0
M  V30 9758 C 888.51 0.391837 -1.83973 0
M  V30 9759 O 887.868 1.28256 -1.28141 0
M  V30 9760 C 887.916 -1.65285 -3.20489 0
M  V30 9761 O 887.02 -0.896558 -4.02536 0
M  V30 9762 H 886.361 -0.37116 -0.550578 0
M  V30 9763 H 888.891 -1.60669 -1.26676 0
M  V30 9764 H 888.901 -1.69397 -3.71172 0
M  V30 9765 H 887.576 -2.70514 -3.15904 0
M  V30 9766 H 886.153 -0.930335 -3.61108 0
M  V30 9767 N 888.338 1.20213 -1.01915 0
M  V30 9768 C 889.585 1.89647 -0.709955 0
M  V30 9769 C 889.913 1.7901 0.760631 0
M  V30 9770 O 889.168 1.17028 1.56853 0
M  V30 9771 C 889.467 3.40232 -1.09438 0
M  V30 9772 C 889.133 3.7107 -2.5616 0
M  V30 9773 C 887.795 3.79196 -2.96249 0
M  V30 9774 C 890.147 3.85169 -3.51133 0
M  V30 9775 C 887.475 3.98882 -4.30244 0
M  V30 9776 C 889.827 4.06365 -4.8482 0
M  V30 9777 C 888.491 4.12722 -5.24611 0
M  V30 9778 H 887.761 0.693967 -0.259791 0
M  V30 9779 H 890.408 1.42419 -1.2802 0
M  V30 9780 H 888.713 3.89292 -0.442596 0
M  V30 9781 H 890.41 3.92257 -0.832811 0
M  V30 9782 H 887 3.65346 -2.24099 0
M  V30 9783 H 891.184 3.78243 -3.21319 0
M  V30 9784 H 886.44 4.02039 -4.60624 0
M  V30 9785 H 890.614 4.16216 -5.58334 0
M  V30 9786 H 888.241 4.27728 -6.28453 0
M  V30 9787 N 889.816 0.795718 1.36037 0
M  V30 9788 C 890.726 0.199784 2.33748 0
M  V30 9789 C 891.742 -0.651436 1.61345 0
M  V30 9790 O 892.918 -0.565743 1.93291 0
M  V30 9791 C 889.983 -0.650475 3.40543 0
M  V30 9792 C 889.044 0.219974 4.28736 0
M  V30 9793 C 888.277 -0.589798 5.30431 0
M  V30 9794 O 888.5 -1.82532 5.40406 0
M  V30 9795 O 887.434 0.0136187 6.01898 0
M  V30 9796 H 891.26 1.00782 2.8649 0
M  V30 9797 H 888.845 0.557293 1.38617 0
M  V30 9798 H 890.727 -1.13512 4.05824 0
M  V30 9799 H 889.402 -1.4363 2.9009 0
M  V30 9800 H 888.309 0.751516 3.66474 0
M  V30 9801 H 889.642 0.969468 4.82558 0
M  V30 9802 N 891.294 -1.47756 0.548274 0
M  V30 9803 C 892.204 -2.33678 -0.207773 0
M  V30 9804 C 893.22 -1.47636 -0.920843 0
M  V30 9805 O 894.396 -1.80583 -0.89173 0
M  V30 9806 C 891.461 -3.24147 -1.23003 0
M  V30 9807 C 890.522 -4.26073 -0.52535 0
M  V30 9808 C 889.755 -5.12219 -1.4989 0
M  V30 9809 O 889.978 -5.0066 -2.73305 0
M  V30 9810 O 888.912 -5.93051 -1.02828 0
M  V30 9811 H 892.738 -2.99609 0.496794 0
M  V30 9812 H 890.323 -1.4617 0.308982 0
M  V30 9813 H 892.205 -3.80055 -1.82034 0
M  V30 9814 H 890.88 -2.60855 -1.91668 0
M  V30 9815 H 889.787 -3.7395 0.105927 0
M  V30 9816 H 891.12 -4.92054 0.119686 0
M  V30 9817 N 892.772 -0.284283 -1.55015 0
M  V30 9818 C 894.188 0.069603 -1.59448 0
M  V30 9819 C 894.388 1.53833 -1.30144 0
M  V30 9820 O 893.444 2.2886 -1.06674 0
M  V30 9821 C 894.757 -0.313287 -2.99064 0
M  V30 9822 C 896.305 -0.260662 -3.11913 0
M  V30 9823 C 896.78 -0.618127 -4.5381 0
M  V30 9824 N 898.271 -0.570026 -4.59679 0
M  V30 9825 C 899.006 -0.8193 -5.67517 0
M  V30 9826 N 898.502 -1.13367 -6.83462 0
M  V30 9827 N 900.295 -0.747482 -5.57108 0
M  V30 9828 H 892.446 -1.24167 -1.72326 0
M  V30 9829 H 894.709 -0.502259 -0.804015 0
M  V30 9830 H 894.415 -1.33509 -3.25374 0
M  V30 9831 H 894.289 0.341369 -3.75652 0
M  V30 9832 H 896.676 0.751869 -2.85361 0
M  V30 9833 H 896.757 -0.949706 -2.37517 0
M  V30 9834 H 896.401 -1.62839 -4.81088 0
M  V30 9835 H 896.331 0.092807 -5.26518 0
M  V30 9836 H 898.822 -0.3373 -3.76392 0
M  V30 9837 H 899.135 -1.3103 -7.61611 0
M  V30 9838 H 897.48 -1.17154 -6.85055 0
M  V30 9839 H 900.671 -0.501658 -4.65404 0
M  V30 9840 H 900.844 -0.945128 -6.4107 0
M  V30 9841 N 894.251 1.57596 -0.0117121 0
M  V30 9842 C 895.181 2.12188 0.9746 0
M  V30 9843 C 896.162 1.03379 1.35081 0
M  V30 9844 O 897.347 1.31123 1.4325 0
M  V30 9845 C 894.477 2.63477 2.26268 0
M  V30 9846 C 893.431 3.76917 2.02774 0
M  V30 9847 C 892.757 4.14566 3.37697 0
M  V30 9848 C 894.057 5.03715 1.38089 0
M  V30 9849 H 895.751 2.9485 0.520007 0
M  V30 9850 H 893.297 1.41836 0.248685 0
M  V30 9851 H 895.25 3.00299 2.95633 0
M  V30 9852 H 893.974 1.77953 2.73862 0
M  V30 9853 H 892.633 3.40507 1.35832 0
M  V30 9854 H 892.281 3.26048 3.83016 0
M  V30 9855 H 891.981 4.91 3.22789 0
M  V30 9856 H 893.505 4.53956 4.08358 0
M  V30 9857 H 894.919 5.38233 1.97428 0
M  V30 9858 H 893.316 5.85032 1.33634 0
M  V30 9859 H 894.386 4.83624 0.351575 0
M  V30 9860 N 895.729 -0.261212 1.5542 0
M  V30 9861 C 896.978 -0.989072 1.75785 0
M  V30 9862 C 897.291 -1.8702 0.572961 0
M  V30 9863 O 898.497 -2.63374 0.659289 0
M  V30 9864 C 896.953 -1.80857 3.11157 0
M  V30 9865 C 896.561 -0.975535 4.3725 0
M  V30 9866 C 898.305 -2.53003 3.40866 0
M  V30 9867 C 896.212 -1.7901 5.63657 0
M  V30 9868 H 895.142 -0.373019 0.655266 0
M  V30 9869 H 897.793 -0.244267 1.81867 0
M  V30 9870 H 896.175 -2.59479 2.99144 0
M  V30 9871 H 897.349 -0.232661 4.60212 0
M  V30 9872 H 895.664 -0.368083 4.1477 0
M  V30 9873 H 898.261 -3.14372 4.32521 0
M  V30 9874 H 898.604 -3.23891 2.61535 0
M  V30 9875 H 899.137 -1.81403 3.54031 0
M  V30 9876 H 895.876 -1.12522 6.4577 0
M  V30 9877 H 895.396 -2.50863 5.44819 0
M  V30 9878 H 897.075 -2.36082 6.0239 0
M  V30 9879 N 897.207 -1.48554 -0.526253 0
M  V30 9880 C 898.454 -1.56761 -1.28188 0
M  V30 9881 C 898.782 -0.24315 -1.92974 0
M  V30 9882 O 898.037 0.766883 -1.80048 0
M  V30 9883 C 898.336 -2.65739 -2.38993 0
M  V30 9884 C 898.002 -4.08057 -1.91834 0
M  V30 9885 C 896.664 -4.46792 -1.78691 0
M  V30 9886 C 899.016 -4.9723 -1.56242 0
M  V30 9887 C 896.344 -5.72501 -1.28296 0
M  V30 9888 C 898.696 -6.23432 -1.07309 0
M  V30 9889 C 897.36 -6.6102 -0.927853 0
M  V30 9890 H 896.63 -0.573631 -0.469072 0
M  V30 9891 H 899.277 -1.82287 -0.586842 0
M  V30 9892 H 897.582 -2.34088 -3.14181 0
M  V30 9893 H 899.279 -2.69304 -2.97113 0
M  V30 9894 H 895.869 -3.77469 -2.03016 0
M  V30 9895 H 900.053 -4.67979 -1.65255 0
M  V30 9896 H 895.309 -6.00345 -1.15742 0
M  V30 9897 H 899.483 -6.91923 -0.788412 0
M  V30 9898 H 897.11 -7.58314 -0.535162 0
M  V30 9899 N 898.685 0.775411 -1.37205 0
M  V30 9900 C 899.632 1.88857 -1.32671 0
M  V30 9901 C 900.602 1.64976 -0.192899 0
M  V30 9902 O 901.787 1.86944 -0.381673 0
M  V30 9903 C 898.927 3.25871 -1.13588 0
M  V30 9904 C 898.04 3.61731 -2.36167 0
M  V30 9905 C 897.175 4.87934 -2.09985 0
M  V30 9906 C 896.214 5.16514 -3.2845 0
M  V30 9907 N 895.351 6.33905 -3.01842 0
M  V30 9908 H 900.191 1.92068 -2.27846 0
M  V30 9909 H 897.728 0.939066 -1.13225 0
M  V30 9910 H 899.686 4.04903 -1.00546 0
M  V30 9911 H 898.316 3.22045 -0.220613 0
M  V30 9912 H 897.368 2.77712 -2.59962 0
M  V30 9913 H 898.68 3.78792 -3.24528 0
M  V30 9914 H 897.834 5.74863 -1.93953 0
M  V30 9915 H 896.573 4.7297 -1.18956 0
M  V30 9916 H 895.578 4.28063 -3.45025 0
M  V30 9917 H 896.803 5.33389 -4.20325 0
M  V30 9918 H 894.749 6.20306 -2.13439 0
M  V30 9919 H 894.666 6.51364 -3.83746 0
M  V30 9920 H 895.934 7.23779 -2.8942 0
M  V30 9921 N 900.163 1.21714 1.00117 0
M  V30 9922 C 901.126 0.981338 2.07129 0
M  V30 9923 C 902.126 -0.0491116 1.60725 0
M  V30 9924 O 903.316 0.188555 1.73177 0
M  V30 9925 C 900.448 0.480608 3.37495 0
M  V30 9926 H 901.641 1.93075 2.29482 0
M  V30 9927 H 899.194 1.03467 1.17151 0
M  V30 9928 H 899.929 -0.473552 3.20824 0
M  V30 9929 H 899.714 1.22393 3.72508 0
M  V30 9930 H 901.204 0.33561 4.16249 0
M  V30 9931 N 901.641 -1.19671 1.02551 0
M  V30 9932 C 902.888 -1.89268 0.720002 0
M  V30 9933 C 903.216 -1.79411 -0.751127 0
M  V30 9934 O 902.471 -1.17859 -1.5623 0
M  V30 9935 C 902.77 -3.39647 1.11241 0
M  V30 9936 C 902.436 -3.69706 2.58125 0
M  V30 9937 C 901.098 -3.7762 2.98256 0
M  V30 9938 C 903.45 -3.83301 3.53171 0
M  V30 9939 C 900.778 -3.96594 4.32354 0
M  V30 9940 C 903.13 -4.03788 4.86968 0
M  V30 9941 C 901.794 -4.09934 5.26793 0
M  V30 9942 H 901.064 -0.692579 0.263467 0
M  V30 9943 H 903.711 -1.41738 1.28774 0
M  V30 9944 H 902.016 -3.89052 0.463234 0
M  V30 9945 H 903.713 -3.91809 0.853602 0
M  V30 9946 H 900.303 -3.64152 2.26033 0
M  V30 9947 H 904.487 -3.76534 3.2332 0
M  V30 9948 H 899.743 -3.9959 4.6275 0
M  V30 9949 H 903.917 -4.1325 5.60533 0
M  V30 9950 H 901.544 -4.24389 6.30712 0
M  V30 9951 N 903.119 -0.802921 -1.35613 0
M  V30 9952 C 904.049 -0.225131 -2.32412 0
M  V30 9953 C 905.03 0.647383 -1.57299 0
M  V30 9954 O 906.215 0.578414 -1.85386 0
M  V30 9955 C 903.345 0.630085 -3.41537 0
M  V30 9956 C 902.299 -0.143635 -4.27759 0
M  V30 9957 C 901.625 0.833046 -5.28171 0
M  V30 9958 C 902.925 -1.34054 -5.04804 0
M  V30 9959 H 904.619 -1.03385 -2.80984 0
M  V30 9960 H 902.165 -0.498593 -1.35093 0
M  V30 9961 H 904.118 1.04433 -4.08254 0
M  V30 9962 H 902.842 1.47165 -2.91565 0
M  V30 9963 H 901.501 -0.539015 -3.62616 0
M  V30 9964 H 901.149 1.67001 -4.74468 0
M  V30 9965 H 900.849 0.319697 -5.8673 0
M  V30 9966 H 902.373 1.24558 -5.97761 0
M  V30 9967 H 903.787 -1.00136 -5.64487 0
M  V30 9968 H 902.184 -1.78812 -5.72841 0
M  V30 9969 H 903.254 -2.12906 -4.35659 0
M  V30 9970 N 904.597 1.47463 -0.556102 0
M  V30 9971 C 905.527 2.32801 0.180497 0
M  V30 9972 C 906.508 1.43721 0.909848 0
M  V30 9973 O 907.693 1.72578 0.89053 0
M  V30 9974 C 904.823 3.25478 1.21167 0
M  V30 9975 C 903.777 4.2379 0.598846 0
M  V30 9976 C 903.103 5.05783 1.73457 0
M  V30 9977 C 904.403 5.20387 -0.446659 0
M  V30 9978 H 906.097 2.94636 -0.531956 0
M  V30 9979 H 903.643 1.41683 -0.257267 0
M  V30 9980 H 905.596 3.8402 1.73513 0
M  V30 9981 H 904.32 2.61695 1.95405 0
M  V30 9982 H 902.979 3.66472 0.0966897 0
M  V30 9983 H 902.627 4.38405 2.46596 0
M  V30 9984 H 902.327 5.72343 1.33031 0
M  V30 9985 H 903.851 5.67183 2.26131 0
M  V30 9986 H 905.265 5.73299 -0.00930019 0
M  V30 9987 H 903.662 5.95143 -0.769735 0
M  V30 9988 H 904.732 4.65932 -1.34295 0
M  V30 9989 N 906.075 0.2925 1.54862 0
M  V30 9990 C 907.022 -0.587365 2.23201 0
M  V30 9991 C 907.992 -1.13623 1.21157 0
M  V30 9992 O 909.177 -1.18233 1.49752 0
M  V30 9993 C 906.317 -1.75745 2.96998 0
M  V30 9994 C 905.43 -1.24078 4.13798 0
M  V30 9995 C 904.565 -2.37405 4.75197 0
M  V30 9996 C 903.604 -1.82829 5.84157 0
M  V30 9997 N 902.741 -2.89696 6.39547 0
M  V30 9998 H 907.581 0.00202207 2.98 0
M  V30 9999 H 905.118 0.012766 1.47094 0
M  V30 10000 H 907.076 -2.44549 3.38011 0
M  V30 10001 H 905.706 -2.3186 2.24591 0
M  V30 10002 H 904.758 -0.445268 3.77785 0
M  V30 10003 H 906.07 -0.801186 4.92324 0
M  V30 10004 H 905.224 -3.14172 5.19019 0
M  V30 10005 H 903.963 -2.84688 3.95985 0
M  V30 10006 H 902.968 -1.04548 5.39768 0
M  V30 10007 H 904.193 -1.36461 6.65248 0
M  V30 10008 H 902.139 -3.36328 5.63222 0
M  V30 10009 H 902.056 -2.50206 7.13395 0
M  V30 10010 H 903.324 -3.66386 6.88027 0
M  V30 10011 N 907.553 -1.57587 0.0200696 0
M  V30 10012 C 908.8 -1.91424 -0.660525 0
M  V30 10013 C 909.128 -0.895626 -1.72652 0
M  V30 10014 O 908.383 0.096771 -1.95461 0
M  V30 10015 C 908.682 -3.32002 -1.32323 0
M  V30 10016 C 908.348 -4.49223 -0.388487 0
M  V30 10017 C 907.01 -4.81021 -0.131184 0
M  V30 10018 C 909.362 -5.20581 0.253906 0
M  V30 10019 C 906.69 -5.81539 0.776471 0
M  V30 10020 C 909.042 -6.22067 1.14956 0
M  V30 10021 C 907.706 -6.52311 1.41584 0
M  V30 10022 H 906.976 -0.700472 -0.241703 0
M  V30 10023 H 909.623 -1.91333 0.0798991 0
M  V30 10024 H 907.928 -3.28312 -2.13819 0
M  V30 10025 H 909.625 -3.5545 -1.85623 0
M  V30 10026 H 906.215 -4.24391 -0.599207 0
M  V30 10027 H 910.399 -4.96253 0.068164 0
M  V30 10028 H 905.655 -6.03322 0.990575 0
M  V30 10029 H 909.829 -6.76484 1.65357 0
M  V30 10030 H 907.456 -7.30017 2.12083 0
M  V30 10031 N 909.032 0.252966 -1.55557 0
M  V30 10032 C 910.278 0.983306 -1.77367 0
M  V30 10033 C 910.611 1.85203 -0.584258 0
M  V30 10034 O 909.886 1.89963 0.417644 0
M  V30 10035 C 910.169 1.84896 -3.09007 0
M  V30 10036 C 910.022 1.00883 -4.38341 0
M  V30 10037 C 911.341 2.83254 -3.36831 0
M  V30 10038 H 908.46 0.356056 -0.645286 0
M  V30 10039 H 911.102 0.254232 -1.88291 0
M  V30 10040 H 909.252 2.47058 -2.99825 0
M  V30 10041 H 910.924 0.40638 -4.59507 0
M  V30 10042 H 909.167 0.31297 -4.3267 0
M  V30 10043 H 909.838 1.64818 -5.2682 0
M  V30 10044 H 912.314 2.31228 -3.45937 0
M  V30 10045 H 911.19 3.40949 -4.30169 0
M  V30 10046 H 911.451 3.59407 -2.57447 0
M  V30 10047 N 910.51 1.48831 0.518367 0
M  V30 10048 C 911.458 1.64678 1.64268 0
M  V30 10049 C 912.452 0.512967 1.61447 0
M  V30 10050 O 913.658 0.692063 1.66164 0
M  V30 10051 H 910.033 0.518964 0.544224 0
M  V30 10052 H 912.004 2.59083 1.4805 0
M  V30 10053 C 910.753 1.71449 3.0249 0
M  V30 10054 H 910.076 2.58061 3.0536 0
M  V30 10055 H 911.516 1.86577 3.80743 0
M  V30 10056 C 909.975 0.455584 3.33805 0
M  V30 10057 O 910.505 -0.426428 3.9943 0
M  V30 10058 N 908.711 0.323763 2.88791 0
M  V30 10059 H 908.258 1.04249 2.35563 0
M  V30 10060 H 908.216 -0.517514 3.10112 0
M  V30 10061 N 911.988 -0.768124 1.37614 0
M  V30 10062 C 913.213 -1.56239 1.36397 0
M  V30 10063 C 913.638 -1.8804 -0.0475839 0
M  V30 10064 O 912.996 -1.495 -1.02564 0
M  V30 10065 C 913.044 -2.84716 2.21289 0
M  V30 10066 O 912.148 -3.79249 1.62001 0
M  V30 10067 H 911.489 -0.473119 0.465891 0
M  V30 10068 H 914.019 -0.950415 1.81186 0
M  V30 10069 H 914.029 -3.33784 2.34632 0
M  V30 10070 H 912.704 -2.60899 3.2389 0
M  V30 10071 H 911.281 -3.37904 1.57719 0
M  V30 10072 N 913.466 -1.22244 -0.994698 0
M  V30 10073 C 914.696 -1.07062 -1.76695 0
M  V30 10074 C 915.104 0.381895 -1.85306 0
M  V30 10075 O 914.447 1.27648 -1.32105 0
M  V30 10076 C 914.509 -1.60487 -3.2169 0
M  V30 10077 C 914.173 -3.09079 -3.36629 0
M  V30 10078 C 915.17 -4.06526 -3.24088 0
M  V30 10079 C 912.855 -3.48497 -3.61739 0
M  V30 10080 C 914.849 -5.41377 -3.36437 0
M  V30 10081 C 912.536 -4.83498 -3.73729 0
M  V30 10082 C 913.534 -5.79747 -3.61086 0
M  V30 10083 O 913.222 -7.12297 -3.72678 0
M  V30 10084 H 912.954 -0.375963 -0.561807 0
M  V30 10085 H 915.508 -1.62259 -1.25941 0
M  V30 10086 H 913.738 -0.996957 -3.73628 0
M  V30 10087 H 915.427 -1.40994 -3.80625 0
M  V30 10088 H 916.193 -3.77415 -3.04602 0
M  V30 10089 H 912.072 -2.74106 -3.70657 0
M  V30 10090 H 915.616 -6.16485 -3.26485 0
M  V30 10091 H 911.513 -5.1229 -3.92721 0
M  V30 10092 H 912.281 -7.1985 -3.89562 0
M  V30 10093 N 914.944 1.19125 -1.03184 0
M  V30 10094 C 916.172 1.92838 -0.74975 0
M  V30 10095 C 916.587 1.75667 0.691851 0
M  V30 10096 O 915.944 1.0805 1.47076 0
M  V30 10097 C 915.995 3.44509 -1.09525 0
M  V30 10098 O 915.716 3.6113 -2.48025 0
M  V30 10099 C 917.217 4.35338 -0.836397 0
M  V30 10100 H 914.437 0.61246 -0.274105 0
M  V30 10101 H 916.981 1.5118 -1.37712 0
M  V30 10102 H 915.136 3.83988 -0.513006 0
M  V30 10103 H 915.55 4.54959 -2.60984 0
M  V30 10104 H 917.024 5.4035 -1.12808 0
M  V30 10105 H 917.501 4.38602 0.229102 0
M  V30 10106 H 918.107 4.01544 -1.40152 0
M  V30 10107 N 916.422 0.810101 1.35185 0
M  V30 10108 C 917.833 0.452616 1.81131 0
M  V30 10109 C 918.184 -1.02573 1.67252 0
M  V30 10110 O 917.309 -1.79735 1.20516 0
M  V30 10111 C 917.904 0.814775 3.28857 0
M  V30 10112 C 916.463 0.509839 3.72931 0
M  V30 10113 C 915.61 1.03852 2.57119 0
M  V30 10114 H 918.561 1.00143 1.23114 0
M  V30 10115 H 918.582 0.113635 3.8033 0
M  V30 10116 H 918.094 1.89078 3.38926 0
M  V30 10117 H 916.195 -0.557289 3.68409 0
M  V30 10118 H 916.308 1.04493 4.67566 0
M  V30 10119 H 914.672 0.460671 2.50499 0
M  V30 10120 H 915.455 2.12071 2.69964 0
M  V30 10121 N 917.9 -1.47166 0.563914 0
M  V30 10122 C 919.149 -2.0166 0.0401871 0
M  V30 10123 C 919.462 -1.44303 -1.32046 0
M  V30 10124 O 920.668 -1.905 -1.93448 0
M  V30 10125 C 919.124 -3.59894 0.0213257 0
M  V30 10126 C 918.732 -4.26244 1.37914 0
M  V30 10127 C 920.476 -4.22114 -0.449442 0
M  V30 10128 C 918.383 -5.76503 1.31902 0
M  V30 10129 H 917.313 -0.753916 0.0112534 0
M  V30 10130 H 919.964 -1.69091 0.712766 0
M  V30 10131 H 918.346 -3.89454 -0.717038 0
M  V30 10132 H 919.52 -4.08317 2.13574 0
M  V30 10133 H 917.835 -3.76039 1.78839 0
M  V30 10134 H 920.432 -5.32234 -0.51292 0
M  V30 10135 H 920.775 -3.89749 -1.46291 0
M  V30 10136 H 921.308 -3.9711 0.23427 0
M  V30 10137 H 918.047 -6.13498 2.3087 0
M  V30 10138 H 917.567 -5.96748 0.604324 0
M  V30 10139 H 919.246 -6.38846 1.02392 0
M  V30 10140 N 919.378 -0.300708 -1.54705 0
M  V30 10141 C 920.625 0.308654 -2.00134 0
M  V30 10142 C 920.953 1.53918 -1.1891 0
M  V30 10143 O 920.208 1.94054 -0.253263 0
M  V30 10144 C 920.507 0.710108 -3.50275 0
M  V30 10145 C 920.173 -0.418651 -4.48952 0
M  V30 10146 C 918.835 -0.728524 -4.75653 0
M  V30 10147 C 921.187 -1.17797 -5.07714 0
M  V30 10148 C 918.515 -1.80085 -5.58378 0
M  V30 10149 C 920.867 -2.24022 -5.91606 0
M  V30 10150 C 919.531 -2.55616 -6.16617 0
M  V30 10151 H 918.801 0.112945 -0.732342 0
M  V30 10152 H 921.448 -0.419744 -1.86843 0
M  V30 10153 H 919.753 1.51859 -3.61173 0
M  V30 10154 H 921.45 1.19277 -3.8285 0
M  V30 10155 H 918.04 -0.167034 -4.28274 0
M  V30 10156 H 922.224 -0.951835 -4.87087 0
M  V30 10157 H 917.48 -2.05036 -5.75995 0
M  V30 10158 H 921.654 -2.83317 -6.36164 0
M  V30 10159 H 919.281 -3.38839 -6.80509 0
M  V30 10160 N 920.856 1.57574 -0.0284266 0
M  V30 10161 C 922.086 1.95787 0.659617 0
M  V30 10162 C 922.494 0.903475 1.66235 0
M  V30 10163 O 921.837 -0.12329 1.83286 0
M  V30 10164 C 921.899 3.30139 1.42298 0
M  V30 10165 C 921.563 4.53322 0.578658 0
M  V30 10166 C 922.56 5.19696 -0.145751 0
M  V30 10167 C 920.245 4.9964 0.516264 0
M  V30 10168 C 922.239 6.30708 -0.921235 0
M  V30 10169 C 919.926 6.10534 -0.262925 0
M  V30 10170 C 920.924 6.75927 -0.980382 0
M  V30 10171 O 920.612 7.84692 -1.7468 0
M  V30 10172 H 920.344 0.649681 0.186792 0
M  V30 10173 H 922.898 2.05227 -0.0842687 0
M  V30 10174 H 921.128 3.17188 2.21199 0
M  V30 10175 H 922.817 3.53259 1.99906 0
M  V30 10176 H 923.583 4.84882 -0.106876 0
M  V30 10177 H 919.462 4.48547 1.06427 0
M  V30 10178 H 923.006 6.81682 -1.48176 0
M  V30 10179 H 918.903 6.44786 -0.303519 0
M  V30 10180 H 919.671 8.01355 -1.6665 0
M  V30 10181 N 922.334 -0.244713 1.55689 0
M  V30 10182 C 923.58 -0.973886 1.77886 0
M  V30 10183 C 923.913 -1.8489 0.594071 0
M  V30 10184 O 923.188 -1.90182 -0.407564 0
M  V30 10185 C 923.471 -1.83255 3.09983 0
M  V30 10186 C 923.324 -0.985571 4.3887 0
M  V30 10187 C 924.643 -2.81464 3.38329 0
M  V30 10188 H 921.762 -0.352629 0.647165 0
M  V30 10189 H 924.404 -0.244243 1.88424 0
M  V30 10190 H 922.554 -2.45464 3.01131 0
M  V30 10191 H 924.226 -0.382005 4.59716 0
M  V30 10192 H 922.469 -0.29002 4.32829 0
M  V30 10193 H 923.14 -1.62022 5.27686 0
M  V30 10194 H 925.616 -2.2939 3.47159 0
M  V30 10195 H 924.492 -3.38663 4.31971 0
M  V30 10196 H 924.753 -3.58037 2.59349 0
M  V30 10197 N 923.813 -1.49104 -0.510467 0
M  V30 10198 C 924.776 -1.64569 -1.59529 0
M  V30 10199 C 925.776 -0.517937 -1.5223 0
M  V30 10200 O 926.966 -0.784183 -1.55551 0
M  V30 10201 C 924.098 -1.6342 -2.99177 0
M  V30 10202 H 925.291 -2.61318 -1.4715 0
M  V30 10203 H 922.844 -1.37993 -0.734001 0
M  V30 10204 H 923.579 -0.68221 -3.17043 0
M  V30 10205 H 923.364 -2.45312 -3.05883 0
M  V30 10206 H 924.854 -1.77474 -3.78011 0
M  V30 10207 N 925.291 0.760815 -1.38019 0
M  V30 10208 C 926.538 1.51973 -1.3383 0
M  V30 10209 C 926.866 1.9436 0.0738855 0
M  V30 10210 O 926.121 1.65181 1.04946 0
M  V30 10211 C 926.42 2.79024 -2.23339 0
M  V30 10212 C 926.086 2.55636 -3.71431 0
M  V30 10213 C 924.748 2.48966 -4.11788 0
M  V30 10214 C 927.1 2.35018 -4.65205 0
M  V30 10215 C 924.428 2.19684 -5.44018 0
M  V30 10216 C 926.78 2.07258 -5.97685 0
M  V30 10217 C 925.444 1.9904 -6.37134 0
M  V30 10218 H 924.714 0.556108 -0.489719 0
M  V30 10219 H 927.361 0.87545 -1.70318 0
M  V30 10220 H 925.666 3.48065 -1.79883 0
M  V30 10221 H 927.363 3.36951 -2.17405 0
M  V30 10222 H 923.953 2.61695 -3.39432 0
M  V30 10223 H 928.137 2.39154 -4.34878 0
M  V30 10224 H 923.393 2.11825 -5.73533 0
M  V30 10225 H 927.567 1.90307 -6.69893 0
M  V30 10226 H 925.194 1.76115 -7.39519 0
M  V30 10227 N 926.769 1.22769 0.988202 0
M  V30 10228 C 928.016 1.05509 1.72841 0
M  V30 10229 C 928.344 -0.409145 1.90148 0
M  V30 10230 O 927.599 -1.3195 1.44526 0
M  V30 10231 C 927.898 1.71679 3.13466 0
M  V30 10232 C 927.564 3.21584 3.16061 0
M  V30 10233 C 926.226 3.62486 3.16476 0
M  V30 10234 C 928.578 4.17511 3.11984 0
M  V30 10235 C 925.906 4.97789 3.10521 0
M  V30 10236 C 928.258 5.52796 3.0757 0
M  V30 10237 C 926.922 5.93072 3.06304 0
M  V30 10238 H 926.192 0.386085 0.632471 0
M  V30 10239 H 928.839 1.52596 1.157 0
M  V30 10240 H 927.144 1.1693 3.73945 0
M  V30 10241 H 928.841 1.55809 3.69492 0
M  V30 10242 H 925.431 2.89019 3.1649 0
M  V30 10243 H 929.615 3.86926 3.10809 0
M  V30 10244 H 924.871 5.28218 3.07888 0
M  V30 10245 H 929.045 6.26848 3.03372 0
M  V30 10246 H 926.672 6.97879 3.01444 0
M  V30 10247 N 928.247 -1.18576 1.03814 0
M  V30 10248 C 929.194 -2.2212 0.626988 0
M  V30 10249 C 930.164 -1.62064 -0.363912 0
M  V30 10250 O 931.349 -1.89041 -0.258469 0
M  V30 10251 C 928.489 -3.45099 -0.00650133 0
M  V30 10252 C 927.602 -4.19503 1.03156 0
M  V30 10253 C 926.737 -5.29932 0.366852 0
M  V30 10254 C 925.776 -5.96104 1.39018 0
M  V30 10255 N 924.913 -6.98076 0.750625 0
M  V30 10256 H 929.753 -2.56646 1.51449 0
M  V30 10257 H 927.29 -1.26084 0.757702 0
M  V30 10258 H 929.248 -4.15363 -0.391108 0
M  V30 10259 H 927.878 -3.11201 -0.857536 0
M  V30 10260 H 926.93 -3.48092 1.53414 0
M  V30 10261 H 928.242 -4.64843 1.80893 0
M  V30 10262 H 927.396 -6.06657 -0.0720979 0
M  V30 10263 H 926.135 -4.85687 -0.442631 0
M  V30 10264 H 925.14 -5.18122 1.8393 0
M  V30 10265 H 926.365 -6.42432 2.20132 0
M  V30 10266 H 924.311 -6.55989 -0.0385981 0
M  V30 10267 H 924.228 -7.41655 1.46574 0
M  V30 10268 H 925.496 -7.78776 0.335986 0
M  V30 10269 N 929.725 -0.817259 -1.34754 0
M  V30 10270 C 930.973 -0.401852 -1.98065 0
M  V30 10271 C 931.294 1.03718 -1.65129 0
M  V30 10272 O 930.564 1.71921 -0.939141 0
M  V30 10273 H 929.144 -0.145603 -0.732672 0
M  V30 10274 H 931.806 -1.04545 -1.64488 0
M  V30 10275 H 930.902 -0.516241 -3.07801 0
M  V30 10276 N 931.203 1.46865 -0.571711 0
M  V30 10277 C 932.619 1.57897 -0.23255 0
M  V30 10278 C 932.819 1.56836 1.26509 0
M  V30 10279 O 931.875 1.47947 2.04617 0
M  V30 10280 C 933.188 2.87778 -0.872036 0
M  V30 10281 C 934.736 3.01389 -0.844605 0
M  V30 10282 C 935.211 4.33991 -1.46343 0
M  V30 10283 N 936.702 4.40662 -1.42727 0
M  V30 10284 C 937.437 5.41858 -1.87557 0
M  V30 10285 N 936.933 6.49787 -2.4031 0
M  V30 10286 N 938.726 5.32992 -1.7854 0
M  V30 10287 H 930.877 1.45798 -1.54457 0
M  V30 10288 H 933.14 0.694785 -0.644964 0
M  V30 10289 H 932.846 2.94332 -1.92513 0
M  V30 10290 H 932.72 3.75345 -0.373677 0
M  V30 10291 H 935.107 2.94423 0.19984 0
M  V30 10292 H 935.188 2.15327 -1.38087 0
M  V30 10293 H 934.832 4.41714 -2.50701 0
M  V30 10294 H 934.762 5.18809 -0.902479 0
M  V30 10295 H 937.253 3.63263 -1.04155 0
M  V30 10296 H 937.566 7.23199 -2.72403 0
M  V30 10297 H 935.911 6.50637 -2.44329 0
M  V30 10298 H 939.102 4.47575 -1.37093 0
M  V30 10299 H 939.275 6.11716 -2.13794 0
M  V30 10300 N 932.681 0.308908 1.54543 0
M  V30 10301 C 933.928 -0.298036 2.00295 0
M  V30 10302 C 934.256 -1.53285 1.19724 0
M  V30 10303 O 933.511 -1.93917 0.263551 0
M  V30 10304 C 933.81 -0.691522 3.50646 0
M  V30 10305 C 933.476 0.442454 4.48724 0
M  V30 10306 C 932.138 0.753739 4.7526 0
M  V30 10307 C 934.49 1.20488 5.07082 0
M  V30 10308 C 931.818 1.83044 5.57415 0
M  V30 10309 C 934.17 2.27156 5.90409 0
M  V30 10310 C 932.834 2.58882 6.15253 0
M  V30 10311 H 932.104 -0.109059 0.73293 0
M  V30 10312 H 934.751 0.429647 1.86618 0
M  V30 10313 H 933.056 -1.49941 3.61974 0
M  V30 10314 H 934.753 -1.17244 3.83477 0
M  V30 10315 H 931.343 0.189744 4.2818 0
M  V30 10316 H 935.527 0.977653 4.86575 0
M  V30 10317 H 930.783 2.08088 5.749 0
M  V30 10318 H 934.957 2.86687 6.34652 0
M  V30 10319 H 932.584 3.42443 6.78702 0
M  V30 10320 N 934.159 -1.57557 0.0367827 0
M  V30 10321 C 935.405 -1.92399 -0.641133 0
M  V30 10322 C 935.738 -0.914191 -1.71336 0
M  V30 10323 O 935.013 0.0619616 -1.94401 0
M  V30 10324 C 935.296 -3.37689 -1.25052 0
M  V30 10325 C 935.149 -4.4941 -0.187326 0
M  V30 10326 C 936.468 -3.8309 -2.16634 0
M  V30 10327 H 933.587 -0.699666 -0.231597 0
M  V30 10328 H 936.229 -1.89759 0.0956083 0
M  V30 10329 H 934.379 -3.40069 -1.87843 0
M  V30 10330 H 936.051 -4.59161 0.443736 0
M  V30 10331 H 934.294 -4.31065 0.486313 0
M  V30 10332 H 934.965 -5.48119 -0.653459 0
M  V30 10333 H 937.441 -3.82494 -1.63821 0
M  V30 10334 H 936.317 -4.85429 -2.56222 0
M  V30 10335 H 936.578 -3.19028 -3.06062 0
M  V30 10336 N 935.637 0.236453 -1.55816 0
M  V30 10337 C 936.885 0.96111 -1.77784 0
M  V30 10338 C 937.206 1.85454 -0.602648 0
M  V30 10339 O 936.476 1.92157 0.381137 0
M  V30 10340 H 935.056 0.35787 -0.655697 0
M  V30 10341 H 937.718 0.251888 -1.93265 0
M  V30 10342 H 936.814 1.5767 -2.69345 0
M  V30 10343 N 937.115 1.49373 0.502552 0
M  V30 10344 C 938.531 1.36101 0.833591 0
M  V30 10345 C 938.731 0.392911 1.97632 0
M  V30 10346 O 937.787 -0.175975 2.51886 0
M  V30 10347 C 939.1 2.76782 1.17526 0
M  V30 10348 C 940.648 2.85471 1.28356 0
M  V30 10349 C 941.123 4.26915 1.65853 0
M  V30 10350 N 942.614 4.29719 1.72905 0
M  V30 10351 C 943.349 5.36127 2.0336 0
M  V30 10352 N 942.845 6.52782 2.32049 0
M  V30 10353 N 944.638 5.23542 2.04598 0
M  V30 10354 H 936.789 2.10912 -0.251008 0
M  V30 10355 H 939.052 0.946696 -0.0497037 0
M  V30 10356 H 938.758 3.49314 0.408965 0
M  V30 10357 H 938.632 3.1205 2.11907 0
M  V30 10358 H 941.019 2.13177 2.04058 0
M  V30 10359 H 941.1 2.53787 0.320304 0
M  V30 10360 H 940.744 4.99735 0.907022 0
M  V30 10361 H 940.674 4.56063 2.63276 0
M  V30 10362 H 943.165 3.45586 1.529 0
M  V30 10363 H 943.478 7.29701 2.54471 0
M  V30 10364 H 941.823 6.56011 2.29509 0
M  V30 10365 H 945.014 4.31413 1.8166 0
M  V30 10366 H 945.187 6.06565 2.27998 0
M  V30 10367 N 938.594 -0.753485 1.38421 0
M  V30 10368 C 940.005 -1.33081 1.30944 0
M  V30 10369 C 940.356 -1.96169 -0.0347124 0
M  V30 10370 O 939.481 -1.95073 -0.936768 0
M  V30 10371 C 940.076 -2.41973 2.37138 0
M  V30 10372 C 938.635 -2.95426 2.33239 0
M  V30 10373 C 937.782 -1.68808 2.19998 0
M  V30 10374 H 940.733 -0.552354 1.48777 0
M  V30 10375 H 940.754 -3.21913 2.02859 0
M  V30 10376 H 940.266 -1.96027 3.34956 0
M  V30 10377 H 938.367 -3.45701 1.39003 0
M  V30 10378 H 938.48 -3.49798 3.27381 0
M  V30 10379 H 936.844 -1.92438 1.66852 0
M  V30 10380 H 937.627 -1.24939 3.19758 0
M  V30 10381 N 940.072 -1.23292 -0.981677 0
M  V30 10382 C 941.32 -1.06214 -1.71939 0
M  V30 10383 C 941.641 0.401989 -1.90812 0
M  V30 10384 O 940.911 1.28825 -1.47584 0
M  V30 10385 H 939.491 -0.390042 -0.637084 0
M  V30 10386 H 942.153 -1.54988 -1.18173 0
M  V30 10387 H 941.249 -1.54904 -2.70945 0
M  V30 10388 N 941.55 1.18024 -1.04442 0
M  V30 10389 C 942.827 1.8398 -0.664125 0
M  V30 10390 C 943.207 1.92961 0.856116 0
M  V30 10391 O 942.555 1.45839 1.75907 0
M  V30 10392 C 942.765 3.22069 -1.34433 0
M  V30 10393 C 944.113 3.98063 -1.47754 0
M  V30 10394 O 945.137 3.31523 -1.30274 0
M  V30 10395 O 943.996 5.17291 -1.76272 0
M  V30 10396 H 941.09 0.793543 -0.23285 0
M  V30 10397 H 943.636 1.25385 -1.14354 0
M  V30 10398 H 942.408 3.10458 -2.38184 0
M  V30 10399 H 942.031 3.88325 -0.853782 0
M  V30 10400 N 943.028 0.824394 1.34319 0
M  V30 10401 C 944.258 0.425576 2.02169 0
M  V30 10402 C 944.666 -0.973596 1.62227 0
M  V30 10403 O 944.009 -1.64173 0.824199 0
M  V30 10404 C 944.071 0.449902 3.56674 0
M  V30 10405 C 943.735 1.80266 4.19944 0
M  V30 10406 C 944.732 2.76373 4.40357 0
M  V30 10407 C 942.417 2.09155 4.56683 0
M  V30 10408 C 944.411 3.9954 4.96635 0
M  V30 10409 C 942.098 3.32581 5.12672 0
M  V30 10410 C 943.096 4.27591 5.32592 0
M  V30 10411 O 942.784 5.48837 5.87395 0
M  V30 10412 H 942.516 0.168866 0.654569 0
M  V30 10413 H 945.07 1.11441 1.7254 0
M  V30 10414 H 943.3 -0.295631 3.85568 0
M  V30 10415 H 944.989 0.0709302 4.05838 0
M  V30 10416 H 945.755 2.55351 4.12336 0
M  V30 10417 H 941.634 1.36004 4.40481 0
M  V30 10418 H 945.178 4.73709 5.12099 0
M  V30 10419 H 941.075 3.53466 5.40122 0
M  V30 10420 H 941.843 5.50377 6.05828 0
M  V30 10421 N 944.506 -1.46559 0.579492 0
M  V30 10422 C 945.752 -2.02699 0.0639363 0
M  V30 10423 C 946.085 -1.4504 -1.29139 0
M  V30 10424 O 945.36 -0.614284 -1.84545 0
M  V30 10425 C 945.643 -3.601 -0.00528618 0
M  V30 10426 C 945.496 -4.28149 1.37871 0
M  V30 10427 C 946.815 -4.34375 -0.707537 0
M  V30 10428 H 943.934 -0.736586 0.0247085 0
M  V30 10429 H 946.576 -1.74739 0.746071 0
M  V30 10430 H 944.726 -3.84052 -0.586206 0
M  V30 10431 H 946.398 -4.1547 2.00455 0
M  V30 10432 H 944.641 -3.87636 1.94732 0
M  V30 10433 H 945.312 -5.36888 1.28278 0
M  V30 10434 H 947.788 -4.15549 -0.214064 0
M  V30 10435 H 946.664 -5.44091 -0.724992 0
M  V30 10436 H 946.925 -4.052 -1.7682 0
M  V30 10437 N 945.984 -0.3171 -1.54377 0
M  V30 10438 C 947.214 0.289138 -2.04567 0
M  V30 10439 C 947.622 1.46833 -1.19318 0
M  V30 10440 O 946.965 1.82436 -0.215141 0
M  V30 10441 C 947.027 0.792994 -3.50645 0
M  V30 10442 C 946.691 -0.263033 -4.56242 0
M  V30 10443 C 947.688 -1.09694 -5.08196 0
M  V30 10444 C 945.373 -0.409364 -5.00629 0
M  V30 10445 C 947.367 -2.06297 -6.03092 0
M  V30 10446 C 945.054 -1.37882 -5.95342 0
M  V30 10447 C 946.052 -2.20409 -6.46459 0
M  V30 10448 O 945.74 -3.15708 -7.39313 0
M  V30 10449 H 945.472 0.0644005 -0.672925 0
M  V30 10450 H 948.026 -0.459438 -2.00196 0
M  V30 10451 H 946.256 1.59237 -3.52392 0
M  V30 10452 H 947.945 1.31687 -3.83944 0
M  V30 10453 H 948.711 -0.994842 -4.74687 0
M  V30 10454 H 944.59 0.223091 -4.6046 0
M  V30 10455 H 948.134 -2.70751 -6.42915 0
M  V30 10456 H 944.031 -1.48158 -6.28267 0
M  V30 10457 H 944.799 -3.10873 -7.57166 0
M  V30 10458 N 947.462 1.57535 -0.0451378 0
M  V30 10459 C 948.711 1.91628 0.629415 0
M  V30 10460 C 949.024 0.924754 1.72359 0
M  V30 10461 O 950.23 1.15751 2.45589 0
M  V30 10462 C 948.686 3.40322 1.17084 0
M  V30 10463 C 948.294 4.47867 0.109101 0
M  V30 10464 C 950.038 3.83458 1.82099 0
M  V30 10465 C 947.945 5.87671 0.663072 0
M  V30 10466 H 946.875 0.715163 0.238868 0
M  V30 10467 H 949.526 1.83151 -0.113046 0
M  V30 10468 H 947.908 3.43783 1.96543 0
M  V30 10469 H 949.082 4.55988 -0.664201 0
M  V30 10470 H 947.397 4.14034 -0.443227 0
M  V30 10471 H 949.994 4.85273 2.2453 0
M  V30 10472 H 950.337 3.19379 2.67026 0
M  V30 10473 H 950.87 3.82488 1.09305 0
M  V30 10474 H 947.609 6.55332 -0.148423 0
M  V30 10475 H 947.129 5.83124 1.4045 0
M  V30 10476 H 948.808 6.36737 1.14785 0
M  V30 10477 N 948.94 -0.228186 1.55939 0
M  V30 10478 C 950.187 -0.953552 1.78644 0
M  V30 10479 C 950.515 -1.84596 0.61275 0
M  V30 10480 O 949.77 -1.91502 -0.403175 0
M  V30 10481 C 950.069 -1.82924 3.0704 0
M  V30 10482 C 949.735 -1.09062 4.37511 0
M  V30 10483 C 948.397 -0.886565 4.72962 0
M  V30 10484 C 950.749 -0.568533 5.1809 0
M  V30 10485 C 948.077 -0.148413 5.86512 0
M  V30 10486 C 950.429 0.156243 6.32407 0
M  V30 10487 C 949.093 0.371612 6.66465 0
M  V30 10488 H 948.363 -0.348929 0.653704 0
M  V30 10489 H 951.01 -0.222211 1.90206 0
M  V30 10490 H 949.315 -2.62823 2.90571 0
M  V30 10491 H 951.012 -2.3925 3.21808 0
M  V30 10492 H 947.602 -1.25963 4.09672 0
M  V30 10493 H 951.786 -0.713673 4.91142 0
M  V30 10494 H 947.042 0.0287418 6.11393 0
M  V30 10495 H 951.216 0.568333 6.94077 0
M  V30 10496 H 948.843 0.945522 7.54297 0
M  V30 10497 N 950.418 -1.49637 -0.494624 0
M  V30 10498 C 951.834 -1.36541 -0.826361 0
M  V30 10499 C 952.034 -0.403386 -1.97421 0
M  V30 10500 O 951.09 0.162614 -2.51976 0
M  V30 10501 C 952.403 -2.77401 -1.16057 0
M  V30 10502 C 953.951 -2.86148 -1.26841 0
M  V30 10503 C 954.426 -4.27789 -1.63587 0
M  V30 10504 N 955.917 -4.3063 -1.70624 0
M  V30 10505 C 956.652 -5.37198 -2.00514 0
M  V30 10506 N 956.148 -6.54004 -2.28584 0
M  V30 10507 N 957.941 -5.2462 -2.01818 0
M  V30 10508 H 950.092 -2.10776 0.26219 0
M  V30 10509 H 952.355 -0.946419 0.0547235 0
M  V30 10510 H 952.061 -3.49526 -0.390434 0
M  V30 10511 H 951.935 -3.1317 -2.10249 0
M  V30 10512 H 954.322 -2.14256 -2.02925 0
M  V30 10513 H 954.403 -2.53953 -0.30684 0
M  V30 10514 H 954.047 -5.00209 -0.880507 0
M  V30 10515 H 953.977 -4.57453 -2.60854 0
M  V30 10516 H 956.468 -3.46393 -1.51065 0
M  V30 10517 H 956.781 -7.31041 -2.50598 0
M  V30 10518 H 955.126 -6.57219 -2.26027 0
M  V30 10519 H 958.317 -4.32371 -1.79369 0
M  V30 10520 H 958.49 -6.07765 -2.24778 0
M  V30 10521 N 951.896 0.746133 -1.38819 0
M  V30 10522 C 953.121 1.54049 -1.38866 0
M  V30 10523 C 953.546 1.88092 0.0176624 0
M  V30 10524 O 952.904 1.51113 1.00173 0
M  V30 10525 C 952.952 2.8116 -2.25791 0
M  V30 10526 O 952.056 3.76623 -1.68014 0
M  V30 10527 H 951.397 0.465648 -0.473359 0
M  V30 10528 H 953.927 0.921469 -1.82675 0
M  V30 10529 H 953.937 3.30009 -2.39913 0
M  V30 10530 H 952.612 2.55713 -3.27999 0
M  V30 10531 H 951.189 3.35352 -1.63074 0
M  V30 10532 N 953.375 1.23811 0.975125 0
M  V30 10533 C 954.622 1.07336 1.71712 0
M  V30 10534 C 954.95 -0.388954 1.90571 0
M  V30 10535 O 954.205 -1.30409 1.45918 0
M  V30 10536 C 954.504 1.74994 3.11628 0
M  V30 10537 C 954.17 3.24918 3.12632 0
M  V30 10538 C 952.832 3.65822 3.12614 0
M  V30 10539 C 955.184 4.20797 3.07538 0
M  V30 10540 C 952.512 5.01054 3.05224 0
M  V30 10541 C 954.864 5.56027 3.0169 0
M  V30 10542 C 953.528 5.96287 2.99996 0
M  V30 10543 H 952.798 0.392771 0.62834 0
M  V30 10544 H 955.445 1.53815 1.14075 0
M  V30 10545 H 953.75 1.20889 3.72684 0
M  V30 10546 H 955.447 1.5972 3.67819 0
M  V30 10547 H 952.037 2.92359 3.13407 0
M  V30 10548 H 956.221 3.902 3.06688 0
M  V30 10549 H 951.477 5.31454 3.02268 0
M  V30 10550 H 955.651 6.3003 2.96706 0
M  V30 10551 H 953.278 7.01037 2.94025 0
M  V30 10552 N 954.853 -1.17469 1.05066 0
M  V30 10553 C 956.269 -1.39699 0.771769 0
M  V30 10554 C 956.469 -1.91253 -0.634382 0
M  V30 10555 O 955.525 -2.10334 -1.39699 0
M  V30 10556 C 956.838 -2.38886 1.82631 0
M  V30 10557 C 958.386 -2.52595 1.84838 0
M  V30 10558 C 958.861 -3.55054 2.89311 0
M  V30 10559 N 960.352 -3.6257 2.88266 0
M  V30 10560 C 961.087 -4.41603 3.65752 0
M  V30 10561 N 960.583 -5.24162 4.53019 0
M  V30 10562 N 962.376 -4.36464 3.54197 0
M  V30 10563 H 954.527 -0.823355 1.95792 0
M  V30 10564 H 956.79 -0.42432 0.847736 0
M  V30 10565 H 956.496 -2.08075 2.83545 0
M  V30 10566 H 956.37 -3.38371 1.66687 0
M  V30 10567 H 958.757 -2.82717 0.845888 0
M  V30 10568 H 958.838 -1.53188 2.04859 0
M  V30 10569 H 958.482 -3.2567 3.89745 0
M  V30 10570 H 958.412 -4.54162 2.66542 0
M  V30 10571 H 960.903 -3.03625 2.24989 0
M  V30 10572 H 961.216 -5.81646 5.0883 0
M  V30 10573 H 959.561 -5.23547 4.57081 0
M  V30 10574 H 962.752 -3.7102 2.85416 0
M  V30 10575 H 962.925 -4.97814 4.14832 0
M  V30 10576 N 956.331 -0.831506 -1.3388 0
M  V30 10577 C 957.264 -0.2046 -2.27281 0
M  V30 10578 C 958.242 0.643992 -1.49303 0
M  V30 10579 O 959.426 0.605863 -1.78498 0
M  V30 10580 C 956.553 0.713409 -3.31101 0
M  V30 10581 C 955.599 -0.0587654 -4.2646 0
M  V30 10582 S 956.432 -1.41172 -5.16557 0
M  V30 10583 C 957.588 -0.498807 -6.23909 0
M  V30 10584 H 957.821 -0.996442 -2.80104 0
M  V30 10585 H 955.354 -0.62786 -1.41058 0
M  V30 10586 H 957.312 1.23748 -3.91403 0
M  V30 10587 H 955.973 1.47885 -2.77108 0
M  V30 10588 H 955.166 0.639466 -4.99927 0
M  V30 10589 H 954.768 -0.513665 -3.70456 0
M  V30 10590 H 957.06 0.306268 -6.76807 0
M  V30 10591 H 958.003 -1.20342 -6.97799 0
M  V30 10592 H 958.411 -0.0834242 -5.64438 0
M  V30 10593 N 957.809 1.4625 -0.587256 0
M  V30 10594 C 958.719 2.34147 0.145744 0
M  V30 10595 C 959.735 1.50026 0.881376 0
M  V30 10596 O 960.911 1.82884 0.843539 0
M  V30 10597 C 957.976 3.27294 1.14366 0
M  V30 10598 C 957.037 4.27317 0.412199 0
M  V30 10599 C 956.27 5.16013 1.36257 0
M  V30 10600 O 956.493 5.0773 2.59934 0
M  V30 10601 O 955.427 5.95569 0.870681 0
M  V30 10602 H 959.253 2.98187 -0.576055 0
M  V30 10603 H 956.838 1.45299 -0.347628 0
M  V30 10604 H 958.72 3.84747 1.71894 0
M  V30 10605 H 957.395 2.65845 1.84684 0
M  V30 10606 H 956.302 3.73538 -0.205036 0
M  V30 10607 H 957.635 4.91564 -0.250104 0
M  V30 10608 N 959.287 0.325282 1.54207 0
M  V30 10609 C 960.197 -0.548778 2.28091 0
M  V30 10610 C 961.213 -1.12772 1.32508 0
M  V30 10611 O 962.389 -1.14732 1.65525 0
M  V30 10612 C 959.454 -1.69284 3.02562 0
M  V30 10613 C 958.515 -1.14553 4.13734 0
M  V30 10614 C 957.748 -2.23506 4.84645 0
M  V30 10615 O 957.971 -3.43884 4.55082 0
M  V30 10616 O 956.905 -1.88828 5.71513 0
M  V30 10617 H 960.731 0.0512974 3.03657 0
M  V30 10618 H 958.316 0.0909159 1.49123 0
M  V30 10619 H 960.198 -2.35887 3.49192 0
M  V30 10620 H 958.873 -2.27906 2.2987 0
M  V30 10621 H 957.78 -0.444532 3.71449 0
M  V30 10622 H 959.113 -0.60441 4.88475 0
M  V30 10623 N 960.765 -1.57509 0.0534917 0
M  V30 10624 C 962.005 -1.94654 -0.623641 0
M  V30 10625 C 962.369 -0.93184 -1.67871 0
M  V30 10626 O 963.57 -1.19031 -2.41009 0
M  V30 10627 C 961.841 -3.36575 -1.20216 0
M  V30 10628 S 963.4 -3.95677 -1.89697 0
M  V30 10629 H 960.218 -0.680893 -0.20471 0
M  V30 10630 H 962.82 -1.95113 0.122982 0
M  V30 10631 H 961.524 -4.08223 -0.422177 0
M  V30 10632 H 961.055 -3.39617 -1.98555 0
M  V30 10633 H 963.07 -3.81092 -3.17779 0
M  V30 10634 N 962.243 0.219913 -1.56058 0
M  V30 10635 C 963.206 1.25606 -1.91718 0
M  V30 10636 C 964.206 1.39721 -0.795912 0
M  V30 10637 O 965.396 1.37958 -1.06364 0
M  V30 10638 C 962.528 2.62961 -2.16943 0
M  V30 10639 H 963.721 0.951909 -2.84392 0
M  V30 10640 H 961.274 0.460398 -1.49365 0
M  V30 10641 H 962.009 2.98472 -1.26826 0
M  V30 10642 H 961.794 2.54093 -2.98629 0
M  V30 10643 H 963.284 3.37727 -2.45622 0
M  V30 10644 N 963.721 1.49897 0.486681 0
M  V30 10645 C 965.132 1.53142 1.06792 0
M  V30 10646 C 965.483 0.325856 1.93475 0
M  V30 10647 O 964.608 -0.562893 2.08951 0
M  V30 10648 C 965.203 2.77514 1.94348 0
M  V30 10649 C 963.762 2.83491 2.47609 0
M  V30 10650 C 962.909 2.47239 1.2557 0
M  V30 10651 H 965.86 1.56387 0.269962 0
M  V30 10652 H 965.881 2.58487 2.79221 0
M  V30 10653 H 965.393 3.65239 1.31232 0
M  V30 10654 H 963.494 2.0008 3.14323 0
M  V30 10655 H 963.607 3.86011 2.83782 0
M  V30 10656 H 961.971 1.99332 1.58552 0
M  V30 10657 H 962.754 3.37255 0.641404 0
M  V30 10658 N 965.199 -0.738761 1.39212 0
M  V30 10659 C 966.447 -1.49529 1.35962 0
M  V30 10660 C 966.768 -1.94948 -0.0450152 0
M  V30 10661 O 966.038 -1.68717 -0.995552 0
M  V30 10662 H 964.618 -0.554692 0.500326 0
M  V30 10663 H 967.28 -0.877255 1.74041 0
M  V30 10664 H 966.376 -2.37919 2.01993 0
M  V30 10665 N 966.677 -1.24326 -0.968545 0
M  V30 10666 C 967.925 -1.08032 -1.70803 0
M  V30 10667 C 968.246 0.381728 -1.91227 0
M  V30 10668 O 967.516 1.27253 -1.48942 0
M  V30 10669 H 966.096 -0.396777 -0.632912 0
M  V30 10670 H 968.758 -1.56232 -1.16523 0
M  V30 10671 H 967.854 -1.57769 -2.69287 0
M  V30 10672 N 968.156 1.1691 -1.05688 0
M  V30 10673 C 969.396 1.88972 -0.779044 0
M  V30 10674 C 969.76 1.7949 0.681708 0
M  V30 10675 O 970.961 2.46418 1.07386 0
M  V30 10676 C 969.232 3.34737 -1.25242 0
M  V30 10677 S 970.791 4.24718 -1.10272 0
M  V30 10678 H 967.609 0.652349 -0.282776 0
M  V30 10679 H 970.211 1.41162 -1.35254 0
M  V30 10680 H 968.915 3.39175 -2.3106 0
M  V30 10681 H 968.446 3.87593 -0.673417 0
M  V30 10682 H 970.461 4.96191 -0.0299004 0
M  V30 10683 N 969.634 0.838594 1.33437 0
M  V30 10684 C 970.564 0.286672 2.31734 0
M  V30 10685 C 971.545 -0.605451 1.5896 0
M  V30 10686 O 972.73 -0.529059 1.86854 0
M  V30 10687 C 969.86 -0.539311 3.43087 0
M  V30 10688 C 968.814 0.256997 4.27228 0
M  V30 10689 C 968.14 -0.692718 5.30194 0
M  V30 10690 C 969.44 1.47391 5.01072 0
M  V30 10691 H 971.134 1.10798 2.78144 0
M  V30 10692 H 968.68 0.534235 1.33723 0
M  V30 10693 H 970.633 -0.935724 4.1088 0
M  V30 10694 H 969.357 -1.39383 2.95364 0
M  V30 10695 H 968.016 0.634967 3.61059 0
M  V30 10696 H 967.664 -1.54363 4.78729 0
M  V30 10697 H 967.364 -0.164023 5.87371 0
M  V30 10698 H 968.888 -1.08665 6.00853 0
M  V30 10699 H 970.302 1.15067 5.61634 0
M  V30 10700 H 968.699 1.93937 5.67898 0
M  V30 10701 H 969.769 2.24382 4.29861 0
M  V30 10702 N 971.112 -1.45937 0.595003 0
M  V30 10703 C 972.045 -2.27491 -0.179775 0
M  V30 10704 C 973.023 -1.36376 -0.88545 0
M  V30 10705 O 974.207 -1.65797 -0.896863 0
M  V30 10706 C 971.334 -3.1443 -1.25902 0
M  V30 10707 C 970.38 -4.21396 -0.657847 0
M  V30 10708 S 971.213 -5.32923 0.524689 0
M  V30 10709 C 972.369 -6.2343 -0.555452 0
M  V30 10710 H 972.602 -2.92855 0.512173 0
M  V30 10711 H 970.135 -1.49595 0.382199 0
M  V30 10712 H 972.093 -3.65081 -1.87687 0
M  V30 10713 H 970.754 -2.48356 -1.92297 0
M  V30 10714 H 969.947 -4.82102 -1.46948 0
M  V30 10715 H 969.549 -3.73822 -0.115403 0
M  V30 10716 H 971.841 -6.62066 -1.43789 0
M  V30 10717 H 972.784 -7.08098 0.0151431 0
M  V30 10718 H 973.192 -5.57831 -0.865125 0
M  V30 10719 N 972.59 -0.333456 -1.54032 0
M  V30 10720 C 973.5 0.536674 -2.28379 0
M  V30 10721 C 974.516 1.12068 -1.33104 0
M  V30 10722 O 975.692 1.13853 -1.66131 0
M  V30 10723 C 972.757 1.67677 -3.03456 0
M  V30 10724 C 971.818 1.12357 -4.14336 0
M  V30 10725 C 971.051 2.20933 -4.85823 0
M  V30 10726 O 971.274 3.41466 -4.569 0
M  V30 10727 O 970.208 1.85795 -5.72507 0
M  V30 10728 H 974.034 -0.0674003 -3.03625 0
M  V30 10729 H 971.619 -0.098823 -1.49073 0
M  V30 10730 H 973.501 2.34032 -3.50438 0
M  V30 10731 H 972.176 2.26684 -2.31076 0
M  V30 10732 H 971.083 0.424827 -3.7168 0
M  V30 10733 H 972.416 0.578497 -4.88789 0
M  V30 10734 N 974.068 1.57479 -0.061844 0
M  V30 10735 C 974.998 2.15181 0.9066 0
M  V30 10736 C 975.979 1.07624 1.31724 0
M  V30 10737 O 977.164 1.35614 1.39006 0
M  V30 10738 C 974.294 2.70542 2.17771 0
M  V30 10739 C 973.248 3.83178 1.9068 0
M  V30 10740 C 972.574 4.25099 3.24337 0
M  V30 10741 C 973.874 5.07853 1.21994 0
M  V30 10742 H 975.568 2.96355 0.42594 0
M  V30 10743 H 973.114 1.42556 0.203435 0
M  V30 10744 H 975.067 3.09552 2.85929 0
M  V30 10745 H 973.791 1.86575 2.68062 0
M  V30 10746 H 972.45 3.44656 1.24931 0
M  V30 10747 H 972.098 3.38069 3.72449 0
M  V30 10748 H 971.798 5.01021 3.07005 0
M  V30 10749 H 973.322 4.66718 3.93709 0
M  V30 10750 H 974.736 5.44242 1.80204 0
M  V30 10751 H 973.133 5.88987 1.14954 0
M  V30 10752 H 974.203 4.84497 0.197536 0
M  V30 10753 N 975.546 -0.211634 1.56173 0
M  V30 10754 C 976.786 -0.941505 1.81425 0
M  V30 10755 C 977.15 -1.8113 0.636862 0
M  V30 10756 O 978.351 -2.57568 0.768907 0
M  V30 10757 C 976.622 -1.75002 3.11623 0
M  V30 10758 S 978.181 -2.53418 3.58225 0
M  V30 10759 H 974.999 -0.316088 0.636875 0
M  V30 10760 H 977.601 -0.206244 1.94409 0
M  V30 10761 H 976.305 -1.10136 3.95346 0
M  V30 10762 H 975.836 -2.5274 3.01473 0
M  V30 10763 H 977.851 -3.77234 3.22349 0
M  V30 10764 N 977.024 -1.50153 -0.478725 0
M  V30 10765 C 978.273 -1.60002 -1.22809 0
M  V30 10766 C 978.586 -0.302277 -1.9325 0
M  V30 10767 O 979.792 -0.279583 -2.70057 0
M  V30 10768 C 978.248 -2.82402 -2.23108 0
M  V30 10769 C 977.856 -4.19023 -1.58505 0
M  V30 10770 C 979.6 -3.01593 -2.98734 0
M  V30 10771 C 977.507 -5.32618 -2.57045 0
M  V30 10772 H 976.437 -0.595822 -0.462073 0
M  V30 10773 H 979.088 -1.76573 -0.499412 0
M  V30 10774 H 977.47 -2.59373 -2.99235 0
M  V30 10775 H 978.644 -4.52277 -0.882187 0
M  V30 10776 H 976.959 -4.05374 -0.951877 0
M  V30 10777 H 979.556 -3.8363 -3.72468 0
M  V30 10778 H 979.899 -2.1302 -3.57671 0
M  V30 10779 H 980.432 -3.24766 -2.29721 0
M  V30 10780 H 977.171 -6.23321 -2.02858 0
M  V30 10781 H 976.691 -5.03792 -3.25505 0
M  V30 10782 H 978.37 -5.62877 -3.19028 0
M  V30 10783 N 978.502 0.731368 -1.39602 0
M  V30 10784 C 979.434 1.85575 -1.34516 0
M  V30 10785 C 980.447 1.60818 -0.253287 0
M  V30 10786 O 981.636 1.70984 -0.512505 0
M  V30 10787 C 978.736 3.21673 -1.06676 0
M  V30 10788 C 977.909 3.73757 -2.27211 0
M  V30 10789 C 976.968 4.88426 -1.95773 0
M  V30 10790 O 975.994 5.01898 -2.68491 0
M  V30 10791 N 977.196 5.73065 -0.926083 0
M  V30 10792 H 979.961 1.90442 -2.31413 0
M  V30 10793 H 977.522 0.912258 -1.33752 0
M  V30 10794 H 979.514 3.95959 -0.836577 0
M  V30 10795 H 978.084 3.12052 -0.185003 0
M  V30 10796 H 977.304 2.90781 -2.66158 0
M  V30 10797 H 978.592 4.05289 -3.07601 0
M  V30 10798 H 977.99 5.64774 -0.323497 0
M  V30 10799 H 976.547 6.47403 -0.755795 0
M  V30 10800 N 979.98 1.24838 0.961938 0
M  V30 10801 C 980.91 1.07053 2.07514 0
M  V30 10802 C 981.891 -0.0182465 1.7009 0
M  V30 10803 O 983.076 0.149915 1.9362 0
M  V30 10804 C 980.206 0.680693 3.40564 0
M  V30 10805 C 979.16 1.71889 3.91967 0
M  V30 10806 C 978.486 1.18395 5.21428 0
M  V30 10807 C 979.786 3.1161 4.19161 0
M  V30 10808 H 981.48 2.00167 2.22651 0
M  V30 10809 H 979.026 0.963799 1.0699 0
M  V30 10810 H 980.979 0.54324 4.17884 0
M  V30 10811 H 979.703 -0.28615 3.25344 0
M  V30 10812 H 978.362 1.84465 3.16809 0
M  V30 10813 H 978.01 0.207543 5.02572 0
M  V30 10814 H 977.71 1.87778 5.56788 0
M  V30 10815 H 979.234 1.05873 6.01351 0
M  V30 10816 H 980.648 3.0223 4.87165 0
M  V30 10817 H 979.045 3.78398 4.65763 0
M  V30 10818 H 980.115 3.59218 3.25715 0
M  V30 10819 N 981.458 -1.16348 1.06306 0
M  V30 10820 C 982.683 -1.91323 0.800636 0
M  V30 10821 C 983.108 -1.7691 -0.639105 0
M  V30 10822 O 982.466 -1.0945 -1.44535 0
M  V30 10823 C 982.514 -3.40038 1.20027 0
M  V30 10824 O 981.618 -4.11003 0.339142 0
M  V30 10825 H 980.959 -0.596057 0.292595 0
M  V30 10826 H 983.489 -1.47406 1.41889 0
M  V30 10827 H 983.499 -3.90808 1.17188 0
M  V30 10828 H 982.174 -3.49848 2.24898 0
M  V30 10829 H 980.751 -3.70423 0.42911 0
M  V30 10830 N 982.937 -0.845659 -1.3299 0
M  V30 10831 C 984.186 -0.440928 -1.96822 0
M  V30 10832 C 984.499 1.00668 -1.67706 0
M  V30 10833 O 985.705 1.51641 -2.25205 0
M  V30 10834 C 984.161 -0.73752 -3.52262 0
M  V30 10835 C 983.769 -2.20026 -3.90247 0
M  V30 10836 C 985.513 -0.400072 -4.22611 0
M  V30 10837 C 983.42 -2.44054 -5.38694 0
M  V30 10838 H 982.35 -0.161148 -0.736578 0
M  V30 10839 H 985.001 -1.03519 -1.51513 0
M  V30 10840 H 983.383 -0.0728025 -3.95933 0
M  V30 10841 H 984.557 -2.90602 -3.57613 0
M  V30 10842 H 982.872 -2.50135 -3.32899 0
M  V30 10843 H 985.469 -0.557136 -5.3179 0
M  V30 10844 H 985.812 0.657547 -4.11074 0
M  V30 10845 H 986.345 -1.0203 -3.84493 0
M  V30 10846 H 983.084 -3.48407 -5.55241 0
M  V30 10847 H 982.604 -1.78047 -5.72765 0
M  V30 10848 H 984.283 -2.27549 -6.05665 0
M  V30 10849 N 984.415 1.45619 -0.602734 0
M  V30 10850 C 985.664 2.01483 -0.0936395 0
M  V30 10851 C 985.977 1.47753 1.28173 0
M  V30 10852 O 987.183 1.95562 1.88329 0
M  V30 10853 C 985.639 3.59711 -0.116738 0
M  V30 10854 C 985.247 4.22437 -1.49166 0
M  V30 10855 C 986.991 4.23157 0.337368 0
M  V30 10856 C 984.898 5.72803 -1.47141 0
M  V30 10857 H 983.828 0.753353 -0.0312382 0
M  V30 10858 H 986.479 1.67142 -0.757347 0
M  V30 10859 H 984.861 3.91218 0.613529 0
M  V30 10860 H 986.035 4.02511 -2.24325 0
M  V30 10861 H 984.35 3.71166 -1.88746 0
M  V30 10862 H 986.947 5.33407 0.371628 0
M  V30 10863 H 987.29 3.93491 1.35906 0
M  V30 10864 H 987.823 3.96349 -0.339474 0
M  V30 10865 H 984.562 6.07161 -2.47055 0
M  V30 10866 H 984.082 5.94936 -0.762329 0
M  V30 10867 H 985.761 6.35907 -1.19294 0
M  V30 10868 N 985.893 0.34162 1.53853 0
M  V30 10869 C 986.826 -0.559051 2.21246 0
M  V30 10870 C 987.804 -1.10179 1.1958 0
M  V30 10871 O 988.988 -1.16242 1.48392 0
M  V30 10872 C 986.115 -1.7689 2.88838 0
M  V30 10873 C 985.161 -1.3558 4.04377 0
M  V30 10874 S 985.994 -0.377225 5.3417 0
M  V30 10875 C 987.15 -1.59395 6.05264 0
M  V30 10876 H 987.383 0.013373 2.97297 0
M  V30 10877 H 984.916 0.125694 1.53888 0
M  V30 10878 H 986.874 -2.463 3.284 0
M  V30 10879 H 985.535 -2.31254 2.12557 0
M  V30 10880 H 984.728 -2.25781 4.50599 0
M  V30 10881 H 984.33 -0.741197 3.66582 0
M  V30 10882 H 986.622 -2.52872 6.2854 0
M  V30 10883 H 987.565 -1.17356 6.98307 0
M  V30 10884 H 987.973 -1.78913 5.35397 0
M  V30 10885 N 987.371 -1.57444 0.0701946 0
M  V30 10886 C 988.301 -2.15659 -0.895176 0
M  V30 10887 C 989.282 -1.08321 -1.31151 0
M  V30 10888 O 990.467 -1.36349 -1.38284 0
M  V30 10889 C 987.597 -2.71693 -2.16334 0
M  V30 10890 C 986.551 -3.84183 -1.88645 0
M  V30 10891 C 985.877 -4.26814 -3.22078 0
M  V30 10892 C 987.177 -5.08493 -1.19299 0
M  V30 10893 H 988.871 -2.96576 -0.410217 0
M  V30 10894 H 986.417 -1.42662 -0.195872 0
M  V30 10895 H 988.37 -3.11064 -2.84284 0
M  V30 10896 H 987.094 -1.87994 -2.67069 0
M  V30 10897 H 985.753 -3.45314 -1.23101 0
M  V30 10898 H 985.401 -3.40039 -3.70651 0
M  V30 10899 H 985.101 -5.02642 -3.04344 0
M  V30 10900 H 986.625 -4.68799 -3.91228 0
M  V30 10901 H 988.039 -5.4519 -1.77316 0
M  V30 10902 H 986.436 -5.89588 -1.11828 0
M  V30 10903 H 987.506 -4.84595 -0.171839 0
M  V30 10904 N 988.849 0.203349 -1.56283 0
M  V30 10905 C 990.097 0.923183 -1.79782 0
M  V30 10906 C 990.418 1.84134 -0.64185 0
M  V30 10907 O 989.688 1.92922 0.340292 0
M  V30 10908 H 988.268 0.343881 -0.66314 0
M  V30 10909 H 990.93 0.210837 -1.93756 0
M  V30 10910 H 990.026 1.51921 -2.72629 0
M  V30 10911 N 990.327 1.50405 0.470755 0
M  V30 10912 C 991.274 1.69293 1.56871 0
M  V30 10913 C 992.244 0.534248 1.57274 0
M  V30 10914 O 993.429 0.764855 1.74799 0
M  V30 10915 C 990.569 1.79338 2.94842 0
M  V30 10916 C 989.682 3.06709 3.04226 0
M  V30 10917 C 988.817 3.07548 4.33114 0
M  V30 10918 C 987.856 4.29372 4.36241 0
M  V30 10919 N 986.993 4.27949 5.56601 0
M  V30 10920 H 991.833 2.63029 1.40071 0
M  V30 10921 H 989.37 1.30386 0.681016 0
M  V30 10922 H 991.328 1.83143 3.74853 0
M  V30 10923 H 989.958 0.890411 3.10277 0
M  V30 10924 H 989.01 3.12374 2.17086 0
M  V30 10925 H 990.322 3.96684 3.02396 0
M  V30 10926 H 989.476 3.10084 5.21472 0
M  V30 10927 H 988.215 2.15404 4.37553 0
M  V30 10928 H 987.22 4.27048 3.4628 0
M  V30 10929 H 988.445 5.22743 4.33493 0
M  V30 10930 H 986.391 3.38658 5.61824 0
M  V30 10931 H 986.308 5.11692 5.56513 0
M  V30 10932 H 987.576 4.34631 6.47083 0
M  V30 10933 N 991.805 -0.723954 1.39988 0
M  V30 10934 C 992.737 -1.84859 1.35498 0
M  V30 10935 C 993.75 -1.60681 0.261812 0
M  V30 10936 O 994.939 -1.7071 0.521566 0
M  V30 10937 C 992.039 -3.21103 1.08381 0
M  V30 10938 C 991.212 -3.72546 2.2919 0
M  V30 10939 C 990.271 -4.8738 1.9836 0
M  V30 10940 O 989.297 -5.00467 2.71149 0
M  V30 10941 N 990.499 -5.72566 0.956461 0
M  V30 10942 H 993.264 -1.89212 2.3242 0
M  V30 10943 H 990.825 -0.905152 1.34233 0
M  V30 10944 H 992.817 -3.9551 0.857564 0
M  V30 10945 H 991.387 -3.1195 0.201549 0
M  V30 10946 H 990.607 -2.89365 2.67697 0
M  V30 10947 H 991.895 -4.03652 3.09746 0
M  V30 10948 H 991.293 -5.64595 0.353444 0
M  V30 10949 H 989.85 -6.46993 0.790118 0
M  V30 10950 N 993.283 -1.25346 -0.955304 0
M  V30 10951 C 994.213 -1.08152 -2.06943 0
M  V30 10952 C 995.194 0.00922598 -1.70097 0
M  V30 10953 O 996.379 -0.160181 -1.93538 0
M  V30 10954 C 993.509 -0.698745 -3.40198 0
M  V30 10955 C 992.463 -1.73965 -3.9105 0
M  V30 10956 C 991.789 -1.21158 -5.20792 0
M  V30 10957 C 993.089 -3.13829 -4.17503 0
M  V30 10958 H 994.783 -2.01345 -2.21586 0
M  V30 10959 H 992.329 -0.969459 -1.06478 0
M  V30 10960 H 994.282 -0.565394 -4.1759 0
M  V30 10961 H 993.006 0.268892 -3.25491 0
M  V30 10962 H 991.665 -1.86143 -3.15827 0
M  V30 10963 H 991.313 -0.234193 -5.02455 0
M  V30 10964 H 991.013 -1.90728 -5.55785 0
M  V30 10965 H 992.537 -1.09061 -6.00781 0
M  V30 10966 H 993.951 -3.04809 -4.85556 0
M  V30 10967 H 992.348 -3.80863 -4.63749 0
M  V30 10968 H 993.418 -3.6094 -3.23806 0
M  V30 10969 N 994.761 1.15782 -1.06922 0
M  V30 10970 C 996.01 1.85807 -0.784774 0
M  V30 10971 C 996.323 1.82967 0.691551 0
M  V30 10972 O 997.529 2.48632 1.0906 0
M  V30 10973 C 995.985 3.33469 -1.35375 0
M  V30 10974 C 995.593 3.44766 -2.86077 0
M  V30 10975 C 997.337 4.08707 -1.14713 0
M  V30 10976 C 995.244 4.86551 -3.36187 0
M  V30 10977 H 994.174 0.696046 -0.28989 0
M  V30 10978 H 996.825 1.30629 -1.28873 0
M  V30 10979 H 995.207 3.88292 -0.77754 0
M  V30 10980 H 996.381 3.00073 -3.49704 0
M  V30 10981 H 994.696 2.82969 -3.05479 0
M  V30 10982 H 997.293 5.13336 -1.49633 0
M  V30 10983 H 997.636 4.16211 -0.0858868 0
M  V30 10984 H 998.169 3.60142 -1.68946 0
M  V30 10985 H 994.908 4.84229 -4.41818 0
M  V30 10986 H 994.428 5.31844 -2.77312 0
M  V30 10987 H 996.107 5.55392 -3.31887 0
M  V30 10988 N 996.239 0.8527 1.3254 0
M  V30 10989 C 997.171 0.253181 2.27797 0
M  V30 10990 C 998.184 -0.573977 1.52346 0
M  V30 10991 O 999.373 -0.398786 1.73988 0
M  V30 10992 C 996.473 -0.661034 3.32391 0
M  V30 10993 C 995.646 0.12984 4.37207 0
M  V30 10994 C 994.705 -0.709837 5.2139 0
M  V30 10995 O 993.731 -0.144056 5.69018 0
M  V30 10996 N 994.933 -2.0249 5.44039 0
M  V30 10997 H 997.698 1.07171 2.79883 0
M  V30 10998 H 995.259 0.712491 1.45379 0
M  V30 10999 H 997.251 -1.22806 3.85617 0
M  V30 11000 H 995.821 -1.38025 2.80478 0
M  V30 11001 H 995.041 0.878289 3.84291 0
M  V30 11002 H 996.329 0.673141 5.04328 0
M  V30 11003 H 995.727 -2.50792 5.0707 0
M  V30 11004 H 994.284 -2.5401 6.00269 0
M  V30 11005 N 997.718 -1.45297 0.610449 0
M  V30 11006 C 998.666 -2.32295 -0.119167 0
M  V30 11007 C 999.66 -1.46138 -0.856746 0
M  V30 11008 O 1000.87 -1.62605 -0.771988 0
M  V30 11009 H 997.241 -0.749815 -0.0572881 0
M  V30 11010 H 999.212 -2.91609 0.63297 0
M  V30 11011 C 997.961 -3.29802 -1.10119 0
M  V30 11012 H 997.284 -3.96095 -0.543063 0
M  V30 11013 H 998.724 -3.93398 -1.58158 0
M  V30 11014 C 997.183 -2.57185 -2.17617 0
M  V30 11015 O 997.713 -2.35535 -3.25401 0
M  V30 11016 N 995.919 -2.17272 -1.9298 0
M  V30 11017 H 995.466 -2.3508 -1.05334 0
M  V30 11018 H 995.424 -1.69009 -2.6511 0
M  V30 11019 N 999.196 -0.349774 -1.5367 0
M  V30 11020 C 1000.14 0.519396 -2.26727 0
M  V30 11021 C 1001.14 1.09673 -1.29105 0
M  V30 11022 O 1002.34 1.04176 -1.46791 0
M  V30 11023 H 998.719 0.186192 -0.728585 0
M  V30 11024 H 1000.69 -0.118736 -2.98164 0
M  V30 11025 C 999.439 1.65535 -3.05767 0
M  V30 11026 H 998.762 1.22038 -3.80719 0
M  V30 11027 H 1000.2 2.23856 -3.6009 0
M  V30 11028 C 998.661 2.58844 -2.15642 0
M  V30 11029 O 999.191 3.61254 -1.75665 0
M  V30 11030 N 997.397 2.27671 -1.80595 0
M  V30 11031 H 996.944 1.44429 -2.13302 0
M  V30 11032 H 996.902 2.90359 -1.20577 0
M  V30 11033 N 1000.67 1.57404 -0.0785433 0
M  V30 11034 C 1001.6 2.16131 0.883726 0
M  V30 11035 C 1002.58 1.09015 1.30575 0
M  V30 11036 O 1003.77 1.3708 1.37559 0
M  V30 11037 C 1000.9 2.72836 2.1489 0
M  V30 11038 C 999.854 3.85178 1.86605 0
M  V30 11039 C 999.18 4.28516 3.1981 0
M  V30 11040 C 1000.48 5.09118 1.16601 0
M  V30 11041 H 1002.17 2.9679 0.394484 0
M  V30 11042 H 999.72 1.42763 0.188304 0
M  V30 11043 H 1001.67 3.12567 2.8263 0
M  V30 11044 H 1000.4 1.89408 2.66068 0
M  V30 11045 H 999.056 3.45962 1.21268 0
M  V30 11046 H 998.704 3.42 3.68843 0
M  V30 11047 H 998.404 5.04249 3.01674 0
M  V30 11048 H 999.928 4.70868 3.88737 0
M  V30 11049 H 1001.34 5.46123 1.74422 0
M  V30 11050 H 999.739 5.90173 1.087 0
M  V30 11051 H 1000.81 4.8468 0.146138 0
M  V30 11052 N 1002.15 -0.195058 1.56388 0
M  V30 11053 C 1003.4 -0.915444 1.80626 0
M  V30 11054 C 1003.73 -1.83255 0.651768 0
M  V30 11055 O 1002.98 -1.92314 -0.362464 0
M  V30 11056 C 1003.28 -1.7637 3.10851 0
M  V30 11057 C 1002.95 -0.997572 4.39726 0
M  V30 11058 C 1001.61 -0.786043 4.74737 0
M  V30 11059 C 1003.96 -0.45851 5.19179 0
M  V30 11060 C 1001.29 -0.023972 5.86695 0
M  V30 11061 C 1003.64 0.29035 6.31933 0
M  V30 11062 C 1002.3 0.512895 6.65527 0
M  V30 11063 H 1001.57 -0.334985 0.660959 0
M  V30 11064 H 1004.22 -0.181815 1.90635 0
M  V30 11065 H 1002.53 -2.566 2.9608 0
M  V30 11066 H 1004.22 -2.3237 3.26811 0
M  V30 11067 H 1000.81 -1.17245 4.12252 0
M  V30 11068 H 1005 -0.609334 4.92545 0
M  V30 11069 H 1000.25 0.158421 6.11195 0
M  V30 11070 H 1004.43 0.715429 6.92715 0
M  V30 11071 H 1002.05 1.10531 7.52122 0
M  V30 11072 N 1003.63 -1.50653 -0.462772 0
M  V30 11073 C 1004.54 -1.72923 -1.58539 0
M  V30 11074 C 1005.56 -0.612577 -1.6286 0
M  V30 11075 O 1006.73 -0.891885 -1.80575 0
M  V30 11076 C 1003.8 -1.82623 -2.94703 0
M  V30 11077 C 1002.86 -3.06392 -3.00704 0
M  V30 11078 C 1002.09 -3.15618 -4.30373 0
M  V30 11079 O 1002.31 -2.31423 -5.21344 0
M  V30 11080 O 1001.25 -4.0841 -4.42136 0
M  V30 11081 H 1005.07 -2.68103 -1.42669 0
M  V30 11082 H 1002.66 -1.34848 -0.643144 0
M  V30 11083 H 1004.54 -1.91134 -3.7556 0
M  V30 11084 H 1003.22 -0.906275 -3.10754 0
M  V30 11085 H 1002.12 -3.03375 -2.18894 0
M  V30 11086 H 1003.46 -3.97992 -2.89591 0
M  V30 11087 N 1005.11 0.71652 -1.4037 0
M  V30 11088 C 1006.36 1.47193 -1.37903 0
M  V30 11089 C 1006.67 1.95593 0.0159939 0
M  V30 11090 O 1007.88 2.71009 0.163282 0
M  V30 11091 C 1006.33 2.6606 -2.42363 0
M  V30 11092 C 1005.94 2.24533 -3.87671 0
M  V30 11093 C 1007.68 3.438 -2.49001 0
M  V30 11094 C 1005.59 3.40234 -4.8373 0
M  V30 11095 H 1004.52 0.552811 -0.512753 0
M  V30 11096 H 1007.17 0.779894 -1.66102 0
M  V30 11097 H 1005.55 3.37429 -2.07262 0
M  V30 11098 H 1006.73 1.6059 -4.31911 0
M  V30 11099 H 1005.04 1.59839 -3.845 0
M  V30 11100 H 1007.64 4.29893 -3.17956 0
M  V30 11101 H 1007.98 3.8755 -1.52023 0
M  V30 11102 H 1008.52 2.79474 -2.83088 0
M  V30 11103 H 1005.26 3.01517 -5.82037 0
M  V30 11104 H 1004.78 4.03095 -4.44156 0
M  V30 11105 H 1006.45 4.06312 -5.03507 0
M  V30 11106 N 1006.59 1.25851 0.948643 0
M  V30 11107 C 1007.83 1.10735 1.69062 0
M  V30 11108 C 1008.16 -0.351257 1.9181 0
M  V30 11109 O 1007.43 -1.24867 1.50947 0
M  V30 11110 H 1006.01 0.406796 0.626519 0
M  V30 11111 H 1008.67 1.58066 1.14022 0
M  V30 11112 H 1007.76 1.62033 2.66743 0
M  V30 11113 N 1008.06 -1.15214 1.07534 0
M  V30 11114 C 1009.31 -1.85388 0.794617 0
M  V30 11115 C 1009.63 -1.83331 -0.681838 0
M  V30 11116 O 1010.83 -2.49207 -1.0774 0
M  V30 11117 C 1009.29 -3.32747 1.37141 0
M  V30 11118 C 1008.9 -3.43244 2.87902 0
M  V30 11119 C 1010.64 -4.08093 1.16879 0
M  V30 11120 C 1008.55 -4.84762 3.38763 0
M  V30 11121 H 1007.48 -0.694499 0.293577 0
M  V30 11122 H 1010.13 -1.29944 1.29564 0
M  V30 11123 H 1008.51 -3.87874 0.798121 0
M  V30 11124 H 1009.68 -2.98214 3.51291 0
M  V30 11125 H 1008 -2.81345 3.06975 0
M  V30 11126 H 1010.6 -5.12535 1.52353 0
M  V30 11127 H 1010.94 -4.1616 0.107958 0
M  V30 11128 H 1011.47 -3.59241 1.70854 0
M  V30 11129 H 1008.21 -4.81879 4.4438 0
M  V30 11130 H 1007.73 -5.30366 2.80128 0
M  V30 11131 H 1009.41 -5.53624 3.34827 0
M  V30 11132 N 1009.54 -0.859717 -1.32086 0
M  V30 11133 C 1010.95 -0.519529 -1.79326 0
M  V30 11134 C 1011.3 0.96295 -1.70944 0
M  V30 11135 O 1010.43 1.75139 -1.27104 0
M  V30 11136 C 1011.02 -0.936267 -3.25606 0
M  V30 11137 C 1009.58 -0.647899 -3.70782 0
M  V30 11138 C 1008.73 -1.13323 -2.53087 0
M  V30 11139 H 1011.68 -1.04643 -1.19312 0
M  V30 11140 H 1011.7 -0.254714 -3.79646 0
M  V30 11141 H 1011.21 -2.01527 -3.31675 0
M  V30 11142 H 1009.32 0.420172 -3.70223 0
M  V30 11143 H 1009.43 -1.21774 -4.63366 0
M  V30 11144 H 1007.79 -0.553325 -2.48617 0
M  V30 11145 H 1008.58 -2.21945 -2.61907 0
M  V30 11146 N 1011.02 1.44971 -0.618145 0
M  V30 11147 C 1011.97 2.30606 0.09449 0
M  V30 11148 C 1012.94 1.42725 0.849633 0
M  V30 11149 O 1014.12 1.71643 0.833266 0
M  V30 11150 C 1011.26 3.27803 1.07886 0
M  V30 11151 C 1010.38 4.30787 0.323488 0
M  V30 11152 C 1009.51 5.15085 1.29851 0
M  V30 11153 C 1008.55 6.09788 0.531561 0
M  V30 11154 N 1007.69 6.86829 1.4564 0
M  V30 11155 H 1012.53 2.91008 -0.641738 0
M  V30 11156 H 1010.06 1.43391 -0.328259 0
M  V30 11157 H 1012.02 3.82631 1.66281 0
M  V30 11158 H 1010.65 2.69131 1.78237 0
M  V30 11159 H 1009.7 3.78536 -0.376164 0
M  V30 11160 H 1011.02 4.98044 -0.274443 0
M  V30 11161 H 1010.17 5.74365 1.95421 0
M  V30 11162 H 1008.91 4.4787 1.93037 0
M  V30 11163 H 1007.91 5.49628 -0.137702 0
M  V30 11164 H 1009.14 6.79033 -0.0953993 0
M  V30 11165 H 1007.08 6.22295 2.07571 0
M  V30 11166 H 1007 7.50477 0.912167 0
M  V30 11167 H 1008.27 7.50642 2.10134 0
M  V30 11168 N 1012.5 0.357919 1.53482 0
M  V30 11169 C 1013.43 -0.535553 2.21827 0
M  V30 11170 C 1014.41 -1.08904 1.20742 0
M  V30 11171 O 1015.59 -1.14661 1.49616 0
M  V30 11172 C 1012.72 -1.73817 2.90698 0
M  V30 11173 C 1011.77 -1.31283 4.05792 0
M  V30 11174 S 1012.6 -0.320548 5.3454 0
M  V30 11175 C 1013.76 -1.52967 6.0692 0
M  V30 11176 H 1013.99 0.0449045 2.97266 0
M  V30 11177 H 1011.52 0.142009 1.53746 0
M  V30 11178 H 1013.48 -2.42803 3.30994 0
M  V30 11179 H 1012.14 -2.28987 2.14998 0
M  V30 11180 H 1011.33 -2.20989 4.52968 0
M  V30 11181 H 1010.94 -0.702275 3.67347 0
M  V30 11182 H 1013.23 -2.46191 6.31186 0
M  V30 11183 H 1014.17 -1.09943 6.99513 0
M  V30 11184 H 1014.58 -1.73224 5.37265 0
M  V30 11185 N 1013.98 -1.5736 0.0868897 0
M  V30 11186 C 1014.92 -2.13571 -0.874996 0
M  V30 11187 C 1015.89 -1.0521 -1.2853 0
M  V30 11188 O 1017.08 -1.32954 -1.3685 0
M  V30 11189 C 1014.22 -2.71386 -2.13175 0
M  V30 11190 C 1013.33 -3.93953 -1.77272 0
M  V30 11191 C 1012.47 -4.3996 -2.97671 0
M  V30 11192 C 1011.51 -5.55137 -2.57856 0
M  V30 11193 N 1010.64 -5.96034 -3.71064 0
M  V30 11194 H 1015.48 -2.95453 -0.388789 0
M  V30 11195 H 1013.02 -1.45992 -0.180242 0
M  V30 11196 H 1014.98 -3.03022 -2.86764 0
M  V30 11197 H 1013.61 -1.92245 -2.5931 0
M  V30 11198 H 1012.66 -3.68683 -0.936845 0
M  V30 11199 H 1013.97 -4.77565 -1.43989 0
M  V30 11200 H 1013.13 -4.73337 -3.79522 0
M  V30 11201 H 1011.86 -3.55232 -3.34158 0
M  V30 11202 H 1010.87 -5.21397 -1.7443 0
M  V30 11203 H 1012.09 -6.41608 -2.22522 0
M  V30 11204 H 1010.04 -5.14253 -4.07284 0
M  V30 11205 H 1009.96 -6.74423 -3.41599 0
M  V30 11206 H 1011.23 -6.34038 -4.53449 0
M  V30 11207 N 1015.45 0.186762 -1.56489 0
M  V30 11208 C 1016.4 1.23141 -1.95205 0
M  V30 11209 C 1017.37 1.44799 -0.81378 0
M  V30 11210 O 1018.56 1.57795 -1.07263 0
M  V30 11211 C 1015.7 2.56926 -2.30397 0
M  V30 11212 C 1014.81 2.42777 -3.57328 0
M  V30 11213 C 1013.94 3.69323 -3.81804 0
M  V30 11214 C 1012.98 3.50041 -5.02133 0
M  V30 11215 N 1012.12 4.68619 -5.2282 0
M  V30 11216 H 1016.96 0.894256 -2.84266 0
M  V30 11217 H 1014.5 0.430187 -1.40669 0
M  V30 11218 H 1016.46 3.3488 -2.4882 0
M  V30 11219 H 1015.09 2.88668 -1.44466 0
M  V30 11220 H 1014.14 1.56078 -3.46906 0
M  V30 11221 H 1015.45 2.24468 -4.45439 0
M  V30 11222 H 1014.6 4.55715 -4.00511 0
M  V30 11223 H 1013.34 3.90595 -2.92039 0
M  V30 11224 H 1012.35 2.62034 -4.8334 0
M  V30 11225 H 1013.57 3.30206 -5.93414 0
M  V30 11226 H 1011.52 4.90139 -4.36005 0
M  V30 11227 H 1011.44 4.53165 -6.05126 0
M  V30 11228 H 1012.7 5.56338 -5.45993 0
M  V30 11229 N 1016.93 1.50896 0.454776 0
M  V30 11230 C 1017.86 1.73885 1.5584 0
M  V30 11231 C 1018.84 0.588172 1.59607 0
M  V30 11232 O 1020.03 0.829054 1.75614 0
M  V30 11233 C 1017.16 1.84796 2.94054 0
M  V30 11234 C 1016.11 3.00111 3.05152 0
M  V30 11235 C 1015.44 2.96183 4.45174 0
M  V30 11236 C 1016.74 4.40365 2.80849 0
M  V30 11237 H 1018.43 2.66292 1.36854 0
M  V30 11238 H 1015.98 1.28142 0.656936 0
M  V30 11239 H 1017.93 1.99462 3.71204 0
M  V30 11240 H 1016.66 0.890235 3.14233 0
M  V30 11241 H 1015.31 2.85121 2.30438 0
M  V30 11242 H 1014.96 1.98224 4.62295 0
M  V30 11243 H 1014.66 3.73608 4.53532 0
M  V30 11244 H 1016.19 3.1292 5.24322 0
M  V30 11245 H 1017.6 4.55795 3.47741 0
M  V30 11246 H 1016 5.19363 3.00636 0
M  V30 11247 H 1017.07 4.51606 1.76579 0
M  V30 11248 N 1018.41 -0.709066 1.40748 0
M  V30 11249 C 1019.66 -1.4646 1.38681 0
M  V30 11250 C 1019.97 -1.95599 -0.0056209 0
M  V30 11251 O 1021.18 -2.71091 -0.148907 0
M  V30 11252 C 1019.63 -2.64771 2.43771 0
M  V30 11253 C 1019.24 -2.22474 3.88856 0
M  V30 11254 C 1020.99 -3.42475 2.50821 0
M  V30 11255 C 1018.89 -3.37663 4.85528 0
M  V30 11256 H 1017.82 -0.550084 0.515678 0
M  V30 11257 H 1020.47 -0.771074 1.66513 0
M  V30 11258 H 1018.86 -3.36325 2.09048 0
M  V30 11259 H 1020.03 -1.58297 4.32757 0
M  V30 11260 H 1018.35 -1.57798 3.85342 0
M  V30 11261 H 1020.94 -4.28201 3.20232 0
M  V30 11262 H 1021.29 -3.86738 1.54076 0
M  V30 11263 H 1021.82 -2.77969 2.84567 0
M  V30 11264 H 1018.56 -2.98426 5.83628 0
M  V30 11265 H 1018.08 -4.00734 4.46287 0
M  V30 11266 H 1019.76 -4.03636 5.05655 0
M  V30 11267 N 1019.89 -1.26353 -0.941956 0
M  V30 11268 C 1021.31 -1.03448 -1.21534 0
M  V30 11269 C 1021.51 0.240855 -2.00055 0
M  V30 11270 O 1020.56 0.950199 -2.33939 0
M  V30 11271 C 1021.87 -2.2654 -1.97737 0
M  V30 11272 C 1023.42 -2.31433 -2.10731 0
M  V30 11273 C 1023.9 -3.54216 -2.90336 0
M  V30 11274 N 1025.39 -3.54688 -2.9791 0
M  V30 11275 C 1026.12 -4.4636 -3.59931 0
M  V30 11276 N 1025.62 -5.48319 -4.2346 0
M  V30 11277 N 1027.41 -4.34013 -3.57196 0
M  V30 11278 H 1019.56 -2.08266 -0.417005 0
M  V30 11279 H 1021.83 -0.915251 -0.247021 0
M  V30 11280 H 1021.53 -3.19299 -1.47449 0
M  V30 11281 H 1021.41 -2.30726 -2.98405 0
M  V30 11282 H 1023.79 -1.3919 -2.60212 0
M  V30 11283 H 1023.87 -2.31259 -1.09329 0
M  V30 11284 H 1023.52 -4.46788 -2.41543 0
M  V30 11285 H 1023.45 -3.51637 -3.91993 0
M  V30 11286 H 1025.94 -2.80942 -2.52745 0
M  V30 11287 H 1026.25 -6.14458 -4.6868 0
M  V30 11288 H 1024.6 -5.52177 -4.22049 0
M  V30 11289 H 1027.79 -3.53578 -3.06758 0
M  V30 11290 H 1027.96 -5.0565 -4.05244 0
M  V30 11291 N 1021.37 1.14642 -1.08144 0
M  V30 11292 C 1022.6 1.89209 -0.82966 0
M  V30 11293 C 1023.01 1.78697 0.621604 0
M  V30 11294 O 1022.35 1.14224 1.4387 0
M  V30 11295 C 1022.41 3.39958 -1.16915 0
M  V30 11296 C 1022.07 3.74254 -2.62264 0
M  V30 11297 C 1023.07 3.746 -3.60514 0
M  V30 11298 C 1020.76 4.04316 -2.9805 0
M  V30 11299 C 1022.75 4.04527 -4.92582 0
M  V30 11300 C 1020.44 4.33906 -4.30312 0
M  V30 11301 C 1021.44 4.33995 -5.27388 0
M  V30 11302 O 1021.12 4.62869 -6.57273 0
M  V30 11303 H 1020.86 0.606259 -0.299042 0
M  V30 11304 H 1023.41 1.46132 -1.44342 0
M  V30 11305 H 1021.64 3.83475 -0.498377 0
M  V30 11306 H 1023.33 3.95828 -0.89862 0
M  V30 11307 H 1024.09 3.51466 -3.34211 0
M  V30 11308 H 1019.97 4.03402 -2.23132 0
M  V30 11309 H 1023.52 4.04511 -5.68346 0
M  V30 11310 H 1019.41 4.5651 -4.56365 0
M  V30 11311 H 1020.18 4.80598 -6.62546 0
M  V30 11312 N 1022.85 0.866709 1.31628 0
M  V30 11313 C 1023.78 0.335762 2.31073 0
M  V30 11314 C 1024.76 -0.571597 1.60209 0
M  V30 11315 O 1025.94 -0.489306 1.87935 0
M  V30 11316 C 1023.07 -0.466416 3.44154 0
M  V30 11317 C 1022.03 0.347561 4.26586 0
M  V30 11318 C 1021.35 -0.5801 5.31544 0
M  V30 11319 C 1022.65 1.57986 4.97833 0
M  V30 11320 H 1024.35 1.16673 2.75731 0
M  V30 11321 H 1021.89 0.56248 1.3256 0
M  V30 11322 H 1023.84 -0.84836 4.12772 0
M  V30 11323 H 1022.57 -1.33086 2.98254 0
M  V30 11324 H 1021.23 0.71141 3.59631 0
M  V30 11325 H 1020.88 -1.44174 4.81895 0
M  V30 11326 H 1020.58 -0.0393965 5.87587 0
M  V30 11327 H 1022.1 -0.958958 6.03023 0
M  V30 11328 H 1023.51 1.26954 5.59067 0
M  V30 11329 H 1021.91 2.05939 5.63657 0
M  V30 11330 H 1022.98 2.3345 4.25005 0
M  V30 11331 N 1024.32 -1.44642 0.625825 0
M  V30 11332 C 1025.27 -2.30653 -0.082259 0
M  V30 11333 C 1026.24 -1.43174 -0.842052 0
M  V30 11334 O 1027.43 -1.72082 -0.824151 0
M  V30 11335 C 1024.57 -3.2837 -1.06146 0
M  V30 11336 C 1023.68 -4.30953 -0.300638 0
M  V30 11337 C 1022.81 -5.15766 -1.27118 0
M  V30 11338 C 1021.85 -6.10061 -0.499215 0
M  V30 11339 N 1020.99 -6.87591 -1.41995 0
M  V30 11340 H 1025.83 -2.90664 0.657161 0
M  V30 11341 H 1023.37 -1.43215 0.335859 0
M  V30 11342 H 1025.32 -3.83507 -1.6425 0
M  V30 11343 H 1023.95 -2.70072 -1.76807 0
M  V30 11344 H 1023.01 -3.78331 0.396234 0
M  V30 11345 H 1024.32 -4.97892 0.300851 0
M  V30 11346 H 1023.47 -5.75394 -1.92372 0
M  V30 11347 H 1022.21 -4.48888 -1.9066 0
M  V30 11348 H 1021.22 -5.49547 0.166848 0
M  V30 11349 H 1022.44 -6.78973 0.131409 0
M  V30 11350 H 1020.39 -6.23387 -2.04267 0
M  V30 11351 H 1020.3 -7.5095 -0.872354 0
M  V30 11352 H 1021.57 -7.51746 -2.0615 0
M  V30 11353 N 1025.8 -0.366053 -1.5329 0
M  V30 11354 C 1026.73 0.47211 -2.28677 0
M  V30 11355 C 1027.71 1.08353 -1.31125 0
M  V30 11356 O 1028.9 1.10069 -1.59995 0
M  V30 11357 C 1026.03 1.61174 -3.07637 0
M  V30 11358 C 1024.98 1.12755 -4.12881 0
M  V30 11359 C 1024.31 2.35745 -4.79925 0
M  V30 11360 C 1025.61 0.211954 -5.2187 0
M  V30 11361 H 1027.3 -0.156838 -2.98989 0
M  V30 11362 H 1024.85 -0.0768709 -1.43795 0
M  V30 11363 H 1026.8 2.20473 -3.59123 0
M  V30 11364 H 1025.52 2.26793 -2.35016 0
M  V30 11365 H 1024.18 0.557234 -3.6234 0
M  V30 11366 H 1023.83 2.99821 -4.03877 0
M  V30 11367 H 1023.53 2.04019 -5.51044 0
M  V30 11368 H 1025.06 2.95729 -5.34207 0
M  V30 11369 H 1026.47 0.71244 -5.68856 0
M  V30 11370 H 1024.87 -0.0144501 -6.00098 0
M  V30 11371 H 1025.94 -0.745753 -4.79131 0
M  V30 11372 N 1027.28 1.57312 -0.0952337 0
M  V30 11373 C 1028.23 2.14032 0.863657 0
M  V30 11374 C 1029.2 1.0589 1.27971 0
M  V30 11375 O 1030.38 1.33678 1.36143 0
M  V30 11376 C 1027.52 2.72513 2.11733 0
M  V30 11377 C 1026.63 3.94887 1.7518 0
M  V30 11378 C 1025.77 4.41533 2.95334 0
M  V30 11379 C 1024.81 5.56496 2.54908 0
M  V30 11380 N 1023.95 5.97993 3.67897 0
M  V30 11381 H 1028.79 2.95655 0.373115 0
M  V30 11382 H 1026.32 1.46085 0.172497 0
M  V30 11383 H 1028.28 3.04539 2.85153 0
M  V30 11384 H 1026.91 1.93618 2.58287 0
M  V30 11385 H 1025.96 3.69175 0.917279 0
M  V30 11386 H 1027.27 4.78322 1.41455 0
M  V30 11387 H 1026.43 4.75343 3.77007 0
M  V30 11388 H 1025.17 3.56999 3.3227 0
M  V30 11389 H 1024.17 5.22314 1.71662 0
M  V30 11390 H 1025.4 6.42779 2.19117 0
M  V30 11391 H 1023.34 5.16405 4.04551 0
M  V30 11392 H 1023.26 6.76225 3.38018 0
M  V30 11393 H 1024.53 6.36434 4.5008 0
M  V30 11394 N 1028.76 -0.17846 1.56586 0
M  V30 11395 C 1029.69 -1.24547 1.92408 0
M  V30 11396 C 1030.7 -1.40849 0.816421 0
M  V30 11397 O 1031.89 -1.40979 1.09486 0
M  V30 11398 C 1028.99 -2.61523 2.15544 0
M  V30 11399 C 1028.16 -2.66613 3.46751 0
M  V30 11400 C 1027.22 -3.84901 3.588 0
M  V30 11401 O 1026.25 -3.71231 4.31482 0
M  V30 11402 N 1027.45 -5.0106 2.9312 0
M  V30 11403 H 1030.22 -0.941275 2.84535 0
M  V30 11404 H 1027.78 -0.368275 1.57656 0
M  V30 11405 H 1029.77 -3.3911 2.20876 0
M  V30 11406 H 1028.34 -2.84362 1.29835 0
M  V30 11407 H 1027.56 -1.75174 3.5314 0
M  V30 11408 H 1028.85 -2.67018 4.33104 0
M  V30 11409 H 1028.25 -5.15067 2.33928 0
M  V30 11410 H 1026.8 -5.76535 3.04057 0
M  V30 11411 N 1030.24 -1.51135 -0.446768 0
M  V30 11412 C 1031.17 -1.67949 -1.55967 0
M  V30 11413 C 1032.18 -0.560337 -1.52853 0
M  V30 11414 O 1033.37 -0.83435 -1.578 0
M  V30 11415 C 1030.47 -1.6703 -2.9488 0
M  V30 11416 C 1029.64 -2.95377 -3.22601 0
M  V30 11417 C 1028.7 -2.86772 -4.4119 0
M  V30 11418 O 1027.73 -3.60722 -4.40304 0
M  V30 11419 N 1028.93 -2.01979 -5.44228 0
M  V30 11420 H 1031.69 -2.63951 -1.41951 0
M  V30 11421 H 1029.26 -1.48903 -0.635569 0
M  V30 11422 H 1031.25 -1.58854 -3.7222 0
M  V30 11423 H 1029.82 -0.786623 -3.02541 0
M  V30 11424 H 1029.04 -3.17494 -2.33647 0
M  V30 11425 H 1030.33 -3.80356 -3.37945 0
M  V30 11426 H 1029.72 -1.41257 -5.4778 0
M  V30 11427 H 1028.28 -1.99689 -6.20457 0
M  V30 11428 N 1031.71 0.701592 -1.41122 0
M  V30 11429 C 1032.94 1.49553 -1.43696 0
M  V30 11430 C 1033.36 1.88053 -0.0421865 0
M  V30 11431 O 1032.72 1.54223 0.953144 0
M  V30 11432 C 1032.77 2.73834 -2.34622 0
M  V30 11433 O 1031.87 3.71088 -1.7991 0
M  V30 11434 H 1031.21 0.450352 -0.487933 0
M  V30 11435 H 1033.74 0.862886 -1.85514 0
M  V30 11436 H 1033.75 3.22209 -2.5029 0
M  V30 11437 H 1032.43 2.45149 -3.35969 0
M  V30 11438 H 1031.01 3.29994 -1.73661 0
M  V30 11439 N 1033.19 1.2685 0.935242 0
M  V30 11440 C 1034.6 1.11569 1.49697 0
M  V30 11441 C 1034.95 -0.301952 1.93863 0
M  V30 11442 O 1034.08 -1.19408 1.80473 0
M  V30 11443 C 1034.67 2.01918 2.72056 0
M  V30 11444 C 1033.23 1.90765 3.24477 0
M  V30 11445 C 1032.38 1.94918 1.97237 0
M  V30 11446 H 1035.33 1.39853 0.750116 0
M  V30 11447 H 1035.35 1.57056 3.46574 0
M  V30 11448 H 1034.86 3.05088 2.39881 0
M  V30 11449 H 1032.96 0.905521 3.61429 0
M  V30 11450 H 1033.08 2.76611 3.91182 0
M  V30 11451 H 1031.44 1.39046 2.13397 0
M  V30 11452 H 1032.22 2.99729 1.67385 0
M  V30 11453 N 1034.67 -1.14067 1.0875 0
M  V30 11454 C 1036.08 -1.66747 0.839778 0
M  V30 11455 C 1036.43 -1.85711 -0.632909 0
M  V30 11456 O 1035.56 -1.57084 -1.48841 0
M  V30 11457 C 1036.15 -3.02896 1.51787 0
M  V30 11458 C 1034.71 -3.52596 1.3173 0
M  V30 11459 C 1033.86 -2.27994 1.57841 0
M  V30 11460 H 1036.81 -0.980838 1.24761 0
M  V30 11461 H 1036.83 -3.68526 0.947057 0
M  V30 11462 H 1036.34 -2.89062 2.58969 0
M  V30 11463 H 1034.44 -3.71647 0.266339 0
M  V30 11464 H 1034.56 -4.33151 2.04736 0
M  V30 11465 H 1032.92 -2.34241 1.00015 0
M  V30 11466 H 1033.7 -2.16732 2.66237 0
M  V30 11467 N 1036.15 -0.873678 -1.31166 0
M  V30 11468 C 1037.43 -0.40698 -1.91319 0
M  V30 11469 C 1037.81 1.1113 -1.79481 0
M  V30 11470 O 1037.15 1.94155 -1.20483 0
M  V30 11471 C 1037.36 -0.892484 -3.37396 0
M  V30 11472 C 1038.71 -0.920795 -4.14496 0
M  V30 11473 O 1039.74 -0.838386 -3.46193 0
M  V30 11474 O 1038.59 -1.04069 -5.365 0
M  V30 11475 H 1035.69 -0.122439 -0.817886 0
M  V30 11476 H 1038.23 -0.961835 -1.3981 0
M  V30 11477 H 1037.01 -1.93613 -3.40044 0
M  V30 11478 H 1036.63 -0.31615 -3.96341 0
M  V30 11479 N 1037.63 1.44308 -0.633487 0
M  V30 11480 C 1038.58 2.27814 0.0919619 0
M  V30 11481 C 1039.56 1.38798 0.813882 0
M  V30 11482 O 1040.75 1.62587 0.699601 0
M  V30 11483 C 1037.88 3.26158 1.07125 0
M  V30 11484 C 1036.97 4.22663 0.348831 0
M  V30 11485 N 1037.36 5.01938 -0.623854 0
M  V30 11486 C 1035.66 4.42041 0.592958 0
M  V30 11487 C 1036.36 5.72129 -1.05088 0
M  V30 11488 N 1035.33 5.42205 -0.389183 0
M  V30 11489 H 1039.14 2.86515 -0.654721 0
M  V30 11490 H 1036.65 1.55773 -0.459178 0
M  V30 11491 H 1038.65 3.84742 1.60559 0
M  V30 11492 H 1037.31 2.69019 1.81821 0
M  V30 11493 H 1038.32 5.08119 -1.00176 0
M  V30 11494 H 1034.99 3.95997 1.32261 0
M  V30 11495 H 1036.38 6.45797 -1.85461 0
M  V30 11496 N 1039.1 0.374177 1.53094 0
M  V30 11497 C 1040.01 -0.475935 2.29722 0
M  V30 11498 C 1041.03 -1.085 1.36029 0
M  V30 11499 O 1042.21 -1.09408 1.69091 0
M  V30 11500 C 1039.27 -1.59572 3.07795 0
M  V30 11501 C 1038.33 -1.01332 4.17169 0
M  V30 11502 C 1037.57 -2.07975 4.9151 0
M  V30 11503 O 1037.79 -3.29232 4.65793 0
M  V30 11504 O 1036.72 -1.7055 5.77232 0
M  V30 11505 H 1040.55 0.147877 3.0334 0
M  V30 11506 H 1038.13 0.138312 1.48758 0
M  V30 11507 H 1040.02 -2.24658 3.5652 0
M  V30 11508 H 1038.69 -2.20478 2.37005 0
M  V30 11509 H 1037.6 -0.326133 3.72676 0
M  V30 11510 H 1038.93 -0.4487 4.90151 0
M  V30 11511 N 1040.58 -1.57259 0.103575 0
M  V30 11512 C 1041.49 -2.18018 -0.866327 0
M  V30 11513 C 1042.51 -1.15198 -1.30404 0
M  V30 11514 O 1043.68 -1.47605 -1.37021 0
M  V30 11515 C 1040.75 -2.75533 -2.10434 0
M  V30 11516 C 1039.81 -3.93337 -1.72002 0
M  V30 11517 C 1039.04 -4.481 -2.89901 0
M  V30 11518 O 1039.27 -4.01784 -4.04877 0
M  V30 11519 O 1038.2 -5.39004 -2.67877 0
M  V30 11520 H 1042.03 -3.01322 -0.379338 0
M  V30 11521 H 1039.61 -1.48907 -0.121228 0
M  V30 11522 H 1041.49 -3.12259 -2.8297 0
M  V30 11523 H 1040.17 -1.9527 -2.58169 0
M  V30 11524 H 1039.08 -3.61408 -0.966193 0
M  V30 11525 H 1040.41 -4.74989 -1.29022 0
M  V30 11526 N 1042.06 0.170153 -1.56679 0
M  V30 11527 C 1043.3 0.893073 -1.83857 0
M  V30 11528 C 1043.66 1.79378 -0.684661 0
M  V30 11529 O 1044.87 2.55439 -0.836926 0
M  V30 11530 C 1043.14 1.66679 -3.16153 0
M  V30 11531 S 1044.7 2.43831 -3.64818 0
M  V30 11532 H 1041.51 0.299091 -0.645031 0
M  V30 11533 H 1044.12 0.154628 -1.94888 0
M  V30 11534 H 1042.82 0.996152 -3.98127 0
M  V30 11535 H 1042.35 2.44658 -3.08068 0
M  V30 11536 H 1044.37 3.68555 -3.32237 0
M  V30 11537 N 1043.54 1.5137 0.438746 0
M  V30 11538 C 1044.78 1.64211 1.19006 0
M  V30 11539 C 1045.12 0.356607 1.90898 0
M  V30 11540 O 1044.39 -0.643722 1.83539 0
M  V30 11541 C 1044.68 2.8445 2.20817 0
M  V30 11542 C 1044.53 4.22972 1.53018 0
M  V30 11543 C 1045.85 3.00207 3.21813 0
M  V30 11544 H 1042.97 0.597628 0.431288 0
M  V30 11545 H 1045.61 1.8385 0.479487 0
M  V30 11546 H 1043.76 2.67836 2.81418 0
M  V30 11547 H 1045.43 4.5125 0.957654 0
M  V30 11548 H 1043.67 4.25736 0.832556 0
M  V30 11549 H 1044.34 5.03094 2.27158 0
M  V30 11550 H 1046.82 3.15522 2.71266 0
M  V30 11551 H 1045.7 3.85904 3.90345 0
M  V30 11552 H 1045.96 2.12216 3.87836 0
M  V30 11553 N 1045.02 -0.694098 1.41492 0
M  V30 11554 C 1045.96 -1.80801 1.43456 0
M  V30 11555 C 1046.93 -1.63571 0.288757 0
M  V30 11556 O 1048.12 -1.844 0.490017 0
M  V30 11557 C 1045.26 -3.18694 1.32394 0
M  V30 11558 C 1044.37 -3.47346 2.56855 0
M  V30 11559 C 1043.51 -4.74862 2.38075 0
M  V30 11560 C 1042.55 -4.96486 3.58005 0
M  V30 11561 N 1041.68 -6.15229 3.38287 0
M  V30 11562 H 1046.52 -1.78457 2.38657 0
M  V30 11563 H 1044.06 -0.871455 1.18508 0
M  V30 11564 H 1046.02 -3.98352 1.23982 0
M  V30 11565 H 1044.65 -3.20211 0.407999 0
M  V30 11566 H 1043.7 -2.62083 2.75711 0
M  V30 11567 H 1045.01 -3.59226 3.4606 0
M  V30 11568 H 1044.17 -5.62577 2.27139 0
M  V30 11569 H 1042.9 -4.6523 1.46329 0
M  V30 11570 H 1041.91 -4.07219 3.69395 0
M  V30 11571 H 1043.13 -5.07976 4.50708 0
M  V30 11572 H 1041.08 -6.06807 2.49242 0
M  V30 11573 H 1041 -6.27883 4.21069 0
M  V30 11574 H 1042.27 -7.05674 3.31126 0
M  V30 11575 N 1046.49 -1.27344 -0.928501 0
M  V30 11576 C 1047.91 -1.04732 -1.2043 0
M  V30 11577 C 1048.11 0.219623 -2.003 0
M  V30 11578 O 1047.17 0.925333 -2.34934 0
M  V30 11579 C 1048.48 -2.28625 -1.95323 0
M  V30 11580 C 1050.03 -2.33655 -2.08265 0
M  V30 11581 C 1050.5 -3.57275 -2.86563 0
M  V30 11582 N 1051.99 -3.57828 -2.94132 0
M  V30 11583 C 1052.73 -4.50152 -3.55177 0
M  V30 11584 N 1052.22 -5.52779 -4.17621 0
M  V30 11585 N 1054.02 -4.37777 -3.52573 0
M  V30 11586 H 1046.17 -2.08697 -0.394892 0
M  V30 11587 H 1048.43 -0.91782 -0.2373 0
M  V30 11588 H 1048.14 -3.20845 -1.44054 0
M  V30 11589 H 1048.01 -2.33878 -2.95941 0
M  V30 11590 H 1050.4 -1.41942 -2.58721 0
M  V30 11591 H 1050.48 -2.32406 -1.0687 0
M  V30 11592 H 1050.12 -4.49325 -2.3679 0
M  V30 11593 H 1050.05 -3.55775 -3.88242 0
M  V30 11594 H 1052.54 -2.83607 -2.49751 0
M  V30 11595 H 1052.86 -6.19394 -4.62137 0
M  V30 11596 H 1051.2 -5.56622 -4.16169 0
M  V30 11597 H 1054.39 -3.56811 -3.02991 0
M  V30 11598 H 1054.57 -5.09919 -3.99858 0
M  V30 11599 N 1047.97 1.13488 -1.09353 0
M  V30 11600 C 1048.92 2.18876 -0.732251 0
M  V30 11601 C 1049.89 1.63616 0.286175 0
M  V30 11602 O 1051.07 1.90059 0.167981 0
M  V30 11603 C 1048.21 3.44737 -0.158157 0
M  V30 11604 C 1047.33 4.14104 -1.23053 0
M  V30 11605 C 1046.46 5.27578 -0.619272 0
M  V30 11606 C 1045.5 5.88793 -1.67301 0
M  V30 11607 N 1044.64 6.937 -1.08283 0
M  V30 11608 H 1049.48 2.49128 -1.63522 0
M  V30 11609 H 1047.02 1.22326 -0.816995 0
M  V30 11610 H 1048.97 4.16756 0.192488 0
M  V30 11611 H 1047.6 3.14938 0.708082 0
M  V30 11612 H 1046.66 3.40376 -1.69847 0
M  V30 11613 H 1047.97 4.55683 -2.02865 0
M  V30 11614 H 1047.12 6.0631 -0.217428 0
M  V30 11615 H 1045.86 4.87246 0.210399 0
M  V30 11616 H 1044.87 5.08756 -2.0844 0
M  V30 11617 H 1046.09 6.31197 -2.50533 0
M  V30 11618 H 1044.04 6.55426 -0.274426 0
M  V30 11619 H 1043.95 7.33817 -1.81792 0
M  V30 11620 H 1045.22 7.76286 -0.707167 0
M  V30 11621 N 1049.45 0.880621 1.30701 0
M  V30 11622 C 1050.38 0.301443 2.27209 0
M  V30 11623 C 1051.4 -0.541533 1.53529 0
M  V30 11624 O 1052.59 -0.361791 1.74795 0
M  V30 11625 C 1049.69 -0.59038 3.33718 0
M  V30 11626 C 1048.86 0.222549 4.36833 0
M  V30 11627 C 1047.92 -0.599083 5.22779 0
M  V30 11628 O 1046.94 -0.0233267 5.69195 0
M  V30 11629 N 1048.15 -1.90904 5.48211 0
M  V30 11630 H 1050.91 1.13083 2.77547 0
M  V30 11631 H 1048.47 0.743168 1.43835 0
M  V30 11632 H 1050.46 -1.14599 3.88135 0
M  V30 11633 H 1049.03 -1.32044 2.83343 0
M  V30 11634 H 1048.25 0.959606 3.82342 0
M  V30 11635 H 1049.54 0.779965 5.02786 0
M  V30 11636 H 1048.94 -2.3998 5.12275 0
M  V30 11637 H 1047.5 -2.4122 6.05521 0
M  V30 11638 N 1050.93 -1.4397 0.641131 0
M  V30 11639 C 1052.35 -1.56607 0.30762 0
M  V30 11640 C 1052.55 -1.62694 -1.18882 0
M  V30 11641 O 1051.6 -1.57541 -1.97325 0
M  V30 11642 C 1052.91 -2.83289 1.00834 0
M  V30 11643 C 1054.46 -2.97016 0.98744 0
M  V30 11644 C 1054.94 -4.26514 1.66882 0
M  V30 11645 N 1056.43 -4.33351 1.63589 0
M  V30 11646 C 1057.16 -5.32292 2.13196 0
M  V30 11647 N 1056.66 -6.37582 2.71038 0
M  V30 11648 N 1058.45 -5.23866 2.03766 0
M  V30 11649 H 1050.6 -1.38262 1.61237 0
M  V30 11650 H 1052.87 -0.663221 0.677378 0
M  V30 11651 H 1052.57 -2.84812 2.06337 0
M  V30 11652 H 1052.45 -3.73134 0.552333 0
M  V30 11653 H 1054.83 -2.95041 -0.0591395 0
M  V30 11654 H 1054.91 -2.08493 1.48203 0
M  V30 11655 H 1054.56 -4.2925 2.71491 0
M  V30 11656 H 1054.49 -5.13912 1.14898 0
M  V30 11657 H 1056.98 -3.5788 1.21368 0
M  V30 11658 H 1057.29 -7.09378 3.06597 0
M  V30 11659 H 1055.64 -6.38239 2.75093 0
M  V30 11660 H 1058.83 -4.40524 1.58291 0
M  V30 11661 H 1059 -6.00819 2.42737 0
M  V30 11662 N 1052.41 -0.382291 -1.52893 0
M  V30 11663 C 1053.64 0.202114 -2.05609 0
M  V30 11664 C 1054.05 1.4164 -1.25438 0
M  V30 11665 O 1053.39 1.81359 -0.292324 0
M  V30 11666 C 1053.45 0.64356 -3.53693 0
M  V30 11667 C 1053.11 -0.456305 -4.54716 0
M  V30 11668 C 1054.11 -1.3115 -5.03086 0
M  V30 11669 C 1051.8 -0.621329 -4.98442 0
M  V30 11670 C 1053.79 -2.3169 -5.938 0
M  V30 11671 C 1051.48 -1.63008 -5.88958 0
M  V30 11672 C 1052.48 -2.47629 -6.36529 0
M  V30 11673 O 1052.16 -3.46781 -7.25257 0
M  V30 11674 H 1051.9 0.0358014 -0.675051 0
M  V30 11675 H 1054.45 -0.543935 -1.98067 0
M  V30 11676 H 1052.68 1.44148 -3.58829 0
M  V30 11677 H 1054.37 1.15284 -3.89184 0
M  V30 11678 H 1055.13 -1.19528 -4.70041 0
M  V30 11679 H 1051.01 0.027593 -4.60992 0
M  V30 11680 H 1054.56 -2.97776 -6.30853 0
M  V30 11681 H 1050.45 -1.74671 -6.21418 0
M  V30 11682 H 1051.22 -3.42707 -7.433 0
M  V30 11683 N 1053.89 1.57202 -0.111913 0
M  V30 11684 C 1054.8 2.18475 0.854753 0
M  V30 11685 C 1055.81 1.15888 1.29792 0
M  V30 11686 O 1056.99 1.48329 1.36237 0
M  V30 11687 C 1054.05 2.76645 2.0897 0
M  V30 11688 C 1053.11 3.94244 1.69913 0
M  V30 11689 C 1052.35 4.49631 2.8752 0
M  V30 11690 O 1052.57 4.03926 4.02741 0
M  V30 11691 O 1051.5 5.40417 2.65015 0
M  V30 11692 H 1055.33 3.01519 0.363352 0
M  V30 11693 H 1052.91 1.4897 0.113329 0
M  V30 11694 H 1054.8 3.13755 2.81311 0
M  V30 11695 H 1053.47 1.96637 2.5713 0
M  V30 11696 H 1052.38 3.61915 0.947013 0
M  V30 11697 H 1053.71 4.75666 1.26501 0
M  V30 11698 N 1055.36 -0.161842 1.56767 0
M  V30 11699 C 1056.61 -0.878224 1.82798 0
M  V30 11700 C 1056.94 -1.81481 0.691242 0
M  V30 11701 O 1056.22 -1.92075 -0.30618 0
M  V30 11702 C 1056.5 -1.66565 3.19262 0
M  V30 11703 C 1056.35 -0.751551 4.43477 0
M  V30 11704 C 1057.67 -2.63134 3.52773 0
M  V30 11705 H 1054.79 -0.317828 0.664947 0
M  V30 11706 H 1057.43 -0.14402 1.89453 0
M  V30 11707 H 1055.58 -2.29157 3.13719 0
M  V30 11708 H 1057.26 -0.137783 4.61094 0
M  V30 11709 H 1055.5 -0.0601785 4.33758 0
M  V30 11710 H 1056.17 -1.33823 5.35533 0
M  V30 11711 H 1058.65 -2.10666 3.5883 0
M  V30 11712 H 1057.52 -3.15289 4.49315 0
M  V30 11713 H 1057.78 -3.43786 2.77963 0
M  V30 11714 N 1056.84 -1.516 -0.430713 0
M  V30 11715 C 1058.12 -1.55142 -1.19123 0
M  V30 11716 C 1058.5 -0.319596 -2.08667 0
M  V30 11717 O 1057.85 0.694927 -2.17676 0
M  V30 11718 C 1058.06 -2.86891 -1.98732 0
M  V30 11719 C 1059.4 -3.39089 -2.55546 0
M  V30 11720 O 1060.43 -2.88486 -2.08936 0
M  V30 11721 O 1059.29 -4.27401 -3.40574 0
M  V30 11722 H 1056.38 -0.624019 -0.542705 0
M  V30 11723 H 1058.93 -1.63917 -0.439244 0
M  V30 11724 H 1057.7 -3.68002 -1.33005 0
M  V30 11725 H 1057.32 -2.81309 -2.80982 0
M  V30 11726 N 1058.32 0.686584 -1.41858 0
M  V30 11727 C 1059.55 1.47305 -1.44862 0
M  V30 11728 C 1059.96 1.8912 -0.0549286 0
M  V30 11729 O 1059.3 1.57941 0.938101 0
M  V30 11730 C 1059.36 2.76107 -2.30229 0
M  V30 11731 C 1059.03 2.5644 -3.78269 0
M  V30 11732 C 1060.02 2.21803 -4.70212 0
M  V30 11733 C 1057.71 2.71801 -4.22409 0
M  V30 11734 C 1059.7 2.02778 -6.04284 0
M  V30 11735 C 1057.39 2.52392 -5.56544 0
M  V30 11736 C 1058.39 2.17933 -6.47298 0
M  V30 11737 O 1058.08 1.98701 -7.78956 0
M  V30 11738 H 1057.81 0.460174 -0.495193 0
M  V30 11739 H 1060.36 0.852069 -1.86893 0
M  V30 11740 H 1058.59 3.40644 -1.83026 0
M  V30 11741 H 1060.28 3.37947 -2.24826 0
M  V30 11742 H 1061.05 2.09542 -4.37398 0
M  V30 11743 H 1056.93 2.97605 -3.52069 0
M  V30 11744 H 1060.47 1.75805 -6.75084 0
M  V30 11745 H 1056.37 2.64246 -5.88935 0
M  V30 11746 H 1057.13 2.13393 -7.90193 0
M  V30 11747 N 1059.8 1.27835 0.921735 0
M  V30 11748 C 1060.75 1.1092 2.04449 0
M  V30 11749 C 1061.74 0.0306469 1.69372 0
M  V30 11750 O 1062.95 0.188818 1.79007 0
M  V30 11751 H 1059.32 0.341973 0.669745 0
M  V30 11752 H 1061.29 2.06026 2.1586 0
M  V30 11753 C 1060.04 0.779443 3.38851 0
M  V30 11754 H 1059.36 1.60131 3.66331 0
M  V30 11755 H 1060.8 0.700999 4.18165 0
M  V30 11756 C 1059.26 -0.51647 3.32918 0
M  V30 11757 O 1059.79 -1.54914 3.70627 0
M  V30 11758 N 1058 -0.514276 2.86013 0
M  V30 11759 H 1057.55 0.32651 2.55522 0
M  V30 11760 H 1057.5 -1.38141 2.82426 0
M  V30 11761 N 1061.28 -1.12907 1.09954 0
M  V30 11762 C 1062.21 -2.20585 0.765799 0
M  V30 11763 C 1063.19 -1.68117 -0.258989 0
M  V30 11764 O 1064.37 -1.93792 -0.125853 0
M  V30 11765 C 1061.5 -3.46772 0.191435 0
M  V30 11766 C 1060.46 -4.12363 1.14635 0
M  V30 11767 C 1059.78 -5.3294 0.433426 0
M  V30 11768 C 1061.08 -4.59073 2.49096 0
M  V30 11769 H 1062.78 -2.48759 1.66612 0
M  V30 11770 H 1060.32 -1.19563 0.802534 0
M  V30 11771 H 1062.27 -4.21365 -0.0541535 0
M  V30 11772 H 1061 -3.18011 -0.744101 0
M  V30 11773 H 1059.66 -3.39744 1.37731 0
M  V30 11774 H 1059.31 -5.00444 -0.506422 0
M  V30 11775 H 1059.01 -5.77772 1.07018 0
M  V30 11776 H 1060.53 -6.10284 0.196267 0
M  V30 11777 H 1061.94 -5.25063 2.30177 0
M  V30 11778 H 1060.34 -5.14665 3.0861 0
M  V30 11779 H 1061.41 -3.73313 3.0946 0
M  V30 11780 N 1062.75 -0.88754 -1.30232 0
M  V30 11781 C 1063.66 -0.360333 -2.31816 0
M  V30 11782 C 1064.68 0.538741 -1.6545 0
M  V30 11783 O 1065.86 0.431246 -1.96729 0
M  V30 11784 C 1062.92 0.414336 -3.44215 0
M  V30 11785 C 1061.98 -0.514799 -4.26202 0
M  V30 11786 C 1061.21 0.222994 -5.33234 0
M  V30 11787 O 1061.44 1.44871 -5.51696 0
M  V30 11788 O 1060.37 -0.428221 -6.00375 0
M  V30 11789 H 1064.2 -1.20279 -2.78867 0
M  V30 11790 H 1061.78 -0.651459 -1.34448 0
M  V30 11791 H 1063.66 0.852859 -4.12679 0
M  V30 11792 H 1062.34 1.23305 -2.99295 0
M  V30 11793 H 1061.25 -1.00219 -3.60426 0
M  V30 11794 H 1062.58 -1.29959 -4.74733 0
M  V30 11795 N 1064.23 1.43628 -0.648757 0
M  V30 11796 C 1065.64 1.85142 -0.24066 0
M  V30 11797 C 1065.99 1.54304 1.21181 0
M  V30 11798 O 1065.12 0.989792 1.92437 0
M  V30 11799 C 1065.71 3.3606 -0.429999 0
M  V30 11800 C 1064.27 3.76323 -0.0762588 0
M  V30 11801 C 1063.42 2.67382 -0.734999 0
M  V30 11802 H 1066.37 1.33844 -0.852734 0
M  V30 11803 H 1066.39 3.79102 0.325836 0
M  V30 11804 H 1065.9 3.58474 -1.48721 0
M  V30 11805 H 1064.01 3.59521 0.978529 0
M  V30 11806 H 1064.12 4.76498 -0.498612 0
M  V30 11807 H 1062.48 2.54141 -0.168644 0
M  V30 11808 H 1063.27 2.92625 -1.79515 0
M  V30 11809 N 1065.71 0.390394 1.52688 0
M  V30 11810 C 1066.96 -0.191445 2.01593 0
M  V30 11811 C 1067.29 -1.46723 1.27681 0
M  V30 11812 O 1066.54 -1.92248 0.365972 0
M  V30 11813 C 1066.84 -0.50468 3.53819 0
M  V30 11814 C 1066.51 0.679691 4.45748 0
M  V30 11815 C 1065.17 1.0046 4.70597 0
M  V30 11816 C 1067.52 1.47198 4.99982 0
M  V30 11817 C 1064.85 2.12334 5.46929 0
M  V30 11818 C 1067.2 2.58133 5.77538 0
M  V30 11819 C 1065.86 2.91131 6.00665 0
M  V30 11820 H 1065.13 -0.0700548 0.737681 0
M  V30 11821 H 1067.78 0.527965 1.84078 0
M  V30 11822 H 1066.09 -1.30543 3.69413 0
M  V30 11823 H 1067.78 -0.967524 3.89153 0
M  V30 11824 H 1064.37 0.416446 4.26572 0
M  V30 11825 H 1068.56 1.2342 4.80709 0
M  V30 11826 H 1063.81 2.38269 5.63061 0
M  V30 11827 H 1067.99 3.19925 6.18564 0
M  V30 11828 H 1065.61 3.77938 6.59596 0
M  V30 11829 N 1067.19 -1.57141 0.120249 0
M  V30 11830 C 1068.15 -2.14213 -0.815185 0
M  V30 11831 C 1069.15 -1.07731 -1.19376 0
M  V30 11832 O 1070.34 -1.33502 -1.11906 0
M  V30 11833 C 1067.47 -2.68339 -2.10255 0
M  V30 11834 H 1068.67 -2.98197 -0.319166 0
M  V30 11835 H 1066.22 -1.55767 -0.128997 0
M  V30 11836 H 1066.95 -1.87946 -2.64285 0
M  V30 11837 H 1066.74 -3.46216 -1.84057 0
M  V30 11838 H 1068.23 -3.124 -2.77121 0
M  V30 11839 N 1068.67 0.153526 -1.5685 0
M  V30 11840 C 1069.91 0.865519 -1.82629 0
M  V30 11841 C 1070.24 1.81999 -0.700105 0
M  V30 11842 O 1069.51 1.93907 0.278744 0
M  V30 11843 H 1068.09 0.32261 -0.673745 0
M  V30 11844 H 1070.75 0.149088 -1.94329 0
M  V30 11845 H 1069.84 1.43171 -2.77324 0
M  V30 11846 N 1070.14 1.51827 0.422667 0
M  V30 11847 C 1071.07 1.77152 1.52117 0
M  V30 11848 C 1072.06 0.621895 1.58324 0
M  V30 11849 O 1073.24 0.866118 1.73816 0
M  V30 11850 C 1070.37 1.90991 2.90068 0
M  V30 11851 C 1069.32 3.06516 2.98717 0
M  V30 11852 C 1068.65 3.05559 4.38791 0
M  V30 11853 C 1069.95 4.46223 2.71445 0
M  V30 11854 H 1071.64 2.69135 1.31175 0
M  V30 11855 H 1069.19 1.29507 0.629607 0
M  V30 11856 H 1071.14 2.07291 3.6689 0
M  V30 11857 H 1069.87 0.956688 3.12274 0
M  V30 11858 H 1068.53 2.89945 2.24338 0
M  V30 11859 H 1068.17 2.07985 4.57986 0
M  V30 11860 H 1067.87 3.83144 4.45505 0
M  V30 11861 H 1069.4 3.23971 5.17566 0
M  V30 11862 H 1070.81 4.63069 3.37994 0
M  V30 11863 H 1069.21 5.25623 2.89552 0
M  V30 11864 H 1070.28 4.5525 1.6696 0
M  V30 11865 N 1071.62 -0.679052 1.4222 0
M  V30 11866 C 1072.85 -1.46747 1.45852 0
M  V30 11867 C 1073.27 -1.88675 0.0685937 0
M  V30 11868 O 1072.62 -1.57861 -0.915757 0
M  V30 11869 C 1072.67 -2.71935 2.38188 0
M  V30 11870 O 1072.39 -2.31768 3.71773 0
M  V30 11871 C 1073.9 -3.65536 2.50796 0
M  V30 11872 H 1071.12 -0.451682 0.49621 0
M  V30 11873 H 1073.66 -0.834723 1.86689 0
M  V30 11874 H 1071.81 -3.31409 2.00616 0
M  V30 11875 H 1072.23 -3.12579 4.21182 0
M  V30 11876 H 1073.7 -4.50113 3.19535 0
M  V30 11877 H 1074.18 -4.11148 1.54447 0
M  V30 11878 H 1074.79 -3.11957 2.89072 0
M  V30 11879 N 1073.1 -1.28322 -0.914942 0
M  V30 11880 C 1074.51 -1.13937 -1.47903 0
M  V30 11881 C 1074.86 0.271072 -1.94318 0
M  V30 11882 O 1073.99 1.16522 -1.8235 0
M  V30 11883 C 1074.58 -2.06221 -2.68809 0
M  V30 11884 C 1073.14 -1.95903 -3.21402 0
M  V30 11885 C 1072.29 -1.98031 -1.94111 0
M  V30 11886 H 1075.24 -1.41029 -0.727772 0
M  V30 11887 H 1075.26 -1.6255 -3.44031 0
M  V30 11888 H 1074.77 -3.08866 -2.34997 0
M  V30 11889 H 1072.87 -0.962907 -3.59943 0
M  V30 11890 H 1072.99 -2.82799 -3.86732 0
M  V30 11891 H 1071.35 -1.42423 -2.11158 0
M  V30 11892 H 1072.13 -3.02354 -1.62595 0
M  V30 11893 N 1074.58 1.12322 -1.10551 0
M  V30 11894 C 1075.49 2.21678 -0.767862 0
M  V30 11895 C 1076.5 1.72404 0.235132 0
M  V30 11896 O 1077.68 2.01266 0.0735912 0
M  V30 11897 C 1074.75 3.46087 -0.205999 0
M  V30 11898 C 1073.81 4.10195 -1.26642 0
M  V30 11899 C 1073.04 5.28666 -0.731274 0
M  V30 11900 O 1073.26 5.68686 0.44189 0
M  V30 11901 O 1072.2 5.83121 -1.49176 0
M  V30 11902 H 1076.02 2.52955 -1.6807 0
M  V30 11903 H 1073.61 1.2068 -0.880728 0
M  V30 11904 H 1075.49 4.21273 0.103435 0
M  V30 11905 H 1074.16 3.16484 0.679685 0
M  V30 11906 H 1073.07 3.36784 -1.62873 0
M  V30 11907 H 1074.4 4.43957 -2.12516 0
M  V30 11908 N 1076.06 0.894434 1.2976 0
M  V30 11909 C 1077.29 0.532143 1.99629 0
M  V30 11910 C 1077.69 -0.886234 1.6716 0
M  V30 11911 O 1077.04 -1.59573 0.910065 0
M  V30 11912 C 1077.1 0.638335 3.53787 0
M  V30 11913 C 1076.76 2.02273 4.09798 0
M  V30 11914 C 1077.76 2.99327 4.25087 0
M  V30 11915 C 1075.45 2.33069 4.44954 0
M  V30 11916 C 1077.44 4.25304 4.74758 0
M  V30 11917 C 1075.13 3.59289 4.94322 0
M  V30 11918 C 1076.12 4.55222 5.09178 0
M  V30 11919 O 1075.81 5.79202 5.57477 0
M  V30 11920 H 1075.54 0.203326 0.644697 0
M  V30 11921 H 1078.1 1.2043 1.6639 0
M  V30 11922 H 1076.33 -0.0908338 3.86593 0
M  V30 11923 H 1078.02 0.285956 4.04891 0
M  V30 11924 H 1078.78 2.76849 3.9822 0
M  V30 11925 H 1074.66 1.59162 4.32653 0
M  V30 11926 H 1078.21 5.00189 4.86269 0
M  V30 11927 H 1074.1 3.816 5.20626 0
M  V30 11928 H 1074.87 5.81717 5.75802 0
M  V30 11929 N 1077.53 -1.43282 0.656365 0
M  V30 11930 C 1078.47 -2.28049 -0.083127 0
M  V30 11931 C 1079.45 -1.40009 -0.826812 0
M  V30 11932 O 1080.63 -1.69452 -0.825736 0
M  V30 11933 C 1077.76 -3.19487 -1.12452 0
M  V30 11934 C 1076.8 -4.23807 -0.478527 0
M  V30 11935 S 1077.64 -5.30218 0.750248 0
M  V30 11936 C 1078.79 -6.25225 -0.290534 0
M  V30 11937 H 1079.02 -2.90419 0.635922 0
M  V30 11938 H 1076.56 -1.47839 0.445303 0
M  V30 11939 H 1078.52 -3.72713 -1.72034 0
M  V30 11940 H 1077.18 -2.56288 -1.81591 0
M  V30 11941 H 1076.37 -4.87901 -1.26368 0
M  V30 11942 H 1075.97 -3.73975 0.043251 0
M  V30 11943 H 1078.26 -6.67568 -1.15579 0
M  V30 11944 H 1079.21 -7.07397 0.315458 0
M  V30 11945 H 1079.61 -5.60999 -0.627751 0
M  V30 11946 N 1079.01 -0.398486 -1.52479 0
M  V30 11947 C 1079.92 0.439328 -2.3045 0
M  V30 11948 C 1080.94 1.06322 -1.37738 0
M  V30 11949 O 1082.12 1.06704 -1.7081 0
M  V30 11950 C 1079.18 1.54655 -3.10294 0
M  V30 11951 C 1078.24 0.946824 -4.18729 0
M  V30 11952 C 1077.47 2.00129 -4.94757 0
M  V30 11953 O 1077.7 3.2178 -4.70971 0
M  V30 11954 O 1076.63 1.61345 -5.79872 0
M  V30 11955 H 1080.46 -0.196118 -3.03066 0
M  V30 11956 H 1078.04 -0.161961 -1.4852 0
M  V30 11957 H 1079.92 2.18958 -3.60049 0
M  V30 11958 H 1078.6 2.1668 -2.40482 0
M  V30 11959 H 1077.51 0.266802 -3.73147 0
M  V30 11960 H 1078.84 0.370664 -4.90802 0
M  V30 11961 N 1080.49 1.57075 -0.12858 0
M  V30 11962 C 1081.42 2.11553 0.855593 0
M  V30 11963 C 1082.4 1.03435 1.25459 0
M  V30 11964 O 1083.59 1.3115 1.35395 0
M  V30 11965 C 1080.71 2.62012 2.14633 0
M  V30 11966 C 1079.76 3.82105 1.89467 0
M  V30 11967 S 1080.59 5.24033 1.10228 0
M  V30 11968 C 1081.75 5.77867 2.4046 0
M  V30 11969 H 1081.98 2.94701 0.392248 0
M  V30 11970 H 1079.51 1.54164 0.0853746 0
M  V30 11971 H 1081.47 2.91737 2.8879 0
M  V30 11972 H 1080.13 1.79029 2.58084 0
M  V30 11973 H 1079.33 4.15592 2.8513 0
M  V30 11974 H 1078.93 3.53047 1.23427 0
M  V30 11975 H 1081.22 5.88175 3.36238 0
M  V30 11976 H 1082.16 6.75775 2.11504 0
M  V30 11977 H 1082.57 5.05991 2.50266 0
M  V30 11978 N 1081.97 -0.145205 1.5693 0
M  V30 11979 C 1083.22 -0.855955 1.82637 0
M  V30 11980 C 1083.53 -1.82255 0.710109 0
M  V30 11981 O 1084.74 -2.57758 0.852837 0
M  V30 11982 C 1083.19 -1.57278 3.23715 0
M  V30 11983 C 1082.8 -0.648507 4.43281 0
M  V30 11984 C 1084.55 -2.27021 3.58695 0
M  V30 11985 C 1082.45 -1.36706 5.75383 0
M  V30 11986 H 1081.38 -0.323385 0.68113 0
M  V30 11987 H 1084.03 -0.10869 1.83178 0
M  V30 11988 H 1082.42 -2.36574 3.17567 0
M  V30 11989 H 1083.59 0.109355 4.6067 0
M  V30 11990 H 1081.9 -0.0594029 4.16358 0
M  V30 11991 H 1084.5 -2.81423 4.54648 0
M  V30 11992 H 1084.84 -3.03598 2.8484 0
M  V30 11993 H 1085.38 -1.54642 3.66512 0
M  V30 11994 H 1082.12 -0.6431 6.52338 0
M  V30 11995 H 1081.64 -2.09759 5.61926 0
M  V30 11996 H 1083.32 -1.90748 6.18243 0
M  V30 11997 N 1083.45 -1.52049 -0.414609 0
M  V30 11998 C 1084.7 -1.65067 -1.15912 0
M  V30 11999 C 1085.01 -0.383969 -1.91794 0
M  V30 12000 O 1086.22 -0.393872 -2.68628 0
M  V30 12001 C 1084.67 -2.91611 -2.1093 0
M  V30 12002 C 1084.28 -4.25369 -1.4059 0
M  V30 12003 C 1086.02 -3.13992 -2.85674 0
M  V30 12004 C 1083.93 -5.43041 -2.34223 0
M  V30 12005 H 1082.86 -0.614884 -0.436387 0
M  V30 12006 H 1085.51 -1.78533 -0.424072 0
M  V30 12007 H 1083.89 -2.71831 -2.87965 0
M  V30 12008 H 1085.07 -4.55611 -0.689568 0
M  V30 12009 H 1083.38 -4.09047 -0.779088 0
M  V30 12010 H 1085.98 -3.99082 -3.55861 0
M  V30 12011 H 1086.32 -2.27998 -3.48314 0
M  V30 12012 H 1086.86 -3.34217 -2.1574 0
M  V30 12013 H 1083.59 -6.31364 -1.76238 0
M  V30 12014 H 1083.11 -5.17144 -3.03845 0
M  V30 12015 H 1084.79 -5.75901 -2.94868 0
M  V30 12016 N 1084.93 0.6715 -1.42579 0
M  V30 12017 C 1085.86 1.79703 -1.42266 0
M  V30 12018 C 1086.87 1.59599 -0.321268 0
M  V30 12019 O 1088.06 1.68657 -0.584564 0
M  V30 12020 C 1085.16 3.16859 -1.20224 0
M  V30 12021 C 1084.33 3.63783 -2.42859 0
M  V30 12022 C 1083.39 4.79683 -2.16312 0
M  V30 12023 O 1082.42 4.90058 -2.89537 0
M  V30 12024 N 1083.62 5.68622 -1.16831 0
M  V30 12025 H 1086.38 1.80455 -2.39282 0
M  V30 12026 H 1083.95 0.854708 -1.375 0
M  V30 12027 H 1085.94 3.92054 -1.00376 0
M  V30 12028 H 1084.51 3.10987 -0.317188 0
M  V30 12029 H 1083.73 2.7923 -2.78252 0
M  V30 12030 H 1085.02 3.91877 -3.24514 0
M  V30 12031 H 1084.41 5.62894 -0.562746 0
M  V30 12032 H 1082.97 6.43615 -1.0297 0
M  V30 12033 N 1086.4 1.28806 0.908124 0
M  V30 12034 C 1087.65 1.16287 1.65781 0
M  V30 12035 C 1087.98 -0.287389 1.92365 0
M  V30 12036 O 1087.23 -1.22491 1.52625 0
M  V30 12037 C 1087.53 1.91267 3.01914 0
M  V30 12038 C 1087.2 3.41033 2.9497 0
M  V30 12039 C 1085.86 3.81879 2.92783 0
M  V30 12040 C 1088.21 4.36507 2.848 0
M  V30 12041 C 1085.54 5.16529 2.78235 0
M  V30 12042 C 1087.89 5.71237 2.71792 0
M  V30 12043 C 1086.56 6.11351 2.67967 0
M  V30 12044 H 1085.83 0.425526 0.606637 0
M  V30 12045 H 1088.47 1.59646 1.05762 0
M  V30 12046 H 1086.78 1.40474 3.65752 0
M  V30 12047 H 1088.48 1.78992 3.58835 0
M  V30 12048 H 1085.07 3.08561 2.97469 0
M  V30 12049 H 1089.25 4.05909 2.85573 0
M  V30 12050 H 1084.51 5.4673 2.73672 0
M  V30 12051 H 1088.68 6.44872 2.62892 0
M  V30 12052 H 1086.31 7.15637 2.56451 0
M  V30 12053 N 1087.88 -1.11734 1.11145 0
M  V30 12054 C 1089.13 -1.83043 0.856717 0
M  V30 12055 C 1089.45 -1.84901 -0.619407 0
M  V30 12056 O 1088.72 -1.31738 -1.44989 0
M  V30 12057 H 1087.3 -0.677823 0.31395 0
M  V30 12058 H 1089.96 -1.35262 1.40322 0
M  V30 12059 H 1089.06 -2.87005 1.22616 0
M  V30 12060 N 1089.36 -0.901303 -1.29284 0
M  V30 12061 C 1090.61 -0.528043 -1.95494 0
M  V30 12062 C 1090.93 0.92597 -1.71044 0
M  V30 12063 O 1090.19 1.67185 -1.01723 0
M  V30 12064 C 1090.49 -0.768828 -3.49033 0
M  V30 12065 C 1090.15 -2.20045 -3.93562 0
M  V30 12066 C 1088.82 -2.59189 -4.05431 0
M  V30 12067 C 1091.17 -3.13266 -4.1655 0
M  V30 12068 C 1088.5 -3.90733 -4.37658 0
M  V30 12069 C 1090.85 -4.4436 -4.50252 0
M  V30 12070 C 1089.51 -4.83375 -4.60331 0
M  V30 12071 H 1088.78 -0.193225 -0.715364 0
M  V30 12072 H 1091.43 -1.14027 -1.53851 0
M  V30 12073 H 1089.73 -0.0736997 -3.91731 0
M  V30 12074 H 1091.43 -0.459384 -3.9836 0
M  V30 12075 H 1088.02 -1.88666 -3.84842 0
M  V30 12076 H 1092.21 -2.84237 -4.06845 0
M  V30 12077 H 1087.46 -4.2068 -4.43665 0
M  V30 12078 H 1091.64 -5.16618 -4.66989 0
M  V30 12079 H 1089.26 -5.8534 -4.85058 0
M  V30 12080 N 1090.84 1.42931 -0.663954 0
M  V30 12081 C 1092.08 2.01982 -0.182007 0
M  V30 12082 C 1092.42 1.52323 1.20463 0
M  V30 12083 O 1091.69 0.720834 1.80649 0
M  V30 12084 C 1091.97 3.59518 -0.204671 0
M  V30 12085 C 1091.83 4.19382 -1.62599 0
M  V30 12086 C 1093.15 4.37762 0.45308 0
M  V30 12087 H 1090.27 0.733892 -0.0676115 0
M  V30 12088 H 1092.91 1.70092 -0.84668 0
M  V30 12089 H 1091.06 3.86816 0.361295 0
M  V30 12090 H 1092.73 4.03076 -2.24337 0
M  V30 12091 H 1090.97 3.75623 -2.17001 0
M  V30 12092 H 1091.64 5.28496 -1.59362 0
M  V30 12093 H 1094.12 4.1609 -0.0285774 0
M  V30 12094 H 1093 5.47392 0.406538 0
M  V30 12095 H 1093.26 4.1482 1.52895 0
M  V30 12096 N 1092.32 0.406567 1.52266 0
M  V30 12097 C 1093.54 -0.169624 2.06204 0
M  V30 12098 C 1093.96 -1.39076 1.27684 0
M  V30 12099 O 1093.32 -1.79528 0.328023 0
M  V30 12100 C 1093.37 -0.522611 3.57702 0
M  V30 12101 O 1093.09 0.650028 4.33251 0
M  V30 12102 C 1094.59 -1.15281 4.28048 0
M  V30 12103 H 1091.81 -0.0215191 0.670655 0
M  V30 12104 H 1094.35 0.576781 1.96198 0
M  V30 12105 H 1092.51 -1.21891 3.67725 0
M  V30 12106 H 1092.92 0.355989 5.23291 0
M  V30 12107 H 1094.4 -1.35002 5.35237 0
M  V30 12108 H 1094.87 -2.12517 3.84361 0
M  V30 12109 H 1095.48 -0.496786 4.22389 0
M  V30 12110 N 1093.79 -1.57004 0.136909 0
M  V30 12111 C 1094.72 -2.19262 -0.802902 0
M  V30 12112 C 1095.71 -1.13786 -1.26439 0
M  V30 12113 O 1096.89 -1.42091 -1.32377 0
M  V30 12114 C 1094.02 -2.80624 -2.04615 0
M  V30 12115 C 1092.97 -3.91839 -1.72181 0
M  V30 12116 C 1092.3 -4.4009 -3.03686 0
M  V30 12117 C 1093.6 -5.13095 -0.976249 0
M  V30 12118 H 1095.29 -2.98049 -0.28406 0
M  V30 12119 H 1092.84 -1.43364 -0.135189 0
M  V30 12120 H 1094.79 -3.22842 -2.70834 0
M  V30 12121 H 1093.52 -1.99153 -2.58855 0
M  V30 12122 H 1092.18 -3.50224 -1.08344 0
M  V30 12123 H 1091.82 -3.55454 -3.55896 0
M  V30 12124 H 1091.52 -5.15098 -2.82751 0
M  V30 12125 H 1093.05 -4.84971 -3.70993 0
M  V30 12126 H 1094.46 -5.5222 -1.54033 0
M  V30 12127 H 1092.86 -5.93801 -0.867214 0
M  V30 12128 H 1093.93 -4.84888 0.0338488 0
M  V30 12129 N 1095.27 0.136881 -1.57004 0
M  V30 12130 C 1096.52 0.847775 -1.83899 0
M  V30 12131 C 1096.85 1.80709 -0.719332 0
M  V30 12132 O 1096.1 1.93527 0.290838 0
M  V30 12133 C 1096.4 1.64711 -3.17183 0
M  V30 12134 C 1096.07 0.833683 -4.43126 0
M  V30 12135 C 1094.73 0.609306 -4.77327 0
M  V30 12136 C 1097.08 0.265504 -5.20523 0
M  V30 12137 C 1094.41 -0.193793 -5.8638 0
M  V30 12138 C 1096.76 -0.524688 -6.3042 0
M  V30 12139 C 1095.43 -0.759548 -6.63164 0
M  V30 12140 H 1094.7 0.310223 -0.672936 0
M  V30 12141 H 1097.34 0.110937 -1.91178 0
M  V30 12142 H 1095.65 2.45435 -3.054 0
M  V30 12143 H 1097.34 2.20081 -3.3521 0
M  V30 12144 H 1093.93 1.01864 -4.16319 0
M  V30 12145 H 1098.12 0.426109 -4.94467 0
M  V30 12146 H 1093.37 -0.385153 -6.10186 0
M  V30 12147 H 1097.55 -0.972033 -6.89583 0
M  V30 12148 H 1095.18 -1.38369 -7.47501 0
M  V30 12149 N 1096.75 1.52266 0.40654 0
M  V30 12150 C 1098 1.66699 1.15496 0
M  V30 12151 C 1098.33 0.397019 1.90098 0
M  V30 12152 O 1097.6 -0.604646 1.84863 0
M  V30 12153 C 1097.89 2.8907 2.14734 0
M  V30 12154 C 1097.74 4.26123 1.44012 0
M  V30 12155 C 1099.06 3.06966 3.15373 0
M  V30 12156 H 1096.18 0.606642 0.418515 0
M  V30 12157 H 1098.82 1.84826 0.440381 0
M  V30 12158 H 1096.97 2.73745 2.75673 0
M  V30 12159 H 1098.64 4.5318 0.861722 0
M  V30 12160 H 1096.89 4.27406 0.742064 0
M  V30 12161 H 1097.56 5.07799 2.16436 0
M  V30 12162 H 1100.03 3.21205 2.64512 0
M  V30 12163 H 1098.91 3.94097 3.82072 0
M  V30 12164 H 1099.17 2.20395 3.83247 0
M  V30 12165 N 1098.23 -0.663929 1.42933 0
M  V30 12166 C 1099.19 -1.75899 1.46943 0
M  V30 12167 C 1100.19 -1.5682 0.355535 0
M  V30 12168 O 1101.38 -1.62914 0.616833 0
M  V30 12169 C 1098.51 -3.14657 1.31164 0
M  V30 12170 H 1099.71 -1.73727 2.44456 0
M  V30 12171 H 1097.26 -0.874587 1.2954 0
M  V30 12172 H 1097.99 -3.22447 0.346165 0
M  V30 12173 H 1097.78 -3.29909 2.11902 0
M  V30 12174 H 1099.27 -3.9453 1.36878 0
M  V30 12175 N 1099.71 -1.29285 -0.901281 0
M  V30 12176 C 1100.93 -1.20169 -1.69039 0
M  V30 12177 C 1101.36 0.234509 -1.86632 0
M  V30 12178 O 1100.71 1.16935 -1.38549 0
M  V30 12179 C 1100.76 -1.91852 -3.05328 0
M  V30 12180 O 1099.87 -1.23448 -3.9349 0
M  V30 12181 H 1099.21 -0.416486 -0.517141 0
M  V30 12182 H 1101.74 -1.70826 -1.12603 0
M  V30 12183 H 1101.75 -2.00244 -3.5548 0
M  V30 12184 H 1100.42 -2.96313 -2.91841 0
M  V30 12185 H 1099 -1.23303 -3.51924 0
M  V30 12186 N 1101.18 1.11143 -1.11736 0
M  V30 12187 C 1102.43 1.82948 -0.868127 0
M  V30 12188 C 1102.76 1.84813 0.606182 0
M  V30 12189 O 1102.01 1.29901 1.4637 0
M  V30 12190 C 1102.31 3.29733 -1.3788 0
M  V30 12191 C 1101.98 3.48025 -2.86687 0
M  V30 12192 C 1100.64 3.52725 -3.2732 0
M  V30 12193 C 1102.99 3.54024 -3.82513 0
M  V30 12194 C 1100.32 3.60983 -4.62502 0
M  V30 12195 C 1102.67 3.63814 -5.17515 0
M  V30 12196 C 1101.34 3.66776 -5.57702 0
M  V30 12197 H 1100.61 0.669452 -0.31767 0
M  V30 12198 H 1103.25 1.31057 -1.3963 0
M  V30 12199 H 1101.56 3.8414 -0.77093 0
M  V30 12200 H 1103.26 3.83787 -1.16225 0
M  V30 12201 H 1099.85 3.45039 -2.54256 0
M  V30 12202 H 1104.03 3.4965 -3.52219 0
M  V30 12203 H 1099.29 3.61554 -4.9304 0
M  V30 12204 H 1103.46 3.674 -5.916 0
M  V30 12205 H 1101.09 3.72927 -6.62442 0
M  V30 12206 N 1102.66 0.908147 1.28804 0
M  V30 12207 C 1104.07 0.585727 1.77274 0
M  V30 12208 C 1104.42 -0.898842 1.744 0
M  V30 12209 O 1103.55 -1.70301 1.33516 0
M  V30 12210 C 1104.14 1.05647 3.21907 0
M  V30 12211 C 1102.7 0.785066 3.68122 0
M  V30 12212 C 1101.85 1.22638 2.48707 0
M  V30 12213 H 1104.8 1.09 1.15346 0
M  V30 12214 H 1104.82 0.395442 3.7844 0
M  V30 12215 H 1104.33 2.13698 3.23967 0
M  V30 12216 H 1102.44 -0.282477 3.71528 0
M  V30 12217 H 1102.55 1.38888 4.58527 0
M  V30 12218 H 1100.91 0.645217 2.46392 0
M  V30 12219 H 1101.7 2.31512 2.5349 0
M  V30 12220 N 1104.14 -1.42577 0.671525 0
M  V30 12221 C 1105.07 -2.33499 0.00506984 0
M  V30 12222 C 1106.05 -1.50497 -0.792763 0
M  V30 12223 O 1107.24 -1.79109 -0.750574 0
M  V30 12224 C 1104.37 -3.34077 -0.949194 0
M  V30 12225 C 1103.32 -4.27208 -0.260187 0
M  V30 12226 C 1102.65 -5.17968 -1.32716 0
M  V30 12227 C 1103.95 -5.15192 0.858772 0
M  V30 12228 H 1105.64 -2.89477 0.764407 0
M  V30 12229 H 1103.19 -1.39191 0.369043 0
M  V30 12230 H 1105.14 -3.96594 -1.42448 0
M  V30 12231 H 1103.86 -2.76396 -1.73991 0
M  V30 12232 H 1102.52 -3.66082 0.194834 0
M  V30 12233 H 1102.17 -4.56615 -2.10979 0
M  V30 12234 H 1101.87 -5.81104 -0.871293 0
M  V30 12235 H 1103.39 -5.83359 -1.80345 0
M  V30 12236 H 1104.81 -5.71412 0.464844 0
M  V30 12237 H 1103.21 -5.87144 1.24023 0
M  V30 12238 H 1104.28 -4.53787 1.70895 0
M  V30 12239 N 1105.62 -0.414636 -1.52048 0
M  V30 12240 C 1106.58 0.396285 -2.25748 0
M  V30 12241 C 1107.58 0.969003 -1.28324 0
M  V30 12242 O 1108.77 0.847016 -1.52221 0
M  V30 12243 C 1105.9 1.55838 -3.03195 0
M  V30 12244 H 1107.1 -0.249311 -2.98862 0
M  V30 12245 H 1104.65 -0.167276 -1.55402 0
M  V30 12246 H 1105.38 2.24068 -2.34444 0
M  V30 12247 H 1105.17 1.15414 -3.74729 0
M  V30 12248 H 1106.66 2.13187 -3.59084 0
M  V30 12249 N 1107.1 1.56929 -0.145233 0
M  V30 12250 C 1108.51 1.82877 0.375884 0
M  V30 12251 C 1108.86 1.06384 1.64854 0
M  V30 12252 O 1107.98 0.30857 2.14189 0
M  V30 12253 C 1108.58 3.31725 0.688744 0
M  V30 12254 C 1107.14 3.58261 1.15439 0
M  V30 12255 C 1106.28 2.76737 0.176565 0
M  V30 12256 H 1109.24 1.54328 -0.36996 0
M  V30 12257 H 1109.26 3.47784 1.54359 0
M  V30 12258 H 1108.77 3.87371 -0.237694 0
M  V30 12259 H 1106.87 3.08 2.09683 0
M  V30 12260 H 1106.98 4.66732 1.08158 0
M  V30 12261 H 1105.35 2.45761 0.668843 0
M  V30 12262 H 1106.13 3.35154 -0.743432 0
M  V30 12263 N 1108.58 -0.128553 1.57075 0
M  V30 12264 C 1109.51 -1.15953 2.02675 0
M  V30 12265 C 1110.49 -1.43743 0.909501 0
M  V30 12266 O 1111.67 -1.54348 1.17857 0
M  V30 12267 C 1108.8 -2.48813 2.423 0
M  V30 12268 C 1107.76 -2.35506 3.57381 0
M  V30 12269 C 1107.08 -3.73243 3.82875 0
M  V30 12270 C 1108.38 -1.82359 4.89431 0
M  V30 12271 H 1110.08 -0.780283 2.89054 0
M  V30 12272 H 1107.62 -0.373896 1.39061 0
M  V30 12273 H 1109.57 -3.21179 2.72804 0
M  V30 12274 H 1108.3 -2.88609 1.52881 0
M  V30 12275 H 1106.96 -1.6559 3.27071 0
M  V30 12276 H 1106.61 -4.10507 2.90677 0
M  V30 12277 H 1106.31 -3.65195 4.60333 0
M  V30 12278 H 1107.83 -4.47128 4.15823 0
M  V30 12279 H 1109.24 -2.44533 5.18533 0
M  V30 12280 H 1107.64 -1.85156 5.70822 0
M  V30 12281 H 1108.71 -0.780478 4.78578 0
M  V30 12282 N 1110.05 -1.5248 -0.398459 0
M  V30 12283 C 1111.3 -1.67061 -1.14441 0
M  V30 12284 C 1111.63 -0.405821 -1.90219 0
M  V30 12285 O 1110.88 0.611532 -1.859 0
M  V30 12286 C 1111.18 -2.85038 -2.15611 0
M  V30 12287 C 1110.85 -4.22847 -1.56561 0
M  V30 12288 C 1109.51 -4.60329 -1.40182 0
M  V30 12289 C 1111.86 -5.08683 -1.1354 0
M  V30 12290 C 1109.19 -5.81314 -0.793149 0
M  V30 12291 C 1111.54 -6.30284 -0.540866 0
M  V30 12292 C 1110.21 -6.66505 -0.364297 0
M  V30 12293 H 1109.48 -0.611321 -0.418769 0
M  V30 12294 H 1112.12 -1.86604 -0.430241 0
M  V30 12295 H 1110.43 -2.59873 -2.93212 0
M  V30 12296 H 1112.13 -2.93516 -2.73221 0
M  V30 12297 H 1108.72 -3.93316 -1.70295 0
M  V30 12298 H 1112.9 -4.80301 -1.24999 0
M  V30 12299 H 1108.16 -6.07994 -0.64446 0
M  V30 12300 H 1112.33 -6.96115 -0.199167 0
M  V30 12301 H 1109.96 -7.60121 0.109439 0
M  V30 12302 N 1111.53 0.65634 -1.43283 0
M  V30 12303 C 1112.49 1.75117 -1.47874 0
M  V30 12304 C 1113.49 1.56629 -0.363846 0
M  V30 12305 O 1114.68 1.62584 -0.625464 0
M  V30 12306 C 1111.82 3.13957 -1.32831 0
M  V30 12307 H 1113.01 1.72429 -2.45374 0
M  V30 12308 H 1110.56 0.867704 -1.30002 0
M  V30 12309 H 1111.3 3.22259 -0.36326 0
M  V30 12310 H 1111.08 3.28781 -2.13649 0
M  V30 12311 H 1112.57 3.93799 -1.38969 0
M  V30 12312 N 1113.01 1.29761 0.894412 0
M  V30 12313 C 1113.94 1.17902 2.01547 0
M  V30 12314 C 1114.92 0.0719402 1.69948 0
M  V30 12315 O 1116.11 0.252338 1.92554 0
M  V30 12316 C 1113.24 0.860262 3.36477 0
M  V30 12317 C 1112.19 1.92424 3.82305 0
M  V30 12318 C 1111.52 1.45868 5.14419 0
M  V30 12319 C 1112.82 3.33391 4.02054 0
M  V30 12320 H 1114.51 2.11688 2.11727 0
M  V30 12321 H 1112.06 1.01916 1.01731 0
M  V30 12322 H 1114.01 0.763987 4.14417 0
M  V30 12323 H 1112.73 -0.113289 3.26403 0
M  V30 12324 H 1111.39 2.00999 3.06586 0
M  V30 12325 H 1111.04 0.473654 5.00765 0
M  V30 12326 H 1110.74 2.17028 5.46052 0
M  V30 12327 H 1112.26 1.37601 5.94894 0
M  V30 12328 H 1113.68 3.27628 4.7046 0
M  V30 12329 H 1112.07 4.02555 4.4505 0
M  V30 12330 H 1113.14 3.75978 3.06216 0
M  V30 12331 N 1114.49 -1.10549 1.12324 0
M  V30 12332 C 1115.42 -2.18911 0.812416 0
M  V30 12333 C 1116.4 -1.68628 -0.22327 0
M  V30 12334 O 1117.58 -1.94015 -0.0847184 0
M  V30 12335 C 1114.71 -3.46288 0.264947 0
M  V30 12336 C 1113.67 -4.09838 1.23356 0
M  V30 12337 C 1112.99 -5.31901 0.546374 0
M  V30 12338 C 1114.29 -4.53686 2.58778 0
M  V30 12339 H 1115.99 -2.45169 1.71851 0
M  V30 12340 H 1113.53 -1.17834 0.827715 0
M  V30 12341 H 1115.49 -4.21385 0.0352364 0
M  V30 12342 H 1114.21 -3.19517 -0.676479 0
M  V30 12343 H 1112.87 -3.36746 1.44906 0
M  V30 12344 H 1112.52 -5.01406 -0.400157 0
M  V30 12345 H 1112.22 -5.75372 1.19249 0
M  V30 12346 H 1113.74 -6.09731 0.325673 0
M  V30 12347 H 1115.16 -5.20063 2.41263 0
M  V30 12348 H 1113.55 -5.08003 3.19457 0
M  V30 12349 H 1114.62 -3.66665 3.17309 0
M  V30 12350 N 1115.97 -0.914965 -1.28321 0
M  V30 12351 C 1116.91 -0.394477 -2.29231 0
M  V30 12352 C 1117.91 0.514481 -1.61398 0
M  V30 12353 O 1119.11 0.395591 -1.75599 0
M  V30 12354 H 1115.49 -0.108969 -0.744063 0
M  V30 12355 H 1117.46 -1.25862 -2.70557 0
M  V30 12356 C 1116.21 0.349134 -3.45943 0
M  V30 12357 H 1115.53 -0.341087 -3.98342 0
M  V30 12358 H 1116.97 0.677944 -4.18545 0
M  V30 12359 C 1115.43 1.55747 -2.98738 0
M  V30 12360 O 1115.96 2.65654 -3.01315 0
M  V30 12361 N 1114.17 1.40488 -2.54384 0
M  V30 12362 H 1113.71 0.510716 -2.52487 0
M  V30 12363 H 1113.67 2.21464 -2.23161 0
M  V30 12364 N 1117.44 1.42219 -0.679077 0
M  V30 12365 C 1118.39 2.32599 0.00820028 0
M  V30 12366 C 1119.39 1.50059 0.786046 0
M  V30 12367 O 1120.59 1.66103 0.693528 0
M  V30 12368 H 1116.97 0.751694 0.0214483 0
M  V30 12369 H 1118.94 2.88257 -0.77138 0
M  V30 12370 C 1117.69 3.3468 0.942581 0
M  V30 12371 H 1117.01 3.98234 0.353463 0
M  V30 12372 H 1118.45 4.00496 1.39208 0
M  V30 12373 C 1116.91 2.67275 2.05099 0
M  V30 12374 O 1117.44 2.50793 3.13793 0
M  V30 12375 N 1115.64 2.26232 1.82394 0
M  V30 12376 H 1115.19 2.39838 0.939983 0
M  V30 12377 H 1115.15 1.81465 2.56744 0
M  V30 12378 N 1118.92 0.422693 1.51826 0
M  V30 12379 C 1120.17 -0.150066 2.01141 0
M  V30 12380 C 1120.48 -1.45059 1.31214 0
M  V30 12381 O 1121.69 -2.10542 1.71419 0
M  V30 12382 C 1120.15 -0.317985 3.58492 0
M  V30 12383 C 1119.75 0.971244 4.37345 0
M  V30 12384 C 1121.5 -0.845303 4.15999 0
M  V30 12385 C 1119.4 0.769769 5.86369 0
M  V30 12386 H 1118.33 -0.0598567 0.75162 0
M  V30 12387 H 1120.99 0.550217 1.75057 0
M  V30 12388 H 1119.37 -1.08092 3.80962 0
M  V30 12389 H 1120.54 1.74138 4.26629 0
M  V30 12390 H 1118.86 1.42599 3.91222 0
M  V30 12391 H 1121.45 -1.01229 5.2503 0
M  V30 12392 H 1121.8 -1.82375 3.74226 0
M  V30 12393 H 1122.33 -0.141067 3.9755 0
M  V30 12394 H 1119.07 1.72017 6.32527 0
M  V30 12395 H 1118.59 0.0391717 5.99787 0
M  V30 12396 H 1120.27 0.417225 6.45653 0
M  V30 12397 N 1120.4 -1.5685 0.153553 0
M  V30 12398 C 1121.65 -1.95509 -0.495911 0
M  V30 12399 C 1121.96 -1.04129 -1.65579 0
M  V30 12400 O 1123.17 -1.32394 -2.37032 0
M  V30 12401 C 1121.62 -3.47579 -0.933622 0
M  V30 12402 C 1121.23 -4.47555 0.199684 0
M  V30 12403 C 1122.98 -3.95092 -1.55251 0
M  V30 12404 C 1120.88 -5.90843 -0.256663 0
M  V30 12405 H 1119.81 -0.729919 -0.189035 0
M  V30 12406 H 1122.46 -1.81938 0.238947 0
M  V30 12407 H 1120.85 -3.56506 -1.72394 0
M  V30 12408 H 1122.02 -4.50329 0.976744 0
M  V30 12409 H 1120.33 -4.09997 0.727394 0
M  V30 12410 H 1122.93 -4.99588 -1.90567 0
M  V30 12411 H 1123.27 -3.37015 -2.4439 0
M  V30 12412 H 1123.81 -3.89109 -0.826969 0
M  V30 12413 H 1120.55 -6.52753 0.599515 0
M  V30 12414 H 1120.07 -5.91414 -0.999458 0
M  V30 12415 H 1121.75 -6.43131 -0.70649 0
M  V30 12416 N 1121.88 0.120221 -1.57141 0
M  V30 12417 C 1122.79 1.16641 -2.03549 0
M  V30 12418 C 1123.8 1.45407 -0.955656 0
M  V30 12419 O 1124.98 1.56547 -1.26708 0
M  V30 12420 C 1122.04 2.4734 -2.42948 0
M  V30 12421 C 1121.11 2.25982 -3.65008 0
M  V30 12422 C 1120.34 3.50449 -4.02518 0
M  V30 12423 O 1120.56 4.57706 -3.40384 0
M  V30 12424 O 1119.5 3.41524 -4.95626 0
M  V30 12425 H 1123.32 0.802323 -2.9291 0
M  V30 12426 H 1120.91 0.330927 -1.45689 0
M  V30 12427 H 1122.79 3.24348 -2.69029 0
M  V30 12428 H 1121.46 2.83225 -1.56733 0
M  V30 12429 H 1120.37 1.46837 -3.44078 0
M  V30 12430 H 1121.7 1.95002 -4.51924 0
M  V30 12431 N 1123.36 1.52689 0.390367 0
M  V30 12432 C 1124.61 1.6689 1.13272 0
M  V30 12433 C 1124.92 0.414433 1.91159 0
M  V30 12434 O 1126.12 0.436559 2.67967 0
M  V30 12435 C 1124.58 2.94929 2.06264 0
M  V30 12436 C 1124.19 4.27551 1.33805 0
M  V30 12437 C 1125.93 3.18497 2.80642 0
M  V30 12438 C 1123.84 5.46698 2.25554 0
M  V30 12439 H 1122.77 0.621749 0.426549 0
M  V30 12440 H 1125.42 1.79185 0.395615 0
M  V30 12441 H 1123.8 2.76378 2.83604 0
M  V30 12442 H 1124.98 4.56651 0.616997 0
M  V30 12443 H 1123.29 4.10234 0.713913 0
M  V30 12444 H 1125.89 4.04693 3.49467 0
M  V30 12445 H 1126.23 2.33511 3.44642 0
M  V30 12446 H 1126.76 3.37607 2.10395 0
M  V30 12447 H 1123.5 6.34088 1.66171 0
M  V30 12448 H 1123.02 5.21913 2.95579 0
M  V30 12449 H 1124.7 5.80519 2.85668 0
M  V30 12450 N 1124.83 -0.648732 1.43629 0
M  V30 12451 C 1126.25 -0.964917 1.27128 0
M  V30 12452 C 1126.45 -2.00561 0.194251 0
M  V30 12453 O 1125.51 -2.48884 -0.42581 0
M  V30 12454 C 1126.82 -1.44491 2.6371 0
M  V30 12455 C 1128.37 -1.56133 2.71278 0
M  V30 12456 C 1128.84 -2.07521 4.08288 0
M  V30 12457 N 1130.33 -2.14817 4.10375 0
M  V30 12458 C 1131.07 -2.55712 5.13224 0
M  V30 12459 N 1130.56 -2.9587 6.26444 0
M  V30 12460 N 1132.36 -2.55691 5.00578 0
M  V30 12461 H 1124.51 0.0398357 2.12363 0
M  V30 12462 H 1126.77 -0.0447705 0.946942 0
M  V30 12463 H 1126.48 -0.754616 3.43509 0
M  V30 12464 H 1126.35 -2.41914 2.89409 0
M  V30 12465 H 1128.74 -2.24263 1.91808 0
M  V30 12466 H 1128.82 -0.571314 2.49338 0
M  V30 12467 H 1128.46 -1.39992 4.88226 0
M  V30 12468 H 1128.39 -3.07362 4.27594 0
M  V30 12469 H 1130.88 -1.86538 3.28652 0
M  V30 12470 H 1131.2 -3.25837 7.0075 0
M  V30 12471 H 1129.54 -2.93664 6.2991 0
M  V30 12472 H 1132.73 -2.23697 4.1119 0
M  V30 12473 H 1132.91 -2.87239 5.80859 0
M  V30 12474 N 1126.31 -1.30234 -0.887518 0
M  V30 12475 C 1127.24 -1.18969 -2.00919 0
M  V30 12476 C 1128.22 -0.080952 -1.69907 0
M  V30 12477 O 1129.41 -0.262546 -1.92417 0
M  V30 12478 C 1126.54 -0.878094 -3.36016 0
M  V30 12479 C 1125.49 -1.94449 -3.81279 0
M  V30 12480 C 1124.82 -1.48594 -5.13638 0
M  V30 12481 C 1126.12 -3.35519 -4.00281 0
M  V30 12482 H 1127.81 -2.12808 -2.10602 0
M  V30 12483 H 1125.36 -1.02454 -1.01189 0
M  V30 12484 H 1127.31 -0.785954 -4.14006 0
M  V30 12485 H 1126.04 0.0959779 -3.26459 0
M  V30 12486 H 1124.69 -2.02622 -3.05516 0
M  V30 12487 H 1124.34 -0.500204 -5.00507 0
M  V30 12488 H 1124.04 -2.19921 -5.44893 0
M  V30 12489 H 1125.57 -1.40754 -5.94156 0
M  V30 12490 H 1126.98 -3.30119 -4.68716 0
M  V30 12491 H 1125.38 -4.0491 -4.42909 0
M  V30 12492 H 1126.45 -3.77597 -3.04218 0
M  V30 12493 N 1127.79 1.09952 -1.12909 0
M  V30 12494 C 1129.07 1.78547 -0.798767 0
M  V30 12495 C 1129.45 1.9878 0.710624 0
M  V30 12496 O 1128.8 1.58485 1.64604 0
M  V30 12497 C 1129.01 3.1121 -1.57953 0
M  V30 12498 C 1130.35 3.86006 -1.76874 0
M  V30 12499 O 1131.38 3.20946 -1.54506 0
M  V30 12500 O 1130.24 5.02791 -2.14158 0
M  V30 12501 H 1127.33 0.774084 -0.291072 0
M  V30 12502 H 1129.88 1.16557 -1.2334 0
M  V30 12503 H 1128.65 2.91935 -2.60557 0
M  V30 12504 H 1128.27 3.80922 -1.13948 0
M  V30 12505 N 1129.27 0.921757 1.27833 0
M  V30 12506 C 1130.23 0.420978 2.25301 0
M  V30 12507 C 1131.23 -0.457158 1.54165 0
M  V30 12508 O 1132.42 -0.259079 1.72263 0
M  V30 12509 C 1129.55 -0.395501 3.38598 0
M  V30 12510 H 1130.75 1.28206 2.71115 0
M  V30 12511 H 1128.3 0.701893 1.39654 0
M  V30 12512 H 1129.03 -1.27565 2.98157 0
M  V30 12513 H 1128.82 0.234029 3.91401 0
M  V30 12514 H 1130.31 -0.736444 4.11055 0
M  V30 12515 N 1130.75 -1.41857 0.686609 0
M  V30 12516 C 1131.69 -2.30795 0.015643 0
M  V30 12517 C 1132.66 -1.46616 -0.780569 0
M  V30 12518 O 1133.85 -1.75423 -0.750424 0
M  V30 12519 C 1130.99 -3.32577 -0.921229 0
M  V30 12520 C 1130.1 -4.3184 -0.117585 0
M  V30 12521 C 1129.24 -5.20693 -1.05128 0
M  V30 12522 C 1128.28 -6.11629 -0.240018 0
M  V30 12523 N 1127.41 -6.92995 -1.12704 0
M  V30 12524 H 1132.25 -2.87615 0.77985 0
M  V30 12525 H 1129.79 -1.41661 0.396298 0
M  V30 12526 H 1131.75 -3.90129 -1.47836 0
M  V30 12527 H 1130.38 -2.77328 -1.65193 0
M  V30 12528 H 1129.43 -3.7631 0.55634 0
M  V30 12529 H 1130.74 -4.96168 0.511753 0
M  V30 12530 H 1129.9 -5.83035 -1.67795 0
M  V30 12531 H 1128.63 -4.5657 -1.71449 0
M  V30 12532 H 1127.64 -5.48345 0.399779 0
M  V30 12533 H 1128.86 -6.77805 0.419266 0
M  V30 12534 H 1126.81 -6.31489 -1.77644 0
M  V30 12535 H 1126.73 -7.53974 -0.553065 0
M  V30 12536 H 1128 -7.59813 -1.7408 0
M  V30 12537 N 1132.22 -0.430739 -1.51599 0
M  V30 12538 C 1133.17 0.384024 -2.27583 0
M  V30 12539 C 1134.14 1.02254 -1.30895 0
M  V30 12540 O 1135.33 1.0427 -1.59789 0
M  V30 12541 C 1132.47 1.48291 -3.11615 0
M  V30 12542 C 1131.58 0.863187 -4.23288 0
M  V30 12543 C 1130.71 1.93657 -4.94642 0
M  V30 12544 C 1129.75 1.29493 -5.98246 0
M  V30 12545 N 1128.89 2.30939 -6.63032 0
M  V30 12546 H 1133.73 -0.270314 -2.96771 0
M  V30 12547 H 1131.27 -0.145148 -1.46382 0
M  V30 12548 H 1133.23 2.13124 -3.58656 0
M  V30 12549 H 1131.86 2.10697 -2.44554 0
M  V30 12550 H 1130.91 0.103326 -3.8026 0
M  V30 12551 H 1132.22 0.354676 -4.97537 0
M  V30 12552 H 1131.37 2.66167 -5.45197 0
M  V30 12553 H 1130.11 2.4788 -4.20008 0
M  V30 12554 H 1129.12 0.555262 -5.46989 0
M  V30 12555 H 1130.34 0.760122 -6.74833 0
M  V30 12556 H 1128.29 2.84254 -5.91216 0
M  V30 12557 H 1128.21 1.84961 -7.33025 0
M  V30 12558 H 1129.47 3.02953 -7.1822 0
M  V30 12559 N 1133.7 1.56767 -0.161869 0
M  V30 12560 C 1134.95 1.96594 0.485496 0
M  V30 12561 C 1135.28 1.04743 1.63887 0
M  V30 12562 O 1134.53 0.079602 1.95538 0
M  V30 12563 C 1134.83 3.42567 1.01894 0
M  V30 12564 C 1134.5 4.50897 -0.0175419 0
M  V30 12565 C 1133.16 4.80249 -0.302429 0
M  V30 12566 C 1135.51 5.16181 -0.721572 0
M  V30 12567 C 1132.84 5.72187 -1.2969 0
M  V30 12568 C 1135.19 6.09191 -1.70496 0
M  V30 12569 C 1133.86 6.36915 -1.99739 0
M  V30 12570 H 1133.13 0.719388 0.177656 0
M  V30 12571 H 1135.77 1.89837 -0.251839 0
M  V30 12572 H 1134.08 3.4623 1.83391 0
M  V30 12573 H 1135.77 3.70719 1.52867 0
M  V30 12574 H 1132.36 4.28062 0.21468 0
M  V30 12575 H 1136.55 4.93624 -0.514681 0
M  V30 12576 H 1131.8 5.91953 -1.52974 0
M  V30 12577 H 1135.98 6.58849 -2.25591 0
M  V30 12578 H 1133.61 7.07958 -2.76948 0
M  V30 12579 N 1135.18 -0.111886 1.57202 0
M  V30 12580 C 1136.43 -0.819623 1.85499 0
M  V30 12581 C 1136.76 -1.7919 0.748629 0
M  V30 12582 O 1136.03 -1.92952 -0.244918 0
M  V30 12583 C 1136.32 -1.56324 3.24399 0
M  V30 12584 C 1136.17 -0.610081 4.45643 0
M  V30 12585 C 1137.49 -2.51777 3.60966 0
M  V30 12586 H 1134.61 -0.296512 0.674722 0
M  V30 12587 H 1137.25 -0.0836741 1.89816 0
M  V30 12588 H 1135.4 -2.1906 3.2085 0
M  V30 12589 H 1137.07 0.00898038 4.61299 0
M  V30 12590 H 1135.32 0.0778488 4.3373 0
M  V30 12591 H 1135.99 -1.16718 5.39519 0
M  V30 12592 H 1138.46 -1.99143 3.65351 0
M  V30 12593 H 1137.34 -3.00835 4.59118 0
M  V30 12594 H 1137.6 -3.34769 2.8876 0
M  V30 12595 N 1136.66 -1.52894 -0.382264 0
M  V30 12596 C 1137.89 -1.72152 -1.14766 0
M  V30 12597 C 1138.3 -0.442911 -1.83531 0
M  V30 12598 O 1137.66 0.583085 -1.72935 0
M  V30 12599 C 1137.71 -2.87566 -2.19062 0
M  V30 12600 O 1137.43 -4.10478 -1.53099 0
M  V30 12601 C 1138.93 -3.18559 -3.08277 0
M  V30 12602 H 1136.15 -0.576212 -0.343832 0
M  V30 12603 H 1138.7 -1.99571 -0.446273 0
M  V30 12604 H 1136.85 -2.62589 -2.84826 0
M  V30 12605 H 1137.26 -4.74989 -2.22454 0
M  V30 12606 H 1138.74 -4.02763 -3.77473 0
M  V30 12607 H 1139.22 -2.33222 -3.72161 0
M  V30 12608 H 1139.82 -3.454 -2.48151 0
M  V30 12609 N 1138.14 0.641106 -1.43971 0
M  V30 12610 C 1139.05 1.78239 -1.52538 0
M  V30 12611 C 1140.06 1.6906 -0.411668 0
M  V30 12612 O 1141.24 1.90014 -0.66757 0
M  V30 12613 C 1138.3 3.14579 -1.45743 0
M  V30 12614 C 1137.37 3.35464 -2.67885 0
M  V30 12615 C 1136.6 4.65299 -2.61404 0
M  V30 12616 O 1136.82 5.45451 -1.66851 0
M  V30 12617 O 1135.76 4.8817 -3.521 0
M  V30 12618 H 1139.58 1.73965 -2.48937 0
M  V30 12619 H 1137.17 0.801098 -1.26106 0
M  V30 12620 H 1139.05 3.95873 -1.4444 0
M  V30 12621 H 1137.72 3.19417 -0.524837 0
M  V30 12622 H 1136.63 2.53888 -2.74758 0
M  V30 12623 H 1137.96 3.35481 -3.60157 0
M  V30 12624 N 1139.62 1.30703 0.880598 0
M  V30 12625 C 1140.55 1.20033 2.00286 0
M  V30 12626 C 1141.53 0.0899614 1.69862 0
M  V30 12627 O 1142.71 0.272747 1.92275 0
M  V30 12628 C 1139.84 0.895902 3.35546 0
M  V30 12629 C 1138.8 1.96468 3.80242 0
M  V30 12630 C 1138.12 1.51316 5.12843 0
M  V30 12631 C 1139.42 3.37637 3.98496 0
M  V30 12632 H 1141.12 2.13922 2.0947 0
M  V30 12633 H 1138.66 1.02989 1.00644 0
M  V30 12634 H 1140.61 0.807899 4.13583 0
M  V30 12635 H 1139.34 -0.0786636 3.26505 0
M  V30 12636 H 1138 2.0424 3.04437 0
M  V30 12637 H 1137.65 0.52674 5.00234 0
M  V30 12638 H 1137.35 2.22807 5.43719 0
M  V30 12639 H 1138.87 1.43903 5.93401 0
M  V30 12640 H 1140.28 3.326 4.66959 0
M  V30 12641 H 1138.68 4.07253 4.40755 0
M  V30 12642 H 1139.75 3.79205 3.02211 0
M  V30 12643 N 1141.09 -1.09351 1.1349 0
M  V30 12644 C 1142.51 -1.3359 0.873269 0
M  V30 12645 C 1142.71 -1.95432 -0.490767 0
M  V30 12646 O 1141.77 -2.20117 -1.23712 0
M  V30 12647 C 1143.08 -2.24681 1.99847 0
M  V30 12648 C 1144.63 -2.38188 2.03065 0
M  V30 12649 C 1145.1 -3.32615 3.14851 0
M  V30 12650 N 1146.59 -3.40188 3.14366 0
M  V30 12651 C 1147.33 -4.13256 3.97501 0
M  V30 12652 N 1146.82 -4.89114 4.90652 0
M  V30 12653 N 1148.62 -4.08988 3.85597 0
M  V30 12654 H 1140.77 -0.675852 2.0136 0
M  V30 12655 H 1143.03 -0.360268 0.876876 0
M  V30 12656 H 1142.74 -1.86469 2.98198 0
M  V30 12657 H 1142.61 -3.25075 1.91327 0
M  V30 12658 H 1145 -2.75663 1.05327 0
M  V30 12659 H 1145.08 -1.3757 2.15658 0
M  V30 12660 H 1144.72 -2.95863 4.12829 0
M  V30 12661 H 1144.65 -4.33139 2.99496 0
M  V30 12662 H 1147.14 -2.861 2.46892 0
M  V30 12663 H 1147.46 -5.423 5.50573 0
M  V30 12664 H 1145.8 -4.882 4.94657 0
M  V30 12665 H 1148.99 -3.48826 3.12151 0
M  V30 12666 H 1149.17 -4.65671 4.50615 0
M  V30 12667 N 1142.57 -0.928524 -1.27343 0
M  V30 12668 C 1143.99 -0.62889 -1.46687 0
M  V30 12669 C 1144.19 0.821592 -1.83989 0
M  V30 12670 O 1143.24 1.59941 -1.95385 0
M  V30 12671 C 1144.56 -1.57947 -2.55878 0
M  V30 12672 C 1146.1 -1.58778 -2.69738 0
M  V30 12673 C 1146.58 -2.52535 -3.82087 0
M  V30 12674 N 1148.07 -2.50747 -3.89462 0
M  V30 12675 C 1148.81 -3.19981 -4.75814 0
M  V30 12676 N 1148.3 -3.98598 -5.66649 0
M  V30 12677 N 1150.09 -3.08996 -4.69551 0
M  V30 12678 H 1142.25 -1.86625 -1.01414 0
M  V30 12679 H 1144.51 -0.801293 -0.50659 0
M  V30 12680 H 1144.21 -2.61427 -2.35264 0
M  V30 12681 H 1144.09 -1.3218 -3.53282 0
M  V30 12682 H 1146.48 -0.560292 -2.89732 0
M  V30 12683 H 1146.56 -1.88594 -1.72817 0
M  V30 12684 H 1146.2 -3.55395 -3.62846 0
M  V30 12685 H 1146.13 -2.20015 -4.78436 0
M  V30 12686 H 1148.62 -1.93651 -3.24511 0
M  V30 12687 H 1148.93 -4.4841 -6.29403 0
M  V30 12688 H 1147.28 -4.02701 -5.66442 0
M  V30 12689 H 1150.47 -2.4707 -3.97585 0
M  V30 12690 H 1150.64 -3.63223 -5.36631 0
M  V30 12691 N 1144.05 1.41491 -0.694123 0
M  V30 12692 C 1145.46 1.84283 -0.299439 0
M  V30 12693 C 1145.81 1.58081 1.16211 0
M  V30 12694 O 1144.94 1.05051 1.89191 0
M  V30 12695 C 1145.53 3.34522 -0.536696 0
M  V30 12696 C 1144.09 3.7589 -0.195944 0
M  V30 12697 C 1143.24 2.64908 -0.819692 0
M  V30 12698 H 1146.19 1.31063 -0.894884 0
M  V30 12699 H 1146.21 3.79947 0.205062 0
M  V30 12700 H 1145.72 3.53561 -1.6005 0
M  V30 12701 H 1143.82 3.62452 0.863655 0
M  V30 12702 H 1143.94 4.74671 -0.649954 0
M  V30 12703 H 1142.3 2.53476 -0.249412 0
M  V30 12704 H 1143.08 2.86765 -1.88734 0
M  V30 12705 N 1145.53 0.438773 1.51369 0
M  V30 12706 C 1146.77 -0.127401 2.02399 0
M  V30 12707 C 1147.11 -1.42235 1.32223 0
M  V30 12708 O 1146.38 -1.89513 0.437607 0
M  V30 12709 C 1146.66 -0.344673 3.58447 0
M  V30 12710 C 1146.52 0.969027 4.39238 0
M  V30 12711 C 1147.84 -1.11381 4.25773 0
M  V30 12712 H 1144.96 -0.0448281 0.735635 0
M  V30 12713 H 1147.6 0.57805 1.80993 0
M  V30 12714 H 1145.75 -0.945582 3.76817 0
M  V30 12715 H 1147.42 1.60403 4.32514 0
M  V30 12716 H 1145.66 1.57329 4.04265 0
M  V30 12717 H 1146.33 0.771029 5.46589 0
M  V30 12718 H 1148.81 -0.604785 4.11681 0
M  V30 12719 H 1147.69 -1.23459 5.34835 0
M  V30 12720 H 1147.95 -2.14225 3.8673 0
M  V30 12721 N 1147.01 -1.56678 0.170181 0
M  V30 12722 C 1147.97 -2.16698 -0.746622 0
M  V30 12723 C 1148.97 -1.11475 -1.15888 0
M  V30 12724 O 1150.16 -1.36994 -1.07602 0
M  V30 12725 C 1147.29 -2.74892 -2.01612 0
M  V30 12726 H 1148.48 -2.99061 -0.224135 0
M  V30 12727 H 1146.04 -1.56098 -0.0793761 0
M  V30 12728 H 1146.77 -1.96259 -2.58172 0
M  V30 12729 H 1146.56 -3.51896 -1.72949 0
M  V30 12730 H 1148.05 -3.21058 -2.67042 0
M  V30 12731 N 1148.48 0.103547 -1.57259 0
M  V30 12732 C 1149.73 0.809774 -1.85931 0
M  V30 12733 C 1150.06 1.78791 -0.758122 0
M  V30 12734 O 1149.34 1.93079 0.234682 0
M  V30 12735 C 1149.62 1.54601 -3.25224 0
M  V30 12736 C 1149.47 0.586439 -4.45961 0
M  V30 12737 C 1150.79 2.4986 -3.62296 0
M  V30 12738 H 1147.91 0.29293 -0.676285 0
M  V30 12739 H 1150.55 0.0736065 -1.89857 0
M  V30 12740 H 1148.7 2.17355 -3.22008 0
M  V30 12741 H 1150.38 -0.0334441 -4.61288 0
M  V30 12742 H 1148.62 -0.10085 -4.33683 0
M  V30 12743 H 1149.29 1.13855 -5.40131 0
M  V30 12744 H 1151.77 1.97203 -3.66402 0
M  V30 12745 H 1150.64 2.98396 -4.60707 0
M  V30 12746 H 1150.9 3.33233 -2.90531 0
M  V30 12747 N 1149.96 1.53094 0.37415 0
M  V30 12748 C 1151.38 1.42676 0.715246 0
M  V30 12749 C 1151.58 0.558992 1.93591 0
M  V30 12750 O 1150.63 0.0381328 2.52471 0
M  V30 12751 C 1151.95 2.85746 0.936459 0
M  V30 12752 C 1153.49 2.95322 1.03701 0
M  V30 12753 C 1153.97 4.39436 1.29075 0
M  V30 12754 N 1155.46 4.42826 1.35864 0
M  V30 12755 C 1156.2 5.51433 1.57191 0
M  V30 12756 N 1155.69 6.701 1.75891 0
M  V30 12757 N 1157.48 5.38998 1.59491 0
M  V30 12758 H 1149.64 2.08025 -0.428854 0
M  V30 12759 H 1151.9 0.939078 -0.129758 0
M  V30 12760 H 1151.6 3.51523 0.111448 0
M  V30 12761 H 1151.48 3.28887 1.84698 0
M  V30 12762 H 1153.87 2.29704 1.85257 0
M  V30 12763 H 1153.95 2.55588 0.104066 0
M  V30 12764 H 1153.59 5.05625 0.480231 0
M  V30 12765 H 1153.52 4.76735 2.23677 0
M  V30 12766 H 1156.01 3.57301 1.23061 0
M  V30 12767 H 1156.32 7.48643 1.91713 0
M  V30 12768 H 1154.67 6.73102 1.73086 0
M  V30 12769 H 1157.86 4.45257 1.44444 0
M  V30 12770 H 1158.03 6.23705 1.75771 0
M  V30 12771 N 1151.44 -0.633461 1.44309 0
M  V30 12772 C 1152.4 -1.72743 1.50641 0
M  V30 12773 C 1153.4 -1.56031 0.388718 0
M  V30 12774 O 1154.59 -1.61568 0.651251 0
M  V30 12775 C 1151.72 -3.11804 1.37809 0
M  V30 12776 H 1152.92 -1.68503 2.48086 0
M  V30 12777 H 1150.47 -0.846912 1.31366 0
M  V30 12778 H 1151.21 -3.2164 0.414483 0
M  V30 12779 H 1150.99 -3.2534 2.18852 0
M  V30 12780 H 1152.48 -3.91538 1.45216 0
M  V30 12781 N 1152.92 -1.31168 -0.873655 0
M  V30 12782 C 1153.87 -1.18507 -1.98052 0
M  V30 12783 C 1154.84 -0.0717583 -1.65945 0
M  V30 12784 O 1156.02 -0.243965 -1.89234 0
M  V30 12785 C 1153.16 -0.894571 -3.33304 0
M  V30 12786 C 1152.27 -2.09086 -3.7803 0
M  V30 12787 C 1151.41 -1.73747 -5.01982 0
M  V30 12788 C 1150.45 -2.89805 -5.39147 0
M  V30 12789 N 1149.58 -2.54686 -6.54278 0
M  V30 12790 H 1154.42 -2.13193 -2.08213 0
M  V30 12791 H 1151.96 -1.06056 -1.01934 0
M  V30 12792 H 1153.92 -0.706714 -4.11171 0
M  V30 12793 H 1152.55 0.0154449 -3.22796 0
M  V30 12794 H 1151.6 -2.38961 -2.95976 0
M  V30 12795 H 1152.91 -2.95963 -4.01506 0
M  V30 12796 H 1152.07 -1.51402 -5.87505 0
M  V30 12797 H 1150.81 -0.840553 -4.80402 0
M  V30 12798 H 1149.81 -3.12803 -4.52144 0
M  V30 12799 H 1151.04 -3.802 -5.62694 0
M  V30 12800 H 1148.98 -1.67513 -6.34252 0
M  V30 12801 H 1148.9 -3.35093 -6.77679 0
M  V30 12802 H 1150.17 -2.35725 -7.43003 0
M  V30 12803 N 1154.4 1.08748 -1.14068 0
M  V30 12804 C 1155.67 1.7769 -0.81766 0
M  V30 12805 C 1156.05 1.99522 0.689501 0
M  V30 12806 O 1155.4 1.60222 1.62914 0
M  V30 12807 C 1155.61 3.09517 -1.61245 0
M  V30 12808 C 1156.96 3.84108 -1.80958 0
M  V30 12809 O 1157.98 3.19289 -1.57902 0
M  V30 12810 O 1156.84 5.00491 -2.19479 0
M  V30 12811 H 1153.94 0.770953 -0.299265 0
M  V30 12812 H 1156.48 1.15242 -1.24569 0
M  V30 12813 H 1155.25 2.89155 -2.63638 0
M  V30 12814 H 1154.88 3.79692 -1.17982 0
M  V30 12815 N 1155.87 0.935264 1.26849 0
M  V30 12816 C 1157.12 0.575467 1.93317 0
M  V30 12817 C 1157.44 -0.88876 1.74242 0
M  V30 12818 O 1158.64 -1.35767 2.35116 0
M  V30 12819 C 1157.1 0.978433 3.46345 0
M  V30 12820 C 1156.71 2.46386 3.74163 0
M  V30 12821 C 1158.45 0.690249 4.18851 0
M  V30 12822 C 1156.36 2.80584 5.20602 0
M  V30 12823 H 1155.29 0.211506 0.723727 0
M  V30 12824 H 1157.94 1.1371 1.44022 0
M  V30 12825 H 1156.32 0.345379 3.94491 0
M  V30 12826 H 1157.49 3.14547 3.36745 0
M  V30 12827 H 1155.81 2.72473 3.14877 0
M  V30 12828 H 1158.41 0.922151 5.26688 0
M  V30 12829 H 1158.75 -0.372805 4.14627 0
M  V30 12830 H 1159.28 1.28275 3.76551 0
M  V30 12831 H 1156.02 3.85828 5.29921 0
M  V30 12832 H 1155.54 2.1708 5.59139 0
M  V30 12833 H 1157.22 2.68732 5.88551 0
M  V30 12834 N 1157.35 -1.41121 0.701616 0
M  V30 12835 C 1158.6 -2.00733 0.234682 0
M  V30 12836 C 1158.92 -1.55869 -1.17174 0
M  V30 12837 O 1158.19 -0.791965 -1.79178 0
M  V30 12838 H 1156.77 -0.742288 0.0837745 0
M  V30 12839 H 1159.43 -1.7266 0.904127 0
M  V30 12840 H 1158.53 -3.11041 0.256831 0
M  V30 12841 N 1158.83 -0.446794 -1.51134 0
M  V30 12842 C 1160.08 0.118047 -2.01354 0
M  V30 12843 C 1160.39 1.42953 -1.33505 0
M  V30 12844 O 1161.6 2.07788 -1.74747 0
M  V30 12845 C 1160.05 0.260912 -3.58953 0
M  V30 12846 C 1159.66 -1.0407 -4.35745 0
M  V30 12847 C 1161.41 0.779014 -4.17291 0
M  V30 12848 C 1159.31 -0.862958 -5.8507 0
M  V30 12849 H 1158.24 0.0478915 -0.752478 0
M  V30 12850 H 1160.89 -0.577997 -1.74159 0
M  V30 12851 H 1159.28 1.02018 -3.82633 0
M  V30 12852 H 1160.45 -1.80903 -4.23805 0
M  V30 12853 H 1158.77 -1.48805 -3.88904 0
M  V30 12854 H 1161.36 0.928636 -5.26574 0
M  V30 12855 H 1161.71 1.76399 -3.7708 0
M  V30 12856 H 1162.24 0.0778022 -3.97724 0
M  V30 12857 H 1158.98 -1.82059 -6.2971 0
M  V30 12858 H 1158.5 -0.134588 -5.99649 0
M  V30 12859 H 1160.18 -0.51989 -6.44908 0
M  V30 12860 N 1160.31 1.56586 -0.178487 0
M  V30 12861 C 1161.55 1.98159 0.45876 0
M  V30 12862 C 1161.91 1.0629 1.60375 0
M  V30 12863 O 1161.2 0.103975 1.91318 0
M  V30 12864 C 1161.4 3.43629 0.982552 0
M  V30 12865 C 1161.23 4.49565 -0.110152 0
M  V30 12866 C 1160 5.02162 -0.562228 0
M  V30 12867 C 1162.19 5.06129 -0.913143 0
M  V30 12868 N 1160.18 5.91741 -1.63449 0
M  V30 12869 C 1161.55 5.92217 -1.83517 0
M  V30 12870 C 1163.6 4.88608 -0.957421 0
M  V30 12871 C 1162.3 6.6266 -2.79775 0
M  V30 12872 C 1164.33 5.59777 -1.90798 0
M  V30 12873 C 1163.69 6.45599 -2.81747 0
M  V30 12874 H 1159.79 0.770124 0.13577 0
M  V30 12875 H 1162.38 1.92671 -0.280358 0
M  V30 12876 H 1160.55 3.49649 1.69117 0
M  V30 12877 H 1162.28 3.72199 1.58902 0
M  V30 12878 H 1159.03 4.73334 -0.158612 0
M  V30 12879 H 1159.46 6.41235 -2.17132 0
M  V30 12880 H 1164.1 4.21948 -0.268285 0
M  V30 12881 H 1161.82 7.28529 -3.49673 0
M  V30 12882 H 1165.4 5.48204 -1.94844 0
M  V30 12883 H 1164.28 6.99701 -3.54102 0
M  V30 12884 N 1161.79 -0.095206 1.57312 0
M  V30 12885 C 1163.02 -0.811092 1.90013 0
M  V30 12886 C 1163.42 -1.72807 0.770359 0
M  V30 12887 O 1162.77 -1.81755 -0.266615 0
M  V30 12888 C 1162.83 -1.67744 3.17966 0
M  V30 12889 C 1162.49 -0.932301 4.47389 0
M  V30 12890 C 1163.49 -0.262161 5.19239 0
M  V30 12891 C 1161.18 -0.906414 4.94054 0
M  V30 12892 C 1163.17 0.423898 6.35989 0
M  V30 12893 C 1160.86 -0.216569 6.10716 0
M  V30 12894 C 1161.85 0.447408 6.81533 0
M  V30 12895 O 1161.54 1.12619 7.95972 0
M  V30 12896 H 1161.27 -0.237154 0.633035 0
M  V30 12897 H 1163.83 -0.0768976 2.05256 0
M  V30 12898 H 1162.06 -2.45387 2.98868 0
M  V30 12899 H 1163.75 -2.26988 3.36498 0
M  V30 12900 H 1164.51 -0.273621 4.84228 0
M  V30 12901 H 1160.39 -1.41267 4.38822 0
M  V30 12902 H 1163.94 0.942727 6.91201 0
M  V30 12903 H 1159.83 -0.202955 6.45181 0
M  V30 12904 H 1160.6 1.03308 8.11954 0
M  V30 12905 N 1163.26 -1.53291 -0.366026 0
M  V30 12906 C 1164.21 -1.80367 -1.4687 0
M  V30 12907 C 1165.21 -0.672767 -1.55468 0
M  V30 12908 O 1166.41 -0.8557 -1.5836 0
M  V30 12909 H 1162.79 -0.571076 -0.48926 0
M  V30 12910 H 1164.76 -2.72661 -1.21237 0
M  V30 12911 C 1163.51 -2.01008 -2.8371 0
M  V30 12912 H 1162.83 -2.87468 -2.77853 0
M  V30 12913 H 1164.27 -2.2393 -3.60043 0
M  V30 12914 C 1162.73 -0.789054 -3.27529 0
M  V30 12915 O 1163.26 0.0224712 -4.01694 0
M  V30 12916 N 1161.47 -0.612621 -2.84069 0
M  V30 12917 H 1161.01 -1.27416 -2.23881 0
M  V30 12918 H 1160.97 0.202943 -3.13744 0
M  V30 12919 N 1164.74 0.6258 -1.44643 0
M  V30 12920 C 1165.99 1.38125 -1.46984 0
M  V30 12921 C 1166.3 1.95299 -0.108429 0
M  V30 12922 O 1167.51 2.71498 -0.00940005 0
M  V30 12923 C 1165.97 2.50108 -2.58793 0
M  V30 12924 C 1165.57 1.99424 -4.01166 0
M  V30 12925 C 1167.32 3.27269 -2.70361 0
M  V30 12926 C 1165.23 3.08781 -5.04389 0
M  V30 12927 H 1164.16 0.519083 -0.546872 0
M  V30 12928 H 1166.81 0.67268 -1.70726 0
M  V30 12929 H 1165.19 3.23565 -2.28302 0
M  V30 12930 H 1166.36 1.32797 -4.4125 0
M  V30 12931 H 1164.68 1.35063 -3.93887 0
M  V30 12932 H 1167.27 4.08802 -3.44652 0
M  V30 12933 H 1167.62 3.77097 -1.76362 0
M  V30 12934 H 1168.15 2.60905 -3.00289 0
M  V30 12935 H 1164.89 2.63891 -6.00035 0
M  V30 12936 H 1164.41 3.74033 -4.68892 0
M  V30 12937 H 1166.09 3.73469 -5.28328 0
M  V30 12938 N 1166.22 1.31629 0.866686 0
M  V30 12939 C 1167.15 1.22151 1.99001 0
M  V30 12940 C 1168.13 0.107972 1.69757 0
M  V30 12941 O 1169.32 0.293125 1.91975 0
M  V30 12942 C 1166.45 0.93144 3.34577 0
M  V30 12943 C 1165.4 2.0049 3.78137 0
M  V30 12944 C 1164.73 1.56747 5.11209 0
M  V30 12945 C 1166.03 3.41844 3.94892 0
M  V30 12946 H 1167.72 2.16132 2.0719 0
M  V30 12947 H 1165.27 1.04051 0.995463 0
M  V30 12948 H 1167.22 0.851719 4.12703 0
M  V30 12949 H 1165.94 -0.0440289 3.2657 0
M  V30 12950 H 1164.6 2.07457 3.02253 0
M  V30 12951 H 1164.25 0.579767 4.99648 0
M  V30 12952 H 1163.95 2.28562 5.41326 0
M  V30 12953 H 1165.47 1.50188 5.91841 0
M  V30 12954 H 1166.89 3.37534 4.63405 0
M  V30 12955 H 1165.29 4.11905 4.36411 0
M  V30 12956 H 1166.36 3.82389 2.98172 0
M  V30 12957 N 1167.7 -1.08142 1.14644 0
M  V30 12958 C 1169.12 -1.32656 0.887388 0
M  V30 12959 C 1169.32 -1.95942 -0.470012 0
M  V30 12960 O 1168.37 -2.21417 -1.21371 0
M  V30 12961 C 1169.68 -2.22549 2.02219 0
M  V30 12962 C 1171.23 -2.36021 2.0558 0
M  V30 12963 C 1171.71 -3.29257 3.18361 0
M  V30 12964 N 1173.2 -3.36835 3.17957 0
M  V30 12965 C 1173.93 -4.09017 4.01862 0
M  V30 12966 N 1173.43 -4.83882 4.95812 0
M  V30 12967 N 1175.22 -4.04875 3.89913 0
M  V30 12968 H 1167.37 -0.654457 2.02066 0
M  V30 12969 H 1169.64 -0.350947 0.880648 0
M  V30 12970 H 1169.34 -1.83296 3.00159 0
M  V30 12971 H 1169.22 -3.23027 1.94765 0
M  V30 12972 H 1171.6 -2.74531 1.08245 0
M  V30 12973 H 1171.68 -1.35275 2.17105 0
M  V30 12974 H 1171.33 -2.91468 4.15944 0
M  V30 12975 H 1171.26 -4.29938 3.04074 0
M  V30 12976 H 1173.75 -2.83465 2.49912 0
M  V30 12977 H 1174.06 -5.3643 5.56294 0
M  V30 12978 H 1172.41 -4.82926 4.99808 0
M  V30 12979 H 1175.6 -3.45496 3.15833 0
M  V30 12980 H 1175.77 -4.60866 4.55529 0
M  V30 12981 N 1169.18 -0.941978 -1.26351 0
M  V30 12982 C 1170.43 -0.588806 -1.93333 0
M  V30 12983 C 1170.75 0.875067 -1.74263 0
M  V30 12984 O 1170.02 1.62187 -1.09873 0
M  V30 12985 H 1168.6 -0.214774 -0.715459 0
M  V30 12986 H 1171.26 -1.19747 -1.53774 0
M  V30 12987 H 1170.35 -0.807267 -3.01479 0
M  V30 12988 N 1170.66 1.40747 -0.709091 0
M  V30 12989 C 1171.9 2.00233 -0.242836 0
M  V30 12990 C 1172.22 1.56853 1.1686 0
M  V30 12991 O 1173.42 2.08993 1.73304 0
M  V30 12992 C 1171.88 3.57854 -0.383241 0
M  V30 12993 C 1171.49 4.10209 -1.80091 0
M  V30 12994 C 1173.23 4.24494 0.0225511 0
M  V30 12995 C 1171.14 5.60311 -1.89225 0
M  V30 12996 H 1170.07 0.74896 -0.087034 0
M  V30 12997 H 1172.72 1.61064 -0.879243 0
M  V30 12998 H 1171.1 3.94692 0.321642 0
M  V30 12999 H 1172.28 3.84762 -2.53564 0
M  V30 13000 H 1170.59 3.56142 -2.15758 0
M  V30 13001 H 1173.19 5.34694 -0.0250644 0
M  V30 13002 H 1173.53 4.02488 1.06344 0
M  V30 13003 H 1174.06 3.92739 -0.632541 0
M  V30 13004 H 1170.8 5.87162 -2.91412 0
M  V30 13005 H 1170.32 5.87642 -1.20154 0
M  V30 13006 H 1172 6.25306 -1.66136 0
M  V30 13007 N 1172.13 0.454803 1.50895 0
M  V30 13008 C 1173.38 -0.105562 2.01824 0
M  V30 13009 C 1173.7 -1.41673 1.33992 0
M  V30 13010 O 1172.97 -1.89929 0.479994 0
M  V30 13011 H 1171.55 -0.0420011 0.745818 0
M  V30 13012 H 1174.21 0.601504 1.85386 0
M  V30 13013 H 1173.31 -0.268872 3.1094 0
M  V30 13014 N 1173.61 -1.56489 0.186789 0
M  V30 13015 C 1174.56 -2.18703 -0.737402 0
M  V30 13016 C 1175.53 -1.13171 -1.21579 0
M  V30 13017 O 1176.71 -1.41388 -1.28118 0
M  V30 13018 C 1173.85 -2.84394 -1.95484 0
M  V30 13019 C 1172.97 -4.04429 -1.51859 0
M  V30 13020 C 1172.1 -4.58001 -2.69089 0
M  V30 13021 C 1171.14 -5.70412 -2.22029 0
M  V30 13022 N 1170.28 -6.18425 -3.32407 0
M  V30 13023 H 1175.12 -2.97327 -0.200105 0
M  V30 13024 H 1172.65 -1.46842 -0.087032 0
M  V30 13025 H 1174.61 -3.20646 -2.66912 0
M  V30 13026 H 1173.24 -2.08347 -2.46559 0
M  V30 13027 H 1172.29 -3.73895 -0.70048 0
M  V30 13028 H 1173.61 -4.85756 -1.13327 0
M  V30 13029 H 1172.76 -4.96515 -3.48652 0
M  V30 13030 H 1171.5 -3.75764 -3.1089 0
M  V30 13031 H 1170.5 -5.31434 -1.40918 0
M  V30 13032 H 1171.73 -6.54461 -1.81268 0
M  V30 13033 H 1169.68 -5.39113 -3.73755 0
M  V30 13034 H 1169.59 -6.94782 -2.98017 0
M  V30 13035 H 1170.86 -6.61592 -4.12209 0
M  V30 13036 N 1175.09 0.086862 -1.5736 0
M  V30 13037 C 1176.02 1.10538 -2.05678 0
M  V30 13038 C 1177 1.41281 -0.947293 0
M  V30 13039 O 1178.19 1.51169 -1.21908 0
M  V30 13040 C 1175.32 2.42302 -2.48812 0
M  V30 13041 C 1174.27 2.25948 -3.63499 0
M  V30 13042 C 1173.6 3.62961 -3.92637 0
M  V30 13043 C 1174.9 1.69319 -4.94094 0
M  V30 13044 H 1176.59 0.703371 -2.91021 0
M  V30 13045 H 1174.14 0.336895 -1.40004 0
M  V30 13046 H 1176.09 3.13833 -2.81224 0
M  V30 13047 H 1174.81 2.84454 -1.60479 0
M  V30 13048 H 1173.47 1.5686 -3.31347 0
M  V30 13049 H 1173.12 4.02656 -3.01459 0
M  V30 13050 H 1172.82 3.52862 -4.69853 0
M  V30 13051 H 1174.34 4.35946 -4.27531 0
M  V30 13052 H 1175.76 2.30699 -5.24834 0
M  V30 13053 H 1174.15 1.69957 -5.7553 0
M  V30 13054 H 1175.22 0.653318 -4.80479 0
M  V30 13055 N 1176.57 1.53483 0.357892 0
M  V30 13056 C 1177.53 1.79782 1.42166 0
M  V30 13057 C 1178.53 0.668441 1.46248 0
M  V30 13058 O 1179.72 0.936677 1.46874 0
M  V30 13059 C 1176.85 1.92686 2.8122 0
M  V30 13060 H 1178.05 2.74794 1.20117 0
M  V30 13061 H 1175.6 1.44677 0.591468 0
M  V30 13062 H 1176.33 0.997669 3.08573 0
M  V30 13063 H 1176.12 2.74837 2.79655 0
M  V30 13064 H 1177.61 2.14599 3.58242 0
M  V30 13065 N 1178.05 -0.61812 1.44973 0
M  V30 13066 C 1179.29 -1.37944 1.48658 0
M  V30 13067 C 1179.62 -1.93805 0.123749 0
M  V30 13068 O 1178.9 -1.74434 -0.860401 0
M  V30 13069 C 1179.18 -2.53515 2.55739 0
M  V30 13070 C 1179.04 -2.02918 4.01428 0
M  V30 13071 C 1180.35 -3.55674 2.59199 0
M  V30 13072 H 1177.47 -0.500223 0.541244 0
M  V30 13073 H 1180.12 -0.69774 1.76725 0
M  V30 13074 H 1178.27 -3.11669 2.31937 0
M  V30 13075 H 1179.94 -1.49494 4.36405 0
M  V30 13076 H 1178.18 -1.33999 4.12586 0
M  V30 13077 H 1178.85 -2.86181 4.72021 0
M  V30 13078 H 1181.33 -3.07343 2.80499 0
M  V30 13079 H 1180.2 -4.34042 3.36004 0
M  V30 13080 H 1180.46 -4.10601 1.63888 0
M  V30 13081 N 1179.52 -1.32087 -0.859693 0
M  V30 13082 C 1180.77 -1.21716 -1.60836 0
M  V30 13083 C 1181.09 0.220904 -1.94349 0
M  V30 13084 O 1182.29 0.446422 -2.67805 0
M  V30 13085 C 1180.75 -2.13143 -2.89997 0
M  V30 13086 C 1180.36 -3.62003 -2.63928 0
M  V30 13087 C 1182.1 -2.11596 -3.68004 0
M  V30 13088 C 1180.01 -4.45407 -3.89059 0
M  V30 13089 H 1178.94 -0.45199 -0.603507 0
M  V30 13090 H 1181.59 -1.57013 -0.949687 0
M  V30 13091 H 1179.97 -1.70755 -3.57294 0
M  V30 13092 H 1181.14 -4.12701 -2.04974 0
M  V30 13093 H 1179.46 -3.6563 -1.99258 0
M  V30 13094 H 1182.06 -2.71149 -4.6085 0
M  V30 13095 H 1182.4 -1.10568 -4.01348 0
M  V30 13096 H 1182.93 -2.52238 -3.07605 0
M  V30 13097 H 1179.67 -5.4723 -3.60859 0
M  V30 13098 H 1179.19 -3.99462 -4.47427 0
M  V30 13099 H 1180.87 -4.58149 -4.56846 0
M  V30 13100 N 1181 1.07532 -1.15215 0
M  V30 13101 C 1182.25 1.79474 -0.920439 0
M  V30 13102 C 1182.56 1.87593 0.553926 0
M  V30 13103 O 1183.77 2.56037 0.903169 0
M  V30 13104 C 1182.23 3.22509 -1.59738 0
M  V30 13105 C 1181.83 3.22596 -3.10863 0
M  V30 13106 C 1183.58 3.99072 -1.44714 0
M  V30 13107 C 1181.48 4.60273 -3.71352 0
M  V30 13108 H 1180.41 0.672625 -0.340722 0
M  V30 13109 H 1183.07 1.2071 -1.38208 0
M  V30 13110 H 1181.45 3.81454 -1.06342 0
M  V30 13111 H 1182.62 2.73306 -3.70999 0
M  V30 13112 H 1180.94 2.5953 -3.25627 0
M  V30 13113 H 1183.53 5.00823 -1.87299 0
M  V30 13114 H 1183.88 4.14428 -0.394386 0
M  V30 13115 H 1184.41 3.46617 -1.95195 0
M  V30 13116 H 1181.15 4.50122 -4.76519 0
M  V30 13117 H 1180.67 5.09809 -3.15998 0
M  V30 13118 H 1182.35 5.29243 -3.7217 0
M  V30 13119 N 1182.48 0.948665 1.2585 0
M  V30 13120 C 1183.43 0.455115 2.28104 0
M  V30 13121 C 1184.42 -0.471508 1.62706 0
M  V30 13122 O 1185.63 -0.348895 1.76586 0
M  V30 13123 H 1182 0.128659 0.740912 0
M  V30 13124 H 1183.97 1.32991 2.67125 0
M  V30 13125 C 1182.72 -0.25729 3.46747 0
M  V30 13126 H 1182.05 0.44658 3.97298 0
M  V30 13127 H 1183.49 -0.566736 4.20195 0
M  V30 13128 C 1181.95 -1.47772 3.02762 0
M  V30 13129 O 1182.48 -2.57571 3.08253 0
M  V30 13130 N 1180.68 -1.33694 2.5802 0
M  V30 13131 H 1180.23 -0.443595 2.53752 0
M  V30 13132 H 1180.19 -2.1547 2.28954 0
M  V30 13133 N 1183.96 -1.40369 0.716545 0
M  V30 13134 C 1184.92 -2.29083 0.0733105 0
M  V30 13135 C 1185.92 -1.45415 -0.686378 0
M  V30 13136 O 1187.11 -1.66316 -0.518139 0
M  V30 13137 C 1184.24 -3.28639 -0.906032 0
M  V30 13138 H 1185.44 -2.87464 0.85467 0
M  V30 13139 H 1182.99 -1.48706 0.481256 0
M  V30 13140 H 1183.72 -2.75279 -1.71441 0
M  V30 13141 H 1183.51 -3.90405 -0.364163 0
M  V30 13142 H 1185 -3.95066 -1.35324 0
M  V30 13143 N 1185.44 -0.462799 -1.50652 0
M  V30 13144 C 1186.68 0.0950445 -2.02277 0
M  V30 13145 C 1187.01 1.40465 -1.34536 0
M  V30 13146 O 1186.27 1.90283 -0.457279 0
M  V30 13147 C 1186.57 0.335294 -3.55824 0
M  V30 13148 C 1186.23 -0.891589 -4.41997 0
M  V30 13149 C 1184.89 -1.22799 -4.65268 0
M  V30 13150 C 1187.25 -1.70885 -4.9239 0
M  V30 13151 C 1184.57 -2.38186 -5.36175 0
M  V30 13152 C 1186.93 -2.85394 -5.64564 0
M  V30 13153 C 1185.59 -3.19458 -5.86091 0
M  V30 13154 H 1184.86 0.0347793 -0.740183 0
M  V30 13155 H 1187.51 -0.61519 -1.8135 0
M  V30 13156 H 1185.81 1.12769 -3.7522 0
M  V30 13157 H 1187.51 0.780752 -3.93326 0
M  V30 13158 H 1184.1 -0.619495 -4.24099 0
M  V30 13159 H 1188.28 -1.46215 -4.74273 0
M  V30 13160 H 1183.54 -2.64862 -5.51052 0
M  V30 13161 H 1187.71 -3.49073 -6.02595 0
M  V30 13162 H 1185.34 -4.08978 -6.40813 0
M  V30 13163 N 1186.91 1.56388 -0.195085 0
M  V30 13164 C 1188.16 1.97872 0.444344 0
M  V30 13165 C 1188.49 1.0819 1.61271 0
M  V30 13166 O 1187.77 0.133904 1.94039 0
M  V30 13167 C 1188.05 3.48556 0.90449 0
M  V30 13168 C 1187.9 4.49015 -0.265693 0
M  V30 13169 C 1189.22 4.02938 1.76999 0
M  V30 13170 H 1186.34 0.719413 0.160041 0
M  V30 13171 H 1188.98 1.87835 -0.286005 0
M  V30 13172 H 1187.13 3.5724 1.52682 0
M  V30 13173 H 1188.81 4.52368 -0.903363 0
M  V30 13174 H 1187.05 4.23987 -0.917462 0
M  V30 13175 H 1187.72 5.51912 0.0987834 0
M  V30 13176 H 1190.2 3.97033 1.24514 0
M  V30 13177 H 1189.07 5.08741 2.06092 0
M  V30 13178 H 1189.33 3.48197 2.72418 0
M  V30 13179 N 1188.39 -0.0785156 1.57404 0
M  V30 13180 C 1189.64 -0.777722 1.86103 0
M  V30 13181 C 1189.95 -1.79079 0.786771 0
M  V30 13182 O 1191.16 -2.53908 0.961393 0
M  V30 13183 C 1189.62 -1.43407 3.30095 0
M  V30 13184 C 1189.22 -0.459912 4.45633 0
M  V30 13185 C 1190.97 -2.11603 3.68 0
M  V30 13186 C 1188.88 -1.12179 5.80663 0
M  V30 13187 H 1187.81 -0.294205 0.694233 0
M  V30 13188 H 1190.46 -0.0309003 1.83474 0
M  V30 13189 H 1188.84 -2.22892 3.27315 0
M  V30 13190 H 1190.01 0.304642 4.59792 0
M  V30 13191 H 1188.33 0.117242 4.16235 0
M  V30 13192 H 1190.92 -2.61887 4.66175 0
M  V30 13193 H 1191.27 -2.91244 2.9746 0
M  V30 13194 H 1191.8 -1.38958 3.72741 0
M  V30 13195 H 1188.54 -0.365842 6.54478 0
M  V30 13196 H 1188.06 -1.85737 5.70317 0
M  V30 13197 H 1189.74 -1.64355 6.25777 0
M  V30 13198 N 1189.87 -1.5367 -0.349747 0
M  V30 13199 C 1191.1 -1.74858 -1.11532 0
M  V30 13200 C 1191.52 -0.483591 -1.81777 0
M  V30 13201 O 1190.88 0.563399 -1.72324 0
M  V30 13202 C 1190.93 -2.92479 -2.10923 0
M  V30 13203 O 1190.03 -2.62194 -3.18321 0
M  V30 13204 H 1189.37 -0.580219 -0.322865 0
M  V30 13205 H 1191.9 -2.00611 -0.402033 0
M  V30 13206 H 1191.91 -3.19093 -2.54252 0
M  V30 13207 H 1190.59 -3.84228 -1.59191 0
M  V30 13208 H 1189.16 -2.46448 -2.79853 0
M  V30 13209 N 1191.35 0.610423 -1.45298 0
M  V30 13210 C 1192.6 1.36951 -1.49167 0
M  V30 13211 C 1192.92 1.9405 -0.132292 0
M  V30 13212 O 1192.18 1.75363 0.868686 0
M  V30 13213 C 1192.48 2.53812 -2.51623 0
M  V30 13214 C 1192.14 2.14877 -3.96407 0
M  V30 13215 C 1190.81 2.03972 -4.35831 0
M  V30 13216 C 1193.16 1.84448 -4.87472 0
M  V30 13217 C 1190.49 1.60856 -5.64218 0
M  V30 13218 C 1192.84 1.42818 -6.16268 0
M  V30 13219 C 1191.5 1.3047 -6.54625 0
M  V30 13220 H 1190.77 0.501138 -0.54584 0
M  V30 13221 H 1193.42 0.690221 -1.78629 0
M  V30 13222 H 1191.72 3.27066 -2.1572 0
M  V30 13223 H 1193.42 3.12041 -2.51856 0
M  V30 13224 H 1190.01 2.2429 -3.65229 0
M  V30 13225 H 1194.19 1.91771 -4.57753 0
M  V30 13226 H 1189.45 1.49916 -5.92735 0
M  V30 13227 H 1193.62 1.18318 -6.86275 0
M  V30 13228 H 1191.25 0.968347 -7.54007 0
M  V30 13229 N 1192.83 1.32541 0.852676 0
M  V30 13230 C 1194.05 1.2622 1.6394 0
M  V30 13231 C 1194.47 -0.169455 1.88038 0
M  V30 13232 O 1193.83 -1.10719 1.45078 0
M  V30 13233 C 1193.88 2.02062 2.99755 0
M  V30 13234 O 1193.6 3.39641 2.76723 0
M  V30 13235 C 1195.1 2.02787 3.94198 0
M  V30 13236 H 1192.32 0.435405 0.510552 0
M  V30 13237 H 1194.86 1.74696 1.06309 0
M  V30 13238 H 1193.02 1.57303 3.54026 0
M  V30 13239 H 1193.43 3.78484 3.63111 0
M  V30 13240 H 1194.91 2.60333 4.86755 0
M  V30 13241 H 1195.38 1.01464 4.27319 0
M  V30 13242 H 1195.99 2.47504 3.45864 0
M  V30 13243 N 1194.3 -1.0692 1.15784 0
M  V30 13244 C 1195.53 -1.83849 0.959903 0
M  V30 13245 C 1195.95 -1.8169 -0.486873 0
M  V30 13246 O 1195.31 -1.21305 -1.34739 0
M  V30 13247 C 1195.36 -3.28642 1.48414 0
M  V30 13248 O 1194.46 -4.0665 0.686249 0
M  V30 13249 H 1193.81 -0.569115 0.342059 0
M  V30 13250 H 1196.34 -1.34851 1.53871 0
M  V30 13251 H 1196.35 -3.7947 1.49888 0
M  V30 13252 H 1195.02 -3.29529 2.53739 0
M  V30 13253 H 1193.6 -3.65453 0.741501 0
M  V30 13254 N 1195.78 -0.955326 -1.25345 0
M  V30 13255 C 1197.06 -0.527828 -1.88344 0
M  V30 13256 C 1197.44 0.994911 -1.86185 0
M  V30 13257 O 1196.79 1.86099 -1.32587 0
M  V30 13258 C 1197 -1.10525 -3.31037 0
M  V30 13259 C 1198.35 -1.18253 -4.07801 0
M  V30 13260 O 1199.37 -1.05685 -3.4016 0
M  V30 13261 O 1198.23 -1.37978 -5.28795 0
M  V30 13262 H 1195.32 -0.174206 -0.808444 0
M  V30 13263 H 1197.87 -1.0488 -1.3341 0
M  V30 13264 H 1196.64 -2.14847 -3.27042 0
M  V30 13265 H 1196.26 -0.567568 -3.93528 0
M  V30 13266 N 1197.26 1.39987 -0.723979 0
M  V30 13267 C 1198.51 2.00731 -0.267115 0
M  V30 13268 C 1198.84 1.57424 1.14228 0
M  V30 13269 O 1198.09 0.789205 1.79081 0
M  V30 13270 C 1198.39 3.56101 -0.304472 0
M  V30 13271 C 1198.06 4.1902 -1.66533 0
M  V30 13272 C 1196.72 4.3592 -2.03783 0
M  V30 13273 C 1199.07 4.54034 -2.55935 0
M  V30 13274 C 1196.4 4.85119 -3.29964 0
M  V30 13275 C 1198.75 5.04637 -3.81477 0
M  V30 13276 C 1197.41 5.19745 -4.18833 0
M  V30 13277 H 1196.68 0.734525 -0.0977442 0
M  V30 13278 H 1199.33 1.67476 -0.928659 0
M  V30 13279 H 1197.64 3.89314 0.440647 0
M  V30 13280 H 1199.33 4.00944 0.0669875 0
M  V30 13281 H 1195.92 4.0626 -1.36569 0
M  V30 13282 H 1200.11 4.40606 -2.2843 0
M  V30 13283 H 1195.36 4.95001 -3.58865 0
M  V30 13284 H 1199.54 5.30705 -4.50916 0
M  V30 13285 H 1197.16 5.5763 -5.16675 0
M  V30 13286 N 1198.74 0.470782 1.50404 0
M  V30 13287 C 1199.99 -0.0859981 2.01517 0
M  V30 13288 C 1200.3 -1.40811 1.35763 0
M  V30 13289 O 1201.51 -2.04982 1.7803 0
M  V30 13290 C 1199.96 -0.203773 3.59323 0
M  V30 13291 C 1199.57 1.10989 4.34034 0
M  V30 13292 C 1201.32 -0.712528 4.18477 0
M  V30 13293 C 1199.22 0.955928 5.83623 0
M  V30 13294 H 1198.15 -0.0359142 0.753144 0
M  V30 13295 H 1200.8 0.605631 1.73218 0
M  V30 13296 H 1199.19 -0.959177 3.84208 0
M  V30 13297 H 1200.36 1.87623 4.20873 0
M  V30 13298 H 1198.67 1.54973 3.86487 0
M  V30 13299 H 1201.27 -0.844745 5.27985 0
M  V30 13300 H 1201.61 -1.70377 3.79838 0
M  V30 13301 H 1202.15 -0.0145179 3.97797 0
M  V30 13302 H 1198.89 1.92054 6.26734 0
M  V30 13303 H 1198.41 0.22997 5.99359 0
M  V30 13304 H 1200.09 0.622423 6.43999 0
M  V30 13305 N 1200.22 -1.56282 0.203376 0
M  V30 13306 C 1201.63 -1.84146 -0.307752 0
M  V30 13307 C 1201.98 -1.12429 -1.60792 0
M  V30 13308 O 1201.1 -0.387852 -2.12896 0
M  V30 13309 C 1201.7 -3.34053 -0.565152 0
M  V30 13310 C 1200.26 -3.62298 -1.02063 0
M  V30 13311 C 1199.41 -2.77202 -0.0737343 0
M  V30 13312 H 1202.36 -1.52848 0.426983 0
M  V30 13313 H 1202.38 -3.53273 -1.41345 0
M  V30 13314 H 1201.89 -3.86222 0.381301 0
M  V30 13315 H 1199.99 -3.1557 -1.98107 0
M  V30 13316 H 1200.1 -4.70424 -0.907614 0
M  V30 13317 H 1198.47 -2.48074 -0.577169 0
M  V30 13318 H 1199.25 -3.32164 0.86731 0
M  V30 13319 N 1201.7 0.070167 -1.57444 0
M  V30 13320 C 1203.11 0.424991 -1.53838 0
M  V30 13321 C 1203.31 1.79076 -0.923793 0
M  V30 13322 O 1202.37 2.46939 -0.527002 0
M  V30 13323 C 1203.68 0.364562 -2.98482 0
M  V30 13324 C 1205.23 0.444631 -3.09826 0
M  V30 13325 C 1205.7 0.414093 -4.56124 0
M  V30 13326 N 1207.19 0.474119 -4.60767 0
M  V30 13327 C 1207.93 0.472729 -5.71448 0
M  V30 13328 N 1207.43 0.426059 -6.91489 0
M  V30 13329 N 1209.22 0.519408 -5.59695 0
M  V30 13330 H 1201.37 -0.824117 -1.9576 0
M  V30 13331 H 1203.63 -0.309401 -0.896089 0
M  V30 13332 H 1203.34 -0.572343 -3.47012 0
M  V30 13333 H 1203.21 1.17414 -3.5846 0
M  V30 13334 H 1205.6 1.37196 -2.61269 0
M  V30 13335 H 1205.68 -0.393547 -2.52755 0
M  V30 13336 H 1205.32 -0.509394 -5.05339 0
M  V30 13337 H 1205.25 1.26983 -5.11061 0
M  V30 13338 H 1207.75 0.514371 -3.74383 0
M  V30 13339 H 1208.06 0.428969 -7.71609 0
M  V30 13340 H 1206.4 0.392722 -6.9389 0
M  V30 13341 H 1209.59 0.553573 -4.64815 0
M  V30 13342 H 1209.77 0.514856 -6.45951 0
M  V30 13343 N 1203.17 1.53854 0.341593 0
M  V30 13344 C 1204.1 1.84966 1.42513 0
M  V30 13345 C 1205.08 0.704944 1.54805 0
M  V30 13346 O 1206.27 0.957036 1.68981 0
M  V30 13347 C 1203.4 2.06099 2.79536 0
M  V30 13348 C 1202.35 3.21919 2.82049 0
M  V30 13349 C 1201.68 3.28389 4.21977 0
M  V30 13350 C 1202.98 4.59984 2.4741 0
M  V30 13351 H 1204.67 2.7571 1.16724 0
M  V30 13352 H 1202.22 1.32662 0.560073 0
M  V30 13353 H 1204.17 2.26448 3.55386 0
M  V30 13354 H 1202.9 1.12087 3.06764 0
M  V30 13355 H 1201.56 3.01429 2.08653 0
M  V30 13356 H 1201.2 2.3197 4.46317 0
M  V30 13357 H 1200.9 4.0622 4.24569 0
M  V30 13358 H 1202.43 3.50951 4.99666 0
M  V30 13359 H 1203.84 4.80334 3.12973 0
M  V30 13360 H 1202.24 5.40233 2.61282 0
M  V30 13361 H 1203.31 4.6346 1.42594 0
M  V30 13362 N 1204.65 -0.602709 1.4562 0
M  V30 13363 C 1205.9 -1.36359 1.50113 0
M  V30 13364 C 1206.23 -1.93663 0.144297 0
M  V30 13365 O 1205.51 -1.75337 -0.841851 0
M  V30 13366 C 1205.79 -2.50788 2.58413 0
M  V30 13367 C 1205.64 -1.98649 4.03557 0
M  V30 13368 C 1206.96 -3.52905 2.62957 0
M  V30 13369 H 1204.08 -0.494455 0.54652 0
M  V30 13370 H 1206.72 -0.678957 1.77455 0
M  V30 13371 H 1204.87 -3.09191 2.3523 0
M  V30 13372 H 1206.54 -1.44857 4.37966 0
M  V30 13373 H 1204.79 -1.29615 4.13984 0
M  V30 13374 H 1205.46 -2.81159 4.7503 0
M  V30 13375 H 1207.93 -3.0435 2.83743 0
M  V30 13376 H 1206.81 -4.30454 3.40589 0
M  V30 13377 H 1207.07 -4.0884 1.68233 0
M  V30 13378 N 1206.13 -1.32992 -0.845635 0
M  V30 13379 C 1207.36 -1.26903 -1.63031 0
M  V30 13380 C 1207.77 0.163589 -1.88491 0
M  V30 13381 O 1207.11 1.11402 -1.46066 0
M  V30 13382 C 1207.17 -1.96843 -3.00821 0
M  V30 13383 C 1206.84 -3.46164 -2.98362 0
M  V30 13384 C 1207.83 -4.41488 -2.74562 0
M  V30 13385 C 1205.52 -3.88237 -3.18712 0
M  V30 13386 C 1207.51 -5.7686 -2.71129 0
M  V30 13387 C 1205.2 -5.23715 -3.14905 0
M  V30 13388 C 1206.2 -6.17838 -2.91144 0
M  V30 13389 O 1205.89 -7.50836 -2.87228 0
M  V30 13390 H 1205.62 -0.438806 -0.514223 0
M  V30 13391 H 1208.17 -1.75817 -1.06196 0
M  V30 13392 H 1206.4 -1.42511 -3.59482 0
M  V30 13393 H 1208.09 -1.84343 -3.61625 0
M  V30 13394 H 1208.86 -4.10308 -2.58598 0
M  V30 13395 H 1204.74 -3.1539 -3.36229 0
M  V30 13396 H 1208.28 -6.50299 -2.52502 0
M  V30 13397 H 1204.18 -5.54523 -3.30416 0
M  V30 13398 H 1204.94 -7.60304 -3.03118 0
M  V30 13399 N 1207.61 1.06304 -1.1635 0
M  V30 13400 C 1208.54 2.15745 -0.893103 0
M  V30 13401 C 1209.52 1.69341 0.160531 0
M  V30 13402 O 1210.7 1.94196 0.0126526 0
M  V30 13403 C 1207.83 3.45066 -0.393287 0
M  V30 13404 C 1206.79 4.04978 -1.38482 0
M  V30 13405 C 1206.11 5.29507 -0.743409 0
M  V30 13406 C 1207.41 4.4377 -2.75438 0
M  V30 13407 H 1209.11 2.38622 -1.80831 0
M  V30 13408 H 1206.65 1.14681 -0.870878 0
M  V30 13409 H 1208.61 4.20964 -0.191607 0
M  V30 13410 H 1207.33 3.21808 0.557426 0
M  V30 13411 H 1205.99 3.31136 -1.57304 0
M  V30 13412 H 1205.64 5.02545 0.213787 0
M  V30 13413 H 1205.34 5.7055 -1.40521 0
M  V30 13414 H 1206.86 6.08102 -0.551746 0
M  V30 13415 H 1208.28 5.1075 -2.60398 0
M  V30 13416 H 1206.67 4.95797 -3.38091 0
M  V30 13417 H 1207.74 3.54636 -3.30699 0
M  V30 13418 N 1209.09 0.96196 1.24836 0
M  V30 13419 C 1210.32 0.637214 1.96528 0
M  V30 13420 C 1210.72 -0.79638 1.71623 0
M  V30 13421 O 1210.07 -1.54524 0.993372 0
M  V30 13422 C 1210.13 0.824972 3.49906 0
M  V30 13423 C 1209.79 2.23711 3.985 0
M  V30 13424 C 1210.79 3.21439 4.08623 0
M  V30 13425 C 1208.47 2.56327 4.31974 0
M  V30 13426 C 1210.47 4.49872 4.51546 0
M  V30 13427 C 1208.16 3.84987 4.74582 0
M  V30 13428 C 1209.15 4.81572 4.84332 0
M  V30 13429 O 1208.84 6.07938 5.25991 0
M  V30 13430 H 1208.57 0.237214 0.633013 0
M  V30 13431 H 1211.13 1.29081 1.59773 0
M  V30 13432 H 1209.36 0.114219 3.86531 0
M  V30 13433 H 1211.05 0.500179 4.02806 0
M  V30 13434 H 1211.81 2.97569 3.82985 0
M  V30 13435 H 1207.69 1.81872 4.23608 0
M  V30 13436 H 1211.24 5.25261 4.59071 0
M  V30 13437 H 1207.13 4.08661 4.99666 0
M  V30 13438 H 1207.9 6.11421 5.44157 0
M  V30 13439 N 1210.56 -1.39601 0.731392 0
M  V30 13440 C 1211.5 -2.28169 0.0378735 0
M  V30 13441 C 1212.47 -1.44195 -0.751434 0
M  V30 13442 O 1213.66 -1.7359 -0.734753 0
M  V30 13443 C 1210.79 -3.24999 -0.953589 0
M  V30 13444 C 1209.83 -4.25748 -0.253203 0
M  V30 13445 S 1210.66 -5.25496 1.03025 0
M  V30 13446 C 1211.82 -6.25886 0.0412927 0
M  V30 13447 H 1212.05 -2.8664 0.788973 0
M  V30 13448 H 1209.59 -1.45271 0.523044 0
M  V30 13449 H 1211.54 -3.81308 -1.52035 0
M  V30 13450 H 1210.21 -2.65554 -1.6775 0
M  V30 13451 H 1209.4 -4.93913 -1.00328 0
M  V30 13452 H 1209 -3.7322 0.241426 0
M  V30 13453 H 1211.29 -6.72757 -0.800305 0
M  V30 13454 H 1212.24 -7.0473 0.68999 0
M  V30 13455 H 1212.64 -5.63538 -0.329495 0
M  V30 13456 N 1212.04 -0.478751 -1.50152 0
M  V30 13457 C 1213.27 0.0709455 -2.06478 0
M  V30 13458 C 1213.68 1.33376 -1.34192 0
M  V30 13459 O 1213.02 1.79133 -0.40707 0
M  V30 13460 C 1213.09 0.417322 -3.5707 0
M  V30 13461 C 1212.75 -0.744563 -4.50894 0
M  V30 13462 C 1213.75 -1.62879 -4.93727 0
M  V30 13463 C 1211.43 -0.937062 -4.93482 0
M  V30 13464 C 1213.43 -2.68985 -5.77863 0
M  V30 13465 C 1211.11 -2.00134 -5.77399 0
M  V30 13466 C 1212.11 -2.87609 -6.19492 0
M  V30 13467 O 1211.8 -3.92203 -7.01735 0
M  V30 13468 H 1211.53 -0.00720177 -0.675962 0
M  V30 13469 H 1214.08 -0.668797 -1.94207 0
M  V30 13470 H 1212.31 1.21036 -3.6727 0
M  V30 13471 H 1214 0.903002 -3.95728 0
M  V30 13472 H 1214.77 -1.49179 -4.61488 0
M  V30 13473 H 1210.65 -0.265636 -4.60234 0
M  V30 13474 H 1214.19 -3.37293 -6.10639 0
M  V30 13475 H 1210.09 -2.13837 -6.09052 0
M  V30 13476 H 1210.86 -3.89284 -7.2 0
M  V30 13477 N 1213.52 1.56172 -0.211661 0
M  V30 13478 C 1214.75 2.02874 0.430905 0
M  V30 13479 C 1215.17 1.09064 1.53254 0
M  V30 13480 O 1214.53 0.0770408 1.81136 0
M  V30 13481 C 1214.58 3.4789 0.948933 0
M  V30 13482 O 1213.68 3.57213 2.0609 0
M  V30 13483 H 1213.02 0.656614 0.0987607 0
M  V30 13484 H 1215.55 2.01964 -0.327399 0
M  V30 13485 H 1215.56 3.88015 1.2613 0
M  V30 13486 H 1214.24 4.15656 0.142584 0
M  V30 13487 H 1212.81 3.28971 1.75592 0
M  V30 13488 N 1215 -0.0618163 1.57479 0
M  V30 13489 C 1215.95 -1.0724 2.04373 0
M  V30 13490 C 1216.92 -1.37875 0.926271 0
M  V30 13491 O 1218.1 -1.48772 1.19463 0
M  V30 13492 C 1215.24 -2.37805 2.50085 0
M  V30 13493 C 1214.35 -2.13614 3.7549 0
M  V30 13494 C 1213.49 -3.37814 4.09945 0
M  V30 13495 C 1212.53 -3.09032 5.28361 0
M  V30 13496 N 1211.66 -4.25591 5.58406 0
M  V30 13497 H 1216.5 -0.665536 2.90473 0
M  V30 13498 H 1214.04 -0.317043 1.43643 0
M  V30 13499 H 1216 -3.14048 2.74644 0
M  V30 13500 H 1214.63 -2.76275 1.66948 0
M  V30 13501 H 1213.68 -1.28017 3.58212 0
M  V30 13502 H 1214.99 -1.88361 4.61867 0
M  V30 13503 H 1214.15 -4.22447 4.35458 0
M  V30 13504 H 1212.89 -3.66153 3.22154 0
M  V30 13505 H 1211.89 -2.22797 5.02635 0
M  V30 13506 H 1213.12 -2.82006 6.17778 0
M  V30 13507 H 1211.06 -4.53941 4.73575 0
M  V30 13508 H 1210.98 -4.03646 6.39223 0
M  V30 13509 H 1212.25 -5.11191 5.88476 0
M  V30 13510 N 1216.48 -1.54033 -0.333429 0
M  V30 13511 C 1217.42 -1.83441 -1.43011 0
M  V30 13512 C 1218.42 -0.705592 -1.54006 0
M  V30 13513 O 1219.62 -0.889098 -1.56509 0
M  V30 13514 H 1216 -0.581326 -0.477037 0
M  V30 13515 H 1217.97 -2.75172 -1.15426 0
M  V30 13516 C 1216.72 -2.0698 -2.79382 0
M  V30 13517 H 1216.04 -2.93297 -2.71692 0
M  V30 13518 H 1217.48 -2.31517 -3.55212 0
M  V30 13519 C 1215.94 -0.85835 -3.25782 0
M  V30 13520 O 1216.47 -0.062739 -4.01651 0
M  V30 13521 N 1214.68 -0.672738 -2.82706 0
M  V30 13522 H 1214.22 -1.32136 -2.21128 0
M  V30 13523 H 1214.18 0.136347 -3.14104 0
M  V30 13524 N 1217.95 0.594978 -1.45938 0
M  V30 13525 C 1219.2 1.35093 -1.50314 0
M  V30 13526 C 1219.52 1.94412 -0.151315 0
M  V30 13527 O 1218.79 1.77876 0.820787 0
M  V30 13528 H 1217.37 0.501549 -0.553586 0
M  V30 13529 H 1220.04 0.697735 -1.81983 0
M  V30 13530 H 1219.13 2.16393 -2.24901 0
M  V30 13531 N 1219.43 1.33438 0.838571 0
M  V30 13532 C 1220.66 1.27951 1.62592 0
M  V30 13533 C 1221.08 -0.149502 1.88207 0
M  V30 13534 O 1220.43 -1.09174 1.46244 0
M  V30 13535 C 1220.48 2.0523 2.97595 0
M  V30 13536 O 1220.2 3.42557 2.73105 0
M  V30 13537 C 1221.71 2.06957 3.92025 0
M  V30 13538 H 1218.93 0.440796 0.505905 0
M  V30 13539 H 1221.47 1.75814 1.0445 0
M  V30 13540 H 1219.62 1.61049 3.52338 0
M  V30 13541 H 1220.04 3.82314 3.59076 0
M  V30 13542 H 1221.51 2.65481 4.83967 0
M  V30 13543 H 1221.99 1.0599 4.26219 0
M  V30 13544 H 1222.6 2.51158 3.4322 0
M  V30 13545 N 1220.91 -1.05686 1.16912 0
M  V30 13546 C 1221.84 -2.12775 0.824755 0
M  V30 13547 C 1222.82 -1.61286 -0.206289 0
M  V30 13548 O 1224.01 -1.8829 -0.0889616 0
M  V30 13549 C 1221.13 -3.37922 0.229422 0
M  V30 13550 C 1220.18 -4.08226 1.23506 0
M  V30 13551 S 1221.01 -4.57424 2.78431 0
M  V30 13552 C 1222.17 -5.85825 2.20364 0
M  V30 13553 H 1222.4 -2.41657 1.73174 0
M  V30 13554 H 1219.93 -1.18212 0.99324 0
M  V30 13555 H 1221.89 -4.10359 -0.107588 0
M  V30 13556 H 1220.55 -3.07186 -0.655424 0
M  V30 13557 H 1219.75 -4.98129 0.767059 0
M  V30 13558 H 1219.35 -3.41832 1.51747 0
M  V30 13559 H 1221.64 -6.58912 1.57611 0
M  V30 13560 H 1222.58 -6.37364 3.08501 0
M  V30 13561 H 1222.99 -5.4015 1.64008 0
M  V30 13562 N 1222.39 -0.968567 -1.24324 0
M  V30 13563 C 1223.34 -0.470481 -2.23093 0
M  V30 13564 C 1224.32 0.447989 -1.54538 0
M  V30 13565 O 1225.51 0.27877 -1.74791 0
M  V30 13566 C 1222.64 0.237222 -3.42479 0
M  V30 13567 C 1221.73 -0.700126 -4.18281 0
M  V30 13568 N 1222.12 -1.83775 -4.71233 0
M  V30 13569 C 1220.42 -0.51108 -4.43062 0
M  V30 13570 C 1221.12 -2.42411 -5.28783 0
M  V30 13571 N 1220.1 -1.70918 -5.16031 0
M  V30 13572 H 1223.9 -1.33848 -2.61652 0
M  V30 13573 H 1221.41 -0.827764 -1.39721 0
M  V30 13574 H 1223.41 0.61128 -4.12394 0
M  V30 13575 H 1222.07 1.10166 -3.0544 0
M  V30 13576 H 1223.08 -2.21926 -4.67942 0
M  V30 13577 H 1219.76 0.309316 -4.16353 0
M  V30 13578 H 1221.15 -3.38417 -5.80451 0
M  V30 13579 N 1223.87 1.39211 -0.738786 0
M  V30 13580 C 1225.11 2.0004 -0.28782 0
M  V30 13581 C 1225.44 1.58921 1.13 0
M  V30 13582 O 1224.71 0.839193 1.77015 0
M  V30 13583 H 1223.29 0.739805 -0.103425 0
M  V30 13584 H 1225.95 1.70202 -0.949587 0
M  V30 13585 H 1225.04 3.10251 -0.339208 0
M  V30 13586 N 1225.34 0.486708 1.49896 0
M  V30 13587 C 1226.59 -0.062852 2.02402 0
M  V30 13588 C 1226.92 -1.38306 1.36754 0
M  V30 13589 O 1226.17 -1.89531 0.487493 0
M  V30 13590 C 1226.47 -0.278643 3.56312 0
M  V30 13591 C 1226.14 0.961794 4.40523 0
M  V30 13592 C 1224.8 1.30185 4.63255 0
M  V30 13593 C 1227.15 1.78697 4.89609 0
M  V30 13594 C 1224.48 2.46686 5.32318 0
M  V30 13595 C 1226.83 2.9434 5.59953 0
M  V30 13596 C 1225.5 3.28742 5.80935 0
M  V30 13597 H 1224.77 -0.0229992 0.740643 0
M  V30 13598 H 1227.41 0.643963 1.80348 0
M  V30 13599 H 1225.72 -1.06785 3.76967 0
M  V30 13600 H 1227.42 -0.718078 3.94518 0
M  V30 13601 H 1224.01 0.686887 4.2306 0
M  V30 13602 H 1228.19 1.53742 4.71887 0
M  V30 13603 H 1223.45 2.73596 5.46768 0
M  V30 13604 H 1227.62 3.58616 5.96965 0
M  V30 13605 H 1225.25 4.19121 6.34225 0
M  V30 13606 N 1226.82 -1.56058 0.219941 0
M  V30 13607 C 1228.07 -1.98554 -0.412808 0
M  V30 13608 C 1228.4 -1.10742 -1.5953 0
M  V30 13609 O 1227.68 -0.164757 -1.93801 0
M  V30 13610 C 1227.96 -3.4995 -0.848923 0
M  V30 13611 C 1227.81 -4.48535 0.337094 0
M  V30 13612 C 1229.13 -4.05703 -1.70567 0
M  V30 13613 H 1226.25 -0.721869 -0.148576 0
M  V30 13614 H 1228.89 -1.87356 0.315852 0
M  V30 13615 H 1227.04 -3.59624 -1.46979 0
M  V30 13616 H 1228.72 -4.50874 0.975216 0
M  V30 13617 H 1226.96 -4.22474 0.984798 0
M  V30 13618 H 1227.63 -5.51999 -0.0109665 0
M  V30 13619 H 1230.11 -3.98964 -1.18182 0
M  V30 13620 H 1228.98 -5.11955 -1.97972 0
M  V30 13621 H 1229.24 -3.52487 -2.66844 0
M  V30 13622 N 1228.3 0.053464 -1.57509 0
M  V30 13623 C 1229.25 1.08014 -2.05999 0
M  V30 13624 C 1230.24 1.38958 -0.968862 0
M  V30 13625 O 1231.45 1.3815 -1.15389 0
M  V30 13626 H 1227.82 0.36575 -0.657062 0
M  V30 13627 H 1229.8 0.645169 -2.91342 0
M  V30 13628 C 1228.54 2.38004 -2.53475 0
M  V30 13629 H 1227.87 2.15048 -3.37038 0
M  V30 13630 H 1229.31 3.08244 -2.91138 0
M  V30 13631 C 1227.77 3.05259 -1.42543 0
M  V30 13632 O 1228.3 3.94097 -0.777832 0
M  V30 13633 N 1226.5 2.66182 -1.16599 0
M  V30 13634 H 1226.05 1.94027 -1.69444 0
M  V30 13635 H 1226.01 3.11503 -0.42585 0
M  V30 13636 N 1229.78 1.54207 0.325255 0
M  V30 13637 C 1230.73 1.79856 1.40128 0
M  V30 13638 C 1231.71 0.654503 1.46987 0
M  V30 13639 O 1232.91 0.914453 1.51548 0
M  V30 13640 C 1230.03 2.02786 2.77007 0
M  V30 13641 C 1229.12 3.23309 2.74467 0
M  V30 13642 N 1229.51 4.44396 2.41549 0
M  V30 13643 C 1227.81 3.24848 3.05598 0
M  V30 13644 C 1228.51 5.26325 2.47703 0
M  V30 13645 N 1227.49 4.63468 2.84074 0
M  V30 13646 H 1231.29 2.71056 1.13603 0
M  V30 13647 H 1228.8 1.53379 0.533728 0
M  V30 13648 H 1230.8 2.19301 3.5456 0
M  V30 13649 H 1229.46 1.12839 3.04463 0
M  V30 13650 H 1230.47 4.71426 2.14425 0
M  V30 13651 H 1227.15 2.44929 3.38107 0
M  V30 13652 H 1228.54 6.33016 2.25257 0
M  V30 13653 N 1231.26 -0.58723 1.46251 0
M  V30 13654 C 1232.49 -1.37174 1.5489 0
M  V30 13655 C 1232.9 -1.87857 0.188445 0
M  V30 13656 O 1232.26 -1.63365 -0.813509 0
M  V30 13657 C 1232.31 -2.56237 2.55 0
M  V30 13658 O 1232.03 -2.07655 3.8576 0
M  V30 13659 C 1233.53 -3.48846 2.73535 0
M  V30 13660 H 1230.75 -0.419211 0.523931 0
M  V30 13661 H 1233.29 -0.714307 1.91619 0
M  V30 13662 H 1231.45 -3.1798 2.21287 0
M  V30 13663 H 1231.86 -2.85161 4.40208 0
M  V30 13664 H 1233.34 -4.2888 3.47514 0
M  V30 13665 H 1233.81 -4.00493 1.80282 0
M  V30 13666 H 1234.42 -2.92942 3.08326 0
M  V30 13667 N 1232.74 -1.33881 -0.831482 0
M  V30 13668 C 1233.67 -1.27384 -1.95693 0
M  V30 13669 C 1234.65 -0.152943 -1.69411 0
M  V30 13670 O 1235.83 -0.34392 -1.9113 0
M  V30 13671 C 1232.96 -1.01982 -3.31989 0
M  V30 13672 C 1231.92 -2.10445 -3.72689 0
M  V30 13673 C 1231.24 -1.70245 -5.06873 0
M  V30 13674 C 1232.54 -3.52194 -3.8569 0
M  V30 13675 H 1234.24 -2.21549 -2.01386 0
M  V30 13676 H 1231.78 -1.06653 -0.967526 0
M  V30 13677 H 1233.73 -0.960841 -4.103 0
M  V30 13678 H 1232.46 -0.0425709 -3.26572 0
M  V30 13679 H 1231.12 -2.15398 -2.96647 0
M  V30 13680 H 1230.77 -0.712036 -4.97935 0
M  V30 13681 H 1230.47 -2.42834 -5.35075 0
M  V30 13682 H 1231.99 -1.65827 -5.87651 0
M  V30 13683 H 1233.4 -3.49701 -4.54293 0
M  V30 13684 H 1231.8 -4.23331 -4.25336 0
M  V30 13685 H 1232.87 -3.9016 -2.87929 0
M  V30 13686 N 1234.21 1.05064 -1.1747 0
M  V30 13687 C 1235.44 1.82299 -0.98903 0
M  V30 13688 C 1235.86 1.82441 0.457907 0
M  V30 13689 O 1235.22 1.23433 1.32793 0
M  V30 13690 C 1235.27 3.26239 -1.53624 0
M  V30 13691 O 1234.37 4.05507 -0.750857 0
M  V30 13692 H 1233.71 0.563601 -0.35107 0
M  V30 13693 H 1236.24 1.32386 -1.55997 0
M  V30 13694 H 1236.25 3.77038 -1.55906 0
M  V30 13695 H 1234.93 3.25451 -2.58949 0
M  V30 13696 H 1233.51 3.64227 -0.799548 0
M  V30 13697 N 1235.69 0.975146 1.23809 0
M  V30 13698 C 1236.92 0.658605 1.96665 0
M  V30 13699 C 1237.34 -0.766744 1.71763 0
M  V30 13700 O 1236.7 -1.52151 0.985887 0
M  V30 13701 C 1236.75 0.948438 3.47904 0
M  V30 13702 O 1235.85 0.0377241 4.12383 0
M  V30 13703 H 1235.19 0.248231 0.615855 0
M  V30 13704 H 1237.72 1.30732 1.57386 0
M  V30 13705 H 1237.73 0.883 3.9833 0
M  V30 13706 H 1236.41 1.98717 3.65355 0
M  V30 13707 H 1234.98 0.157122 3.72569 0
M  V30 13708 N 1237.17 -1.38817 0.746158 0
M  V30 13709 C 1238.42 -2.0028 0.299016 0
M  V30 13710 C 1238.74 -1.59221 -1.11709 0
M  V30 13711 O 1238 -0.817595 -1.77803 0
M  V30 13712 C 1238.3 -3.55571 0.361086 0
M  V30 13713 C 1237.96 -4.16317 1.73179 0
M  V30 13714 C 1236.63 -4.32622 2.10693 0
M  V30 13715 C 1238.98 -4.49905 2.63126 0
M  V30 13716 C 1236.31 -4.79808 3.3764 0
M  V30 13717 C 1238.66 -4.98504 3.89457 0
M  V30 13718 C 1237.32 -5.13016 4.27049 0
M  V30 13719 H 1236.59 -0.732877 0.109418 0
M  V30 13720 H 1239.24 -1.65977 0.955186 0
M  V30 13721 H 1237.54 -3.89966 -0.378655 0
M  V30 13722 H 1239.24 -4.01 -0.00319228 0
M  V30 13723 H 1235.83 -4.04035 1.43015 0
M  V30 13724 H 1240.02 -4.36916 2.3541 0
M  V30 13725 H 1235.27 -4.89229 3.66695 0
M  V30 13726 H 1239.45 -5.23464 4.59302 0
M  V30 13727 H 1237.07 -5.4934 5.25481 0
M  V30 13728 N 1238.65 -0.49465 -1.49636 0
M  V30 13729 C 1239.6 0.300929 -2.30645 0
M  V30 13730 C 1240.59 0.968687 -1.38971 0
M  V30 13731 O 1241.8 0.897101 -1.56052 0
M  V30 13732 H 1238.17 0.1159 -0.743015 0
M  V30 13733 H 1240.14 -0.402387 -2.95674 0
M  V30 13734 C 1238.89 1.35638 -3.20153 0
M  V30 13735 H 1238.21 0.851946 -3.90617 0
M  V30 13736 H 1239.65 1.88515 -3.79787 0
M  V30 13737 C 1238.11 2.37112 -2.39331 0
M  V30 13738 O 1238.64 3.42867 -2.09298 0
M  V30 13739 N 1236.85 2.09421 -2.01473 0
M  V30 13740 H 1236.4 1.23441 -2.26097 0
M  V30 13741 H 1236.35 2.77545 -1.47703 0
M  V30 13742 N 1240.13 1.55939 -0.228214 0
M  V30 13743 C 1241.37 1.9877 0.402272 0
M  V30 13744 C 1241.7 1.11587 1.5894 0
M  V30 13745 O 1240.98 0.175032 1.93711 0
M  V30 13746 C 1241.26 3.50396 0.830353 0
M  V30 13747 C 1241.12 4.4835 -0.360876 0
M  V30 13748 C 1242.43 4.06602 1.68413 0
M  V30 13749 H 1239.55 0.722646 0.144746 0
M  V30 13750 H 1242.2 1.87186 -0.325784 0
M  V30 13751 H 1240.35 3.60398 1.4507 0
M  V30 13752 H 1242.02 4.5035 -0.999113 0
M  V30 13753 H 1240.26 4.21946 -1.00719 0
M  V30 13754 H 1240.93 5.51997 -0.0183074 0
M  V30 13755 H 1243.41 3.99585 1.16064 0
M  V30 13756 H 1242.28 5.12998 1.95254 0
M  V30 13757 H 1242.54 3.53897 2.64971 0
M  V30 13758 N 1241.6 -0.0451101 1.57535 0
M  V30 13759 C 1242.83 -0.755068 1.93167 0
M  V30 13760 C 1243.25 -1.68949 0.826915 0
M  V30 13761 O 1242.61 -1.79978 -0.218534 0
M  V30 13762 C 1242.66 -1.50201 3.27829 0
M  V30 13763 O 1241.76 -2.61434 3.18945 0
M  V30 13764 H 1241.11 -0.204219 0.631815 0
M  V30 13765 H 1243.64 -0.00537504 2.04599 0
M  V30 13766 H 1243.65 -1.87547 3.6234 0
M  V30 13767 H 1242.32 -0.816591 4.07805 0
M  V30 13768 H 1240.9 -2.26749 2.96039 0
M  V30 13769 N 1243.08 -1.54377 -0.317073 0
M  V30 13770 C 1244.36 -1.63551 -1.07287 0
M  V30 13771 C 1244.74 -0.473499 -2.05721 0
M  V30 13772 O 1244.09 0.531545 -2.22232 0
M  V30 13773 C 1244.3 -3.00842 -1.76904 0
M  V30 13774 C 1245.65 -3.57111 -2.29689 0
M  V30 13775 O 1246.67 -3.0319 -1.86961 0
M  V30 13776 O 1245.53 -4.51486 -3.07932 0
M  V30 13777 H 1242.62 -0.662557 -0.494922 0
M  V30 13778 H 1245.17 -1.66723 -0.316444 0
M  V30 13779 H 1243.94 -3.76854 -1.05341 0
M  V30 13780 H 1243.56 -3.01377 -2.59341 0
M  V30 13781 N 1244.56 0.579466 -1.4656 0
M  V30 13782 C 1245.81 1.33756 -1.52038 0
M  V30 13783 C 1246.14 1.93725 -0.173423 0
M  V30 13784 O 1245.39 1.77167 0.831293 0
M  V30 13785 C 1245.69 2.48417 -2.56951 0
M  V30 13786 C 1245.36 2.0642 -4.00876 0
M  V30 13787 C 1244.02 1.94682 -4.4006 0
M  V30 13788 C 1246.37 1.74066 -4.91274 0
M  V30 13789 C 1243.7 1.48852 -5.67503 0
M  V30 13790 C 1246.05 1.29714 -6.19158 0
M  V30 13791 C 1244.71 1.16555 -6.57245 0
M  V30 13792 H 1243.98 0.489447 -0.556347 0
M  V30 13793 H 1246.63 0.652176 -1.80053 0
M  V30 13794 H 1244.94 3.22416 -2.2261 0
M  V30 13795 H 1246.63 3.06629 -2.58418 0
M  V30 13796 H 1243.22 2.16492 -3.69904 0
M  V30 13797 H 1247.41 1.82019 -4.61717 0
M  V30 13798 H 1242.66 1.3731 -5.95782 0
M  V30 13799 H 1246.84 1.03734 -6.88631 0
M  V30 13800 H 1244.46 0.808193 -7.55892 0
M  V30 13801 N 1246.04 1.3432 0.824371 0
M  V30 13802 C 1246.97 1.21619 1.94271 0
M  V30 13803 C 1247.98 0.143628 1.62165 0
M  V30 13804 O 1249.17 0.395353 1.74067 0
M  V30 13805 C 1246.27 0.846128 3.28167 0
M  V30 13806 C 1245.45 2.01337 3.88307 0
M  V30 13807 C 1244.5 1.62194 5.00579 0
M  V30 13808 O 1243.53 2.33831 5.18953 0
M  V30 13809 N 1244.73 0.535262 5.78027 0
M  V30 13810 H 1247.5 2.17963 2.05699 0
M  V30 13811 H 1245.06 1.27256 1.00088 0
M  V30 13812 H 1247.05 0.566086 4.00721 0
M  V30 13813 H 1245.62 -0.0270764 3.12588 0
M  V30 13814 H 1244.84 2.45823 3.08164 0
M  V30 13815 H 1246.13 2.79404 4.25219 0
M  V30 13816 H 1245.53 -0.0603126 5.65668 0
M  V30 13817 H 1244.08 0.314946 6.51039 0
M  V30 13818 N 1247.52 -1.0444 1.18026 0
M  V30 13819 C 1248.46 -2.14474 0.900202 0
M  V30 13820 C 1249.46 -1.68836 -0.138086 0
M  V30 13821 O 1250.66 -1.79997 0.00971011 0
M  V30 13822 H 1247.04 -0.700457 0.273613 0
M  V30 13823 H 1249.01 -2.35295 1.83518 0
M  V30 13824 C 1247.76 -3.44926 0.438305 0
M  V30 13825 H 1247.08 -3.8045 1.22874 0
M  V30 13826 H 1248.52 -4.23066 0.281306 0
M  V30 13827 C 1246.98 -3.26124 -0.845268 0
M  V30 13828 O 1247.51 -3.53368 -1.91034 0
M  V30 13829 N 1245.72 -2.79474 -0.7964 0
M  V30 13830 H 1245.26 -2.57503 0.0705595 0
M  V30 13831 H 1245.22 -2.67274 -1.65566 0
M  V30 13832 N 1248.99 -0.981699 -1.2329 0
M  V30 13833 C 1250.24 -0.650015 -1.91361 0
M  V30 13834 C 1250.56 0.819184 -1.76959 0
M  V30 13835 O 1249.83 1.5861 -1.14977 0
M  V30 13836 H 1248.41 -0.237427 -0.708264 0
M  V30 13837 H 1251.08 -1.24579 -1.49887 0
M  V30 13838 H 1250.17 -0.902772 -2.98758 0
M  V30 13839 N 1250.47 1.3842 -0.753509 0
M  V30 13840 C 1251.7 2.04403 -0.320449 0
M  V30 13841 C 1252.12 1.5683 1.05118 0
M  V30 13842 O 1251.47 0.741335 1.66765 0
M  V30 13843 C 1251.52 3.59954 -0.333937 0
M  V30 13844 O 1251.24 4.05782 -1.65144 0
M  V30 13845 C 1252.75 4.43156 0.112997 0
M  V30 13846 H 1249.97 0.656881 -0.136927 0
M  V30 13847 H 1252.51 1.77112 -1.02234 0
M  V30 13848 H 1250.66 3.86083 0.319215 0
M  V30 13849 H 1251.08 5.00213 -1.57757 0
M  V30 13850 H 1252.55 5.51975 0.0523995 0
M  V30 13851 H 1253.03 4.23581 1.16087 0
M  V30 13852 H 1253.64 4.22216 -0.511278 0
M  V30 13853 N 1251.95 0.502579 1.49372 0
M  V30 13854 C 1252.91 -0.263993 2.27675 0
M  V30 13855 C 1253.91 -0.892538 1.33755 0
M  V30 13856 O 1255.1 -0.756826 1.56901 0
M  V30 13857 C 1252.24 -1.37895 3.11765 0
M  V30 13858 H 1253.43 0.423132 2.969 0
M  V30 13859 H 1250.98 0.257595 1.54163 0
M  V30 13860 H 1251.72 -2.10018 2.47109 0
M  V30 13861 H 1251.5 -0.933694 3.80821 0
M  V30 13862 H 1252.99 -1.91889 3.70902 0
M  V30 13863 N 1253.43 -1.55816 0.23648 0
M  V30 13864 C 1254.84 -1.84757 -0.268622 0
M  V30 13865 C 1255.19 -1.15815 -1.58371 0
M  V30 13866 O 1254.32 -0.432923 -2.12025 0
M  V30 13867 C 1254.91 -3.35177 -0.494167 0
M  V30 13868 C 1253.47 -3.64382 -0.943551 0
M  V30 13869 C 1252.62 -2.77296 -0.0149191 0
M  V30 13870 H 1255.57 -1.51908 0.459308 0
M  V30 13871 H 1255.59 -3.56192 -1.3382 0
M  V30 13872 H 1255.1 -3.85327 0.463138 0
M  V30 13873 H 1253.2 -3.19701 -1.91369 0
M  V30 13874 H 1253.31 -4.72244 -0.807626 0
M  V30 13875 H 1251.68 -2.49243 -0.524419 0
M  V30 13876 H 1252.46 -3.30249 0.937571 0
M  V30 13877 N 1254.91 0.036755 -1.57557 0
M  V30 13878 C 1255.85 1.05823 -2.07133 0
M  V30 13879 C 1256.85 1.37923 -0.983546 0
M  V30 13880 O 1258.05 1.36918 -1.16848 0
M  V30 13881 H 1254.43 0.358761 -0.660905 0
M  V30 13882 H 1256.4 0.614232 -2.9201 0
M  V30 13883 C 1255.15 2.35302 -2.55985 0
M  V30 13884 H 1254.47 2.11461 -3.393 0
M  V30 13885 H 1255.91 3.05139 -2.94391 0
M  V30 13886 C 1254.37 3.0373 -1.45773 0
M  V30 13887 O 1254.9 3.9325 -0.819587 0
M  V30 13888 N 1253.11 2.64931 -1.19416 0
M  V30 13889 H 1252.65 1.92219 -1.71492 0
M  V30 13890 H 1252.61 3.11033 -0.458865 0
M  V30 13891 N 1256.39 1.54543 0.308881 0
M  V30 13892 C 1257.66 1.64118 1.06418 0
M  V30 13893 C 1258.04 0.484402 2.05467 0
M  V30 13894 O 1257.39 -0.519752 2.2251 0
M  V30 13895 C 1257.6 3.01776 1.75306 0
M  V30 13896 C 1258.95 3.58324 2.27792 0
M  V30 13897 O 1259.97 3.04177 1.85351 0
M  V30 13898 O 1258.83 4.53113 3.05533 0
M  V30 13899 H 1255.93 0.665172 0.491401 0
M  V30 13900 H 1258.47 1.66889 0.307598 0
M  V30 13901 H 1257.24 3.77407 1.03341 0
M  V30 13902 H 1256.87 3.02748 2.57739 0
M  V30 13903 N 1257.86 -0.571685 1.46866 0
M  V30 13904 C 1259.27 -1.15383 1.46778 0
M  V30 13905 C 1259.63 -1.95023 0.214576 0
M  V30 13906 O 1258.75 -2.05386 -0.681574 0
M  V30 13907 C 1259.35 -2.09915 2.65935 0
M  V30 13908 C 1257.9 -2.6343 2.68852 0
M  V30 13909 C 1257.05 -1.39517 2.39646 0
M  V30 13910 H 1260 -0.359036 1.54585 0
M  V30 13911 H 1260.02 -2.9356 2.42081 0
M  V30 13912 H 1259.54 -1.51923 3.57129 0
M  V30 13913 H 1257.64 -3.2526 1.8176 0
M  V30 13914 H 1257.75 -3.05412 3.69134 0
M  V30 13915 H 1256.11 -1.69702 1.8993 0
M  V30 13916 H 1256.9 -0.833399 3.33031 0
M  V30 13917 N 1259.34 -1.34755 -0.817236 0
M  V30 13918 C 1260.27 -1.29452 -1.94331 0
M  V30 13919 C 1261.25 -0.170902 -1.69239 0
M  V30 13920 O 1262.44 -0.364173 -1.90755 0
M  V30 13921 C 1259.57 -1.05497 -3.30889 0
M  V30 13922 C 1258.52 -2.14386 -3.70436 0
M  V30 13923 C 1257.85 -1.75612 -5.05039 0
M  V30 13924 C 1259.15 -3.56265 -3.81933 0
M  V30 13925 H 1260.84 -2.23672 -1.99025 0
M  V30 13926 H 1258.39 -1.07674 -0.956159 0
M  V30 13927 H 1260.34 -1.0043 -4.09257 0
M  V30 13928 H 1259.06 -0.0772059 -3.26509 0
M  V30 13929 H 1257.72 -2.18532 -2.94345 0
M  V30 13930 H 1257.37 -0.764809 -4.97152 0
M  V30 13931 H 1257.07 -2.48495 -5.3247 0
M  V30 13932 H 1258.6 -1.72051 -5.85859 0
M  V30 13933 H 1260.01 -3.545 -4.50558 0
M  V30 13934 H 1258.41 -4.27818 -4.20822 0
M  V30 13935 H 1259.48 -3.93192 -2.83775 0
M  V30 13936 N 1260.82 1.03812 -1.18578 0
M  V30 13937 C 1262.1 1.74062 -0.892288 0
M  V30 13938 C 1262.48 2.02267 0.604256 0
M  V30 13939 O 1261.82 1.66988 1.55972 0
M  V30 13940 C 1262.03 3.024 -1.74228 0
M  V30 13941 C 1263.38 3.76088 -1.97087 0
M  V30 13942 O 1264.41 3.12305 -1.71302 0
M  V30 13943 O 1263.27 4.90732 -2.40509 0
M  V30 13944 H 1260.36 0.757567 -0.331695 0
M  V30 13945 H 1262.91 1.09855 -1.29345 0
M  V30 13946 H 1261.68 2.77713 -2.75665 0
M  V30 13947 H 1261.3 3.74346 -1.3398 0
M  V30 13948 N 1262.3 0.988223 1.22768 0
M  V30 13949 C 1263.23 0.554478 2.26821 0
M  V30 13950 C 1264.21 -0.416293 1.64927 0
M  V30 13951 O 1265.39 -0.30795 1.91743 0
M  V30 13952 C 1262.52 -0.136266 3.47033 0
M  V30 13953 C 1261.48 0.752575 4.21332 0
M  V30 13954 C 1260.8 -0.0708236 5.34653 0
M  V30 13955 C 1262.1 2.04717 4.80508 0
M  V30 13956 H 1263.8 1.42423 2.63355 0
M  V30 13957 H 1261.34 0.686267 1.26595 0
M  V30 13958 H 1263.3 -0.451068 4.18979 0
M  V30 13959 H 1262.02 -1.04053 3.09581 0
M  V30 13960 H 1260.68 1.05095 3.51213 0
M  V30 13961 H 1260.33 -0.975859 4.93443 0
M  V30 13962 H 1260.03 0.520835 5.85287 0
M  V30 13963 H 1261.55 -0.379828 6.09417 0
M  V30 13964 H 1262.97 1.79663 5.44421 0
M  V30 13965 H 1261.36 2.58726 5.41462 0
M  V30 13966 H 1262.43 2.72896 4.00819 0
M  V30 13967 N 1263.78 -1.38018 0.760839 0
M  V30 13968 C 1265.02 -1.99557 0.319609 0
M  V30 13969 C 1265.34 -1.60699 -1.10457 0
M  V30 13970 O 1264.61 -0.867248 -1.75658 0
M  V30 13971 H 1263.19 -0.738066 0.115182 0
M  V30 13972 H 1265.86 -1.6867 0.976544 0
M  V30 13973 H 1264.95 -3.09672 0.388523 0
M  V30 13974 N 1265.25 -0.510493 -1.49103 0
M  V30 13975 C 1266.48 0.0271324 -2.06582 0
M  V30 13976 C 1266.89 1.30499 -1.36991 0
M  V30 13977 O 1266.23 1.78229 -0.444976 0
M  V30 13978 C 1266.3 0.341488 -3.57874 0
M  V30 13979 C 1265.96 -0.840037 -4.49213 0
M  V30 13980 C 1266.96 -1.73315 -4.90161 0
M  V30 13981 C 1264.64 -1.04153 -4.91383 0
M  V30 13982 C 1266.64 -2.81182 -5.72028 0
M  V30 13983 C 1264.32 -2.12336 -5.73024 0
M  V30 13984 C 1265.32 -3.00684 -6.13252 0
M  V30 13985 O 1265.01 -4.06999 -6.93258 0
M  V30 13986 H 1264.74 -0.0215383 -0.675657 0
M  V30 13987 H 1267.3 -0.709841 -1.92744 0
M  V30 13988 H 1265.53 1.13218 -3.69755 0
M  V30 13989 H 1267.21 0.818859 -3.97554 0
M  V30 13990 H 1267.98 -1.58934 -4.58219 0
M  V30 13991 H 1263.86 -0.363199 -4.59567 0
M  V30 13992 H 1267.4 -3.50169 -6.03347 0
M  V30 13993 H 1263.3 -2.26708 -6.04379 0
M  V30 13994 H 1264.07 -4.04469 -7.11581 0
M  V30 13995 N 1266.73 1.55688 -0.24474 0
M  V30 13996 C 1267.64 2.24933 0.666519 0
M  V30 13997 C 1268.66 1.26471 1.19503 0
M  V30 13998 O 1269.83 1.59342 1.23176 0
M  V30 13999 C 1266.9 2.9336 1.84772 0
M  V30 14000 C 1265.96 4.07225 1.35889 0
M  V30 14001 C 1265.19 4.72381 2.48379 0
M  V30 14002 O 1265.42 4.36605 3.67059 0
M  V30 14003 O 1264.35 5.60933 2.18261 0
M  V30 14004 H 1268.18 3.03513 0.106507 0
M  V30 14005 H 1265.76 1.49394 -0.0133309 0
M  V30 14006 H 1267.64 3.36468 2.53708 0
M  V30 14007 H 1266.32 2.17721 2.39539 0
M  V30 14008 H 1265.22 3.68639 0.636881 0
M  V30 14009 H 1266.56 4.84676 0.857333 0
M  V30 14010 N 1268.21 -0.0283989 1.57574 0
M  V30 14011 C 1269.46 -0.720142 1.89583 0
M  V30 14012 C 1269.79 -1.7497 0.842562 0
M  V30 14013 O 1269.06 -1.93979 -0.142294 0
M  V30 14014 C 1269.35 -1.38909 3.32229 0
M  V30 14015 C 1269.2 -0.372998 4.48251 0
M  V30 14016 C 1270.52 -2.32289 3.73804 0
M  V30 14017 H 1267.64 -0.26033 0.689491 0
M  V30 14018 H 1270.28 0.0170607 1.89992 0
M  V30 14019 H 1268.43 -2.01744 3.32011 0
M  V30 14020 H 1270.1 0.253492 4.60603 0
M  V30 14021 H 1268.34 0.30765 4.32708 0
M  V30 14022 H 1269.02 -0.879549 5.44948 0
M  V30 14023 H 1271.49 -1.79497 3.75393 0
M  V30 14024 H 1270.37 -2.76075 4.74419 0
M  V30 14025 H 1270.63 -3.18992 3.06099 0
M  V30 14026 N 1269.69 -1.54705 -0.300681 0
M  V30 14027 C 1270.62 -1.8205 -1.39249 0
M  V30 14028 C 1271.63 -0.703476 -1.46816 0
M  V30 14029 O 1272.82 -0.980957 -1.49129 0
M  V30 14030 C 1269.92 -1.94376 -2.77617 0
M  V30 14031 C 1269.09 -3.2478 -2.92979 0
M  V30 14032 C 1268.15 -3.27518 -4.11848 0
M  V30 14033 O 1267.18 -4.01047 -4.03918 0
M  V30 14034 N 1268.38 -2.52932 -5.22499 0
M  V30 14035 H 1271.15 -2.76279 -1.16146 0
M  V30 14036 H 1268.71 -1.54283 -0.49075 0
M  V30 14037 H 1270.7 -1.93609 -3.55384 0
M  V30 14038 H 1269.27 -1.07141 -2.93666 0
M  V30 14039 H 1268.49 -3.38319 -2.02322 0
M  V30 14040 H 1269.78 -4.10835 -3.00153 0
M  V30 14041 H 1269.18 -1.92825 -5.31822 0
M  V30 14042 H 1267.73 -2.57919 -5.98599 0
M  V30 14043 N 1271.17 0.563888 -1.47167 0
M  V30 14044 C 1272.42 1.31766 -1.5271 0
M  V30 14045 C 1272.73 1.94664 -0.191164 0
M  V30 14046 O 1273.93 2.71214 -0.124543 0
M  V30 14047 C 1272.39 2.38907 -2.69168 0
M  V30 14048 C 1272 1.8223 -4.09263 0
M  V30 14049 C 1273.74 3.15508 -2.83999 0
M  V30 14050 C 1271.65 2.87111 -5.17031 0
M  V30 14051 H 1270.58 0.495421 -0.568396 0
M  V30 14052 H 1273.23 0.599665 -1.73425 0
M  V30 14053 H 1271.61 3.13591 -2.4182 0
M  V30 14054 H 1272.79 1.13963 -4.46485 0
M  V30 14055 H 1271.1 1.18235 -3.99261 0
M  V30 14056 H 1273.7 3.93816 -3.61681 0
M  V30 14057 H 1274.04 3.69277 -1.92197 0
M  V30 14058 H 1274.57 2.47934 -3.11085 0
M  V30 14059 H 1271.31 2.38204 -6.10687 0
M  V30 14060 H 1270.83 3.53809 -4.84334 0
M  V30 14061 H 1272.51 3.50724 -5.43692 0
M  V30 14062 N 1272.64 1.35187 0.810078 0
M  V30 14063 C 1273.88 1.29626 1.58039 0
M  V30 14064 C 1274.25 -0.12865 1.91569 0
M  V30 14065 O 1275.45 -0.308587 2.67023 0
M  V30 14066 C 1273.72 2.17414 2.83665 0
M  V30 14067 S 1275.28 2.29334 3.741 0
M  V30 14068 H 1272.1 0.460722 0.541531 0
M  V30 14069 H 1274.7 1.7054 0.955839 0
M  V30 14070 H 1273.4 3.19927 2.57051 0
M  V30 14071 H 1272.93 1.77444 3.51108 0
M  V30 14072 H 1274.95 1.47559 4.73752 0
M  V30 14073 N 1274.12 -1.03182 1.19127 0
M  V30 14074 C 1275.54 -1.28773 0.942854 0
M  V30 14075 C 1275.74 -1.97759 -0.386483 0
M  V30 14076 O 1274.79 -2.26365 -1.1187 0
M  V30 14077 C 1276.11 -2.13771 2.11476 0
M  V30 14078 C 1277.66 -2.27089 2.15406 0
M  V30 14079 C 1278.13 -3.15458 3.32039 0
M  V30 14080 N 1279.62 -3.23046 3.31957 0
M  V30 14081 C 1280.36 -3.91604 4.18848 0
M  V30 14082 N 1279.85 -4.62418 5.15889 0
M  V30 14083 N 1281.65 -3.87974 4.06734 0
M  V30 14084 H 1273.8 -0.568165 2.0466 0
M  V30 14085 H 1276.06 -0.31328 0.89474 0
M  V30 14086 H 1275.77 -1.704 3.07663 0
M  V30 14087 H 1275.64 -3.14476 2.0829 0
M  V30 14088 H 1278.03 -2.69693 1.19791 0
M  V30 14089 H 1278.11 -1.25945 2.22647 0
M  V30 14090 H 1277.75 -2.73564 4.27931 0
M  V30 14091 H 1277.68 -4.16654 3.22035 0
M  V30 14092 H 1280.17 -2.7261 2.6171 0
M  V30 14093 H 1280.49 -5.12353 5.78545 0
M  V30 14094 H 1278.83 -4.61293 5.1984 0
M  V30 14095 H 1282.02 -3.31789 3.30202 0
M  V30 14096 H 1282.19 -4.4113 4.74666 0
M  V30 14097 N 1275.6 -0.99472 -1.22242 0
M  V30 14098 C 1276.83 -0.689096 -1.94769 0
M  V30 14099 C 1277.24 0.750597 -1.73674 0
M  V30 14100 O 1276.58 1.51836 -1.03399 0
M  V30 14101 C 1276.64 -0.917454 -3.47596 0
M  V30 14102 C 1276.31 -2.34198 -3.92429 0
M  V30 14103 C 1277.3 -3.3216 -3.99957 0
M  V30 14104 C 1274.99 -2.6769 -4.25026 0
M  V30 14105 C 1276.98 -4.61686 -4.3946 0
M  V30 14106 C 1274.67 -3.97435 -4.64208 0
M  V30 14107 C 1275.67 -4.94244 -4.71394 0
M  V30 14108 O 1275.36 -6.2167 -5.09688 0
M  V30 14109 H 1275.09 -0.253914 -0.626501 0
M  V30 14110 H 1277.64 -1.33271 -1.56294 0
M  V30 14111 H 1275.87 -0.21666 -3.86093 0
M  V30 14112 H 1277.56 -0.6068 -4.01339 0
M  V30 14113 H 1278.33 -3.07619 -3.74961 0
M  V30 14114 H 1274.21 -1.93039 -4.18637 0
M  V30 14115 H 1277.75 -5.37248 -4.44983 0
M  V30 14116 H 1273.65 -4.21765 -4.88656 0
M  V30 14117 H 1274.42 -6.25634 -5.27755 0
M  V30 14118 N 1277.08 1.37613 -0.768148 0
M  V30 14119 C 1278.03 2.30311 -0.150176 0
M  V30 14120 C 1279 1.50918 0.69376 0
M  V30 14121 O 1280.18 1.795 0.64687 0
M  V30 14122 C 1277.32 3.37382 0.72576 0
M  V30 14123 C 1276.43 4.31791 -0.13439 0
M  V30 14124 C 1275.57 5.25937 0.745915 0
M  V30 14125 C 1274.61 6.11988 -0.116988 0
M  V30 14126 N 1273.74 6.98387 0.721091 0
M  V30 14127 H 1278.58 2.82579 -0.946212 0
M  V30 14128 H 1276.12 1.3911 -0.478217 0
M  V30 14129 H 1278.08 3.98084 1.24839 0
M  V30 14130 H 1276.71 2.86488 1.48743 0
M  V30 14131 H 1275.76 3.72426 -0.774793 0
M  V30 14132 H 1277.07 4.9234 -0.800163 0
M  V30 14133 H 1276.23 5.91826 1.33516 0
M  V30 14134 H 1274.97 4.6579 1.44538 0
M  V30 14135 H 1273.97 5.45081 -0.7188 0
M  V30 14136 H 1275.2 6.74207 -0.813732 0
M  V30 14137 H 1273.14 6.40772 1.40524 0
M  V30 14138 H 1273.06 7.55916 0.112536 0
M  V30 14139 H 1274.33 7.6867 1.29485 0
M  V30 14140 N 1278.56 0.518393 1.4883 0
M  V30 14141 C 1279.83 -0.0837498 1.95421 0
M  V30 14142 C 1280.21 -1.52435 1.46037 0
M  V30 14143 O 1279.56 -2.18093 0.681736 0
M  V30 14144 C 1279.77 0.0215333 3.48993 0
M  V30 14145 C 1281.12 -0.143615 4.24357 0
M  V30 14146 O 1282.14 -0.0528223 3.56161 0
M  V30 14147 O 1281 -0.332231 5.45489 0
M  V30 14148 H 1278.1 -0.0857132 0.822546 0
M  V30 14149 H 1280.64 0.582169 1.59402 0
M  V30 14150 H 1279.41 1.02549 3.77623 0
M  V30 14151 H 1279.04 -0.683756 3.91677 0
M  V30 14152 N 1280.03 -1.55556 0.252993 0
M  V30 14153 C 1281.26 -2.03196 -0.37348 0
M  V30 14154 C 1281.67 -1.13145 -1.51641 0
M  V30 14155 O 1281.02 -0.139519 -1.83169 0
M  V30 14156 C 1281.08 -3.47066 -0.937308 0
M  V30 14157 C 1280.74 -4.5694 0.0741513 0
M  V30 14158 C 1281.74 -5.12297 0.885862 0
M  V30 14159 C 1279.42 -5.01894 0.202003 0
M  V30 14160 C 1281.42 -6.11107 1.81182 0
M  V30 14161 C 1279.1 -6.00534 1.13146 0
M  V30 14162 C 1280.1 -6.5502 1.93489 0
M  V30 14163 O 1279.79 -7.51735 2.84868 0
M  V30 14164 H 1279.52 -0.669687 -0.092171 0
M  V30 14165 H 1282.08 -2.01924 0.376264 0
M  V30 14166 H 1280.31 -3.45507 -1.73672 0
M  V30 14167 H 1282 -3.78171 -1.47451 0
M  V30 14168 H 1282.76 -4.78395 0.797707 0
M  V30 14169 H 1278.64 -4.59144 -0.413301 0
M  V30 14170 H 1282.18 -6.53561 2.43935 0
M  V30 14171 H 1278.08 -6.33856 1.22052 0
M  V30 14172 H 1278.85 -7.69373 2.79298 0
M  V30 14173 N 1281.51 0.0200419 -1.57587 0
M  V30 14174 C 1282.93 0.375834 -1.55112 0
M  V30 14175 C 1283.13 1.76047 -0.980297 0
M  V30 14176 O 1282.18 2.45138 -0.605297 0
M  V30 14177 C 1283.5 0.269418 -2.99491 0
M  V30 14178 C 1285.05 0.345838 -3.11084 0
M  V30 14179 C 1285.52 0.268771 -4.57211 0
M  V30 14180 N 1287.01 0.32729 -4.62042 0
M  V30 14181 C 1287.75 0.290688 -5.72663 0
M  V30 14182 N 1287.24 0.205851 -6.92494 0
M  V30 14183 N 1289.04 0.341082 -5.61064 0
M  V30 14184 H 1281.19 -0.885979 -1.93039 0
M  V30 14185 H 1283.45 -0.337753 -0.885792 0
M  V30 14186 H 1283.16 -0.682452 -3.45015 0
M  V30 14187 H 1283.03 1.0595 -3.62014 0
M  V30 14188 H 1285.42 1.28814 -2.65501 0
M  V30 14189 H 1285.5 -0.47376 -2.51375 0
M  V30 14190 H 1285.14 -0.669906 -5.03463 0
M  V30 14191 H 1285.07 1.10659 -5.14842 0
M  V30 14192 H 1287.56 0.395004 -3.7583 0
M  V30 14193 H 1287.88 0.18327 -7.72583 0
M  V30 14194 H 1286.22 0.171768 -6.94788 0
M  V30 14195 H 1289.41 0.405415 -4.66341 0
M  V30 14196 H 1289.58 0.309091 -6.47262 0
M  V30 14197 N 1282.99 1.54862 0.292472 0
M  V30 14198 C 1283.9 1.89472 1.38339 0
M  V30 14199 C 1284.92 0.789783 1.55043 0
M  V30 14200 O 1286.09 1.08705 1.69544 0
M  V30 14201 C 1283.16 2.14244 2.72581 0
M  V30 14202 C 1282.22 3.37913 2.64789 0
M  V30 14203 C 1281.45 3.61494 3.92629 0
M  V30 14204 O 1281.67 2.87931 4.92394 0
M  V30 14205 O 1280.61 4.55019 3.94007 0
M  V30 14206 H 1284.43 2.82298 1.11989 0
M  V30 14207 H 1282.02 1.41161 0.489291 0
M  V30 14208 H 1283.9 2.31689 3.51991 0
M  V30 14209 H 1282.58 1.24603 2.98757 0
M  V30 14210 H 1281.48 3.25823 1.83821 0
M  V30 14211 H 1282.82 4.27711 2.43565 0
M  V30 14212 N 1284.47 -0.556076 1.47464 0
M  V30 14213 C 1285.88 -1.1382 1.47993 0
M  V30 14214 C 1286.23 -1.94785 0.235249 0
M  V30 14215 O 1285.36 -2.06098 -0.659752 0
M  V30 14216 C 1285.95 -2.07082 2.68146 0
M  V30 14217 C 1284.51 -2.60564 2.71631 0
M  V30 14218 C 1283.66 -1.36967 2.41113 0
M  V30 14219 H 1286.61 -0.34262 1.54957 0
M  V30 14220 H 1286.63 -2.90975 2.45181 0
M  V30 14221 H 1286.14 -1.48127 3.5872 0
M  V30 14222 H 1284.24 -3.23314 1.852 0
M  V30 14223 H 1284.35 -3.0148 3.72353 0
M  V30 14224 H 1282.72 -1.67678 1.91719 0
M  V30 14225 H 1283.5 -0.79803 3.33896 0
M  V30 14226 N 1285.95 -1.35615 -0.802897 0
M  V30 14227 C 1287.36 -1.26062 -1.37715 0
M  V30 14228 C 1287.71 0.105411 -1.95917 0
M  V30 14229 O 1286.83 1.00648 -1.91569 0
M  V30 14230 C 1287.43 -2.28261 -2.50365 0
M  V30 14231 C 1285.99 -2.22437 -3.03642 0
M  V30 14232 C 1285.14 -2.1377 -1.76629 0
M  V30 14233 H 1288.09 -1.46689 -0.605631 0
M  V30 14234 H 1288.11 -1.91122 -3.29017 0
M  V30 14235 H 1287.62 -3.27671 -2.07975 0
M  V30 14236 H 1285.72 -1.2645 -3.50487 0
M  V30 14237 H 1285.83 -3.14558 -3.61373 0
M  V30 14238 H 1284.2 -1.59806 -1.98328 0
M  V30 14239 H 1284.98 -3.15046 -1.36385 0
M  V30 14240 N 1287.43 1.02549 -1.19673 0
M  V30 14241 C 1288.67 1.76382 -1.01296 0
M  V30 14242 C 1289.03 1.87036 0.451162 0
M  V30 14243 O 1288.32 1.37859 1.33062 0
M  V30 14244 C 1288.51 3.18597 -1.61959 0
M  V30 14245 C 1288.34 3.21808 -3.14117 0
M  V30 14246 C 1287.11 3.2956 -3.83038 0
M  V30 14247 C 1289.31 3.08576 -4.11443 0
M  V30 14248 N 1287.29 3.22181 -5.22564 0
M  V30 14249 C 1288.66 3.08868 -5.37588 0
M  V30 14250 C 1290.72 2.92728 -4.02759 0
M  V30 14251 C 1289.42 2.94938 -6.56052 0
M  V30 14252 C 1291.45 2.80149 -5.20837 0
M  V30 14253 C 1290.81 2.81098 -6.45882 0
M  V30 14254 H 1286.91 0.656544 -0.424822 0
M  V30 14255 H 1289.49 1.22046 -1.517 0
M  V30 14256 H 1287.66 3.71247 -1.14151 0
M  V30 14257 H 1289.4 3.80812 -1.36984 0
M  V30 14258 H 1286.15 3.3592 -3.33848 0
M  V30 14259 H 1286.57 3.21889 -5.95581 0
M  V30 14260 H 1291.22 2.90814 -3.069 0
M  V30 14261 H 1288.93 2.95603 -7.52093 0
M  V30 14262 H 1292.52 2.68917 -5.15921 0
M  V30 14263 H 1291.4 2.71471 -7.35713 0
M  V30 14264 N 1288.9 1.00119 1.21713 0
M  V30 14265 C 1290.13 0.700172 1.95224 0
M  V30 14266 C 1290.55 -0.730138 1.73351 0
M  V30 14267 O 1289.91 -1.50026 1.01794 0
M  V30 14268 C 1289.96 1.02202 3.45814 0
M  V30 14269 O 1289.06 0.125188 4.1221 0
M  V30 14270 H 1288.4 0.261238 0.610451 0
M  V30 14271 H 1290.93 1.34041 1.54578 0
M  V30 14272 H 1290.94 0.967293 3.96368 0
M  V30 14273 H 1289.62 2.06422 3.61058 0
M  V30 14274 H 1288.2 0.236114 3.72152 0
M  V30 14275 N 1290.38 -1.37203 0.775435 0
M  V30 14276 C 1291.29 -2.34019 0.165062 0
M  V30 14277 C 1292.31 -1.6036 -0.675316 0
M  V30 14278 O 1293.48 -1.9243 -0.594375 0
M  V30 14279 C 1290.55 -3.3954 -0.700957 0
M  V30 14280 C 1289.61 -4.29015 0.156304 0
M  V30 14281 C 1288.84 -5.29497 -0.668476 0
M  V30 14282 O 1289.07 -5.37636 -1.90535 0
M  V30 14283 O 1288 -6.01852 -0.0757351 0
M  V30 14284 H 1291.83 -2.87955 0.965184 0
M  V30 14285 H 1289.41 -1.39429 0.536654 0
M  V30 14286 H 1291.29 -4.04094 -1.19524 0
M  V30 14287 H 1289.97 -2.87926 -1.4792 0
M  V30 14288 H 1288.87 -3.67549 0.69703 0
M  V30 14289 H 1290.21 -4.83944 0.897725 0
M  V30 14290 N 1291.86 -0.526279 -1.48553 0
M  V30 14291 C 1292.81 0.251938 -2.31232 0
M  V30 14292 C 1293.8 0.938991 -1.40994 0
M  V30 14293 O 1295.01 0.863798 -1.57919 0
M  V30 14294 H 1291.38 0.100114 -0.745306 0
M  V30 14295 H 1293.35 -0.465013 -2.94754 0
M  V30 14296 C 1292.1 1.28816 -3.22958 0
M  V30 14297 H 1291.43 0.768899 -3.92337 0
M  V30 14298 H 1292.87 1.80417 -3.837 0
M  V30 14299 C 1291.32 2.31982 -2.44307 0
M  V30 14300 O 1291.85 3.3835 -2.16523 0
M  V30 14301 N 1290.06 2.051 -2.05869 0
M  V30 14302 H 1289.61 1.18618 -2.28665 0
M  V30 14303 H 1289.57 2.74349 -1.53557 0
M  V30 14304 N 1293.34 1.5542 -0.261239 0
M  V30 14305 C 1294.28 2.21972 0.632216 0
M  V30 14306 C 1295.25 1.18843 1.16041 0
M  V30 14307 O 1296.44 1.47339 1.21226 0
M  V30 14308 C 1293.58 2.93397 1.81693 0
M  V30 14309 C 1292.69 4.11214 1.3239 0
M  V30 14310 C 1291.83 4.70318 2.46931 0
M  V30 14311 C 1290.87 5.80355 1.94561 0
M  V30 14312 N 1290 6.33581 3.02523 0
M  V30 14313 H 1294.84 2.97944 0.058018 0
M  V30 14314 H 1292.38 1.4709 0.0168725 0
M  V30 14315 H 1294.34 3.33015 2.5131 0
M  V30 14316 H 1292.97 2.19874 2.36337 0
M  V30 14317 H 1292.02 3.76811 0.521292 0
M  V30 14318 H 1293.33 4.90609 0.900214 0
M  V30 14319 H 1292.49 5.12584 3.24565 0
M  V30 14320 H 1291.23 3.90169 2.92608 0
M  V30 14321 H 1290.23 5.37552 1.15402 0
M  V30 14322 H 1291.46 6.62364 1.49836 0
M  V30 14323 H 1289.4 5.56332 3.47608 0
M  V30 14324 H 1289.32 7.08209 2.64529 0
M  V30 14325 H 1290.59 6.80506 3.80174 0
M  V30 14326 N 1294.82 -0.0116844 1.57596 0
M  V30 14327 C 1296.05 -0.70923 1.94045 0
M  V30 14328 C 1296.45 -1.6848 0.860877 0
M  V30 14329 O 1295.8 -1.82913 -0.169896 0
M  V30 14330 C 1295.86 -1.50653 3.2641 0
M  V30 14331 C 1295.52 -0.693838 4.51702 0
M  V30 14332 C 1296.52 0.0134445 5.19898 0
M  V30 14333 C 1294.2 -0.643252 4.98164 0
M  V30 14334 C 1296.2 0.760426 6.32848 0
M  V30 14335 C 1293.89 0.107462 6.11006 0
M  V30 14336 C 1294.88 0.808045 6.78203 0
M  V30 14337 O 1294.57 1.54654 7.88884 0
M  V30 14338 H 1294.3 -0.203265 0.644716 0
M  V30 14339 H 1296.86 0.0320123 2.05375 0
M  V30 14340 H 1295.09 -2.29199 3.11456 0
M  V30 14341 H 1296.78 -2.08832 3.48058 0
M  V30 14342 H 1297.54 -0.016558 4.84997 0
M  V30 14343 H 1293.42 -1.17807 4.45693 0
M  V30 14344 H 1296.97 1.30779 6.85232 0
M  V30 14345 H 1292.86 0.139327 6.4535 0
M  V30 14346 H 1293.63 1.46202 8.05337 0
M  V30 14347 N 1296.29 -1.55015 -0.284256 0
M  V30 14348 C 1297.57 -1.6579 -1.03794 0
M  V30 14349 C 1297.95 -0.517029 -2.04671 0
M  V30 14350 O 1297.3 0.484287 -2.23309 0
M  V30 14351 C 1297.51 -3.04527 -1.70483 0
M  V30 14352 C 1298.86 -3.61903 -2.22062 0
M  V30 14353 O 1299.88 -3.07087 -1.80488 0
M  V30 14354 O 1298.74 -4.57917 -2.98286 0
M  V30 14355 H 1295.83 -0.672906 -0.480757 0
M  V30 14356 H 1298.38 -1.67357 -0.281009 0
M  V30 14357 H 1297.15 -3.79004 -0.973238 0
M  V30 14358 H 1296.77 -3.0681 -2.5289 0
M  V30 14359 N 1297.77 0.548248 -1.47757 0
M  V30 14360 C 1299.02 1.30139 -1.54099 0
M  V30 14361 C 1299.33 1.9445 -0.2118 0
M  V30 14362 O 1300.54 2.71067 -0.153302 0
M  V30 14363 C 1299 2.36039 -2.71687 0
M  V30 14364 C 1298.6 1.77879 -4.11173 0
M  V30 14365 C 1300.35 3.12478 -2.87329 0
M  V30 14366 C 1298.25 2.81611 -5.20047 0
M  V30 14367 H 1297.18 0.489364 -0.573619 0
M  V30 14368 H 1299.84 0.581237 -1.74051 0
M  V30 14369 H 1298.22 3.11008 -2.45132 0
M  V30 14370 H 1299.39 1.09221 -4.47669 0
M  V30 14371 H 1297.71 1.13994 -4.00493 0
M  V30 14372 H 1300.3 3.89958 -3.65837 0
M  V30 14373 H 1300.65 3.67218 -1.96103 0
M  V30 14374 H 1301.18 2.4462 -3.13697 0
M  V30 14375 H 1297.92 2.31714 -6.13179 0
M  V30 14376 H 1297.44 3.48652 -4.88059 0
M  V30 14377 H 1299.12 3.44938 -5.47382 0
M  V30 14378 N 1299.25 1.36039 0.795694 0
M  V30 14379 C 1300.47 1.33222 1.58955 0
M  V30 14380 C 1300.9 -0.0854596 1.87906 0
M  V30 14381 O 1300.26 -1.05555 1.47403 0
M  V30 14382 C 1300.31 2.15508 2.89117 0
M  V30 14383 O 1299.41 1.54327 3.82436 0
M  V30 14384 H 1298.75 0.456264 0.48241 0
M  V30 14385 H 1301.28 1.79234 0.986726 0
M  V30 14386 H 1301.29 2.2786 3.38444 0
M  V30 14387 H 1299.97 3.18568 2.67371 0
M  V30 14388 H 1298.54 1.50879 3.41013 0
M  V30 14389 N 1300.73 -1.01913 1.20215 0
M  V30 14390 C 1301.68 -2.104 0.948708 0
M  V30 14391 C 1302.65 -1.65665 -0.120139 0
M  V30 14392 O 1303.83 -1.90785 0.0240547 0
M  V30 14393 C 1300.97 -3.41398 0.504132 0
M  V30 14394 C 1300.08 -3.99625 1.64085 0
M  V30 14395 C 1299.22 -5.18673 1.14683 0
M  V30 14396 C 1298.26 -5.68977 2.2568 0
M  V30 14397 N 1297.39 -6.79289 1.77514 0
M  V30 14398 H 1302.23 -2.31415 1.87753 0
M  V30 14399 H 1299.77 -1.13487 0.935901 0
M  V30 14400 H 1301.73 -4.16578 0.22771 0
M  V30 14401 H 1300.36 -3.20463 -0.387689 0
M  V30 14402 H 1299.41 -3.21565 2.03225 0
M  V30 14403 H 1300.72 -4.32965 2.47674 0
M  V30 14404 H 1299.88 -6.01048 0.826223 0
M  V30 14405 H 1298.62 -4.86891 0.280797 0
M  V30 14406 H 1297.62 -4.85208 2.5856 0
M  V30 14407 H 1298.85 -6.02794 3.12755 0
M  V30 14408 H 1296.79 -6.49341 0.932338 0
M  V30 14409 H 1296.71 -7.11808 2.54686 0
M  V30 14410 H 1297.98 -7.65235 1.48446 0
M  V30 14411 N 1302.21 -1.00763 -1.2118 0
M  V30 14412 C 1303.48 -0.607236 -1.85935 0
M  V30 14413 C 1303.86 0.915048 -1.90237 0
M  V30 14414 O 1303.21 1.80308 -1.40361 0
M  V30 14415 C 1303.42 -1.24466 -3.26051 0
M  V30 14416 C 1304.77 -1.35443 -4.02418 0
M  V30 14417 O 1305.79 -1.20018 -3.35372 0
M  V30 14418 O 1304.65 -1.60282 -5.22467 0
M  V30 14419 H 1301.75 -0.208338 -0.800328 0
M  V30 14420 H 1304.29 -1.10444 -1.28842 0
M  V30 14421 H 1303.06 -2.28524 -3.17635 0
M  V30 14422 H 1302.69 -0.733966 -3.90767 0
M  V30 14423 N 1303.68 1.3679 -0.7827 0
M  V30 14424 C 1304.93 1.99417 -0.352011 0
M  V30 14425 C 1305.26 1.62127 1.07448 0
M  V30 14426 O 1304.51 0.864449 1.75573 0
M  V30 14427 C 1304.81 3.54489 -0.455232 0
M  V30 14428 C 1304.48 4.11579 -1.84156 0
M  V30 14429 C 1303.14 4.26884 -2.22089 0
M  V30 14430 C 1305.49 4.4277 -2.74962 0
M  V30 14431 C 1302.82 4.70688 -3.50243 0
M  V30 14432 C 1305.17 4.88003 -4.02537 0
M  V30 14433 C 1303.84 5.01513 -4.40501 0
M  V30 14434 H 1303.11 0.729718 -0.12881 0
M  V30 14435 H 1305.75 1.63386 -0.998856 0
M  V30 14436 H 1304.06 3.90833 0.275129 0
M  V30 14437 H 1305.76 4.00867 -0.103127 0
M  V30 14438 H 1302.35 4.00102 -1.53677 0
M  V30 14439 H 1306.53 4.30521 -2.46912 0
M  V30 14440 H 1301.79 4.79335 -3.79537 0
M  V30 14441 H 1305.96 5.11102 -4.73019 0
M  V30 14442 H 1303.59 5.35214 -5.39861 0
M  V30 14443 N 1305.16 0.53415 1.48272 0
M  V30 14444 C 1306.41 0.00971554 2.03398 0
M  V30 14445 C 1306.76 -1.316 1.40353 0
M  V30 14446 O 1306.06 -1.83786 0.541589 0
M  V30 14447 C 1306.25 -0.165144 3.57018 0
M  V30 14448 C 1306.08 1.14208 4.34956 0
M  V30 14449 C 1304.85 1.70309 4.75734 0
M  V30 14450 C 1307.05 2.05371 4.71516 0
M  V30 14451 N 1305.03 2.95276 5.38224 0
M  V30 14452 C 1306.4 3.14915 5.34068 0
M  V30 14453 C 1308.46 2.05647 4.53447 0
M  V30 14454 C 1307.16 4.24804 5.8046 0
M  V30 14455 C 1309.18 3.14533 5.00823 0
M  V30 14456 C 1308.55 4.22795 5.63404 0
M  V30 14457 H 1304.65 0.0451562 0.780695 0
M  V30 14458 H 1307.23 0.71635 1.81043 0
M  V30 14459 H 1305.4 -0.840869 3.79189 0
M  V30 14460 H 1307.13 -0.68956 3.98782 0
M  V30 14461 H 1303.89 1.24395 4.56971 0
M  V30 14462 H 1304.31 3.58911 5.74031 0
M  V30 14463 H 1308.95 1.23239 4.0444 0
M  V30 14464 H 1306.67 5.07987 6.2847 0
M  V30 14465 H 1310.26 3.15806 4.88629 0
M  V30 14466 H 1309.14 5.05661 5.99397 0
M  V30 14467 N 1306.64 -1.55279 0.269478 0
M  V30 14468 C 1307.6 -2.21008 -0.607299 0
M  V30 14469 C 1308.6 -1.18619 -1.08564 0
M  V30 14470 O 1309.79 -1.4356 -0.986721 0
M  V30 14471 C 1306.93 -2.87157 -1.83721 0
M  V30 14472 H 1308.12 -2.99881 -0.0334894 0
M  V30 14473 H 1305.67 -1.56287 0.0200573 0
M  V30 14474 H 1306.41 -2.12281 -2.45168 0
M  V30 14475 H 1306.19 -3.62183 -1.5022 0
M  V30 14476 H 1307.68 -3.37391 -2.46083 0
M  V30 14477 N 1308.12 0.00332656 -1.576 0
M  V30 14478 C 1309.36 0.68989 -1.90705 0
M  V30 14479 C 1309.7 1.73608 -0.870291 0
M  V30 14480 O 1308.97 1.94181 0.111416 0
M  V30 14481 C 1309.26 1.33605 -3.34397 0
M  V30 14482 C 1309.11 0.301638 -4.48787 0
M  V30 14483 C 1310.43 2.26313 -3.77453 0
M  V30 14484 H 1307.55 0.249328 -0.693545 0
M  V30 14485 H 1310.19 -0.0472847 -1.89941 0
M  V30 14486 H 1308.34 1.96437 -3.35179 0
M  V30 14487 H 1310.01 -0.326738 -4.60141 0
M  V30 14488 H 1308.25 -0.376451 -4.32163 0
M  V30 14489 H 1308.92 0.792741 -5.46278 0
M  V30 14490 H 1311.4 1.73502 -3.78201 0
M  V30 14491 H 1310.28 2.68492 -4.78752 0
M  V30 14492 H 1310.54 3.14082 -3.11135 0
M  V30 14493 N 1309.6 1.55164 0.276031 0
M  V30 14494 C 1310.53 1.90844 1.34539 0
M  V30 14495 C 1311.51 0.769968 1.51676 0
M  V30 14496 O 1312.69 1.02785 1.64769 0
M  V30 14497 C 1309.82 2.17769 2.70543 0
M  V30 14498 C 1308.78 3.33592 2.68142 0
M  V30 14499 C 1308.1 3.45991 4.07669 0
M  V30 14500 C 1309.4 4.70064 2.27678 0
M  V30 14501 H 1311.1 2.80412 1.04926 0
M  V30 14502 H 1308.64 1.34918 0.503303 0
M  V30 14503 H 1310.6 2.41317 3.45462 0
M  V30 14504 H 1309.32 1.24997 3.01734 0
M  V30 14505 H 1307.98 3.10007 1.95681 0
M  V30 14506 H 1307.63 2.50691 4.36077 0
M  V30 14507 H 1307.33 4.23862 4.06958 0
M  V30 14508 H 1308.85 3.71828 4.84331 0
M  V30 14509 H 1310.26 4.93176 2.92319 0
M  V30 14510 H 1308.66 5.50829 2.38134 0
M  V30 14511 H 1309.73 4.69091 1.22808 0
M  V30 14512 N 1311.07 -0.540404 1.48045 0
M  V30 14513 C 1312.04 -1.62813 1.61322 0
M  V30 14514 C 1313.04 -1.53243 0.487161 0
M  V30 14515 O 1314.23 -1.571 0.752684 0
M  V30 14516 C 1311.36 -3.02408 1.5736 0
M  V30 14517 H 1312.55 -1.52385 2.583 0
M  V30 14518 H 1310.11 -0.761654 1.36486 0
M  V30 14519 H 1310.84 -3.18353 0.618195 0
M  V30 14520 H 1310.63 -3.10763 2.39099 0
M  V30 14521 H 1312.12 -3.8151 1.69822 0
M  V30 14522 N 1312.55 -1.36459 -0.788468 0
M  V30 14523 C 1313.52 -1.3071 -1.88275 0
M  V30 14524 C 1314.52 -0.214596 -1.59362 0
M  V30 14525 O 1315.71 -0.469437 -1.67756 0
M  V30 14526 C 1312.84 -1.02648 -3.25079 0
M  V30 14527 H 1314.03 -2.28029 -1.94788 0
M  V30 14528 H 1311.58 -1.21245 -0.986375 0
M  V30 14529 H 1312.32 -0.0578992 -3.24248 0
M  V30 14530 H 1312.1 -1.81708 -3.47454 0
M  V30 14531 H 1313.59 -1.01233 -4.05144 0
M  V30 14532 N 1314.03 1.01274 -1.20754 0
M  V30 14533 C 1315.45 1.27256 -0.963221 0
M  V30 14534 C 1315.65 1.98349 0.354972 0
M  V30 14535 O 1314.7 2.28116 1.08255 0
M  V30 14536 C 1316.02 2.1038 -2.14851 0
M  V30 14537 C 1317.56 2.23633 -2.18991 0
M  V30 14538 C 1318.04 3.10136 -3.37016 0
M  V30 14539 N 1319.53 3.17724 -3.37054 0
M  V30 14540 C 1320.26 3.84891 -4.25025 0
M  V30 14541 N 1319.76 4.54152 -5.23181 0
M  V30 14542 N 1321.55 3.81454 -4.12855 0
M  V30 14543 H 1313.7 0.535534 -2.05538 0
M  V30 14544 H 1315.97 0.299006 -0.899611 0
M  V30 14545 H 1315.67 1.65484 -3.10335 0
M  V30 14546 H 1315.55 3.11122 -2.13267 0
M  V30 14547 H 1317.93 2.67753 -1.24067 0
M  V30 14548 H 1318.02 1.22387 -2.24622 0
M  V30 14549 H 1317.66 2.66721 -4.32229 0
M  V30 14550 H 1317.59 4.11478 -3.28623 0
M  V30 14551 H 1320.08 2.68412 -2.66014 0
M  V30 14552 H 1320.39 5.03084 -5.86623 0
M  V30 14553 H 1318.74 4.52964 -5.27113 0
M  V30 14554 H 1321.93 3.26494 -3.35439 0
M  V30 14555 H 1322.1 4.33523 -4.81624 0
M  V30 14556 N 1315.51 1.01404 1.20644 0
M  V30 14557 C 1316.44 0.602465 2.25594 0
M  V30 14558 C 1317.42 -0.381216 1.65773 0
M  V30 14559 O 1318.61 -0.267209 1.92353 0
M  V30 14560 C 1315.74 -0.0626245 3.47244 0
M  V30 14561 C 1314.69 0.841776 4.1964 0
M  V30 14562 C 1314.02 0.0426002 5.34683 0
M  V30 14563 C 1315.32 2.14864 4.76058 0
M  V30 14564 H 1317.01 1.47977 2.60275 0
M  V30 14565 H 1314.56 0.712966 1.25111 0
M  V30 14566 H 1316.51 -0.362095 4.19841 0
M  V30 14567 H 1315.23 -0.974627 3.11719 0
M  V30 14568 H 1313.89 1.12521 3.48905 0
M  V30 14569 H 1313.54 -0.870973 4.95402 0
M  V30 14570 H 1313.24 0.644866 5.84051 0
M  V30 14571 H 1314.76 -0.250476 6.10086 0
M  V30 14572 H 1316.18 1.9117 5.40488 0
M  V30 14573 H 1314.57 2.70153 5.35852 0
M  V30 14574 H 1315.64 2.81336 3.9494 0
M  V30 14575 N 1316.99 -1.36373 0.789944 0
M  V30 14576 C 1317.95 -2.28372 0.194639 0
M  V30 14577 C 1318.95 -1.48849 -0.608332 0
M  V30 14578 O 1320.14 -1.68829 -0.42925 0
M  V30 14579 C 1317.27 -3.3298 -0.730553 0
M  V30 14580 H 1318.47 -2.82529 1.00585 0
M  V30 14581 H 1316.02 -1.45946 0.559406 0
M  V30 14582 H 1316.75 -2.8398 -1.56608 0
M  V30 14583 H 1316.54 -3.91787 -0.156706 0
M  V30 14584 H 1318.03 -4.01684 -1.14192 0
M  V30 14585 N 1318.47 -0.542005 -1.47987 0
M  V30 14586 C 1319.71 -0.0123116 -2.02496 0
M  V30 14587 C 1320.04 1.33136 -1.41793 0
M  V30 14588 O 1319.3 1.87591 -0.557501 0
M  V30 14589 C 1319.59 0.146208 -3.57101 0
M  V30 14590 C 1319.26 -1.12463 -4.3665 0
M  V30 14591 C 1317.92 -1.47289 -4.58104 0
M  V30 14592 C 1320.27 -1.96746 -4.82639 0
M  V30 14593 C 1317.6 -2.66273 -5.22796 0
M  V30 14594 C 1319.95 -3.14919 -5.48643 0
M  V30 14595 C 1318.62 -3.50077 -5.68333 0
M  V30 14596 H 1317.89 -0.00450514 -0.740986 0
M  V30 14597 H 1320.54 -0.710455 -1.77834 0
M  V30 14598 H 1318.84 0.927209 -3.80671 0
M  V30 14599 H 1320.54 0.571161 -3.96912 0
M  V30 14600 H 1317.13 -0.843429 -4.20219 0
M  V30 14601 H 1321.31 -1.71149 -4.65856 0
M  V30 14602 H 1316.57 -2.937 -5.36237 0
M  V30 14603 H 1320.74 -3.80525 -5.83244 0
M  V30 14604 H 1318.37 -4.42371 -6.18233 0
M  V30 14605 N 1319.94 1.55134 -0.277709 0
M  V30 14606 C 1321.19 1.99949 0.338831 0
M  V30 14607 C 1321.52 1.16587 1.5531 0
M  V30 14608 O 1320.8 0.236572 1.93056 0
M  V30 14609 C 1321.08 3.5286 0.718457 0
M  V30 14610 C 1320.93 4.46975 -0.503332 0
M  V30 14611 C 1322.25 4.11754 1.55392 0
M  V30 14612 H 1319.37 0.726885 0.121682 0
M  V30 14613 H 1322.01 1.86055 -0.385171 0
M  V30 14614 H 1320.16 3.64831 1.33531 0
M  V30 14615 H 1321.84 4.46944 -1.14188 0
M  V30 14616 H 1320.08 4.18528 -1.14092 0
M  V30 14617 H 1320.75 5.51659 -0.193912 0
M  V30 14618 H 1323.23 4.03075 1.03293 0
M  V30 14619 H 1322.1 5.1895 1.78835 0
M  V30 14620 H 1322.36 3.62147 2.53578 0
M  V30 14621 N 1321.42 0.00503138 1.57599 0
M  V30 14622 C 1322.67 -0.677979 1.89964 0
M  V30 14623 C 1322.98 -1.74657 0.88059 0
M  V30 14624 O 1324.19 -2.48455 1.09463 0
M  V30 14625 C 1322.65 -1.25708 3.37232 0
M  V30 14626 C 1322.25 -0.223045 4.47444 0
M  V30 14627 C 1324 -1.91799 3.787 0
M  V30 14628 C 1321.9 -0.812416 5.85793 0
M  V30 14629 H 1320.83 -0.256991 0.708852 0
M  V30 14630 H 1323.49 0.0663988 1.8338 0
M  V30 14631 H 1321.87 -2.05228 3.3867 0
M  V30 14632 H 1323.04 0.54794 4.57531 0
M  V30 14633 H 1321.36 0.337714 4.15028 0
M  V30 14634 H 1323.95 -2.36808 4.79402 0
M  V30 14635 H 1324.3 -2.75067 3.1248 0
M  V30 14636 H 1324.83 -1.19004 3.79583 0
M  V30 14637 H 1321.57 -0.0184031 6.55497 0
M  V30 14638 H 1321.09 -1.55244 5.79361 0
M  V30 14639 H 1322.77 -1.30952 6.33609 0
M  V30 14640 N 1322.9 -1.55308 -0.267798 0
M  V30 14641 C 1324.15 -1.7642 -1.00019 0
M  V30 14642 C 1324.48 -0.566559 -1.85752 0
M  V30 14643 O 1323.75 0.435752 -1.89556 0
M  V30 14644 C 1324.04 -3.07229 -1.87836 0
M  V30 14645 C 1323.89 -4.37358 -1.05061 0
M  V30 14646 C 1325.21 -3.34113 -2.86455 0
M  V30 14647 H 1322.33 -0.641859 -0.362197 0
M  V30 14648 H 1324.97 -1.8804 -0.272188 0
M  V30 14649 H 1323.12 -2.97454 -2.49907 0
M  V30 14650 H 1324.79 -4.59098 -0.450208 0
M  V30 14651 H 1323.03 -4.32351 -0.354242 0
M  V30 14652 H 1323.71 -5.25223 -1.69838 0
M  V30 14653 H 1326.18 -3.43715 -2.34519 0
M  V30 14654 H 1325.06 -4.26896 -3.45038 0
M  V30 14655 H 1325.32 -2.54005 -3.61848 0
M  V30 14656 N 1324.38 0.532545 -1.4833 0
M  V30 14657 C 1325.62 1.28851 -1.56217 0
M  V30 14658 C 1325.95 1.93076 -0.234967 0
M  V30 14659 O 1325.21 1.79722 0.774508 0
M  V30 14660 C 1325.51 2.40117 -2.64724 0
M  V30 14661 C 1325.17 1.93562 -4.0724 0
M  V30 14662 C 1323.83 1.80583 -4.46031 0
M  V30 14663 C 1326.19 1.58349 -4.96563 0
M  V30 14664 C 1323.51 1.30722 -5.71952 0
M  V30 14665 C 1325.87 1.09951 -6.22972 0
M  V30 14666 C 1324.53 0.955866 -6.60621 0
M  V30 14667 H 1323.8 0.4715 -0.571637 0
M  V30 14668 H 1326.45 0.594564 -1.82036 0
M  V30 14669 H 1324.75 3.15171 -2.32754 0
M  V30 14670 H 1326.45 2.98252 -2.68042 0
M  V30 14671 H 1323.04 2.04614 -3.76605 0
M  V30 14672 H 1327.22 1.67237 -4.67274 0
M  V30 14673 H 1322.48 1.18286 -5.99849 0
M  V30 14674 H 1326.65 0.817736 -6.91582 0
M  V30 14675 H 1324.28 0.567302 -7.5808 0
M  V30 14676 N 1325.86 1.36875 0.78122 0
M  V30 14677 C 1326.79 1.27738 1.90304 0
M  V30 14678 C 1327.8 0.195147 1.61626 0
M  V30 14679 O 1328.99 0.450531 1.72721 0
M  V30 14680 C 1326.09 0.950103 3.25309 0
M  V30 14681 C 1325.26 2.13589 3.81705 0
M  V30 14682 C 1324.32 1.78037 4.95166 0
M  V30 14683 O 1323.35 2.50223 5.11251 0
M  V30 14684 N 1324.55 0.718886 5.76031 0
M  V30 14685 H 1327.31 2.24397 1.98661 0
M  V30 14686 H 1324.88 1.30376 0.959883 0
M  V30 14687 H 1326.87 0.693286 3.98717 0
M  V30 14688 H 1325.44 0.0723849 3.12516 0
M  V30 14689 H 1324.66 2.55502 3.00187 0
M  V30 14690 H 1325.95 2.9279 4.16114 0
M  V30 14691 H 1325.34 0.119681 5.65573 0
M  V30 14692 H 1323.9 0.521909 6.49707 0
M  V30 14693 N 1327.33 -1.00632 1.21289 0
M  V30 14694 C 1328.28 -2.11502 0.96798 0
M  V30 14695 C 1329.28 -1.6919 -0.0843024 0
M  V30 14696 O 1330.48 -1.79875 0.06697 0
M  V30 14697 H 1326.86 -0.691398 0.295759 0
M  V30 14698 H 1328.83 -2.29337 1.90911 0
M  V30 14699 C 1327.58 -3.43357 0.547818 0
M  V30 14700 H 1326.9 -3.76348 1.34915 0
M  V30 14701 H 1328.34 -4.21957 0.415759 0
M  V30 14702 C 1326.8 -3.28648 -0.741086 0
M  V30 14703 O 1327.33 -3.59267 -1.79695 0
M  V30 14704 N 1325.53 -2.81866 -0.707084 0
M  V30 14705 H 1325.08 -2.57149 0.152447 0
M  V30 14706 H 1325.04 -2.72406 -1.56979 0
M  V30 14707 N 1328.81 -1.02043 -1.20104 0
M  V30 14708 C 1329.74 -0.614421 -2.25271 0
M  V30 14709 C 1330.72 0.37242 -1.65973 0
M  V30 14710 O 1331.91 0.257005 -1.92492 0
M  V30 14711 C 1329.04 0.0442085 -3.47272 0
M  V30 14712 C 1327.99 -0.864019 -4.19188 0
M  V30 14713 C 1327.32 -0.0709551 -5.34653 0
M  V30 14714 C 1328.62 -2.17385 -4.74912 0
M  V30 14715 H 1330.31 -1.49355 -2.59487 0
M  V30 14716 H 1327.86 -0.719591 -1.24731 0
M  V30 14717 H 1329.81 0.339825 -4.20028 0
M  V30 14718 H 1328.53 0.958082 -3.12231 0
M  V30 14719 H 1327.19 -1.1437 -3.48303 0
M  V30 14720 H 1326.84 0.844688 -4.95857 0
M  V30 14721 H 1326.54 -0.67583 -5.83701 0
M  V30 14722 H 1328.07 0.218118 -6.1021 0
M  V30 14723 H 1329.48 -1.94034 -5.39466 0
M  V30 14724 H 1327.88 -2.72991 -5.34412 0
M  V30 14725 H 1328.95 -2.83427 -3.93443 0
M  V30 14726 N 1330.29 1.35952 -0.797165 0
M  V30 14727 C 1331.54 1.99327 -0.373695 0
M  V30 14728 C 1331.87 1.63111 1.05396 0
M  V30 14729 O 1331.14 0.889736 1.72956 0
M  V30 14730 C 1331.43 3.5593 -0.54641 0
M  V30 14731 C 1331.28 4.01975 -2.01832 0
M  V30 14732 C 1332.6 4.40087 0.0337694 0
M  V30 14733 H 1329.72 0.724107 -0.137254 0
M  V30 14734 H 1332.36 1.61248 -1.00495 0
M  V30 14735 H 1330.51 3.88499 -0.00903959 0
M  V30 14736 H 1332.18 3.79859 -2.61735 0
M  V30 14737 H 1330.43 3.5323 -2.51815 0
M  V30 14738 H 1331.1 5.109 -2.09009 0
M  V30 14739 H 1333.57 4.13923 -0.425039 0
M  V30 14740 H 1332.45 5.48775 -0.117054 0
M  V30 14741 H 1332.71 4.27504 1.12661 0
M  V30 14742 N 1331.77 0.549846 1.47697 0
M  V30 14743 C 1332.7 -0.249645 2.2683 0
M  V30 14744 C 1333.68 -0.926968 1.33589 0
M  V30 14745 O 1334.86 -0.947423 1.62961 0
M  V30 14746 C 1331.99 -1.35511 3.1041 0
M  V30 14747 C 1331.04 -0.787118 4.19174 0
M  V30 14748 S 1331.87 0.360564 5.34285 0
M  V30 14749 C 1333.03 -0.746898 6.21428 0
M  V30 14750 H 1333.26 0.421876 2.94292 0
M  V30 14751 H 1330.79 0.336017 1.50699 0
M  V30 14752 H 1332.75 -1.98825 3.59137 0
M  V30 14753 H 1331.41 -1.99844 2.42325 0
M  V30 14754 H 1330.6 -1.61704 4.77355 0
M  V30 14755 H 1330.21 -0.230301 3.7329 0
M  V30 14756 H 1332.5 -1.6408 6.57331 0
M  V30 14757 H 1333.44 -0.202608 7.0781 0
M  V30 14758 H 1333.85 -1.03625 5.54907 0
M  V30 14759 N 1333.25 -1.54984 0.285932 0
M  V30 14760 C 1334.49 -1.9983 -0.327737 0
M  V30 14761 C 1334.82 -1.17435 -1.55046 0
M  V30 14762 O 1334.08 -0.234735 -1.94287 0
M  V30 14763 C 1334.38 -3.49581 -0.7435 0
M  V30 14764 C 1334.04 -4.49331 0.375792 0
M  V30 14765 C 1332.7 -4.76327 0.683103 0
M  V30 14766 C 1335.06 -5.08815 1.12947 0
M  V30 14767 C 1332.38 -5.60071 1.74748 0
M  V30 14768 C 1334.74 -5.93716 2.18366 0
M  V30 14769 C 1333.4 -6.19028 2.4972 0
M  V30 14770 H 1332.67 -0.731231 -0.119928 0
M  V30 14771 H 1335.32 -1.87235 0.401896 0
M  V30 14772 H 1333.62 -3.59708 -1.55298 0
M  V30 14773 H 1335.32 -3.81694 -1.22924 0
M  V30 14774 H 1331.91 -4.28414 0.126159 0
M  V30 14775 H 1336.09 -4.87973 0.905313 0
M  V30 14776 H 1331.35 -5.77925 1.9953 0
M  V30 14777 H 1335.52 -6.38838 2.77233 0
M  V30 14778 H 1333.15 -6.83711 3.3233 0
M  V30 14779 N 1334.72 -0.0133892 -1.57594 0
M  V30 14780 C 1335.66 1.00798 -2.04731 0
M  V30 14781 C 1336.64 1.32686 -0.93985 0
M  V30 14782 O 1337.82 1.44622 -1.209 0
M  V30 14783 C 1334.95 2.33216 -2.45618 0
M  V30 14784 C 1333.99 2.16898 -3.67229 0
M  V30 14785 S 1334.83 1.48248 -5.14571 0
M  V30 14786 C 1335.98 2.82068 -5.58738 0
M  V30 14787 H 1336.21 0.606673 -2.91044 0
M  V30 14788 H 1333.75 0.197865 -1.53127 0
M  V30 14789 H 1335.71 3.09348 -2.69841 0
M  V30 14790 H 1334.37 2.70483 -1.59679 0
M  V30 14791 H 1333.56 3.14753 -3.93632 0
M  V30 14792 H 1333.16 1.4891 -3.43077 0
M  V30 14793 H 1335.45 3.78343 -5.62017 0
M  V30 14794 H 1336.4 2.60348 -6.58502 0
M  V30 14795 H 1336.8 2.86592 -4.86338 0
M  V30 14796 N 1336.2 1.55448 0.259558 0
M  V30 14797 C 1337.43 1.81063 1.01148 0
M  V30 14798 C 1337.85 0.58875 1.78649 0
M  V30 14799 O 1337.21 -0.461971 1.75315 0
M  V30 14800 C 1337.26 3.04279 1.93512 0
M  V30 14801 O 1336.36 2.80307 3.02493 0
M  V30 14802 H 1335.7 0.598056 0.288487 0
M  V30 14803 H 1338.23 2.02614 0.284387 0
M  V30 14804 H 1338.24 3.33373 2.35215 0
M  V30 14805 H 1336.92 3.92856 1.36518 0
M  V30 14806 H 1335.5 2.62345 2.65008 0
M  V30 14807 N 1337.68 -0.524672 1.4861 0
M  V30 14808 C 1338.96 -1.28592 1.47389 0
M  V30 14809 C 1339.34 -2.10257 0.188482 0
M  V30 14810 O 1338.69 -2.12905 -0.829689 0
M  V30 14811 C 1338.9 -2.16284 2.73902 0
M  V30 14812 C 1340.24 -2.7625 3.22445 0
M  V30 14813 O 1341.27 -2.26567 2.74856 0
M  V30 14814 O 1340.13 -3.66635 4.05267 0
M  V30 14815 H 1337.22 -0.580666 0.58886 0
M  V30 14816 H 1339.77 -0.540888 1.60849 0
M  V30 14817 H 1338.54 -1.55757 3.58964 0
M  V30 14818 H 1338.16 -2.98024 2.63188 0
M  V30 14819 N 1339.16 -1.37287 -0.77395 0
M  V30 14820 C 1340.41 -1.32374 -1.53243 0
M  V30 14821 C 1340.73 0.0924284 -1.9428 0
M  V30 14822 O 1339.99 1.06517 -1.64173 0
M  V30 14823 C 1340.29 -2.20667 -2.81142 0
M  V30 14824 C 1339.95 -3.68975 -2.59168 0
M  V30 14825 C 1338.62 -4.09394 -2.52884 0
M  V30 14826 C 1340.97 -4.62941 -2.39447 0
M  V30 14827 C 1338.3 -5.41897 -2.24865 0
M  V30 14828 C 1340.65 -5.9568 -2.12952 0
M  V30 14829 C 1339.31 -6.35205 -2.05111 0
M  V30 14830 H 1338.58 -0.48439 -0.560756 0
M  V30 14831 H 1341.23 -1.69475 -0.891663 0
M  V30 14832 H 1339.53 -1.76553 -3.49766 0
M  V30 14833 H 1341.23 -2.1418 -3.3901 0
M  V30 14834 H 1337.82 -3.36919 -2.64922 0
M  V30 14835 H 1342 -4.32576 -2.43293 0
M  V30 14836 H 1337.26 -5.71486 -2.17288 0
M  V30 14837 H 1341.43 -6.68046 -1.9669 0
M  V30 14838 H 1339.06 -7.37804 -1.83163 0
M  V30 14839 N 1340.64 0.999871 -1.21821 0
M  V30 14840 C 1341.88 1.74098 -1.04009 0
M  V30 14841 C 1342.22 1.89499 0.424716 0
M  V30 14842 O 1341.49 1.43306 1.31505 0
M  V30 14843 C 1341.77 3.1506 -1.74382 0
M  V30 14844 C 1341.63 3.0735 -3.28414 0
M  V30 14845 C 1342.95 4.1409 -1.49055 0
M  V30 14846 H 1340.06 0.631935 -0.379245 0
M  V30 14847 H 1342.71 1.16534 -1.50066 0
M  V30 14848 H 1340.86 3.64206 -1.35227 0
M  V30 14849 H 1342.53 2.65879 -3.76969 0
M  V30 14850 H 1340.77 2.44325 -3.58452 0
M  V30 14851 H 1341.44 4.07069 -3.72825 0
M  V30 14852 H 1343.92 3.73672 -1.83054 0
M  V30 14853 H 1342.79 5.10853 -2.008 0
M  V30 14854 H 1343.06 4.40085 -0.421641 0
M  V30 14855 N 1342.11 1.02678 1.19562 0
M  V30 14856 C 1343.39 0.63674 1.84946 0
M  V30 14857 C 1343.77 -0.884667 1.91669 0
M  V30 14858 O 1343.12 -1.78053 1.43211 0
M  V30 14859 C 1343.33 1.29637 3.2403 0
M  V30 14860 C 1344.68 1.41828 4.00212 0
M  V30 14861 O 1345.7 1.25338 3.3342 0
M  V30 14862 O 1344.56 1.68573 5.19851 0
M  V30 14863 H 1341.65 0.221044 0.796912 0
M  V30 14864 H 1344.2 1.1248 1.27068 0
M  V30 14865 H 1342.97 2.33549 3.1396 0
M  V30 14866 H 1342.6 0.796041 3.8955 0
M  V30 14867 N 1343.59 -1.35528 0.804364 0
M  V30 14868 C 1344.84 -1.9956 0.393383 0
M  V30 14869 C 1345.19 -1.62667 -1.02749 0
M  V30 14870 O 1344.49 -0.87869 -1.70263 0
M  V30 14871 C 1344.68 -3.5372 0.511571 0
M  V30 14872 C 1344.51 -4.05588 1.94238 0
M  V30 14873 C 1343.28 -4.35046 2.57027 0
M  V30 14874 C 1345.48 -4.24287 2.90663 0
M  V30 14875 N 1343.46 -4.7283 3.91541 0
M  V30 14876 C 1344.83 -4.65043 4.10043 0
M  V30 14877 C 1346.89 -4.0649 2.87524 0
M  V30 14878 C 1345.59 -4.89864 5.26712 0
M  V30 14879 C 1347.61 -4.32467 4.03394 0
M  V30 14880 C 1346.98 -4.73492 5.21521 0
M  V30 14881 H 1343.08 -0.758146 0.191674 0
M  V30 14882 H 1345.66 -1.64271 1.04513 0
M  V30 14883 H 1343.83 -3.88244 -0.110174 0
M  V30 14884 H 1345.56 -4.0463 0.0753915 0
M  V30 14885 H 1342.32 -4.25285 2.08397 0
M  V30 14886 H 1342.74 -4.95985 4.6079 0
M  V30 14887 H 1347.38 -3.73916 1.97349 0
M  V30 14888 H 1345.1 -5.21313 6.17461 0
M  V30 14889 H 1348.69 -4.20252 4.02343 0
M  V30 14890 H 1347.57 -4.93201 6.09691 0
M  V30 14891 N 1345.07 -0.557671 -1.47404 0
M  V30 14892 C 1346.32 -0.0338384 -2.02772 0
M  V30 14893 C 1346.65 1.31278 -1.43107 0
M  V30 14894 O 1345.93 1.85436 -0.58682 0
M  V30 14895 C 1346.21 0.0587427 -3.60052 0
M  V30 14896 C 1346.06 -1.315 -4.30148 0
M  V30 14897 C 1347.38 0.771942 -4.33277 0
M  V30 14898 H 1344.5 -0.0137711 -0.736871 0
M  V30 14899 H 1347.14 -0.720049 -1.75827 0
M  V30 14900 H 1345.29 0.643154 -3.83139 0
M  V30 14901 H 1346.96 -1.94265 -4.184 0
M  V30 14902 H 1345.21 -1.88956 -3.90484 0
M  V30 14903 H 1345.88 -1.20294 -5.38733 0
M  V30 14904 H 1348.35 0.275729 -4.15185 0
M  V30 14905 H 1347.23 0.805683 -5.42955 0
M  V30 14906 H 1347.49 1.82816 -4.0253 0
M  V30 14907 N 1346.55 1.54831 -0.294147 0
M  V30 14908 C 1347.8 1.99179 0.317874 0
M  V30 14909 C 1348.11 1.18614 1.55532 0
M  V30 14910 O 1349.32 1.53197 2.24149 0
M  V30 14911 C 1347.77 3.54574 0.616893 0
M  V30 14912 C 1347.38 4.43939 -0.601822 0
M  V30 14913 C 1349.13 4.07465 1.19049 0
M  V30 14914 C 1347.03 5.90754 -0.276336 0
M  V30 14915 H 1345.96 0.743974 0.12255 0
M  V30 14916 H 1348.61 1.79047 -0.401781 0
M  V30 14917 H 1347 3.70579 1.39596 0
M  V30 14918 H 1348.17 4.39706 -1.37822 0
M  V30 14919 H 1346.48 4.01783 -1.09357 0
M  V30 14920 H 1349.08 5.14716 1.44814 0
M  V30 14921 H 1349.42 3.5765 2.13055 0
M  V30 14922 H 1349.96 3.94975 0.473282 0
M  V30 14923 H 1346.7 6.44704 -1.18478 0
M  V30 14924 H 1346.22 5.98011 0.462928 0
M  V30 14925 H 1347.9 6.4688 0.124587 0
M  V30 14926 N 1348.03 0.0217466 1.57585 0
M  V30 14927 C 1349.44 -0.51811 1.79367 0
M  V30 14928 C 1349.79 -1.72688 0.931313 0
M  V30 14929 O 1348.91 -2.15949 0.139687 0
M  V30 14930 C 1349.51 -0.946711 3.25304 0
M  V30 14931 C 1348.07 -1.43173 3.48107 0
M  V30 14932 C 1347.22 -0.392996 2.74501 0
M  V30 14933 H 1350.17 0.247822 1.56753 0
M  V30 14934 H 1350.19 -1.81152 3.34611 0
M  V30 14935 H 1349.7 -0.0667536 3.88043 0
M  V30 14936 H 1347.8 -2.33186 2.90612 0
M  V30 14937 H 1347.91 -1.44419 4.56815 0
M  V30 14938 H 1346.28 -0.859471 2.39761 0
M  V30 14939 H 1347.06 0.478368 3.39951 0
M  V30 14940 N 1349.51 -1.55583 -0.251311 0
M  V30 14941 C 1350.78 -1.67954 -1.00254 0
M  V30 14942 C 1351.16 -0.560326 -2.03528 0
M  V30 14943 O 1350.51 0.436811 -2.24286 0
M  V30 14944 C 1350.72 -3.08075 -1.63985 0
M  V30 14945 C 1352.07 -3.66531 -2.14336 0
M  V30 14946 O 1353.09 -3.10846 -1.73934 0
M  V30 14947 O 1351.95 -4.64141 -2.88506 0
M  V30 14948 H 1349.05 -0.682952 -0.466375 0
M  V30 14949 H 1351.59 -1.67916 -0.245447 0
M  V30 14950 H 1350.36 -3.80983 -0.892627 0
M  V30 14951 H 1349.99 -3.12105 -2.46325 0
M  V30 14952 N 1350.98 0.516783 -1.48886 0
M  V30 14953 C 1352.23 1.26841 -1.56825 0
M  V30 14954 C 1352.55 1.93957 -0.252998 0
M  V30 14955 O 1353.75 2.70681 -0.210765 0
M  V30 14956 C 1352.21 2.30223 -2.76633 0
M  V30 14957 C 1351.82 1.69117 -4.14853 0
M  V30 14958 C 1353.56 3.06313 -2.93893 0
M  V30 14959 C 1351.47 2.70516 -5.25904 0
M  V30 14960 H 1350.4 0.477087 -0.58387 0
M  V30 14961 H 1353.05 0.544187 -1.75245 0
M  V30 14962 H 1351.43 3.05739 -2.51674 0
M  V30 14963 H 1352.6 0.997003 -4.49885 0
M  V30 14964 H 1350.92 1.05473 -4.0282 0
M  V30 14965 H 1353.52 3.8211 -3.74027 0
M  V30 14966 H 1353.86 3.62976 -2.03848 0
M  V30 14967 H 1354.39 2.37911 -3.18815 0
M  V30 14968 H 1351.13 2.18655 -6.17956 0
M  V30 14969 H 1350.65 3.38221 -4.95345 0
M  V30 14970 H 1352.33 3.3325 -5.54575 0
M  V30 14971 N 1352.46 1.37696 0.766659 0
M  V30 14972 C 1353.87 1.29668 1.34324 0
M  V30 14973 C 1354.22 -0.0534297 1.96127 0
M  V30 14974 O 1353.35 -0.95534 1.94171 0
M  V30 14975 C 1353.94 2.34818 2.44225 0
M  V30 14976 C 1352.5 2.3041 2.97638 0
M  V30 14977 C 1351.65 2.18378 1.70899 0
M  V30 14978 H 1354.6 1.48244 0.566526 0
M  V30 14979 H 1354.62 1.99778 3.23835 0
M  V30 14980 H 1354.13 3.3307 1.99214 0
M  V30 14981 H 1352.23 1.35698 3.47011 0
M  V30 14982 H 1352.35 3.24028 3.52906 0
M  V30 14983 H 1350.71 1.65008 1.94021 0
M  V30 14984 H 1351.49 3.18551 1.27985 0
M  V30 14985 N 1353.94 -0.993397 1.22349 0
M  V30 14986 C 1354.89 -2.0834 0.993123 0
M  V30 14987 C 1355.86 -1.65883 -0.0849717 0
M  V30 14988 O 1357.04 -1.90691 0.0645176 0
M  V30 14989 C 1354.18 -3.40252 0.576434 0
M  V30 14990 C 1353.29 -3.96055 1.72524 0
M  V30 14991 C 1352.43 -5.16123 1.25659 0
M  V30 14992 C 1351.47 -5.64062 2.37698 0
M  V30 14993 N 1350.61 -6.7537 1.91883 0
M  V30 14994 H 1355.45 -2.27381 1.92619 0
M  V30 14995 H 1352.98 -1.11476 0.959763 0
M  V30 14996 H 1354.94 -4.16001 0.316021 0
M  V30 14997 H 1353.57 -3.21214 -0.319626 0
M  V30 14998 H 1352.62 -3.17182 2.1 0
M  V30 14999 H 1353.93 -4.27614 2.56802 0
M  V30 15000 H 1353.09 -5.9916 0.953528 0
M  V30 15001 H 1351.83 -4.86186 0.384011 0
M  V30 15002 H 1350.83 -4.79614 2.68794 0
M  V30 15003 H 1352.06 -5.96025 3.25471 0
M  V30 15004 H 1350 -6.47217 1.06986 0
M  V30 15005 H 1349.92 -7.06246 2.69727 0
M  V30 15006 H 1351.19 -7.61914 1.64644 0
M  V30 15007 N 1355.42 -1.03311 -1.19015 0
M  V30 15008 C 1356.69 -0.646539 -1.84606 0
M  V30 15009 C 1357.07 0.87449 -1.92135 0
M  V30 15010 O 1356.42 1.77291 -1.44154 0
M  V30 15011 C 1356.63 -1.31354 -3.23338 0
M  V30 15012 C 1357.98 -1.43949 -3.99455 0
M  V30 15013 O 1359 -1.27104 -3.32751 0
M  V30 15014 O 1357.86 -1.71328 -5.1895 0
M  V30 15015 H 1354.96 -0.225267 -0.795728 0
M  V30 15016 H 1357.5 -1.13152 -1.2647 0
M  V30 15017 H 1356.28 -2.3521 -3.12717 0
M  V30 15018 H 1355.9 -0.816688 -3.89122 0
M  V30 15019 N 1356.9 1.35099 -0.81154 0
M  V30 15020 C 1358.14 1.9788 -0.390695 0
M  V30 15021 C 1358.46 1.6509 1.04903 0
M  V30 15022 O 1359.66 2.21273 1.57324 0
M  V30 15023 C 1358.12 3.54025 -0.647632 0
M  V30 15024 C 1357.73 3.9572 -2.10023 0
M  V30 15025 C 1359.47 4.23492 -0.29239 0
M  V30 15026 C 1357.38 5.44731 -2.30266 0
M  V30 15027 H 1356.31 0.740441 -0.14235 0
M  V30 15028 H 1358.96 1.54098 -0.996294 0
M  V30 15029 H 1357.34 3.9599 0.0279838 0
M  V30 15030 H 1358.52 3.64893 -2.81407 0
M  V30 15031 H 1356.83 3.39157 -2.41581 0
M  V30 15032 H 1359.43 5.33035 -0.421618 0
M  V30 15033 H 1359.77 4.09268 0.76195 0
M  V30 15034 H 1360.3 3.86965 -0.922122 0
M  V30 15035 H 1357.04 5.63928 -3.34163 0
M  V30 15036 H 1356.56 5.7711 -1.63413 0
M  V30 15037 H 1358.24 6.1126 -2.12062 0
M  V30 15038 N 1358.37 0.56548 1.47106 0
M  V30 15039 C 1359.6 0.0476763 2.07345 0
M  V30 15040 C 1360.02 -1.24032 1.41413 0
M  V30 15041 O 1359.38 -1.74498 0.491941 0
M  V30 15042 C 1359.43 -0.122618 3.60391 0
M  V30 15043 O 1358.53 -1.18326 3.9506 0
M  V30 15044 H 1357.87 0.0550419 0.661715 0
M  V30 15045 H 1360.4 0.78352 1.89003 0
M  V30 15046 H 1360.41 -0.334227 4.06629 0
M  V30 15047 H 1359.09 0.81807 4.07775 0
M  V30 15048 H 1357.67 -0.951481 3.60557 0
M  V30 15049 N 1359.85 -1.54672 0.302354 0
M  V30 15050 C 1360.78 -2.21021 -0.606828 0
M  V30 15051 C 1361.8 -1.20337 -1.09648 0
M  V30 15052 O 1362.99 -1.46923 -1.0137 0
M  V30 15053 C 1360.09 -2.84411 -1.84293 0
M  V30 15054 C 1359.26 -4.11038 -1.49554 0
M  V30 15055 C 1358.32 -4.58219 -2.58693 0
M  V30 15056 O 1357.34 -5.23387 -2.23728 0
M  V30 15057 N 1358.55 -4.30651 -3.89256 0
M  V30 15058 H 1361.31 -2.99675 -0.0388221 0
M  V30 15059 H 1358.87 -1.6142 0.124614 0
M  V30 15060 H 1360.86 -3.12906 -2.56655 0
M  V30 15061 H 1359.43 -2.09589 -2.31929 0
M  V30 15062 H 1358.65 -3.89538 -0.604492 0
M  V30 15063 H 1359.94 -4.93488 -1.23884 0
M  V30 15064 H 1359.34 -3.78445 -4.20471 0
M  V30 15065 H 1357.9 -4.63853 -4.57913 0
M  V30 15066 N 1361.33 -0.0301034 -1.57571 0
M  V30 15067 C 1362.26 0.980187 -2.07183 0
M  V30 15068 C 1363.28 1.2882 -0.995449 0
M  V30 15069 O 1364.46 1.25268 -1.27162 0
M  V30 15070 C 1361.56 2.30734 -2.48224 0
M  V30 15071 C 1360.74 2.18434 -3.78953 0
M  V30 15072 C 1359.8 3.34092 -4.06533 0
M  V30 15073 O 1358.82 3.10934 -4.76769 0
M  V30 15074 N 1360.02 4.57914 -3.56784 0
M  V30 15075 H 1362.79 0.556877 -2.94481 0
M  V30 15076 H 1360.35 0.156632 -1.61141 0
M  V30 15077 H 1362.34 3.06936 -2.63766 0
M  V30 15078 H 1360.91 2.64703 -1.66287 0
M  V30 15079 H 1360.13 1.26953 -3.73198 0
M  V30 15080 H 1361.42 2.07421 -4.64601 0
M  V30 15081 H 1360.82 4.79623 -2.99964 0
M  V30 15082 H 1359.38 5.31281 -3.77603 0
M  V30 15083 N 1362.81 1.55714 0.243056 0
M  V30 15084 C 1364.06 1.76927 0.96849 0
M  V30 15085 C 1364.37 0.594748 1.86339 0
M  V30 15086 O 1365.58 0.689981 2.62586 0
M  V30 15087 C 1364.03 3.13246 1.77214 0
M  V30 15088 C 1363.64 4.38358 0.92444 0
M  V30 15089 C 1365.38 3.43796 2.49007 0
M  V30 15090 C 1363.29 5.65708 1.7242 0
M  V30 15091 H 1362.22 0.659574 0.365346 0
M  V30 15092 H 1364.87 1.8214 0.223026 0
M  V30 15093 H 1363.25 3.02151 2.5597 0
M  V30 15094 H 1364.43 4.60452 0.178936 0
M  V30 15095 H 1362.74 4.15171 0.319653 0
M  V30 15096 H 1365.34 4.3616 3.09303 0
M  V30 15097 H 1365.68 2.65297 3.20817 0
M  V30 15098 H 1366.22 3.56124 1.77259 0
M  V30 15099 H 1362.96 6.47039 1.04978 0
M  V30 15100 H 1362.48 5.4771 2.44488 0
M  V30 15101 H 1364.15 6.05105 2.29036 0
M  V30 15102 N 1364.29 -0.50888 1.49158 0
M  V30 15103 C 1365.24 -1.60799 1.61641 0
M  V30 15104 C 1366.22 -1.53808 0.472434 0
M  V30 15105 O 1367.41 -1.61471 0.724985 0
M  V30 15106 C 1364.54 -2.99444 1.67894 0
M  V30 15107 C 1363.63 -3.1146 2.87843 0
M  V30 15108 N 1364.02 -2.93387 4.12016 0
M  V30 15109 C 1362.32 -3.42549 2.85616 0
M  V30 15110 C 1363.02 -3.09378 4.92606 0
M  V30 15111 N 1361.99 -3.37902 4.2582 0
M  V30 15112 H 1365.8 -1.45468 2.55375 0
M  V30 15113 H 1363.31 -0.714832 1.45822 0
M  V30 15114 H 1365.31 -3.78423 1.74934 0
M  V30 15115 H 1363.97 -3.1585 0.752919 0
M  V30 15116 H 1364.98 -2.69721 4.42121 0
M  V30 15117 H 1361.65 -3.65181 2.02359 0
M  V30 15118 H 1363.04 -2.99964 6.01225 0
M  V30 15119 N 1365.76 -1.381 -0.759346 0
M  V30 15120 C 1366.71 -1.34866 -1.87296 0
M  V30 15121 C 1367.68 -0.212139 -1.6474 0
M  V30 15122 O 1368.87 -0.403464 -1.86485 0
M  V30 15123 C 1366.01 -1.17383 -3.24523 0
M  V30 15124 C 1365.12 -2.40372 -3.5895 0
M  V30 15125 C 1364.25 -2.15665 -4.8545 0
M  V30 15126 C 1363.29 -3.34455 -5.12646 0
M  V30 15127 N 1362.43 -3.0922 -6.30339 0
M  V30 15128 H 1367.27 -2.30072 -1.89396 0
M  V30 15129 H 1364.81 -1.14314 -0.925788 0
M  V30 15130 H 1366.77 -1.05264 -4.03702 0
M  V30 15131 H 1365.4 -0.258182 -3.21766 0
M  V30 15132 H 1364.45 -2.63185 -2.74659 0
M  V30 15133 H 1365.76 -3.28926 -3.74978 0
M  V30 15134 H 1364.91 -2.00649 -5.7256 0
M  V30 15135 H 1363.65 -1.24467 -4.7155 0
M  V30 15136 H 1362.66 -3.49997 -4.24007 0
M  V30 15137 H 1363.88 -4.26521 -5.28448 0
M  V30 15138 H 1361.83 -2.20664 -6.17773 0
M  V30 15139 H 1361.75 -3.91321 -6.46841 0
M  V30 15140 H 1363.01 -2.97847 -7.20352 0
M  V30 15141 N 1367.24 0.986894 -1.22875 0
M  V30 15142 C 1368.15 2.11232 -1.02069 0
M  V30 15143 C 1369.17 1.73969 0.0328424 0
M  V30 15144 O 1370.34 2.00754 -0.161197 0
M  V30 15145 C 1367.41 3.41337 -0.60747 0
M  V30 15146 C 1366.47 3.92665 -1.73531 0
M  V30 15147 C 1365.7 5.1656 -1.34171 0
M  V30 15148 O 1365.93 5.69964 -0.223106 0
M  V30 15149 O 1364.86 5.61791 -2.16041 0
M  V30 15150 H 1368.69 2.3167 -1.96374 0
M  V30 15151 H 1366.27 1.09607 -1.01522 0
M  V30 15152 H 1368.15 4.19613 -0.387661 0
M  V30 15153 H 1366.83 3.22244 0.306653 0
M  V30 15154 H 1365.74 3.15534 -2.0097 0
M  V30 15155 H 1367.07 4.162 -2.62751 0
M  V30 15156 N 1368.72 1.0394 1.18466 0
M  V30 15157 C 1369.67 0.629352 2.22054 0
M  V30 15158 C 1370.64 -0.362187 1.62103 0
M  V30 15159 O 1371.82 -0.256457 1.89069 0
M  V30 15160 C 1368.96 -0.00282888 3.451 0
M  V30 15161 C 1368.08 1.03602 4.19393 0
M  V30 15162 C 1367.21 0.372492 5.29892 0
M  V30 15163 C 1366.25 1.39652 5.95956 0
M  V30 15164 N 1365.39 0.758053 6.97996 0
M  V30 15165 H 1370.23 1.51722 2.56485 0
M  V30 15166 H 1367.76 0.759043 1.26004 0
M  V30 15167 H 1369.72 -0.386688 4.15404 0
M  V30 15168 H 1368.35 -0.854224 3.11292 0
M  V30 15169 H 1367.4 1.53784 3.47929 0
M  V30 15170 H 1368.72 1.81387 4.64651 0
M  V30 15171 H 1367.87 -0.065642 6.06664 0
M  V30 15172 H 1366.61 -0.437462 4.85734 0
M  V30 15173 H 1365.61 1.84481 5.17926 0
M  V30 15174 H 1366.84 2.20816 6.42197 0
M  V30 15175 H 1364.78 -0.0316173 6.55992 0
M  V30 15176 H 1364.7 1.47363 7.41499 0
M  V30 15177 H 1365.97 0.344273 7.78739 0
M  V30 15178 N 1370.2 -1.34667 0.818693 0
M  V30 15179 C 1371.44 -1.98708 0.405359 0
M  V30 15180 C 1371.78 -1.64767 -1.02788 0
M  V30 15181 O 1371.05 -0.91714 -1.71519 0
M  V30 15182 C 1371.34 -3.55016 0.602966 0
M  V30 15183 C 1371.19 -3.98713 2.08201 0
M  V30 15184 C 1372.51 -4.40085 0.0362489 0
M  V30 15185 H 1369.63 -0.721831 0.148756 0
M  V30 15186 H 1372.27 -1.59628 1.03047 0
M  V30 15187 H 1370.42 -3.88435 0.0708453 0
M  V30 15188 H 1372.09 -3.75647 2.67745 0
M  V30 15189 H 1370.33 -3.49179 2.57403 0
M  V30 15190 H 1371 -5.0751 2.17111 0
M  V30 15191 H 1373.48 -4.13195 0.490837 0
M  V30 15192 H 1372.36 -5.4852 0.204344 0
M  V30 15193 H 1372.62 -4.29243 -1.05845 0
M  V30 15194 N 1371.68 -0.573274 -1.46804 0
M  V30 15195 C 1372.61 0.153316 -2.32996 0
M  V30 15196 C 1373.59 0.893013 -1.44773 0
M  V30 15197 O 1374.77 0.870329 -1.73606 0
M  V30 15198 C 1371.9 1.1736 -3.2687 0
M  V30 15199 C 1370.86 0.549347 -4.2446 0
M  V30 15200 C 1370.18 1.67542 -5.07773 0
M  V30 15201 C 1371.48 -0.50736 -5.1983 0
M  V30 15202 H 1373.18 -0.566305 -2.93995 0
M  V30 15203 H 1370.72 -0.273785 -1.41373 0
M  V30 15204 H 1372.68 1.6902 -3.86019 0
M  V30 15205 H 1371.4 1.92337 -2.63958 0
M  V30 15206 H 1370.06 0.0539142 -3.6656 0
M  V30 15207 H 1369.71 2.41463 -4.41253 0
M  V30 15208 H 1369.41 1.26343 -5.73856 0
M  V30 15209 H 1370.93 2.19496 -5.69784 0
M  V30 15210 H 1372.34 -0.0762061 -5.73249 0
M  V30 15211 H 1370.74 -0.839139 -5.94204 0
M  V30 15212 H 1371.81 -1.39723 -4.64333 0
M  V30 15213 N 1373.15 1.5451 -0.310553 0
M  V30 15214 C 1374.09 2.20075 0.603513 0
M  V30 15215 C 1375.07 1.17336 1.12566 0
M  V30 15216 O 1376.25 1.4602 1.19208 0
M  V30 15217 C 1373.38 2.85216 1.82674 0
M  V30 15218 C 1372.42 4.01563 1.43699 0
M  V30 15219 S 1373.26 5.33301 0.48477 0
M  V30 15220 C 1374.41 6.01929 1.71557 0
M  V30 15221 H 1374.64 2.97264 0.0465278 0
M  V30 15222 H 1372.18 1.5411 -0.0946638 0
M  V30 15223 H 1374.14 3.23371 2.52867 0
M  V30 15224 H 1372.8 2.07855 2.3549 0
M  V30 15225 H 1371.99 4.45958 2.34813 0
M  V30 15226 H 1371.59 3.65014 0.814904 0
M  V30 15227 H 1373.88 6.23317 2.65484 0
M  V30 15228 H 1374.83 6.95801 1.31401 0
M  V30 15229 H 1375.23 5.31684 1.89663 0
M  V30 15230 N 1374.63 0.0384594 1.57553 0
M  V30 15231 C 1375.88 -0.639085 1.92467 0
M  V30 15232 C 1376.21 -1.71239 0.916014 0
M  V30 15233 O 1375.49 -1.94408 -0.0598928 0
M  V30 15234 C 1375.77 -1.24693 3.37822 0
M  V30 15235 C 1375.62 -0.182544 4.49429 0
M  V30 15236 C 1376.94 -2.16226 3.8332 0
M  V30 15237 H 1374.06 -0.230852 0.699912 0
M  V30 15238 H 1376.7 0.0976276 1.89749 0
M  V30 15239 H 1374.85 -1.87481 3.40269 0
M  V30 15240 H 1376.53 0.448622 4.59113 0
M  V30 15241 H 1374.77 0.4909 4.31013 0
M  V30 15242 H 1375.44 -0.647626 5.48188 0
M  V30 15243 H 1377.92 -1.63413 3.82669 0
M  V30 15244 H 1376.79 -2.55705 4.85702 0
M  V30 15245 H 1377.05 -3.05722 3.19353 0
M  V30 15246 N 1376.11 -1.55841 -0.234795 0
M  V30 15247 C 1377.02 -1.94476 -1.31211 0
M  V30 15248 C 1378.04 -0.846782 -1.52005 0
M  V30 15249 O 1379.21 -1.14922 -1.65393 0
M  V30 15250 C 1376.28 -2.24213 -2.64442 0
M  V30 15251 C 1375.34 -3.47508 -2.52065 0
M  V30 15252 C 1374.57 -3.75817 -3.78942 0
M  V30 15253 O 1374.8 -3.06007 -4.81369 0
M  V30 15254 O 1373.73 -4.69328 -3.76848 0
M  V30 15255 H 1377.56 -2.8626 -1.01434 0
M  V30 15256 H 1375.14 -1.42879 -0.436563 0
M  V30 15257 H 1377.02 -2.44594 -3.4315 0
M  V30 15258 H 1375.7 -1.35605 -2.93927 0
M  V30 15259 H 1374.6 -3.32421 -1.71602 0
M  V30 15260 H 1375.94 -4.36457 -2.27523 0
M  V30 15261 N 1377.59 0.500963 -1.49426 0
M  V30 15262 C 1378.52 1.61114 -1.69011 0
M  V30 15263 C 1379.5 1.61341 -0.538813 0
M  V30 15264 O 1380.69 1.78081 -0.77466 0
M  V30 15265 C 1377.82 2.99598 -1.75666 0
M  V30 15266 C 1376.77 3.14236 -2.90585 0
M  V30 15267 C 1376.1 4.54071 -2.82354 0
M  V30 15268 C 1377.4 2.94258 -4.3152 0
M  V30 15269 H 1379.09 1.44978 -2.61957 0
M  V30 15270 H 1376.64 0.69603 -1.26061 0
M  V30 15271 H 1378.59 3.77163 -1.87953 0
M  V30 15272 H 1377.31 3.16822 -0.793186 0
M  V30 15273 H 1375.97 2.39096 -2.779 0
M  V30 15274 H 1375.62 4.68172 -1.83914 0
M  V30 15275 H 1375.32 4.64806 -3.59485 0
M  V30 15276 H 1376.84 5.33696 -2.96649 0
M  V30 15277 H 1378.26 3.61592 -4.44886 0
M  V30 15278 H 1376.65 3.16464 -5.09873 0
M  V30 15279 H 1377.72 1.90383 -4.45962 0
M  V30 15280 N 1379.07 1.38501 0.752011 0
M  V30 15281 C 1380.31 1.34795 1.51118 0
M  V30 15282 C 1380.64 -0.0615084 1.94403 0
M  V30 15283 O 1379.9 -1.03892 1.65846 0
M  V30 15284 C 1380.2 2.25111 2.77596 0
M  V30 15285 C 1379.86 3.73052 2.53265 0
M  V30 15286 C 1378.52 4.13365 2.46339 0
M  V30 15287 C 1380.88 4.66692 2.32051 0
M  V30 15288 C 1378.2 5.45406 2.16216 0
M  V30 15289 C 1380.56 5.98992 2.03448 0
M  V30 15290 C 1379.22 6.38388 1.94979 0
M  V30 15291 H 1378.49 0.49325 0.552979 0
M  V30 15292 H 1381.14 1.70872 0.864588 0
M  V30 15293 H 1379.44 1.82096 3.46913 0
M  V30 15294 H 1381.14 2.19547 3.3556 0
M  V30 15295 H 1377.73 3.41091 2.59528 0
M  V30 15296 H 1381.91 4.36392 2.3638 0
M  V30 15297 H 1377.17 5.7487 2.08168 0
M  V30 15298 H 1381.34 6.71091 1.86037 0
M  V30 15299 H 1378.97 7.40625 1.71402 0
M  V30 15300 N 1380.55 -0.980364 1.23396 0
M  V30 15301 C 1381.48 -2.07099 0.958403 0
M  V30 15302 C 1382.46 -1.62272 -0.1033 0
M  V30 15303 O 1383.64 -1.88475 0.0309639 0
M  V30 15304 C 1380.77 -3.35779 0.443864 0
M  V30 15305 C 1379.81 -3.99545 1.49218 0
M  V30 15306 S 1380.65 -4.3879 3.06958 0
M  V30 15307 C 1381.8 -5.70624 2.57174 0
M  V30 15308 H 1382.04 -2.30154 1.88192 0
M  V30 15309 H 1379.57 -1.11656 1.06641 0
M  V30 15310 H 1381.53 -4.10213 0.153603 0
M  V30 15311 H 1380.19 -3.10732 -0.458738 0
M  V30 15312 H 1379.38 -4.92242 1.0823 0
M  V30 15313 H 1378.98 -3.31489 1.73179 0
M  V30 15314 H 1381.27 -6.47555 1.99197 0
M  V30 15315 H 1382.22 -6.16454 3.48411 0
M  V30 15316 H 1382.63 -5.28626 1.98028 0
M  V30 15317 N 1382.02 -1.04567 -1.17913 0
M  V30 15318 C 1383.44 -0.76584 -1.40025 0
M  V30 15319 C 1383.64 0.642484 -1.90983 0
M  V30 15320 O 1382.7 1.40589 -2.0974 0
M  V30 15321 C 1384.01 -1.81616 -2.39658 0
M  V30 15322 C 1385.56 -1.83765 -2.53376 0
M  V30 15323 C 1386.03 -2.87803 -3.56277 0
M  V30 15324 N 1387.52 -2.86726 -3.63789 0
M  V30 15325 C 1388.26 -3.63876 -4.4315 0
M  V30 15326 N 1387.75 -4.50793 -5.26077 0
M  V30 15327 N 1389.55 -3.52344 -4.37962 0
M  V30 15328 H 1381.7 -1.95442 -0.831647 0
M  V30 15329 H 1383.96 -0.84593 -0.42791 0
M  V30 15330 H 1383.67 -2.8266 -2.09275 0
M  V30 15331 H 1383.54 -1.65251 -3.39075 0
M  V30 15332 H 1385.93 -0.833896 -2.83073 0
M  V30 15333 H 1386.01 -2.04208 -1.54055 0
M  V30 15334 H 1385.65 -3.88361 -3.2732 0
M  V30 15335 H 1385.58 -2.64614 -4.55288 0
M  V30 15336 H 1388.07 -2.237 -3.04576 0
M  V30 15337 H 1388.39 -5.0636 -5.83798 0
M  V30 15338 H 1386.73 -4.54858 -5.2548 0
M  V30 15339 H 1389.92 -2.8384 -3.72226 0
M  V30 15340 H 1390.1 -4.12718 -4.99568 0
M  V30 15341 N 1383.5 1.34231 -0.825823 0
M  V30 15342 C 1384.41 2.33245 -0.251803 0
M  V30 15343 C 1385.43 1.62756 0.615334 0
M  V30 15344 O 1386.6 1.94503 0.522547 0
M  V30 15345 C 1383.67 3.41908 0.574456 0
M  V30 15346 C 1382.73 4.2814 -0.315422 0
M  V30 15347 C 1381.96 5.31613 0.471496 0
M  V30 15348 O 1382.19 5.44337 1.70449 0
M  V30 15349 O 1381.12 6.01719 -0.147691 0
M  V30 15350 H 1384.95 2.84174 -1.07139 0
M  V30 15351 H 1382.53 1.37341 -0.588032 0
M  V30 15352 H 1384.41 4.08252 1.04444 0
M  V30 15353 H 1383.09 2.93217 1.37132 0
M  V30 15354 H 1381.99 3.64709 -0.832963 0
M  V30 15355 H 1383.33 4.80279 -1.07672 0
M  V30 15356 N 1384.98 0.581051 1.46498 0
M  V30 15357 C 1385.89 -0.155669 2.34083 0
M  V30 15358 C 1386.91 -0.887728 1.49651 0
M  V30 15359 O 1388.08 -0.851284 1.82524 0
M  V30 15360 C 1385.15 -1.15752 3.26806 0
M  V30 15361 C 1384.21 -0.43031 4.27138 0
M  V30 15362 C 1383.44 -1.38443 5.15431 0
M  V30 15363 O 1383.66 -2.62084 5.06624 0
M  V30 15364 O 1382.6 -0.89592 5.95195 0
M  V30 15365 H 1386.42 0.56341 2.98428 0
M  V30 15366 H 1384.01 0.341466 1.45445 0
M  V30 15367 H 1385.89 -1.73523 3.84015 0
M  V30 15368 H 1384.57 -1.85809 2.65059 0
M  V30 15369 H 1383.47 0.1892 3.73621 0
M  V30 15370 H 1384.81 0.229263 4.91666 0
M  V30 15371 N 1386.46 -1.54343 0.318742 0
M  V30 15372 C 1387.39 -2.21652 -0.583351 0
M  V30 15373 C 1388.4 -1.21494 -1.08366 0
M  V30 15374 O 1389.59 -1.4799 -0.998064 0
M  V30 15375 C 1386.69 -2.86349 -1.81266 0
M  V30 15376 C 1385.86 -4.12601 -1.45186 0
M  V30 15377 C 1384.92 -4.60937 -2.53818 0
M  V30 15378 O 1383.95 -5.25731 -2.18164 0
M  V30 15379 N 1385.15 -4.34755 -3.84667 0
M  V30 15380 H 1387.92 -2.99699 -0.00703539 0
M  V30 15381 H 1385.48 -1.61278 0.141728 0
M  V30 15382 H 1387.47 -3.15611 -2.53321 0
M  V30 15383 H 1386.04 -2.12037 -2.29693 0
M  V30 15384 H 1385.26 -3.90157 -0.563143 0
M  V30 15385 H 1386.55 -4.94774 -1.18642 0
M  V30 15386 H 1385.95 -3.82883 -4.16434 0
M  V30 15387 H 1384.5 -4.68683 -4.52967 0
M  V30 15388 N 1387.94 -0.0468143 -1.5753 0
M  V30 15389 C 1389.21 0.667567 -1.83856 0
M  V30 15390 C 1389.59 1.89297 -0.934346 0
M  V30 15391 O 1388.94 2.28499 0.00570067 0
M  V30 15392 C 1389.15 1.029 -3.33485 0
M  V30 15393 C 1390.5 1.41315 -4.00394 0
M  V30 15394 O 1391.52 1.12147 -3.38085 0
M  V30 15395 O 1390.38 1.95732 -5.10246 0
M  V30 15396 H 1387.48 0.329112 -0.758692 0
M  V30 15397 H 1390.02 -0.0758456 -1.6953 0
M  V30 15398 H 1388.79 0.157617 -3.90982 0
M  V30 15399 H 1388.42 1.83 -3.52982 0
M  V30 15400 N 1389.41 1.55964 0.226527 0
M  V30 15401 C 1390.36 1.92007 1.28069 0
M  V30 15402 C 1391.33 0.776666 1.46823 0
M  V30 15403 O 1392.52 1.03213 1.60474 0
M  V30 15404 C 1389.66 2.23784 2.62707 0
M  V30 15405 C 1388.77 3.51034 2.51792 0
M  V30 15406 C 1387.9 3.72281 3.7892 0
M  V30 15407 C 1386.94 4.93062 3.62707 0
M  V30 15408 N 1386.08 5.10725 4.81772 0
M  V30 15409 H 1390.92 2.81898 0.96631 0
M  V30 15410 H 1388.46 1.39529 0.465847 0
M  V30 15411 H 1390.42 2.40217 3.41104 0
M  V30 15412 H 1389.05 1.37073 2.92251 0
M  V30 15413 H 1388.1 3.42822 1.64856 0
M  V30 15414 H 1389.41 4.39582 2.35731 0
M  V30 15415 H 1388.56 3.88783 4.6576 0
M  V30 15416 H 1387.3 2.82004 3.97901 0
M  V30 15417 H 1386.31 4.76515 2.7425 0
M  V30 15418 H 1387.53 5.84819 3.45201 0
M  V30 15419 H 1385.48 4.2339 5.01076 0
M  V30 15420 H 1385.4 5.93397 4.68419 0
M  V30 15421 H 1386.66 5.31658 5.70053 0
M  V30 15422 N 1390.89 -0.493031 1.4969 0
M  V30 15423 C 1391.82 -1.61058 1.63074 0
M  V30 15424 C 1392.84 -1.54504 0.513069 0
M  V30 15425 O 1394.03 -1.60291 0.785431 0
M  V30 15426 C 1391.13 -2.99877 1.57883 0
M  V30 15427 C 1390.3 -3.31531 2.85317 0
M  V30 15428 C 1389.36 -4.49799 2.7307 0
M  V30 15429 O 1388.38 -4.51189 3.47012 0
M  V30 15430 N 1389.59 -5.50182 1.85148 0
M  V30 15431 H 1392.35 -1.5 2.59461 0
M  V30 15432 H 1389.91 -0.681057 1.46878 0
M  V30 15433 H 1391.9 -3.76928 1.47333 0
M  V30 15434 H 1390.47 -3.04817 0.693218 0
M  V30 15435 H 1389.69 -2.433 3.10159 0
M  V30 15436 H 1390.98 -3.49481 3.69784 0
M  V30 15437 H 1390.38 -5.51865 1.24345 0
M  V30 15438 H 1388.94 -6.26305 1.80516 0
M  V30 15439 N 1392.37 -1.38898 -0.744656 0
M  V30 15440 C 1393.3 -1.32739 -1.8685 0
M  V30 15441 C 1394.32 -0.23793 -1.61052 0
M  V30 15442 O 1395.5 -0.496166 -1.71466 0
M  V30 15443 C 1392.6 -1.03602 -3.22676 0
M  V30 15444 C 1391.78 -2.23634 -3.75908 0
M  V30 15445 C 1390.84 -1.91103 -4.90271 0
M  V30 15446 O 1389.86 -2.6369 -5.04437 0
M  V30 15447 N 1391.06 -0.871358 -5.73923 0
M  V30 15448 H 1393.83 -2.29585 -1.92641 0
M  V30 15449 H 1391.39 -1.32875 -0.924979 0
M  V30 15450 H 1393.38 -0.798755 -3.96739 0
M  V30 15451 H 1391.95 -0.155218 -3.12214 0
M  V30 15452 H 1391.17 -2.63371 -2.93307 0
M  V30 15453 H 1392.46 -3.0372 -4.08205 0
M  V30 15454 H 1391.86 -0.269591 -5.65057 0
M  V30 15455 H 1390.42 -0.693984 -6.48095 0
M  V30 15456 N 1393.85 0.973806 -1.23914 0
M  V30 15457 C 1394.78 2.08526 -1.05068 0
M  V30 15458 C 1395.76 1.70065 0.0344761 0
M  V30 15459 O 1396.94 1.93755 -0.131432 0
M  V30 15460 C 1394.07 3.41198 -0.648165 0
M  V30 15461 C 1393.03 3.9359 -1.6814 0
M  V30 15462 C 1392.35 5.22534 -1.13414 0
M  V30 15463 C 1393.65 4.22116 -3.07597 0
M  V30 15464 H 1395.35 2.24551 -1.98034 0
M  V30 15465 H 1392.89 1.07905 -0.953546 0
M  V30 15466 H 1394.85 4.18383 -0.50334 0
M  V30 15467 H 1393.57 3.25056 0.317182 0
M  V30 15468 H 1392.23 3.18555 -1.81434 0
M  V30 15469 H 1391.88 5.02747 -0.159578 0
M  V30 15470 H 1391.58 5.58555 -1.82456 0
M  V30 15471 H 1393.1 6.02334 -1.0013 0
M  V30 15472 H 1394.52 4.90027 -2.97567 0
M  V30 15473 H 1392.91 4.69352 -3.73937 0
M  V30 15474 H 1393.98 3.29128 -3.56094 0
M  V30 15475 N 1395.33 1.05191 1.17357 0
M  V30 15476 C 1396.26 0.673931 2.23563 0
M  V30 15477 C 1397.24 -0.328284 1.66902 0
M  V30 15478 O 1398.42 -0.205878 1.93106 0
M  V30 15479 C 1395.55 0.0478801 3.47267 0
M  V30 15480 C 1394.51 0.974855 4.1675 0
M  V30 15481 C 1393.83 0.212684 5.34277 0
M  V30 15482 C 1395.13 2.299 4.68981 0
M  V30 15483 H 1396.83 1.56183 2.55436 0
M  V30 15484 H 1394.37 0.752408 1.2278 0
M  V30 15485 H 1396.33 -0.228343 4.20781 0
M  V30 15486 H 1395.05 -0.874963 3.14662 0
M  V30 15487 H 1393.71 1.23564 3.45148 0
M  V30 15488 H 1393.36 -0.712924 4.97922 0
M  V30 15489 H 1393.06 0.830351 5.81703 0
M  V30 15490 H 1394.58 -0.056255 6.10574 0
M  V30 15491 H 1395.99 2.08269 5.34132 0
M  V30 15492 H 1394.39 2.87064 5.26986 0
M  V30 15493 H 1395.46 2.93759 3.8579 0
M  V30 15494 N 1396.8 -1.33791 0.83293 0
M  V30 15495 C 1397.71 -2.33108 0.264169 0
M  V30 15496 C 1398.73 -1.6308 -0.606694 0
M  V30 15497 O 1399.91 -1.94777 -0.512225 0
M  V30 15498 C 1396.97 -3.42208 -0.556315 0
M  V30 15499 C 1396.03 -4.27966 0.338123 0
M  V30 15500 C 1395.27 -5.31856 -0.443297 0
M  V30 15501 O 1395.49 -5.45234 -1.6756 0
M  V30 15502 O 1394.42 -6.01632 0.179599 0
M  V30 15503 H 1398.25 -2.83602 1.08645 0
M  V30 15504 H 1395.83 -1.37027 0.595307 0
M  V30 15505 H 1397.72 -4.088 -1.02277 0
M  V30 15506 H 1396.39 -2.9394 -1.35575 0
M  V30 15507 H 1395.3 -3.64262 0.852293 0
M  V30 15508 H 1396.63 -4.79701 1.10217 0
M  V30 15509 N 1398.28 -0.588812 -1.46187 0
M  V30 15510 C 1399.51 -0.0825301 -2.06735 0
M  V30 15511 C 1399.93 1.22507 -1.43658 0
M  V30 15512 O 1399.28 1.74203 -0.544022 0
M  V30 15513 C 1399.33 0.083501 -3.61404 0
M  V30 15514 O 1399.05 -1.17235 -4.22123 0
M  V30 15515 C 1400.56 0.623425 -4.38894 0
M  V30 15516 H 1397.78 -0.0602413 -0.66829 0
M  V30 15517 H 1400.32 -0.811215 -1.87722 0
M  V30 15518 H 1398.47 0.762432 -3.79823 0
M  V30 15519 H 1398.89 -0.990047 -5.15071 0
M  V30 15520 H 1400.36 0.688755 -5.47686 0
M  V30 15521 H 1400.84 1.64172 -4.07362 0
M  V30 15522 H 1401.45 -0.0208373 -4.25295 0
M  V30 15523 N 1399.76 1.54172 -0.326923 0
M  V30 15524 C 1401.01 2.01629 0.267798 0
M  V30 15525 C 1401.36 1.21092 1.49514 0
M  V30 15526 O 1400.65 0.285854 1.89456 0
M  V30 15527 C 1400.85 3.51429 0.650553 0
M  V30 15528 C 1400.68 4.46468 -0.538148 0
M  V30 15529 C 1399.45 4.94517 -1.0383 0
M  V30 15530 C 1401.65 4.95121 -1.3914 0
M  V30 15531 N 1399.63 5.73468 -2.19106 0
M  V30 15532 C 1401 5.7203 -2.39128 0
M  V30 15533 C 1403.05 4.77258 -1.41877 0
M  V30 15534 C 1401.76 6.32977 -3.41662 0
M  V30 15535 C 1403.78 5.39043 -2.43284 0
M  V30 15536 C 1403.14 6.15805 -3.41999 0
M  V30 15537 H 1399.24 0.779558 0.0617482 0
M  V30 15538 H 1401.83 1.89122 -0.462723 0
M  V30 15539 H 1400 3.64176 1.3502 0
M  V30 15540 H 1401.73 3.8565 1.22703 0
M  V30 15541 H 1398.49 4.69668 -0.609043 0
M  V30 15542 H 1398.91 6.1762 -2.77262 0
M  V30 15543 H 1403.55 4.1747 -0.669238 0
M  V30 15544 H 1401.27 6.91883 -4.1752 0
M  V30 15545 H 1404.86 5.27136 -2.46208 0
M  V30 15546 H 1403.74 6.62764 -4.19181 0
M  V30 15547 N 1401.24 0.0551678 1.57503 0
M  V30 15548 C 1402.17 -0.953348 2.07332 0
M  V30 15549 C 1403.15 -1.30148 0.974699 0
M  V30 15550 O 1404.33 -1.41366 1.24692 0
M  V30 15551 C 1401.46 -2.26622 2.51715 0
M  V30 15552 C 1400.51 -2.07085 3.72851 0
M  V30 15553 S 1401.34 -1.34553 5.1832 0
M  V30 15554 C 1402.5 -2.67155 5.6602 0
M  V30 15555 H 1402.73 -0.529294 2.9255 0
M  V30 15556 H 1400.26 -0.157196 1.53598 0
M  V30 15557 H 1402.22 -3.02085 2.77948 0
M  V30 15558 H 1400.88 -2.66155 1.66795 0
M  V30 15559 H 1400.07 -3.04206 4.01839 0
M  V30 15560 H 1399.68 -1.39761 3.46905 0
M  V30 15561 H 1401.97 -3.63309 5.7185 0
M  V30 15562 H 1402.91 -2.42798 6.65173 0
M  V30 15563 H 1403.32 -2.73597 4.93766 0
M  V30 15564 N 1402.72 -1.56081 -0.218252 0
M  V30 15565 C 1403.63 -1.95856 -1.29141 0
M  V30 15566 C 1404.64 -0.862857 -1.51099 0
M  V30 15567 O 1405.82 -1.1667 -1.64165 0
M  V30 15568 C 1402.88 -2.27005 -2.62049 0
M  V30 15569 C 1401.94 -3.50162 -2.48365 0
M  V30 15570 C 1401.18 -3.79815 -3.74935 0
M  V30 15571 O 1401.4 -3.11095 -4.78096 0
M  V30 15572 O 1400.33 -4.73299 -3.71849 0
M  V30 15573 H 1404.16 -2.8732 -0.983922 0
M  V30 15574 H 1401.75 -1.43334 -0.421385 0
M  V30 15575 H 1403.63 -2.4822 -3.40536 0
M  V30 15576 H 1402.3 -1.38715 -2.92472 0
M  V30 15577 H 1401.21 -3.34222 -1.68066 0
M  V30 15578 H 1402.54 -4.38845 -2.22881 0
M  V30 15579 N 1404.2 0.485086 -1.49949 0
M  V30 15580 C 1405.14 1.5848 -1.67788 0
M  V30 15581 C 1406.11 1.57776 -0.519216 0
M  V30 15582 O 1407.3 1.75521 -0.748141 0
M  V30 15583 C 1404.44 2.9654 -1.76516 0
M  V30 15584 C 1403.55 3.07139 -3.03792 0
M  V30 15585 C 1402.69 4.36029 -3.03401 0
M  V30 15586 C 1401.72 4.40318 -4.2519 0
M  V30 15587 N 1400.86 5.60659 -4.22618 0
M  V30 15588 H 1405.7 1.42575 -2.6168 0
M  V30 15589 H 1403.24 0.693426 -1.29731 0
M  V30 15590 H 1405.2 3.76583 -1.79557 0
M  V30 15591 H 1403.83 3.11112 -0.860764 0
M  V30 15592 H 1402.88 2.20057 -3.10289 0
M  V30 15593 H 1404.19 3.06167 -3.9378 0
M  V30 15594 H 1403.34 5.24407 -3.05094 0
M  V30 15595 H 1402.08 4.39588 -2.11219 0
M  V30 15596 H 1401.09 3.50339 -4.23725 0
M  V30 15597 H 1402.31 4.38461 -5.18583 0
M  V30 15598 H 1400.26 5.6503 -3.33282 0
M  V30 15599 H 1400.18 5.61371 -5.06359 0
M  V30 15600 H 1401.44 6.51201 -4.28436 0
M  V30 15601 N 1405.67 1.39291 0.737279 0
M  V30 15602 C 1406.58 1.40098 1.88175 0
M  V30 15603 C 1407.6 0.296053 1.71463 0
M  V30 15604 O 1408.78 0.537153 1.94105 0
M  V30 15605 C 1405.84 1.24071 3.2374 0
M  V30 15606 C 1404.9 2.44515 3.52861 0
M  V30 15607 C 1404.13 2.29243 4.81958 0
M  V30 15608 O 1404.36 1.2947 5.55512 0
M  V30 15609 O 1403.29 3.18178 5.10927 0
M  V30 15610 H 1407.12 2.36565 1.90449 0
M  V30 15611 H 1404.7 1.20382 0.884786 0
M  V30 15612 H 1406.58 1.17257 4.04758 0
M  V30 15613 H 1405.26 0.30698 3.22241 0
M  V30 15614 H 1404.17 2.56905 2.71939 0
M  V30 15615 H 1405.5 3.36573 3.59137 0
M  V30 15616 N 1407.15 -0.967221 1.24429 0
M  V30 15617 C 1408.57 -1.23594 1.00979 0
M  V30 15618 C 1408.77 -1.99529 -0.281112 0
M  V30 15619 O 1407.82 -2.31977 -0.997139 0
M  V30 15620 C 1409.14 -2.02261 2.22511 0
M  V30 15621 C 1410.68 -2.15352 2.2714 0
M  V30 15622 C 1411.16 -2.97414 3.48294 0
M  V30 15623 N 1412.65 -3.04996 3.48614 0
M  V30 15624 C 1413.39 -3.68851 4.39017 0
M  V30 15625 N 1412.88 -4.34421 5.39676 0
M  V30 15626 N 1414.67 -3.65868 4.26728 0
M  V30 15627 H 1406.83 -0.458881 2.07384 0
M  V30 15628 H 1409.09 -0.265411 0.910088 0
M  V30 15629 H 1408.79 -1.53852 3.16263 0
M  V30 15630 H 1408.67 -3.02993 2.24667 0
M  V30 15631 H 1411.06 -2.62964 1.33919 0
M  V30 15632 H 1411.14 -1.13966 2.2901 0
M  V30 15633 H 1410.78 -2.50495 4.41831 0
M  V30 15634 H 1410.71 -3.98998 3.43668 0
M  V30 15635 H 1413.2 -2.58354 2.75793 0
M  V30 15636 H 1413.51 -4.80965 6.04891 0
M  V30 15637 H 1411.86 -4.33089 5.43562 0
M  V30 15638 H 1415.05 -3.13819 3.47325 0
M  V30 15639 H 1415.22 -4.15349 4.97382 0
M  V30 15640 N 1408.63 -1.05812 -1.16797 0
M  V30 15641 C 1409.56 -0.622584 -2.20582 0
M  V30 15642 C 1410.57 0.316905 -1.59686 0
M  V30 15643 O 1411.76 0.108657 -1.78169 0
M  V30 15644 C 1408.86 0.108124 -3.38727 0
M  V30 15645 C 1408.04 -0.84363 -4.29187 0
M  V30 15646 C 1407.1 -0.15305 -5.25977 0
M  V30 15647 O 1406.12 -0.78915 -5.63703 0
M  V30 15648 N 1407.32 1.10721 -5.69843 0
M  V30 15649 H 1410.09 -1.51532 -2.5857 0
M  V30 15650 H 1407.65 -0.940815 -1.31758 0
M  V30 15651 H 1409.64 0.580395 -4.00517 0
M  V30 15652 H 1408.21 0.902599 -2.99286 0
M  V30 15653 H 1407.43 -1.49538 -3.64735 0
M  V30 15654 H 1408.72 -1.48946 -4.86511 0
M  V30 15655 H 1408.12 1.64423 -5.41278 0
M  V30 15656 H 1406.67 1.52344 -6.33746 0
M  V30 15657 N 1410.11 1.33347 -0.840014 0
M  V30 15658 C 1411.05 2.29191 -0.272048 0
M  V30 15659 C 1412.02 1.54383 0.612787 0
M  V30 15660 O 1413.21 1.82676 0.550812 0
M  V30 15661 C 1410.35 3.40755 0.545901 0
M  V30 15662 C 1409.46 4.30471 -0.363084 0
M  V30 15663 C 1408.6 5.29151 0.466078 0
M  V30 15664 C 1407.64 6.10508 -0.441225 0
M  V30 15665 N 1406.77 7.01228 0.349877 0
M  V30 15666 H 1411.61 2.77166 -1.09467 0
M  V30 15667 H 1409.15 1.36379 -0.551284 0
M  V30 15668 H 1411.11 4.04142 1.03562 0
M  V30 15669 H 1409.74 2.9397 1.33348 0
M  V30 15670 H 1408.79 3.67795 -0.971119 0
M  V30 15671 H 1410.1 4.87406 -1.06002 0
M  V30 15672 H 1409.26 5.98072 1.01957 0
M  V30 15673 H 1408 4.72796 1.19644 0
M  V30 15674 H 1407 5.40504 -1.00672 0
M  V30 15675 H 1408.23 6.68946 -1.16997 0
M  V30 15676 H 1406.17 6.4732 1.0636 0
M  V30 15677 H 1406.09 7.5545 -0.288317 0
M  V30 15678 H 1407.36 7.74453 0.885573 0
M  V30 15679 N 1411.59 0.596556 1.45873 0
M  V30 15680 C 1412.86 0.0199562 1.9559 0
M  V30 15681 C 1413.24 -1.44479 1.53912 0
M  V30 15682 O 1412.59 -2.14173 0.796384 0
M  V30 15683 C 1412.8 0.206497 3.48389 0
M  V30 15684 C 1414.15 0.0815298 4.24522 0
M  V30 15685 O 1415.17 0.136045 3.5594 0
M  V30 15686 O 1414.03 -0.0426117 5.46483 0
M  V30 15687 H 1411.13 -0.0419913 0.825933 0
M  V30 15688 H 1413.67 0.665846 1.56092 0
M  V30 15689 H 1412.44 1.22422 3.71656 0
M  V30 15690 H 1412.07 -0.475175 3.9475 0
M  V30 15691 N 1413.06 -1.53996 0.335095 0
M  V30 15692 C 1413.97 -2.28436 -0.534244 0
M  V30 15693 C 1414.99 -1.33224 -1.11926 0
M  V30 15694 O 1416.17 -1.66252 -1.13676 0
M  V30 15695 C 1413.23 -3.03634 -1.67354 0
M  V30 15696 C 1412.29 -4.14455 -1.11916 0
M  V30 15697 C 1411.52 -4.86058 -2.20416 0
M  V30 15698 O 1411.75 -4.57263 -3.40979 0
M  V30 15699 O 1410.68 -5.72704 -1.85185 0
M  V30 15700 H 1414.51 -3.03618 0.0706314 0
M  V30 15701 H 1412.09 -1.49062 0.100409 0
M  V30 15702 H 1413.97 -3.50687 -2.33659 0
M  V30 15703 H 1412.65 -2.31317 -2.26438 0
M  V30 15704 H 1411.56 -3.71725 -0.420871 0
M  V30 15705 H 1412.89 -4.8885 -0.573295 0
M  V30 15706 N 1414.54 -0.0635198 -1.57472 0
M  V30 15707 C 1415.95 0.470372 -1.80678 0
M  V30 15708 C 1416.3 1.70158 -0.976771 0
M  V30 15709 O 1415.43 2.15502 -0.196893 0
M  V30 15710 C 1416.02 0.860129 -3.277 0
M  V30 15711 C 1414.58 1.33893 -3.51781 0
M  V30 15712 C 1413.73 0.320078 -2.75447 0
M  V30 15713 H 1416.68 -0.289295 -1.56041 0
M  V30 15714 H 1416.7 1.72216 -3.39296 0
M  V30 15715 H 1416.21 -0.0361525 -3.88083 0
M  V30 15716 H 1414.31 2.25399 -2.96692 0
M  V30 15717 H 1414.43 1.32257 -4.60483 0
M  V30 15718 H 1412.79 0.795601 -2.41955 0
M  V30 15719 H 1413.57 -0.568332 -3.38563 0
M  V30 15720 N 1416.02 1.56195 0.209972 0
M  V30 15721 C 1417.43 1.69811 0.775969 0
M  V30 15722 C 1417.78 0.667543 1.84495 0
M  V30 15723 O 1416.91 -0.179043 2.15658 0
M  V30 15724 C 1417.5 3.07869 1.41429 0
M  V30 15725 C 1416.06 3.233 1.92755 0
M  V30 15726 C 1415.21 2.6575 0.791958 0
M  V30 15727 H 1418.16 1.58693 -0.0148727 0
M  V30 15728 H 1418.18 3.04371 2.28339 0
M  V30 15729 H 1417.69 3.82853 0.63604 0
M  V30 15730 H 1415.79 2.53206 2.73345 0
M  V30 15731 H 1415.91 4.30645 2.09956 0
M  V30 15732 H 1414.27 2.24535 1.20234 0
M  V30 15733 H 1415.05 3.4329 0.0261877 0
M  V30 15734 N 1417.5 -0.477127 1.50204 0
M  V30 15735 C 1418.74 -1.23956 1.62525 0
M  V30 15736 C 1419.1 -1.89385 0.315789 0
M  V30 15737 O 1420.3 -2.66955 0.314378 0
M  V30 15738 C 1418.57 -2.25999 2.76874 0
M  V30 15739 S 1420.13 -3.11262 3.09292 0
M  V30 15740 H 1416.95 -0.420931 0.573008 0
M  V30 15741 H 1419.55 -0.537592 1.87963 0
M  V30 15742 H 1418.26 -1.76501 3.70507 0
M  V30 15743 H 1417.79 -3.00832 2.53503 0
M  V30 15744 H 1419.8 -4.27061 2.52652 0
M  V30 15745 N 1418.98 -1.3968 -0.729882 0
M  V30 15746 C 1419.92 -1.3896 -1.86528 0
M  V30 15747 C 1420.92 -0.272027 -1.67202 0
M  V30 15748 O 1422.12 -0.442328 -1.74481 0
M  V30 15749 H 1418.5 -0.434045 -0.614092 0
M  V30 15750 H 1420.47 -2.34721 -1.84252 0
M  V30 15751 C 1419.22 -1.255 -3.24261 0
M  V30 15752 H 1418.54 -2.10767 -3.39731 0
M  V30 15753 H 1419.98 -1.29054 -4.03882 0
M  V30 15754 C 1418.44 0.0361127 -3.36881 0
M  V30 15755 O 1418.97 1.0044 -3.8894 0
M  V30 15756 N 1417.18 0.100874 -2.90425 0
M  V30 15757 H 1416.72 -0.687797 -2.48248 0
M  V30 15758 H 1416.68 0.964251 -2.99248 0
M  V30 15759 N 1420.45 0.960609 -1.2494 0
M  V30 15760 C 1421.4 2.04164 -1.01493 0
M  V30 15761 C 1422.39 1.60834 0.0461124 0
M  V30 15762 O 1423.58 1.76196 -0.168491 0
M  V30 15763 C 1420.71 3.37484 -0.629251 0
M  V30 15764 C 1419.8 3.87356 -1.72674 0
M  V30 15765 N 1420.19 4.10085 -2.9608 0
M  V30 15766 C 1418.48 4.16086 -1.60589 0
M  V30 15767 C 1419.19 4.51091 -3.67276 0
M  V30 15768 N 1418.16 4.56676 -2.9487 0
M  V30 15769 H 1421.96 2.19723 -1.95189 0
M  V30 15770 H 1419.48 1.14496 -1.15171 0
M  V30 15771 H 1421.47 4.14545 -0.442484 0
M  V30 15772 H 1420.13 3.23307 0.300446 0
M  V30 15773 H 1421.15 3.97331 -3.32187 0
M  V30 15774 H 1417.82 4.10804 -0.744725 0
M  V30 15775 H 1419.21 4.77031 -4.73172 0
M  V30 15776 N 1421.93 1.0643 1.16234 0
M  V30 15777 C 1422.88 0.646274 2.18649 0
M  V30 15778 C 1423.87 -0.323768 1.57609 0
M  V30 15779 O 1425.06 -0.138991 1.76453 0
M  V30 15780 C 1422.19 0.0356797 3.43281 0
M  V30 15781 C 1421.27 1.0303 4.11395 0
M  V30 15782 N 1421.66 2.2064 4.55139 0
M  V30 15783 C 1419.96 0.861544 4.376 0
M  V30 15784 C 1420.66 2.83665 5.07848 0
M  V30 15785 N 1419.64 2.11384 5.00817 0
M  V30 15786 H 1423.44 1.54217 2.50189 0
M  V30 15787 H 1420.96 0.936176 1.32701 0
M  V30 15788 H 1422.95 -0.281637 4.15948 0
M  V30 15789 H 1421.61 -0.855453 3.13228 0
M  V30 15790 H 1422.62 2.58409 4.48826 0
M  V30 15791 H 1419.3 0.0225171 4.17494 0
M  V30 15792 H 1420.69 3.83473 5.51723 0
M  V30 15793 N 1423.41 -1.329 0.847073 0
M  V30 15794 C 1424.36 -2.3097 0.27487 0
M  V30 15795 C 1425.35 -1.58508 -0.597625 0
M  V30 15796 O 1426.56 -1.73307 -0.486273 0
M  V30 15797 H 1422.93 -0.748719 0.0701719 0
M  V30 15798 H 1424.9 -2.7673 1.11638 0
M  V30 15799 C 1423.65 -3.43662 -0.528363 0
M  V30 15800 H 1422.98 -3.99576 0.133707 0
M  V30 15801 H 1424.42 -4.14458 -0.894443 0
M  V30 15802 C 1422.88 -2.90244 -1.71055 0
M  V30 15803 O 1423.41 -2.87109 -2.80947 0
M  V30 15804 N 1421.61 -2.46743 -1.53512 0
M  V30 15805 H 1421.16 -2.49493 -0.641181 0
M  V30 15806 H 1421.12 -2.11356 -2.32757 0
M  V30 15807 N 1424.89 -0.604284 -1.45555 0
M  V30 15808 C 1426.12 -0.104452 -2.06636 0
M  V30 15809 C 1426.53 1.20976 -1.44949 0
M  V30 15810 O 1425.89 1.73616 -0.562468 0
M  V30 15811 C 1425.94 0.0451646 -3.61472 0
M  V30 15812 O 1425.66 -1.21705 -4.20856 0
M  V30 15813 C 1427.16 0.57684 -4.39531 0
M  V30 15814 H 1424.38 -0.067326 -0.667614 0
M  V30 15815 H 1426.93 -0.831079 -1.86851 0
M  V30 15816 H 1425.08 0.722104 -3.80611 0
M  V30 15817 H 1425.49 -1.04462 -5.13992 0
M  V30 15818 H 1426.97 0.630627 -5.48386 0
M  V30 15819 H 1427.45 1.59842 -4.09081 0
M  V30 15820 H 1428.05 -0.0659444 -4.25249 0
M  V30 15821 N 1426.37 1.53816 -0.343257 0
M  V30 15822 C 1427.31 2.25011 0.513664 0
M  V30 15823 C 1428.28 1.24827 1.09578 0
M  V30 15824 O 1429.47 1.53558 1.13245 0
M  V30 15825 C 1426.61 3.02616 1.65885 0
M  V30 15826 C 1425.72 4.17653 1.10406 0
M  V30 15827 C 1424.86 4.82746 2.21653 0
M  V30 15828 C 1423.9 5.89853 1.63524 0
M  V30 15829 N 1423.03 6.48726 2.68512 0
M  V30 15830 H 1427.87 2.97832 -0.099997 0
M  V30 15831 H 1425.41 1.46973 -0.0611206 0
M  V30 15832 H 1427.37 3.45868 2.33304 0
M  V30 15833 H 1426 2.32092 2.2435 0
M  V30 15834 H 1425.05 3.79045 0.320819 0
M  V30 15835 H 1426.36 4.94691 0.638887 0
M  V30 15836 H 1425.52 5.29068 2.96938 0
M  V30 15837 H 1424.25 4.05131 2.71515 0
M  V30 15838 H 1423.26 5.42914 0.86745 0
M  V30 15839 H 1424.48 6.69375 1.14515 0
M  V30 15840 H 1422.43 5.73975 3.17629 0
M  V30 15841 H 1422.35 7.21236 2.26616 0
M  V30 15842 H 1423.62 6.99701 3.43567 0
M  V30 15843 N 1427.84 0.0718701 1.57436 0
M  V30 15844 C 1428.81 -0.880671 2.11605 0
M  V30 15845 C 1429.81 -1.22632 1.0401 0
M  V30 15846 O 1431 -1.15958 1.29997 0
M  V30 15847 C 1428.13 -2.18407 2.61746 0
M  V30 15848 H 1429.32 -0.410712 2.97074 0
M  V30 15849 H 1426.88 -0.176836 1.55296 0
M  V30 15850 H 1427.61 -2.6994 1.79731 0
M  V30 15851 H 1427.4 -1.94616 3.40392 0
M  V30 15852 H 1428.89 -2.86596 3.03731 0
M  V30 15853 N 1429.32 -1.56304 -0.201686 0
M  V30 15854 C 1430.56 -1.82021 -0.929934 0
M  V30 15855 C 1430.93 -0.648382 -1.80721 0
M  V30 15856 O 1432.13 -0.785292 -2.57073 0
M  V30 15857 C 1430.4 -3.12731 -1.73014 0
M  V30 15858 S 1431.96 -3.59831 -2.51131 0
M  V30 15859 H 1428.78 -0.638874 -0.312027 0
M  V30 15860 H 1431.38 -1.94536 -0.193861 0
M  V30 15861 H 1430.08 -3.96039 -1.07616 0
M  V30 15862 H 1429.61 -3.03076 -2.50816 0
M  V30 15863 H 1431.63 -3.24744 -3.75174 0
M  V30 15864 N 1430.8 0.469154 -1.50455 0
M  V30 15865 C 1432.21 1.04997 -1.54378 0
M  V30 15866 C 1432.56 1.93082 -0.348414 0
M  V30 15867 O 1431.69 2.09594 0.538469 0
M  V30 15868 C 1432.28 1.91096 -2.79764 0
M  V30 15869 C 1430.84 2.44283 -2.86361 0
M  V30 15870 C 1429.99 1.22676 -2.48688 0
M  V30 15871 H 1432.94 0.251692 -1.56691 0
M  V30 15872 H 1432.96 2.76186 -2.61728 0
M  V30 15873 H 1432.47 1.26961 -3.66746 0
M  V30 15874 H 1430.57 3.11966 -2.03735 0
M  V30 15875 H 1430.69 2.79258 -3.89297 0
M  V30 15876 H 1429.05 1.56215 -2.01169 0
M  V30 15877 H 1429.83 0.602002 -3.37981 0
M  V30 15878 N 1432.28 1.40065 0.722464 0
M  V30 15879 C 1433.56 1.28473 1.47493 0
M  V30 15880 C 1433.94 -0.100058 2.10863 0
M  V30 15881 O 1433.28 -1.11232 1.99599 0
M  V30 15882 C 1433.49 2.41842 2.51621 0
M  V30 15883 C 1434.84 2.81753 3.17648 0
M  V30 15884 O 1435.87 2.41385 2.61939 0
M  V30 15885 O 1434.72 3.51473 4.18484 0
M  V30 15886 H 1431.82 0.504158 0.655556 0
M  V30 15887 H 1434.36 1.51969 0.755223 0
M  V30 15888 H 1433.14 3.34365 2.03263 0
M  V30 15889 H 1432.76 2.20079 3.31136 0
M  V30 15890 N 1433.76 -0.95397 1.25448 0
M  V30 15891 C 1434.98 -1.73863 1.13077 0
M  V30 15892 C 1435.41 -1.85503 -0.311481 0
M  V30 15893 O 1434.77 -1.33596 -1.22564 0
M  V30 15894 C 1434.81 -3.13 1.79062 0
M  V30 15895 O 1433.92 -3.98258 1.07072 0
M  V30 15896 H 1433.26 -0.533921 0.394746 0
M  V30 15897 H 1435.79 -1.19571 1.66024 0
M  V30 15898 H 1435.8 -3.63456 1.85374 0
M  V30 15899 H 1434.47 -3.03844 2.83992 0
M  V30 15900 H 1433.05 -3.56722 1.08645 0
M  V30 15901 N 1435.24 -1.07045 -1.15668 0
M  V30 15902 C 1436.17 -0.709413 -2.22463 0
M  V30 15903 C 1437.15 0.30169 -1.67403 0
M  V30 15904 O 1438.33 0.175131 -1.93409 0
M  V30 15905 C 1435.46 -0.103121 -3.47147 0
M  V30 15906 C 1434.42 -1.04103 -4.15146 0
M  V30 15907 C 1433.74 -0.297656 -5.33871 0
M  V30 15908 C 1435.04 -2.37332 -4.65264 0
M  V30 15909 H 1436.74 -1.60227 -2.52918 0
M  V30 15910 H 1434.28 -0.771846 -1.21567 0
M  V30 15911 H 1436.23 0.161371 -4.21091 0
M  V30 15912 H 1434.96 0.824792 -3.16014 0
M  V30 15913 H 1433.62 -1.2904 -3.43139 0
M  V30 15914 H 1433.27 0.633618 -4.98993 0
M  V30 15915 H 1432.97 -0.922789 -5.80309 0
M  V30 15916 H 1434.49 -0.0408892 -6.10586 0
M  V30 15917 H 1435.9 -2.1674 -5.30751 0
M  V30 15918 H 1434.3 -2.95412 -5.22352 0
M  V30 15919 H 1435.37 -2.99859 -3.81068 0
M  V30 15920 N 1436.71 1.32449 -0.85411 0
M  V30 15921 C 1437.96 1.96881 -0.45632 0
M  V30 15922 C 1438.28 1.67926 0.991248 0
M  V30 15923 O 1437.55 0.986195 1.69266 0
M  V30 15924 H 1436.13 0.728378 -0.165752 0
M  V30 15925 H 1438.79 1.61542 -1.09042 0
M  V30 15926 H 1437.89 3.0626 -0.600927 0
M  V30 15927 N 1438.19 0.611994 1.45232 0
M  V30 15928 C 1439.42 0.113618 2.07089 0
M  V30 15929 C 1439.84 -1.1947 1.45288 0
M  V30 15930 O 1439.2 -1.72845 0.547207 0
M  V30 15931 C 1439.25 -0.00789978 3.60599 0
M  V30 15932 O 1438.35 -1.05697 3.98625 0
M  V30 15933 H 1437.69 0.076066 0.659629 0
M  V30 15934 H 1440.22 0.843253 1.86415 0
M  V30 15935 H 1440.23 -0.204692 4.07486 0
M  V30 15936 H 1438.91 0.947386 4.04966 0
M  V30 15937 H 1437.48 -0.836291 3.63401 0
M  V30 15938 N 1439.67 -1.53632 0.351409 0
M  V30 15939 C 1441.08 -1.86241 -0.130834 0
M  V30 15940 C 1441.43 -1.27243 -1.49344 0
M  V30 15941 O 1440.56 -0.589006 -2.0823 0
M  V30 15942 C 1441.15 -3.37919 -0.244179 0
M  V30 15943 C 1439.71 -3.70377 -0.670662 0
M  V30 15944 C 1438.86 -2.76643 0.190813 0
M  V30 15945 H 1441.81 -1.48083 0.570724 0
M  V30 15946 H 1441.83 -3.65137 -1.07029 0
M  V30 15947 H 1441.34 -3.8083 0.747688 0
M  V30 15948 H 1439.44 -3.33015 -1.67127 0
M  V30 15949 H 1439.56 -4.76934 -0.455102 0
M  V30 15950 H 1437.92 -2.52446 -0.338092 0
M  V30 15951 H 1438.7 -3.22385 1.17996 0
M  V30 15952 N 1441.15 -0.0802183 -1.57396 0
M  V30 15953 C 1442.11 0.869437 -2.12069 0
M  V30 15954 C 1443.11 1.22079 -1.04658 0
M  V30 15955 O 1444.3 1.15267 -1.3061 0
M  V30 15956 C 1441.43 2.17016 -2.62901 0
M  V30 15957 H 1442.63 0.394952 -2.97288 0
M  V30 15958 H 1440.18 0.168597 -1.55388 0
M  V30 15959 H 1440.91 2.68983 -1.8116 0
M  V30 15960 H 1440.7 1.92808 -3.4142 0
M  V30 15961 H 1442.19 2.84982 -3.05246 0
M  V30 15962 N 1442.63 1.56409 0.193394 0
M  V30 15963 C 1444.04 1.70624 0.757915 0
M  V30 15964 C 1444.39 0.687074 1.83776 0
M  V30 15965 O 1443.51 -0.15616 2.15836 0
M  V30 15966 C 1444.11 3.09352 1.38156 0
M  V30 15967 C 1442.67 3.25326 1.89315 0
M  V30 15968 C 1441.81 2.66576 0.763727 0
M  V30 15969 H 1444.76 1.58668 -0.0317034 0
M  V30 15970 H 1444.79 3.06776 2.25098 0
M  V30 15971 H 1444.3 3.83506 0.595398 0
M  V30 15972 H 1442.4 2.5609 2.70644 0
M  V30 15973 H 1442.51 4.32848 2.05376 0
M  V30 15974 H 1440.88 2.25797 1.17846 0
M  V30 15975 H 1441.66 3.43298 -0.0102243 0
M  V30 15976 N 1444.1 -0.461169 1.50702 0
M  V30 15977 C 1445.33 -1.24019 1.66235 0
M  V30 15978 C 1445.75 -1.84827 0.349388 0
M  V30 15979 O 1445.11 -1.67743 -0.687888 0
M  V30 15980 C 1445.16 -2.31743 2.76274 0
M  V30 15981 O 1444.26 -3.3664 2.38217 0
M  V30 15982 H 1443.6 -0.364424 0.55506 0
M  V30 15983 H 1446.13 -0.547636 1.97135 0
M  V30 15984 H 1446.14 -2.76902 2.99649 0
M  V30 15985 H 1444.82 -1.86858 3.7156 0
M  V30 15986 H 1443.4 -2.97123 2.25327 0
M  V30 15987 N 1445.58 -1.40446 -0.715026 0
M  V30 15988 C 1446.53 -1.37235 -1.82073 0
M  V30 15989 C 1447.52 -0.249808 -1.58949 0
M  V30 15990 O 1448.71 -0.488958 -1.70112 0
M  V30 15991 C 1445.84 -1.23786 -3.20206 0
M  V30 15992 C 1444.92 -2.40824 -3.49091 0
M  V30 15993 N 1445.31 -3.66305 -3.4879 0
M  V30 15994 C 1443.61 -2.34215 -3.79551 0
M  V30 15995 C 1444.31 -4.43817 -3.76034 0
M  V30 15996 N 1443.29 -3.73664 -3.94811 0
M  V30 15997 H 1447.09 -2.32195 -1.80174 0
M  V30 15998 H 1444.6 -1.34226 -0.914175 0
M  V30 15999 H 1446.6 -1.19568 -3.99386 0
M  V30 16000 H 1445.26 -0.297938 -3.2333 0
M  V30 16001 H 1446.27 -3.99458 -3.29626 0
M  V30 16002 H 1442.95 -1.48592 -3.90162 0
M  V30 16003 H 1444.34 -5.52674 -3.82101 0
M  V30 16004 N 1447.06 0.947303 -1.25952 0
M  V30 16005 C 1448.02 2.02667 -1.07046 0
M  V30 16006 C 1449.02 1.60787 -0.0208127 0
M  V30 16007 O 1450.21 1.72193 -0.263668 0
M  V30 16008 C 1447.34 3.35087 -0.626885 0
M  V30 16009 H 1448.54 2.20871 -2.0287 0
M  V30 16010 H 1446.09 1.12541 -1.08462 0
M  V30 16011 H 1446.83 3.22579 0.333621 0
M  V30 16012 H 1446.61 3.66835 -1.38473 0
M  V30 16013 H 1448.1 4.14397 -0.516264 0
M  V30 16014 N 1448.54 1.07657 1.15099 0
M  V30 16015 C 1449.77 0.821631 1.89559 0
M  V30 16016 C 1450.18 -0.629174 1.78432 0
M  V30 16017 O 1449.52 -1.44353 1.13613 0
M  V30 16018 C 1449.58 1.15473 3.4045 0
M  V30 16019 C 1449.25 2.60675 3.75363 0
M  V30 16020 C 1450.24 3.58923 3.76125 0
M  V30 16021 C 1447.93 2.96333 4.05576 0
M  V30 16022 C 1449.92 4.90863 4.06611 0
M  V30 16023 C 1447.61 4.28469 4.35727 0
M  V30 16024 C 1448.61 5.25543 4.36226 0
M  V30 16025 O 1448.29 6.55305 4.65651 0
M  V30 16026 H 1448.03 0.296469 0.607521 0
M  V30 16027 H 1450.58 1.43722 1.46742 0
M  V30 16028 H 1448.81 0.482117 3.83683 0
M  V30 16029 H 1450.5 0.881832 3.96205 0
M  V30 16030 H 1451.27 3.32718 3.52879 0
M  V30 16031 H 1447.14 2.2142 4.04344 0
M  V30 16032 H 1450.69 5.66626 4.06916 0
M  V30 16033 H 1446.59 4.54425 4.58441 0
M  V30 16034 H 1447.35 6.60503 4.83402 0
M  V30 16035 N 1450.02 -1.31994 0.861122 0
M  V30 16036 C 1450.97 -2.26248 0.282123 0
M  V30 16037 C 1451.95 -1.50246 -0.57575 0
M  V30 16038 O 1453.14 -1.71845 -0.424075 0
M  V30 16039 C 1450.27 -3.39293 -0.523011 0
M  V30 16040 C 1449.36 -4.22673 0.34761 0
M  V30 16041 N 1449.75 -4.8496 1.43692 0
M  V30 16042 C 1448.05 -4.45785 0.138488 0
M  V30 16043 C 1448.75 -5.47215 1.97307 0
M  V30 16044 N 1447.72 -5.28525 1.27132 0
M  V30 16045 H 1451.53 -2.71936 1.11481 0
M  V30 16046 H 1449.04 -1.46158 0.707928 0
M  V30 16047 H 1451.04 -4.05832 -0.954269 0
M  V30 16048 H 1449.7 -2.95149 -1.35341 0
M  V30 16049 H 1450.71 -4.84873 1.81985 0
M  V30 16050 H 1447.38 -4.12303 -0.656677 0
M  V30 16051 H 1448.77 -6.06737 2.88652 0
M  V30 16052 N 1451.49 -0.619688 -1.44906 0
M  V30 16053 C 1452.74 -0.119397 -2.01747 0
M  V30 16054 C 1453.06 1.25904 -1.48907 0
M  V30 16055 O 1452.33 1.83417 -0.688104 0
M  V30 16056 H 1450.91 -0.0411482 -0.745866 0
M  V30 16057 H 1453.58 -0.803813 -1.77552 0
M  V30 16058 H 1452.67 -0.078368 -3.12002 0
M  V30 16059 N 1452.97 1.53444 -0.359552 0
M  V30 16060 C 1454.22 2.00769 0.231564 0
M  V30 16061 C 1454.54 1.2487 1.49775 0
M  V30 16062 O 1453.81 0.360284 1.92558 0
M  V30 16063 H 1452.39 0.741732 0.0885581 0
M  V30 16064 H 1455.05 1.88785 -0.484397 0
M  V30 16065 H 1454.15 3.0865 0.462789 0
M  V30 16066 N 1454.45 0.0885642 1.57351 0
M  V30 16067 C 1455.7 -0.57753 1.94403 0
M  V30 16068 C 1456.03 -1.68238 0.970029 0
M  V30 16069 O 1455.3 -1.945 0.00198684 0
M  V30 16070 C 1455.59 -1.13882 3.41618 0
M  V30 16071 C 1455.44 -0.0394686 4.49783 0
M  V30 16072 C 1456.76 -2.03922 3.90005 0
M  V30 16073 H 1453.88 -0.208468 0.706902 0
M  V30 16074 H 1456.52 0.157945 1.89342 0
M  V30 16075 H 1454.67 -1.76561 3.46061 0
M  V30 16076 H 1456.34 0.594458 4.57454 0
M  V30 16077 H 1454.59 0.627775 4.29234 0
M  V30 16078 H 1455.26 -0.472897 5.49971 0
M  V30 16079 H 1457.73 -1.51156 3.87674 0
M  V30 16080 H 1456.61 -2.40123 4.93591 0
M  V30 16081 H 1456.87 -2.95407 3.28918 0
M  V30 16082 N 1455.93 -1.56509 -0.185096 0
M  V30 16083 C 1456.86 -1.98363 -1.23184 0
M  V30 16084 C 1457.84 -0.85709 -1.46929 0
M  V30 16085 O 1459.02 -1.12216 -1.58497 0
M  V30 16086 C 1456.15 -2.33172 -2.57387 0
M  V30 16087 C 1455.11 -3.48658 -2.48236 0
M  V30 16088 C 1454.43 -3.69171 -3.86804 0
M  V30 16089 C 1455.73 -4.82538 -1.99885 0
M  V30 16090 H 1457.43 -2.86053 -0.883982 0
M  V30 16091 H 1454.97 -1.37623 -0.423786 0
M  V30 16092 H 1456.93 -2.61048 -3.30805 0
M  V30 16093 H 1455.65 -1.42377 -2.93933 0
M  V30 16094 H 1454.31 -3.20889 -1.77273 0
M  V30 16095 H 1453.96 -2.75689 -4.20719 0
M  V30 16096 H 1453.66 -4.46868 -3.81553 0
M  V30 16097 H 1455.18 -3.99433 -4.61829 0
M  V30 16098 H 1456.6 -5.0938 -2.63068 0
M  V30 16099 H 1454.99 -5.63775 -2.05614 0
M  V30 16100 H 1456.06 -4.75453 -0.952503 0
M  V30 16101 O 1457.45 0.330219 -1.58088 0
M  V30 16102 H 1458.14 0.979088 -1.67133 0
M  V30 END ATOM
M  V30 BEGIN BOND
M  V30 END BOND
M  V30 END CTAB
M  END
$$$$
