drugbank_target|Q60099 (S)-2-haloacid dehalogenase (DB01942; DB03522)
 OpenBabel12092119573D

  0  0  0     0  0            999 V3000
M  V30 BEGIN CTAB
M  V30 COUNTS 3864 3907 0 0 0
M  V30 BEGIN ATOM
M  V30 1 H -0.908 1.98254 -0.117106 0
M  V30 2 N 0 1.576 0 0
M  V30 3 C 0.933 2.03868 1.02534 0
M  V30 4 C 1.911 0.928543 1.3348 0
M  V30 5 O 3.095 1.19667 1.45644 0
M  V30 6 C 0.222 2.43627 2.35294 0
M  V30 7 C -0.732 3.65373 2.2001 0
M  V30 8 S 0.101 5.13292 1.52614 0
M  V30 9 C 1.257 5.56322 2.86805 0
M  V30 10 H 1.49 2.90518 0.631377 0
M  V30 11 H -0.977 1.52953 0.210867 0
M  V30 12 H 0.981 2.67203 3.11629 0
M  V30 13 H -0.358 1.57376 2.7183 0
M  V30 14 H -1.165 3.90944 3.18086 0
M  V30 15 H -1.563 3.418 1.51819 0
M  V30 16 H 0.729 5.58782 3.83104 0
M  V30 17 H 1.672 6.56266 2.65933 0
M  V30 18 H 2.08 4.83886 2.90714 0
M  V30 19 N 1.4781 -0.272755 1.55222 0
M  V30 20 C 2.7271 -1.00211 1.75045 0
M  V30 21 C 3.0401 -1.87441 0.559046 0
M  V30 22 O 4.2461 -2.63856 0.639698 0
M  V30 23 C 2.7021 -1.83165 3.09804 0
M  V30 24 C 2.3101 -1.008 4.36513 0
M  V30 25 C 4.0541 -2.55529 3.38977 0
M  V30 26 C 1.9611 -1.83194 5.62311 0
M  V30 27 H 0.8911 -0.377878 0.652476 0
M  V30 28 H 3.5421 -0.257776 1.8168 0
M  V30 29 H 1.9241 -2.61694 2.97207 0
M  V30 30 H 3.0981 -0.266855 4.60027 0
M  V30 31 H 1.4131 -0.398897 4.14485 0
M  V30 32 H 4.0101 -3.17578 4.30172 0
M  V30 33 H 4.3531 -3.25825 2.59121 0
M  V30 34 H 4.8861 -1.84029 3.52673 0
M  V30 35 H 1.6251 -1.17318 6.44916 0
M  V30 36 H 1.1451 -2.54905 5.4294 0
M  V30 37 H 2.8241 -2.40552 6.00619 0
M  V30 38 N 2.9562 -1.48159 -0.537278 0
M  V30 39 C 3.9032 -1.62138 -1.64256 0
M  V30 40 C 4.8732 -0.463668 -1.59497 0
M  V30 41 O 6.0582 -0.686241 -1.78032 0
M  V30 42 C 3.1982 -1.66028 -3.02537 0
M  V30 43 C 2.3112 -2.92855 -3.17585 0
M  V30 44 C 1.4462 -2.87952 -4.46382 0
M  V30 45 C 0.4852 -4.09516 -4.54932 0
M  V30 46 N -0.3778 -4.02733 -5.75109 0
M  V30 47 H 4.4622 -2.56529 -1.51647 0
M  V30 48 H 1.9992 -1.27224 -0.738414 0
M  V30 49 H 3.9572 -1.66265 -3.82638 0
M  V30 50 H 2.5872 -0.751331 -3.13934 0
M  V30 51 H 1.6392 -3.02395 -2.30784 0
M  V30 52 H 2.9512 -3.82822 -3.19764 0
M  V30 53 H 2.1052 -2.8655 -5.34765 0
M  V30 54 H 0.8442 -1.95702 -4.46712 0
M  V30 55 H -0.1508 -4.11201 -3.64957 0
M  V30 56 H 1.0742 -5.02917 -4.56346 0
M  V30 57 H -0.9798 -3.13299 -5.76351 0
M  V30 58 H -1.0628 -4.86397 -5.78752 0
M  V30 59 H 0.2052 -4.05379 -6.65799 0
M  V30 60 N 4.4343 0.785586 -1.36625 0
M  V30 61 C 5.3973 1.87999 -1.31107 0
M  V30 62 C 6.3973 1.59316 -0.217959 0
M  V30 63 O 7.5873 1.67656 -0.472977 0
M  V30 64 C 4.7193 3.24861 -1.03334 0
M  V30 65 H 5.9123 1.94307 -2.2844 0
M  V30 66 H 3.4653 0.983813 -1.21453 0
M  V30 67 H 4.2003 3.24235 -0.0647432 0
M  V30 68 H 3.9853 3.4707 -1.82441 0
M  V30 69 H 5.4753 4.04929 -1.02088 0
M  V30 70 N 5.9124 1.20967 1.01018 0
M  V30 71 C 7.1584 1.02526 1.74975 0
M  V30 72 C 7.4914 -0.4408 1.89131 0
M  V30 73 O 6.7664 -1.32718 1.42184 0
M  V30 74 C 7.0494 1.71699 3.1653 0
M  V30 75 C 6.9024 3.25791 3.10129 0
M  V30 76 C 8.2214 1.45531 4.15342 0
M  V30 77 H 5.3404 0.373863 0.635134 0
M  V30 78 H 7.9824 1.49071 1.17805 0
M  V30 79 H 6.1324 1.32128 3.65341 0
M  V30 80 H 7.8044 3.74697 2.69072 0
M  V30 81 H 6.0474 3.56363 2.47362 0
M  V30 82 H 6.7184 3.69353 4.10222 0
M  V30 83 H 9.1944 1.79872 3.75213 0
M  V30 84 H 8.0704 1.96453 5.1254 0
M  V30 85 H 8.3314 0.384237 4.40427 0
M  V30 86 N 7.3905 -1.2043 1.01659 0
M  V30 87 C 8.6365 -1.90079 0.706963 0
M  V30 88 C 8.9695 -1.78648 -0.761474 0
M  V30 89 O 8.2445 -1.17069 -1.55323 0
M  V30 90 C 8.5275 -3.41469 1.14327 0
M  V30 91 C 8.3805 -3.61833 2.67201 0
M  V30 92 C 9.6995 -4.34261 0.714529 0
M  V30 93 H 6.8185 -0.690254 0.2583 0
M  V30 94 H 9.4605 -1.41826 1.26433 0
M  V30 95 H 7.6105 -3.82696 0.669056 0
M  V30 96 H 9.2825 -3.2986 3.22475 0
M  V30 97 H 7.5255 -3.05304 3.08175 0
M  V30 98 H 8.1965 -4.67955 2.92783 0
M  V30 99 H 10.6725 -4.00682 1.12221 0
M  V30 100 H 9.5485 -5.38806 1.04784 0
M  V30 101 H 9.8095 -4.40431 -0.383799 0
M  V30 102 N 8.8686 -0.792821 -1.36206 0
M  V30 103 C 10.1156 -0.366786 -1.99151 0
M  V30 104 C 10.4436 1.06243 -1.62919 0
M  V30 105 O 9.6986 1.74927 -0.877442 0
M  V30 106 C 9.9976 -0.481501 -3.54142 0
M  V30 107 C 9.6636 -1.87202 -4.10203 0
M  V30 108 C 8.3256 -2.25248 -4.25226 0
M  V30 109 C 10.6776 -2.78237 -4.40719 0
M  V30 110 C 8.0056 -3.53723 -4.68078 0
M  V30 111 C 10.3576 -4.06144 -4.85005 0
M  V30 112 C 9.0216 -4.44207 -4.98234 0
M  V30 113 H 8.2916 -0.134217 -0.728743 0
M  V30 114 H 10.9386 -1.01094 -1.62641 0
M  V30 115 H 9.2436 0.246146 -3.91026 0
M  V30 116 H 10.9406 -0.132844 -4.0078 0
M  V30 117 H 7.5306 -1.56639 -3.98951 0
M  V30 118 H 11.7146 -2.50097 -4.28679 0
M  V30 119 H 6.9706 -3.8308 -4.76508 0
M  V30 120 H 11.1446 -4.76796 -5.07581 0
M  V30 121 H 8.7716 -5.43814 -5.31197 0
M  V30 122 N 10.3467 1.47872 -0.545128 0
M  V30 123 C 11.6237 1.9554 0.0485222 0
M  V30 124 C 12.0037 1.4876 1.49779 0
M  V30 125 O 11.3517 0.720925 2.16829 0
M  V30 126 C 11.5617 3.48898 -0.084417 0
M  V30 127 C 12.9097 4.24547 0.0671239 0
M  V30 128 O 13.9337 3.56198 -0.0113649 0
M  V30 129 O 12.7927 5.45999 0.233882 0
M  V30 130 H 9.8867 0.823957 0.0708773 0
M  V30 131 H 12.4327 1.58327 -0.610798 0
M  V30 132 H 11.2047 3.75714 -1.09337 0
M  V30 133 H 10.8277 3.92845 0.613066 0
M  V30 134 N 11.8248 0.280983 1.55075 0
M  V30 135 C 12.7878 -0.590896 2.21452 0
M  V30 136 C 13.7878 -1.07682 1.19421 0
M  V30 137 O 14.9778 -0.97605 1.44288 0
M  V30 138 C 12.1098 -1.81587 2.88511 0
M  V30 139 H 13.3028 -0.0112554 2.99898 0
M  V30 140 H 10.8558 0.0316438 1.56268 0
M  V30 141 H 11.5908 -2.43587 2.14093 0
M  V30 142 H 11.3758 -1.4753 3.63287 0
M  V30 143 H 12.8658 -2.43575 3.39206 0
M  V30 144 N 13.3029 -1.57598 0.00835791 0
M  V30 145 C 14.5329 -1.94931 -0.684496 0
M  V30 146 C 14.9409 -0.882233 -1.67372 0
M  V30 147 O 14.2839 0.146621 -1.83114 0
M  V30 148 C 14.3459 -3.283 -1.4649 0
M  V30 149 C 14.0099 -4.52548 -0.63634 0
M  V30 150 C 15.0069 -5.19839 0.0795586 0
M  V30 151 C 12.6919 -4.98942 -0.579849 0
M  V30 152 C 14.6859 -6.3183 0.840843 0
M  V30 153 C 12.3729 -6.10819 0.185155 0
M  V30 154 C 13.3709 -6.77121 0.894227 0
M  V30 155 O 13.0589 -7.86853 1.64673 0
M  V30 156 H 12.7909 -0.647249 -0.19505 0
M  V30 157 H 15.3449 -2.05318 0.0581272 0
M  V30 158 H 13.5749 -3.14345 -2.2522 0
M  V30 159 H 15.2639 -3.50685 -2.04389 0
M  V30 160 H 16.0299 -4.84979 0.0451202 0
M  V30 161 H 11.9089 -4.47155 -1.1213 0
M  V30 162 H 15.4529 -6.83513 1.39483 0
M  V30 163 H 11.3499 -6.4512 0.221384 0
M  V30 164 H 12.1179 -8.03412 1.56432 0
M  V30 165 N 14.781 0.264519 -1.55364 0
M  V30 166 C 16.029 0.993021 -1.76021 0
M  V30 167 C 16.35 1.86511 -0.569099 0
M  V30 168 O 15.62 1.91438 0.415735 0
M  V30 169 H 14.2 0.369639 -0.649135 0
M  V30 170 H 16.862 0.286707 -1.9278 0
M  V30 171 H 15.958 1.62502 -2.66457 0
M  V30 172 N 16.2591 1.48442 0.529413 0
M  V30 173 C 17.4871 1.60151 1.30994 0
M  V30 174 C 17.9021 0.261985 1.86973 0
M  V30 175 O 17.2591 -0.748805 1.66431 0
M  V30 176 C 17.3101 2.64854 2.46038 0
M  V30 177 O 17.0311 3.93608 1.92365 0
M  V30 178 C 18.5321 2.87007 3.37849 0
M  V30 179 H 15.7521 0.539971 0.398338 0
M  V30 180 H 18.2961 1.94273 0.638597 0
M  V30 181 H 16.4511 2.33589 3.09055 0
M  V30 182 H 16.8651 4.51055 2.67675 0
M  V30 183 H 18.3391 3.64068 4.14919 0
M  V30 184 H 18.8161 1.95852 3.93114 0
M  V30 185 H 19.4221 3.19579 2.80623 0
M  V30 186 N 17.7372 -0.778329 1.37039 0
M  V30 187 C 18.6672 -1.90546 1.34962 0
M  V30 188 C 19.6482 -1.68681 0.219274 0
M  V30 189 O 20.8332 -1.89634 0.418624 0
M  V30 190 C 17.9632 -3.27734 1.14925 0
M  V30 191 C 16.9172 -3.64147 2.24902 0
M  V30 192 C 16.2432 -4.99806 1.89996 0
M  V30 193 C 17.5432 -3.71579 3.67051 0
M  V30 194 H 19.2372 -1.92541 2.29277 0
M  V30 195 H 16.7832 -0.924948 1.10366 0
M  V30 196 H 18.7362 -4.06215 1.12104 0
M  V30 197 H 17.4602 -3.26154 0.170631 0
M  V30 198 H 16.1192 -2.8797 2.26868 0
M  V30 199 H 15.7672 -4.94759 0.906796 0
M  V30 200 H 15.4672 -5.25139 2.63634 0
M  V30 201 H 16.9912 -5.80694 1.88749 0
M  V30 202 H 18.4052 -4.40227 3.67251 0
M  V30 203 H 16.8022 -4.08405 4.39688 0
M  V30 204 H 17.8722 -2.72404 4.01154 0
M  V30 205 N 19.2153 -1.21501 -1.00376 0
M  V30 206 C 20.4623 -1.03299 -1.74171 0
M  V30 207 C 20.7903 0.433326 -1.89612 0
M  V30 208 O 20.0453 1.33779 -1.42834 0
M  V30 209 C 20.3443 -1.67673 -3.15627 0
M  V30 210 C 20.0103 -3.17533 -3.2013 0
M  V30 211 C 18.6723 -3.58427 -3.21067 0
M  V30 212 C 21.0243 -4.13504 -3.17275 0
M  V30 213 C 18.3523 -4.93794 -3.16835 0
M  V30 214 C 20.7043 -5.48834 -3.14585 0
M  V30 215 C 19.3683 -5.89123 -3.13831 0
M  V30 216 H 18.6383 -0.377999 -0.637336 0
M  V30 217 H 21.2853 -1.51111 -1.17634 0
M  V30 218 H 19.5903 -1.12158 -3.75404 0
M  V30 219 H 21.2873 -1.51091 -3.71446 0
M  V30 220 H 17.8773 -2.84965 -3.20145 0
M  V30 221 H 22.0613 -3.82936 -3.15711 0
M  V30 222 H 17.3173 -5.24255 -3.1459 0
M  V30 223 H 21.4913 -6.22934 -3.1133 0
M  V30 224 H 19.1183 -6.93984 -3.10307 0
M  V30 225 N 20.6934 1.19889 -1.02296 0
M  V30 226 C 21.9704 1.85148 -0.630832 0
M  V30 227 C 22.3504 1.91385 0.890782 0
M  V30 228 O 21.6984 1.42642 1.78509 0
M  V30 229 C 21.9084 3.24442 -1.28602 0
M  V30 230 C 23.2564 4.00663 -1.4055 0
M  V30 231 O 24.2804 3.33818 -1.24273 0
M  V30 232 O 23.1394 5.20387 -1.66913 0
M  V30 233 H 20.2334 0.797613 -0.218499 0
M  V30 234 H 22.7794 1.27427 -1.12074 0
M  V30 235 H 21.5514 3.14704 -2.32545 0
M  V30 236 H 21.1744 3.89802 -0.7836 0
M  V30 237 N 22.1715 0.800033 1.35784 0
M  V30 238 C 23.4175 0.377901 1.99248 0
M  V30 239 C 23.7505 -1.05052 1.63333 0
M  V30 240 O 23.0255 -1.72768 0.893385 0
M  V30 241 C 23.3085 0.553922 3.55814 0
M  V30 242 C 23.1615 2.0268 4.01548 0
M  V30 243 C 24.4805 -0.0244802 4.40093 0
M  V30 244 H 21.5995 0.138782 0.723815 0
M  V30 245 H 24.2415 1.00835 1.61035 0
M  V30 246 H 22.3915 0.0172398 3.88496 0
M  V30 247 H 24.0635 2.62536 3.79305 0
M  V30 248 H 22.3065 2.5256 3.52698 0
M  V30 249 H 22.9775 2.10087 5.10458 0
M  V30 250 H 25.4535 0.433775 4.13833 0
M  V30 251 H 24.3295 0.128637 5.48749 0
M  V30 252 H 24.5905 -1.11758 4.27741 0
M  V30 253 N 23.6496 -1.47581 0.552962 0
M  V30 254 C 24.5816 -2.27997 -0.234533 0
M  V30 255 C 25.5946 -1.36753 -0.883321 0
M  V30 256 O 26.7836 -1.61612 -0.757889 0
M  V30 257 C 23.8836 -3.10879 -1.34935 0
M  V30 258 C 23.0566 -4.30056 -0.798158 0
M  V30 259 C 22.1156 -4.94567 -1.79694 0
M  V30 260 O 21.1416 -5.53087 -1.34474 0
M  V30 261 N 22.3436 -4.88878 -3.13015 0
M  V30 262 H 25.1086 -2.96222 0.455255 0
M  V30 263 H 22.6696 -1.57163 0.388761 0
M  V30 264 H 24.6616 -3.50903 -2.01616 0
M  V30 265 H 23.2316 -2.44924 -1.94244 0
M  V30 266 H 22.4516 -3.94174 0.0453079 0
M  V30 267 H 23.7396 -5.07152 -0.409173 0
M  V30 268 H 23.1376 -4.42526 -3.52402 0
M  V30 269 H 21.6946 -5.32934 -3.75266 0
M  V30 270 N 25.1277 -0.289203 -1.54924 0
M  V30 271 C 26.3527 0.329299 -2.04769 0
M  V30 272 C 26.7777 1.4763 -1.16564 0
M  V30 273 O 26.1357 1.80527 -0.167186 0
M  V30 274 C 26.1837 0.774438 -3.52186 0
M  V30 275 O 25.2877 1.88038 -3.67036 0
M  V30 276 H 24.6287 0.0659259 -0.660719 0
M  V30 277 H 27.1587 -0.42761 -2.00082 0
M  V30 278 H 27.1687 1.06642 -3.93816 0
M  V30 279 H 25.8437 -0.0646707 -4.1585 0
M  V30 280 H 24.4207 1.58985 -3.3731 0
M  V30 281 N 26.6058 1.57591 -0.0167156 0
M  V30 282 C 27.8518 1.91567 0.665582 0
M  V30 283 C 28.1848 0.892298 1.72487 0
M  V30 284 O 27.4598 -0.0867127 1.94307 0
M  V30 285 C 27.7428 3.36069 1.29342 0
M  V30 286 C 27.5958 4.49135 0.244541 0
M  V30 287 C 28.9148 3.803 2.21495 0
M  V30 288 H 26.0338 0.69666 0.240488 0
M  V30 289 H 28.6758 1.89866 -0.0714356 0
M  V30 290 H 26.8258 3.3765 1.92158 0
M  V30 291 H 28.4978 4.59689 -0.385228 0
M  V30 292 H 26.7408 4.3165 -0.431379 0
M  V30 293 H 27.4118 5.47242 0.723207 0
M  V30 294 H 29.8878 3.80377 1.68678 0
M  V30 295 H 28.7638 4.82127 2.62382 0
M  V30 296 H 29.0248 3.15104 3.101 0
M  V30 297 N 28.0839 -0.256276 1.55502 0
M  V30 298 C 29.0469 -1.30047 1.88734 0
M  V30 299 C 30.0469 -1.4154 0.763086 0
M  V30 300 O 31.2369 -1.40403 1.03115 0
M  V30 301 C 28.3689 -2.67953 2.10747 0
M  V30 302 H 29.5619 -1.01802 2.82093 0
M  V30 303 H 27.1149 -0.495134 1.4825 0
M  V30 304 H 27.8499 -3.01351 1.19825 0
M  V30 305 H 27.6349 -2.60993 2.92617 0
M  V30 306 H 29.1249 -3.43368 2.37673 0
M  V30 307 N 29.562 -1.4872 -0.521534 0
M  V30 308 C 30.839 -1.4766 -1.2828 0
M  V30 309 C 31.219 -0.19292 -2.10217 0
M  V30 310 O 30.567 0.825193 -2.13079 0
M  V30 311 C 30.777 -2.74358 -2.15705 0
M  V30 312 C 32.125 -3.23028 -2.75569 0
M  V30 313 O 33.149 -2.75333 -2.25987 0
M  V30 314 O 32.008 -4.0604 -3.65778 0
M  V30 315 H 29.102 -0.590085 -0.579421 0
M  V30 316 H 31.648 -1.60963 -0.537492 0
M  V30 317 H 30.42 -3.59292 -1.54999 0
M  V30 318 H 30.043 -2.63816 -2.97467 0
M  V30 319 N 31.0401 0.771051 -1.3745 0
M  V30 320 C 32.0031 1.86598 -1.33093 0
M  V30 321 C 33.0031 1.59076 -0.234845 0
M  V30 322 O 34.1931 1.67145 -0.490732 0
M  V30 323 C 31.3251 3.23747 -1.06773 0
M  V30 324 H 32.5181 1.91873 -2.30488 0
M  V30 325 H 30.0711 0.970876 -1.2249 0
M  V30 326 H 30.8061 3.24148 -0.099129 0
M  V30 327 H 30.5911 3.45115 -1.86112 0
M  V30 328 H 32.0811 4.03824 -1.06377 0
M  V30 329 N 32.5182 1.22032 0.997298 0
M  V30 330 C 33.7462 1.06841 1.7718 0
M  V30 331 C 34.1612 -0.381325 1.84909 0
M  V30 332 O 33.5182 -1.26437 1.31605 0
M  V30 333 C 33.5692 1.66814 3.20711 0
M  V30 334 O 33.2902 3.06116 3.13408 0
M  V30 335 C 34.7912 1.56838 4.14628 0
M  V30 336 H 32.0112 0.374782 0.556578 0
M  V30 337 H 34.5552 1.61532 1.2541 0
M  V30 338 H 32.7102 1.16196 3.69564 0
M  V30 339 H 33.1242 3.34926 4.0364 0
M  V30 340 H 34.5982 2.03532 5.13107 0
M  V30 341 H 35.0752 0.524155 4.36061 0
M  V30 342 H 35.6812 2.06741 3.7167 0
M  V30 343 N 33.9963 -1.19345 1.0293 0
M  V30 344 C 34.9063 -2.26245 0.620515 0
M  V30 345 C 35.9223 -1.70486 -0.347928 0
M  V30 346 O 37.0983 -2.00347 -0.205704 0
M  V30 347 C 34.1633 -3.46693 -0.0218957 0
M  V30 348 C 33.2243 -4.17632 0.994102 0
M  V30 349 C 32.4573 -5.32329 0.382253 0
M  V30 350 O 32.6803 -5.64552 -0.814676 0
M  V30 351 O 31.6143 -5.91664 1.10531 0
M  V30 352 H 35.4403 -2.63453 1.51083 0
M  V30 353 H 33.0253 -1.26207 0.799513 0
M  V30 354 H 34.9073 -4.19683 -0.380072 0
M  V30 355 H 33.5823 -3.11333 -0.886209 0
M  V30 356 H 32.4893 -3.4676 1.40387 0
M  V30 357 H 33.8223 -4.56964 1.8288 0
M  V30 358 N 35.4744 -0.807222 -1.35358 0
M  V30 359 C 36.8904 -0.491038 -1.51858 0
M  V30 360 C 37.0904 0.987648 -1.75635 0
M  V30 361 O 36.1464 1.77265 -1.79815 0
M  V30 362 C 37.4594 -1.33695 -2.69344 0
M  V30 363 C 39.0074 -1.33246 -2.83222 0
M  V30 364 C 39.4824 -2.1625 -4.03733 0
M  V30 365 N 40.9734 -2.1379 -4.10911 0
M  V30 366 C 41.7084 -2.74772 -5.03277 0
M  V30 367 N 41.2044 -3.44684 -6.0097 0
M  V30 368 N 42.9974 -2.6441 -4.96028 0
M  V30 369 H 35.1484 -1.76485 -1.18181 0
M  V30 370 H 37.4114 -0.751199 -0.578276 0
M  V30 371 H 37.1174 -2.38634 -2.58354 0
M  V30 372 H 36.9914 -0.990618 -3.6396 0
M  V30 373 H 39.3784 -0.290911 -2.93663 0
M  V30 374 H 39.4594 -1.71866 -1.89461 0
M  V30 375 H 39.1034 -3.20445 -3.94052 0
M  V30 376 H 39.0334 -1.74989 -4.96675 0
M  V30 377 H 41.5244 -1.62923 -3.40976 0
M  V30 378 H 41.8374 -3.88501 -6.68047 0
M  V30 379 H 40.1824 -3.48788 -6.01142 0
M  V30 380 H 43.3734 -2.0938 -4.18662 0
M  V30 381 H 43.5464 -3.12225 -5.6782 0
M  V30 382 N 36.9525 1.47285 -0.560781 0
M  V30 383 C 37.9155 2.28535 0.174488 0
M  V30 384 C 38.9155 1.37153 0.839388 0
M  V30 385 O 40.1055 1.59748 0.694702 0
M  V30 386 C 37.2375 3.16934 1.25561 0
M  V30 387 H 38.4305 2.95012 -0.539262 0
M  V30 388 H 35.9835 1.53034 -0.317865 0
M  V30 389 H 36.7185 2.55157 2.00164 0
M  V30 390 H 36.5035 3.8419 0.783604 0
M  V30 391 H 37.9935 3.78143 1.77193 0
M  V30 392 N 38.4306 0.297415 1.54768 0
M  V30 393 C 39.6606 -0.315165 2.04182 0
M  V30 394 C 40.0686 -1.4834 1.17439 0
M  V30 395 O 39.4116 -1.82695 0.191891 0
M  V30 396 C 39.4736 -0.837583 3.49607 0
M  V30 397 C 39.1376 0.204912 4.5654 0
M  V30 398 C 40.1346 1.03214 5.09552 0
M  V30 399 C 37.8196 0.345578 5.0111 0
M  V30 400 C 39.8136 1.986 6.05671 0
M  V30 401 C 37.5006 1.30289 5.97049 0
M  V30 402 C 38.4986 2.12159 6.49213 0
M  V30 403 O 38.1866 3.06268 7.43273 0
M  V30 404 H 37.9186 -0.0729646 0.672051 0
M  V30 405 H 40.4726 0.433907 2.00765 0
M  V30 406 H 38.7026 -1.63712 3.50336 0
M  V30 407 H 40.3916 -1.36566 3.82236 0
M  V30 408 H 41.1576 0.934312 4.75916 0
M  V30 409 H 37.0366 -0.28171 4.60138 0
M  V30 410 H 40.5806 2.62542 6.46311 0
M  V30 411 H 36.4776 1.40145 6.30103 0
M  V30 412 H 37.2456 3.01205 7.61064 0
M  V30 413 N 39.9087 -1.5758 0.0250728 0
M  V30 414 C 41.3197 -1.79476 -0.514323 0
M  V30 415 C 41.6707 -0.934956 -1.72491 0
M  V30 416 O 40.7957 -0.144245 -2.15919 0
M  V30 417 C 41.3907 -3.25503 -0.939842 0
M  V30 418 C 39.9497 -3.48408 -1.42438 0
M  V30 419 C 39.0967 -2.74583 -0.387201 0
M  V30 420 H 42.0477 -1.567 0.25113 0
M  V30 421 H 42.0687 -3.34992 -1.80445 0
M  V30 422 H 41.5807 -3.88056 -0.0585628 0
M  V30 423 H 39.6817 -2.91103 -2.32572 0
M  V30 424 H 39.7947 -4.57119 -1.43455 0
M  V30 425 H 38.1587 -2.39942 -0.854409 0
M  V30 426 H 38.9417 -3.39849 0.485543 0
M  V30 427 N 41.3868 0.248026 -1.55636 0
M  V30 428 C 42.6348 0.974295 -1.77065 0
M  V30 429 C 42.9558 1.85897 -0.588849 0
M  V30 430 O 42.2258 1.91868 0.395407 0
M  V30 431 H 40.8058 0.362733 -0.653019 0
M  V30 432 H 43.4678 0.266244 -1.93073 0
M  V30 433 H 42.5638 1.59667 -2.68166 0
M  V30 434 N 42.8649 1.48995 0.513639 0
M  V30 435 C 44.2809 1.35478 0.843682 0
M  V30 436 C 44.4809 0.378213 1.97919 0
M  V30 437 O 43.5369 -0.194689 2.51748 0
M  V30 438 C 44.8499 2.75901 1.1958 0
M  V30 439 C 46.3979 2.84509 1.30474 0
M  V30 440 C 46.8729 4.25671 1.69021 0
M  V30 441 N 48.3639 4.28422 1.76094 0
M  V30 442 C 49.0989 5.34601 2.07338 0
M  V30 443 N 48.5949 6.5104 2.36894 0
M  V30 444 N 50.3879 5.22007 2.08483 0
M  V30 445 H 42.5389 2.11092 -0.235328 0
M  V30 446 H 44.8019 0.947039 -0.0426669 0
M  V30 447 H 44.5079 3.49001 0.434913 0
M  V30 448 H 44.3819 3.10467 2.1422 0
M  V30 449 H 46.7689 2.11655 2.05637 0
M  V30 450 H 46.8499 2.53542 0.339155 0
M  V30 451 H 46.4939 4.99048 0.944135 0
M  V30 452 H 46.4239 4.54094 2.66658 0
M  V30 453 H 48.9149 3.44441 1.55464 0
M  V30 454 H 49.2279 7.2779 2.59887 0
M  V30 455 H 47.5729 6.54287 2.34378 0
M  V30 456 H 50.7639 4.30051 1.84861 0
M  V30 457 H 50.9369 6.04854 2.325 0
M  V30 458 N 44.343 -0.763751 1.37857 0
M  V30 459 C 45.591 -1.51957 1.33243 0
M  V30 460 C 45.912 -1.94835 -0.0801709 0
M  V30 461 O 45.182 -1.66894 -1.02582 0
M  V30 462 H 43.762 -0.563626 0.49024 0
M  V30 463 H 46.424 -0.908504 1.7243 0
M  V30 464 H 45.52 -2.41523 1.97669 0
M  V30 465 N 45.8211 -1.22559 -0.990812 0
M  V30 466 C 46.7311 -1.01394 -2.11557 0
M  V30 467 C 47.7471 0.0383962 -1.73958 0
M  V30 468 O 48.9231 -0.154787 -2.00804 0
M  V30 469 C 45.9881 -0.596569 -3.41529 0
M  V30 470 C 45.0491 -1.72276 -3.93217 0
M  V30 471 C 44.2821 -1.32521 -5.16985 0
M  V30 472 O 44.5051 -0.204909 -5.70032 0
M  V30 473 O 43.4391 -2.14247 -5.62478 0
M  V30 474 H 47.2651 -1.95633 -2.32296 0
M  V30 475 H 44.8501 -1.01172 -1.0993 0
M  V30 476 H 46.7321 -0.374263 -4.19735 0
M  V30 477 H 45.4071 0.316939 -3.22145 0
M  V30 478 H 44.3141 -1.99961 -3.16174 0
M  V30 479 H 45.6471 -2.61421 -4.17037 0
M  V30 480 N 47.2992 1.18797 -1.03562 0
M  V30 481 C 48.5292 1.92319 -0.754773 0
M  V30 482 C 48.9372 1.7612 0.691248 0
M  V30 483 O 48.2802 1.08491 1.48241 0
M  V30 484 C 48.3422 3.44284 -1.03484 0
M  V30 485 C 48.0062 3.84258 -2.47376 0
M  V30 486 C 49.0032 3.88459 -3.45537 0
M  V30 487 C 46.6882 4.15701 -2.81954 0
M  V30 488 C 48.6822 4.23545 -4.76328 0
M  V30 489 C 46.3692 4.50458 -4.12954 0
M  V30 490 C 47.3672 4.54356 -5.09951 0
M  V30 491 O 47.0552 4.88305 -6.38603 0
M  V30 492 H 46.7872 0.617527 -0.275021 0
M  V30 493 H 49.3412 1.51683 -1.38497 0
M  V30 494 H 47.5712 3.85135 -0.347513 0
M  V30 495 H 49.2602 3.99049 -0.7426 0
M  V30 496 H 50.0262 3.6431 -3.20162 0
M  V30 497 H 45.9052 4.11847 -2.0713 0
M  V30 498 H 49.4492 4.26502 -5.52035 0
M  V30 499 H 45.3462 4.74067 -4.38099 0
M  V30 500 H 46.1142 5.06227 -6.43177 0
M  V30 501 N 48.7773 0.814389 1.34928 0
M  V30 502 C 50.0263 0.394871 1.97797 0
M  V30 503 C 50.3393 -1.04555 1.65311 0
M  V30 504 O 51.5453 -1.56856 2.21604 0
M  V30 505 C 50.0013 0.655103 3.53888 0
M  V30 506 C 49.6093 2.10858 3.95276 0
M  V30 507 C 51.3533 0.301329 4.23429 0
M  V30 508 C 49.2603 2.31415 5.44244 0
M  V30 509 H 48.1903 0.143913 0.740139 0
M  V30 510 H 50.8413 0.999544 1.53888 0
M  V30 511 H 49.2233 -0.0196253 3.95995 0
M  V30 512 H 50.3973 2.82176 3.64298 0
M  V30 513 H 48.7123 2.42297 3.38646 0
M  V30 514 H 51.3093 0.432869 5.32945 0
M  V30 515 H 51.6523 -0.75331 4.09428 0
M  V30 516 H 52.1853 0.930288 3.86769 0
M  V30 517 H 48.9243 3.35353 5.63222 0
M  V30 518 H 48.4443 1.6463 5.76764 0
M  V30 519 H 50.1233 2.13352 6.10811 0
M  V30 520 N 50.2554 -1.46986 0.568584 0
M  V30 521 C 51.4834 -2.0683 0.0539956 0
M  V30 522 C 51.8984 -1.41953 -1.24478 0
M  V30 523 O 51.2554 -0.519933 -1.74937 0
M  V30 524 C 51.3064 -3.61254 -0.133362 0
M  V30 525 O 51.0274 -4.237 1.11399 0
M  V30 526 C 52.5284 -4.37992 -0.683927 0
M  V30 527 H 49.7484 -0.669058 0.0510141 0
M  V30 528 H 52.2924 -1.88824 0.785234 0
M  V30 529 H 50.4474 -3.78735 -0.81477 0
M  V30 530 H 50.8614 -5.16388 0.91888 0
M  V30 531 H 52.3354 -5.46684 -0.764263 0
M  V30 532 H 52.8124 -4.05058 -1.69778 0
M  V30 533 H 53.4184 -4.25283 -0.0378494 0
M  V30 534 N 51.7335 -0.305618 -1.54608 0
M  V30 535 C 52.6655 0.602161 -2.21149 0
M  V30 536 C 53.6785 1.09394 -1.20569 0
M  V30 537 O 54.8675 1.0106 -1.47136 0
M  V30 538 C 51.9675 1.83692 -2.84799 0
M  V30 539 C 51.1405 1.48686 -4.11353 0
M  V30 540 C 50.1995 2.57725 -4.58764 0
M  V30 541 O 49.2255 2.22623 -5.23858 0
M  V30 542 N 50.4275 3.88346 -4.31471 0
M  V30 543 H 53.1925 0.0324966 -2.99682 0
M  V30 544 H 50.7535 -0.128021 -1.61393 0
M  V30 545 H 52.7455 2.55994 -3.13448 0
M  V30 546 H 51.3155 2.31486 -2.10078 0
M  V30 547 H 50.5355 0.596269 -3.89664 0
M  V30 548 H 51.8235 1.22842 -4.93748 0
M  V30 549 H 51.2215 4.19671 -3.79331 0
M  V30 550 H 49.7785 4.56932 -4.64818 0
M  V30 551 N 53.2116 1.57565 -0.0334293 0
M  V30 552 C 54.4576 1.92262 0.645226 0
M  V30 553 C 54.7906 0.910543 1.71531 0
M  V30 554 O 54.0656 -0.066099 1.94388 0
M  V30 555 C 54.3486 3.37422 1.2577 0
M  V30 556 C 54.2016 4.49369 0.196891 0
M  V30 557 C 55.5206 3.82628 2.17449 0
M  V30 558 H 52.6396 0.699171 0.233085 0
M  V30 559 H 55.2816 1.89779 -0.0915694 0
M  V30 560 H 53.4316 3.39669 1.88566 0
M  V30 561 H 55.1036 4.59254 -0.433962 0
M  V30 562 H 53.3466 4.31168 -0.477137 0
M  V30 563 H 54.0176 5.47978 0.665124 0
M  V30 564 H 56.4936 3.82145 1.64634 0
M  V30 565 H 55.3696 4.84883 2.57254 0
M  V30 566 H 55.6306 3.18376 3.0674 0
M  V30 567 N 54.6897 -0.239769 1.55765 0
M  V30 568 C 55.9357 -0.963942 1.79108 0
M  V30 569 C 56.2907 -1.82689 0.60352 0
M  V30 570 O 55.5837 -1.87313 -0.403033 0
M  V30 571 C 55.7777 -1.852 3.05672 0
M  V30 572 C 55.6067 -1.07651 4.36625 0
M  V30 573 C 54.3767 -0.778738 4.99263 0
M  V30 574 C 56.5747 -0.45062 5.12322 0
M  V30 575 N 54.5567 0.0200708 6.13897 0
M  V30 576 C 55.9277 0.212429 6.19636 0
M  V30 577 C 57.9827 -0.361806 4.96584 0
M  V30 578 C 56.6857 0.955772 7.12922 0
M  V30 579 C 58.7117 0.368023 5.90254 0
M  V30 580 C 58.0737 1.01968 6.96981 0
M  V30 581 H 54.1727 -0.333601 0.707272 0
M  V30 582 H 56.7567 -0.236425 1.93259 0
M  V30 583 H 54.9277 -2.55149 2.92837 0
M  V30 584 H 56.6597 -2.51228 3.1728 0
M  V30 585 H 53.4147 -1.09229 4.60832 0
M  V30 586 H 53.8387 0.407777 6.75771 0
M  V30 587 H 58.4807 -0.851286 4.14141 0
M  V30 588 H 56.1987 1.45683 7.9486 0
M  V30 589 H 59.7847 0.437504 5.80153 0
M  V30 590 H 58.6647 1.5754 7.68213 0
M  V30 591 N 56.1678 -1.49265 -0.50573 0
M  V30 592 C 57.5838 -1.35923 -0.836486 0
M  V30 593 C 57.7838 -0.388704 -1.97715 0
M  V30 594 O 56.8398 0.181336 -2.51848 0
M  V30 595 C 58.1528 -2.76531 -1.18115 0
M  V30 596 C 59.7008 -2.85197 -1.28964 0
M  V30 597 C 60.1758 -4.26561 -1.66761 0
M  V30 598 N 61.6668 -4.2935 -1.73819 0
M  V30 599 C 62.4018 -5.35693 -2.045 0
M  V30 600 N 61.8978 -6.52287 -2.33438 0
M  V30 601 N 63.6908 -5.23105 -2.05711 0
M  V30 602 H 55.8418 -2.10965 0.246519 0
M  V30 603 H 58.1048 -0.9468 0.0476887 0
M  V30 604 H 57.8108 -3.49226 -0.416398 0
M  V30 605 H 57.6848 -3.11599 -2.1257 0
M  V30 606 H 60.0718 -2.12742 -2.04511 0
M  V30 607 H 60.1528 -2.53718 -0.325704 0
M  V30 608 H 59.7968 -4.99541 -0.917656 0
M  V30 609 H 59.7268 -4.55502 -2.64246 0
M  V30 610 H 62.2178 -3.4526 -1.53635 0
M  V30 611 H 62.5308 -7.29158 -2.56024 0
M  V30 612 H 60.8758 -6.55521 -2.30905 0
M  V30 613 H 64.0668 -4.31026 -1.82577 0
M  V30 614 H 64.2398 -6.06078 -2.29289 0
M  V30 615 N 57.6459 0.756429 -1.3826 0
M  V30 616 C 58.5779 1.87971 -1.31147 0
M  V30 617 C 59.5909 1.61248 -0.224239 0
M  V30 618 O 60.7799 1.71881 -0.481581 0
M  V30 619 C 57.8799 3.23545 -1.00857 0
M  V30 620 C 57.0529 3.77794 -2.20432 0
M  V30 621 C 56.1119 4.91877 -1.86931 0
M  V30 622 O 55.1379 5.06659 -2.59395 0
M  V30 623 N 56.3399 5.74643 -0.822568 0
M  V30 624 H 59.1049 1.94585 -2.2794 0
M  V30 625 H 56.6659 0.936234 -1.32084 0
M  V30 626 H 58.6579 3.97403 -0.765021 0
M  V30 627 H 57.2279 3.12335 -0.128687 0
M  V30 628 H 56.4479 2.95534 -2.6087 0
M  V30 629 H 57.7359 4.10771 -3.00241 0
M  V30 630 H 57.1339 5.65266 -0.221575 0
M  V30 631 H 55.6909 6.48661 -0.638899 0
M  V30 632 N 59.124 1.23083 0.984299 0
M  V30 633 C 60.071 1.00854 2.07598 0
M  V30 634 C 61.041 -0.0726709 1.65941 0
M  V30 635 O 62.226 0.0786535 1.90638 0
M  V30 636 C 59.366 0.601645 3.39815 0
M  V30 637 C 58.479 1.75456 3.94765 0
M  V30 638 C 57.614 1.29482 5.15177 0
M  V30 639 C 56.653 2.41873 5.62284 0
M  V30 640 N 55.79 1.96885 6.73929 0
M  V30 641 H 60.63 1.943 2.25946 0
M  V30 642 H 58.167 0.968001 1.10762 0
M  V30 643 H 60.125 0.346854 4.15756 0
M  V30 644 H 58.755 -0.295803 3.21442 0
M  V30 645 H 57.807 2.12346 3.15616 0
M  V30 646 H 59.119 2.59965 4.25699 0
M  V30 647 H 58.273 0.997923 5.98437 0
M  V30 648 H 57.012 0.420046 4.85888 0
M  V30 649 H 56.017 2.72342 4.77608 0
M  V30 650 H 57.242 3.29881 5.93595 0
M  V30 651 H 55.188 1.11782 6.46406 0
M  V30 652 H 55.105 2.74956 7.04227 0
M  V30 653 H 56.373 1.70289 7.60672 0
M  V30 654 N 60.6021 -1.18246 1.0419 0
M  V30 655 C 61.5341 -2.2142 0.592088 0
M  V30 656 C 62.5471 -1.59233 -0.338909 0
M  V30 657 O 63.7361 -1.78002 -0.133231 0
M  V30 658 C 60.8361 -3.38546 -0.154854 0
M  V30 659 C 60.0091 -4.3031 0.784328 0
M  V30 660 C 59.0681 -5.26138 0.0804583 0
M  V30 661 O 58.0941 -5.64738 0.711292 0
M  V30 662 N 59.2961 -5.68261 -1.18574 0
M  V30 663 H 62.0611 -2.60636 1.47949 0
M  V30 664 H 59.6221 -1.33044 0.922544 0
M  V30 665 H 61.6141 -3.99678 -0.635606 0
M  V30 666 H 60.1841 -2.98012 -0.943811 0
M  V30 667 H 59.4041 -3.66764 1.44491 0
M  V30 668 H 60.6921 -4.8852 1.42218 0
M  V30 669 H 60.0901 -5.38957 -1.71876 0
M  V30 670 H 58.6471 -6.31584 -1.61074 0
M  V30 671 N 62.0802 -0.821533 -1.34494 0
M  V30 672 C 63.0102 -0.257138 -2.3208 0
M  V30 673 C 63.9912 0.625645 -1.58176 0
M  V30 674 O 65.1762 0.552811 -1.86166 0
M  V30 675 C 62.3062 0.582958 -3.42372 0
M  V30 676 C 61.2602 -0.202571 -4.2752 0
M  V30 677 C 60.5862 0.760179 -5.29269 0
M  V30 678 C 61.8862 -1.40998 -5.02908 0
M  V30 679 H 63.5802 -1.07247 -2.79532 0
M  V30 680 H 61.1262 -0.517163 -1.34393 0
M  V30 681 H 63.0792 0.987972 -4.09655 0
M  V30 682 H 61.8032 1.43133 -2.93565 0
M  V30 683 H 60.4622 -0.588936 -3.61838 0
M  V30 684 H 60.1102 1.60447 -4.76724 0
M  V30 685 H 59.8102 0.238809 -5.87115 0
M  V30 686 H 61.3342 1.16308 -5.9942 0
M  V30 687 H 62.7482 -1.07905 -5.63054 0
M  V30 688 H 61.1452 -1.86689 -5.70322 0
M  V30 689 H 62.2152 -2.1889 -4.32684 0
M  V30 690 N 63.5583 1.46682 -0.576371 0
M  V30 691 C 64.4683 2.34032 0.163141 0
M  V30 692 C 65.4843 1.49367 0.892501 0
M  V30 693 O 66.6603 1.82252 0.857106 0
M  V30 694 C 63.7253 3.26435 1.16795 0
M  V30 695 C 62.7863 4.26998 0.443944 0
M  V30 696 C 62.0193 5.14986 1.40088 0
M  V30 697 O 62.2423 5.05785 2.637 0
M  V30 698 O 61.1763 5.94906 0.914917 0
M  V30 699 H 65.0023 2.98607 -0.55388 0
M  V30 700 H 62.5873 1.45554 -0.336821 0
M  V30 701 H 64.4693 3.83459 1.74748 0
M  V30 702 H 63.1443 2.64465 1.86655 0
M  V30 703 H 62.0513 3.7368 -0.177271 0
M  V30 704 H 63.3843 4.91736 -0.213566 0
M  V30 705 N 65.0364 0.313813 1.54444 0
M  V30 706 C 66.2664 -0.293491 2.04505 0
M  V30 707 C 66.6744 -1.47086 1.19005 0
M  V30 708 O 66.0174 -1.82481 0.211257 0
M  V30 709 C 66.0794 -0.800455 3.50475 0
M  V30 710 C 65.7434 0.253322 4.56297 0
M  V30 711 C 66.7404 1.08612 5.08428 0
M  V30 712 C 64.4254 0.398708 5.00715 0
M  V30 713 C 66.4194 2.05013 6.0353 0
M  V30 714 C 64.1064 1.36614 5.95634 0
M  V30 715 C 65.1044 2.19033 6.46926 0
M  V30 716 O 64.7924 3.14134 7.39983 0
M  V30 717 H 64.5244 -0.0658325 0.672787 0
M  V30 718 H 67.0784 0.455177 2.00293 0
M  V30 719 H 65.3084 -1.59987 3.52053 0
M  V30 720 H 66.9974 -1.32504 3.83663 0
M  V30 721 H 67.7634 0.984736 4.74898 0
M  V30 722 H 63.6424 -0.23289 4.60411 0
M  V30 723 H 67.1864 2.69382 6.4349 0
M  V30 724 H 63.0834 1.4682 6.28581 0
M  V30 725 H 63.8514 3.0926 7.57826 0
M  V30 726 N 66.5145 -1.57545 0.0417849 0
M  V30 727 C 67.7395 -1.97035 -0.647455 0
M  V30 728 C 68.1645 -0.918775 -1.64135 0
M  V30 729 O 67.5225 0.119006 -1.80909 0
M  V30 730 C 67.5705 -3.35609 -1.31905 0
M  V30 731 O 66.6745 -3.3287 -2.43457 0
M  V30 732 H 66.0155 -0.64211 -0.169086 0
M  V30 733 H 68.5455 -2.04318 0.107399 0
M  V30 734 H 68.5555 -3.72126 -1.67291 0
M  V30 735 H 67.2305 -4.11685 -0.590586 0
M  V30 736 H 65.8075 -3.08087 -2.10088 0
M  V30 737 N 67.9926 0.231505 -1.5589 0
M  V30 738 C 69.2386 0.954429 -1.79617 0
M  V30 739 C 69.5936 1.82367 -0.613199 0
M  V30 740 O 68.8866 1.87524 0.393094 0
M  V30 741 C 69.0806 1.83577 -3.0665 0
M  V30 742 C 68.9096 1.05334 -4.3719 0
M  V30 743 C 67.6796 0.75225 -4.99669 0
M  V30 744 C 69.8776 0.423444 -5.12554 0
M  V30 745 N 67.8596 -0.052627 -6.13877 0
M  V30 746 C 69.2306 -0.245287 -6.19515 0
M  V30 747 C 71.2856 0.335466 -4.96769 0
M  V30 748 C 69.9886 -0.993566 -7.12405 0
M  V30 749 C 72.0146 -0.399321 -5.9005 0
M  V30 750 C 71.3766 -1.05663 -6.9643 0
M  V30 751 H 67.4756 0.329846 -0.709031 0
M  V30 752 H 70.0596 0.226172 -1.93382 0
M  V30 753 H 68.2306 2.53592 -2.94186 0
M  V30 754 H 69.9626 2.49541 -3.18608 0
M  V30 755 H 66.7176 1.06783 -4.61405 0
M  V30 756 H 67.1416 -0.443609 -6.75545 0
M  V30 757 H 71.7836 0.829311 -4.14587 0
M  V30 758 H 69.5016 -1.49896 -7.94076 0
M  V30 759 H 73.0876 -0.468265 -5.79913 0
M  V30 760 H 71.9676 -1.61612 -7.67366 0
M  V30 761 N 69.4707 1.49531 0.497807 0
M  V30 762 C 70.4007 1.6935 1.60757 0
M  V30 763 C 71.3817 0.542218 1.61227 0
M  V30 764 O 72.5667 0.778417 1.77917 0
M  V30 765 C 69.6967 1.76298 2.99226 0
M  V30 766 C 68.6507 2.91248 3.13622 0
M  V30 767 C 67.9767 2.83312 4.53474 0
M  V30 768 C 69.2767 4.3214 2.93346 0
M  V30 769 H 70.9707 2.62263 1.44425 0
M  V30 770 H 68.5167 1.26208 0.693367 0
M  V30 771 H 70.4697 1.88749 3.76765 0
M  V30 772 H 69.1937 0.799871 3.16654 0
M  V30 773 H 67.8527 2.78404 2.38509 0
M  V30 774 H 67.5007 1.84902 4.67782 0
M  V30 775 H 67.2007 3.60465 4.64046 0
M  V30 776 H 68.7247 2.97775 5.33069 0
M  V30 777 H 70.1387 4.45649 3.60652 0
M  V30 778 H 68.5357 5.1054 3.15387 0
M  V30 779 H 69.6057 4.46363 1.89441 0
M  V30 780 N 70.9488 -0.749086 1.3866 0
M  V30 781 C 72.3648 -1.05276 1.19955 0
M  V30 782 C 72.5648 -2.01435 0.05134 0
M  V30 783 O 71.6208 -2.45232 -0.60147 0
M  V30 784 C 72.9338 -1.62853 2.52783 0
M  V30 785 C 74.4818 -1.75002 2.59506 0
M  V30 786 C 74.9568 -2.35991 3.92521 0
M  V30 787 N 76.4478 -2.43416 3.94085 0
M  V30 788 C 77.1828 -2.91511 4.9377 0
M  V30 789 N 76.6788 -3.39608 6.03853 0
M  V30 790 N 78.4718 -2.90592 4.81157 0
M  V30 791 H 70.6228 -0.111066 2.12109 0
M  V30 792 H 72.8858 -0.111901 0.941373 0
M  V30 793 H 72.5918 -0.99664 3.37283 0
M  V30 794 H 72.4658 -2.61854 2.715 0
M  V30 795 H 74.8528 -2.37317 1.75398 0
M  V30 796 H 74.9338 -0.74693 2.44652 0
M  V30 797 H 74.5778 -1.74308 4.77053 0
M  V30 798 H 74.5078 -3.3695 4.04688 0
M  V30 799 H 76.9988 -2.09405 3.14576 0
M  V30 800 H 77.3118 -3.74775 6.75843 0
M  V30 801 H 75.6568 -3.37653 6.07466 0
M  V30 802 H 78.8478 -2.52332 3.94267 0
M  V30 803 H 79.0208 -3.27762 5.58996 0
M  V30 804 N 72.4269 -1.23603 -0.977757 0
M  V30 805 C 73.3899 -1.02069 -2.05218 0
M  V30 806 C 74.3899 0.0184305 -1.60789 0
M  V30 807 O 75.5799 -0.221569 -1.72785 0
M  V30 808 C 72.7119 -0.544926 -3.36517 0
M  V30 809 H 73.9049 -1.9742 -2.25755 0
M  V30 810 H 71.4579 -1.05684 -1.15155 0
M  V30 811 H 72.1929 0.412241 -3.21669 0
M  V30 812 H 71.9779 -1.2948 -3.70105 0
M  V30 813 H 73.4679 -0.414985 -4.15533 0
M  V30 814 N 73.905 1.17692 -1.04816 0
M  V30 815 C 74.835 2.23777 -0.666791 0
M  V30 816 C 75.816 1.66796 0.33361 0
M  V30 817 O 77.001 1.93039 0.212042 0
M  V30 818 C 74.131 3.47281 -0.0367933 0
M  V30 819 C 73.085 4.17059 -0.961546 0
M  V30 820 C 72.411 5.34342 -0.195626 0
M  V30 821 C 73.711 4.69713 -2.28402 0
M  V30 822 H 75.405 2.55933 -1.55367 0
M  V30 823 H 72.951 1.23019 -0.748484 0
M  V30 824 H 74.904 4.20706 0.241775 0
M  V30 825 H 73.628 3.14381 0.885004 0
M  V30 826 H 72.287 3.45541 -1.22462 0
M  V30 827 H 71.935 4.97692 0.728816 0
M  V30 828 H 71.635 5.81966 -0.811775 0
M  V30 829 H 73.159 6.10553 0.0757473 0
M  V30 830 H 74.573 5.34794 -2.06563 0
M  V30 831 H 72.97 5.279 -2.8538 0
M  V30 832 H 74.04 3.86726 -2.92525 0
M  V30 833 N 75.3831 0.828654 1.34056 0
M  V30 834 C 76.3161 0.199763 2.27324 0
M  V30 835 C 77.2941 -0.647168 1.49166 0
M  V30 836 O 78.4781 -0.609661 1.78369 0
M  V30 837 C 75.6051 -0.720455 3.30949 0
M  V30 838 C 74.6511 0.0496888 4.26471 0
M  V30 839 S 75.4841 1.40072 5.16856 0
M  V30 840 C 76.6401 0.485527 6.24014 0
M  V30 841 H 76.8731 0.990478 2.80316 0
M  V30 842 H 74.4061 0.624857 1.41191 0
M  V30 843 H 76.3641 -1.24581 3.91139 0
M  V30 844 H 75.0251 -1.48474 2.76793 0
M  V30 845 H 74.2181 -0.650104 4.9979 0
M  V30 846 H 73.8201 0.505779 3.70564 0
M  V30 847 H 76.1121 -0.320672 6.76741 0
M  V30 848 H 77.0551 1.18856 6.98054 0
M  V30 849 H 77.4631 0.0714109 5.64455 0
M  V30 850 N 76.8612 -1.46375 0.584142 0
M  V30 851 C 78.1092 -2.01978 0.0701287 0
M  V30 852 C 78.4302 -1.4579 -1.295 0
M  V30 853 O 77.7002 -0.64314 -1.85042 0
M  V30 854 H 76.2802 -0.746648 0.0229345 0
M  V30 855 H 78.9422 -1.79461 0.760245 0
M  V30 856 H 78.0382 -3.121 0.0022064 0
M  V30 857 N 78.3393 -0.321999 -1.54275 0
M  V30 858 C 79.7553 0.0306999 -1.5957 0
M  V30 859 C 79.9553 1.50614 -1.33857 0
M  V30 860 O 79.0113 2.2619 -1.12223 0
M  V30 861 C 80.3243 -0.386122 -2.98211 0
M  V30 862 C 81.8723 -0.336647 -3.11184 0
M  V30 863 C 82.3473 -0.728607 -4.52167 0
M  V30 864 N 83.8383 -0.681952 -4.58152 0
M  V30 865 C 84.5733 -0.957449 -5.6535 0
M  V30 866 N 84.0693 -1.3 -6.80494 0
M  V30 867 N 85.8623 -0.883113 -5.55119 0
M  V30 868 H 78.0133 -1.28332 -1.69247 0
M  V30 869 H 80.2763 -0.521716 -0.791528 0
M  V30 870 H 79.9823 -1.41404 -3.22022 0
M  V30 871 H 79.8563 0.249662 -3.76373 0
M  V30 872 H 82.2433 0.682058 -2.8711 0
M  V30 873 H 82.3243 -1.00734 -2.3513 0
M  V30 874 H 81.9683 -1.74522 -4.76974 0
M  V30 875 H 81.8983 -0.0356152 -5.26588 0
M  V30 876 H 84.3893 -0.428985 -3.75457 0
M  V30 877 H 84.7023 -1.49563 -7.58189 0
M  V30 878 H 83.0473 -1.33824 -6.81994 0
M  V30 879 H 86.2383 -0.615001 -4.64042 0
M  V30 880 H 86.4113 -1.10118 -6.38575 0
M  V30 881 N 79.8174 1.5752 -0.0501392 0
M  V30 882 C 81.0474 1.96678 0.632573 0
M  V30 883 C 81.4554 0.926298 1.64974 0
M  V30 884 O 80.7984 -0.09802 1.83438 0
M  V30 885 C 80.8604 3.32068 1.37735 0
M  V30 886 C 80.5244 4.54076 0.516131 0
M  V30 887 C 81.5214 5.19445 -0.217357 0
M  V30 888 C 79.2064 5.00304 0.44736 0
M  V30 889 C 81.2004 6.29378 -1.00807 0
M  V30 890 C 78.8874 6.10114 -0.347038 0
M  V30 891 C 79.8854 6.74512 -1.07344 0
M  V30 892 O 79.5734 7.82211 -1.85477 0
M  V30 893 H 79.3054 0.652193 0.177821 0
M  V30 894 H 81.8594 2.05091 -0.112543 0
M  V30 895 H 80.0894 3.20206 2.16807 0
M  V30 896 H 81.7784 3.55981 1.95019 0
M  V30 897 H 82.5444 4.84689 -0.173688 0
M  V30 898 H 78.4234 4.49971 1.00235 0
M  V30 899 H 81.9674 6.79575 -1.57556 0
M  V30 900 H 77.8644 6.44307 -0.392349 0
M  V30 901 H 78.6324 7.98982 -1.77678 0
M  V30 902 N 81.2955 -0.223234 1.56011 0
M  V30 903 C 82.2585 -1.26014 1.9145 0
M  V30 904 C 83.2585 -1.3989 0.792937 0
M  V30 905 O 84.4485 -1.38184 1.0607 0
M  V30 906 C 81.5805 -2.63422 2.16383 0
M  V30 907 H 82.7735 -0.95796 2.84189 0
M  V30 908 H 80.3265 -0.463576 1.49267 0
M  V30 909 H 81.0615 -2.98741 1.2619 0
M  V30 910 H 80.8465 -2.54728 2.98088 0
M  V30 911 H 82.3365 -3.38249 2.44903 0
M  V30 912 N 82.7736 -1.49793 -0.48987 0
M  V30 913 C 84.0506 -1.50348 -1.25119 0
M  V30 914 C 84.4306 -0.237466 -2.0976 0
M  V30 915 O 83.7786 0.77981 -2.14782 0
M  V30 916 C 83.9886 -2.78872 -2.09837 0
M  V30 917 C 85.3366 -3.288 -2.68655 0
M  V30 918 O 86.3606 -2.80065 -2.20096 0
M  V30 919 O 85.2196 -4.13707 -3.57083 0
M  V30 920 H 82.3136 -0.602242 -0.566775 0
M  V30 921 H 84.8596 -1.62067 -0.503229 0
M  V30 922 H 83.6316 -3.62499 -1.47343 0
M  V30 923 H 83.2546 -2.70066 -2.91805 0
M  V30 924 N 84.2517 0.741722 -1.39055 0
M  V30 925 C 85.4987 1.50114 -1.35912 0
M  V30 926 C 85.8267 1.94443 0.0470937 0
M  V30 927 O 85.0817 1.66612 1.02659 0
M  V30 928 C 85.3807 2.7592 -2.27163 0
M  V30 929 C 85.0467 2.50493 -3.74919 0
M  V30 930 C 83.7087 2.43267 -4.1518 0
M  V30 931 C 86.0607 2.28585 -4.684 0
M  V30 932 C 83.3887 2.12166 -5.46994 0
M  V30 933 C 85.7407 1.99002 -6.00484 0
M  V30 934 C 84.4047 1.90241 -6.39816 0
M  V30 935 H 83.6747 0.549306 -0.497336 0
M  V30 936 H 86.3217 0.851896 -1.71508 0
M  V30 937 H 84.6267 3.45553 -1.84663 0
M  V30 938 H 86.3237 3.33923 -2.22028 0
M  V30 939 H 82.9137 2.56992 -3.43006 0
M  V30 940 H 87.0977 2.33139 -4.38132 0
M  V30 941 H 82.3537 2.03901 -5.76398 0
M  V30 942 H 86.5277 1.81057 -6.72452 0
M  V30 943 H 84.1547 1.65907 -7.41875 0
M  V30 944 N 85.7298 1.2412 0.971189 0
M  V30 945 C 86.9758 1.09048 1.71698 0
M  V30 946 C 87.3308 -0.367442 1.88859 0
M  V30 947 O 86.6238 -1.26792 1.43646 0
M  V30 948 C 86.8178 1.75983 3.11071 0
M  V30 949 C 86.6468 3.28133 3.07504 0
M  V30 950 C 85.4168 3.97331 3.1218 0
M  V30 951 C 87.6148 4.24773 2.89952 0
M  V30 952 N 85.5968 5.3639 2.98596 0
M  V30 953 C 86.9678 5.50806 2.84627 0
M  V30 954 C 89.0228 4.15392 2.74506 0
M  V30 955 C 87.7258 6.68533 2.65437 0
M  V30 956 C 89.7518 5.32793 2.56682 0
M  V30 957 C 89.1138 6.57756 2.52063 0
M  V30 958 H 85.2128 0.453632 0.636979 0
M  V30 959 H 87.7968 1.56983 1.15171 0
M  V30 960 H 85.9678 1.30566 3.65796 0
M  V30 961 H 87.6998 1.53803 3.74335 0
M  V30 962 H 84.4548 3.48473 3.20724 0
M  V30 963 H 84.8788 6.09321 2.95054 0
M  V30 964 H 89.5208 3.19543 2.76861 0
M  V30 965 H 87.2388 7.64509 2.61825 0
M  V30 966 H 90.8248 5.27383 2.4568 0
M  V30 967 H 89.7048 7.4707 2.38446 0
M  V30 968 N 87.2079 -1.17134 1.05439 0
M  V30 969 C 88.4559 -1.87085 0.764429 0
M  V30 970 C 88.7769 -1.81584 -0.710787 0
M  V30 971 O 88.0469 -1.24349 -1.51374 0
M  V30 972 H 86.6269 -0.692627 0.279779 0
M  V30 973 H 89.2889 -1.42087 1.33406 0
M  V30 974 H 88.3849 -2.92759 1.0816 0
M  V30 975 N 88.686 -0.835752 -1.33615 0
M  V30 976 C 89.932 -0.430596 -1.98176 0
M  V30 977 C 90.265 1.00684 -1.66061 0
M  V30 978 O 89.54 1.70339 -0.938877 0
M  V30 979 C 89.823 -0.648065 -3.5422 0
M  V30 980 C 89.676 -2.13255 -3.96033 0
M  V30 981 C 90.995 -0.0922113 -4.40003 0
M  V30 982 H 88.114 -0.157924 -0.719881 0
M  V30 983 H 90.756 -1.05069 -1.58305 0
M  V30 984 H 88.906 -0.120237 -3.88314 0
M  V30 985 H 90.578 -2.725 -3.72211 0
M  V30 986 H 88.821 -2.61823 -3.45878 0
M  V30 987 H 89.492 -2.23547 -5.04708 0
M  V30 988 H 91.968 -0.543343 -4.12537 0
M  V30 989 H 90.844 -0.274083 -5.48215 0
M  V30 990 H 91.105 1.00378 -4.30554 0
M  V30 991 N 90.1641 1.46063 -0.591896 0
M  V30 992 C 91.3921 2.06717 -0.0868936 0
M  V30 993 C 91.8071 1.43916 1.22203 0
M  V30 994 O 91.1641 0.547698 1.74088 0
M  V30 995 C 91.2151 3.6142 0.0758725 0
M  V30 996 O 90.9361 4.21874 -1.18126 0
M  V30 997 C 92.4371 4.39025 0.61416 0
M  V30 998 H 89.6571 0.668162 -0.0616518 0
M  V30 999 H 92.2011 1.8755 -0.815175 0
M  V30 1000 H 90.3561 3.79983 0.754413 0
M  V30 1001 H 90.7701 5.14861 -1.00092 0
M  V30 1002 H 92.2441 5.4783 0.677193 0
M  V30 1003 H 92.7211 4.07708 1.63312 0
M  V30 1004 H 93.3271 4.2529 -0.0298142 0
M  V30 1005 N 91.6422 0.330177 1.54103 0
M  V30 1006 C 93.0582 -0.0222371 1.59585 0
M  V30 1007 C 93.2582 -1.49902 1.34654 0
M  V30 1008 O 92.3142 -2.25592 1.13421 0
M  V30 1009 C 93.6272 0.401932 2.98002 0
M  V30 1010 C 95.1752 0.353145 3.11001 0
M  V30 1011 C 95.6502 0.752576 4.51775 0
M  V30 1012 N 97.1412 0.706239 4.57784 0
M  V30 1013 C 97.8762 0.987417 5.64834 0
M  V30 1014 N 97.3722 1.33607 6.79795 0
M  V30 1015 N 99.1652 0.91254 5.54643 0
M  V30 1016 H 91.3162 1.29228 1.68564 0
M  V30 1017 H 93.5792 0.525906 0.78875 0
M  V30 1018 H 93.2852 1.4311 3.21267 0
M  V30 1019 H 93.1592 -0.229699 3.765 0
M  V30 1020 H 95.5462 -0.666822 2.87467 0
M  V30 1021 H 95.6272 1.0198 2.34593 0
M  V30 1022 H 95.2712 1.77049 4.76042 0
M  V30 1023 H 95.2012 0.0635409 5.26562 0
M  V30 1024 H 97.6922 0.44889 3.75224 0
M  V30 1025 H 98.0052 1.53582 7.57385 0
M  V30 1026 H 96.3502 1.37439 6.81275 0
M  V30 1027 H 99.5412 0.639601 4.6371 0
M  V30 1028 H 99.7142 1.13503 6.37982 0
M  V30 1029 N 93.1203 -1.57491 0.0584922 0
M  V30 1030 C 94.0303 -2.15448 -0.928414 0
M  V30 1031 C 95.0463 -1.11416 -1.3365 0
M  V30 1032 O 96.2223 -1.4362 -1.41193 0
M  V30 1033 C 93.2873 -2.69393 -2.18239 0
M  V30 1034 C 92.3483 -3.88249 -1.83196 0
M  V30 1035 C 91.5813 -4.39613 -3.02616 0
M  V30 1036 O 91.8043 -3.90023 -4.16219 0
M  V30 1037 O 90.7383 -5.31111 -2.83204 0
M  V30 1038 H 94.5643 -3.00112 -0.465483 0
M  V30 1039 H 92.1493 -1.48499 -0.163826 0
M  V30 1040 H 94.0313 -3.04026 -2.91798 0
M  V30 1041 H 92.7063 -1.87796 -2.63656 0
M  V30 1042 H 91.6133 -3.58492 -1.06931 0
M  V30 1043 H 92.9463 -4.71098 -1.42573 0
M  V30 1044 N 94.5984 0.214957 -1.56127 0
M  V30 1045 C 95.5614 1.24997 -1.92116 0
M  V30 1046 C 96.5614 1.39467 -0.800344 0
M  V30 1047 O 97.7514 1.37619 -1.06802 0
M  V30 1048 C 94.8834 2.62271 -2.17777 0
M  V30 1049 H 96.0764 0.942875 -2.84693 0
M  V30 1050 H 93.6294 0.455654 -1.49511 0
M  V30 1051 H 94.3644 2.98068 -1.27773 0
M  V30 1052 H 94.1494 2.53143 -2.99434 0
M  V30 1053 H 95.6394 3.36946 -2.46693 0
M  V30 1054 N 96.0765 1.50051 0.48192 0
M  V30 1055 C 97.0065 1.71046 1.58951 0
M  V30 1056 C 97.9875 0.559288 1.60642 0
M  V30 1057 O 99.1725 0.797243 1.77081 0
M  V30 1058 C 96.3025 1.79462 2.97339 0
M  V30 1059 C 95.2565 2.94558 3.10515 0
M  V30 1060 C 94.5825 2.88105 4.50444 0
M  V30 1061 C 95.8825 4.35227 2.88747 0
M  V30 1062 H 97.5765 2.6378 1.41635 0
M  V30 1063 H 95.1225 1.26936 0.679942 0
M  V30 1064 H 97.0755 1.92734 3.74742 0
M  V30 1065 H 95.7995 0.833412 3.15788 0
M  V30 1066 H 94.4585 2.80918 2.35543 0
M  V30 1067 H 94.1065 1.89853 4.65795 0
M  V30 1068 H 93.8065 3.65366 4.60197 0
M  V30 1069 H 95.3305 3.03412 5.29881 0
M  V30 1070 H 96.7445 4.49449 3.55905 0
M  V30 1071 H 95.1415 5.13856 3.09955 0
M  V30 1072 H 96.2115 4.48347 1.84696 0
M  V30 1073 N 97.5546 -0.734337 1.39446 0
M  V30 1074 C 98.5176 -1.83004 1.37994 0
M  V30 1075 C 99.5176 -1.58397 0.276938 0
M  V30 1076 O 100.708 -1.65785 0.534875 0
M  V30 1077 C 97.8396 -3.20802 1.1532 0
M  V30 1078 H 99.0326 -1.85694 2.35494 0
M  V30 1079 H 96.5856 -0.938059 1.25021 0
M  V30 1080 H 97.3206 -3.23772 0.185036 0
M  V30 1081 H 97.1056 -3.4006 1.95197 0
M  V30 1082 H 98.5956 -4.00862 1.17046 0
M  V30 1083 N 99.0327 -1.24633 -0.964593 0
M  V30 1084 C 100.263 -1.11339 -1.74032 0
M  V30 1085 C 100.671 0.336593 -1.86182 0
M  V30 1086 O 100.014 1.24389 -1.35178 0
M  V30 1087 C 100.076 -1.68284 -3.1768 0
M  V30 1088 C 99.7397 -3.17196 -3.28992 0
M  V30 1089 C 100.737 -4.14308 -3.14078 0
M  V30 1090 C 98.4217 -3.57215 -3.53133 0
M  V30 1091 C 100.416 -5.4942 -3.23135 0
M  V30 1092 C 98.1027 -4.92468 -3.61827 0
M  V30 1093 C 99.1007 -5.8838 -3.46841 0
M  V30 1094 O 98.7887 -7.21173 -3.55197 0
M  V30 1095 H 98.5207 -0.389551 -0.552472 0
M  V30 1096 H 101.075 -1.65282 -1.21946 0
M  V30 1097 H 99.3047 -1.08777 -3.71085 0
M  V30 1098 H 100.994 -1.50234 -3.77074 0
M  V30 1099 H 101.76 -3.84731 -2.95308 0
M  V30 1100 H 97.6387 -2.83063 -3.63863 0
M  V30 1101 H 101.183 -6.24263 -3.11355 0
M  V30 1102 H 97.0797 -5.21714 -3.80111 0
M  V30 1103 H 97.8477 -7.29135 -3.71892 0
M  V30 1104 N 100.511 1.16574 -1.06058 0
M  V30 1105 C 101.739 1.90952 -0.796552 0
M  V30 1106 C 102.154 1.77302 0.648808 0
M  V30 1107 O 101.511 1.11605 1.44397 0
M  V30 1108 C 101.562 3.41736 -1.17894 0
M  V30 1109 O 101.283 3.54975 -2.56758 0
M  V30 1110 C 102.784 4.33169 -0.942308 0
M  V30 1111 H 100.004 0.605594 -0.288959 0
M  V30 1112 H 102.548 1.47777 -1.41358 0
M  V30 1113 H 100.703 3.82623 -0.606491 0
M  V30 1114 H 101.117 4.4846 -2.72 0
M  V30 1115 H 102.591 5.37439 -1.25952 0
M  V30 1116 H 103.068 4.3903 0.122078 0
M  V30 1117 H 103.674 3.98007 -1.49902 0
M  V30 1118 N 101.989 0.842826 1.3317 0
M  V30 1119 C 102.919 0.294028 2.31641 0
M  V30 1120 C 103.9 -0.600401 1.59151 0
M  V30 1121 O 105.085 -0.523124 1.87022 0
M  V30 1122 C 102.215 -0.528416 3.43257 0
M  V30 1123 C 101.169 0.27056 4.27144 0
M  V30 1124 C 100.495 -0.675881 5.30411 0
M  V30 1125 C 101.795 1.48981 5.00602 0
M  V30 1126 H 103.489 1.11681 2.77791 0
M  V30 1127 H 101.035 0.538478 1.33553 0
M  V30 1128 H 102.988 -0.922674 4.11175 0
M  V30 1129 H 101.712 -1.38445 2.95805 0
M  V30 1130 H 100.371 0.646427 3.60856 0
M  V30 1131 H 100.019 -1.52842 4.79216 0
M  V30 1132 H 99.7189 -0.145374 5.8742 0
M  V30 1133 H 101.243 -1.06757 6.01195 0
M  V30 1134 H 102.657 1.16849 5.61266 0
M  V30 1135 H 101.054 1.95739 5.6728 0
M  V30 1136 H 102.124 2.25746 4.29147 0
M  V30 1137 N 103.467 -1.45747 0.599634 0
M  V30 1138 C 104.715 -2.01893 0.0915472 0
M  V30 1139 C 105.036 -1.47155 -1.27946 0
M  V30 1140 O 104.306 -0.66273 -1.84349 0
M  V30 1141 H 102.886 -0.746363 0.0308524 0
M  V30 1142 H 105.548 -1.78645 0.779237 0
M  V30 1143 H 104.644 -3.1208 0.0353086 0
M  V30 1144 N 104.945 -0.338344 -1.53925 0
M  V30 1145 C 106.173 0.261298 -2.05243 0
M  V30 1146 C 106.588 1.44625 -1.21363 0
M  V30 1147 O 105.945 1.80811 -0.247736 0
M  V30 1148 C 105.996 0.681412 -3.5502 0
M  V30 1149 O 105.717 -0.456414 -4.35716 0
M  V30 1150 C 107.218 1.34232 -4.22489 0
M  V30 1151 H 104.438 0.0513685 -0.669031 0
M  V30 1152 H 106.982 -0.488822 -1.98572 0
M  V30 1153 H 105.137 1.38148 -3.61931 0
M  V30 1154 H 105.551 -0.122564 -5.24357 0
M  V30 1155 H 107.025 1.58708 -5.28693 0
M  V30 1156 H 107.502 2.29426 -3.74514 0
M  V30 1157 H 108.108 0.684424 -4.19757 0
M  V30 1158 N 106.423 1.57458 -0.0668435 0
M  V30 1159 C 107.353 2.15468 0.899764 0
M  V30 1160 C 108.334 1.08042 1.31381 0
M  V30 1161 O 109.519 1.36054 1.38574 0
M  V30 1162 C 106.649 2.71232 2.16911 0
M  V30 1163 C 105.603 3.83781 1.89463 0
M  V30 1164 C 104.929 4.26127 3.22986 0
M  V30 1165 C 106.229 5.08238 1.20381 0
M  V30 1166 H 107.923 2.96488 0.416529 0
M  V30 1167 H 105.469 1.4262 0.198908 0
M  V30 1168 H 107.422 3.10458 2.84945 0
M  V30 1169 H 106.146 1.87426 2.67468 0
M  V30 1170 H 104.805 3.45051 1.23836 0
M  V30 1171 H 104.453 3.39249 3.71374 0
M  V30 1172 H 104.153 5.01993 3.05413 0
M  V30 1173 H 105.677 4.67966 3.92225 0
M  V30 1174 H 107.091 5.44811 1.78475 0
M  V30 1175 H 105.488 5.89349 1.13083 0
M  V30 1176 H 106.558 4.84558 0.182153 0
M  V30 1177 N 107.901 -0.206675 1.56239 0
M  V30 1178 C 109.149 -0.927007 1.79586 0
M  V30 1179 C 109.47 -1.8427 0.637929 0
M  V30 1180 O 108.74 -1.92849 -0.344398 0
M  V30 1181 H 107.32 -0.345292 0.662407 0
M  V30 1182 H 109.982 -0.21496 1.93711 0
M  V30 1183 H 109.078 -1.52501 2.72305 0
M  V30 1184 N 109.379 -1.50304 -0.473955 0
M  V30 1185 C 110.309 -1.71886 -1.58042 0
M  V30 1186 C 111.29 -0.567799 -1.60344 0
M  V30 1187 O 112.475 -0.806623 -1.76656 0
M  V30 1188 C 109.605 -1.81036 -2.96384 0
M  V30 1189 C 108.559 -2.962 -3.08949 0
M  V30 1190 C 107.885 -2.9049 -4.48909 0
M  V30 1191 C 109.185 -4.36752 -2.86434 0
M  V30 1192 H 110.879 -2.64527 -1.40234 0
M  V30 1193 H 108.425 -1.27295 -0.673201 0
M  V30 1194 H 110.378 -1.94719 -3.73714 0
M  V30 1195 H 109.102 -0.850147 -3.15341 0
M  V30 1196 H 107.761 -2.82164 -2.3405 0
M  V30 1197 H 107.409 -1.92321 -4.64781 0
M  V30 1198 H 107.109 -3.67802 -4.58253 0
M  V30 1199 H 108.633 -3.06218 -5.28264 0
M  V30 1200 H 110.047 -4.5133 -3.53517 0
M  V30 1201 H 108.444 -5.15493 -3.07225 0
M  V30 1202 H 109.514 -4.49321 -1.82316 0
M  V30 1203 N 110.857 0.726932 -1.39834 0
M  V30 1204 C 111.767 1.87131 -1.41489 0
M  V30 1205 C 112.783 1.71239 -0.308757 0
M  V30 1206 O 113.959 1.93701 -0.551529 0
M  V30 1207 C 111.024 3.22811 -1.26468 0
M  V30 1208 C 110.085 3.51039 -2.47124 0
M  V30 1209 C 109.318 4.80245 -2.3281 0
M  V30 1210 O 109.541 5.54537 -1.33585 0
M  V30 1211 O 108.475 5.08554 -3.21957 0
M  V30 1212 H 112.301 1.8869 -2.3797 0
M  V30 1213 H 109.886 0.875837 -1.21035 0
M  V30 1214 H 111.768 4.03877 -1.20255 0
M  V30 1215 H 110.443 3.22005 -0.330862 0
M  V30 1216 H 109.35 2.70027 -2.58914 0
M  V30 1217 H 110.683 3.56632 -3.39227 0
M  V30 1218 N 112.336 1.25143 0.95797 0
M  V30 1219 C 113.747 1.08851 1.51685 0
M  V30 1220 C 114.098 -0.33687 1.93286 0
M  V30 1221 O 113.223 -1.22644 1.7829 0
M  V30 1222 C 113.818 1.96978 2.75654 0
M  V30 1223 C 112.377 1.84881 3.27866 0
M  V30 1224 C 111.524 1.91329 2.0072 0
M  V30 1225 H 114.475 1.38478 0.77522 0
M  V30 1226 H 114.496 1.5078 3.4935 0
M  V30 1227 H 114.008 3.00712 2.45345 0
M  V30 1228 H 112.109 0.840182 3.63004 0
M  V30 1229 H 112.222 2.6951 3.96107 0
M  V30 1230 H 110.586 1.35174 2.15871 0
M  V30 1231 H 111.369 2.96661 1.72764 0
M  V30 1232 N 113.814 -1.1601 1.06675 0
M  V30 1233 C 115.091 -1.82679 0.699114 0
M  V30 1234 C 115.471 -1.94559 -0.819137 0
M  V30 1235 O 114.819 -1.49169 -1.73092 0
M  V30 1236 C 115.029 -3.19445 1.40555 0
M  V30 1237 C 116.377 -3.95171 1.55323 0
M  V30 1238 O 117.401 -3.28976 1.36577 0
M  V30 1239 O 116.26 -5.13833 1.86112 0
M  V30 1240 H 113.354 -0.788954 0.247951 0
M  V30 1241 H 115.9 -1.23179 1.16726 0
M  V30 1242 H 114.672 -3.05856 2.44065 0
M  V30 1243 H 114.295 -3.86625 0.927733 0
M  V30 1244 N 115.292 -0.849877 -1.32721 0
M  V30 1245 C 116.202 -0.293791 -2.32753 0
M  V30 1246 C 117.218 0.585906 -1.63839 0
M  V30 1247 O 118.394 0.487413 -1.95413 0
M  V30 1248 C 115.459 0.512752 -3.42887 0
M  V30 1249 C 114.52 -0.39252 -4.27502 0
M  V30 1250 C 113.753 0.375625 -5.32377 0
M  V30 1251 O 113.976 1.60613 -5.4732 0
M  V30 1252 O 112.91 -0.256094 -6.01355 0
M  V30 1253 H 116.736 -1.12242 -2.82197 0
M  V30 1254 H 114.321 -0.612685 -1.36259 0
M  V30 1255 H 116.203 0.970704 -4.10067 0
M  V30 1256 H 114.878 1.31826 -2.95641 0
M  V30 1257 H 113.785 -0.898547 -3.63149 0
M  V30 1258 H 115.118 -1.16309 -4.7826 0
M  V30 1259 N 116.77 1.45427 -0.607355 0
M  V30 1260 C 117.995 2.07124 -0.107006 0
M  V30 1261 C 118.42 1.44906 1.19933 0
M  V30 1262 O 117.778 0.541687 1.73019 0
M  V30 1263 C 117.826 3.60595 0.0194119 0
M  V30 1264 O 116.93 3.98285 1.0697 0
M  V30 1265 H 116.271 0.659868 -0.0739597 0
M  V30 1266 H 118.801 1.86683 -0.837297 0
M  V30 1267 H 118.811 4.07419 0.2177 0
M  V30 1268 H 117.486 4.05266 -0.934453 0
M  V30 1269 H 116.063 3.63133 0.847889 0
M  V30 1270 N 118.248 0.346503 1.53744 0
M  V30 1271 C 119.495 -0.249104 2.00962 0
M  V30 1272 C 119.823 -1.5032 1.23426 0
M  V30 1273 O 119.078 -1.93217 0.310761 0
M  V30 1274 C 119.377 -0.605809 3.52228 0
M  V30 1275 C 119.043 0.551747 4.47512 0
M  V30 1276 C 117.705 0.86941 4.73281 0
M  V30 1277 C 120.057 1.32818 5.03993 0
M  V30 1278 C 117.385 1.96582 5.52786 0
M  V30 1279 C 119.737 2.41486 5.84694 0
M  V30 1280 C 118.401 2.73808 6.08757 0
M  V30 1281 H 117.671 -0.0911538 0.735372 0
M  V30 1282 H 120.318 0.475027 1.85515 0
M  V30 1283 H 118.623 -1.4107 3.65522 0
M  V30 1284 H 120.32 -1.07858 3.86222 0
M  V30 1285 H 116.91 0.294102 4.2759 0
M  V30 1286 H 121.094 1.09602 4.84047 0
M  V30 1287 H 116.35 2.22045 5.69654 0
M  V30 1288 H 120.524 3.02078 6.27473 0
M  V30 1289 H 118.151 3.58892 6.7015 0
M  V30 1290 N 119.726 -1.57421 0.075193 0
M  V30 1291 C 120.656 -2.15942 -0.888324 0
M  V30 1292 C 121.637 -1.08737 -1.30806 0
M  V30 1293 O 122.822 -1.36787 -1.37851 0
M  V30 1294 C 119.952 -2.72379 -2.1547 0
M  V30 1295 C 118.906 -3.8478 -1.87425 0
M  V30 1296 C 118.232 -4.27834 -3.20721 0
M  V30 1297 C 119.532 -5.08869 -1.17684 0
M  V30 1298 H 121.226 -2.96705 -0.400799 0
M  V30 1299 H 118.772 -1.42723 -0.191342 0
M  V30 1300 H 120.725 -3.11965 -2.83295 0
M  V30 1301 H 119.449 -1.88841 -2.6647 0
M  V30 1302 H 118.108 -3.45703 -1.22004 0
M  V30 1303 H 117.756 -3.41214 -3.6957 0
M  V30 1304 H 117.456 -5.03605 -3.02746 0
M  V30 1305 H 118.98 -4.70039 -3.89738 0
M  V30 1306 H 120.394 -5.4575 -1.75584 0
M  V30 1307 H 118.791 -5.8994 -1.09956 0
M  V30 1308 H 119.861 -4.84648 -0.156453 0
M  V30 1309 N 121.204 0.198386 -1.56346 0
M  V30 1310 C 122.167 1.22952 -1.93431 0
M  V30 1311 C 123.167 1.38611 -0.815092 0
M  V30 1312 O 124.357 1.36479 -1.08255 0
M  V30 1313 C 121.489 2.59946 -2.20546 0
M  V30 1314 H 122.682 0.912626 -2.85677 0
M  V30 1315 H 120.235 0.43977 -1.49986 0
M  V30 1316 H 120.97 2.96696 -1.30927 0
M  V30 1317 H 120.755 2.49953 -3.02102 0
M  V30 1318 H 122.245 3.3431 -2.50253 0
M  V30 1319 N 122.682 1.50554 0.465978 0
M  V30 1320 C 123.959 1.5232 1.22712 0
M  V30 1321 C 124.339 0.270807 2.09356 0
M  V30 1322 O 123.687 -0.745541 2.15995 0
M  V30 1323 C 123.897 2.82175 2.05374 0
M  V30 1324 C 125.245 3.33033 2.6339 0
M  V30 1325 O 126.269 2.83531 2.15612 0
M  V30 1326 O 125.128 4.19336 3.50456 0
M  V30 1327 H 122.222 0.611183 0.557122 0
M  V30 1328 H 124.768 1.62847 0.477381 0
M  V30 1329 H 123.54 3.64797 1.41558 0
M  V30 1330 H 123.163 2.74675 2.87471 0
M  V30 1331 N 124.16 -0.719506 1.40217 0
M  V30 1332 C 125.093 -1.84298 1.34571 0
M  V30 1333 C 126.071 -1.61149 0.216741 0
M  V30 1334 O 127.255 -1.84212 0.399756 0
M  V30 1335 C 124.382 -3.20568 1.09335 0
M  V30 1336 C 123.428 -3.62551 2.24631 0
M  V30 1337 S 124.261 -3.7012 3.87004 0
M  V30 1338 C 125.417 -5.09154 3.64024 0
M  V30 1339 H 125.65 -1.88807 2.2965 0
M  V30 1340 H 123.183 -0.885901 1.26456 0
M  V30 1341 H 125.141 -3.99246 0.954602 0
M  V30 1342 H 123.802 -3.13696 0.159164 0
M  V30 1343 H 122.995 -4.61483 2.02606 0
M  V30 1344 H 122.597 -2.91119 2.34789 0
M  V30 1345 H 124.889 -5.95955 3.22248 0
M  V30 1346 H 125.832 -5.36213 4.62473 0
M  V30 1347 H 126.24 -4.79562 2.97793 0
M  V30 1348 N 125.638 -1.25649 -0.95132 0
M  V30 1349 C 126.601 -1.06399 -2.03007 0
M  V30 1350 C 127.601 -0.0156794 -1.60792 0
M  V30 1351 O 128.791 -0.25817 -1.72276 0
M  V30 1352 C 125.923 -0.616184 -3.35285 0
M  V30 1353 H 127.116 -2.02164 -2.21517 0
M  V30 1354 H 124.669 -1.08103 -1.12887 0
M  V30 1355 H 125.404 0.343917 -3.22471 0
M  V30 1356 H 125.189 -1.37301 -3.67275 0
M  V30 1357 H 126.679 -0.503032 -4.14559 0
M  V30 1358 N 127.117 1.15442 -1.07289 0
M  V30 1359 C 128.049 2.19773 -0.650585 0
M  V30 1360 C 129.062 1.60076 0.296572 0
M  V30 1361 O 130.251 1.78293 0.0859905 0
M  V30 1362 C 127.351 3.38838 0.0650398 0
M  V30 1363 C 126.524 4.2808 -0.898141 0
M  V30 1364 C 125.583 5.2574 -0.219926 0
M  V30 1365 O 124.609 5.62654 -0.860773 0
M  V30 1366 N 125.811 5.71205 1.03466 0
M  V30 1367 H 128.576 2.56622 -1.54808 0
M  V30 1368 H 126.137 1.30551 -0.957494 0
M  V30 1369 H 128.129 4.01222 0.529415 0
M  V30 1370 H 126.699 3.00409 0.864466 0
M  V30 1371 H 125.919 3.62804 -1.54165 0
M  V30 1372 H 127.207 4.84577 -1.5512 0
M  V30 1373 H 126.605 5.43325 1.57526 0
M  V30 1374 H 125.162 6.35633 1.44272 0
M  V30 1375 N 128.595 0.856903 1.32268 0
M  V30 1376 C 129.558 0.308171 2.27119 0
M  V30 1377 C 130.558 -0.533421 1.51695 0
M  V30 1378 O 131.748 -0.344607 1.70757 0
M  V30 1379 C 128.88 -0.563757 3.36206 0
M  V30 1380 H 130.073 1.14535 2.77167 0
M  V30 1381 H 127.626 0.631421 1.42978 0
M  V30 1382 H 128.361 -1.42266 2.91429 0
M  V30 1383 H 128.146 0.0386749 3.92081 0
M  V30 1384 H 129.636 -0.940386 4.06874 0
M  V30 1385 N 130.073 -1.45103 0.615059 0
M  V30 1386 C 131.303 -2.06254 0.119596 0
M  V30 1387 C 131.711 -1.4591 -1.20445 0
M  V30 1388 O 131.054 -0.570384 -1.7462 0
M  V30 1389 C 131.116 -3.59396 -0.0865591 0
M  V30 1390 C 130.78 -4.42116 1.15683 0
M  V30 1391 C 131.777 -4.7662 2.07676 0
M  V30 1392 C 129.462 -4.82749 1.38775 0
M  V30 1393 C 131.456 -5.50622 3.21082 0
M  V30 1394 C 129.143 -5.56504 2.52481 0
M  V30 1395 C 130.141 -5.90358 3.43463 0
M  V30 1396 O 129.829 -6.62615 4.55189 0
M  V30 1397 H 129.561 -0.672423 0.0694512 0
M  V30 1398 H 132.115 -1.87219 0.844885 0
M  V30 1399 H 130.345 -3.76859 -0.866823 0
M  V30 1400 H 132.034 -4.02365 -0.534555 0
M  V30 1401 H 132.8 -4.4578 1.91063 0
M  V30 1402 H 128.679 -4.55829 0.688545 0
M  V30 1403 H 132.223 -5.76965 3.92119 0
M  V30 1404 H 128.12 -5.86759 2.69043 0
M  V30 1405 H 128.888 -6.81071 4.53966 0
M  V30 1406 N 131.551 -0.354651 -1.53558 0
M  V30 1407 C 132.499 0.512195 -2.26891 0
M  V30 1408 C 133.493 1.09263 -1.29452 0
M  V30 1409 O 134.699 1.03709 -1.47121 0
M  V30 1410 H 131.074 0.183878 -0.729173 0
M  V30 1411 H 133.045 -0.128202 -2.98124 0
M  V30 1412 C 131.794 1.64563 -3.06291 0
M  V30 1413 H 131.117 1.20829 -3.81104 0
M  V30 1414 H 132.557 2.22711 -3.60799 0
M  V30 1415 C 131.016 2.58158 -2.16462 0
M  V30 1416 O 131.546 3.60695 -1.76811 0
M  V30 1417 N 129.752 2.27096 -1.81317 0
M  V30 1418 H 129.299 1.43751 -2.1376 0
M  V30 1419 H 129.257 2.89975 -1.21498 0
M  V30 1420 N 133.029 1.57378 -0.0835403 0
M  V30 1421 C 134.445 1.57246 0.273109 0
M  V30 1422 C 134.645 1.09385 1.69225 0
M  V30 1423 O 133.701 0.765051 2.40631 0
M  V30 1424 C 135.014 3.00614 0.0720628 0
M  V30 1425 C 136.562 3.12684 0.1407 0
M  V30 1426 C 137.037 4.57989 -0.0322094 0
M  V30 1427 N 138.528 4.63194 0.0230085 0
M  V30 1428 C 139.263 5.73335 -0.0861941 0
M  V30 1429 N 138.759 6.9235 -0.24958 0
M  V30 1430 N 140.552 5.62093 -0.0282886 0
M  V30 1431 H 132.703 1.86801 -1.0109 0
M  V30 1432 H 134.966 0.861687 -0.395222 0
M  V30 1433 H 134.672 3.39786 -0.907662 0
M  V30 1434 H 134.546 3.68193 0.81936 0
M  V30 1435 H 136.933 2.73391 1.11092 0
M  V30 1436 H 137.014 2.47719 -0.637896 0
M  V30 1437 H 136.658 4.97973 -0.999247 0
M  V30 1438 H 136.588 5.21 0.765937 0
M  V30 1439 H 139.079 3.77613 0.14722 0
M  V30 1440 H 139.392 7.72117 -0.324733 0
M  V30 1441 H 137.737 6.94415 -0.285097 0
M  V30 1442 H 140.928 4.67997 0.0981408 0
M  V30 1443 H 141.101 6.47895 -0.116845 0
M  V30 1444 N 134.507 -0.190092 1.56449 0
M  V30 1445 C 135.437 -1.23816 1.97969 0
M  V30 1446 C 136.418 -1.47201 0.852395 0
M  V30 1447 O 137.603 -1.58854 1.1171 0
M  V30 1448 C 134.733 -2.5813 2.3235 0
M  V30 1449 C 133.687 -2.49348 3.47864 0
M  V30 1450 C 133.013 -3.8798 3.67934 0
M  V30 1451 C 134.313 -2.01424 4.81898 0
M  V30 1452 H 136.007 -0.89311 2.85769 0
M  V30 1453 H 133.553 -0.428177 1.37487 0
M  V30 1454 H 135.506 -3.31637 2.59991 0
M  V30 1455 H 134.23 -2.94386 1.41438 0
M  V30 1456 H 132.889 -1.78297 3.20321 0
M  V30 1457 H 132.537 -4.21597 2.74344 0
M  V30 1458 H 132.237 -3.82978 4.45648 0
M  V30 1459 H 133.761 -4.63101 3.97957 0
M  V30 1460 H 135.175 -2.64693 5.08538 0
M  V30 1461 H 133.572 -2.07413 5.63116 0
M  V30 1462 H 134.642 -0.967677 4.75146 0
M  V30 1463 N 135.985 -1.50799 -0.457987 0
M  V30 1464 C 137.213 -1.66218 -1.23203 0
M  V30 1465 C 137.628 -0.350894 -1.85511 0
M  V30 1466 O 136.985 0.668546 -1.69814 0
M  V30 1467 C 137.036 -2.76291 -2.33121 0
M  V30 1468 O 136.757 -4.02338 -1.73366 0
M  V30 1469 C 138.258 -3.028 -3.2377 0
M  V30 1470 H 135.478 -0.558361 -0.372121 0
M  V30 1471 H 138.022 -1.97099 -0.545179 0
M  V30 1472 H 136.177 -2.48068 -2.97558 0
M  V30 1473 H 136.591 -4.63312 -2.4585 0
M  V30 1474 H 138.065 -3.8345 -3.97077 0
M  V30 1475 H 138.542 -2.14385 -3.83322 0
M  V30 1476 H 139.148 -3.32604 -2.65056 0
M  V30 1477 N 137.463 0.71206 -1.40597 0
M  V30 1478 C 138.874 1.29135 -1.34837 0
M  V30 1479 C 139.225 1.96186 -0.0235395 0
M  V30 1480 O 138.35 1.97768 0.878444 0
M  V30 1481 C 138.945 2.34827 -2.44217 0
M  V30 1482 C 137.504 2.88371 -2.41907 0
M  V30 1483 C 136.651 1.62202 -2.24913 0
M  V30 1484 H 139.602 0.507944 -1.50352 0
M  V30 1485 H 139.623 3.15749 -2.12327 0
M  V30 1486 H 139.135 1.85996 -3.40627 0
M  V30 1487 H 137.236 3.41422 -1.49204 0
M  V30 1488 H 137.349 3.39925 -3.37621 0
M  V30 1489 H 135.713 1.874 -1.72492 0
M  V30 1490 H 136.496 1.15391 -3.23326 0
M  V30 1491 N 138.941 1.26152 0.944643 0
M  V30 1492 C 140.171 1.14094 1.72239 0
M  V30 1493 C 140.579 -0.306931 1.86694 0
M  V30 1494 O 139.922 -1.22222 1.3714 0
M  V30 1495 C 139.984 1.73316 3.14963 0
M  V30 1496 C 139.648 3.2239 3.23904 0
M  V30 1497 C 140.645 4.19252 3.07447 0
M  V30 1498 C 138.33 3.62788 3.47405 0
M  V30 1499 C 140.324 5.54491 3.14353 0
M  V30 1500 C 138.011 4.98162 3.53947 0
M  V30 1501 C 139.009 5.93823 3.37436 0
M  V30 1502 O 138.697 7.26732 3.43679 0
M  V30 1503 H 138.429 0.398292 0.546205 0
M  V30 1504 H 140.983 1.67201 1.19301 0
M  V30 1505 H 139.213 1.14667 3.69308 0
M  V30 1506 H 140.902 1.56214 3.74636 0
M  V30 1507 H 141.668 3.8938 2.8915 0
M  V30 1508 H 137.547 2.88816 3.59313 0
M  V30 1509 H 141.091 6.29137 3.01384 0
M  V30 1510 H 136.988 5.27695 3.71763 0
M  V30 1511 H 137.756 7.3496 3.60245 0
M  V30 1512 N 140.419 -1.14872 1.07899 0
M  V30 1513 C 141.83 -1.67367 0.827363 0
M  V30 1514 C 142.181 -1.85236 -0.646693 0
M  V30 1515 O 141.306 -1.55974 -1.50004 0
M  V30 1516 C 141.901 -3.04016 1.49532 0
M  V30 1517 C 140.46 -3.53566 1.29106 0
M  V30 1518 C 139.607 -2.29161 1.56143 0
M  V30 1519 H 142.558 -0.990083 1.24028 0
M  V30 1520 H 142.579 -3.69219 0.919643 0
M  V30 1521 H 142.091 -2.90978 2.56814 0
M  V30 1522 H 140.192 -3.71835 0.238713 0
M  V30 1523 H 140.305 -4.34661 2.01511 0
M  V30 1524 H 138.669 -2.34978 0.982717 0
M  V30 1525 H 139.452 -2.18705 2.64619 0
M  V30 1526 N 141.898 -0.863906 -1.31812 0
M  V30 1527 C 143.175 -0.39275 -1.91616 0
M  V30 1528 C 143.555 1.12461 -1.7865 0
M  V30 1529 O 142.903 1.95045 -1.19037 0
M  V30 1530 C 143.113 -0.867385 -3.38049 0
M  V30 1531 C 144.461 -0.889966 -4.15168 0
M  V30 1532 O 145.485 -0.812635 -3.46806 0
M  V30 1533 O 144.344 -1.00079 -5.37258 0
M  V30 1534 H 141.438 -0.116358 -0.818773 0
M  V30 1535 H 143.984 -0.951418 -1.40521 0
M  V30 1536 H 142.756 -1.91081 -3.41473 0
M  V30 1537 H 142.379 -0.286687 -3.96565 0
M  V30 1538 N 143.376 1.44774 -0.622745 0
M  V30 1539 C 144.339 2.29069 0.0774015 0
M  V30 1540 C 145.339 1.4059 0.780461 0
M  V30 1541 O 146.529 1.62551 0.626322 0
M  V30 1542 C 143.661 3.21974 1.12006 0
M  V30 1543 H 144.854 2.92459 -0.663901 0
M  V30 1544 H 142.407 1.51548 -0.382486 0
M  V30 1545 H 143.142 2.63417 1.89162 0
M  V30 1546 H 142.927 3.87168 0.619951 0
M  V30 1547 H 144.417 3.85318 1.60995 0
M  V30 1548 N 144.854 0.36279 1.53368 0
M  V30 1549 C 145.817 -0.472679 2.24273 0
M  V30 1550 C 146.817 -1.012 1.24961 0
M  V30 1551 O 148.007 -0.898194 1.49259 0
M  V30 1552 C 145.139 -1.66039 2.97731 0
M  V30 1553 H 146.332 0.14773 2.99536 0
M  V30 1554 H 143.885 0.114434 1.55881 0
M  V30 1555 H 144.62 -2.31896 2.26704 0
M  V30 1556 H 144.405 -1.28066 3.70596 0
M  V30 1557 H 145.895 -2.25252 3.51641 0
M  V30 1558 N 146.332 -1.57332 0.0918853 0
M  V30 1559 C 147.264 -2.10869 -0.898168 0
M  V30 1560 C 148.277 -1.04521 -1.24817 0
M  V30 1561 O 149.466 -1.31977 -1.20184 0
M  V30 1562 C 146.566 -2.57083 -2.2082 0
M  V30 1563 C 145.739 -3.87229 -2.03402 0
M  V30 1564 C 144.798 -4.19324 -3.17889 0
M  V30 1565 O 143.824 -4.88598 -2.91994 0
M  V30 1566 N 145.026 -3.74471 -4.43567 0
M  V30 1567 H 147.791 -2.96439 -0.440943 0
M  V30 1568 H 145.352 -1.61631 -0.0933064 0
M  V30 1569 H 147.344 -2.75602 -2.96354 0
M  V30 1570 H 145.914 -1.76541 -2.57977 0
M  V30 1571 H 145.134 -3.7789 -1.12218 0
M  V30 1572 H 146.422 -4.72379 -1.89038 0
M  V30 1573 H 145.82 -3.18546 -4.67488 0
M  V30 1574 H 144.377 -3.98151 -5.16061 0
M  V30 1575 N 147.81 0.181792 -1.56548 0
M  V30 1576 C 149.05 0.906711 -1.83189 0
M  V30 1577 C 149.414 1.79882 -0.671312 0
M  V30 1578 O 150.615 2.56054 -0.81792 0
M  V30 1579 C 148.886 1.69023 -3.14906 0
M  V30 1580 S 150.445 2.46535 -3.62996 0
M  V30 1581 H 147.263 0.303877 -0.642791 0
M  V30 1582 H 149.865 0.169107 -1.94767 0
M  V30 1583 H 148.569 1.02571 -3.97376 0
M  V30 1584 H 148.1 2.46941 -3.06241 0
M  V30 1585 H 150.115 3.71014 -3.29489 0
M  V30 1586 N 149.288 1.51039 0.449983 0
M  V30 1587 C 150.218 1.74379 1.55288 0
M  V30 1588 C 151.199 0.593236 1.5942 0
M  V30 1589 O 152.384 0.834625 1.7535 0
M  V30 1590 C 149.514 1.85728 2.93466 0
M  V30 1591 C 148.468 3.01078 3.04197 0
M  V30 1592 C 147.794 2.97595 4.44231 0
M  V30 1593 C 149.094 4.41254 2.7945 0
M  V30 1594 H 150.788 2.66725 1.36008 0
M  V30 1595 H 148.334 1.2835 0.652864 0
M  V30 1596 H 150.287 2.0064 3.70569 0
M  V30 1597 H 149.011 0.900207 3.13949 0
M  V30 1598 H 147.67 2.85851 2.29531 0
M  V30 1599 H 147.318 1.99691 4.61663 0
M  V30 1600 H 147.018 3.75046 4.52343 0
M  V30 1601 H 148.542 3.14583 5.23326 0
M  V30 1602 H 149.956 4.56897 3.46292 0
M  V30 1603 H 148.353 5.20315 2.98985 0
M  V30 1604 H 149.423 4.52164 1.75144 0
M  V30 1605 N 150.766 -0.704594 1.40972 0
M  V30 1606 C 151.729 -1.80035 1.41845 0
M  V30 1607 C 152.729 -1.57774 0.310474 0
M  V30 1608 O 153.919 -1.64613 0.56992 0
M  V30 1609 C 151.051 -3.18284 1.22098 0
M  V30 1610 H 152.244 -1.80658 2.3938 0
M  V30 1611 H 149.797 -0.911329 1.26982 0
M  V30 1612 H 150.532 -3.23306 0.253672 0
M  V30 1613 H 150.317 -3.35843 2.02366 0
M  V30 1614 H 151.807 -3.98289 1.25522 0
M  V30 1615 N 152.244 -1.26651 -0.937939 0
M  V30 1616 C 153.154 -1.10276 -2.07066 0
M  V30 1617 C 154.17 -0.0354197 -1.73964 0
M  V30 1618 O 155.346 -0.239816 -1.99967 0
M  V30 1619 C 152.411 -0.740887 -3.38691 0
M  V30 1620 C 151.472 -1.88799 -3.85556 0
M  V30 1621 C 150.705 -1.54329 -5.10899 0
M  V30 1622 O 150.928 -0.446494 -5.6865 0
M  V30 1623 O 149.862 -2.37911 -5.52885 0
M  V30 1624 H 153.688 -2.05309 -2.23789 0
M  V30 1625 H 151.273 -1.05743 -1.0554 0
M  V30 1626 H 153.155 -0.55195 -4.1777 0
M  V30 1627 H 151.83 0.180022 -3.23199 0
M  V30 1628 H 150.737 -2.13191 -3.07409 0
M  V30 1629 H 152.07 -2.78874 -4.05574 0
M  V30 1630 N 153.722 1.14298 -1.08507 0
M  V30 1631 C 154.652 2.21542 -0.737646 0
M  V30 1632 C 155.633 1.67773 0.280377 0
M  V30 1633 O 156.818 1.93616 0.150521 0
M  V30 1634 C 153.948 3.46988 -0.147259 0
M  V30 1635 C 152.902 4.13789 -1.09374 0
M  V30 1636 C 152.228 5.33449 -0.365524 0
M  V30 1637 C 153.528 4.62208 -2.4323 0
M  V30 1638 H 155.222 2.5086 -1.6343 0
M  V30 1639 H 152.768 1.20576 -0.787243 0
M  V30 1640 H 154.721 4.21262 0.107808 0
M  V30 1641 H 153.445 3.17037 0.784538 0
M  V30 1642 H 152.104 3.4147 -1.33393 0
M  V30 1643 H 151.752 4.99759 0.57011 0
M  V30 1644 H 151.452 5.79088 -0.996512 0
M  V30 1645 H 152.976 6.10485 -0.118534 0
M  V30 1646 H 154.39 5.27952 -2.23472 0
M  V30 1647 H 152.787 5.18553 -3.02031 0
M  V30 1648 H 153.857 3.77224 -3.04681 0
M  V30 1649 N 155.201 0.870884 1.31352 0
M  V30 1650 C 156.164 0.332243 2.26779 0
M  V30 1651 C 157.164 -0.517302 1.52252 0
M  V30 1652 O 158.354 -0.326477 1.71113 0
M  V30 1653 C 155.486 -0.528066 3.36785 0
M  V30 1654 H 156.679 1.17469 2.75937 0
M  V30 1655 H 154.232 0.64655 1.423 0
M  V30 1656 H 154.967 -1.39167 2.92922 0
M  V30 1657 H 154.752 0.0802582 3.92018 0
M  V30 1658 H 156.242 -0.897179 4.07849 0
M  V30 1659 N 156.679 -1.44442 0.630414 0
M  V30 1660 C 158.09 -1.85434 0.217063 0
M  V30 1661 C 158.441 -1.52748 -1.23136 0
M  V30 1662 O 157.566 -0.965205 -1.93682 0
M  V30 1663 C 158.161 -3.36581 0.387168 0
M  V30 1664 C 156.72 -3.76389 0.0283297 0
M  V30 1665 C 155.867 -2.68296 0.700889 0
M  V30 1666 H 158.818 -1.34919 0.83562 0
M  V30 1667 H 158.839 -3.78657 -0.374086 0
M  V30 1668 H 158.351 -3.60339 1.44144 0
M  V30 1669 H 156.452 -3.58246 -1.02423 0
M  V30 1670 H 156.565 -4.77095 0.437892 0
M  V30 1671 H 154.929 -2.54335 0.136267 0
M  V30 1672 H 155.712 -2.94887 1.75774 0
M  V30 1673 N 158.157 -0.370918 -1.53173 0
M  V30 1674 C 159.087 0.464847 -2.28826 0
M  V30 1675 C 160.068 1.07936 -1.31468 0
M  V30 1676 O 161.253 1.0956 -1.60344 0
M  V30 1677 C 158.383 1.60196 -3.08147 0
M  V30 1678 C 157.337 1.11443 -4.13237 0
M  V30 1679 C 156.663 2.3422 -4.80672 0
M  V30 1680 C 157.963 0.195384 -5.21934 0
M  V30 1681 H 159.657 -0.166329 -2.98938 0
M  V30 1682 H 157.203 -0.0814359 -1.4377 0
M  V30 1683 H 159.156 2.19332 -3.59822 0
M  V30 1684 H 157.88 2.26045 -2.35735 0
M  V30 1685 H 156.539 0.545727 -3.62515 0
M  V30 1686 H 156.187 2.98537 -4.04827 0
M  V30 1687 H 155.887 2.02269 -5.51689 0
M  V30 1688 H 157.411 2.94032 -5.35143 0
M  V30 1689 H 158.825 0.694375 -5.69079 0
M  V30 1690 H 157.222 -0.0335027 -6.00091 0
M  V30 1691 H 158.292 -0.760961 -4.78892 0
M  V30 1692 N 159.635 1.57281 -0.100228 0
M  V30 1693 C 160.582 2.14305 0.856858 0
M  V30 1694 C 161.552 1.06296 1.27634 0
M  V30 1695 O 162.737 1.34109 1.35718 0
M  V30 1696 C 159.877 2.73184 2.10866 0
M  V30 1697 C 158.99 3.95442 1.73925 0
M  V30 1698 C 158.125 4.42468 2.93931 0
M  V30 1699 C 157.164 5.57303 2.5314 0
M  V30 1700 N 156.301 5.99158 3.65997 0
M  V30 1701 H 161.141 2.95772 0.363726 0
M  V30 1702 H 158.678 1.46139 0.167858 0
M  V30 1703 H 160.636 3.05442 2.84185 0
M  V30 1704 H 159.266 1.94437 2.57671 0
M  V30 1705 H 158.318 3.69464 0.905554 0
M  V30 1706 H 159.63 4.78769 1.39935 0
M  V30 1707 H 158.784 4.76537 3.75496 0
M  V30 1708 H 157.523 3.58052 3.31134 0
M  V30 1709 H 156.528 5.22857 1.70003 0
M  V30 1710 H 157.753 6.43471 2.17075 0
M  V30 1711 H 155.699 5.17687 4.02909 0
M  V30 1712 H 155.616 6.77295 3.35869 0
M  V30 1713 H 156.884 6.3786 4.48057 0
M  V30 1714 N 161.113 -0.173488 1.56642 0
M  V30 1715 C 162.529 -0.525174 1.50712 0
M  V30 1716 C 162.729 -1.8476 0.804107 0
M  V30 1717 O 161.785 -2.49869 0.363574 0
M  V30 1718 C 163.098 -0.559937 2.95441 0
M  V30 1719 C 164.646 -0.647288 3.06234 0
M  V30 1720 C 165.121 -0.712963 4.52417 0
M  V30 1721 N 166.612 -0.775911 4.56655 0
M  V30 1722 C 167.347 -0.847264 5.67106 0
M  V30 1723 N 166.843 -0.879585 6.87194 0
M  V30 1724 N 168.636 -0.886117 5.55071 0
M  V30 1725 H 160.787 0.693681 2.00753 0
M  V30 1726 H 163.05 0.249841 0.914485 0
M  V30 1727 H 162.756 0.343049 3.50023 0
M  V30 1728 H 162.63 -1.40718 3.49969 0
M  V30 1729 H 165.017 -1.5407 2.51687 0
M  V30 1730 H 165.098 0.226586 2.54794 0
M  V30 1731 H 164.742 0.176183 5.07594 0
M  V30 1732 H 164.672 -1.60295 5.0161 0
M  V30 1733 H 167.163 -0.759304 3.70193 0
M  V30 1734 H 167.476 -0.935144 7.67121 0
M  V30 1735 H 165.821 -0.847898 6.89808 0
M  V30 1736 H 169.012 -0.857853 4.60172 0
M  V30 1737 H 169.185 -0.938263 6.41171 0
M  V30 1738 N 162.591 -1.51276 -0.441967 0
M  V30 1739 C 163.554 -1.7167 -1.51862 0
M  V30 1740 C 164.554 -0.586793 -1.49711 0
M  V30 1741 O 165.744 -0.854276 -1.51815 0
M  V30 1742 C 162.876 -1.76889 -2.91416 0
M  V30 1743 H 164.069 -2.67754 -1.35084 0
M  V30 1744 H 161.622 -1.41196 -0.670333 0
M  V30 1745 H 162.357 -0.826026 -3.13604 0
M  V30 1746 H 162.142 -2.59001 -2.94382 0
M  V30 1747 H 163.632 -1.94522 -3.69528 0
M  V30 1748 N 164.069 0.697108 -1.41344 0
M  V30 1749 C 165.318 1.45279 -1.39918 0
M  V30 1750 C 165.631 1.95597 -0.0109624 0
M  V30 1751 O 166.837 2.71208 0.125919 0
M  V30 1752 C 165.293 2.62695 -2.46007 0
M  V30 1753 C 164.901 2.19169 -3.90729 0
M  V30 1754 C 166.645 3.40336 -2.53715 0
M  V30 1755 C 164.552 3.33535 -4.88373 0
M  V30 1756 H 163.482 0.545692 -0.520323 0
M  V30 1757 H 166.133 0.756929 -1.67161 0
M  V30 1758 H 164.515 3.34541 -2.11892 0
M  V30 1759 H 165.689 1.54623 -4.34083 0
M  V30 1760 H 164.004 1.54525 -3.86666 0
M  V30 1761 H 166.601 4.2547 -3.2385 0
M  V30 1762 H 166.944 3.85418 -1.5735 0
M  V30 1763 H 167.477 2.75546 -2.86913 0
M  V30 1764 H 164.216 2.93468 -5.86137 0
M  V30 1765 H 163.736 3.96936 -4.49668 0
M  V30 1766 H 165.415 3.99335 -5.09059 0
M  V30 1767 N 165.547 1.27147 0.931209 0
M  V30 1768 C 166.477 1.12081 2.04842 0
M  V30 1769 C 167.458 0.0232364 1.70084 0
M  V30 1770 O 168.643 0.197085 1.93197 0
M  V30 1771 C 165.773 0.76354 3.38803 0
M  V30 1772 C 164.727 1.81396 3.87659 0
M  V30 1773 C 164.053 1.31075 5.18385 0
M  V30 1774 C 165.353 3.21739 4.11438 0
M  V30 1775 H 167.047 2.05537 2.17703 0
M  V30 1776 H 164.593 0.989603 1.04608 0
M  V30 1777 H 166.546 0.644982 4.16435 0
M  V30 1778 H 165.27 -0.206727 3.25945 0
M  V30 1779 H 163.929 1.92136 3.12217 0
M  V30 1780 H 163.577 0.330037 5.01916 0
M  V30 1781 H 163.277 2.013 5.52044 0
M  V30 1782 H 164.801 1.20506 5.98591 0
M  V30 1783 H 166.215 3.14019 4.79651 0
M  V30 1784 H 164.612 3.89644 4.56397 0
M  V30 1785 H 165.682 3.67054 3.16859 0
M  V30 1786 N 167.025 -1.13721 1.09112 0
M  V30 1787 C 168.25 -1.89314 0.847053 0
M  V30 1788 C 168.675 -1.78416 -0.595774 0
M  V30 1789 O 168.033 -1.12942 -1.41823 0
M  V30 1790 C 168.081 -3.3701 1.28284 0
M  V30 1791 O 167.185 -4.10054 0.439267 0
M  V30 1792 H 166.526 -0.588745 0.307044 0
M  V30 1793 H 169.056 -1.43902 1.45442 0
M  V30 1794 H 169.066 -3.87834 1.26683 0
M  V30 1795 H 167.741 -3.4426 2.33363 0
M  V30 1796 H 166.318 -3.69266 0.519312 0
M  V30 1797 N 168.503 -0.877838 -1.30888 0
M  V30 1798 C 169.451 -0.328662 -2.30266 0
M  V30 1799 C 170.445 0.560496 -1.59859 0
M  V30 1800 O 171.651 0.445722 -1.74394 0
M  V30 1801 H 168.026 -0.0876142 -0.746879 0
M  V30 1802 H 169.997 -1.18061 -2.74051 0
M  V30 1803 C 168.746 0.448071 -3.44801 0
M  V30 1804 H 168.069 -0.226859 -3.99156 0
M  V30 1805 H 169.509 0.797541 -4.16432 0
M  V30 1806 C 167.968 1.64239 -2.94155 0
M  V30 1807 O 168.498 2.74175 -2.93583 0
M  V30 1808 N 166.704 1.47716 -2.50256 0
M  V30 1809 H 166.251 0.582821 -2.5092 0
M  V30 1810 H 166.209 2.27765 -2.16727 0
M  V30 1811 N 169.982 1.44106 -0.638065 0
M  V30 1812 C 171.23 2.01579 -0.145043 0
M  V30 1813 C 171.551 1.50496 1.24 0
M  V30 1814 O 170.821 0.711374 1.82527 0
M  V30 1815 H 169.401 0.745282 -0.05063 0
M  V30 1816 H 172.063 1.76516 -0.826327 0
M  V30 1817 H 171.159 3.11877 -0.118039 0
M  V30 1818 N 171.46 0.379036 1.52974 0
M  V30 1819 C 172.423 -0.448865 2.24762 0
M  V30 1820 C 173.423 -0.998689 1.26027 0
M  V30 1821 O 174.613 -0.882313 1.50203 0
M  V30 1822 C 171.745 -1.62872 2.99476 0
M  V30 1823 H 172.938 0.179491 2.99362 0
M  V30 1824 H 170.491 0.13096 1.5575 0
M  V30 1825 H 171.226 -2.29479 2.29151 0
M  V30 1826 H 171.011 -1.24128 3.71934 0
M  V30 1827 H 172.501 -2.2151 3.5401 0
M  V30 1828 N 172.938 -1.57226 0.108567 0
M  V30 1829 C 174.349 -1.8195 -0.418464 0
M  V30 1830 C 174.7 -1.02508 -1.67292 0
M  V30 1831 O 173.825 -0.258496 -2.14851 0
M  V30 1832 C 174.42 -3.30028 -0.765979 0
M  V30 1833 C 172.979 -3.55469 -1.23769 0
M  V30 1834 C 172.126 -2.7625 -0.241106 0
M  V30 1835 H 175.077 -1.55149 0.33384 0
M  V30 1836 H 175.098 -3.44086 -1.62434 0
M  V30 1837 H 174.61 -3.87821 0.147219 0
M  V30 1838 H 172.711 -3.03022 -2.16814 0
M  V30 1839 H 172.824 -4.6408 -1.19022 0
M  V30 1840 H 171.188 -2.44133 -0.72602 0
M  V30 1841 H 171.971 -3.36797 0.665007 0
M  V30 1842 N 174.416 0.165178 -1.56732 0
M  V30 1843 C 175.693 0.908443 -1.73224 0
M  V30 1844 C 176.073 2.0013 -0.67165 0
M  V30 1845 O 175.421 2.26353 0.31253 0
M  V30 1846 C 175.631 1.46756 -3.16644 0
M  V30 1847 C 176.979 1.93809 -3.77787 0
M  V30 1848 O 178.003 1.56537 -3.1996 0
M  V30 1849 O 176.862 2.62486 -4.79336 0
M  V30 1850 H 173.956 0.428025 -0.707618 0
M  V30 1851 H 176.502 0.152526 -1.69013 0
M  V30 1852 H 175.274 0.68129 -3.85323 0
M  V30 1853 H 174.897 2.28749 -3.25207 0
M  V30 1854 N 175.894 1.51508 0.433938 0
M  V30 1855 C 176.827 1.67756 1.54704 0
M  V30 1856 C 177.805 0.525127 1.53887 0
M  V30 1857 O 178.989 0.749393 1.72963 0
M  V30 1858 C 176.116 1.69424 2.9328 0
M  V30 1859 C 175.162 2.90673 3.12108 0
M  V30 1860 S 175.995 4.51431 2.88046 0
M  V30 1861 C 177.151 4.55849 4.28897 0
M  V30 1862 H 177.384 2.61904 1.40689 0
M  V30 1863 H 174.917 1.41235 0.62386 0
M  V30 1864 H 176.875 1.7107 3.73156 0
M  V30 1865 H 175.536 0.764464 3.04655 0
M  V30 1866 H 174.729 2.88251 4.13434 0
M  V30 1867 H 174.331 2.86786 2.40062 0
M  V30 1868 H 176.623 4.31699 5.22152 0
M  V30 1869 H 177.566 5.57676 4.36351 0
M  V30 1870 H 177.974 3.85137 4.12711 0
M  V30 1871 N 177.372 -0.689602 1.41712 0
M  V30 1872 C 178.302 -1.81577 1.46806 0
M  V30 1873 C 179.283 -1.66945 0.326105 0
M  V30 1874 O 180.468 -1.86588 0.538377 0
M  V30 1875 C 177.598 -3.19762 1.35535 0
M  V30 1876 C 176.552 -3.49107 2.47605 0
M  V30 1877 C 175.878 -4.86711 2.21397 0
M  V30 1878 C 177.178 -3.47483 3.89939 0
M  V30 1879 H 178.872 -1.7757 2.41058 0
M  V30 1880 H 176.418 -0.852887 1.16025 0
M  V30 1881 H 178.371 -3.98263 1.3771 0
M  V30 1882 H 177.095 -3.24409 0.377708 0
M  V30 1883 H 175.754 -2.72959 2.44722 0
M  V30 1884 H 175.402 -4.8799 1.21961 0
M  V30 1885 H 175.102 -5.0731 2.96497 0
M  V30 1886 H 176.626 -5.67515 2.25297 0
M  V30 1887 H 178.04 -4.1598 3.94505 0
M  V30 1888 H 176.437 -3.79615 4.64771 0
M  V30 1889 H 177.507 -2.46341 4.17665 0
M  V30 1890 N 178.85 -1.27639 -0.924453 0
M  V30 1891 C 179.782 -1.06442 -2.02985 0
M  V30 1892 C 180.795 -0.0194771 -1.62788 0
M  V30 1893 O 181.984 -0.261388 -1.76576 0
M  V30 1894 C 179.084 -0.59327 -3.33667 0
M  V30 1895 C 178.257 -1.71123 -4.02537 0
M  V30 1896 C 177.316 -1.23527 -5.11495 0
M  V30 1897 O 176.342 -1.93553 -5.35281 0
M  V30 1898 N 177.544 -0.0926678 -5.80426 0
M  V30 1899 H 180.309 -2.01633 -2.2173 0
M  V30 1900 H 177.87 -1.19248 -1.09505 0
M  V30 1901 H 179.862 -0.258686 -4.03872 0
M  V30 1902 H 178.432 0.265502 -3.1147 0
M  V30 1903 H 177.652 -2.21593 -3.26022 0
M  V30 1904 H 178.94 -2.46145 -4.45298 0
M  V30 1905 H 178.338 0.491741 -5.63559 0
M  V30 1906 H 176.895 0.182714 -6.51544 0
M  V30 1907 N 180.328 1.1314 -1.09713 0
M  V30 1908 C 181.291 2.16831 -0.742751 0
M  V30 1909 C 182.291 1.59159 0.229129 0
M  V30 1910 O 183.481 1.74199 0.00693237 0
M  V30 1911 C 180.613 3.40756 -0.0989168 0
M  V30 1912 H 181.806 2.49695 -1.66109 0
M  V30 1913 H 179.359 1.2802 -0.896699 0
M  V30 1914 H 180.094 3.13485 0.830514 0
M  V30 1915 H 179.879 3.83888 -0.798265 0
M  V30 1916 H 181.369 4.17386 0.133524 0
M  V30 1917 N 181.806 0.884767 1.30421 0
M  V30 1918 C 182.736 0.367574 2.30589 0
M  V30 1919 C 183.717 -0.549464 1.60981 0
M  V30 1920 O 184.902 -0.46336 1.88591 0
M  V30 1921 C 182.032 -0.418944 3.44764 0
M  V30 1922 C 180.986 0.406316 4.26067 0
M  V30 1923 C 180.312 -0.506793 5.32293 0
M  V30 1924 C 181.612 1.64832 4.95608 0
M  V30 1925 H 183.306 1.20462 2.74097 0
M  V30 1926 H 180.852 0.580695 1.31772 0
M  V30 1927 H 182.805 -0.791395 4.13902 0
M  V30 1928 H 181.529 -1.28964 3.0006 0
M  V30 1929 H 180.188 0.760903 3.58617 0
M  V30 1930 H 179.836 -1.37519 4.83836 0
M  V30 1931 H 179.536 0.0415828 5.87585 0
M  V30 1932 H 181.06 -0.875764 6.04287 0
M  V30 1933 H 182.474 1.34646 5.57264 0
M  V30 1934 H 180.871 2.13688 5.60765 0
M  V30 1935 H 181.941 2.39284 4.21748 0
M  V30 1936 N 183.284 -1.43765 0.645699 0
M  V30 1937 C 184.53 -2.02197 0.156271 0
M  V30 1938 C 184.863 -1.50776 -1.22393 0
M  V30 1939 O 184.138 -0.697771 -1.81553 0
M  V30 1940 C 184.421 -3.59749 0.158872 0
M  V30 1941 C 184.274 -4.21419 1.57245 0
M  V30 1942 C 185.593 -4.37149 -0.50879 0
M  V30 1943 H 182.712 -0.734694 0.0582602 0
M  V30 1944 H 185.354 -1.71157 0.824951 0
M  V30 1945 H 183.504 -3.86325 -0.410525 0
M  V30 1946 H 185.176 -4.059 2.19186 0
M  V30 1947 H 183.419 -3.78356 2.122 0
M  V30 1948 H 184.09 -5.30482 1.52619 0
M  V30 1949 H 186.566 -4.16093 -0.024412 0
M  V30 1950 H 185.442 -5.4683 -0.476213 0
M  V30 1951 H 185.703 -4.12839 -1.58165 0
M  V30 1952 N 184.763 -0.387143 -1.52771 0
M  V30 1953 C 185.726 0.436939 -2.24997 0
M  V30 1954 C 186.726 0.991991 -1.26555 0
M  V30 1955 O 187.916 0.874335 -1.50669 0
M  V30 1956 C 185.048 1.61281 -3.00335 0
M  V30 1957 H 186.241 -0.195365 -2.99263 0
M  V30 1958 H 183.794 -0.139218 -1.55679 0
M  V30 1959 H 184.529 2.2826 -2.30364 0
M  V30 1960 H 184.314 1.22154 -3.72587 0
M  V30 1961 H 185.804 2.19629 -3.5518 0
M  V30 1962 N 186.241 1.57166 -0.116904 0
M  V30 1963 C 187.189 2.16457 0.851418 0
M  V30 1964 C 188.183 1.11323 1.27686 0
M  V30 1965 O 189.389 1.2963 1.24884 0
M  V30 1966 H 185.764 0.69271 0.292672 0
M  V30 1967 H 187.735 2.96605 0.32685 0
M  V30 1968 C 186.484 2.77689 2.09246 0
M  V30 1969 H 185.807 3.58285 1.77402 0
M  V30 1970 H 187.247 3.22716 2.7501 0
M  V30 1971 C 185.706 1.74667 2.88085 0
M  V30 1972 O 186.236 1.19877 3.83396 0
M  V30 1973 N 184.442 1.44656 2.52038 0
M  V30 1974 H 183.989 1.89402 1.74599 0
M  V30 1975 H 183.947 0.759675 3.05084 0
M  V30 1976 N 187.719 -0.156864 1.56817 0
M  V30 1977 C 188.682 -1.17781 1.96622 0
M  V30 1978 C 189.682 -1.36401 0.851555 0
M  V30 1979 O 190.872 -1.33561 1.11836 0
M  V30 1980 C 188.004 -2.54008 2.27361 0
M  V30 1981 H 189.197 -0.836564 2.87996 0
M  V30 1982 H 186.75 -0.39985 1.51099 0
M  V30 1983 H 187.485 -2.9312 1.38748 0
M  V30 1984 H 187.27 -2.41856 3.08623 0
M  V30 1985 H 188.76 -3.27558 2.59029 0
M  V30 1986 N 189.197 -1.51736 -0.425897 0
M  V30 1987 C 190.445 -1.64644 -1.17204 0
M  V30 1988 C 190.766 -0.370486 -1.91448 0
M  V30 1989 O 190.036 0.614088 -1.86026 0
M  V30 1990 H 188.616 -0.606819 -0.435638 0
M  V30 1991 H 191.278 -1.88713 -0.487177 0
M  V30 1992 H 190.374 -2.47958 -1.89534 0
M  V30 1993 N 190.675 0.682077 -1.42076 0
M  V30 1994 C 191.605 1.80796 -1.47767 0
M  V30 1995 C 192.586 1.6677 -0.334954 0
M  V30 1996 O 193.771 1.863 -0.548264 0
M  V30 1997 C 190.901 3.19038 -1.37229 0
M  V30 1998 C 189.855 3.47789 -2.49453 0
M  V30 1999 C 189.181 4.8553 -2.23975 0
M  V30 2000 C 190.481 3.45411 -3.91776 0
M  V30 2001 H 192.175 1.7629 -2.41997 0
M  V30 2002 H 189.721 0.846721 -1.16476 0
M  V30 2003 H 191.674 3.97528 -1.39821 0
M  V30 2004 H 190.398 3.24204 -0.394907 0
M  V30 2005 H 189.057 2.71657 -2.46166 0
M  V30 2006 H 188.705 4.87337 -1.24547 0
M  V30 2007 H 188.405 5.0573 -2.99184 0
M  V30 2008 H 189.929 5.66312 -2.28304 0
M  V30 2009 H 191.343 4.13882 -3.96705 0
M  V30 2010 H 189.74 3.77145 -4.66778 0
M  V30 2011 H 190.81 2.44122 -4.18966 0
M  V30 2012 N 192.153 1.28127 0.917671 0
M  V30 2013 C 193.381 1.17892 1.70026 0
M  V30 2014 C 193.796 -0.262958 1.8696 0
M  V30 2015 O 193.153 -1.17811 1.3938 0
M  V30 2016 C 193.204 1.86872 3.09453 0
M  V30 2017 O 192.925 3.25428 2.93306 0
M  V30 2018 C 194.426 1.8289 4.03815 0
M  V30 2019 H 191.646 0.40942 0.531617 0
M  V30 2020 H 194.19 1.69181 1.14883 0
M  V30 2021 H 192.345 1.39464 3.61426 0
M  V30 2022 H 192.759 3.59918 3.81523 0
M  V30 2023 H 194.233 2.35751 4.99125 0
M  V30 2024 H 194.71 0.800412 4.31845 0
M  V30 2025 H 195.316 2.29959 3.57769 0
M  V30 2026 N 193.631 -1.12557 1.10312 0
M  V30 2027 C 194.908 -1.80363 0.756878 0
M  V30 2028 C 195.288 -1.97067 -0.756824 0
M  V30 2029 O 194.636 -1.54601 -1.68259 0
M  V30 2030 C 194.846 -3.14812 1.50647 0
M  V30 2031 C 196.194 -3.90029 1.67817 0
M  V30 2032 O 197.218 -3.24464 1.46974 0
M  V30 2033 O 196.077 -5.07652 2.02365 0
M  V30 2034 H 193.171 -0.780667 0.272926 0
M  V30 2035 H 195.717 -1.19404 1.20586 0
M  V30 2036 H 194.489 -2.97936 2.53672 0
M  V30 2037 H 194.112 -3.83478 1.05026 0
M  V30 2038 N 195.109 -0.891671 -1.2995 0
M  V30 2039 C 196.334 -0.527932 -2.00568 0
M  V30 2040 C 196.759 0.877969 -1.66353 0
M  V30 2041 O 196.117 1.58301 -0.883762 0
M  V30 2042 C 196.165 -0.717745 -3.53385 0
M  V30 2043 O 195.269 0.233376 -4.11739 0
M  V30 2044 H 194.61 -0.20722 -0.630837 0
M  V30 2045 H 197.14 -1.20105 -1.65638 0
M  V30 2046 H 197.15 -0.619307 -4.03272 0
M  V30 2047 H 195.825 -1.74276 -3.77625 0
M  V30 2048 H 194.402 0.0880706 -3.72796 0
M  V30 2049 N 196.587 1.43421 -0.653314 0
M  V30 2050 C 197.834 2.01812 -0.166745 0
M  V30 2051 C 198.162 1.51535 1.21931 0
M  V30 2052 O 197.417 0.698975 1.82792 0
M  V30 2053 C 197.716 3.57176 -0.126623 0
M  V30 2054 C 197.382 4.26798 -1.45444 0
M  V30 2055 C 196.044 4.45534 -1.81805 0
M  V30 2056 C 198.396 4.66225 -2.32989 0
M  V30 2057 C 195.724 5.00961 -3.05377 0
M  V30 2058 C 198.076 5.23021 -3.55853 0
M  V30 2059 C 196.74 5.39973 -3.9241 0
M  V30 2060 H 196.01 0.738484 -0.0610162 0
M  V30 2061 H 198.657 1.71896 -0.84404 0
M  V30 2062 H 196.962 3.86634 0.634123 0
M  V30 2063 H 198.659 4.00112 0.266723 0
M  V30 2064 H 195.249 4.12561 -1.16153 0
M  V30 2065 H 199.433 4.51443 -2.06187 0
M  V30 2066 H 194.689 5.12271 -3.3375 0
M  V30 2067 H 198.863 5.52518 -4.23907 0
M  V30 2068 H 196.49 5.82687 -4.88242 0
M  V30 2069 N 198.065 0.39524 1.52563 0
M  V30 2070 C 199.342 -0.242908 1.94086 0
M  V30 2071 C 199.722 -1.63841 1.33114 0
M  V30 2072 O 199.07 -2.22928 0.501529 0
M  V30 2073 C 199.28 -0.26327 3.48006 0
M  V30 2074 C 200.628 -0.489354 4.21771 0
M  V30 2075 O 201.652 -0.343226 3.54543 0
M  V30 2076 O 200.511 -0.776169 5.4096 0
M  V30 2077 H 197.605 -0.152536 0.812811 0
M  V30 2078 H 200.151 0.450178 1.6362 0
M  V30 2079 H 198.923 0.713985 3.84731 0
M  V30 2080 H 198.546 -1.00103 3.84792 0
M  V30 2081 N 199.544 -1.57102 0.125237 0
M  V30 2082 C 200.507 -2.14471 -0.80838 0
M  V30 2083 C 201.507 -1.0811 -1.19033 0
M  V30 2084 O 202.697 -1.33856 -1.11482 0
M  V30 2085 C 199.829 -2.69005 -2.09402 0
M  V30 2086 H 201.022 -2.98297 -0.309696 0
M  V30 2087 H 198.575 -1.55807 -0.124051 0
M  V30 2088 H 199.31 -1.88785 -2.63687 0
M  V30 2089 H 199.095 -3.46799 -1.82957 0
M  V30 2090 H 200.585 -3.13278 -2.76128 0
M  V30 2091 N 201.022 0.148545 -1.56898 0
M  V30 2092 C 202.268 0.862694 -1.83536 0
M  V30 2093 C 202.601 1.80889 -0.706604 0
M  V30 2094 O 201.876 1.92328 0.289885 0
M  V30 2095 C 202.159 1.63853 -3.20662 0
M  V30 2096 C 202.012 0.713925 -4.44098 0
M  V30 2097 C 203.331 2.60133 -3.54991 0
M  V30 2098 H 200.45 0.312179 -0.667618 0
M  V30 2099 H 203.092 0.127953 -1.89569 0
M  V30 2100 H 201.242 2.26489 -3.1565 0
M  V30 2101 H 202.914 0.098686 -4.61194 0
M  V30 2102 H 201.157 0.0234019 -4.33794 0
M  V30 2103 H 201.828 1.29278 -5.36648 0
M  V30 2104 H 204.304 2.07616 -3.60603 0
M  V30 2105 H 203.18 3.11468 -4.51972 0
M  V30 2106 H 203.441 3.41417 -2.80868 0
M  V30 2107 N 202.5 1.5196 0.417844 0
M  V30 2108 C 203.749 1.6482 1.16264 0
M  V30 2109 C 204.062 0.379886 1.91876 0
M  V30 2110 O 205.268 0.388154 2.68711 0
M  V30 2111 C 203.724 2.91161 2.1155 0
M  V30 2112 C 203.332 4.25068 1.41495 0
M  V30 2113 C 205.076 3.13383 2.86341 0
M  V30 2114 C 202.983 5.42541 2.35379 0
M  V30 2115 H 201.913 0.613954 0.437694 0
M  V30 2116 H 204.564 1.78442 0.427871 0
M  V30 2117 H 202.946 2.71218 2.88543 0
M  V30 2118 H 204.12 4.55463 0.699263 0
M  V30 2119 H 202.435 4.0888 0.787792 0
M  V30 2120 H 205.032 3.98324 3.5671 0
M  V30 2121 H 205.375 2.27256 3.48798 0
M  V30 2122 H 205.908 3.33757 2.1645 0
M  V30 2123 H 202.647 6.30987 1.77582 0
M  V30 2124 H 202.167 5.16497 3.04945 0
M  V30 2125 H 203.846 5.75272 2.96093 0
M  V30 2126 N 203.978 -0.674533 1.42435 0
M  V30 2127 C 205.203 -1.46784 1.46524 0
M  V30 2128 C 205.628 -1.87938 0.078066 0
M  V30 2129 O 204.986 -1.56014 -0.92354 0
M  V30 2130 C 205.034 -2.69307 2.39805 0
M  V30 2131 O 204.138 -3.67587 1.86959 0
M  V30 2132 H 203.479 -0.440959 0.496439 0
M  V30 2133 H 206.009 -0.827326 1.87127 0
M  V30 2134 H 206.019 -3.17374 2.56393 0
M  V30 2135 H 204.694 -2.38692 3.40586 0
M  V30 2136 H 203.271 -3.2662 1.79927 0
M  V30 2137 N 205.456 -1.28612 -0.910864 0
M  V30 2138 C 206.702 -1.16106 -1.66274 0
M  V30 2139 C 207.035 0.289113 -1.92036 0
M  V30 2140 O 206.31 1.21 -1.52281 0
M  V30 2141 C 206.593 -1.96309 -3.01885 0
M  V30 2142 C 206.446 -3.49405 -2.8326 0
M  V30 2143 C 207.765 -1.78076 -4.02463 0
M  V30 2144 H 204.884 -0.423152 -0.603417 0
M  V30 2145 H 207.526 -1.57961 -1.05586 0
M  V30 2146 H 205.676 -1.60742 -3.53687 0
M  V30 2147 H 207.348 -3.94894 -2.38446 0
M  V30 2148 H 205.591 -3.74893 -2.18261 0
M  V30 2149 H 206.262 -4.00784 -3.79574 0
M  V30 2150 H 208.738 -2.0912 -3.59733 0
M  V30 2151 H 207.614 -2.36561 -4.95308 0
M  V30 2152 H 207.875 -0.733008 -4.35981 0
M  V30 2153 N 206.934 1.1197 -1.10907 0
M  V30 2154 C 208.211 1.79959 -0.766432 0
M  V30 2155 C 208.591 1.97466 0.746363 0
M  V30 2156 O 207.939 1.55491 1.67436 0
M  V30 2157 C 208.149 3.14009 -1.52314 0
M  V30 2158 C 209.497 3.89134 -1.69883 0
M  V30 2159 O 210.521 3.2368 -1.48692 0
M  V30 2160 O 209.38 5.06572 -2.05054 0
M  V30 2161 H 206.474 0.779208 -0.277062 0
M  V30 2162 H 209.02 1.18762 -1.21217 0
M  V30 2163 H 207.792 2.96587 -2.55249 0
M  V30 2164 H 207.415 3.82915 -1.07059 0
M  V30 2165 N 208.412 0.89855 1.29475 0
M  V30 2166 C 209.375 0.380272 2.26023 0
M  V30 2167 C 210.375 -0.484891 1.53315 0
M  V30 2168 O 211.565 -0.290108 1.71767 0
M  V30 2169 C 208.697 -0.45651 3.3783 0
M  V30 2170 H 209.89 1.23295 2.73383 0
M  V30 2171 H 207.443 0.676589 1.40897 0
M  V30 2172 H 208.178 -1.32922 2.95808 0
M  V30 2173 H 207.963 0.163393 3.91759 0
M  V30 2174 H 209.453 -0.810466 4.0966 0
M  V30 2175 N 209.89 -1.43072 0.660911 0
M  V30 2176 C 210.837 -2.30785 -0.0259884 0
M  V30 2177 C 211.807 -1.45184 -0.806888 0
M  V30 2178 O 212.992 -1.74041 -0.781943 0
M  V30 2179 C 210.132 -3.30861 -0.981067 0
M  V30 2180 C 209.245 -4.31558 -0.195458 0
M  V30 2181 C 208.38 -5.18712 -1.14503 0
M  V30 2182 C 207.419 -6.11097 -0.350299 0
M  V30 2183 N 206.556 -6.90849 -1.25186 0
M  V30 2184 H 211.396 -2.88975 0.727846 0
M  V30 2185 H 208.933 -1.42353 0.370682 0
M  V30 2186 H 210.891 -3.87399 -1.54849 0
M  V30 2187 H 209.521 -2.74304 -1.70169 0
M  V30 2188 H 208.573 -3.77252 0.488374 0
M  V30 2189 H 209.885 -4.9701 0.422176 0
M  V30 2190 H 209.039 -5.79914 -1.78284 0
M  V30 2191 H 207.778 -4.53404 -1.79656 0
M  V30 2192 H 206.783 -5.48976 0.300808 0
M  V30 2193 H 208.008 -6.7845 0.296941 0
M  V30 2194 H 205.954 -6.28182 -1.89005 0
M  V30 2195 H 205.871 -7.52854 -0.688971 0
M  V30 2196 H 207.139 -7.5655 -1.87757 0
M  V30 2197 N 211.368 -0.403325 -1.52352 0
M  V30 2198 C 212.784 -0.0539281 -1.59509 0
M  V30 2199 C 212.984 1.43307 -1.41652 0
M  V30 2200 O 212.04 2.19924 -1.24056 0
M  V30 2201 C 213.353 -0.543654 -2.95745 0
M  V30 2202 C 214.901 -0.501125 -3.08962 0
M  V30 2203 C 215.376 -0.967267 -4.47669 0
M  V30 2204 N 216.867 -0.923849 -4.53893 0
M  V30 2205 C 217.602 -1.25578 -5.5948 0
M  V30 2206 N 217.098 -1.65889 -6.72646 0
M  V30 2207 N 218.891 -1.17613 -5.49658 0
M  V30 2208 H 211.042 -1.37123 -1.62206 0
M  V30 2209 H 213.305 -0.56294 -0.76276 0
M  V30 2210 H 213.011 -1.58275 -3.14073 0
M  V30 2211 H 212.885 0.0498042 -3.77167 0
M  V30 2212 H 215.272 0.528909 -2.90321 0
M  V30 2213 H 215.353 -1.13056 -2.2946 0
M  V30 2214 H 214.997 -1.9956 -4.67053 0
M  V30 2215 H 214.927 -0.314698 -5.25659 0
M  V30 2216 H 217.418 -0.627403 -3.72655 0
M  V30 2217 H 217.731 -1.89543 -7.49195 0
M  V30 2218 H 216.076 -1.69787 -6.73942 0
M  V30 2219 H 219.267 -0.860115 -4.6013 0
M  V30 2220 H 219.44 -1.43812 -6.3184 0
M  V30 2221 N 212.846 1.57033 -0.133567 0
M  V30 2222 C 214.092 1.95976 0.521649 0
M  V30 2223 C 214.425 1.01779 1.65393 0
M  V30 2224 O 213.7 0.0576581 1.94415 0
M  V30 2225 C 213.983 3.44738 1.04057 0
M  V30 2226 C 213.836 4.49711 -0.0892897 0
M  V30 2227 C 215.155 3.95682 1.92675 0
M  V30 2228 H 212.274 0.712579 0.188149 0
M  V30 2229 H 214.916 1.88813 -0.212076 0
M  V30 2230 H 213.066 3.50973 1.66583 0
M  V30 2231 H 214.738 4.55565 -0.725152 0
M  V30 2232 H 212.981 4.27261 -0.750378 0
M  V30 2233 H 213.652 5.51099 0.315284 0
M  V30 2234 H 216.128 3.91841 1.39998 0
M  V30 2235 H 215.004 5.00262 2.25897 0
M  V30 2236 H 215.265 3.37239 2.85872 0
M  V30 2237 N 214.325 -0.140222 1.56975 0
M  V30 2238 C 215.572 -0.851687 1.83719 0
M  V30 2239 C 215.9 -1.80862 0.715485 0
M  V30 2240 O 215.155 -1.93464 -0.294956 0
M  V30 2241 C 215.454 -1.65386 3.16832 0
M  V30 2242 C 215.12 -0.843112 4.42947 0
M  V30 2243 C 213.782 -0.619464 4.77196 0
M  V30 2244 C 216.134 -0.276582 5.20466 0
M  V30 2245 C 213.462 0.181312 5.8642 0
M  V30 2246 C 215.814 0.51127 6.30531 0
M  V30 2247 C 214.478 0.745432 6.63325 0
M  V30 2248 H 213.748 -0.311654 0.672274 0
M  V30 2249 H 216.395 -0.115006 1.91154 0
M  V30 2250 H 214.7 -2.46084 3.04877 0
M  V30 2251 H 216.397 -2.20793 3.34741 0
M  V30 2252 H 212.987 -1.0275 4.16101 0
M  V30 2253 H 217.171 -0.436632 4.94376 0
M  V30 2254 H 212.427 0.372165 6.10266 0
M  V30 2255 H 216.601 0.957354 6.89788 0
M  V30 2256 H 214.228 1.36778 7.47794 0
M  V30 2257 N 215.803 -1.52179 -0.40978 0
M  V30 2258 C 216.75 -1.75475 -1.49924 0
M  V30 2259 C 217.72 -0.597175 -1.54994 0
M  V30 2260 O 218.905 -0.834655 -1.71575 0
M  V30 2261 C 216.045 -1.9107 -2.87378 0
M  V30 2262 C 215.158 -3.18717 -2.91622 0
M  V30 2263 C 214.293 -3.24747 -4.20372 0
M  V30 2264 C 213.332 -4.46598 -4.18588 0
M  V30 2265 N 212.469 -4.50025 -5.38908 0
M  V30 2266 H 217.309 -2.68458 -1.29361 0
M  V30 2267 H 214.846 -1.33024 -0.627934 0
M  V30 2268 H 216.804 -1.98096 -3.6717 0
M  V30 2269 H 215.434 -1.01469 -3.06437 0
M  V30 2270 H 214.486 -3.20866 -2.04326 0
M  V30 2271 H 215.798 -4.08544 -2.86169 0
M  V30 2272 H 214.952 -3.30841 -5.08556 0
M  V30 2273 H 213.691 -2.32857 -4.28519 0
M  V30 2274 H 212.696 -4.40652 -3.28794 0
M  V30 2275 H 213.921 -5.39783 -4.12081 0
M  V30 2276 H 211.867 -3.61017 -5.47725 0
M  V30 2277 H 211.784 -5.33697 -5.35447 0
M  V30 2278 H 213.052 -4.60347 -6.29048 0
M  V30 2279 N 217.281 0.66697 -1.42791 0
M  V30 2280 C 218.692 1.2478 -1.38877 0
M  V30 2281 C 219.043 1.96012 -0.0859426 0
M  V30 2282 O 218.168 2.00463 0.815081 0
M  V30 2283 C 218.763 2.26938 -2.51564 0
M  V30 2284 C 217.322 2.80529 -2.50959 0
M  V30 2285 C 216.469 1.54965 -2.29959 0
M  V30 2286 H 219.42 0.459853 -1.51892 0
M  V30 2287 H 219.441 3.08834 -2.22265 0
M  V30 2288 H 218.953 1.75065 -3.46372 0
M  V30 2289 H 217.054 3.36502 -1.59991 0
M  V30 2290 H 217.167 3.29012 -3.48265 0
M  V30 2291 H 215.531 1.81817 -1.78366 0
M  V30 2292 H 216.314 1.05047 -3.26833 0
M  V30 2293 N 218.759 1.29093 0.90403 0
M  V30 2294 C 219.709 1.10482 1.99443 0
M  V30 2295 C 220.693 0.0255401 1.6088 0
M  V30 2296 O 221.885 0.24677 1.75271 0
M  V30 2297 C 219.014 0.778882 3.34348 0
M  V30 2298 C 218.1 1.89749 3.79284 0
M  V30 2299 N 218.491 3.14045 3.96497 0
M  V30 2300 C 216.789 1.78955 4.08523 0
M  V30 2301 C 217.49 3.86996 4.34292 0
M  V30 2302 N 216.466 3.14909 4.43095 0
M  V30 2303 H 220.268 2.04778 2.10815 0
M  V30 2304 H 217.782 1.20155 1.09255 0
M  V30 2305 H 219.779 0.62661 4.12164 0
M  V30 2306 H 218.439 -0.156205 3.24324 0
M  V30 2307 H 219.45 3.49548 3.82148 0
M  V30 2308 H 216.127 0.926886 4.07081 0
M  V30 2309 H 217.517 4.93941 4.55491 0
M  V30 2310 N 220.237 -1.11381 1.11499 0
M  V30 2311 C 221.648 -1.6465 0.880191 0
M  V30 2312 C 221.999 -1.87199 -0.587434 0
M  V30 2313 O 221.124 -1.60667 -1.44966 0
M  V30 2314 C 221.719 -2.99105 1.59128 0
M  V30 2315 C 220.278 -3.49279 1.40289 0
M  V30 2316 C 219.425 -2.24077 1.63354 0
M  V30 2317 H 222.376 -0.950123 1.27116 0
M  V30 2318 H 222.397 -3.66107 1.03664 0
M  V30 2319 H 221.909 -2.82661 2.65941 0
M  V30 2320 H 220.01 -3.70887 0.356888 0
M  V30 2321 H 220.123 -4.2803 2.15238 0
M  V30 2322 H 218.487 -2.31733 1.05698 0
M  V30 2323 H 219.27 -2.10175 2.71443 0
M  V30 2324 N 221.715 -0.905404 -1.28997 0
M  V30 2325 C 222.992 -0.453513 -1.9027 0
M  V30 2326 C 223.372 1.06721 -1.82137 0
M  V30 2327 O 222.72 1.91159 -1.25182 0
M  V30 2328 C 222.93 -0.974494 -3.35119 0
M  V30 2329 C 224.278 -1.0216 -4.12127 0
M  V30 2330 O 225.302 -0.922557 -3.44046 0
M  V30 2331 O 224.161 -1.17121 -5.33802 0
M  V30 2332 H 221.255 -0.142347 -0.814657 0
M  V30 2333 H 223.801 -0.995642 -1.37423 0
M  V30 2334 H 222.573 -2.01848 -3.35221 0
M  V30 2335 H 222.196 -0.412706 -3.95452 0
M  V30 2336 N 223.193 1.4272 -0.668489 0
M  V30 2337 C 224.418 2.06484 -0.194758 0
M  V30 2338 C 224.843 1.49862 1.13679 0
M  V30 2339 O 224.201 0.614582 1.70565 0
M  V30 2340 C 224.249 3.60353 -0.133546 0
M  V30 2341 O 223.353 4.02464 0.899806 0
M  V30 2342 H 222.694 0.656137 -0.10188 0
M  V30 2343 H 225.224 1.82964 -0.915722 0
M  V30 2344 H 225.234 4.07976 0.0447041 0
M  V30 2345 H 223.909 4.00938 -1.1055 0
M  V30 2346 H 222.486 3.66402 0.693109 0
M  V30 2347 N 224.671 0.411399 1.52136 0
M  V30 2348 C 225.901 -0.16284 2.05957 0
M  V30 2349 C 226.309 -1.3922 1.28119 0
M  V30 2350 O 225.652 -1.80768 0.326881 0
M  V30 2351 C 225.714 -0.575946 3.54856 0
M  V30 2352 C 225.378 0.542998 4.53763 0
M  V30 2353 C 226.375 1.40726 5.00492 0
M  V30 2354 C 224.06 0.716337 4.97166 0
M  V30 2355 C 226.054 2.4298 5.8927 0
M  V30 2356 C 223.741 1.74218 5.8574 0
M  V30 2357 C 224.739 2.59731 6.31687 0
M  V30 2358 O 224.427 3.60558 7.18507 0
M  V30 2359 H 224.159 -0.0229125 0.675612 0
M  V30 2360 H 226.713 0.581634 1.96993 0
M  V30 2361 H 224.943 -1.37274 3.61515 0
M  V30 2362 H 226.632 -1.07836 3.91313 0
M  V30 2363 H 227.398 1.28476 4.67674 0
M  V30 2364 H 223.277 0.0603857 4.6096 0
M  V30 2365 H 226.821 3.0976 6.25055 0
M  V30 2366 H 222.718 1.86498 6.17971 0
M  V30 2367 H 223.486 3.56829 7.36624 0
M  V30 2368 N 226.149 -1.5696 0.141893 0
M  V30 2369 C 227.112 -2.15316 -0.785587 0
M  V30 2370 C 228.112 -1.09366 -1.1788 0
M  V30 2371 O 229.302 -1.35031 -1.10056 0
M  V30 2372 C 226.434 -2.71211 -2.06537 0
M  V30 2373 H 227.627 -2.98608 -0.278041 0
M  V30 2374 H 225.18 -1.5593 -0.107519 0
M  V30 2375 H 225.915 -1.91571 -2.6167 0
M  V30 2376 H 225.7 -3.4872 -1.79268 0
M  V30 2377 H 227.19 -3.16189 -2.72789 0
M  V30 2378 N 227.627 0.131896 -1.57047 0
M  V30 2379 C 228.557 1.16384 -2.02428 0
M  V30 2380 C 229.538 1.43936 -0.90644 0
M  V30 2381 O 230.723 1.54599 -1.17528 0
M  V30 2382 C 227.853 2.49328 -2.4177 0
M  V30 2383 C 226.807 2.36266 -3.56879 0
M  V30 2384 C 226.133 3.74057 -3.8208 0
M  V30 2385 C 227.433 1.834 -4.89042 0
M  V30 2386 H 229.127 0.786433 -2.88887 0
M  V30 2387 H 226.673 0.376855 -1.38981 0
M  V30 2388 H 228.626 3.21759 -2.7212 0
M  V30 2389 H 227.35 2.88934 -1.52266 0
M  V30 2390 H 226.009 1.66286 -3.26718 0
M  V30 2391 H 225.657 4.11125 -2.89803 0
M  V30 2392 H 225.357 3.66174 -4.59554 0
M  V30 2393 H 226.881 4.48012 -4.1487 0
M  V30 2394 H 228.295 2.45636 -5.18011 0
M  V30 2395 H 226.692 1.8637 -5.70426 0
M  V30 2396 H 227.762 0.790662 -4.7841 0
M  V30 2397 N 229.106 1.52395 0.401703 0
M  V30 2398 C 230.352 1.67065 1.14966 0
M  V30 2399 C 230.685 0.403052 1.89971 0
M  V30 2400 O 229.96 -0.598774 1.85054 0
M  V30 2401 C 230.243 2.8975 2.13815 0
M  V30 2402 C 230.096 4.26578 1.42658 0
M  V30 2403 C 231.415 3.07965 3.14397 0
M  V30 2404 H 228.534 0.607968 0.416587 0
M  V30 2405 H 231.176 1.84965 0.434511 0
M  V30 2406 H 229.326 2.74619 2.74803 0
M  V30 2407 H 230.998 4.53451 0.847329 0
M  V30 2408 H 229.241 4.27639 0.72849 0
M  V30 2409 H 229.912 5.08483 2.14823 0
M  V30 2410 H 232.388 3.22043 2.63491 0
M  V30 2411 H 231.264 3.95308 3.80819 0
M  V30 2412 H 231.525 2.21611 3.82545 0
M  V30 2413 N 230.584 -0.659388 1.43143 0
M  V30 2414 C 231.494 -1.80167 1.50256 0
M  V30 2415 C 232.51 -1.69571 0.390106 0
M  V30 2416 O 233.686 -1.90849 0.643319 0
M  V30 2417 C 230.751 -3.16409 1.41725 0
M  V30 2418 C 229.812 -3.38848 2.63591 0
M  V30 2419 C 229.045 -4.68591 2.55458 0
M  V30 2420 O 229.268 -5.47532 1.59891 0
M  V30 2421 O 228.202 -4.92614 3.45854 0
M  V30 2422 H 232.028 -1.77121 2.46702 0
M  V30 2423 H 229.613 -0.817092 1.25076 0
M  V30 2424 H 231.495 -3.9768 1.39387 0
M  V30 2425 H 230.17 -3.20059 0.484118 0
M  V30 2426 H 229.077 -2.57366 2.71502 0
M  V30 2427 H 230.41 -3.4004 3.55856 0
M  V30 2428 N 232.062 -1.29571 -0.897171 0
M  V30 2429 C 232.972 -1.16808 -2.03453 0
M  V30 2430 C 233.988 -0.0907471 -1.73763 0
M  V30 2431 O 235.164 -0.303312 -1.99103 0
M  V30 2432 C 232.229 -0.848264 -3.36163 0
M  V30 2433 C 231.29 -2.0097 -3.79354 0
M  V30 2434 C 230.523 -1.70505 -5.05731 0
M  V30 2435 O 230.746 -0.62718 -5.66941 0
M  V30 2436 O 229.68 -2.5538 -5.45036 0
M  V30 2437 H 233.506 -2.12325 -2.17144 0
M  V30 2438 H 231.091 -1.09047 -1.02123 0
M  V30 2439 H 232.973 -0.684581 -4.15802 0
M  V30 2440 H 231.648 0.0771071 -3.23608 0
M  V30 2441 H 230.555 -2.22863 -3.00471 0
M  V30 2442 H 231.888 -2.91636 -3.96496 0
M  V30 2443 N 233.54 1.10788 -1.12088 0
M  V30 2444 C 234.786 1.82942 -0.875226 0
M  V30 2445 C 235.119 1.84779 0.597538 0
M  V30 2446 O 234.394 1.30578 1.44152 0
M  V30 2447 C 234.677 3.29789 -1.44606 0
M  V30 2448 C 234.53 3.36307 -2.98693 0
M  V30 2449 C 235.849 4.26064 -1.10261 0
M  V30 2450 H 232.968 0.664195 -0.319397 0
M  V30 2451 H 235.61 1.29867 -1.38689 0
M  V30 2452 H 233.76 3.75118 -1.01089 0
M  V30 2453 H 235.432 2.99487 -3.50864 0
M  V30 2454 H 233.675 2.76318 -3.34411 0
M  V30 2455 H 234.346 4.39694 -3.33726 0
M  V30 2456 H 236.822 3.88951 -1.4784 0
M  V30 2457 H 235.698 5.27183 -1.52869 0
M  V30 2458 H 235.959 4.42098 -0.0142953 0
M  V30 2459 N 235.018 0.912232 1.28515 0
M  V30 2460 C 235.948 0.416403 2.29757 0
M  V30 2461 C 236.929 -0.515194 1.6211 0
M  V30 2462 O 238.114 -0.423253 1.89532 0
M  V30 2463 C 235.244 -0.34572 3.45575 0
M  V30 2464 C 234.198 0.496599 4.25109 0
M  V30 2465 C 233.524 -0.393771 5.33248 0
M  V30 2466 C 234.824 1.75307 4.92001 0
M  V30 2467 H 236.518 1.26249 2.7148 0
M  V30 2468 H 234.064 0.608515 1.30511 0
M  V30 2469 H 236.017 -0.703422 4.15488 0
M  V30 2470 H 234.741 -1.2257 3.02728 0
M  V30 2471 H 233.4 0.8368 3.56922 0
M  V30 2472 H 233.048 -1.27225 4.86644 0
M  V30 2473 H 232.748 0.166209 5.87365 0
M  V30 2474 H 234.272 -0.747389 6.06009 0
M  V30 2475 H 235.686 1.46437 5.54283 0
M  V30 2476 H 234.083 2.25534 5.56106 0
M  V30 2477 H 235.153 2.48176 4.16577 0
M  V30 2478 N 236.496 -1.42363 0.676048 0
M  V30 2479 C 237.744 -2.01123 0.198437 0
M  V30 2480 C 238.065 -1.53731 -1.19966 0
M  V30 2481 O 237.335 -0.759518 -1.80577 0
M  V30 2482 H 235.915 -0.743678 0.0703721 0
M  V30 2483 H 238.577 -1.74263 0.872837 0
M  V30 2484 H 237.673 -3.11454 0.200686 0
M  V30 2485 N 237.974 -0.419461 -1.51915 0
M  V30 2486 C 239.22 0.153166 -2.02221 0
M  V30 2487 C 239.553 1.43907 -1.30401 0
M  V30 2488 O 238.828 1.90055 -0.413438 0
M  V30 2489 C 239.111 0.390291 -3.57979 0
M  V30 2490 C 238.964 -0.913014 -4.40436 0
M  V30 2491 C 240.283 1.16794 -4.2432 0
M  V30 2492 H 237.402 0.0541924 -0.735005 0
M  V30 2493 H 240.044 -0.554955 -1.81715 0
M  V30 2494 H 238.194 0.993491 -3.75582 0
M  V30 2495 H 239.866 -1.54882 -4.34522 0
M  V30 2496 H 238.109 -1.52168 -4.06236 0
M  V30 2497 H 238.78 -0.701361 -5.47526 0
M  V30 2498 H 241.256 0.657161 -4.10878 0
M  V30 2499 H 240.132 1.3026 -5.3322 0
M  V30 2500 H 240.393 2.19132 -3.83971 0
M  V30 2501 N 239.452 1.56882 -0.150215 0
M  V30 2502 C 240.68 2.00593 0.506948 0
M  V30 2503 C 241.095 1.03033 1.58208 0
M  V30 2504 O 240.452 0.0278396 1.82479 0
M  V30 2505 C 240.503 3.44209 1.10465 0
M  V30 2506 O 240.224 4.3804 0.0724636 0
M  V30 2507 C 241.725 4.03214 1.84211 0
M  V30 2508 H 238.945 0.65795 0.13169 0
M  V30 2509 H 241.489 2.03018 -0.245743 0
M  V30 2510 H 239.644 3.42625 1.80795 0
M  V30 2511 H 240.058 5.22007 0.510793 0
M  V30 2512 H 241.532 5.0569 2.21318 0
M  V30 2513 H 242.009 3.44107 2.72923 0
M  V30 2514 H 242.615 4.08437 1.18572 0
M  V30 2515 N 240.93 -0.123565 1.57115 0
M  V30 2516 C 242.341 -0.681198 1.73829 0
M  V30 2517 C 242.692 -1.80535 0.768214 0
M  V30 2518 O 241.817 -2.16317 -0.0599103 0
M  V30 2519 C 242.412 -1.24246 3.15196 0
M  V30 2520 C 240.971 -1.74643 3.33432 0
M  V30 2521 C 240.118 -0.644284 2.69711 0
M  V30 2522 H 243.069 0.102315 1.5837 0
M  V30 2523 H 243.09 -2.11216 3.16493 0
M  V30 2524 H 242.602 -0.424062 3.85776 0
M  V30 2525 H 240.703 -2.58974 2.67886 0
M  V30 2526 H 240.816 -1.85902 4.41562 0
M  V30 2527 H 239.18 -1.07676 2.3082 0
M  V30 2528 H 239.963 0.163058 3.42913 0
M  V30 2529 N 242.408 -1.52605 -0.393616 0
M  V30 2530 C 243.371 -1.76415 -1.46323 0
M  V30 2531 C 244.371 -0.634126 -1.47768 0
M  V30 2532 O 245.561 -0.902142 -1.4902 0
M  V30 2533 C 242.693 -1.8607 -2.85641 0
M  V30 2534 H 243.886 -2.71916 -1.26498 0
M  V30 2535 H 241.439 -1.43257 -0.625073 0
M  V30 2536 H 242.174 -0.925378 -3.10817 0
M  V30 2537 H 241.959 -2.68235 -2.85993 0
M  V30 2538 H 243.449 -2.06179 -3.63153 0
M  V30 2539 N 243.887 0.651787 -1.4349 0
M  V30 2540 C 244.797 1.79368 -1.5121 0
M  V30 2541 C 245.813 1.69361 -0.399093 0
M  V30 2542 O 246.989 1.90505 -0.653431 0
M  V30 2543 C 244.054 3.15653 -1.43401 0
M  V30 2544 C 243.115 3.37446 -2.65384 0
M  V30 2545 C 242.348 4.67229 -2.57939 0
M  V30 2546 O 242.571 5.46676 -1.62792 0
M  V30 2547 O 241.505 4.90773 -3.48462 0
M  V30 2548 H 245.331 1.7581 -2.47638 0
M  V30 2549 H 242.916 0.810447 -1.25507 0
M  V30 2550 H 244.798 3.96935 -1.41494 0
M  V30 2551 H 243.473 3.19798 -0.501085 0
M  V30 2552 H 242.38 2.55923 -2.72863 0
M  V30 2553 H 243.713 3.38148 -3.57654 0
M  V30 2554 N 245.365 1.30045 0.890287 0
M  V30 2555 C 246.611 1.18737 1.64406 0
M  V30 2556 C 246.944 -0.258525 1.92472 0
M  V30 2557 O 246.219 -1.18562 1.54186 0
M  V30 2558 C 246.502 2.01087 2.98724 0
M  V30 2559 C 246.355 3.53867 2.77665 0
M  V30 2560 C 247.674 1.84457 3.9958 0
M  V30 2561 H 244.793 0.432698 0.596608 0
M  V30 2562 H 247.435 1.5962 1.0306 0
M  V30 2563 H 245.585 1.66349 3.51084 0
M  V30 2564 H 247.257 3.98637 2.32133 0
M  V30 2565 H 245.5 3.78318 2.12269 0
M  V30 2566 H 246.171 4.06772 3.7315 0
M  V30 2567 H 248.647 2.14817 3.56361 0
M  V30 2568 H 247.523 2.44411 4.91482 0
M  V30 2569 H 247.784 0.802276 4.3476 0
M  V30 2570 N 246.843 -1.10192 1.12674 0
M  V30 2571 C 247.773 -2.18652 0.819362 0
M  V30 2572 C 248.754 -1.68698 -0.217915 0
M  V30 2573 O 249.939 -1.94041 -0.0785581 0
M  V30 2574 C 247.069 -3.46202 0.27594 0
M  V30 2575 C 246.023 -4.09444 1.24656 0
M  V30 2576 C 245.349 -5.31725 0.563258 0
M  V30 2577 C 246.649 -4.52863 2.60217 0
M  V30 2578 H 248.343 -2.44622 1.72628 0
M  V30 2579 H 245.889 -1.17571 0.831451 0
M  V30 2580 H 247.842 -4.21372 0.0486149 0
M  V30 2581 H 246.566 -3.1973 -0.666331 0
M  V30 2582 H 245.225 -3.36284 1.45974 0
M  V30 2583 H 244.873 -5.0153 -0.384235 0
M  V30 2584 H 244.573 -5.74991 1.21075 0
M  V30 2585 H 246.097 -6.09624 0.34503 0
M  V30 2586 H 247.511 -5.19294 2.42913 0
M  V30 2587 H 245.908 -5.06986 3.21068 0
M  V30 2588 H 246.978 -3.65656 3.18471 0
M  V30 2589 N 248.321 -0.919034 -1.28029 0
M  V30 2590 C 249.568 -0.554934 -1.94748 0
M  V30 2591 C 249.896 0.90231 -1.72304 0
M  V30 2592 O 249.151 1.65767 -1.04018 0
M  V30 2593 C 249.45 -0.816855 -3.4794 0
M  V30 2594 C 249.116 -2.25448 -3.90492 0
M  V30 2595 C 247.778 -2.64752 -4.01821 0
M  V30 2596 C 250.13 -3.18977 -4.12193 0
M  V30 2597 C 247.458 -3.96727 -4.32232 0
M  V30 2598 C 249.81 -4.50523 -4.44086 0
M  V30 2599 C 248.474 -4.89673 -4.53626 0
M  V30 2600 H 247.744 -0.203065 -0.712633 0
M  V30 2601 H 250.391 -1.16136 -1.52265 0
M  V30 2602 H 248.696 -0.127677 -3.91592 0
M  V30 2603 H 250.393 -0.514238 -3.97689 0
M  V30 2604 H 246.983 -1.93952 -3.82205 0
M  V30 2605 H 251.167 -2.89817 -4.02889 0
M  V30 2606 H 246.423 -4.26754 -4.37825 0
M  V30 2607 H 250.597 -5.23005 -4.59825 0
M  V30 2608 H 248.224 -5.91969 -4.76946 0
M  V30 2609 N 249.799 1.42003 -0.683588 0
M  V30 2610 C 251.045 2.01712 -0.209825 0
M  V30 2611 C 251.378 1.53968 1.18353 0
M  V30 2612 O 250.653 0.745661 1.79639 0
M  V30 2613 C 250.936 3.59202 -0.254197 0
M  V30 2614 C 250.789 4.17102 -1.68363 0
M  V30 2615 C 252.108 4.38344 0.392709 0
M  V30 2616 H 249.227 0.732891 -0.0777189 0
M  V30 2617 H 251.869 1.68909 -0.87004 0
M  V30 2618 H 250.019 3.87278 0.307954 0
M  V30 2619 H 251.691 3.99946 -2.29871 0
M  V30 2620 H 249.934 3.72597 -2.22157 0
M  V30 2621 H 250.605 5.26249 -1.6663 0
M  V30 2622 H 253.081 4.16011 -0.0859162 0
M  V30 2623 H 251.957 5.47901 0.331063 0
M  V30 2624 H 252.218 4.16887 1.47164 0
M  V30 2625 N 251.277 0.427512 1.51691 0
M  V30 2626 C 252.502 -0.143601 2.06902 0
M  V30 2627 C 252.927 -1.36536 1.29382 0
M  V30 2628 O 252.285 -1.78289 0.329043 0
M  V30 2629 C 252.333 -0.454207 3.57728 0
M  V30 2630 O 251.437 -1.54228 3.82475 0
M  V30 2631 H 250.778 -0.00617128 0.663971 0
M  V30 2632 H 253.308 0.606014 1.95419 0
M  V30 2633 H 253.318 -0.707525 4.01818 0
M  V30 2634 H 251.993 0.438812 4.13579 0
M  V30 2635 H 250.57 -1.2797 3.50254 0
M  V30 2636 N 252.755 -1.56801 0.158532 0
M  V30 2637 C 253.98 -2.01295 -0.499516 0
M  V30 2638 C 254.405 -1.03799 -1.56867 0
M  V30 2639 O 253.763 -0.0155162 -1.81293 0
M  V30 2640 C 253.811 -3.44469 -1.06647 0
M  V30 2641 O 252.915 -3.50012 -2.18095 0
M  V30 2642 H 252.256 -0.652884 -0.12099 0
M  V30 2643 H 254.786 -2.02958 0.258661 0
M  V30 2644 H 254.796 -3.8351 -1.39227 0
M  V30 2645 H 253.471 -4.14932 -0.283581 0
M  V30 2646 H 252.048 -3.22822 -1.86656 0
M  V30 2647 N 254.233 0.115231 -1.57178 0
M  V30 2648 C 255.181 1.16014 -2.01602 0
M  V30 2649 C 256.175 1.42653 -0.913587 0
M  V30 2650 O 257.381 1.42571 -1.09879 0
M  V30 2651 H 253.756 0.391252 -0.642204 0
M  V30 2652 H 255.727 0.758998 -2.88586 0
M  V30 2653 C 254.476 2.47767 -2.4394 0
M  V30 2654 H 253.799 2.28108 -3.28339 0
M  V30 2655 H 255.239 3.19432 -2.78818 0
M  V30 2656 C 253.698 3.10617 -1.30455 0
M  V30 2657 O 254.228 3.96846 -0.622585 0
M  V30 2658 N 252.434 2.70553 -1.06064 0
M  V30 2659 H 251.981 2.00527 -1.61699 0
M  V30 2660 H 251.939 3.12934 -0.303284 0
M  V30 2661 N 255.711 1.52812 0.385517 0
M  V30 2662 C 256.959 1.67694 1.12797 0
M  V30 2663 C 257.28 0.421115 1.90399 0
M  V30 2664 O 256.55 -0.564551 1.87589 0
M  V30 2665 H 255.13 0.618155 0.419396 0
M  V30 2666 H 257.792 1.89938 0.436972 0
M  V30 2667 H 256.888 2.52896 1.82894 0
M  V30 2668 N 257.189 -0.644168 1.43834 0
M  V30 2669 C 258.436 -1.40395 1.4593 0
M  V30 2670 C 258.764 -1.94305 0.0869658 0
M  V30 2671 O 258.019 -1.73288 -0.909378 0
M  V30 2672 C 258.318 -2.59615 2.45631 0
M  V30 2673 C 257.984 -2.2407 3.91284 0
M  V30 2674 C 256.646 -2.14089 4.30952 0
M  V30 2675 C 258.998 -1.95775 4.83034 0
M  V30 2676 C 256.326 -1.73981 5.6031 0
M  V30 2677 C 258.678 -1.57163 6.12766 0
M  V30 2678 C 257.342 -1.45713 6.51402 0
M  V30 2679 H 256.612 -0.513741 0.533995 0
M  V30 2680 H 259.259 -0.731724 1.76969 0
M  V30 2681 H 257.564 -3.32011 2.08028 0
M  V30 2682 H 259.261 -3.17834 2.44504 0
M  V30 2683 H 255.851 -2.32753 3.59895 0
M  V30 2684 H 260.035 -2.02403 4.53152 0
M  V30 2685 H 255.291 -1.63709 5.89075 0
M  V30 2686 H 259.465 -1.34303 6.83327 0
M  V30 2687 H 257.092 -1.14406 7.51542 0
M  V30 2688 N 258.668 -1.30515 -0.883378 0
M  V30 2689 C 259.945 -1.10086 -1.6168 0
M  V30 2690 C 260.325 0.349269 -2.08191 0
M  V30 2691 O 259.673 1.34105 -1.85008 0
M  V30 2692 C 259.883 -2.10315 -2.78511 0
M  V30 2693 C 261.231 -2.42119 -3.48803 0
M  V30 2694 O 262.255 -2.08638 -2.88702 0
M  V30 2695 O 261.114 -2.99396 -4.57192 0
M  V30 2696 H 258.208 -0.422907 -0.710689 0
M  V30 2697 H 260.754 -1.41947 -0.930015 0
M  V30 2698 H 259.526 -3.07917 -2.41459 0
M  V30 2699 H 259.149 -1.79282 -3.54886 0
M  V30 2700 N 260.146 1.09593 -1.13257 0
M  V30 2701 C 261.392 1.82003 -0.89458 0
M  V30 2702 C 261.725 1.85402 0.577906 0
M  V30 2703 O 261 1.32099 1.42759 0
M  V30 2704 C 261.283 3.28237 -1.48096 0
M  V30 2705 C 261.136 3.3312 -3.02244 0
M  V30 2706 C 262.455 4.24871 -1.14774 0
M  V30 2707 H 259.574 0.66077 -0.326424 0
M  V30 2708 H 262.216 1.28389 -1.40058 0
M  V30 2709 H 260.366 3.74024 -1.05062 0
M  V30 2710 H 262.038 2.95748 -3.54021 0
M  V30 2711 H 260.281 2.72756 -3.37323 0
M  V30 2712 H 260.952 4.3613 -3.38371 0
M  V30 2713 H 263.428 3.87361 -1.51957 0
M  V30 2714 H 262.304 5.25532 -1.58452 0
M  V30 2715 H 262.565 4.42058 -0.0611849 0
M  V30 2716 N 261.624 0.925811 1.2754 0
M  V30 2717 C 262.872 0.564138 1.94067 0
M  V30 2718 C 263.193 -0.897188 1.73134 0
M  V30 2719 O 262.463 -1.63573 1.07799 0
M  V30 2720 H 261.043 0.205645 0.718136 0
M  V30 2721 H 263.705 1.1778 1.55287 0
M  V30 2722 H 262.801 0.76881 3.02483 0
M  V30 2723 N 263.102 -1.41638 0.69111 0
M  V30 2724 C 264.35 -2.00902 0.219758 0
M  V30 2725 C 264.671 -1.54994 -1.18329 0
M  V30 2726 O 263.941 -0.778628 -1.79762 0
M  V30 2727 H 262.521 -0.74289 0.0782558 0
M  V30 2728 H 265.183 -1.73327 0.891271 0
M  V30 2729 H 264.279 -3.11224 0.233708 0
M  V30 2730 N 264.58 -0.43555 -1.51462 0
M  V30 2731 C 265.543 0.365137 -2.26273 0
M  V30 2732 C 266.543 0.951227 -1.29647 0
M  V30 2733 O 267.733 0.825958 -1.53374 0
M  V30 2734 C 264.865 1.51645 -3.05314 0
M  V30 2735 H 266.058 -0.290474 -2.9849 0
M  V30 2736 H 263.611 -0.188676 -1.55157 0
M  V30 2737 H 264.346 2.20816 -2.3751 0
M  V30 2738 H 264.131 1.10238 -3.76284 0
M  V30 2739 H 265.621 2.08218 -3.61987 0
M  V30 2740 N 266.058 1.56714 -0.166846 0
M  V30 2741 C 267.005 2.17746 0.765193 0
M  V30 2742 C 267.975 1.11614 1.23011 0
M  V30 2743 O 269.16 1.39745 1.29908 0
M  V30 2744 C 266.3 2.81882 1.9909 0
M  V30 2745 C 265.413 4.02462 1.56997 0
M  V30 2746 C 264.548 4.54537 2.749 0
M  V30 2747 C 263.587 5.67538 2.29275 0
M  V30 2748 N 262.724 6.14142 3.40255 0
M  V30 2749 H 267.564 2.97048 0.237952 0
M  V30 2750 H 265.101 1.4672 0.105725 0
M  V30 2751 H 267.059 3.17221 2.70974 0
M  V30 2752 H 265.689 2.05191 2.49192 0
M  V30 2753 H 264.741 3.72973 0.748037 0
M  V30 2754 H 266.053 4.84273 1.19503 0
M  V30 2755 H 265.207 4.92035 3.54946 0
M  V30 2756 H 263.946 3.71774 3.1565 0
M  V30 2757 H 262.951 5.29597 1.47674 0
M  V30 2758 H 264.176 6.52099 1.89588 0
M  V30 2759 H 262.122 5.3431 3.8059 0
M  V30 2760 H 262.039 6.9093 3.06841 0
M  V30 2761 H 263.307 6.56289 4.206 0
M  V30 2762 N 267.536 -0.106894 1.57237 0
M  V30 2763 C 268.484 -1.14944 2.02215 0
M  V30 2764 C 269.478 -1.42167 0.92114 0
M  V30 2765 O 270.684 -1.41987 1.10634 0
M  V30 2766 H 267.059 -0.387841 0.64427 0
M  V30 2767 H 269.03 -0.743683 2.88984 0
M  V30 2768 C 267.779 -2.4647 2.4525 0
M  V30 2769 H 267.102 -2.26363 3.29545 0
M  V30 2770 H 268.542 -3.17948 2.80508 0
M  V30 2771 C 267.001 -3.09921 1.321 0
M  V30 2772 O 267.531 -3.9651 0.643622 0
M  V30 2773 N 265.737 -2.69986 1.07497 0
M  V30 2774 H 265.284 -1.99667 1.62761 0
M  V30 2775 H 265.242 -3.12769 0.319876 0
M  V30 2776 N 269.014 -1.53014 -0.377408 0
M  V30 2777 C 270.261 -1.68623 -1.12128 0
M  V30 2778 C 270.589 -0.431997 -1.89642 0
M  V30 2779 O 269.844 0.585855 -1.86725 0
M  V30 2780 C 270.143 -2.87982 -2.11663 0
M  V30 2781 C 269.809 -4.24964 -1.50719 0
M  V30 2782 C 268.471 -4.62217 -1.33825 0
M  V30 2783 C 270.823 -5.10199 -1.06519 0
M  V30 2784 C 268.151 -5.82352 -0.712963 0
M  V30 2785 C 270.503 -6.30969 -0.453955 0
M  V30 2786 C 269.167 -6.66944 -0.272411 0
M  V30 2787 H 268.437 -0.617034 -0.410305 0
M  V30 2788 H 271.084 -1.8718 -0.404484 0
M  V30 2789 H 269.389 -2.63889 -2.89603 0
M  V30 2790 H 271.086 -2.97253 -2.6915 0
M  V30 2791 H 267.676 -3.95626 -1.64858 0
M  V30 2792 H 271.86 -4.81978 -1.18368 0
M  V30 2793 H 267.116 -6.08824 -0.560611 0
M  V30 2794 H 271.29 -6.96324 -0.103217 0
M  V30 2795 H 268.917 -7.59898 0.214181 0
M  V30 2796 N 270.492 0.636531 -1.44174 0
M  V30 2797 C 271.74 1.39343 -1.46383 0
M  V30 2798 C 272.061 1.94766 -0.0955715 0
M  V30 2799 O 271.331 1.75452 0.871395 0
M  V30 2800 H 269.911 0.517199 -0.538994 0
M  V30 2801 H 272.573 0.74957 -1.7991 0
M  V30 2802 H 271.669 2.22746 -2.18611 0
M  V30 2803 N 271.97 1.30982 0.876444 0
M  V30 2804 C 273.217 1.20296 1.62896 0
M  V30 2805 C 273.545 -0.240395 1.93009 0
M  V30 2806 O 272.8 -1.18733 1.55567 0
M  V30 2807 C 273.099 1.98572 2.9716 0
M  V30 2808 C 272.765 3.48125 2.86566 0
M  V30 2809 C 271.427 3.88905 2.83383 0
M  V30 2810 C 273.779 4.43322 2.74071 0
M  V30 2811 C 271.107 5.2316 2.65556 0
M  V30 2812 C 273.459 5.77695 2.57781 0
M  V30 2813 C 272.123 6.17704 2.52979 0
M  V30 2814 H 271.393 0.440193 0.59608 0
M  V30 2815 H 274.04 1.62177 1.01837 0
M  V30 2816 H 272.345 1.49352 3.62217 0
M  V30 2817 H 274.042 1.8769 3.54364 0
M  V30 2818 H 270.632 3.15723 2.89856 0
M  V30 2819 H 274.816 4.12752 2.75589 0
M  V30 2820 H 270.072 5.53241 2.60259 0
M  V30 2821 H 274.246 6.51091 2.47089 0
M  V30 2822 H 271.873 7.21678 2.38924 0
M  V30 2823 N 273.449 -1.08991 1.13837 0
M  V30 2824 C 274.674 -1.85551 0.926585 0
M  V30 2825 C 275.099 -1.80782 -0.519566 0
M  V30 2826 O 274.457 -1.18855 -1.36906 0
M  V30 2827 C 274.505 -3.31266 1.42462 0
M  V30 2828 O 273.609 -4.07822 0.612789 0
M  V30 2829 H 272.95 -0.575192 0.331738 0
M  V30 2830 H 275.48 -1.37604 1.51414 0
M  V30 2831 H 275.49 -3.82112 1.43019 0
M  V30 2832 H 274.165 -3.34052 2.47754 0
M  V30 2833 H 272.742 -3.66731 0.675463 0
M  V30 2834 N 274.927 -0.932562 -1.27047 0
M  V30 2835 C 276.173 -0.576412 -1.94436 0
M  V30 2836 C 276.506 0.880891 -1.73072 0
M  V30 2837 O 275.781 1.62905 -1.06264 0
M  V30 2838 C 276.064 -0.909031 -3.48437 0
M  V30 2839 C 275.917 -2.42044 -3.79123 0
M  V30 2840 C 277.236 -0.418341 -4.38107 0
M  V30 2841 H 274.355 -0.210888 -0.706184 0
M  V30 2842 H 276.997 -1.16522 -1.50075 0
M  V30 2843 H 275.147 -0.407947 -3.86352 0
M  V30 2844 H 276.819 -2.99359 -3.50973 0
M  V30 2845 H 275.062 -2.86758 -3.25503 0
M  V30 2846 H 275.733 -2.6037 -4.86736 0
M  V30 2847 H 278.209 -0.847856 -4.0737 0
M  V30 2848 H 277.085 -0.679981 -5.44672 0
M  V30 2849 H 277.346 0.681642 -4.36814 0
M  V30 2850 N 276.405 1.4127 -0.698611 0
M  V30 2851 C 277.368 2.29158 -0.044132 0
M  V30 2852 C 278.368 1.44529 0.704841 0
M  V30 2853 O 279.558 1.65643 0.539276 0
M  V30 2854 C 276.69 3.27459 0.947809 0
M  V30 2855 H 277.883 2.88529 -0.817994 0
M  V30 2856 H 275.436 1.49307 -0.46228 0
M  V30 2857 H 276.171 2.73073 1.74933 0
M  V30 2858 H 275.956 3.8991 0.41385 0
M  V30 2859 H 277.446 3.93311 1.40344 0
M  V30 2860 N 277.883 0.443576 1.51229 0
M  V30 2861 C 279.299 0.0962001 1.5931 0
M  V30 2862 C 279.499 -1.39501 1.45402 0
M  V30 2863 O 278.555 -2.16557 1.29843 0
M  V30 2864 C 279.868 0.621875 2.94199 0
M  V30 2865 C 281.416 0.582865 3.07525 0
M  V30 2866 C 281.891 1.08562 4.44948 0
M  V30 2867 N 283.382 1.04387 4.51284 0
M  V30 2868 C 284.117 1.40368 5.55954 0
M  V30 2869 N 283.613 1.83664 6.68011 0
M  V30 2870 N 285.406 1.32145 5.46346 0
M  V30 2871 H 277.557 1.41376 1.58514 0
M  V30 2872 H 279.82 0.582965 0.747567 0
M  V30 2873 H 279.526 1.66546 3.09767 0
M  V30 2874 H 279.4 0.0502125 3.77167 0
M  V30 2875 H 281.787 -0.451749 2.91622 0
M  V30 2876 H 281.868 1.191 2.26382 0
M  V30 2877 H 281.512 2.11873 4.61598 0
M  V30 2878 H 281.442 0.453956 5.2464 0
M  V30 2879 H 283.933 0.725986 3.70861 0
M  V30 2880 H 284.246 2.0934 7.43906 0
M  V30 2881 H 282.591 1.87596 6.69203 0
M  V30 2882 H 285.782 0.981808 4.57688 0
M  V30 2883 H 285.955 1.60514 6.27805 0
M  V30 2884 N 279.361 -1.56624 0.175154 0
M  V30 2885 C 280.607 -1.9729 -0.469506 0
M  V30 2886 C 280.94 -1.06128 -1.62636 0
M  V30 2887 O 280.215 -0.109183 -1.94193 0
M  V30 2888 C 280.498 -3.47375 -0.948804 0
M  V30 2889 C 280.351 -4.49317 0.208491 0
M  V30 2890 C 281.67 -4.00652 -1.82116 0
M  V30 2891 H 278.789 -0.717317 -0.16919 0
M  V30 2892 H 281.431 -1.88184 0.262062 0
M  V30 2893 H 279.581 -3.55267 -1.57219 0
M  V30 2894 H 281.253 -4.53482 0.845682 0
M  V30 2895 H 279.496 -4.25121 0.863395 0
M  V30 2896 H 280.167 -5.51741 -0.169059 0
M  V30 2897 H 282.643 -3.95416 -1.2956 0
M  V30 2898 H 281.519 -5.06075 -2.12554 0
M  V30 2899 H 281.78 -3.44699 -2.7683 0
M  V30 2900 N 280.839 0.0985539 -1.57292 0
M  V30 2901 C 281.802 1.10402 -2.00858 0
M  V30 2902 C 282.802 1.33146 -0.901593 0
M  V30 2903 O 283.992 1.29318 -1.16716 0
M  V30 2904 C 281.124 2.45394 -2.36632 0
M  V30 2905 H 282.317 0.729099 -2.90902 0
M  V30 2906 H 279.87 0.343495 -1.52479 0
M  V30 2907 H 280.605 2.87769 -1.49531 0
M  V30 2908 H 280.39 2.30235 -3.17387 0
M  V30 2909 H 281.88 3.17718 -2.71007 0
M  V30 2910 N 282.317 1.53212 0.369288 0
M  V30 2911 C 283.733 1.42902 0.710712 0
M  V30 2912 C 283.933 0.565135 1.93413 0
M  V30 2913 O 282.989 0.0461484 2.52458 0
M  V30 2914 C 284.302 2.86042 0.927382 0
M  V30 2915 C 285.85 2.9565 1.02762 0
M  V30 2916 C 286.325 4.39843 1.27679 0
M  V30 2917 N 287.816 4.43256 1.34457 0
M  V30 2918 C 288.551 5.51929 1.55439 0
M  V30 2919 N 288.047 6.70655 1.73762 0
M  V30 2920 N 289.84 5.39502 1.57779 0
M  V30 2921 H 281.991 2.07888 -0.435457 0
M  V30 2922 H 284.254 0.938661 -0.132739 0
M  V30 2923 H 283.96 3.51557 0.100287 0
M  V30 2924 H 283.834 3.29472 1.83653 0
M  V30 2925 H 286.221 2.30291 1.84527 0
M  V30 2926 H 286.302 2.5562 0.0959504 0
M  V30 2927 H 285.946 5.05774 0.464175 0
M  V30 2928 H 285.876 4.77443 2.22162 0
M  V30 2929 H 288.367 3.5769 1.21926 0
M  V30 2930 H 288.68 7.49248 1.89335 0
M  V30 2931 H 287.025 6.73648 1.70948 0
M  V30 2932 H 290.216 4.45713 1.43029 0
M  V30 2933 H 290.389 6.2426 1.7379 0
M  V30 2934 N 283.795 -0.628877 1.44509 0
M  V30 2935 C 284.725 -1.75187 1.54376 0
M  V30 2936 C 285.706 -1.65411 0.396618 0
M  V30 2937 O 286.891 -1.84137 0.617031 0
M  V30 2938 C 284.021 -3.13725 1.48976 0
M  V30 2939 C 282.975 -3.38291 2.62189 0
M  V30 2940 C 282.301 -4.76883 2.41841 0
M  V30 2941 C 283.601 -3.30632 4.04326 0
M  V30 2942 H 285.295 -1.67187 2.48373 0
M  V30 2943 H 282.841 -0.802909 1.19538 0
M  V30 2944 H 284.794 -3.92064 1.54478 0
M  V30 2945 H 283.518 -3.22515 0.514961 0
M  V30 2946 H 282.177 -2.62334 2.56079 0
M  V30 2947 H 281.825 -4.82378 1.42548 0
M  V30 2948 H 281.525 -4.94278 3.17747 0
M  V30 2949 H 283.049 -5.57449 2.49165 0
M  V30 2950 H 284.463 -3.98873 4.11793 0
M  V30 2951 H 282.86 -3.59561 4.80454 0
M  V30 2952 H 283.93 -2.28404 4.27738 0
M  V30 2953 N 285.273 -1.31445 -0.869486 0
M  V30 2954 C 286.498 -1.24256 -1.66058 0
M  V30 2955 C 286.923 0.188928 -1.87149 0
M  V30 2956 O 286.281 1.13522 -1.4136 0
M  V30 2957 C 286.329 -1.9924 -3.00559 0
M  V30 2958 O 285.433 -1.33007 -3.90362 0
M  V30 2959 H 284.774 -0.428973 -0.506831 0
M  V30 2960 H 287.304 -1.73521 -1.08404 0
M  V30 2961 H 287.314 -2.08854 -3.50491 0
M  V30 2962 H 285.989 -3.03342 -2.84528 0
M  V30 2963 H 284.566 -1.31848 -3.48813 0
M  V30 2964 N 286.751 1.08385 -1.14413 0
M  V30 2965 C 287.683 2.1519 -0.789036 0
M  V30 2966 C 288.696 1.61638 0.19417 0
M  V30 2967 O 289.885 1.78479 -0.0275711 0
M  V30 2968 C 286.985 3.38565 -0.15058 0
M  V30 2969 C 286.158 4.21501 -1.16857 0
M  V30 2970 C 285.217 5.23277 -0.553832 0
M  V30 2971 O 284.243 5.56041 -1.21686 0
M  V30 2972 N 285.445 5.76629 0.669296 0
M  V30 2973 H 288.21 2.46257 -1.70814 0
M  V30 2974 H 285.771 1.24198 -1.03858 0
M  V30 2975 H 287.763 4.03777 0.273181 0
M  V30 2976 H 286.333 3.05299 0.671667 0
M  V30 2977 H 285.553 3.52265 -1.76926 0
M  V30 2978 H 286.841 4.73731 -1.85624 0
M  V30 2979 H 286.239 5.52243 1.22654 0
M  V30 2980 H 284.796 6.43521 1.03556 0
M  V30 2981 N 288.23 0.939286 1.26551 0
M  V30 2982 C 289.14 0.453432 2.30176 0
M  V30 2983 C 290.156 -0.471649 1.67486 0
M  V30 2984 O 291.332 -0.35164 1.98306 0
M  V30 2985 C 288.397 -0.275326 3.45605 0
M  V30 2986 C 287.458 0.686084 4.23782 0
M  V30 2987 C 286.691 -0.00798994 5.33699 0
M  V30 2988 O 286.914 -1.22528 5.57085 0
M  V30 2989 O 285.848 0.669746 5.98162 0
M  V30 2990 H 289.674 1.31416 2.73795 0
M  V30 2991 H 287.259 0.705095 1.31715 0
M  V30 2992 H 289.141 -0.685911 4.1578 0
M  V30 2993 H 287.816 -1.11147 3.0402 0
M  V30 2994 H 286.723 1.14658 3.56096 0
M  V30 2995 H 288.056 1.48979 4.69112 0
M  V30 2996 N 289.708 -1.40897 0.706093 0
M  V30 2997 C 290.671 -2.29131 0.0562841 0
M  V30 2998 C 291.671 -1.44901 -0.697166 0
M  V30 2999 O 292.861 -1.65926 -0.530484 0
M  V30 3000 C 289.993 -3.27957 -0.93043 0
M  V30 3001 H 291.186 -2.88091 0.833284 0
M  V30 3002 H 288.739 -1.4906 0.470192 0
M  V30 3003 H 289.474 -2.73997 -1.73482 0
M  V30 3004 H 289.259 -3.90124 -0.393166 0
M  V30 3005 H 290.749 -3.94049 -1.38256 0
M  V30 3006 N 291.186 -0.45159 -1.50991 0
M  V30 3007 C 292.116 0.342898 -2.30969 0
M  V30 3008 C 293.097 1.00815 -1.37005 0
M  V30 3009 O 294.282 1.00907 -1.65926 0
M  V30 3010 C 291.412 1.43637 -3.16205 0
M  V30 3011 C 290.366 0.893818 -4.18563 0
M  V30 3012 C 289.692 2.08411 -4.92411 0
M  V30 3013 C 290.992 -0.0815568 -5.22236 0
M  V30 3014 H 292.686 -0.324556 -2.97636 0
M  V30 3015 H 290.232 -0.157531 -1.43136 0
M  V30 3016 H 292.185 1.9995 -3.70942 0
M  V30 3017 H 290.909 2.13232 -2.47386 0
M  V30 3018 H 289.568 0.352798 -3.64898 0
M  V30 3019 H 289.216 2.76658 -4.20082 0
M  V30 3020 H 288.916 1.72741 -5.61636 0
M  V30 3021 H 290.44 2.65251 -5.49976 0
M  V30 3022 H 291.854 0.391742 -5.7196 0
M  V30 3023 H 290.251 -0.351551 -5.99069 0
M  V30 3024 H 291.321 -1.01374 -4.74185 0
M  V30 3025 N 292.664 1.56529 -0.183458 0
M  V30 3026 C 293.627 2.17324 0.728223 0
M  V30 3027 C 294.627 1.12453 1.14939 0
M  V30 3028 O 295.817 1.37902 1.06437 0
M  V30 3029 C 292.949 2.76591 1.99274 0
M  V30 3030 H 294.142 2.99241 0.198772 0
M  V30 3031 H 291.695 1.5616 0.0661391 0
M  V30 3032 H 292.43 1.98441 2.56499 0
M  V30 3033 H 292.215 3.5335 1.69959 0
M  V30 3034 H 293.705 3.23311 2.6431 0
M  V30 3035 N 294.142 -0.090211 1.57342 0
M  V30 3036 C 295.558 -0.444547 1.53284 0
M  V30 3037 C 295.758 -1.80238 0.900914 0
M  V30 3038 O 294.814 -2.4759 0.495513 0
M  V30 3039 C 296.127 -0.402543 2.97993 0
M  V30 3040 C 297.675 -0.48405 3.09234 0
M  V30 3041 C 298.15 -0.472144 4.5556 0
M  V30 3042 N 299.641 -0.532757 4.60126 0
M  V30 3043 C 300.376 -0.545462 5.708 0
M  V30 3044 N 299.872 -0.514082 6.9089 0
M  V30 3045 N 301.665 -0.59064 5.58988 0
M  V30 3046 H 293.816 0.799121 1.96794 0
M  V30 3047 H 296.079 0.297965 0.899956 0
M  V30 3048 H 295.785 0.528106 3.47712 0
M  V30 3049 H 295.659 -1.21969 3.56936 0
M  V30 3050 H 298.046 -1.40512 2.595 0
M  V30 3051 H 298.127 0.361328 2.53235 0
M  V30 3052 H 297.771 0.445 5.05947 0
M  V30 3053 H 297.701 -1.3348 5.09402 0
M  V30 3054 H 300.192 -0.562006 3.73698 0
M  V30 3055 H 300.505 -0.527195 7.71 0
M  V30 3056 H 298.85 -0.481054 6.93333 0
M  V30 3057 H 302.041 -0.61272 4.64073 0
M  V30 3058 H 302.214 -0.597073 6.45243 0
M  V30 3059 N 295.62 -1.53406 -0.361157 0
M  V30 3060 C 296.53 -1.83122 -1.4664 0
M  V30 3061 C 297.546 -0.719943 -1.58407 0
M  V30 3062 O 298.722 -1.01046 -1.74218 0
M  V30 3063 C 295.787 -2.01891 -2.81853 0
M  V30 3064 C 294.848 -3.25784 -2.79577 0
M  V30 3065 C 294.081 -3.43648 -4.0834 0
M  V30 3066 O 294.304 -2.65714 -5.0473 0
M  V30 3067 O 293.238 -4.37018 -4.13883 0
M  V30 3068 H 297.064 -2.7703 -1.24451 0
M  V30 3069 H 294.649 -1.38841 -0.551678 0
M  V30 3070 H 296.531 -2.15782 -3.61962 0
M  V30 3071 H 295.206 -1.11173 -3.0401 0
M  V30 3072 H 294.113 -3.17312 -1.98151 0
M  V30 3073 H 295.446 -4.16439 -2.62373 0
M  V30 3074 N 297.098 0.621204 -1.44841 0
M  V30 3075 C 298.028 1.74366 -1.55303 0
M  V30 3076 C 299.009 1.65199 -0.405385 0
M  V30 3077 O 300.194 1.83807 -0.626787 0
M  V30 3078 C 297.324 3.12931 -1.50637 0
M  V30 3079 C 296.278 3.36896 -2.63979 0
M  V30 3080 C 295.604 4.75594 -2.44366 0
M  V30 3081 C 296.904 3.28483 -4.06074 0
M  V30 3082 H 298.598 1.65867 -2.49256 0
M  V30 3083 H 296.144 0.796558 -1.19962 0
M  V30 3084 H 298.097 3.9124 -1.56555 0
M  V30 3085 H 296.821 3.22237 -0.532057 0
M  V30 3086 H 295.48 2.60972 -2.57467 0
M  V30 3087 H 295.128 4.81616 -1.45105 0
M  V30 3088 H 294.828 4.92586 -3.20364 0
M  V30 3089 H 296.352 5.5612 -2.52117 0
M  V30 3090 H 297.766 3.96684 -4.13902 0
M  V30 3091 H 296.163 3.57008 -4.82354 0
M  V30 3092 H 297.233 2.26133 -4.28943 0
M  V30 3093 N 298.576 1.31904 0.862503 0
M  V30 3094 C 299.822 1.22197 1.61851 0
M  V30 3095 C 300.155 -0.217641 1.92977 0
M  V30 3096 O 299.43 -1.15264 1.56666 0
M  V30 3097 C 299.713 2.07378 2.94391 0
M  V30 3098 C 299.566 3.59678 2.70096 0
M  V30 3099 C 300.885 1.92891 3.95577 0
M  V30 3100 H 298.004 0.445255 0.587296 0
M  V30 3101 H 300.646 1.6177 0.99651 0
M  V30 3102 H 298.796 1.73758 3.47477 0
M  V30 3103 H 300.468 4.03472 2.23625 0
M  V30 3104 H 298.711 3.82735 2.04197 0
M  V30 3105 H 299.382 4.14595 3.64438 0
M  V30 3106 H 301.858 2.22327 3.51724 0
M  V30 3107 H 300.734 2.54781 4.86187 0
M  V30 3108 H 300.995 0.894315 4.3296 0
M  V30 3109 N 300.054 -1.07777 1.14986 0
M  V30 3110 C 301.279 -1.84558 0.946213 0
M  V30 3111 C 301.704 -1.81323 -0.500362 0
M  V30 3112 O 301.062 -1.20301 -1.35637 0
M  V30 3113 C 301.11 -3.29736 1.45968 0
M  V30 3114 O 300.214 -4.07149 0.65601 0
M  V30 3115 H 299.555 -0.571641 0.33782 0
M  V30 3116 H 302.085 -1.35991 1.52865 0
M  V30 3117 H 302.095 -3.80574 1.47063 0
M  V30 3118 H 300.77 -3.31406 2.51283 0
M  V30 3119 H 299.347 -3.65994 0.714322 0
M  V30 3120 N 301.532 -0.945985 -1.26051 0
M  V30 3121 C 302.78 -0.594941 -1.93145 0
M  V30 3122 C 303.101 0.86953 -1.7454 0
M  V30 3123 O 302.371 1.61838 -1.10387 0
M  V30 3124 H 300.951 -0.217044 -0.714773 0
M  V30 3125 H 303.613 -1.20235 -1.53393 0
M  V30 3126 H 302.709 -0.816835 -3.01221 0
M  V30 3127 N 303.011 1.40521 -0.713556 0
M  V30 3128 C 304.239 2.05237 -0.261775 0
M  V30 3129 C 304.654 1.53755 1.09567 0
M  V30 3130 O 304.011 0.693268 1.6882 0
M  V30 3131 C 304.062 3.60763 -0.230706 0
M  V30 3132 O 303.783 4.10345 -1.53455 0
M  V30 3133 C 305.284 4.42651 0.239874 0
M  V30 3134 H 302.504 0.660533 -0.118057 0
M  V30 3135 H 305.048 1.79967 -0.971192 0
M  V30 3136 H 303.203 3.8501 0.429661 0
M  V30 3137 H 303.617 5.04526 -1.43366 0
M  V30 3138 H 305.091 5.51599 0.210468 0
M  V30 3139 H 305.568 4.20082 1.28171 0
M  V30 3140 H 306.174 4.23507 -0.390142 0
M  V30 3141 N 304.489 0.459591 1.5075 0
M  V30 3142 C 305.738 -0.100971 2.01447 0
M  V30 3143 C 306.051 -1.41816 1.34713 0
M  V30 3144 O 307.257 -2.06299 1.76502 0
M  V30 3145 C 305.713 -0.23047 3.59161 0
M  V30 3146 C 305.321 1.0776 4.34847 0
M  V30 3147 C 307.065 -0.743608 4.17936 0
M  V30 3148 C 304.972 0.91253 5.84317 0
M  V30 3149 H 303.902 -0.0415102 0.752856 0
M  V30 3150 H 306.553 0.592742 1.73663 0
M  V30 3151 H 304.935 -0.987703 3.83485 0
M  V30 3152 H 306.109 1.8449 4.22256 0
M  V30 3153 H 304.424 1.52097 3.87628 0
M  V30 3154 H 307.021 -0.883959 5.27343 0
M  V30 3155 H 307.364 -1.73196 3.78562 0
M  V30 3156 H 307.897 -0.04408 3.97776 0
M  V30 3157 H 304.636 1.87391 6.28144 0
M  V30 3158 H 304.156 0.185422 5.99513 0
M  V30 3159 H 305.835 0.574547 6.44444 0
M  V30 3160 N 305.967 -1.56429 0.191757 0
M  V30 3161 C 306.93 -2.17707 -0.716688 0
M  V30 3162 C 307.93 -1.13061 -1.14341 0
M  V30 3163 O 309.12 -1.38464 -1.05704 0
M  V30 3164 C 306.252 -2.77644 -1.97804 0
M  V30 3165 H 307.445 -2.99342 -0.1829 0
M  V30 3166 H 304.998 -1.56193 -0.0578566 0
M  V30 3167 H 305.733 -1.99799 -2.55443 0
M  V30 3168 H 305.518 -3.54246 -1.68083 0
M  V30 3169 H 307.008 -3.24708 -2.62592 0
M  V30 3170 N 307.445 0.0818655 -1.57387 0
M  V30 3171 C 308.856 0.634871 -1.75574 0
M  V30 3172 C 309.207 1.78435 -0.815809 0
M  V30 3173 O 308.332 2.164 0.0025366 0
M  V30 3174 C 308.927 1.15845 -3.18379 0
M  V30 3175 C 307.486 1.65741 -3.37945 0
M  V30 3176 C 306.633 0.572549 -2.71325 0
M  V30 3177 H 309.584 -0.144268 -1.58043 0
M  V30 3178 H 309.605 2.02751 -3.21982 0
M  V30 3179 H 309.117 0.321631 -3.86765 0
M  V30 3180 H 307.218 2.51781 -2.74658 0
M  V30 3181 H 307.331 1.74129 -4.46336 0
M  V30 3182 H 305.695 1.01518 -2.33594 0
M  V30 3183 H 306.478 -0.253918 -3.4236 0
M  V30 3184 N 308.923 1.53595 0.353017 0
M  V30 3185 C 309.853 1.83902 1.43883 0
M  V30 3186 C 310.834 0.693421 1.55324 0
M  V30 3187 O 312.019 0.944452 1.69687 0
M  V30 3188 C 309.149 2.04016 2.8106 0
M  V30 3189 C 308.103 3.19814 2.84434 0
M  V30 3190 C 307.429 3.25244 4.24406 0
M  V30 3191 C 308.729 4.58133 2.50822 0
M  V30 3192 H 310.423 2.74835 1.1877 0
M  V30 3193 H 307.969 1.32242 0.569917 0
M  V30 3194 H 309.922 2.238 3.57059 0
M  V30 3195 H 308.646 1.09804 3.07588 0
M  V30 3196 H 307.305 2.9987 2.10887 0
M  V30 3197 H 306.953 2.28646 4.48029 0
M  V30 3198 H 306.653 4.03054 4.27576 0
M  V30 3199 H 308.177 3.47228 5.0226 0
M  V30 3200 H 309.591 4.77995 3.16534 0
M  V30 3201 H 307.988 5.38276 2.6529 0
M  V30 3202 H 309.058 4.62387 1.46034 0
M  V30 3203 N 310.401 -0.613514 1.45168 0
M  V30 3204 C 311.629 -1.39946 1.5239 0
M  V30 3205 C 312.044 -1.88167 0.154531 0
M  V30 3206 O 311.401 -1.61872 -0.842843 0
M  V30 3207 C 311.452 -2.60795 2.50337 0
M  V30 3208 O 311.173 -2.1458 3.81952 0
M  V30 3209 C 312.674 -3.53723 2.67198 0
M  V30 3210 H 309.894 -0.428593 0.516284 0
M  V30 3211 H 312.438 -0.748753 1.903 0
M  V30 3212 H 310.593 -3.21919 2.15515 0
M  V30 3213 H 311.007 -2.93055 4.34993 0
M  V30 3214 H 312.481 -4.35079 3.39721 0
M  V30 3215 H 312.958 -4.0368 1.73029 0
M  V30 3216 H 313.564 -2.98456 3.02992 0
M  V30 3217 N 311.879 -1.3236 -0.855495 0
M  V30 3218 C 312.812 -1.15559 -1.96777 0
M  V30 3219 C 313.79 -0.0552681 -1.62506 0
M  V30 3220 O 314.974 -0.214419 -1.87277 0
M  V30 3221 C 312.101 -0.768851 -3.29858 0
M  V30 3222 C 311.147 -1.87429 -3.83109 0
M  V30 3223 S 311.98 -3.48243 -4.06801 0
M  V30 3224 C 313.136 -3.11539 -5.42858 0
M  V30 3225 H 313.369 -2.09717 -2.10727 0
M  V30 3226 H 310.902 -1.17011 -1.00737 0
M  V30 3227 H 312.86 -0.55248 -4.06765 0
M  V30 3228 H 311.521 0.153857 -3.13723 0
M  V30 3229 H 310.714 -1.55667 -4.79358 0
M  V30 3230 H 310.316 -2.04647 -3.13042 0
M  V30 3231 H 312.608 -2.61331 -6.2507 0
M  V30 3232 H 313.551 -4.06806 -5.79582 0
M  V30 3233 H 313.959 -2.48582 -5.06821 0
M  V30 3234 N 313.357 1.07166 -1.15556 0
M  V30 3235 C 314.604 1.79798 -0.931604 0
M  V30 3236 C 314.932 1.8682 0.54115 0
M  V30 3237 O 314.187 1.34942 1.41736 0
M  V30 3238 C 314.486 3.24707 -1.49332 0
M  V30 3239 C 314.152 3.37781 -2.98688 0
M  V30 3240 C 312.814 3.41057 -3.39461 0
M  V30 3241 C 315.166 3.40424 -3.94665 0
M  V30 3242 C 312.494 3.4458 -4.74849 0
M  V30 3243 C 314.846 3.45485 -5.29927 0
M  V30 3244 C 313.51 3.47039 -5.70193 0
M  V30 3245 H 312.78 0.657928 -0.340898 0
M  V30 3246 H 315.427 1.26091 -1.44129 0
M  V30 3247 H 313.732 3.81208 -0.904859 0
M  V30 3248 H 315.429 3.79486 -1.29582 0
M  V30 3249 H 312.019 3.35932 -2.66172 0
M  V30 3250 H 316.203 3.37113 -3.64237 0
M  V30 3251 H 311.459 3.44083 -5.05388 0
M  V30 3252 H 315.633 3.46476 -6.04092 0
M  V30 3253 H 313.26 3.49522 -6.75084 0
M  V30 3254 N 314.835 0.952656 1.25548 0
M  V30 3255 C 315.782 0.47008 2.25962 0
M  V30 3256 C 316.752 -0.476384 1.59122 0
M  V30 3257 O 317.937 -0.39007 1.8677 0
M  V30 3258 C 315.077 -0.247881 3.44209 0
M  V30 3259 C 314.19 0.735591 4.25691 0
M  V30 3260 C 313.325 -0.0047306 5.312 0
M  V30 3261 C 312.364 0.969805 6.04368 0
M  V30 3262 N 311.501 0.260486 7.01617 0
M  V30 3263 H 316.341 1.33126 2.66611 0
M  V30 3264 H 313.878 0.66765 1.31076 0
M  V30 3265 H 315.836 -0.680695 4.1161 0
M  V30 3266 H 314.466 -1.07312 3.0444 0
M  V30 3267 H 313.518 1.28689 3.57971 0
M  V30 3268 H 314.83 1.47934 4.76358 0
M  V30 3269 H 313.984 -0.496275 6.04667 0
M  V30 3270 H 312.723 -0.781282 4.81401 0
M  V30 3271 H 311.728 1.47237 5.29718 0
M  V30 3272 H 312.953 1.74655 6.56256 0
M  V30 3273 H 310.899 -0.497364 6.54112 0
M  V30 3274 H 310.816 0.943362 7.50091 0
M  V30 3275 H 312.084 -0.209587 7.79218 0
M  V30 3276 N 316.313 -1.40141 0.720998 0
M  V30 3277 C 317.276 -2.29058 0.0805834 0
M  V30 3278 C 318.276 -1.45632 -0.681758 0
M  V30 3279 O 319.466 -1.6648 -0.512856 0
M  V30 3280 C 316.598 -3.28925 -0.895593 0
M  V30 3281 H 317.791 -2.87191 0.863793 0
M  V30 3282 H 315.344 -1.48553 0.485975 0
M  V30 3283 H 316.079 -2.75822 -1.70566 0
M  V30 3284 H 315.864 -3.90519 -0.351766 0
M  V30 3285 H 317.354 -3.95494 -1.34069 0
M  V30 3286 N 317.792 -0.46758 -1.50504 0
M  V30 3287 C 318.722 0.318381 -2.31319 0
M  V30 3288 C 319.703 0.993564 -1.38066 0
M  V30 3289 O 320.888 0.991411 -1.66987 0
M  V30 3290 C 318.018 1.40275 -3.17711 0
M  V30 3291 C 316.972 0.849373 -4.19487 0
M  V30 3292 C 316.298 2.03177 -4.94594 0
M  V30 3293 C 317.598 -0.136942 -5.2212 0
M  V30 3294 H 319.292 -0.356106 -2.97275 0
M  V30 3295 H 316.838 -0.172703 -1.42961 0
M  V30 3296 H 318.791 1.96004 -3.73042 0
M  V30 3297 H 317.515 2.10596 -2.49634 0
M  V30 3298 H 316.174 0.314076 -3.65252 0
M  V30 3299 H 315.822 2.72187 -4.22993 0
M  V30 3300 H 315.522 1.66774 -5.63436 0
M  V30 3301 H 317.046 2.59403 -5.52759 0
M  V30 3302 H 318.46 0.331056 -5.72343 0
M  V30 3303 H 316.857 -0.41507 -5.98663 0
M  V30 3304 H 317.927 -1.06398 -4.73083 0
M  V30 3305 N 319.27 1.56325 -0.20005 0
M  V30 3306 C 320.686 1.58839 0.155716 0
M  V30 3307 C 320.886 1.21636 1.60645 0
M  V30 3308 O 319.942 0.941437 2.34293 0
M  V30 3309 C 321.255 3.0032 -0.151124 0
M  V30 3310 C 322.803 3.12866 -0.0916284 0
M  V30 3311 C 323.278 4.56488 -0.371845 0
M  V30 3312 N 324.769 4.62089 -0.320641 0
M  V30 3313 C 325.504 5.71116 -0.511243 0
M  V30 3314 N 325 6.88592 -0.762461 0
M  V30 3315 N 326.793 5.60335 -0.445157 0
M  V30 3316 H 318.944 1.78788 -1.14668 0
M  V30 3317 H 321.207 0.829996 -0.458051 0
M  V30 3318 H 320.913 3.32117 -1.15721 0
M  V30 3319 H 320.787 3.73257 0.543986 0
M  V30 3320 H 323.174 2.80878 0.905065 0
M  V30 3321 H 323.255 2.42304 -0.81989 0
M  V30 3322 H 322.899 4.89189 -1.36588 0
M  V30 3323 H 322.829 5.25246 0.377362 0
M  V30 3324 H 325.32 3.77665 -0.13329 0
M  V30 3325 H 325.633 7.67581 -0.896576 0
M  V30 3326 H 323.978 6.90387 -0.799412 0
M  V30 3327 H 327.169 4.67436 -0.249278 0
M  V30 3328 H 327.342 6.45243 -0.597116 0
M  V30 3329 N 320.748 -0.0735177 1.57428 0
M  V30 3330 C 321.681 -1.11932 1.98863 0
M  V30 3331 C 322.659 -1.37666 0.865266 0
M  V30 3332 O 323.843 -1.51068 1.12742 0
M  V30 3333 C 320.97 -2.46403 2.32386 0
M  V30 3334 C 320.016 -2.36815 3.54713 0
M  V30 3335 S 320.849 -1.76392 5.05614 0
M  V30 3336 C 322.005 -3.12444 5.42337 0
M  V30 3337 H 322.238 -0.766212 2.87257 0
M  V30 3338 H 319.771 -0.281987 1.51803 0
M  V30 3339 H 321.729 -3.23755 2.52375 0
M  V30 3340 H 320.39 -2.78876 1.44524 0
M  V30 3341 H 319.583 -3.35977 3.7568 0
M  V30 3342 H 319.185 -1.67598 3.34345 0
M  V30 3343 H 321.477 -4.08753 5.40303 0
M  V30 3344 H 322.42 -2.96258 6.43146 0
M  V30 3345 H 322.828 -3.1297 4.69798 0
M  V30 3346 N 322.226 -1.5378 -0.344866 0
M  V30 3347 C 323.642 -1.44015 -0.687888 0
M  V30 3348 C 323.842 -0.595834 -1.92489 0
M  V30 3349 O 322.898 -0.0863064 -2.52352 0
M  V30 3350 C 324.211 -2.87481 -0.881758 0
M  V30 3351 C 325.759 -2.97247 -0.980459 0
M  V30 3352 C 326.234 -4.41819 -1.20665 0
M  V30 3353 N 327.725 -4.45339 -1.27389 0
M  V30 3354 C 328.46 -5.54333 -1.46639 0
M  V30 3355 N 327.956 -6.73335 -1.63071 0
M  V30 3356 N 329.749 -5.41944 -1.49176 0
M  V30 3357 H 321.9 -2.07169 0.468475 0
M  V30 3358 H 324.163 -0.93643 0.147655 0
M  V30 3359 H 323.869 -3.51672 -0.0443444 0
M  V30 3360 H 323.743 -3.32352 -1.78388 0
M  V30 3361 H 326.13 -2.33197 -1.8084 0
M  V30 3362 H 326.211 -2.5574 -0.0552713 0
M  V30 3363 H 325.855 -5.06449 -0.383652 0
M  V30 3364 H 325.785 -4.80917 -2.14539 0
M  V30 3365 H 328.276 -3.59585 -1.1622 0
M  V30 3366 H 328.589 -7.52165 -1.77391 0
M  V30 3367 H 326.934 -6.76282 -1.60209 0
M  V30 3368 H 330.125 -4.47932 -1.3592 0
M  V30 3369 H 330.298 -6.26946 -1.63837 0
M  V30 3370 N 323.704 0.605807 -1.45491 0
M  V30 3371 C 324.614 1.74466 -1.56839 0
M  V30 3372 C 325.63 1.68006 -0.452772 0
M  V30 3373 O 326.806 1.8833 -0.713708 0
M  V30 3374 C 323.871 3.10931 -1.53371 0
M  V30 3375 C 322.932 3.28832 -2.75986 0
M  V30 3376 C 322.165 4.58787 -2.72673 0
M  V30 3377 O 322.388 5.4122 -1.80102 0
M  V30 3378 O 321.322 4.79438 -3.63899 0
M  V30 3379 H 325.148 1.67843 -2.53106 0
M  V30 3380 H 322.733 0.770108 -1.28022 0
M  V30 3381 H 324.615 3.92233 -1.54051 0
M  V30 3382 H 323.29 3.18042 -0.602572 0
M  V30 3383 H 322.197 2.47112 -2.80867 0
M  V30 3384 H 323.53 3.26599 -3.68231 0
M  V30 3385 N 325.182 1.32811 0.848464 0
M  V30 3386 C 326.092 1.24278 1.98978 0
M  V30 3387 C 327.108 0.155176 1.73307 0
M  V30 3388 O 328.284 0.376999 1.9784 0
M  V30 3389 C 325.349 0.972444 3.32783 0
M  V30 3390 C 324.41 2.14911 3.71634 0
M  V30 3391 C 323.643 1.89157 4.99054 0
M  V30 3392 O 323.866 0.837165 5.64223 0
M  V30 3393 O 322.8 2.75433 5.35183 0
M  V30 3394 H 326.626 2.20238 2.09115 0
M  V30 3395 H 324.211 1.12762 0.980052 0
M  V30 3396 H 326.093 0.838432 4.12975 0
M  V30 3397 H 324.768 0.043051 3.23671 0
M  V30 3398 H 323.675 2.33862 2.91992 0
M  V30 3399 H 325.008 3.06151 3.85399 0
M  V30 3400 N 326.66 -1.06551 1.16123 0
M  V30 3401 C 327.888 -1.83005 0.965237 0
M  V30 3402 C 328.303 -1.82423 -0.486542 0
M  V30 3403 O 327.66 -1.24152 -1.33763 0
M  V30 3404 C 327.711 -3.29733 1.48183 0
M  V30 3405 O 327.432 -3.30416 2.87674 0
M  V30 3406 C 328.933 -4.22926 1.32848 0
M  V30 3407 H 326.153 -0.577118 0.342309 0
M  V30 3408 H 328.697 -1.3445 1.54089 0
M  V30 3409 H 326.852 -3.75609 0.948517 0
M  V30 3410 H 327.266 -4.22149 3.11272 0
M  V30 3411 H 328.74 -5.23916 1.73827 0
M  V30 3412 H 329.217 -4.38346 0.273692 0
M  V30 3413 H 329.823 -3.82894 1.85127 0
M  V30 3414 N 328.138 -0.959301 -1.25041 0
M  V30 3415 C 329.368 -0.63303 -1.96663 0
M  V30 3416 C 329.776 0.800031 -1.71453 0
M  V30 3417 O 329.119 1.54736 -0.99008 0
M  V30 3418 C 329.181 -0.817523 -3.50081 0
M  V30 3419 C 328.845 -2.22863 -3.98975 0
M  V30 3420 C 329.842 -3.20569 -4.09306 0
M  V30 3421 C 327.527 -2.55407 -4.32519 0
M  V30 3422 C 329.521 -4.4891 -4.52503 0
M  V30 3423 C 327.208 -3.83976 -4.754 0
M  V30 3424 C 328.206 -4.8054 -4.85356 0
M  V30 3425 O 327.894 -6.06817 -5.27284 0
M  V30 3426 H 327.626 -0.235866 -0.633516 0
M  V30 3427 H 330.18 -1.2874 -1.60047 0
M  V30 3428 H 328.41 -0.105992 -3.86555 0
M  V30 3429 H 330.099 -0.491604 -4.02912 0
M  V30 3430 H 330.865 -2.96753 -3.83618 0
M  V30 3431 H 326.744 -1.8097 -4.23994 0
M  V30 3432 H 330.288 -5.24283 -4.60188 0
M  V30 3433 H 326.185 -4.07596 -5.00535 0
M  V30 3434 H 326.953 -6.10262 -5.45457 0
M  V30 3435 N 329.616 1.39756 -0.72842 0
M  V30 3436 C 330.579 2.29012 -0.0927297 0
M  V30 3437 C 331.579 1.45992 0.674025 0
M  V30 3438 O 332.769 1.66749 0.50402 0
M  V30 3439 C 329.901 3.29396 0.878137 0
M  V30 3440 H 331.094 2.86729 -0.879011 0
M  V30 3441 H 328.647 1.48293 -0.493847 0
M  V30 3442 H 329.382 2.76722 1.69101 0
M  V30 3443 H 329.167 3.907 0.331051 0
M  V30 3444 H 330.657 3.96199 1.3197 0
M  V30 3445 N 331.094 0.475555 1.50254 0
M  V30 3446 C 332.004 -0.321501 2.32387 0
M  V30 3447 C 333.02 -0.991755 1.42969 0
M  V30 3448 O 334.196 -0.978747 1.76018 0
M  V30 3449 C 331.261 -1.38667 3.17762 0
M  V30 3450 C 330.322 -0.732538 4.23004 0
M  V30 3451 C 329.555 -1.74695 5.04299 0
M  V30 3452 O 329.778 -2.97399 4.86734 0
M  V30 3453 O 328.712 -1.31631 5.8733 0
M  V30 3454 H 332.538 0.350071 3.01676 0
M  V30 3455 H 330.123 0.237321 1.47503 0
M  V30 3456 H 332.005 -2.00354 3.70724 0
M  V30 3457 H 330.68 -2.04163 2.51196 0
M  V30 3458 H 329.587 -0.0765902 3.74022 0
M  V30 3459 H 330.92 -0.120452 4.92053 0
M  V30 3460 N 332.573 -1.56217 0.208337 0
M  V30 3461 C 333.536 -2.18455 -0.693557 0
M  V30 3462 C 334.536 -1.14268 -1.13135 0
M  V30 3463 O 335.726 -1.39577 -1.0423 0
M  V30 3464 C 332.858 -2.79727 -1.94848 0
M  V30 3465 H 334.051 -2.99519 -0.15114 0
M  V30 3466 H 331.604 -1.56245 -0.041287 0
M  V30 3467 H 332.339 -2.02497 -2.53309 0
M  V30 3468 H 332.124 -3.56009 -1.64316 0
M  V30 3469 H 333.614 -3.27475 -2.59133 0
M  V30 3470 N 334.051 0.0651679 -1.57465 0
M  V30 3471 C 335.462 0.616213 -1.76238 0
M  V30 3472 C 335.813 1.7756 -0.834689 0
M  V30 3473 O 334.938 2.1639 -0.0204156 0
M  V30 3474 C 335.533 1.12462 -3.1959 0
M  V30 3475 C 334.092 1.62147 -3.39684 0
M  V30 3476 C 333.239 0.543739 -2.71917 0
M  V30 3477 H 336.19 -0.161022 -1.57881 0
M  V30 3478 H 336.211 1.99324 -3.24114 0
M  V30 3479 H 335.723 0.280592 -3.87084 0
M  V30 3480 H 333.824 2.48854 -2.77313 0
M  V30 3481 H 333.937 1.69385 -4.48158 0
M  V30 3482 H 332.301 0.990352 -2.34657 0
M  V30 3483 H 333.084 -0.290216 -3.42071 0
M  V30 3484 N 335.529 1.53961 0.336706 0
M  V30 3485 C 336.806 1.62171 1.09361 0
M  V30 3486 C 337.186 0.447263 2.06307 0
M  V30 3487 O 336.534 -0.559802 2.21537 0
M  V30 3488 C 336.744 2.98565 1.80721 0
M  V30 3489 C 338.092 3.54157 2.34218 0
M  V30 3490 O 339.116 3.00784 1.90807 0
M  V30 3491 O 337.975 4.47528 3.13657 0
M  V30 3492 H 335.069 0.6562 0.503319 0
M  V30 3493 H 337.615 1.66307 0.33765 0
M  V30 3494 H 336.387 3.75482 1.10132 0
M  V30 3495 H 336.01 2.9805 2.63158 0
M  V30 3496 N 337.007 -0.598083 1.45811 0
M  V30 3497 C 338.254 -1.35681 1.50323 0
M  V30 3498 C 338.582 -1.9393 0.148739 0
M  V30 3499 O 337.837 -1.76094 -0.853787 0
M  V30 3500 C 338.136 -2.51669 2.53766 0
M  V30 3501 C 337.802 -2.11508 3.98215 0
M  V30 3502 C 336.464 -2.0027 4.37545 0
M  V30 3503 C 338.816 -1.80308 4.89018 0
M  V30 3504 C 336.144 -1.56067 5.65562 0
M  V30 3505 C 338.496 -1.37589 6.17456 0
M  V30 3506 C 337.16 -1.24916 6.55708 0
M  V30 3507 H 336.43 -0.496492 0.550069 0
M  V30 3508 H 339.077 -0.675052 1.79207 0
M  V30 3509 H 337.382 -3.25225 2.18486 0
M  V30 3510 H 339.079 -3.09895 2.54492 0
M  V30 3511 H 335.669 -2.21185 3.67117 0
M  V30 3512 H 339.853 -1.87884 4.59362 0
M  V30 3513 H 335.109 -1.44886 5.93985 0
M  V30 3514 H 339.283 -1.12495 6.87254 0
M  V30 3515 H 336.91 -0.904386 7.54801 0
M  V30 3516 N 338.485 -1.33259 -0.841409 0
M  V30 3517 C 339.731 -1.24757 -1.59886 0
M  V30 3518 C 340.064 0.186913 -1.93298 0
M  V30 3519 O 339.339 1.12757 -1.5848 0
M  V30 3520 C 339.622 -2.12036 -2.91055 0
M  V30 3521 C 339.475 -3.63929 -2.6434 0
M  V30 3522 C 340.794 -1.9916 -3.92458 0
M  V30 3523 H 337.913 -0.454542 -0.580138 0
M  V30 3524 H 340.555 -1.63335 -0.970647 0
M  V30 3525 H 338.705 -1.79265 -3.44669 0
M  V30 3526 H 340.377 -4.06978 -2.17178 0
M  V30 3527 H 338.62 -3.85935 -1.98082 0
M  V30 3528 H 339.291 -4.20341 -3.57796 0
M  V30 3529 H 341.767 -2.27895 -3.48143 0
M  V30 3530 H 340.643 -2.62484 -4.82072 0
M  V30 3531 H 340.904 -0.963082 -4.31482 0
M  V30 3532 N 339.963 1.05934 -1.16686 0
M  V30 3533 C 341.209 1.79065 -0.95203 0
M  V30 3534 C 341.542 1.87147 0.518629 0
M  V30 3535 O 340.817 1.36574 1.38484 0
M  V30 3536 C 341.1 3.23359 -1.58464 0
M  V30 3537 C 340.953 3.23336 -3.12689 0
M  V30 3538 C 342.272 4.21004 -1.28232 0
M  V30 3539 H 339.391 0.65005 -0.34728 0
M  V30 3540 H 342.033 1.23868 -1.44072 0
M  V30 3541 H 340.183 3.70493 -1.16908 0
M  V30 3542 H 341.855 2.84336 -3.6325 0
M  V30 3543 H 340.098 2.61886 -3.4583 0
M  V30 3544 H 340.769 4.25144 -3.52075 0
M  V30 3545 H 343.245 3.8233 -1.64203 0
M  V30 3546 H 342.121 5.20225 -1.75092 0
M  V30 3547 H 342.382 4.41639 -0.201791 0
M  V30 3548 N 341.441 0.965919 1.2453 0
M  V30 3549 C 342.852 0.665929 1.7442 0
M  V30 3550 C 343.203 -0.818407 1.78316 0
M  V30 3551 O 342.328 -1.64037 1.41141 0
M  V30 3552 C 342.923 1.20211 3.16757 0
M  V30 3553 C 341.482 0.952059 3.6416 0
M  V30 3554 C 340.629 1.33848 2.42858 0
M  V30 3555 H 343.58 1.14144 1.10258 0
M  V30 3556 H 343.601 0.567544 3.76244 0
M  V30 3557 H 343.113 2.28244 3.13889 0
M  V30 3558 H 341.214 -0.112821 3.72429 0
M  V30 3559 H 341.327 1.59645 4.51719 0
M  V30 3560 H 339.691 0.756864 2.43195 0
M  V30 3561 H 340.474 2.42827 2.42673 0
M  V30 3562 N 342.919 -1.39368 0.735821 0
M  V30 3563 C 343.882 -2.2896 0.104874 0
M  V30 3564 C 344.882 -1.46347 -0.666274 0
M  V30 3565 O 346.072 -1.67014 -0.49517 0
M  V30 3566 C 343.204 -3.29857 -0.860656 0
M  V30 3567 H 344.397 -2.86259 0.894205 0
M  V30 3568 H 341.95 -1.48029 0.501704 0
M  V30 3569 H 342.685 -2.77615 -1.67631 0
M  V30 3570 H 342.47 -3.9087 -0.310327 0
M  V30 3571 H 343.96 -3.96893 -1.29867 0
M  V30 3572 N 344.397 -0.483516 -1.5 0
M  V30 3573 C 345.327 0.293829 -2.31644 0
M  V30 3574 C 346.308 0.978864 -1.39112 0
M  V30 3575 O 347.493 0.973644 -1.68029 0
M  V30 3576 C 344.623 1.36897 -3.19181 0
M  V30 3577 C 343.577 0.804833 -4.20365 0
M  V30 3578 C 342.903 1.9792 -4.96721 0
M  V30 3579 C 344.203 -0.192313 -5.21946 0
M  V30 3580 H 345.897 -0.387616 -2.9688 0
M  V30 3581 H 343.443 -0.187856 -1.42769 0
M  V30 3582 H 345.396 1.92037 -3.751 0
M  V30 3583 H 344.12 2.07936 -2.51853 0
M  V30 3584 H 342.779 0.275319 -3.65565 0
M  V30 3585 H 342.427 2.67686 -4.25856 0
M  V30 3586 H 342.127 1.60789 -5.65173 0
M  V30 3587 H 343.651 2.53526 -5.55479 0
M  V30 3588 H 345.065 0.270333 -5.72662 0
M  V30 3589 H 343.462 -0.478543 -5.98189 0
M  V30 3590 H 344.532 -1.11409 -4.71928 0
M  V30 3591 N 345.875 1.56104 -0.216619 0
M  V30 3592 C 347.123 1.97781 0.415593 0
M  V30 3593 C 347.444 1.10536 1.60645 0
M  V30 3594 O 346.714 0.181303 1.95059 0
M  V30 3595 H 345.294 0.730415 0.156534 0
M  V30 3596 H 347.956 1.92445 -0.308366 0
M  V30 3597 H 347.052 3.03072 0.74525 0
M  V30 3598 N 347.353 -0.0568162 1.57498 0
M  V30 3599 C 348.63 -0.786954 1.79071 0
M  V30 3600 C 349.01 -1.95028 0.80792 0
M  V30 3601 O 348.358 -2.27968 -0.155858 0
M  V30 3602 C 348.568 -1.24594 3.26002 0
M  V30 3603 C 349.916 -1.67323 3.90241 0
M  V30 3604 O 350.94 -1.34124 3.29984 0
M  V30 3605 O 349.799 -2.28842 4.9628 0
M  V30 3606 H 346.893 -0.378262 0.735423 0
M  V30 3607 H 349.439 -0.035734 1.69662 0
M  V30 3608 H 348.211 -0.41423 3.89101 0
M  V30 3609 H 347.834 -2.05803 3.40192 0
M  V30 3610 N 348.832 -1.54138 -0.328536 0
M  V30 3611 C 349.762 -1.86167 -1.40939 0
M  V30 3612 C 350.743 -0.718044 -1.54202 0
M  V30 3613 O 351.928 -0.971328 -1.68163 0
M  V30 3614 C 349.058 -2.08461 -2.77779 0
M  V30 3615 C 348.012 -3.24299 -2.7931 0
M  V30 3616 C 347.338 -3.31955 -4.19178 0
M  V30 3617 C 348.638 -4.62065 -2.43502 0
M  V30 3618 H 350.332 -2.76689 -1.14383 0
M  V30 3619 H 347.878 -1.33132 -0.548806 0
M  V30 3620 H 349.831 -2.29453 -3.53454 0
M  V30 3621 H 348.555 -1.14684 -3.05802 0
M  V30 3622 H 347.214 -3.03187 -2.0609 0
M  V30 3623 H 346.862 -2.35745 -4.44335 0
M  V30 3624 H 346.562 -4.09805 -4.2111 0
M  V30 3625 H 348.086 -3.55175 -4.96672 0
M  V30 3626 H 349.5 -4.8297 -3.08889 0
M  V30 3627 H 347.897 -5.42429 -2.56693 0
M  V30 3628 H 348.967 -4.64652 -1.38659 0
M  V30 3629 N 350.31 0.590341 -1.46126 0
M  V30 3630 C 351.721 1.17243 -1.45296 0
M  V30 3631 C 352.072 1.95281 -0.189723 0
M  V30 3632 O 351.197 2.04502 0.707674 0
M  V30 3633 C 351.792 2.13284 -2.6324 0
M  V30 3634 C 350.351 2.66832 -2.65476 0
M  V30 3635 C 349.498 1.42557 -2.3785 0
M  V30 3636 H 352.449 0.378692 -1.54116 0
M  V30 3637 H 352.47 2.96619 -2.38323 0
M  V30 3638 H 351.982 1.56459 -3.55165 0
M  V30 3639 H 350.083 3.27548 -1.77603 0
M  V30 3640 H 350.196 3.10088 -3.65215 0
M  V30 3641 H 348.56 1.72107 -1.87753 0
M  V30 3642 H 349.343 0.875741 -3.31942 0
M  V30 3643 N 351.788 1.33704 0.83433 0
M  V30 3644 C 353.204 1.13137 1.12571 0
M  V30 3645 C 353.404 -0.0747261 2.01361 0
M  V30 3646 O 352.46 -0.753647 2.4099 0
M  V30 3647 C 353.773 2.42105 1.78342 0
M  V30 3648 C 355.321 2.48054 1.90888 0
M  V30 3649 C 355.796 3.76995 2.60075 0
M  V30 3650 N 357.287 3.78092 2.67584 0
M  V30 3651 C 358.022 4.74574 3.21818 0
M  V30 3652 N 357.518 5.81434 3.76705 0
M  V30 3653 N 359.311 4.62044 3.20112 0
M  V30 3654 H 351.462 2.11 0.243489 0
M  V30 3655 H 353.725 0.932532 0.17055 0
M  V30 3656 H 353.431 3.30391 1.20561 0
M  V30 3657 H 353.305 2.54594 2.7832 0
M  V30 3658 H 355.692 1.60215 2.47821 0
M  V30 3659 H 355.773 2.39502 0.898459 0
M  V30 3660 H 355.417 4.65219 2.03799 0
M  V30 3661 H 355.347 3.82825 3.61597 0
M  V30 3662 H 357.838 3.00865 2.28667 0
M  V30 3663 H 358.151 6.51084 4.16305 0
M  V30 3664 H 356.496 5.85163 3.7498 0
M  V30 3665 H 359.687 3.77716 2.76493 0
M  V30 3666 H 359.86 5.37406 3.62076 0
M  V30 3667 N 353.266 -1.05314 1.17247 0
M  V30 3668 C 354.196 -2.1498 0.911362 0
M  V30 3669 C 355.177 -1.69471 -0.146169 0
M  V30 3670 O 356.362 -1.942 0.003812 0
M  V30 3671 C 353.492 -3.4472 0.422528 0
M  V30 3672 C 352.446 -4.03789 1.4191 0
M  V30 3673 C 351.772 -5.28858 0.788274 0
M  V30 3674 C 353.072 -4.41418 2.7919 0
M  V30 3675 H 354.766 -2.3708 1.82848 0
M  V30 3676 H 352.312 -1.13938 0.880569 0
M  V30 3677 H 354.265 -4.20787 0.227289 0
M  V30 3678 H 352.989 -3.22269 -0.530123 0
M  V30 3679 H 351.648 -3.2979 1.60106 0
M  V30 3680 H 351.296 -5.02709 -0.171173 0
M  V30 3681 H 350.996 -5.69338 1.45353 0
M  V30 3682 H 352.52 -6.07612 0.603282 0
M  V30 3683 H 353.934 -5.08524 2.64719 0
M  V30 3684 H 352.331 -4.92913 3.42282 0
M  V30 3685 H 353.401 -3.51819 3.33693 0
M  V30 3686 N 354.744 -0.972509 -1.24016 0
M  V30 3687 C 355.99 -0.637978 -1.92504 0
M  V30 3688 C 356.323 0.825383 -1.75787 0
M  V30 3689 O 355.598 1.59442 -1.11393 0
M  V30 3690 C 355.881 -1.01942 -3.45369 0
M  V30 3691 C 355.734 -2.53983 -3.71231 0
M  V30 3692 C 357.053 -0.55751 -4.36555 0
M  V30 3693 H 354.172 -0.233248 -0.699117 0
M  V30 3694 H 356.814 -1.21238 -1.46292 0
M  V30 3695 H 354.964 -0.530656 -3.84859 0
M  V30 3696 H 356.636 -3.10374 -3.41271 0
M  V30 3697 H 354.879 -2.96968 -3.16216 0
M  V30 3698 H 355.55 -2.75723 -4.78206 0
M  V30 3699 H 358.026 -0.977029 -4.04467 0
M  V30 3700 H 356.902 -0.85292 -5.42233 0
M  V30 3701 H 357.163 0.542328 -4.38761 0
M  V30 3702 N 356.222 1.38976 -0.743202 0
M  V30 3703 C 357.638 1.53984 -0.419664 0
M  V30 3704 C 357.838 1.70837 1.0685 0
M  V30 3705 O 356.894 1.7135 1.8546 0
M  V30 3706 C 358.207 2.75287 -1.20985 0
M  V30 3707 C 359.755 2.89129 -1.19889 0
M  V30 3708 C 360.23 4.13381 -1.97181 0
M  V30 3709 N 361.721 4.20437 -1.94389 0
M  V30 3710 C 362.456 5.15547 -2.50996 0
M  V30 3711 N 361.952 6.16395 -3.16274 0
M  V30 3712 N 363.745 5.07822 -2.40984 0
M  V30 3713 H 355.896 1.26285 -1.7078 0
M  V30 3714 H 358.159 0.612689 -0.723406 0
M  V30 3715 H 357.865 2.69204 -2.26323 0
M  V30 3716 H 357.739 3.68184 -0.819759 0
M  V30 3717 H 360.126 2.947 -0.153606 0
M  V30 3718 H 360.207 1.97272 -1.62841 0
M  V30 3719 H 359.851 4.08572 -3.01714 0
M  V30 3720 H 359.781 5.04298 -1.51629 0
M  V30 3721 H 362.272 3.48205 -1.46839 0
M  V30 3722 H 362.585 6.85443 -3.56915 0
M  V30 3723 H 360.93 6.16758 -3.20367 0
M  V30 3724 H 364.121 4.27973 -1.89622 0
M  V30 3725 H 364.294 5.81767 -2.85397 0
M  V30 3726 N 357.7 0.491464 1.49741 0
M  V30 3727 C 358.948 -0.0563141 2.02022 0
M  V30 3728 C 359.269 -1.38363 1.37407 0
M  V30 3729 O 358.539 -1.88702 0.526166 0
M  V30 3730 H 357.119 -0.0238014 0.746621 0
M  V30 3731 H 359.781 0.646533 1.83864 0
M  V30 3732 H 358.877 -0.192967 3.11503 0
M  V30 3733 N 359.178 -1.55987 0.224894 0
M  V30 3734 C 360.111 -2.16413 -0.723929 0
M  V30 3735 C 361.089 -1.10952 -1.18863 0
M  V30 3736 O 362.273 -1.39225 -1.27077 0
M  V30 3737 C 359.4 -2.74711 -1.98121 0
M  V30 3738 C 358.446 -3.9303 -1.6562 0
M  V30 3739 S 359.279 -5.29817 -0.778058 0
M  V30 3740 C 360.435 -5.91555 -2.04483 0
M  V30 3741 H 360.668 -2.96555 -0.210347 0
M  V30 3742 H 358.201 -1.54397 0.00955457 0
M  V30 3743 H 360.159 -3.08938 -2.70311 0
M  V30 3744 H 358.82 -1.94555 -2.46591 0
M  V30 3745 H 358.013 -4.32334 -2.59043 0
M  V30 3746 H 357.615 -3.59966 -1.01491 0
M  V30 3747 H 359.907 -6.07732 -2.99446 0
M  V30 3748 H 360.85 -6.87498 -1.69563 0
M  V30 3749 H 361.258 -5.20419 -2.18688 0
M  V30 3750 N 360.656 0.0484629 -1.57525 0
M  V30 3751 C 361.619 1.03956 -2.04269 0
M  V30 3752 C 362.619 1.30211 -0.943496 0
M  V30 3753 O 363.809 1.25539 -1.20771 0
M  V30 3754 C 360.941 2.37742 -2.44319 0
M  V30 3755 H 362.134 0.636182 -2.93075 0
M  V30 3756 H 359.687 0.294811 -1.53494 0
M  V30 3757 H 360.422 2.82866 -1.5861 0
M  V30 3758 H 360.207 2.20021 -3.24551 0
M  V30 3759 H 361.697 3.08936 -2.80978 0
M  V30 3760 N 362.134 1.5431 0.320358 0
M  V30 3761 C 363.382 1.72327 1.05583 0
M  V30 3762 C 363.703 0.50149 1.88441 0
M  V30 3763 O 362.973 -0.48448 1.89815 0
M  V30 3764 H 361.553 0.635387 0.3928 0
M  V30 3765 H 364.215 1.91621 0.356019 0
M  V30 3766 H 363.311 2.60426 1.72003 0
M  V30 3767 N 363.613 -0.582584 1.46437 0
M  V30 3768 C 364.576 -1.67366 1.56592 0
M  V30 3769 C 365.576 -1.54575 0.443072 0
M  V30 3770 O 366.766 -1.59191 0.707381 0
M  V30 3771 C 363.898 -3.06791 1.48634 0
M  V30 3772 H 365.091 -1.5972 2.5383 0
M  V30 3773 H 362.644 -0.800432 1.34249 0
M  V30 3774 H 363.379 -3.19993 0.526763 0
M  V30 3775 H 363.164 -3.17484 2.30101 0
M  V30 3776 H 364.654 -3.86218 1.58826 0
M  V30 3777 N 365.091 -1.34144 -0.827227 0
M  V30 3778 C 366.041 -1.21923 -1.92663 0
M  V30 3779 C 367.025 -0.119294 -1.60457 0
M  V30 3780 O 368.217 -0.348539 -1.73534 0
M  V30 3781 C 365.346 -0.972492 -3.29238 0
M  V30 3782 C 364.432 -2.1154 -3.67576 0
M  V30 3783 N 364.823 -3.36627 -3.77512 0
M  V30 3784 C 363.121 -2.02468 -3.97395 0
M  V30 3785 C 363.822 -4.11658 -4.1099 0
M  V30 3786 N 362.798 -3.40207 -4.23981 0
M  V30 3787 H 366.6 -2.16721 -1.98517 0
M  V30 3788 H 364.114 -1.2632 -1.02064 0
M  V30 3789 H 366.111 -0.865847 -4.0781 0
M  V30 3790 H 364.771 -0.0331509 -3.24683 0
M  V30 3791 H 365.782 -3.71234 -3.61118 0
M  V30 3792 H 362.459 -1.16265 -4.00985 0
M  V30 3793 H 363.849 -5.19657 -4.25918 0
M  V30 3794 N 366.569 1.04691 -1.17803 0
M  V30 3795 C 367.499 2.14494 -0.92275 0
M  V30 3796 C 368.48 1.69546 0.137179 0
M  V30 3797 O 369.665 1.94195 -0.0141108 0
M  V30 3798 C 366.795 3.44491 -0.440803 0
M  V30 3799 C 365.749 4.03031 -1.4405 0
M  V30 3800 C 365.075 5.28432 -0.81631 0
M  V30 3801 C 366.375 4.39932 -2.81527 0
M  V30 3802 H 368.069 2.36107 -1.84103 0
M  V30 3803 H 365.615 1.1347 -0.886599 0
M  V30 3804 H 367.568 4.2066 -0.249602 0
M  V30 3805 H 366.292 3.22546 0.513025 0
M  V30 3806 H 364.951 3.28937 -1.61853 0
M  V30 3807 H 364.599 5.02792 0.144511 0
M  V30 3808 H 364.299 5.68559 -1.48371 0
M  V30 3809 H 365.823 6.07284 -0.635496 0
M  V30 3810 H 367.237 5.07113 -2.67412 0
M  V30 3811 H 365.634 4.9109 -3.44892 0
M  V30 3812 H 366.704 3.50045 -3.35554 0
M  V30 3813 N 368.047 0.979072 1.23499 0
M  V30 3814 C 369.01 0.523244 2.23147 0
M  V30 3815 C 370.01 -0.386406 1.56088 0
M  V30 3816 O 371.2 -0.180283 1.73265 0
M  V30 3817 C 368.332 -0.240739 3.40049 0
M  V30 3818 H 369.525 1.40432 2.64989 0
M  V30 3819 H 367.078 0.764824 1.36309 0
M  V30 3820 H 367.813 -1.13841 3.03662 0
M  V30 3821 H 367.598 0.412207 3.89927 0
M  V30 3822 H 369.088 -0.548297 4.13985 0
M  V30 3823 N 369.525 -1.3858 0.750561 0
M  V30 3824 C 370.936 -1.82927 0.373438 0
M  V30 3825 C 371.287 -1.62634 -1.09748 0
M  V30 3826 O 370.412 -1.12588 -1.84805 0
M  V30 3827 C 371.007 -3.32088 0.671029 0
M  V30 3828 C 369.566 -3.74795 0.34722 0
M  V30 3829 C 368.713 -2.61391 0.92575 0
M  V30 3830 H 371.664 -1.27351 0.946958 0
M  V30 3831 H 371.685 -3.80465 -0.0518269 0
M  V30 3832 H 371.197 -3.46826 1.74164 0
M  V30 3833 H 369.298 -3.65638 -0.716933 0
M  V30 3834 H 369.411 -4.71667 0.840656 0
M  V30 3835 H 367.775 -2.52265 0.351327 0
M  V30 3836 H 368.558 -2.78929 2.00133 0
M  V30 3837 N 371.003 -0.499398 -1.49478 0
M  V30 3838 C 371.966 0.268838 -2.27618 0
M  V30 3839 C 372.966 0.895383 -1.33565 0
M  V30 3840 O 374.156 0.760164 -1.56739 0
M  V30 3841 C 371.288 1.38559 -3.11471 0
M  V30 3842 H 372.481 -0.416812 -2.96989 0
M  V30 3843 H 370.034 -0.254313 -1.54217 0
M  V30 3844 H 370.769 2.10544 -2.46661 0
M  V30 3845 H 370.554 0.941797 -3.80621 0
M  V30 3846 H 372.044 1.92678 -3.70493 0
M  V30 3847 N 372.481 1.55866 -0.233164 0
M  V30 3848 C 373.727 1.98897 0.395959 0
M  V30 3849 C 374.06 1.12091 1.58585 0
M  V30 3850 O 373.335 0.181182 1.93654 0
M  V30 3851 C 373.618 3.50658 0.819224 0
M  V30 3852 C 373.471 4.48233 -0.375109 0
M  V30 3853 C 374.79 4.07135 1.67121 0
M  V30 3854 H 371.909 0.723102 0.142451 0
M  V30 3855 H 374.551 1.87082 -0.331725 0
M  V30 3856 H 372.701 3.60857 1.43925 0
M  V30 3857 H 374.373 4.50031 -1.01341 0
M  V30 3858 H 372.616 4.21624 -1.02058 0
M  V30 3859 H 373.287 5.51988 -0.0358328 0
M  V30 3860 H 375.763 3.99952 1.14795 0
M  V30 3861 H 374.639 5.13615 1.93625 0
M  V30 3862 H 374.9 3.54736 2.63846 0
M  V30 3863 O 373.998 0.0973059 1.61207 0
M  V30 3864 H 374.689 -0.50491 1.87004 0
M  V30 END ATOM
M  V30 BEGIN BOND
M  V30 END BOND
M  V30 END CTAB
M  END
$$$$
