drugbank_target|Q60049 NADH dehydrogenase (DB03247)
 OpenBabel12092120273D

  0  0  0     0  0            999 V3000
M  V30 BEGIN CTAB
M  V30 COUNTS 3261 3298 0 0 0
M  V30 BEGIN ATOM
M  V30 1 H -0.908 1.98254 -0.117106 0
M  V30 2 N 0 1.576 0 0
M  V30 3 C 0.933 2.03868 1.02534 0
M  V30 4 C 1.911 0.928543 1.3348 0
M  V30 5 O 3.095 1.19667 1.45644 0
M  V30 6 C 0.222 2.43627 2.35294 0
M  V30 7 C -0.732 3.65373 2.2001 0
M  V30 8 S 0.101 5.13292 1.52614 0
M  V30 9 C 1.257 5.56322 2.86805 0
M  V30 10 H 1.49 2.90518 0.631377 0
M  V30 11 H -0.977 1.52953 0.210867 0
M  V30 12 H 0.981 2.67203 3.11629 0
M  V30 13 H -0.358 1.57376 2.7183 0
M  V30 14 H -1.165 3.90944 3.18086 0
M  V30 15 H -1.563 3.418 1.51819 0
M  V30 16 H 0.729 5.58782 3.83104 0
M  V30 17 H 1.672 6.56266 2.65933 0
M  V30 18 H 2.08 4.83886 2.90714 0
M  V30 19 N 1.4781 -0.272755 1.55222 0
M  V30 20 C 2.3881 -1.35918 1.91216 0
M  V30 21 C 3.4041 -1.54026 0.809436 0
M  V30 22 O 4.5801 -1.68148 1.10852 0
M  V30 23 C 1.6451 -2.69834 2.17693 0
M  V30 24 C 0.7061 -2.6047 3.41253 0
M  V30 25 C -0.0609 -3.88 3.66458 0
M  V30 26 O 0.1621 -4.88693 2.94169 0
M  V30 27 O -0.9039 -3.88189 4.59992 0
M  V30 28 H 2.9221 -1.0839 2.83699 0
M  V30 29 H 0.5071 -0.471301 1.41771 0
M  V30 30 H 2.3891 -3.49017 2.36147 0
M  V30 31 H 1.0641 -2.97148 1.28392 0
M  V30 32 H -0.0289 -1.79663 3.28134 0
M  V30 33 H 1.3041 -2.38106 4.30774 0
M  V30 34 N 2.9562 -1.48159 -0.537278 0
M  V30 35 C 3.9192 -1.61665 -1.62472 0
M  V30 36 C 4.9192 -0.490395 -1.5314 0
M  V30 37 O 6.1092 -0.755998 -1.5694 0
M  V30 38 C 3.2412 -1.57997 -3.02076 0
M  V30 39 H 4.4342 -2.58621 -1.51839 0
M  V30 40 H 1.9872 -1.36647 -0.758771 0
M  V30 41 H 2.7222 -0.624913 -3.18222 0
M  V30 42 H 2.5072 -2.39755 -3.10258 0
M  V30 43 H 3.9972 -1.70627 -3.81151 0
M  V30 44 N 4.4343 0.785586 -1.36625 0
M  V30 45 C 5.6623 1.57448 -1.3423 0
M  V30 46 C 6.0773 1.88649 0.0755653 0
M  V30 47 O 5.4343 1.50414 1.03354 0
M  V30 48 C 5.4853 2.89316 -2.16745 0
M  V30 49 O 5.2063 2.59459 -3.53005 0
M  V30 50 C 6.7073 3.83606 -2.22174 0
M  V30 51 H 3.9273 0.488226 -0.4603 0
M  V30 52 H 6.4713 0.974733 -1.79775 0
M  V30 53 H 4.6263 3.4575 -1.74745 0
M  V30 54 H 5.0403 3.43804 -3.96105 0
M  V30 55 H 6.5143 4.73181 -2.8426 0
M  V30 56 H 6.9913 4.21734 -1.22627 0
M  V30 57 H 7.5973 3.33104 -2.64427 0
M  V30 58 N 5.9124 1.20967 1.01018 0
M  V30 59 C 6.8424 0.988272 2.11555 0
M  V30 60 C 7.8234 -0.0849778 1.69888 0
M  V30 61 O 9.0084 0.0738202 1.9406 0
M  V30 62 C 6.1384 0.546528 3.42973 0
M  V30 63 C 5.0924 1.56375 3.9841 0
M  V30 64 C 4.4184 0.97842 5.25672 0
M  V30 65 C 5.7184 2.94922 4.31066 0
M  V30 66 H 7.4124 1.91276 2.30334 0
M  V30 67 H 4.9584 0.921073 1.1069 0
M  V30 68 H 6.9114 0.378839 4.19694 0
M  V30 69 H 5.6354 -0.413598 3.23971 0
M  V30 70 H 4.2944 1.71891 3.23804 0
M  V30 71 H 3.9424 0.0101688 5.02999 0
M  V30 72 H 3.6424 1.65784 5.63728 0
M  V30 73 H 5.1664 0.821939 6.05043 0
M  V30 74 H 6.5804 2.8288 4.9865 0
M  V30 75 H 4.9774 3.5983 4.80253 0
M  V30 76 H 6.0474 3.4616 3.39561 0
M  V30 77 N 7.3905 -1.2043 1.01659 0
M  V30 78 C 8.8015 -1.71517 0.737482 0
M  V30 79 C 9.1525 -1.81547 -0.743973 0
M  V30 80 O 8.2775 -1.47803 -1.58061 0
M  V30 81 C 8.8725 -3.11515 1.33206 0
M  V30 82 C 7.4315 -3.59912 1.10183 0
M  V30 83 C 6.5785 -2.37116 1.43776 0
M  V30 84 H 9.5295 -1.05444 1.18606 0
M  V30 85 H 9.5505 -3.73575 0.722636 0
M  V30 86 H 9.0625 -3.04182 2.41028 0
M  V30 87 H 7.1635 -3.72577 0.0412756 0
M  V30 88 H 7.2765 -4.44731 1.78188 0
M  V30 89 H 5.6405 -2.39857 0.856778 0
M  V30 90 H 6.4235 -2.32424 2.52654 0
M  V30 91 N 8.8686 -0.792821 -1.36206 0
M  V30 92 C 10.1146 -0.36733 -1.99446 0
M  V30 93 C 10.4476 1.05917 -1.62774 0
M  V30 94 O 9.7226 1.7324 -0.88421 0
M  V30 95 C 10.0056 -0.535044 -3.56103 0
M  V30 96 C 9.8586 -2.00548 -4.02617 0
M  V30 97 C 11.1776 0.0478191 -4.40074 0
M  V30 98 H 8.2966 -0.134941 -0.724541 0
M  V30 99 H 10.9386 -0.999794 -1.61568 0
M  V30 100 H 9.0886 0.00336329 -3.885 0
M  V30 101 H 10.7606 -2.60521 -3.80692 0
M  V30 102 H 9.0036 -2.50686 -3.54032 0
M  V30 103 H 9.6746 -2.07377 -5.11565 0
M  V30 104 H 12.1506 -0.411822 -4.14057 0
M  V30 105 H 11.0266 -0.0995336 -5.4881 0
M  V30 106 H 11.2876 1.14025 -4.27142 0
M  V30 107 N 10.3467 1.47872 -0.545128 0
M  V30 108 C 11.2767 2.32661 0.197793 0
M  V30 109 C 12.2577 1.43041 0.920504 0
M  V30 110 O 13.4427 1.71912 0.90333 0
M  V30 111 C 10.5727 3.24569 1.23582 0
M  V30 112 C 9.5267 4.23333 0.630323 0
M  V30 113 C 8.8527 5.0448 1.77211 0
M  V30 114 C 10.1527 5.20704 -0.407974 0
M  V30 115 H 11.8467 2.95024 -0.510045 0
M  V30 116 H 9.3927 1.4187 -0.246731 0
M  V30 117 H 11.3457 3.8272 1.76362 0
M  V30 118 H 10.0697 2.60236 1.97344 0
M  V30 119 H 8.7287 3.6639 0.123922 0
M  V30 120 H 8.3767 4.36561 2.49847 0
M  V30 121 H 8.0767 5.71339 1.37281 0
M  V30 122 H 9.6007 5.65487 2.3034 0
M  V30 123 H 11.0147 5.7329 0.033305 0
M  V30 124 H 9.4117 5.95699 -0.725486 0
M  V30 125 H 10.4817 4.66917 -1.30828 0
M  V30 126 N 11.8248 0.280983 1.55075 0
M  V30 127 C 13.1018 -0.386207 1.91749 0
M  V30 128 C 13.4818 -1.73264 1.20594 0
M  V30 129 O 12.8298 -2.26034 0.334784 0
M  V30 130 C 13.0398 -0.520687 3.45094 0
M  V30 131 C 14.3878 -0.800865 4.16979 0
M  V30 132 O 15.4118 -0.605271 3.5102 0
M  V30 133 O 14.2708 -1.1753 5.33712 0
M  V30 134 H 11.3648 -0.212408 0.799257 0
M  V30 135 H 13.9108 0.327568 1.66509 0
M  V30 136 H 12.6828 0.426633 3.88967 0
M  V30 137 H 12.3058 -1.2837 3.76307 0
M  V30 138 N 13.3029 -1.57598 0.00835791 0
M  V30 139 C 14.2659 -2.07884 -0.965242 0
M  V30 140 C 15.2659 -0.989825 -1.26725 0
M  V30 141 O 16.4559 -1.25218 -1.21104 0
M  V30 142 C 13.5879 -2.52731 -2.28779 0
M  V30 143 H 14.7809 -2.95178 -0.530112 0
M  V30 144 H 12.3339 -1.54458 -0.239283 0
M  V30 145 H 13.0689 -1.68705 -2.76964 0
M  V30 146 H 12.8539 -3.32272 -2.08177 0
M  V30 147 H 14.3439 -2.91933 -2.98605 0
M  V30 148 N 14.781 0.264519 -1.55364 0
M  V30 149 C 15.728 1.32717 -1.88825 0
M  V30 150 C 16.698 1.48675 -0.740605 0
M  V30 151 O 17.883 1.62945 -0.992657 0
M  V30 152 C 15.023 2.68089 -2.17307 0
M  V30 153 C 14.136 2.60284 -3.44785 0
M  V30 154 C 13.271 3.87892 -3.62924 0
M  V30 155 C 12.31 3.74631 -4.84064 0
M  V30 156 N 11.447 4.94092 -4.98816 0
M  V30 157 H 16.287 1.03481 -2.79456 0
M  V30 158 H 13.824 0.499757 -1.3835 0
M  V30 159 H 15.782 3.46864 -2.31821 0
M  V30 160 H 14.412 2.95509 -1.299 0
M  V30 161 H 13.464 1.73173 -3.38697 0
M  V30 162 H 14.776 2.46388 -4.33698 0
M  V30 163 H 13.93 4.75109 -3.77302 0
M  V30 164 H 12.669 4.04664 -2.7221 0
M  V30 165 H 11.674 2.85797 -4.69681 0
M  V30 166 H 12.899 3.5937 -5.76221 0
M  V30 167 H 10.845 5.11259 -4.11036 0
M  V30 168 H 10.762 4.8276 -5.81789 0
M  V30 169 H 12.03 5.82857 -5.17588 0
M  V30 170 N 16.2591 1.48442 0.529413 0
M  V30 171 C 17.4871 1.60151 1.30994 0
M  V30 172 C 17.9021 0.261985 1.86973 0
M  V30 173 O 17.2591 -0.748805 1.66431 0
M  V30 174 C 17.3101 2.64854 2.46038 0
M  V30 175 O 17.0311 3.93608 1.92365 0
M  V30 176 C 18.5321 2.87007 3.37849 0
M  V30 177 H 15.7521 0.539971 0.398338 0
M  V30 178 H 18.2961 1.94273 0.638597 0
M  V30 179 H 16.4511 2.33589 3.09055 0
M  V30 180 H 16.8651 4.51055 2.67675 0
M  V30 181 H 18.3391 3.64068 4.14919 0
M  V30 182 H 18.8161 1.95852 3.93114 0
M  V30 183 H 19.4221 3.19579 2.80623 0
M  V30 184 N 17.7372 -0.778329 1.37039 0
M  V30 185 C 18.7002 -1.87301 1.32102 0
M  V30 186 C 19.7002 -1.59198 0.226405 0
M  V30 187 O 20.8902 -1.67403 0.481861 0
M  V30 188 C 18.0222 -3.24309 1.05055 0
M  V30 189 H 19.2152 -1.93093 2.29467 0
M  V30 190 H 16.7682 -0.977358 1.21973 0
M  V30 191 H 17.5032 -3.24196 0.0819373 0
M  V30 192 H 17.2882 -3.46098 1.84279 0
M  V30 193 H 18.7782 -4.04382 1.04234 0
M  V30 194 N 19.2153 -1.21501 -1.00376 0
M  V30 195 C 20.1783 -0.976927 -2.07337 0
M  V30 196 C 21.1783 0.0525322 -1.60714 0
M  V30 197 O 22.3683 -0.184869 -1.73216 0
M  V30 198 C 19.5003 -0.473423 -3.37597 0
M  V30 199 H 20.6933 -1.92587 -2.29892 0
M  V30 200 H 18.2463 -1.03217 -1.17371 0
M  V30 201 H 18.9813 0.480379 -3.20722 0
M  V30 202 H 18.7663 -1.216 -3.72768 0
M  V30 203 H 20.2563 -0.32675 -4.1632 0
M  V30 204 N 20.6934 1.19889 -1.02296 0
M  V30 205 C 21.6234 2.25141 -0.619174 0
M  V30 206 C 22.6044 1.66051 0.368915 0
M  V30 207 O 23.7894 1.92546 0.252941 0
M  V30 208 C 20.9194 3.4728 0.0368783 0
M  V30 209 C 19.8734 4.19005 -0.872865 0
M  V30 210 C 19.1994 5.34637 -0.0822402 0
M  V30 211 C 20.4994 4.74452 -2.18387 0
M  V30 212 H 22.1934 2.59171 -1.49903 0
M  V30 213 H 19.7394 1.24579 -0.722222 0
M  V30 214 H 21.6924 4.20098 0.330958 0
M  V30 215 H 20.4164 3.12433 0.95149 0
M  V30 216 H 19.0754 3.48061 -1.15105 0
M  V30 217 H 18.7234 4.96034 0.83422 0
M  V30 218 H 18.4234 5.83557 -0.688149 0
M  V30 219 H 19.9474 6.10255 0.205238 0
M  V30 220 H 21.3614 5.39055 -1.95172 0
M  V30 221 H 19.7584 5.33834 -2.74119 0
M  V30 222 H 20.8284 3.92844 -2.84257 0
M  V30 223 N 22.1715 0.800033 1.35784 0
M  V30 224 C 23.1185 0.203848 2.29898 0
M  V30 225 C 24.0885 -0.658375 1.52495 0
M  V30 226 O 25.2735 -0.604832 1.8096 0
M  V30 227 C 22.4135 -0.64688 3.38983 0
M  V30 228 C 21.5265 0.235054 4.3136 0
M  V30 229 C 20.6615 -0.623054 5.27533 0
M  V30 230 C 19.7005 0.259682 6.11549 0
M  V30 231 N 18.8375 -0.558019 6.99879 0
M  V30 232 H 23.6775 1.01186 2.80295 0
M  V30 233 H 21.2145 0.51053 1.37957 0
M  V30 234 H 23.1725 -1.15521 4.00887 0
M  V30 235 H 21.8025 -1.42021 2.89879 0
M  V30 236 H 20.8545 0.861438 3.70518 0
M  V30 237 H 22.1665 0.914768 4.9034 0
M  V30 238 H 21.3205 -1.19678 5.94779 0
M  V30 239 H 20.0595 -1.33636 4.69034 0
M  V30 240 H 19.0645 0.845726 5.43256 0
M  V30 241 H 20.2895 0.970748 6.72126 0
M  V30 242 H 18.2355 -1.25542 6.43875 0
M  V30 243 H 18.1525 0.0637872 7.55973 0
M  V30 244 H 19.4205 -1.11523 7.71481 0
M  V30 245 N 23.6496 -1.47581 0.552962 0
M  V30 246 C 25.0656 -1.5818 0.212424 0
M  V30 247 C 25.2656 -1.55213 -1.28496 0
M  V30 248 O 24.3216 -1.45329 -2.06484 0
M  V30 249 C 25.6346 -2.88865 0.835318 0
M  V30 250 C 27.1826 -3.0244 0.806156 0
M  V30 251 C 27.6576 -4.35819 1.40804 0
M  V30 252 N 29.1486 -4.42444 1.37103 0
M  V30 253 C 29.8836 -5.44202 1.80641 0
M  V30 254 N 29.3796 -6.52795 2.32015 0
M  V30 255 N 31.1726 -5.35222 1.71738 0
M  V30 256 H 23.3236 -1.47753 1.52587 0
M  V30 257 H 25.5866 -0.702941 0.636064 0
M  V30 258 H 25.2926 -2.9676 1.88749 0
M  V30 259 H 25.1666 -3.7579 0.325848 0
M  V30 260 H 27.5536 -2.94144 -0.237317 0
M  V30 261 H 27.6346 -2.17068 1.35334 0
M  V30 262 H 27.2786 -4.44871 2.45056 0
M  V30 263 H 27.2086 -5.19916 0.836338 0
M  V30 264 H 29.6996 -3.6456 0.995202 0
M  V30 265 H 30.0126 -7.26609 2.63171 0
M  V30 266 H 28.3576 -6.53696 2.36023 0
M  V30 267 H 31.5486 -4.49284 1.31382 0
M  V30 268 H 31.7216 -6.14389 2.05987 0
M  V30 269 N 25.1277 -0.289203 -1.54924 0
M  V30 270 C 26.5437 0.0645403 -1.59469 0
M  V30 271 C 26.7437 1.53419 -1.30632 0
M  V30 272 O 25.7997 2.2852 -1.074 0
M  V30 273 C 27.1127 -0.32278 -2.98963 0
M  V30 274 C 28.6607 -0.270564 -3.11828 0
M  V30 275 C 29.1357 -0.632532 -4.53611 0
M  V30 276 N 30.6267 -0.584617 -4.59496 0
M  V30 277 C 31.3617 -0.837314 -5.67254 0
M  V30 278 N 30.8577 -1.15536 -6.83098 0
M  V30 279 N 32.6507 -0.765166 -5.56868 0
M  V30 280 H 24.8017 -1.24714 -1.71931 0
M  V30 281 H 27.0647 -0.504809 -0.802416 0
M  V30 282 H 26.7707 -1.34541 -3.24948 0
M  V30 283 H 26.6447 0.32944 -3.75759 0
M  V30 284 H 29.0317 0.742805 -2.85598 0
M  V30 285 H 29.1127 -0.957242 -2.37214 0
M  V30 286 H 28.7567 -1.64365 -4.80569 0
M  V30 287 H 28.6867 0.07609 -5.26545 0
M  V30 288 H 31.1777 -0.349248 -3.76283 0
M  V30 289 H 31.4907 -1.33447 -7.61191 0
M  V30 290 H 29.8357 -1.19328 -6.84679 0
M  V30 291 H 33.0267 -0.516432 -4.65243 0
M  V30 292 H 33.1997 -0.965477 -6.40767 0
M  V30 293 N 26.6058 1.57591 -0.0167156 0
M  V30 294 C 27.8308 1.9598 0.67872 0
M  V30 295 C 28.2558 0.892546 1.65575 0
M  V30 296 O 27.6138 -0.147772 1.80697 0
M  V30 297 C 27.6618 3.33468 1.37227 0
M  V30 298 O 26.7658 3.28954 2.48722 0
M  V30 299 H 26.1068 0.639339 0.17928 0
M  V30 300 H 28.6368 2.04463 -0.0748802 0
M  V30 301 H 28.6468 3.69417 1.7319 0
M  V30 302 H 27.3218 4.10694 0.656007 0
M  V30 303 H 25.8988 3.04705 2.14963 0
M  V30 304 N 28.0839 -0.256276 1.55502 0
M  V30 305 C 29.3329 -0.983486 1.76098 0
M  V30 306 C 29.6459 -1.86837 0.578896 0
M  V30 307 O 30.8519 -2.63163 0.667648 0
M  V30 308 C 29.3079 -1.79868 3.1173 0
M  V30 309 C 28.9159 -0.961648 4.37557 0
M  V30 310 C 30.6599 -2.51919 3.41668 0
M  V30 311 C 28.5669 -1.77219 5.64223 0
M  V30 312 H 27.4969 -0.370936 0.656447 0
M  V30 313 H 30.1479 -0.238492 1.81944 0
M  V30 314 H 28.5299 -2.58527 2.99966 0
M  V30 315 H 29.7039 -0.218048 4.60284 0
M  V30 316 H 28.0189 -0.354913 4.14885 0
M  V30 317 H 30.6159 -3.12998 4.33516 0
M  V30 318 H 30.9589 -3.23059 2.62562 0
M  V30 319 H 31.4919 -1.80278 3.54605 0
M  V30 320 H 28.2309 -1.10471 6.46124 0
M  V30 321 H 27.7509 -2.49132 5.45613 0
M  V30 322 H 29.4299 -2.34169 6.03137 0
M  V30 323 N 29.562 -1.4872 -0.521534 0
M  V30 324 C 30.978 -1.35028 -0.850855 0
M  V30 325 C 31.178 -0.367712 -1.98116 0
M  V30 326 O 30.234 0.208037 -2.51642 0
M  V30 327 C 31.547 -2.75263 -1.21041 0
M  V30 328 C 33.095 -2.83813 -1.31981 0
M  V30 329 C 33.57 -4.24769 -1.71276 0
M  V30 330 N 35.061 -4.27482 -1.78363 0
M  V30 331 C 35.796 -5.33494 -2.1017 0
M  V30 332 N 35.292 -6.49775 -2.40343 0
M  V30 333 N 37.085 -5.20894 -2.11248 0
M  V30 334 H 29.236 -2.11214 0.22413 0
M  V30 335 H 31.499 -0.947252 0.0376439 0
M  V30 336 H 31.205 -3.48765 -0.453415 0
M  V30 337 H 31.079 -3.09327 -2.15863 0
M  V30 338 H 33.466 -2.10561 -2.06756 0
M  V30 339 H 33.547 -2.53358 -0.352596 0
M  V30 340 H 33.191 -4.9854 -0.970588 0
M  V30 341 H 33.121 -4.52673 -2.69062 0
M  V30 342 H 35.612 -3.43611 -1.57288 0
M  V30 343 H 35.925 -7.26402 -2.63743 0
M  V30 344 H 34.27 -6.53035 -2.37844 0
M  V30 345 H 37.461 -4.29065 -1.87139 0
M  V30 346 H 37.634 -6.03612 -2.35704 0
M  V30 347 N 31.0401 0.771051 -1.3745 0
M  V30 348 C 32.4561 1.07171 -1.18265 0
M  V30 349 C 32.6561 2.01491 -0.019287 0
M  V30 350 O 31.7121 2.44244 0.640408 0
M  V30 351 C 33.0251 1.66854 -2.50161 0
M  V30 352 C 34.5731 1.79109 -2.56689 0
M  V30 353 C 35.0481 2.42205 -3.88717 0
M  V30 354 N 36.5391 2.49655 -3.90162 0
M  V30 355 C 37.2741 2.9933 -4.8907 0
M  V30 356 N 36.7701 3.49172 -5.98374 0
M  V30 357 N 38.5631 2.9821 -4.76474 0
M  V30 358 H 30.7141 0.144796 -2.11906 0
M  V30 359 H 32.9771 0.126863 -0.939473 0
M  V30 360 H 32.6831 1.05017 -3.35655 0
M  V30 361 H 32.5571 2.6614 -2.673 0
M  V30 362 H 34.9441 2.40077 -1.71601 0
M  V30 363 H 35.0251 0.785757 -2.43433 0
M  V30 364 H 34.6691 1.81875 -4.74219 0
M  V30 365 H 34.5991 3.43345 -3.99276 0
M  V30 366 H 37.0901 2.14383 -3.11205 0
M  V30 367 H 37.4031 3.8548 -6.69795 0
M  V30 368 H 35.7481 3.47275 -6.02018 0
M  V30 369 H 38.9391 2.58572 -3.90203 0
M  V30 370 H 39.1121 3.36613 -5.53711 0
M  V30 371 N 32.5182 1.22032 0.997298 0
M  V30 372 C 33.7482 1.06686 1.76923 0
M  V30 373 C 34.1562 -0.385838 1.85224 0
M  V30 374 O 33.4992 -1.27929 1.31833 0
M  V30 375 C 33.5612 1.59802 3.22031 0
M  V30 376 C 33.2252 3.08362 3.37286 0
M  V30 377 C 34.2222 4.05835 3.24952 0
M  V30 378 C 31.9072 3.47727 3.6248 0
M  V30 379 C 33.9012 5.4066 3.37588 0
M  V30 380 C 31.5882 4.82701 3.74757 0
M  V30 381 C 32.5862 5.78977 3.62319 0
M  V30 382 O 32.2742 7.11502 3.74193 0
M  V30 383 H 32.0062 0.374767 0.562606 0
M  V30 384 H 34.5602 1.61991 1.26286 0
M  V30 385 H 32.7902 0.989003 3.73839 0
M  V30 386 H 34.4792 1.40184 3.80924 0
M  V30 387 H 35.2452 3.76766 3.05405 0
M  V30 388 H 31.1242 2.73317 3.7124 0
M  V30 389 H 34.6682 6.15788 3.27796 0
M  V30 390 H 30.5652 5.11453 3.9381 0
M  V30 391 H 31.3332 7.19019 3.91093 0
M  V30 392 N 33.9963 -1.19345 1.0293 0
M  V30 393 C 35.4123 -1.41069 0.746446 0
M  V30 394 C 35.6123 -1.90078 -0.668776 0
M  V30 395 O 34.6683 -2.0778 -1.4347 0
M  V30 396 C 35.9813 -2.42141 1.78292 0
M  V30 397 C 37.5293 -2.55887 1.80252 0
M  V30 398 C 38.0043 -3.60214 2.8286 0
M  V30 399 N 39.4953 -3.67711 2.81679 0
M  V30 400 C 40.2303 -4.48128 3.57727 0
M  V30 401 N 39.7263 -5.32248 4.43491 0
M  V30 402 N 41.5193 -4.42782 3.46267 0
M  V30 403 H 33.6703 -0.858536 1.94275 0
M  V30 404 H 35.9333 -0.439541 0.839945 0
M  V30 405 H 35.6393 -2.13155 2.79746 0
M  V30 406 H 35.5133 -3.41323 1.60557 0
M  V30 407 H 37.9003 -2.84196 0.794757 0
M  V30 408 H 37.9813 -1.56858 2.02062 0
M  V30 409 H 37.6253 -3.32647 3.83807 0
M  V30 410 H 37.5553 -4.58895 2.58307 0
M  V30 411 H 40.0463 -3.07634 2.19476 0
M  V30 412 H 40.3593 -5.90729 4.98256 0
M  V30 413 H 38.7043 -5.31707 4.47564 0
M  V30 414 H 41.8953 -3.76107 2.78677 0
M  V30 415 H 42.0683 -5.05215 4.05785 0
M  V30 416 N 35.4744 -0.807222 -1.35358 0
M  V30 417 C 36.4214 -0.216037 -2.29787 0
M  V30 418 C 37.3914 0.650278 -1.52842 0
M  V30 419 O 38.5764 0.595227 -1.81278 0
M  V30 420 C 35.7164 0.628893 -3.39321 0
M  V30 421 C 34.8294 -0.257927 -4.31229 0
M  V30 422 C 33.9644 0.595069 -5.27856 0
M  V30 423 C 33.0034 -0.292111 -6.11403 0
M  V30 424 N 32.1404 0.520895 -7.00165 0
M  V30 425 H 36.9804 -1.02671 -2.79755 0
M  V30 426 H 34.5174 -0.517839 -1.37684 0
M  V30 427 H 36.4754 1.13393 -4.01494 0
M  V30 428 H 35.1054 1.40482 -2.90628 0
M  V30 429 H 34.1574 -0.881076 -3.70056 0
M  V30 430 H 35.4694 -0.940759 -4.89848 0
M  V30 431 H 34.6234 1.16522 -5.95405 0
M  V30 432 H 33.3624 1.31146 -4.69736 0
M  V30 433 H 32.3674 -0.874525 -5.428 0
M  V30 434 H 33.5924 -1.00638 -6.71602 0
M  V30 435 H 31.5384 1.22125 -6.44532 0
M  V30 436 H 31.4554 -0.103877 -7.55929 0
M  V30 437 H 32.7234 1.0743 -7.72062 0
M  V30 438 N 36.9525 1.47285 -0.560781 0
M  V30 439 C 38.2295 1.9558 0.0277798 0
M  V30 440 C 38.6095 1.5034 1.48192 0
M  V30 441 O 37.9575 0.743882 2.16052 0
M  V30 442 C 38.1675 3.48789 -0.121418 0
M  V30 443 C 39.5155 4.24594 0.0220912 0
M  V30 444 O 40.5395 3.56166 -0.0491439 0
M  V30 445 O 39.3985 5.46217 0.175958 0
M  V30 446 H 36.4925 0.824663 0.0621342 0
M  V30 447 H 39.0385 1.5767 -0.627556 0
M  V30 448 H 37.8105 3.74533 -1.13316 0
M  V30 449 H 37.4335 3.93473 0.571366 0
M  V30 450 N 38.4306 0.297415 1.54768 0
M  V30 451 C 39.8416 -0.195947 1.85669 0
M  V30 452 C 40.1926 -1.53707 1.21937 0
M  V30 453 O 39.3176 -2.10164 0.515754 0
M  V30 454 C 39.9126 -0.362318 3.36857 0
M  V30 455 C 38.4716 -0.799901 3.67802 0
M  V30 456 C 37.6186 0.0938578 2.77141 0
M  V30 457 H 40.5696 0.518538 1.4999 0
M  V30 458 H 40.5906 -1.19745 3.61167 0
M  V30 459 H 40.1026 0.613921 3.83214 0
M  V30 460 H 38.2036 -1.78682 3.26961 0
M  V30 461 H 38.3166 -0.621773 4.75048 0
M  V30 462 H 36.6806 -0.426254 2.51108 0
M  V30 463 H 37.4636 1.06639 3.26318 0
M  V30 464 N 39.9087 -1.5758 0.0250728 0
M  V30 465 C 41.1547 -1.91917 -0.655413 0
M  V30 466 C 41.4877 -0.901433 -1.72011 0
M  V30 467 O 40.7627 0.0764069 -1.9435 0
M  V30 468 C 41.0457 -3.36751 -1.27558 0
M  V30 469 C 40.8987 -4.49258 -0.220719 0
M  V30 470 C 42.2177 -3.81469 -2.19475 0
M  V30 471 H 39.3367 -0.697925 -0.23679 0
M  V30 472 H 41.9787 -1.89825 0.0815036 0
M  V30 473 H 40.1287 -3.38664 -1.90365 0
M  V30 474 H 41.8007 -4.59478 0.409601 0
M  V30 475 H 40.0437 -4.31415 0.454264 0
M  V30 476 H 40.7147 -5.47618 -0.694175 0
M  V30 477 H 43.1907 -3.81266 -1.66659 0
M  V30 478 H 42.0667 -4.83512 -2.59822 0
M  V30 479 H 42.3277 -3.16744 -3.08424 0
M  V30 480 N 41.3868 0.248026 -1.55636 0
M  V30 481 C 42.7978 0.817177 -1.67866 0
M  V30 482 C 43.1488 1.86069 -0.622322 0
M  V30 483 O 42.2738 2.15157 0.231618 0
M  V30 484 C 42.8688 1.489 -3.04326 0
M  V30 485 C 41.4278 2.00587 -3.185 0
M  V30 486 C 40.5748 0.856573 -2.63739 0
M  V30 487 H 43.5258 0.0238579 -1.58682 0
M  V30 488 H 43.5468 2.35698 -2.98708 0
M  V30 489 H 43.0588 0.729279 -3.81186 0
M  V30 490 H 41.1598 2.79443 -2.4646 0
M  V30 491 H 41.2728 2.20402 -4.25393 0
M  V30 492 H 39.6368 1.25678 -2.21534 0
M  V30 493 H 40.4198 0.109953 -3.43124 0
M  V30 494 N 42.8649 1.48995 0.513639 0
M  V30 495 C 43.7749 1.67443 1.64317 0
M  V30 496 C 44.7909 0.556947 1.64846 0
M  V30 497 O 45.9669 0.830082 1.83498 0
M  V30 498 C 43.0319 1.72515 3.00732 0
M  V30 499 C 42.0929 2.96009 3.1093 0
M  V30 500 C 41.3259 3.00829 4.40837 0
M  V30 501 O 41.5489 2.13594 5.28898 0
M  V30 502 O 40.4829 3.93168 4.55744 0
M  V30 503 H 44.3089 2.63106 1.51687 0
M  V30 504 H 41.8939 1.32588 0.688543 0
M  V30 505 H 43.7759 1.78277 3.81831 0
M  V30 506 H 42.4509 0.800278 3.13651 0
M  V30 507 H 41.3579 2.9577 2.29065 0
M  V30 508 H 42.6909 3.87934 3.02933 0
M  V30 509 N 44.343 -0.763751 1.37857 0
M  V30 510 C 45.591 -1.51957 1.33243 0
M  V30 511 C 45.912 -1.94835 -0.0801709 0
M  V30 512 O 45.182 -1.66894 -1.02582 0
M  V30 513 H 43.762 -0.563626 0.49024 0
M  V30 514 H 46.424 -0.908504 1.7243 0
M  V30 515 H 45.52 -2.41523 1.97669 0
M  V30 516 N 45.8211 -1.22559 -0.990812 0
M  V30 517 C 46.7511 -1.0218 -2.09956 0
M  V30 518 C 47.7321 0.0579394 -1.70001 0
M  V30 519 O 48.9171 -0.104684 -1.93918 0
M  V30 520 C 46.0471 -0.601023 -3.4206 0
M  V30 521 C 45.0011 -1.62694 -3.95872 0
M  V30 522 C 44.3271 -1.06193 -5.24049 0
M  V30 523 C 45.6271 -3.01743 -4.2632 0
M  V30 524 H 47.3211 -1.94916 -2.27262 0
M  V30 525 H 44.8671 -0.938566 -1.09211 0
M  V30 526 H 46.8201 -0.445561 -4.19038 0
M  V30 527 H 45.5441 0.362005 -3.24588 0
M  V30 528 H 44.2031 -1.77021 -3.21028 0
M  V30 529 H 43.8511 -0.0901903 -5.02919 0
M  V30 530 H 43.5511 -1.74732 -5.61019 0
M  V30 531 H 45.0751 -0.918092 -6.03658 0
M  V30 532 H 46.4891 -2.90777 -4.94087 0
M  V30 533 H 44.8861 -3.67425 -4.74467 0
M  V30 534 H 45.9561 -3.51518 -3.34011 0
M  V30 535 N 47.2992 1.18797 -1.03562 0
M  V30 536 C 48.2292 2.24472 -0.643019 0
M  V30 537 C 49.2102 1.66433 0.351283 0
M  V30 538 O 50.3952 1.92803 0.232505 0
M  V30 539 C 47.5252 3.473 4.24935e-05 0
M  V30 540 C 46.4792 4.18055 -0.917257 0
M  V30 541 C 45.8052 5.34519 -0.138941 0
M  V30 542 C 47.1052 4.72109 -2.23407 0
M  V30 543 H 48.7992 2.57566 -1.52643 0
M  V30 544 H 46.3452 1.23806 -0.735394 0
M  V30 545 H 48.2982 4.20426 0.286383 0
M  V30 546 H 47.0222 3.13424 0.918299 0
M  V30 547 H 45.6812 3.46821 -1.1879 0
M  V30 548 H 45.3292 4.96891 0.781562 0
M  V30 549 H 45.0292 5.82794 -0.750005 0
M  V30 550 H 46.5532 6.10438 0.1405 0
M  V30 551 H 47.9672 5.36955 -2.00879 0
M  V30 552 H 46.3642 5.30897 -2.79765 0
M  V30 553 H 47.4342 3.89807 -2.88407 0
M  V30 554 N 48.7773 0.814389 1.34928 0
M  V30 555 C 50.1933 0.499084 1.51596 0
M  V30 556 C 50.3933 -0.978319 1.76157 0
M  V30 557 O 49.4493 -1.76309 1.80752 0
M  V30 558 C 50.7623 1.35121 2.68631 0
M  V30 559 C 52.3103 1.34746 2.82511 0
M  V30 560 C 52.7853 2.18388 4.0258 0
M  V30 561 N 54.2763 2.15966 4.09772 0
M  V30 562 C 55.0113 2.77437 5.01813 0
M  V30 563 N 54.5073 3.47866 5.99134 0
M  V30 564 N 56.3003 2.67037 4.94619 0
M  V30 565 H 48.4513 1.7711 1.17243 0
M  V30 566 H 50.7143 0.754256 0.574284 0
M  V30 567 H 50.4203 2.40001 2.57085 0
M  V30 568 H 50.2943 1.00991 3.63429 0
M  V30 569 H 52.6813 0.30648 2.93504 0
M  V30 570 H 52.7623 1.72869 1.88547 0
M  V30 571 H 52.4063 3.2253 3.92347 0
M  V30 572 H 52.3363 1.77621 4.9574 0
M  V30 573 H 54.8273 1.64729 3.40107 0
M  V30 574 H 55.1403 3.92038 6.65977 0
M  V30 575 H 53.4853 3.51972 5.99284 0
M  V30 576 H 56.6763 2.11597 4.17546 0
M  V30 577 H 56.8493 3.15232 5.66156 0
M  V30 578 N 50.2554 -1.46986 0.568584 0
M  V30 579 C 51.1654 -2.33942 -0.17555 0
M  V30 580 C 52.1814 -1.48891 -0.90041 0
M  V30 581 O 53.3574 -1.81794 -0.86676 0
M  V30 582 C 50.4224 -3.25811 -1.18524 0
M  V30 583 C 49.4834 -4.26757 -0.466582 0
M  V30 584 C 48.7164 -5.14236 -1.42817 0
M  V30 585 O 48.9394 -5.04379 -2.66379 0
M  V30 586 O 47.8734 -5.94412 -0.946453 0
M  V30 587 H 51.6994 -2.98896 0.538036 0
M  V30 588 H 49.2844 -1.4573 0.329097 0
M  V30 589 H 51.1664 -3.82527 -1.76779 0
M  V30 590 H 49.8414 -2.63471 -1.88055 0
M  V30 591 H 48.7484 -3.73769 0.157451 0
M  V30 592 H 50.0814 -4.91843 0.187485 0
M  V30 593 N 51.7335 -0.305618 -1.54608 0
M  V30 594 C 52.9825 0.303098 -1.9941 0
M  V30 595 C 53.2955 1.54648 -1.19764 0
M  V30 596 O 54.5015 2.23007 -1.54855 0
M  V30 597 C 52.9575 0.590588 -3.55021 0
M  V30 598 C 52.5655 -0.634719 -4.43481 0
M  V30 599 C 54.3095 1.16025 -4.08336 0
M  V30 600 C 52.2165 -0.320126 -5.90533 0
M  V30 601 H 51.1465 0.117031 -0.744862 0
M  V30 602 H 53.7975 -0.415045 -1.78745 0
M  V30 603 H 52.1795 1.36845 -3.71604 0
M  V30 604 H 53.3535 -1.41079 -4.38672 0
M  V30 605 H 51.6685 -1.12333 -4.00962 0
M  V30 606 H 54.2655 1.40994 -5.15776 0
M  V30 607 H 54.6085 2.10397 -3.5922 0
M  V30 608 H 55.1415 0.443985 -3.95315 0
M  V30 609 H 51.8805 -1.23254 -6.43808 0
M  V30 610 H 51.4005 0.418579 -5.98338 0
M  V30 611 H 53.0795 0.0766241 -6.46955 0
M  V30 612 N 53.2116 1.57565 -0.0334293 0
M  V30 613 C 54.1416 2.13511 0.945265 0
M  V30 614 C 55.1226 1.05231 1.33643 0
M  V30 615 O 56.3076 1.33084 1.41429 0
M  V30 616 C 53.4376 2.6657 2.22616 0
M  V30 617 C 52.3916 3.79676 1.97561 0
M  V30 618 C 51.7176 4.1918 3.31952 0
M  V30 619 C 53.0176 5.0557 1.31135 0
M  V30 620 H 54.7116 2.95538 0.479325 0
M  V30 621 H 52.2576 1.42166 0.229115 0
M  V30 622 H 54.2106 3.04344 2.91466 0
M  V30 623 H 52.9346 1.8171 2.71384 0
M  V30 624 H 51.5936 3.42347 1.31127 0
M  V30 625 H 51.2416 3.31296 3.78487 0
M  V30 626 H 50.9416 4.95402 3.15992 0
M  V30 627 H 52.4656 4.59541 4.02063 0
M  V30 628 H 53.8796 5.40903 1.89992 0
M  V30 629 H 52.2766 5.86818 1.25559 0
M  V30 630 H 53.3466 4.84062 0.284894 0
M  V30 631 N 54.6897 -0.239769 1.55765 0
M  V30 632 C 55.5997 -1.31831 1.94056 0
M  V30 633 C 56.6157 -1.52275 0.841925 0
M  V30 634 O 57.7917 -1.65759 1.14394 0
M  V30 635 C 54.8567 -2.65156 2.23368 0
M  V30 636 C 53.9177 -2.53173 3.46701 0
M  V30 637 C 53.1507 -3.8014 3.74606 0
M  V30 638 O 53.3737 -4.82343 3.04469 0
M  V30 639 O 52.3077 -3.78344 4.68123 0
M  V30 640 H 56.1337 -1.02347 2.85935 0
M  V30 641 H 53.7187 -0.441123 1.42739 0
M  V30 642 H 55.6007 -3.43929 2.43497 0
M  V30 643 H 54.2757 -2.94358 1.34666 0
M  V30 644 H 53.1827 -1.72662 3.31871 0
M  V30 645 H 54.5157 -2.28915 4.35728 0
M  V30 646 N 56.1678 -1.49265 -0.50573 0
M  V30 647 C 57.1308 -1.65075 -1.59006 0
M  V30 648 C 58.1308 -0.522768 -1.52065 0
M  V30 649 O 59.3208 -0.789117 -1.55302 0
M  V30 650 C 56.4528 -1.64369 -2.98656 0
M  V30 651 H 57.6458 -2.61784 -1.46319 0
M  V30 652 H 55.1988 -1.38226 -0.729616 0
M  V30 653 H 55.9338 -0.692272 -3.16825 0
M  V30 654 H 55.7188 -2.46282 -3.05103 0
M  V30 655 H 57.2088 -1.78674 -3.77446 0
M  V30 656 N 57.6459 0.756429 -1.3826 0
M  V30 657 C 58.6089 1.85176 -1.35065 0
M  V30 658 C 59.6089 1.58818 -0.251703 0
M  V30 659 O 60.7989 1.66615 -0.508433 0
M  V30 660 C 57.9309 3.22596 -1.10201 0
M  V30 661 H 59.1239 1.89417 -2.3251 0
M  V30 662 H 56.6769 0.95783 -1.23512 0
M  V30 663 H 57.4119 3.24025 -0.133504 0
M  V30 664 H 57.1969 3.43122 -1.89762 0
M  V30 665 H 58.6869 4.02673 -1.10654 0
M  V30 666 N 59.124 1.23083 0.984299 0
M  V30 667 C 60.054 1.03292 2.09411 0
M  V30 668 C 61.035 -0.048923 1.7003 0
M  V30 669 O 62.22 0.114967 1.93859 0
M  V30 670 C 59.35 0.619155 3.41736 0
M  V30 671 C 58.304 1.64791 3.95004 0
M  V30 672 C 57.63 1.0897 5.23478 0
M  V30 673 C 58.93 3.03999 4.24714 0
M  V30 674 H 60.624 1.96119 2.26225 0
M  V30 675 H 58.17 0.944344 1.08711 0
M  V30 676 H 60.123 0.467777 4.18796 0
M  V30 677 H 58.847 -0.344786 3.24775 0
M  V30 678 H 57.506 1.78721 3.20085 0
M  V30 679 H 57.154 0.11686 5.02864 0
M  V30 680 H 56.854 1.77704 5.60085 0
M  V30 681 H 58.378 0.950093 6.03163 0
M  V30 682 H 59.792 2.93393 4.92538 0
M  V30 683 H 58.189 3.69936 4.72512 0
M  V30 684 H 59.259 3.53285 3.32142 0
M  V30 685 N 60.6021 -1.18246 1.0419 0
M  V30 686 C 62.0181 -1.40269 0.761366 0
M  V30 687 C 62.2181 -1.90777 -0.648578 0
M  V30 688 O 61.2741 -2.0929 -1.41258 0
M  V30 689 C 62.5871 -2.40237 1.8085 0
M  V30 690 C 64.1351 -2.53961 1.82955 0
M  V30 691 C 64.6101 -3.57194 2.86664 0
M  V30 692 N 66.1011 -3.64702 2.85563 0
M  V30 693 C 66.8361 -4.44309 3.6246 0
M  V30 694 N 66.3321 -5.27514 4.49111 0
M  V30 695 N 68.1251 -4.39084 3.50944 0
M  V30 696 H 60.2761 -0.837882 1.95175 0
M  V30 697 H 62.5391 -0.430608 0.84456 0
M  V30 698 H 62.2451 -2.10176 2.81991 0
M  V30 699 H 62.1191 -3.39601 1.64168 0
M  V30 700 H 64.5061 -2.83338 0.824855 0
M  V30 701 H 64.5871 -1.54706 2.03715 0
M  V30 702 H 64.2311 -3.28558 3.87314 0
M  V30 703 H 64.1611 -4.5613 2.6316 0
M  V30 704 H 66.6521 -3.05289 2.22727 0
M  V30 705 H 66.9651 -5.85411 5.04493 0
M  V30 706 H 65.3101 -5.2693 4.53178 0
M  V30 707 H 68.5011 -3.7313 2.82651 0
M  V30 708 H 68.6741 -5.00883 4.11121 0
M  V30 709 N 62.0802 -0.821533 -1.34494 0
M  V30 710 C 63.0432 -0.247847 -2.27856 0
M  V30 711 C 64.0432 0.573453 -1.50227 0
M  V30 712 O 65.2332 0.389759 -1.69784 0
M  V30 713 C 62.3652 0.652698 -3.34593 0
M  V30 714 H 63.5582 -1.07146 -2.80107 0
M  V30 715 H 61.1112 -0.593291 -1.44602 0
M  V30 716 H 61.8462 1.49943 -2.87555 0
M  V30 717 H 61.6312 0.065292 -3.92046 0
M  V30 718 H 63.1212 1.04793 -4.04238 0
M  V30 719 N 63.5583 1.46682 -0.576371 0
M  V30 720 C 64.9693 1.86112 -0.148091 0
M  V30 721 C 65.3203 1.48073 1.2872 0
M  V30 722 O 64.4453 0.892656 1.97131 0
M  V30 723 C 65.0403 3.37786 -0.261982 0
M  V30 724 C 63.5993 3.76235 0.111384 0
M  V30 725 C 62.7463 2.70713 -0.60083 0
M  V30 726 H 65.6973 1.37927 -0.78497 0
M  V30 727 H 65.7183 3.77007 0.514364 0
M  V30 728 H 65.2303 3.6544 -1.30671 0
M  V30 729 H 63.3313 3.54198 1.15649 0
M  V30 730 H 63.4443 4.78391 -0.26052 0
M  V30 731 H 61.8083 2.54666 -0.0417783 0
M  V30 732 H 62.5913 3.01208 -1.64708 0
M  V30 733 N 65.0364 0.313813 1.54444 0
M  V30 734 C 66.2614 -0.296681 2.05267 0
M  V30 735 C 66.6864 -1.45757 1.18897 0
M  V30 736 O 66.0444 -1.80239 0.195886 0
M  V30 737 C 66.0924 -0.71831 3.53373 0
M  V30 738 O 65.1964 -1.82175 3.69981 0
M  V30 739 H 64.5374 -0.0554061 0.661684 0
M  V30 740 H 67.0674 0.459387 1.99376 0
M  V30 741 H 67.0774 -1.00364 3.95463 0
M  V30 742 H 65.7524 0.130821 4.15694 0
M  V30 743 H 64.3294 -1.53598 3.39797 0
M  V30 744 N 66.5145 -1.57545 0.0417849 0
M  V30 745 C 67.4775 -2.09885 -0.92093 0
M  V30 746 C 68.4775 -1.01648 -1.24596 0
M  V30 747 O 69.6675 -1.27759 -1.1842 0
M  V30 748 C 66.7995 -2.57527 -2.23367 0
M  V30 749 H 67.9925 -2.96236 -0.467382 0
M  V30 750 H 65.5455 -1.5493 -0.206467 0
M  V30 751 H 66.2805 -1.74542 -2.73323 0
M  V30 752 H 66.0655 -3.36613 -2.01083 0
M  V30 753 H 67.5555 -2.98201 -2.92346 0
M  V30 754 N 67.9926 0.231505 -1.5589 0
M  V30 755 C 69.2386 0.954429 -1.79617 0
M  V30 756 C 69.5936 1.82367 -0.613199 0
M  V30 757 O 68.8866 1.87524 0.393094 0
M  V30 758 C 69.0806 1.83577 -3.0665 0
M  V30 759 C 68.9096 1.05334 -4.3719 0
M  V30 760 C 67.6796 0.75225 -4.99669 0
M  V30 761 C 69.8776 0.423444 -5.12554 0
M  V30 762 N 67.8596 -0.052627 -6.13877 0
M  V30 763 C 69.2306 -0.245287 -6.19515 0
M  V30 764 C 71.2856 0.335466 -4.96769 0
M  V30 765 C 69.9886 -0.993566 -7.12405 0
M  V30 766 C 72.0146 -0.399321 -5.9005 0
M  V30 767 C 71.3766 -1.05663 -6.9643 0
M  V30 768 H 67.4756 0.329846 -0.709031 0
M  V30 769 H 70.0596 0.226172 -1.93382 0
M  V30 770 H 68.2306 2.53592 -2.94186 0
M  V30 771 H 69.9626 2.49541 -3.18608 0
M  V30 772 H 66.7176 1.06783 -4.61405 0
M  V30 773 H 67.1416 -0.443609 -6.75545 0
M  V30 774 H 71.7836 0.829311 -4.14587 0
M  V30 775 H 69.5016 -1.49896 -7.94076 0
M  V30 776 H 73.0876 -0.468265 -5.79913 0
M  V30 777 H 71.9676 -1.61612 -7.67366 0
M  V30 778 N 69.4707 1.49531 0.497807 0
M  V30 779 C 70.4187 1.66926 1.61983 0
M  V30 780 C 71.4127 0.535167 1.60724 0
M  V30 781 O 72.6187 0.714896 1.65195 0
M  V30 782 H 68.9937 0.526415 0.537021 0
M  V30 783 H 70.9647 2.61098 1.44465 0
M  V30 784 C 69.7137 1.75602 3.00099 0
M  V30 785 H 69.0367 2.62244 3.01775 0
M  V30 786 H 70.4767 1.91807 3.78135 0
M  V30 787 C 68.9357 0.501543 3.33146 0
M  V30 788 O 69.4657 -0.371342 3.9998 0
M  V30 789 N 67.6717 0.363531 2.88317 0
M  V30 790 H 67.2187 1.07485 2.34104 0
M  V30 791 H 67.1767 -0.474728 3.10795 0
M  V30 792 N 70.9488 -0.749086 1.3866 0
M  V30 793 C 71.8788 -1.8764 1.38973 0
M  V30 794 C 72.8598 -1.68178 0.255004 0
M  V30 795 O 74.0448 -1.88704 0.458754 0
M  V30 796 C 71.1748 -3.25222 1.21851 0
M  V30 797 C 70.1288 -3.59295 2.32575 0
M  V30 798 C 69.4548 -4.95663 2.00555 0
M  V30 799 C 70.7548 -3.63709 3.7485 0
M  V30 800 H 72.4488 -1.87635 2.3331 0
M  V30 801 H 69.9948 -0.901329 1.12303 0
M  V30 802 H 71.9478 -4.03746 1.20695 0
M  V30 803 H 70.6718 -3.25719 0.239775 0
M  V30 804 H 69.3308 -2.83093 2.32925 0
M  V30 805 H 68.9788 -4.92724 1.01154 0
M  V30 806 H 68.6788 -5.19429 2.74714 0
M  V30 807 H 70.2028 -5.7656 2.01024 0
M  V30 808 H 71.6168 -4.32338 3.76506 0
M  V30 809 H 70.0138 -3.98986 4.48252 0
M  V30 810 H 71.0838 -2.63834 4.06841 0
M  V30 811 N 72.4269 -1.23603 -0.977757 0
M  V30 812 C 73.3589 -0.977369 -2.07317 0
M  V30 813 C 74.3719 0.0495845 -1.62724 0
M  V30 814 O 75.5609 -0.186261 -1.77526 0
M  V30 815 C 72.6609 -0.451216 -3.35883 0
M  V30 816 C 71.8339 -1.53896 -4.09432 0
M  V30 817 C 70.8929 -1.01721 -5.16274 0
M  V30 818 O 69.9189 -1.70676 -5.43009 0
M  V30 819 N 71.1209 0.153594 -5.80297 0
M  V30 820 H 73.8859 -1.92047 -2.30082 0
M  V30 821 H 71.4469 -1.14497 -1.14465 0
M  V30 822 H 73.4389 -0.0871574 -4.04606 0
M  V30 823 H 72.0089 0.397368 -3.10064 0
M  V30 824 H 71.2289 -2.07566 -3.35127 0
M  V30 825 H 72.5169 -2.27037 -4.55337 0
M  V30 826 H 71.9149 0.730323 -5.60966 0
M  V30 827 H 70.4719 0.458892 -6.50183 0
M  V30 828 N 73.905 1.17692 -1.04816 0
M  V30 829 C 75.316 1.69501 -0.782698 0
M  V30 830 C 75.667 1.83456 0.695577 0
M  V30 831 O 74.792 1.51942 1.54086 0
M  V30 832 C 75.387 3.07874 -1.41419 0
M  V30 833 C 73.946 3.56864 -1.19686 0
M  V30 834 C 73.093 2.3322 -1.50012 0
M  V30 835 H 76.044 1.02262 -1.2136 0
M  V30 836 H 76.065 3.71528 -0.821428 0
M  V30 837 H 75.577 2.97685 -2.49009 0
M  V30 838 H 73.678 3.72337 -0.140043 0
M  V30 839 H 73.791 4.39851 -1.89916 0
M  V30 840 H 72.155 2.37501 -0.920071 0
M  V30 841 H 72.938 2.25644 -2.58727 0
M  V30 842 N 75.3831 0.828654 1.34056 0
M  V30 843 C 76.6291 0.429279 1.98818 0
M  V30 844 C 76.9841 -0.998011 1.64492 0
M  V30 845 O 76.2771 -1.68652 0.909228 0
M  V30 846 C 76.4711 0.575226 3.52741 0
M  V30 847 C 76.3001 2.01515 4.02022 0
M  V30 848 C 75.0701 2.64825 4.30344 0
M  V30 849 C 77.2681 2.98261 4.18981 0
M  V30 850 N 75.2501 3.99998 4.65698 0
M  V30 851 C 76.6211 4.18356 4.57578 0
M  V30 852 C 78.6761 2.94802 4.01243 0
M  V30 853 C 77.3791 5.35454 4.80293 0
M  V30 854 C 79.4051 4.11121 4.25128 0
M  V30 855 C 78.7671 5.29969 4.64018 0
M  V30 856 H 74.8661 0.205304 0.754569 0
M  V30 857 H 77.4501 1.07457 1.62361 0
M  V30 858 H 75.6211 -0.0401962 3.88379 0
M  V30 859 H 77.3531 0.148292 4.04428 0
M  V30 860 H 74.1081 2.16027 4.21461 0
M  V30 861 H 74.5321 4.69653 4.87601 0
M  V30 862 H 79.1741 2.04054 3.70299 0
M  V30 863 H 76.8921 6.26755 5.10102 0
M  V30 864 H 80.4781 4.0985 4.12934 0
M  V30 865 H 79.3581 6.18479 4.82134 0
M  V30 866 N 76.8612 -1.46375 0.584142 0
M  V30 867 C 78.2772 -1.57694 0.245929 0
M  V30 868 C 78.4772 -1.57903 -1.25175 0
M  V30 869 O 77.5332 -1.49676 -2.03355 0
M  V30 870 C 78.8462 -2.87028 0.896402 0
M  V30 871 C 80.3942 -3.00662 0.870127 0
M  V30 872 C 80.8692 -4.32734 1.50017 0
M  V30 873 N 82.3602 -4.39436 1.46458 0
M  V30 874 C 83.0952 -5.40248 1.92144 0
M  V30 875 N 82.5912 -6.47726 2.4581 0
M  V30 876 N 84.3842 -5.31459 1.83052 0
M  V30 877 H 76.5352 -1.44483 1.55687 0
M  V30 878 H 78.7982 -0.689291 0.650831 0
M  V30 879 H 78.5042 -2.9269 1.95002 0
M  V30 880 H 78.3782 -3.75014 0.405486 0
M  V30 881 H 80.7652 -2.94581 -0.174871 0
M  V30 882 H 80.8462 -2.14148 1.39908 0
M  V30 883 H 80.4902 -4.39573 2.54437 0
M  V30 884 H 80.4202 -5.18025 0.946432 0
M  V30 885 H 82.9112 -3.62367 1.07231 0
M  V30 886 H 83.2242 -7.20863 2.78525 0
M  V30 887 H 81.5692 -6.48542 2.49836 0
M  V30 888 H 84.7602 -4.46396 1.40883 0
M  V30 889 H 84.9332 -6.09881 2.18973 0
M  V30 890 N 78.3393 -0.321999 -1.54275 0
M  V30 891 C 79.5883 0.281931 -1.9972 0
M  V30 892 C 79.9013 1.53369 -1.21397 0
M  V30 893 O 81.1073 2.21352 -1.57211 0
M  V30 894 C 79.5633 0.5529 -3.55628 0
M  V30 895 C 79.1713 -0.681721 -4.42783 0
M  V30 896 C 80.9153 1.11687 -4.09544 0
M  V30 897 C 78.8223 -0.382742 -5.9016 0
M  V30 898 H 77.7523 0.109124 -0.746062 0
M  V30 899 H 80.4033 -0.43398 -1.78294 0
M  V30 900 H 78.7853 1.32896 -3.73035 0
M  V30 901 H 79.9593 -1.45723 -4.37151 0
M  V30 902 H 78.2743 -1.1658 -3.99748 0
M  V30 903 H 80.8713 1.35515 -5.17242 0
M  V30 904 H 81.2143 2.06575 -3.61431 0
M  V30 905 H 81.7473 0.402032 -3.95763 0
M  V30 906 H 78.4863 -1.30076 -6.42464 0
M  V30 907 H 78.0063 0.355094 -5.98748 0
M  V30 908 H 79.6853 0.00800157 -6.47 0
M  V30 909 N 79.8174 1.5752 -0.0501392 0
M  V30 910 C 81.0634 1.92936 0.624798 0
M  V30 911 C 81.3964 0.928685 1.70555 0
M  V30 912 O 80.6714 -0.0454779 1.94447 0
M  V30 913 C 80.9544 3.38737 1.22185 0
M  V30 914 C 80.8074 4.49552 0.149218 0
M  V30 915 C 82.1264 3.84913 2.13378 0
M  V30 916 H 79.2454 0.701604 0.225657 0
M  V30 917 H 81.8874 1.89671 -0.111693 0
M  V30 918 H 80.0374 3.4165 1.84953 0
M  V30 919 H 81.7094 4.58768 -0.482648 0
M  V30 920 H 79.9524 4.30638 -0.522841 0
M  V30 921 H 80.6234 5.48653 0.606966 0
M  V30 922 H 83.0994 3.8387 1.60572 0
M  V30 923 H 81.9754 4.87584 2.52097 0
M  V30 924 H 82.2364 3.21611 3.03346 0
M  V30 925 N 81.2955 -0.223234 1.56011 0
M  V30 926 C 82.5415 -0.949279 1.79211 0
M  V30 927 C 82.8745 -1.84054 0.619494 0
M  V30 928 O 82.1495 -1.90726 -0.381317 0
M  V30 929 C 82.4325 -1.78965 3.12479 0
M  V30 930 C 82.2855 -0.924997 4.40186 0
M  V30 931 C 83.6045 -2.76774 3.42175 0
M  V30 932 H 80.7235 -0.343676 0.651963 0
M  V30 933 H 83.3655 -0.218253 1.88742 0
M  V30 934 H 81.5155 -2.41291 3.04485 0
M  V30 935 H 83.1875 -0.318615 4.60198 0
M  V30 936 H 81.4305 -0.230344 4.33188 0
M  V30 937 H 82.1015 -1.54735 5.29869 0
M  V30 938 H 84.5775 -2.24584 3.50287 0
M  V30 939 H 83.4535 -3.32678 4.36597 0
M  V30 940 H 83.7145 -3.54429 2.64258 0
M  V30 941 N 82.7736 -1.49793 -0.48987 0
M  V30 942 C 84.0196 -1.60078 -1.24511 0
M  V30 943 C 84.3526 -0.291608 -1.91998 0
M  V30 944 O 83.6276 0.705647 -1.81248 0
M  V30 945 C 83.9106 -2.76791 -2.30345 0
M  V30 946 C 83.7636 -4.17535 -1.67286 0
M  V30 947 C 85.0826 -2.89111 -3.31817 0
M  V30 948 H 82.2016 -0.582645 -0.451324 0
M  V30 949 H 84.8436 -1.82117 -0.541612 0
M  V30 950 H 82.9936 -2.5813 -2.90346 0
M  V30 951 H 84.6656 -4.4774 -1.11026 0
M  V30 952 H 82.9086 -4.22665 -0.976577 0
M  V30 953 H 83.5796 -4.95094 -2.44103 0
M  V30 954 H 86.0556 -3.06133 -2.81819 0
M  V30 955 H 84.9316 -3.72433 -4.03219 0
M  V30 956 H 85.1926 -1.9893 -3.94815 0
M  V30 957 N 84.2517 0.741722 -1.39055 0
M  V30 958 C 85.6677 1.04638 -1.20512 0
M  V30 959 C 85.8677 2.01405 -0.0620218 0
M  V30 960 O 84.9237 2.45547 0.588457 0
M  V30 961 C 86.2367 1.6151 -2.53643 0
M  V30 962 C 87.7847 1.73623 -2.6043 0
M  V30 963 C 88.2597 2.33906 -3.93767 0
M  V30 964 N 89.7507 2.41323 -3.9537 0
M  V30 965 C 90.4857 2.88888 -4.95309 0
M  V30 966 N 89.9817 3.36401 -6.05645 0
M  V30 967 N 91.7747 2.88037 -4.82692 0
M  V30 968 H 83.9257 0.0998155 -2.12165 0
M  V30 969 H 86.1887 0.106907 -0.941953 0
M  V30 970 H 85.8947 0.978739 -3.37807 0
M  V30 971 H 85.7687 2.60411 -2.72885 0
M  V30 972 H 88.1557 2.36384 -1.76655 0
M  V30 973 H 88.2367 0.733945 -2.45045 0
M  V30 974 H 87.8807 1.71776 -4.7797 0
M  V30 975 H 87.8107 3.34799 -4.06469 0
M  V30 976 H 90.3017 2.07734 -3.15682 0
M  V30 977 H 90.6147 3.71186 -6.77821 0
M  V30 978 H 88.9597 3.34427 -6.09248 0
M  V30 979 H 92.1507 2.50237 -3.95599 0
M  V30 980 H 92.3237 3.24792 -5.60726 0
M  V30 981 N 85.7298 1.2412 0.971189 0
M  V30 982 C 87.0068 0.986867 1.6888 0
M  V30 983 C 87.3868 -0.491857 2.0529 0
M  V30 984 O 86.7348 -1.46531 1.75331 0
M  V30 985 C 86.9448 1.9063 2.92338 0
M  V30 986 C 88.2928 2.17515 3.64654 0
M  V30 987 O 89.3168 1.88254 3.02388 0
M  V30 988 O 88.1758 2.6719 4.7673 0
M  V30 989 H 85.2698 0.372944 0.738134 0
M  V30 990 H 87.8158 1.35203 1.02559 0
M  V30 991 H 86.5878 2.90552 2.62097 0
M  V30 992 H 86.2108 1.54408 3.66393 0
M  V30 993 N 87.2079 -1.17134 1.05439 0
M  V30 994 C 88.6189 -1.69084 0.791676 0
M  V30 995 C 88.9699 -1.83822 -0.685839 0
M  V30 996 O 88.0949 -1.52757 -1.53278 0
M  V30 997 C 88.6899 -3.07119 1.4305 0
M  V30 998 C 87.2489 -3.56225 1.21577 0
M  V30 999 C 86.3959 -2.32421 1.51247 0
M  V30 1000 H 89.3469 -1.01617 1.219 0
M  V30 1001 H 89.3679 -3.71087 0.84112 0
M  V30 1002 H 88.8799 -2.9636 2.50584 0
M  V30 1003 H 86.9809 -3.72257 0.159787 0
M  V30 1004 H 87.0939 -4.38837 1.92246 0
M  V30 1005 H 85.4579 -2.3701 0.932653 0
M  V30 1006 H 86.2409 -2.24268 2.5992 0
M  V30 1007 N 88.686 -0.835752 -1.33615 0
M  V30 1008 C 89.649 -0.272 -2.2758 0
M  V30 1009 C 90.649 0.557487 -1.50827 0
M  V30 1010 O 91.839 0.37173 -1.70188 0
M  V30 1011 C 88.971 0.617173 -3.35267 0
M  V30 1012 H 90.164 -1.10111 -2.78954 0
M  V30 1013 H 87.717 -0.608594 -1.43965 0
M  V30 1014 H 88.452 1.46884 -2.89129 0
M  V30 1015 H 88.237 0.0237066 -3.92093 0
M  V30 1016 H 89.727 1.005 -4.05326 0
M  V30 1017 N 90.1641 1.46063 -0.591896 0
M  V30 1018 C 91.3921 2.06717 -0.0868936 0
M  V30 1019 C 91.8071 1.43916 1.22203 0
M  V30 1020 O 91.1641 0.547698 1.74088 0
M  V30 1021 C 91.2151 3.6142 0.0758725 0
M  V30 1022 O 90.9361 4.21874 -1.18126 0
M  V30 1023 C 92.4371 4.39025 0.61416 0
M  V30 1024 H 89.6571 0.668162 -0.0616518 0
M  V30 1025 H 92.2011 1.8755 -0.815175 0
M  V30 1026 H 90.3561 3.79983 0.754413 0
M  V30 1027 H 90.7701 5.14861 -1.00092 0
M  V30 1028 H 92.2441 5.4783 0.677193 0
M  V30 1029 H 92.7211 4.07708 1.63312 0
M  V30 1030 H 93.3271 4.2529 -0.0298142 0
M  V30 1031 N 91.6422 0.330177 1.54103 0
M  V30 1032 C 92.5892 -0.532762 2.24567 0
M  V30 1033 C 93.5592 -1.10635 1.23892 0
M  V30 1034 O 94.7442 -1.14546 1.5259 0
M  V30 1035 C 91.8842 -1.6845 3.01195 0
M  V30 1036 C 90.9972 -1.13951 4.167 0
M  V30 1037 C 90.1322 -2.25746 4.80845 0
M  V30 1038 C 89.1712 -1.6853 5.88442 0
M  V30 1039 N 88.3082 -2.74014 6.46421 0
M  V30 1040 H 93.1482 0.0746905 2.97906 0
M  V30 1041 H 90.6852 0.048632 1.4702 0
M  V30 1042 H 92.6432 -2.36234 3.43874 0
M  V30 1043 H 91.2732 -2.26314 2.30178 0
M  V30 1044 H 90.3252 -0.35301 3.78758 0
M  V30 1045 H 91.6372 -0.680892 4.94131 0
M  V30 1046 H 90.7912 -3.01422 5.26526 0
M  V30 1047 H 89.5302 -2.74947 4.0281 0
M  V30 1048 H 88.5352 -0.913543 5.42157 0
M  V30 1049 H 89.7602 -1.20198 6.68378 0
M  V30 1050 H 87.7062 -3.22494 5.71256 0
M  V30 1051 H 87.6232 -2.32735 7.19285 0
M  V30 1052 H 88.8912 -3.49499 6.96757 0
M  V30 1053 N 93.1203 -1.57491 0.0584922 0
M  V30 1054 C 94.5363 -1.56792 -0.298091 0
M  V30 1055 C 94.7363 -1.06679 -1.70944 0
M  V30 1056 O 93.7923 -0.726672 -2.41818 0
M  V30 1057 C 95.1053 -3.00461 -0.119879 0
M  V30 1058 C 96.6533 -3.1242 -0.190428 0
M  V30 1059 C 97.1283 -4.57982 -0.0406567 0
M  V30 1060 N 98.6193 -4.63099 -0.0966958 0
M  V30 1061 C 99.3543 -5.734 -0.00502943 0
M  V30 1062 N 98.8503 -6.9266 0.139402 0
M  V30 1063 N 100.643 -5.62067 -0.0611391 0
M  V30 1064 H 92.7943 -1.88386 0.98105 0
M  V30 1065 H 95.0573 -0.867865 0.381463 0
M  V30 1066 H 94.7633 -3.41187 0.85349 0
M  V30 1067 H 94.6373 -3.66843 -0.877833 0
M  V30 1068 H 97.0243 -2.71589 -1.15427 0
M  V30 1069 H 97.1053 -2.48702 0.598405 0
M  V30 1070 H 96.7493 -4.995 0.919897 0
M  V30 1071 H 96.6793 -5.19715 -0.848727 0
M  V30 1072 H 99.1703 -3.77331 -0.207277 0
M  V30 1073 H 99.4833 -7.72536 0.201855 0
M  V30 1074 H 97.8283 -6.94781 0.174586 0
M  V30 1075 H 101.019 -4.67782 -0.172583 0
M  V30 1076 H 101.192 -6.47999 0.0137562 0
M  V30 1077 N 94.5984 0.214957 -1.56127 0
M  V30 1078 C 95.5614 1.24997 -1.92116 0
M  V30 1079 C 96.5614 1.39467 -0.800344 0
M  V30 1080 O 97.7514 1.37619 -1.06802 0
M  V30 1081 C 94.8834 2.62271 -2.17777 0
M  V30 1082 H 96.0764 0.942875 -2.84693 0
M  V30 1083 H 93.6294 0.455654 -1.49511 0
M  V30 1084 H 94.3644 2.98068 -1.27773 0
M  V30 1085 H 94.1494 2.53143 -2.99434 0
M  V30 1086 H 95.6394 3.36946 -2.46693 0
M  V30 1087 N 96.0765 1.50051 0.48192 0
M  V30 1088 C 97.0065 1.71046 1.58951 0
M  V30 1089 C 97.9875 0.559288 1.60642 0
M  V30 1090 O 99.1725 0.797243 1.77081 0
M  V30 1091 C 96.3025 1.79462 2.97339 0
M  V30 1092 C 95.2565 2.94558 3.10515 0
M  V30 1093 C 94.5825 2.88105 4.50444 0
M  V30 1094 C 95.8825 4.35227 2.88747 0
M  V30 1095 H 97.5765 2.6378 1.41635 0
M  V30 1096 H 95.1225 1.26936 0.679942 0
M  V30 1097 H 97.0755 1.92734 3.74742 0
M  V30 1098 H 95.7995 0.833412 3.15788 0
M  V30 1099 H 94.4585 2.80918 2.35543 0
M  V30 1100 H 94.1065 1.89853 4.65795 0
M  V30 1101 H 93.8065 3.65366 4.60197 0
M  V30 1102 H 95.3305 3.03412 5.29881 0
M  V30 1103 H 96.7445 4.49449 3.55905 0
M  V30 1104 H 95.1415 5.13856 3.09955 0
M  V30 1105 H 96.2115 4.48347 1.84696 0
M  V30 1106 N 97.5546 -0.734337 1.39446 0
M  V30 1107 C 98.9706 -1.03997 1.21065 0
M  V30 1108 C 99.1706 -2.01369 0.0727019 0
M  V30 1109 O 98.2266 -2.45856 -0.575426 0
M  V30 1110 C 99.5396 -1.60163 2.54496 0
M  V30 1111 C 101.088 -1.7224 2.61347 0
M  V30 1112 C 101.563 -2.31814 3.95002 0
M  V30 1113 N 103.054 -2.39223 3.96644 0
M  V30 1114 C 103.789 -2.86258 4.96834 0
M  V30 1115 N 103.285 -3.33184 6.07421 0
M  V30 1116 N 105.078 -2.85473 4.84213 0
M  V30 1117 H 97.2286 -0.0885624 2.12215 0
M  V30 1118 H 99.4916 -0.10191 0.942506 0
M  V30 1119 H 99.1976 -0.960811 3.38321 0
M  V30 1120 H 99.0716 -2.5896 2.74262 0
M  V30 1121 H 101.459 -2.35443 1.77906 0
M  V30 1122 H 101.54 -0.720939 2.4543 0
M  V30 1123 H 101.184 -1.69238 4.78875 0
M  V30 1124 H 101.114 -3.32638 4.08239 0
M  V30 1125 H 103.605 -2.06057 3.16779 0
M  V30 1126 H 103.918 -3.67586 6.7978 0
M  V30 1127 H 102.263 -3.31191 6.11013 0
M  V30 1128 H 105.454 -2.48136 3.96921 0
M  V30 1129 H 105.627 -3.21814 5.62441 0
M  V30 1130 N 99.0327 -1.24633 -0.964593 0
M  V30 1131 C 99.9427 -1.05859 -2.09359 0
M  V30 1132 C 100.959 0.00148855 -1.74 0
M  V30 1133 O 102.135 -0.197346 -2.00431 0
M  V30 1134 C 99.1997 -0.668879 -3.40187 0
M  V30 1135 C 98.2607 -1.80578 -3.89474 0
M  V30 1136 C 97.4937 -1.43457 -5.14058 0
M  V30 1137 O 97.7167 -0.325775 -5.69469 0
M  V30 1138 O 96.6507 -2.2613 -5.57807 0
M  V30 1139 H 100.477 -2.00516 -2.28094 0
M  V30 1140 H 98.0617 -1.03481 -1.0776 0
M  V30 1141 H 99.9437 -0.463211 -4.18846 0
M  V30 1142 H 98.6187 0.248536 -3.22744 0
M  V30 1143 H 97.5257 -2.06623 -3.11862 0
M  V30 1144 H 98.8587 -2.70208 -4.11398 0
M  V30 1145 N 100.511 1.16574 -1.06058 0
M  V30 1146 C 101.474 2.19085 -0.673392 0
M  V30 1147 C 102.474 1.5835 0.279648 0
M  V30 1148 O 103.664 1.74088 0.0623488 0
M  V30 1149 C 100.796 3.40899 0.00954234 0
M  V30 1150 H 101.989 2.54853 -1.58081 0
M  V30 1151 H 99.5418 1.30808 -0.855516 0
M  V30 1152 H 100.277 3.10684 0.929826 0
M  V30 1153 H 100.062 3.86233 -0.67573 0
M  V30 1154 H 101.552 4.1675 0.266245 0
M  V30 1155 N 101.989 0.842826 1.3317 0
M  V30 1156 C 102.952 0.284065 2.27433 0
M  V30 1157 C 103.952 -0.54948 1.5112 0
M  V30 1158 O 105.142 -0.362699 1.70382 0
M  V30 1159 C 102.274 -0.599384 3.35589 0
M  V30 1160 H 103.467 1.11589 2.78366 0
M  V30 1161 H 101.02 0.616221 1.4364 0
M  V30 1162 H 101.755 -1.45349 2.89904 0
M  V30 1163 H 101.54 -0.00291266 3.921 0
M  V30 1164 H 103.03 -0.983488 4.05854 0
M  V30 1165 N 103.467 -1.45747 0.599634 0
M  V30 1166 C 104.714 -2.02292 0.0917284 0
M  V30 1167 C 105.042 -1.46906 -1.27472 0
M  V30 1168 O 104.297 -0.630652 -1.8526 0
M  V30 1169 C 104.596 -3.57399 -0.00602758 0
M  V30 1170 C 104.262 -4.31902 1.29503 0
M  V30 1171 C 102.924 -4.51974 1.65144 0
M  V30 1172 C 105.276 -4.74551 2.15525 0
M  V30 1173 C 102.604 -5.11949 2.86574 0
M  V30 1174 C 104.956 -5.35868 3.36196 0
M  V30 1175 C 103.62 -5.54165 3.72099 0
M  V30 1176 H 102.89 -0.740239 0.0335658 0
M  V30 1177 H 105.537 -1.7491 0.779661 0
M  V30 1178 H 103.842 -3.84014 -0.777183 0
M  V30 1179 H 105.539 -3.98846 -0.415038 0
M  V30 1180 H 102.129 -4.16588 1.00761 0
M  V30 1181 H 106.313 -4.58784 1.8929 0
M  V30 1182 H 101.569 -5.24305 3.14507 0
M  V30 1183 H 105.743 -5.6787 4.03109 0
M  V30 1184 H 103.37 -6.00406 4.6628 0
M  V30 1185 N 104.945 -0.338344 -1.53925 0
M  V30 1186 C 106.193 0.259245 -2.0043 0
M  V30 1187 C 106.514 1.51484 -1.22791 0
M  V30 1188 O 105.784 1.93037 -0.33368 0
M  V30 1189 H 104.364 0.0987845 -0.740439 0
M  V30 1190 H 107.026 -0.458302 -1.89435 0
M  V30 1191 H 106.122 0.505334 -3.07982 0
M  V30 1192 N 106.423 1.57458 -0.0668435 0
M  V30 1193 C 107.355 2.09413 0.931601 0
M  V30 1194 C 108.368 1.02522 1.26464 0
M  V30 1195 O 109.557 1.30049 1.22269 0
M  V30 1196 C 106.657 2.53537 2.24882 0
M  V30 1197 C 105.83 3.83944 2.09537 0
M  V30 1198 C 104.889 4.14214 3.2452 0
M  V30 1199 O 103.915 4.83891 2.9973 0
M  V30 1200 N 105.117 3.67367 4.49469 0
M  V30 1201 H 107.882 2.95699 0.488048 0
M  V30 1202 H 105.443 1.61462 0.119009 0
M  V30 1203 H 107.435 2.70853 3.00701 0
M  V30 1204 H 106.005 1.72415 2.60753 0
M  V30 1205 H 105.225 3.76057 1.18215 0
M  V30 1206 H 106.513 4.69312 1.96529 0
M  V30 1207 H 105.911 3.11068 4.72497 0
M  V30 1208 H 104.468 3.89891 5.2233 0
M  V30 1209 N 107.901 -0.206675 1.56239 0
M  V30 1210 C 108.864 -1.23976 1.92776 0
M  V30 1211 C 109.864 -1.39041 0.807729 0
M  V30 1212 O 111.054 -1.37051 1.0753 0
M  V30 1213 C 108.186 -2.61112 2.19165 0
M  V30 1214 H 109.379 -0.927764 2.85189 0
M  V30 1215 H 106.932 -0.447718 1.4975 0
M  V30 1216 H 107.667 -2.97386 1.29352 0
M  V30 1217 H 107.452 -2.51552 3.00772 0
M  V30 1218 H 108.942 -3.35633 2.48476 0
M  V30 1219 N 109.379 -1.50304 -0.473955 0
M  V30 1220 C 110.329 -1.65347 -1.56985 0
M  V30 1221 C 111.313 -0.508176 -1.52664 0
M  V30 1222 O 112.505 -0.762446 -1.59737 0
M  V30 1223 C 109.634 -1.74832 -2.95447 0
M  V30 1224 C 108.72 -2.95028 -3.04662 0
M  V30 1225 N 109.111 -4.18747 -2.83698 0
M  V30 1226 C 107.409 -2.93527 -3.35795 0
M  V30 1227 C 108.11 -4.99687 -2.97805 0
M  V30 1228 N 107.086 -4.33585 -3.2788 0
M  V30 1229 H 110.888 -2.58698 -1.39472 0
M  V30 1230 H 108.402 -1.47449 -0.680629 0
M  V30 1231 H 110.399 -1.83712 -3.7424 0
M  V30 1232 H 109.059 -0.826376 -3.14008 0
M  V30 1233 H 110.07 -4.48291 -2.59337 0
M  V30 1234 H 106.747 -2.10821 -3.60362 0
M  V30 1235 H 108.137 -6.08057 -2.85861 0
M  V30 1236 N 110.857 0.726932 -1.39834 0
M  V30 1237 C 112.103 1.48884 -1.377 0
M  V30 1238 C 112.436 1.94185 0.0244852 0
M  V30 1239 O 111.711 1.67361 0.990986 0
M  V30 1240 C 111.994 2.72288 -2.3565 0
M  V30 1241 C 111.847 2.32956 -3.84775 0
M  V30 1242 C 113.166 3.74414 -2.31306 0
M  V30 1243 H 110.285 0.540062 -0.5015 0
M  V30 1244 H 112.927 0.830547 -1.70886 0
M  V30 1245 H 111.077 3.28457 -2.07481 0
M  V30 1246 H 112.749 1.82356 -4.23726 0
M  V30 1247 H 110.992 1.65088 -4.01159 0
M  V30 1248 H 111.663 3.21362 -4.4881 0
M  V30 1249 H 114.139 3.27849 -2.56231 0
M  V30 1250 H 113.015 4.58414 -3.01907 0
M  V30 1251 H 113.276 4.21909 -1.32081 0
M  V30 1252 N 112.336 1.25143 0.95797 0
M  V30 1253 C 113.246 1.06968 2.08794 0
M  V30 1254 C 114.262 0.00773911 1.73998 0
M  V30 1255 O 115.438 0.207972 2.00323 0
M  V30 1256 C 112.503 0.68691 3.39827 0
M  V30 1257 C 111.564 1.82641 3.88511 0
M  V30 1258 C 110.797 1.46181 5.1329 0
M  V30 1259 O 111.02 0.355971 5.69288 0
M  V30 1260 O 109.954 2.29085 5.566 0
M  V30 1261 H 113.78 2.01723 2.27027 0
M  V30 1262 H 111.365 1.04051 1.07209 0
M  V30 1263 H 113.247 0.485417 4.18595 0
M  V30 1264 H 111.922 -0.231417 3.22872 0
M  V30 1265 H 110.829 2.08274 3.10762 0
M  V30 1266 H 112.162 2.72386 4.09959 0
M  V30 1267 N 113.814 -1.1601 1.06675 0
M  V30 1268 C 114.724 -2.24156 0.692179 0
M  V30 1269 C 115.74 -1.71507 -0.293513 0
M  V30 1270 O 116.916 -2.009 -0.141861 0
M  V30 1271 C 113.981 -3.46587 0.0884131 0
M  V30 1272 C 113.042 -4.14257 1.12646 0
M  V30 1273 C 112.275 -5.30844 0.551416 0
M  V30 1274 O 112.498 -5.66858 -0.634656 0
M  V30 1275 O 111.432 -5.87848 1.29298 0
M  V30 1276 H 115.258 -2.58513 1.59388 0
M  V30 1277 H 112.843 -1.23599 0.83926 0
M  V30 1278 H 114.725 -4.20679 -0.246361 0
M  V30 1279 H 113.4 -3.13994 -0.786712 0
M  V30 1280 H 112.307 -3.42118 1.51348 0
M  V30 1281 H 113.64 -4.50914 1.97325 0
M  V30 1282 N 115.292 -0.849877 -1.32721 0
M  V30 1283 C 116.255 -0.296122 -2.27279 0
M  V30 1284 C 117.255 0.541458 -1.5141 0
M  V30 1285 O 118.445 0.353658 -1.70572 0
M  V30 1286 C 115.577 0.581579 -3.35902 0
M  V30 1287 H 116.77 -1.13064 -2.77771 0
M  V30 1288 H 114.323 -0.62383 -1.43311 0
M  V30 1289 H 115.058 1.43809 -2.9067 0
M  V30 1290 H 114.843 -0.0178814 -3.92096 0
M  V30 1291 H 116.333 0.961951 -4.0637 0
M  V30 1292 N 116.77 1.45427 -0.607355 0
M  V30 1293 C 118.181 1.85756 -0.187535 0
M  V30 1294 C 118.532 1.5077 1.25551 0
M  V30 1295 O 117.657 0.93427 1.95193 0
M  V30 1296 C 118.252 3.37154 -0.333572 0
M  V30 1297 C 116.811 3.76387 0.0315542 0
M  V30 1298 C 115.958 2.69377 -0.658117 0
M  V30 1299 H 118.909 1.36231 -0.81405 0
M  V30 1300 H 118.93 3.78014 0.43428 0
M  V30 1301 H 118.442 3.62586 -1.38393 0
M  V30 1302 H 116.543 3.56571 1.0811 0
M  V30 1303 H 116.656 4.77731 -0.361935 0
M  V30 1304 H 115.02 2.5452 -0.0957873 0
M  V30 1305 H 115.803 2.97646 -1.7106 0
M  V30 1306 N 118.248 0.346503 1.53744 0
M  V30 1307 C 119.494 -0.249473 2.0126 0
M  V30 1308 C 119.827 -1.49965 1.23386 0
M  V30 1309 O 119.102 -1.91811 0.32229 0
M  V30 1310 C 119.385 -0.560643 3.55709 0
M  V30 1311 C 119.238 0.701836 4.44291 0
M  V30 1312 C 120.557 -1.36905 4.18264 0
M  V30 1313 H 117.676 -0.0891987 0.731582 0
M  V30 1314 H 120.318 0.467624 1.84156 0
M  V30 1315 H 118.468 -1.17156 3.70414 0
M  V30 1316 H 120.14 1.33974 4.41417 0
M  V30 1317 H 118.383 1.32612 4.13033 0
M  V30 1318 H 119.054 0.43933 5.50249 0
M  V30 1319 H 121.53 -0.852448 4.07275 0
M  V30 1320 H 120.406 -1.55553 5.26398 0
M  V30 1321 H 120.667 -2.37203 3.73078 0
M  V30 1322 N 119.726 -1.57421 0.075193 0
M  V30 1323 C 120.972 -1.93905 -0.594025 0
M  V30 1324 C 121.305 -0.955701 -1.69056 0
M  V30 1325 O 120.58 0.0145373 -1.94495 0
M  V30 1326 C 120.863 -3.40638 -1.1678 0
M  V30 1327 C 120.716 -4.49733 -0.0776792 0
M  V30 1328 C 122.035 -3.88259 -2.07228 0
M  V30 1329 H 119.154 -0.705105 -0.214466 0
M  V30 1330 H 121.796 -1.8947 0.141854 0
M  V30 1331 H 119.946 -3.44549 -1.79494 0
M  V30 1332 H 121.618 -4.57942 0.555573 0
M  V30 1333 H 119.861 -4.29751 0.591286 0
M  V30 1334 H 120.532 -5.49549 -0.519603 0
M  V30 1335 H 123.008 -3.86376 -1.54445 0
M  V30 1336 H 121.884 -4.91533 -2.44308 0
M  V30 1337 H 122.145 -3.26396 -2.98191 0
M  V30 1338 N 121.204 0.198386 -1.56346 0
M  V30 1339 C 122.134 1.24865 -1.9731 0
M  V30 1340 C 123.115 1.47651 -0.844576 0
M  V30 1341 O 124.3 1.59444 -1.10866 0
M  V30 1342 C 121.43 2.59358 -2.30977 0
M  V30 1343 C 120.384 2.5119 -3.46537 0
M  V30 1344 C 119.71 3.89926 -3.65871 0
M  V30 1345 C 121.01 2.03977 -4.80823 0
M  V30 1346 H 122.704 0.908252 -2.85291 0
M  V30 1347 H 120.25 0.435462 -1.37258 0
M  V30 1348 H 122.203 3.33011 -2.58228 0
M  V30 1349 H 120.927 2.95132 -1.39874 0
M  V30 1350 H 119.586 1.79993 -3.19371 0
M  V30 1351 H 119.234 4.23046 -2.72105 0
M  V30 1352 H 118.934 3.85336 -4.4361 0
M  V30 1353 H 120.458 4.65205 -3.95495 0
M  V30 1354 H 121.872 2.67386 -5.07127 0
M  V30 1355 H 120.269 2.10397 -5.62008 0
M  V30 1356 H 121.339 0.992861 -4.74626 0
M  V30 1357 N 122.682 1.50554 0.465978 0
M  V30 1358 C 123.928 1.62038 1.21949 0
M  V30 1359 C 124.261 0.322116 1.9151 0
M  V30 1360 O 123.536 -0.676723 1.82348 0
M  V30 1361 C 123.819 2.80421 2.25912 0
M  V30 1362 C 123.672 4.20144 1.60622 0
M  V30 1363 C 124.991 2.94354 3.27176 0
M  V30 1364 H 122.11 0.589752 0.441998 0
M  V30 1365 H 124.752 1.82956 0.51257 0
M  V30 1366 H 122.902 2.62717 2.86203 0
M  V30 1367 H 124.574 4.49449 1.03889 0
M  V30 1368 H 122.817 4.24165 0.909211 0
M  V30 1369 H 123.488 4.98914 2.36196 0
M  V30 1370 H 125.964 3.10578 2.76913 0
M  V30 1371 H 124.84 3.788 3.97242 0
M  V30 1372 H 125.101 2.05186 3.916 0
M  V30 1373 N 124.16 -0.719506 1.40217 0
M  V30 1374 C 125.09 -1.8465 1.42922 0
M  V30 1375 C 126.071 -1.67599 0.29062 0
M  V30 1376 O 127.256 -1.87688 0.498677 0
M  V30 1377 C 124.386 -3.22565 1.28722 0
M  V30 1378 C 123.34 -3.54281 2.40144 0
M  V30 1379 C 122.666 -4.91298 2.11023 0
M  V30 1380 C 123.966 -3.55676 3.82481 0
M  V30 1381 H 125.66 -1.82644 2.37237 0
M  V30 1382 H 123.206 -0.877305 1.1419 0
M  V30 1383 H 125.159 -4.01095 1.29232 0
M  V30 1384 H 123.883 -3.25137 0.308811 0
M  V30 1385 H 122.542 -2.78088 2.38877 0
M  V30 1386 H 122.19 -4.90468 1.11582 0
M  V30 1387 H 121.89 -5.13485 2.8567 0
M  V30 1388 H 123.414 -5.72166 2.13209 0
M  V30 1389 H 124.828 -4.24254 3.85592 0
M  V30 1390 H 123.225 -3.89388 4.56614 0
M  V30 1391 H 124.295 -2.55144 4.12346 0
M  V30 1392 N 125.638 -1.25649 -0.95132 0
M  V30 1393 C 126.868 -1.13179 -1.72841 0
M  V30 1394 C 127.276 0.316827 -1.86528 0
M  V30 1395 O 126.619 1.22948 -1.3649 0
M  V30 1396 C 126.681 -1.71644 -3.15878 0
M  V30 1397 C 126.345 -3.20667 -3.25609 0
M  V30 1398 C 127.342 -4.17616 -3.09666 0
M  V30 1399 C 125.027 -3.6094 -3.49324 0
M  V30 1400 C 127.021 -5.52817 -3.17289 0
M  V30 1401 C 124.708 -4.96278 -3.56584 0
M  V30 1402 C 125.706 -5.92025 -3.40581 0
M  V30 1403 O 125.394 -7.24899 -3.47528 0
M  V30 1404 H 125.126 -0.395389 -0.54831 0
M  V30 1405 H 127.68 -1.66566 -1.20187 0
M  V30 1406 H 125.91 -1.12707 -3.69911 0
M  V30 1407 H 127.599 -1.54225 -3.75459 0
M  V30 1408 H 128.365 -3.87842 -2.91211 0
M  V30 1409 H 124.244 -2.86907 -3.6084 0
M  V30 1410 H 127.788 -6.2753 -3.04716 0
M  V30 1411 H 123.685 -5.25716 -3.74556 0
M  V30 1412 H 124.453 -7.33039 -3.64138 0
M  V30 1413 N 127.117 1.15442 -1.07289 0
M  V30 1414 C 128.08 2.18358 -0.696591 0
M  V30 1415 C 129.08 1.58637 0.262837 0
M  V30 1416 O 130.27 1.74145 0.0438809 0
M  V30 1417 C 127.402 3.4089 -0.0266151 0
M  V30 1418 H 128.595 2.53162 -1.60776 0
M  V30 1419 H 126.148 1.29893 -0.869342 0
M  V30 1420 H 126.883 3.11653 0.896822 0
M  V30 1421 H 126.668 3.85495 -0.716657 0
M  V30 1422 H 128.158 4.17009 0.222028 0
M  V30 1423 N 128.595 0.856903 1.32268 0
M  V30 1424 C 129.872 0.382583 1.91822 0
M  V30 1425 C 130.252 -1.13407 1.78051 0
M  V30 1426 O 129.6 -1.95673 1.18001 0
M  V30 1427 C 129.81 0.849446 3.38505 0
M  V30 1428 C 131.158 0.867936 4.15634 0
M  V30 1429 O 132.182 0.794232 3.47232 0
M  V30 1430 O 131.041 0.972286 5.37781 0
M  V30 1431 H 128.135 0.112014 0.819379 0
M  V30 1432 H 130.681 0.943952 1.41024 0
M  V30 1433 H 129.453 1.89267 3.42482 0
M  V30 1434 H 129.076 0.265652 3.96712 0
M  V30 1435 N 130.073 -1.45103 0.615059 0
M  V30 1436 C 131.003 -2.33339 -0.0865619 0
M  V30 1437 C 131.984 -1.4727 -0.851209 0
M  V30 1438 O 133.169 -1.76026 -0.820281 0
M  V30 1439 C 130.299 -3.30095 -1.07956 0
M  V30 1440 C 129.253 -4.25858 -0.427628 0
M  V30 1441 C 128.579 -5.12361 -1.5294 0
M  V30 1442 C 129.879 -5.18165 0.655944 0
M  V30 1443 H 131.573 -2.92254 0.650224 0
M  V30 1444 H 129.119 -1.40532 0.314138 0
M  V30 1445 H 131.072 -3.90698 -1.57901 0
M  V30 1446 H 129.796 -2.69355 -1.84703 0
M  V30 1447 H 128.455 -3.66564 0.0510292 0
M  V30 1448 H 128.103 -4.47984 -2.28734 0
M  V30 1449 H 127.803 -5.77238 -1.09865 0
M  V30 1450 H 129.327 -5.75833 -2.03098 0
M  V30 1451 H 130.741 -5.72796 0.240257 0
M  V30 1452 H 129.138 -5.91559 1.00888 0
M  V30 1453 H 130.208 -4.60144 1.52957 0
M  V30 1454 N 131.551 -0.354651 -1.53558 0
M  V30 1455 C 132.461 0.50515 -2.29097 0
M  V30 1456 C 133.477 1.10223 -1.34636 0
M  V30 1457 O 134.653 1.11553 -1.67684 0
M  V30 1458 C 131.718 1.63479 -3.05738 0
M  V30 1459 C 130.779 1.06636 -4.15845 0
M  V30 1460 C 130.012 2.14217 -4.88822 0
M  V30 1461 O 130.235 3.35137 -4.61562 0
M  V30 1462 O 129.169 1.77887 -5.75013 0
M  V30 1463 H 132.995 -0.109237 -3.03503 0
M  V30 1464 H 130.58 -0.119357 -1.48922 0
M  V30 1465 H 132.462 2.2918 -3.5363 0
M  V30 1466 H 131.137 2.23478 -2.34178 0
M  V30 1467 H 130.044 0.373565 -3.7223 0
M  V30 1468 H 131.377 0.511081 -4.89539 0
M  V30 1469 N 133.029 1.57378 -0.0835403 0
M  V30 1470 C 134.306 1.85363 0.624507 0
M  V30 1471 C 134.686 0.978239 1.87066 0
M  V30 1472 O 134.034 0.0475908 2.2845 0
M  V30 1473 C 134.244 3.35795 0.950947 0
M  V30 1474 C 135.592 4.03581 1.31939 0
M  V30 1475 O 136.616 3.40609 1.04232 0
M  V30 1476 O 135.475 5.14672 1.83779 0
M  V30 1477 H 132.569 0.766162 0.311329 0
M  V30 1478 H 135.115 1.69307 -0.115362 0
M  V30 1479 H 133.887 3.91244 0.0663899 0
M  V30 1480 H 133.51 3.57154 1.74719 0
M  V30 1481 N 134.507 -0.190092 1.56449 0
M  V30 1482 C 135.47 -1.21925 1.9408 0
M  V30 1483 C 136.47 -1.38176 0.822431 0
M  V30 1484 O 137.66 -1.35903 1.08977 0
M  V30 1485 C 134.792 -2.58773 2.21922 0
M  V30 1486 H 135.985 -0.897464 2.86157 0
M  V30 1487 H 133.538 -0.43181 1.50217 0
M  V30 1488 H 134.273 -2.95998 1.32499 0
M  V30 1489 H 134.058 -2.48348 3.03424 0
M  V30 1490 H 135.548 -3.32978 2.52022 0
M  V30 1491 N 135.985 -1.50799 -0.457987 0
M  V30 1492 C 136.915 -1.73553 -1.5621 0
M  V30 1493 C 137.896 -0.584774 -1.59732 0
M  V30 1494 O 139.081 -0.825314 -1.7579 0
M  V30 1495 C 136.211 -1.84169 -2.94447 0
M  V30 1496 C 135.165 -2.99461 -3.0579 0
M  V30 1497 C 134.491 -2.95235 -4.45803 0
M  V30 1498 C 135.791 -4.39766 -2.81786 0
M  V30 1499 H 137.485 -2.66 -1.37421 0
M  V30 1500 H 135.031 -1.28002 -0.659662 0
M  V30 1501 H 136.984 -1.98672 -3.71628 0
M  V30 1502 H 135.708 -0.883545 -3.14422 0
M  V30 1503 H 134.367 -2.8463 -2.31044 0
M  V30 1504 H 134.015 -1.97239 -4.62715 0
M  V30 1505 H 133.715 -3.72642 -4.54326 0
M  V30 1506 H 135.239 -3.11803 -5.24987 0
M  V30 1507 H 136.653 -4.55054 -3.4871 0
M  V30 1508 H 135.05 -5.18722 -3.0174 0
M  V30 1509 H 136.12 -4.51229 -1.7754 0
M  V30 1510 N 137.463 0.71206 -1.40597 0
M  V30 1511 C 138.426 1.80785 -1.40888 0
M  V30 1512 C 139.426 1.57937 -0.302103 0
M  V30 1513 O 140.616 1.64913 -0.561182 0
M  V30 1514 C 137.748 3.18927 -1.20409 0
M  V30 1515 H 138.941 1.81924 -2.38419 0
M  V30 1516 H 136.494 0.91805 -1.26497 0
M  V30 1517 H 137.229 3.23436 -0.236522 0
M  V30 1518 H 137.014 3.36911 -2.00582 0
M  V30 1519 H 138.504 3.98949 -1.23408 0
M  V30 1520 N 138.941 1.26152 0.944643 0
M  V30 1521 C 139.891 1.04081 2.02857 0
M  V30 1522 C 140.875 -0.0256555 1.6088 0
M  V30 1523 O 142.067 0.190884 1.75968 0
M  V30 1524 C 139.196 0.672118 3.36656 0
M  V30 1525 C 138.282 1.77586 3.85128 0
M  V30 1526 N 138.673 3.01272 4.06287 0
M  V30 1527 C 136.971 1.65867 4.1401 0
M  V30 1528 C 137.672 3.72983 4.46384 0
M  V30 1529 N 136.648 3.00653 4.52889 0
M  V30 1530 H 140.45 1.97968 2.17223 0
M  V30 1531 H 137.964 1.16618 1.13022 0
M  V30 1532 H 139.961 0.495166 4.13949 0
M  V30 1533 H 138.621 -0.259307 3.23663 0
M  V30 1534 H 139.632 3.37213 3.93075 0
M  V30 1535 H 136.309 0.796907 4.09824 0
M  V30 1536 H 137.699 4.792 4.70975 0
M  V30 1537 N 140.419 -1.14872 1.07899 0
M  V30 1538 C 141.349 -2.2193 0.725887 0
M  V30 1539 C 142.33 -1.67622 -0.28927 0
M  V30 1540 O 143.515 -1.93533 -0.160787 0
M  V30 1541 C 140.645 -3.47061 0.128856 0
M  V30 1542 C 139.599 -4.14363 1.07178 0
M  V30 1543 C 138.925 -5.33636 0.337229 0
M  V30 1544 C 140.225 -4.63492 2.40775 0
M  V30 1545 H 141.919 -2.51724 1.62097 0
M  V30 1546 H 139.465 -1.20991 0.780838 0
M  V30 1547 H 141.418 -4.21199 -0.130147 0
M  V30 1548 H 140.142 -3.16617 -0.80134 0
M  V30 1549 H 138.801 -3.42173 1.3158 0
M  V30 1550 H 138.449 -4.99449 -0.596606 0
M  V30 1551 H 138.149 -5.79609 0.965788 0
M  V30 1552 H 139.673 -6.10539 0.0861567 0
M  V30 1553 H 141.087 -5.2913 2.20669 0
M  V30 1554 H 139.484 -5.20148 2.99276 0
M  V30 1555 H 140.554 -3.78834 3.02676 0
M  V30 1556 N 141.898 -0.863906 -1.31812 0
M  V30 1557 C 143.175 -0.39275 -1.91616 0
M  V30 1558 C 143.555 1.12461 -1.7865 0
M  V30 1559 O 142.903 1.95045 -1.19037 0
M  V30 1560 C 143.113 -0.867385 -3.38049 0
M  V30 1561 C 144.461 -0.889966 -4.15168 0
M  V30 1562 O 145.485 -0.812635 -3.46806 0
M  V30 1563 O 144.344 -1.00079 -5.37258 0
M  V30 1564 H 141.438 -0.116358 -0.818773 0
M  V30 1565 H 143.984 -0.951418 -1.40521 0
M  V30 1566 H 142.756 -1.91081 -3.41473 0
M  V30 1567 H 142.379 -0.286687 -3.96565 0
M  V30 1568 N 143.376 1.44774 -0.622745 0
M  V30 1569 C 144.286 2.34433 0.0886031 0
M  V30 1570 C 145.302 1.52131 0.844529 0
M  V30 1571 O 146.478 1.84886 0.798691 0
M  V30 1572 C 143.543 3.29986 1.0635 0
M  V30 1573 C 142.604 4.28195 0.307873 0
M  V30 1574 C 141.837 5.19183 1.23633 0
M  V30 1575 O 142.06 5.13918 2.47476 0
M  V30 1576 O 140.994 5.97515 0.725189 0
M  V30 1577 H 144.82 2.96693 -0.648599 0
M  V30 1578 H 142.405 1.44408 -0.382957 0
M  V30 1579 H 144.287 3.88825 1.6246 0
M  V30 1580 H 142.962 2.70269 1.78146 0
M  V30 1581 H 141.869 3.72927 -0.296064 0
M  V30 1582 H 143.202 4.90808 -0.3699 0
M  V30 1583 N 144.854 0.36279 1.53368 0
M  V30 1584 C 146.1 -0.228113 2.01513 0
M  V30 1585 C 146.433 -1.48648 1.2497 0
M  V30 1586 O 145.708 -1.91459 0.342616 0
M  V30 1587 C 145.991 -0.522884 3.56284 0
M  V30 1588 C 145.844 0.74892 4.43521 0
M  V30 1589 C 147.163 -1.32461 4.19693 0
M  V30 1590 H 144.282 -0.0814343 0.732487 0
M  V30 1591 H 146.924 0.48713 1.83649 0
M  V30 1592 H 145.074 -1.1322 3.71636 0
M  V30 1593 H 146.746 1.38648 4.39971 0
M  V30 1594 H 144.989 1.36986 4.11603 0
M  V30 1595 H 145.66 0.497667 5.49752 0
M  V30 1596 H 148.136 -0.809203 4.08156 0
M  V30 1597 H 147.012 -1.49961 5.28018 0
M  V30 1598 H 147.273 -2.33232 3.75573 0
M  V30 1599 N 146.332 -1.57332 0.0918853 0
M  V30 1600 C 147.581 -1.93412 -0.572249 0
M  V30 1601 C 147.894 -0.975515 -1.69538 0
M  V30 1602 O 149.1 -1.22991 -2.42045 0
M  V30 1603 C 147.556 -3.43648 -1.0693 0
M  V30 1604 C 147.164 -4.47994 0.0239049 0
M  V30 1605 C 148.908 -3.88695 -1.70635 0
M  V30 1606 C 146.815 -5.89381 -0.488319 0
M  V30 1607 H 145.745 -0.721939 -0.217532 0
M  V30 1608 H 148.396 -1.82735 0.167369 0
M  V30 1609 H 146.778 -3.49466 -1.8625 0
M  V30 1610 H 147.952 -4.53815 0.799277 0
M  V30 1611 H 146.267 -4.12536 0.565946 0
M  V30 1612 H 148.864 -4.91725 -2.10025 0
M  V30 1613 H 149.207 -3.27166 -2.57426 0
M  V30 1614 H 149.74 -3.85564 -0.979023 0
M  V30 1615 H 146.479 -6.54602 0.342906 0
M  V30 1616 H 145.999 -5.87037 -1.23077 0
M  V30 1617 H 147.678 -6.39863 -0.958317 0
M  V30 1618 N 147.81 0.181792 -1.56548 0
M  V30 1619 C 148.76 1.22961 -1.92002 0
M  V30 1620 C 149.744 1.40331 -0.787146 0
M  V30 1621 O 150.936 1.42478 -1.05019 0
M  V30 1622 C 148.065 2.57144 -2.27446 0
M  V30 1623 C 147.151 2.43512 -3.47222 0
M  V30 1624 N 147.542 1.99577 -4.64761 0
M  V30 1625 C 145.84 2.74368 -3.51622 0
M  V30 1626 C 146.541 1.98156 -5.46909 0
M  V30 1627 N 145.517 2.40164 -4.8767 0
M  V30 1628 H 149.319 0.881462 -2.8037 0
M  V30 1629 H 146.833 0.390141 -1.57644 0
M  V30 1630 H 148.83 3.32847 -2.51035 0
M  V30 1631 H 147.49 2.92771 -1.40411 0
M  V30 1632 H 148.501 1.70078 -4.89177 0
M  V30 1633 H 145.178 3.14102 -2.75038 0
M  V30 1634 H 146.568 1.65975 -6.51077 0
M  V30 1635 N 149.288 1.51039 0.449983 0
M  V30 1636 C 150.699 1.557 1.03026 0
M  V30 1637 C 151.05 0.372939 1.92623 0
M  V30 1638 O 150.175 -0.511771 2.10261 0
M  V30 1639 C 150.77 2.82171 1.87523 0
M  V30 1640 C 149.329 2.89444 2.40622 0
M  V30 1641 C 148.476 2.50228 1.19504 0
M  V30 1642 H 151.427 1.56999 0.231745 0
M  V30 1643 H 151.448 2.65219 2.72835 0
M  V30 1644 H 150.96 3.68331 1.22286 0
M  V30 1645 H 149.061 2.07685 3.0935 0
M  V30 1646 H 149.174 3.92816 2.74285 0
M  V30 1647 H 147.538 2.03139 1.53644 0
M  V30 1648 H 148.321 3.38719 0.558972 0
M  V30 1649 N 150.766 -0.704594 1.40972 0
M  V30 1650 C 152.014 -1.46169 1.39568 0
M  V30 1651 C 152.335 -1.95 0.00253745 0
M  V30 1652 O 151.605 -1.71095 -0.954114 0
M  V30 1653 H 150.185 -0.542326 0.513704 0
M  V30 1654 H 152.847 -0.834553 1.76128 0
M  V30 1655 H 151.943 -2.32922 2.07735 0
M  V30 1656 N 152.244 -1.26651 -0.937939 0
M  V30 1657 C 153.49 -1.12553 -1.687 0
M  V30 1658 C 153.823 0.329782 -1.91379 0
M  V30 1659 O 153.098 1.24202 -1.4968 0
M  V30 1660 C 153.381 -1.89862 -3.05981 0
M  V30 1661 C 153.234 -3.43318 -2.90607 0
M  V30 1662 C 154.553 -1.69499 -4.0615 0
M  V30 1663 H 151.672 -0.410257 -0.612257 0
M  V30 1664 H 154.314 -1.55685 -1.08913 0
M  V30 1665 H 152.464 -1.53204 -3.57017 0
M  V30 1666 H 154.136 -3.89747 -2.46769 0
M  V30 1667 H 152.379 -3.70179 -2.26164 0
M  V30 1668 H 153.05 -3.92642 -3.8799 0
M  V30 1669 H 155.526 -2.01442 -3.64088 0
M  V30 1670 H 154.402 -2.26002 -5.00214 0
M  V30 1671 H 154.663 -0.640365 -4.37438 0
M  V30 1672 N 153.722 1.14298 -1.08507 0
M  V30 1673 C 154.654 2.1907 -0.673859 0
M  V30 1674 C 155.667 1.60381 0.279577 0
M  V30 1675 O 156.856 1.78374 0.0670754 0
M  V30 1676 C 153.956 3.38888 0.0290979 0
M  V30 1677 C 153.129 4.27103 -0.943494 0
M  V30 1678 C 152.188 5.25477 -0.275676 0
M  V30 1679 O 151.214 5.61709 -0.920401 0
M  V30 1680 N 152.416 5.7227 0.974013 0
M  V30 1681 H 155.181 2.54965 -1.57521 0
M  V30 1682 H 152.742 1.29528 -0.971287 0
M  V30 1683 H 154.734 4.01761 0.48683 0
M  V30 1684 H 153.304 3.01309 0.832555 0
M  V30 1685 H 152.524 3.61149 -1.58004 0
M  V30 1686 H 153.812 4.82905 -1.60251 0
M  V30 1687 H 153.21 5.44965 1.51755 0
M  V30 1688 H 151.767 6.37127 1.37522 0
M  V30 1689 N 155.201 0.870884 1.31352 0
M  V30 1690 C 156.449 0.48132 1.96285 0
M  V30 1691 C 156.77 -0.969813 1.69173 0
M  V30 1692 O 156.04 -1.67998 1.00764 0
M  V30 1693 H 154.62 0.175002 0.726212 0
M  V30 1694 H 157.282 1.11087 1.60143 0
M  V30 1695 H 156.378 0.639825 3.05471 0
M  V30 1696 N 156.679 -1.44442 0.630414 0
M  V30 1697 C 157.589 -2.34476 -0.0761693 0
M  V30 1698 C 158.605 -1.52576 -0.836449 0
M  V30 1699 O 159.781 -1.85307 -0.788874 0
M  V30 1700 C 156.846 -3.30545 -1.04599 0
M  V30 1701 C 155.907 -4.28352 -0.28516 0
M  V30 1702 C 155.14 -5.19831 -1.20878 0
M  V30 1703 O 155.363 -5.15223 -2.44747 0
M  V30 1704 O 154.297 -5.97892 -0.693491 0
M  V30 1705 H 158.123 -2.96345 0.664324 0
M  V30 1706 H 155.708 -1.44203 0.39061 0
M  V30 1707 H 157.59 -3.89681 -1.60396 0
M  V30 1708 H 156.265 -2.7121 -1.76711 0
M  V30 1709 H 155.172 -3.72764 0.315837 0
M  V30 1710 H 156.505 -4.90605 0.395924 0
M  V30 1711 N 158.157 -0.370918 -1.53173 0
M  V30 1712 C 159.573 -0.0200818 -1.59587 0
M  V30 1713 C 159.773 1.46279 -1.38581 0
M  V30 1714 O 158.829 2.22506 -1.19363 0
M  V30 1715 C 160.142 -0.4808 -2.96831 0
M  V30 1716 C 161.69 -0.435477 -3.09956 0
M  V30 1717 C 162.165 -0.872092 -4.4962 0
M  V30 1718 N 163.656 -0.827364 -4.55751 0
M  V30 1719 C 164.391 -1.13683 -5.62018 0
M  V30 1720 N 163.887 -1.51584 -6.76014 0
M  V30 1721 N 165.68 -1.05927 -5.52029 0
M  V30 1722 H 157.831 -1.33652 -1.65079 0
M  V30 1723 H 160.094 -0.546634 -0.774529 0
M  V30 1724 H 159.8 -1.51577 -3.1736 0
M  V30 1725 H 159.674 0.129796 -3.76977 0
M  V30 1726 H 162.061 0.590371 -2.89134 0
M  V30 1727 H 162.142 -1.08164 -2.31806 0
M  V30 1728 H 161.786 -1.89608 -4.71181 0
M  V30 1729 H 161.716 -0.203127 -5.26208 0
M  V30 1730 H 164.207 -0.548216 -3.73902 0
M  V30 1731 H 164.52 -1.73609 -7.53047 0
M  V30 1732 H 162.865 -1.55454 -6.77391 0
M  V30 1733 H 166.056 -0.762321 -4.61851 0
M  V30 1734 H 166.229 -1.30378 -6.34749 0
M  V30 1735 N 159.635 1.57281 -0.100228 0
M  V30 1736 C 161.051 1.57527 0.256416 0
M  V30 1737 C 161.251 1.11173 1.68056 0
M  V30 1738 O 160.307 0.79053 2.39806 0
M  V30 1739 C 161.62 3.00673 0.0401747 0
M  V30 1740 C 163.168 3.12815 0.107528 0
M  V30 1741 C 163.643 4.57929 -0.0807834 0
M  V30 1742 N 165.134 4.63193 -0.0261207 0
M  V30 1743 C 165.869 5.73212 -0.146999 0
M  V30 1744 N 165.365 6.92047 -0.322999 0
M  V30 1745 N 167.158 5.62031 -0.0879044 0
M  V30 1746 H 159.309 1.85718 -1.03065 0
M  V30 1747 H 161.572 0.857446 -0.404339 0
M  V30 1748 H 161.278 3.38804 -0.943649 0
M  V30 1749 H 161.152 3.69042 0.780262 0
M  V30 1750 H 163.539 2.74554 1.08186 0
M  V30 1751 H 163.62 2.47028 -0.664134 0
M  V30 1752 H 163.264 4.96886 -1.05201 0
M  V30 1753 H 163.194 5.21783 0.710635 0
M  V30 1754 H 165.685 3.77748 0.107161 0
M  V30 1755 H 165.998 7.7173 -0.406608 0
M  V30 1756 H 164.343 6.94074 -0.358733 0
M  V30 1757 H 167.534 4.68075 0.048498 0
M  V30 1758 H 167.707 6.47734 -0.185557 0
M  V30 1759 N 161.113 -0.173488 1.56642 0
M  V30 1760 C 162.023 -1.23482 1.99473 0
M  V30 1761 C 163.039 -1.48567 0.905752 0
M  V30 1762 O 164.215 -1.60758 1.21321 0
M  V30 1763 C 161.28 -2.55444 2.34413 0
M  V30 1764 C 160.341 -2.38241 3.57127 0
M  V30 1765 C 159.574 -3.63909 3.90392 0
M  V30 1766 O 159.797 -4.68996 3.24653 0
M  V30 1767 O 158.731 -3.58149 4.83749 0
M  V30 1768 H 162.557 -0.901279 2.90018 0
M  V30 1769 H 160.142 -0.380185 1.44482 0
M  V30 1770 H 162.024 -3.33292 2.57865 0
M  V30 1771 H 160.699 -2.88382 1.4703 0
M  V30 1772 H 159.606 -1.58431 3.38896 0
M  V30 1773 H 160.939 -2.10228 4.45045 0
M  V30 1774 N 162.591 -1.51276 -0.441967 0
M  V30 1775 C 163.554 -1.7167 -1.51862 0
M  V30 1776 C 164.554 -0.586793 -1.49711 0
M  V30 1777 O 165.744 -0.854276 -1.51815 0
M  V30 1778 C 162.876 -1.76889 -2.91416 0
M  V30 1779 H 164.069 -2.67754 -1.35084 0
M  V30 1780 H 161.622 -1.41196 -0.670333 0
M  V30 1781 H 162.357 -0.826026 -3.13604 0
M  V30 1782 H 162.142 -2.59001 -2.94382 0
M  V30 1783 H 163.632 -1.94522 -3.69528 0
M  V30 1784 N 164.069 0.697108 -1.41344 0
M  V30 1785 C 165.001 1.8224 -1.39001 0
M  V30 1786 C 166.014 1.60152 -0.292428 0
M  V30 1787 O 167.203 1.69684 -0.554048 0
M  V30 1788 C 164.303 3.18976 -1.14489 0
M  V30 1789 C 163.476 3.68105 -2.36258 0
M  V30 1790 C 162.535 4.83506 -2.07625 0
M  V30 1791 O 161.561 4.95201 -2.8065 0
M  V30 1792 N 162.763 5.70637 -1.06555 0
M  V30 1793 H 165.528 1.84742 -2.35988 0
M  V30 1794 H 163.089 0.87937 -1.35936 0
M  V30 1795 H 165.081 3.93801 -0.932885 0
M  V30 1796 H 163.651 3.11508 -0.261043 0
M  V30 1797 H 162.871 2.84204 -2.7317 0
M  V30 1798 H 164.159 3.97667 -3.17393 0
M  V30 1799 H 163.557 5.63817 -0.461125 0
M  V30 1800 H 162.114 6.45368 -0.913444 0
M  V30 1801 N 165.547 1.27147 0.931209 0
M  V30 1802 C 166.494 1.09568 2.03134 0
M  V30 1803 C 167.464 -0.00222433 1.661 0
M  V30 1804 O 168.649 0.159439 1.90133 0
M  V30 1805 C 165.789 0.745231 3.36957 0
M  V30 1806 C 164.902 1.92041 3.86968 0
M  V30 1807 C 164.037 1.51216 5.09222 0
M  V30 1808 C 163.076 2.65504 5.5152 0
M  V30 1809 N 162.213 2.25291 6.64972 0
M  V30 1810 H 167.053 2.03708 2.17502 0
M  V30 1811 H 164.59 1.01411 1.06556 0
M  V30 1812 H 166.548 0.522878 4.1391 0
M  V30 1813 H 165.178 -0.159202 3.22407 0
M  V30 1814 H 164.23 2.25541 3.06326 0
M  V30 1815 H 165.542 2.77787 4.1429 0
M  V30 1816 H 164.696 1.25084 5.93666 0
M  V30 1817 H 163.435 0.625749 4.83669 0
M  V30 1818 H 162.44 2.92354 4.65628 0
M  V30 1819 H 163.665 3.54761 5.7907 0
M  V30 1820 H 161.611 1.39098 6.41083 0
M  V30 1821 H 161.528 3.04577 6.91931 0
M  V30 1822 H 162.796 2.02398 7.52765 0
M  V30 1823 N 167.025 -1.13721 1.09112 0
M  V30 1824 C 167.957 -2.1871 0.685467 0
M  V30 1825 C 168.97 -1.60527 -0.271068 0
M  V30 1826 O 170.159 -1.78407 -0.0576148 0
M  V30 1827 C 167.259 -3.38898 -0.0111255 0
M  V30 1828 C 166.432 -4.26597 0.966131 0
M  V30 1829 C 165.491 -5.25324 0.303539 0
M  V30 1830 O 164.517 -5.61213 0.950177 0
M  V30 1831 N 165.719 -5.72779 -0.943651 0
M  V30 1832 H 168.484 -2.54126 1.58871 0
M  V30 1833 H 166.045 -1.29012 0.978143 0
M  V30 1834 H 168.037 -4.02014 -0.465517 0
M  V30 1835 H 166.607 -3.01747 -0.816565 0
M  V30 1836 H 165.827 -3.60306 1.59917 0
M  V30 1837 H 167.115 -4.82048 1.6281 0
M  V30 1838 H 166.513 -5.45762 -1.48862 0
M  V30 1839 H 165.07 -6.37847 -1.34142 0
M  V30 1840 N 168.503 -0.877838 -1.30888 0
M  V30 1841 C 169.466 -0.344265 -2.266 0
M  V30 1842 C 170.466 0.50922 -1.52524 0
M  V30 1843 O 171.656 0.317398 -1.71284 0
M  V30 1844 C 168.788 0.510198 -3.37061 0
M  V30 1845 H 169.981 -1.1893 -2.7531 0
M  V30 1846 H 167.534 -0.654088 -1.41956 0
M  V30 1847 H 168.269 1.37612 -2.93655 0
M  V30 1848 H 168.054 -0.101047 -3.9197 0
M  V30 1849 H 169.544 0.875537 -4.08319 0
M  V30 1850 N 169.982 1.44106 -0.638065 0
M  V30 1851 C 171.231 2.01194 -0.142744 0
M  V30 1852 C 171.544 1.50835 1.24532 0
M  V30 1853 O 172.75 2.00096 1.83504 0
M  V30 1854 C 171.206 3.59319 -0.20442 0
M  V30 1855 C 170.814 4.18674 -1.59423 0
M  V30 1856 C 172.558 4.23854 0.234079 0
M  V30 1857 C 170.465 5.69045 -1.61065 0
M  V30 1858 H 169.395 0.752367 -0.0495998 0
M  V30 1859 H 172.046 1.65246 -0.797881 0
M  V30 1860 H 170.428 3.92598 0.517946 0
M  V30 1861 H 171.602 3.96921 -2.34074 0
M  V30 1862 H 169.917 3.66453 -1.97741 0
M  V30 1863 H 172.514 5.34155 0.241443 0
M  V30 1864 H 172.857 3.96688 1.2627 0
M  V30 1865 H 173.39 3.95403 -0.436025 0
M  V30 1866 H 170.129 6.00956 -2.61787 0
M  V30 1867 H 169.649 5.929 -0.90718 0
M  V30 1868 H 171.328 6.32809 -1.34766 0
M  V30 1869 N 171.46 0.379036 1.52974 0
M  V30 1870 C 172.392 -0.495963 2.2377 0
M  V30 1871 C 173.405 -1.03517 1.25651 0
M  V30 1872 O 174.594 -0.939249 1.51791 0
M  V30 1873 C 171.694 -1.69894 2.93239 0
M  V30 1874 C 170.867 -1.2889 4.17979 0
M  V30 1875 C 169.926 -2.35543 4.70538 0
M  V30 1876 O 168.952 -1.97375 5.33883 0
M  V30 1877 N 170.154 -3.67318 4.49508 0
M  V30 1878 H 172.919 0.110523 2.99496 0
M  V30 1879 H 170.48 0.204878 1.60598 0
M  V30 1880 H 172.472 -2.40747 3.25304 0
M  V30 1881 H 171.042 -2.212 2.20883 0
M  V30 1882 H 170.262 -0.409676 3.92065 0
M  V30 1883 H 171.55 -0.991443 4.99047 0
M  V30 1884 H 170.948 -4.01095 3.98923 0
M  V30 1885 H 169.505 -4.34235 4.8609 0
M  V30 1886 N 172.938 -1.57226 0.108567 0
M  V30 1887 C 174.354 -1.5766 -0.248058 0
M  V30 1888 C 174.554 -1.12063 -1.67464 0
M  V30 1889 O 173.61 -0.803236 -2.39383 0
M  V30 1890 C 174.923 -3.0069 -0.0242287 0
M  V30 1891 C 176.471 -3.12868 -0.0909372 0
M  V30 1892 C 176.946 -4.57879 0.105067 0
M  V30 1893 N 178.437 -4.63172 0.0506846 0
M  V30 1894 C 179.172 -5.73126 0.177396 0
M  V30 1895 N 178.668 -6.91866 0.359696 0
M  V30 1896 N 180.461 -5.61977 0.117709 0
M  V30 1897 H 172.612 -1.85169 1.04049 0
M  V30 1898 H 174.875 -0.85529 0.40888 0
M  V30 1899 H 174.581 -3.38299 0.961604 0
M  V30 1900 H 174.455 -3.6945 -0.76068 0
M  V30 1901 H 176.842 -2.75124 -1.06729 0
M  V30 1902 H 176.923 -2.46672 0.677225 0
M  V30 1903 H 176.567 -4.96321 1.07834 0
M  V30 1904 H 176.497 -5.22153 -0.682954 0
M  V30 1905 H 178.988 -3.778 -0.0871266 0
M  V30 1906 H 179.301 -7.71503 0.447529 0
M  V30 1907 H 177.646 -6.93874 0.395536 0
M  V30 1908 H 180.837 -4.68094 -0.0236741 0
M  V30 1909 H 181.01 -6.47627 0.219905 0
M  V30 1910 N 174.416 0.165178 -1.56732 0
M  V30 1911 C 175.379 1.18822 -1.95995 0
M  V30 1912 C 176.379 1.3685 -0.84431 0
M  V30 1913 O 177.569 1.34152 -1.11126 0
M  V30 1914 C 174.701 2.5521 -2.26011 0
M  V30 1915 H 175.894 0.851825 -2.87548 0
M  V30 1916 H 173.447 0.407857 -1.50885 0
M  V30 1917 H 174.182 2.93852 -1.37191 0
M  V30 1918 H 173.967 2.43489 -3.07336 0
M  V30 1919 H 175.457 3.28927 -2.57288 0
M  V30 1920 N 175.894 1.51508 0.433938 0
M  V30 1921 C 177.141 1.64345 1.18309 0
M  V30 1922 C 177.469 0.361315 1.91115 0
M  V30 1923 O 176.724 -0.654753 1.84422 0
M  V30 1924 C 177.023 2.79928 2.22205 0
M  V30 1925 C 176.689 4.19078 1.66387 0
M  V30 1926 C 175.351 4.56932 1.50887 0
M  V30 1927 C 177.703 5.05894 1.25381 0
M  V30 1928 C 175.031 5.79305 0.928608 0
M  V30 1929 C 177.383 6.2885 0.687823 0
M  V30 1930 C 176.047 6.65473 0.519755 0
M  V30 1931 H 175.317 0.601381 0.432923 0
M  V30 1932 H 177.964 1.85549 0.473676 0
M  V30 1933 H 176.269 2.52959 2.99197 0
M  V30 1934 H 177.966 2.87059 2.79997 0
M  V30 1935 H 174.556 3.89234 1.79428 0
M  V30 1936 H 178.74 4.77253 1.36175 0
M  V30 1937 H 173.996 6.06324 0.786186 0
M  V30 1938 H 178.17 6.95461 0.361581 0
M  V30 1939 H 175.797 7.6017 0.0679979 0
M  V30 1940 N 177.372 -0.689602 1.41712 0
M  V30 1941 C 178.335 -1.78521 1.43746 0
M  V30 1942 C 179.335 -1.57436 0.327191 0
M  V30 1943 O 180.525 -1.64 0.587348 0
M  V30 1944 C 177.657 -3.16971 1.25467 0
M  V30 1945 H 178.85 -1.78108 2.41283 0
M  V30 1946 H 176.403 -0.89781 1.27942 0
M  V30 1947 H 177.138 -3.23019 0.287948 0
M  V30 1948 H 176.923 -3.33678 2.05917 0
M  V30 1949 H 178.413 -3.96935 1.2974 0
M  V30 1950 N 178.85 -1.27639 -0.924453 0
M  V30 1951 C 179.813 -1.10681 -2.00705 0
M  V30 1952 C 180.813 -0.0497823 -1.60723 0
M  V30 1953 O 182.003 -0.294654 -1.7169 0
M  V30 1954 C 179.135 -0.687164 -3.33902 0
M  V30 1955 H 180.328 -2.06817 -2.17179 0
M  V30 1956 H 177.881 -1.10473 -1.10569 0
M  V30 1957 H 178.616 0.275439 -3.23128 0
M  V30 1958 H 178.401 -1.45061 -3.6428 0
M  V30 1959 H 179.891 -0.590853 -4.13399 0
M  V30 1960 N 180.328 1.1314 -1.09713 0
M  V30 1961 C 181.261 2.17735 -0.683137 0
M  V30 1962 C 182.239 1.59582 0.311841 0
M  V30 1963 O 183.423 1.87298 0.212514 0
M  V30 1964 C 180.55 3.38699 -0.00684324 0
M  V30 1965 C 179.596 4.1546 -0.964102 0
M  V30 1966 S 180.429 4.74733 -2.47767 0
M  V30 1967 C 181.585 5.9904 -1.81387 0
M  V30 1968 H 181.818 2.52515 -1.56918 0
M  V30 1969 H 179.351 1.24484 -0.913404 0
M  V30 1970 H 181.309 4.08765 0.377044 0
M  V30 1971 H 179.97 3.02214 0.85589 0
M  V30 1972 H 179.163 5.02093 -0.43803 0
M  V30 1973 H 178.765 3.51066 -1.28953 0
M  V30 1974 H 181.057 6.67846 -1.13967 0
M  V30 1975 H 182 6.56261 -2.65947 0
M  V30 1976 H 182.408 5.4976 -1.28155 0
M  V30 1977 N 181.806 0.884767 1.30421 0
M  V30 1978 C 183.054 0.502112 1.95763 0
M  V30 1979 C 183.375 -0.951815 1.70192 0
M  V30 1980 O 182.645 -1.6692 1.0254 0
M  V30 1981 H 181.225 0.182694 0.724315 0
M  V30 1982 H 183.887 1.1278 1.58955 0
M  V30 1983 H 182.983 0.672188 3.04775 0
M  V30 1984 N 183.284 -1.43765 0.645699 0
M  V30 1985 C 184.216 -2.29027 -0.0890605 0
M  V30 1986 C 185.229 -1.42093 -0.794563 0
M  V30 1987 O 186.418 -1.66104 -0.653575 0
M  V30 1988 C 183.518 -3.18831 -1.14891 0
M  V30 1989 C 182.691 -4.34261 -0.523043 0
M  V30 1990 C 181.75 -5.04994 -1.47878 0
M  V30 1991 O 180.776 -5.6052 -0.990277 0
M  V30 1992 N 181.978 -5.07795 -2.81291 0
M  V30 1993 H 184.743 -2.92727 0.64272 0
M  V30 1994 H 182.304 -1.54373 0.487924 0
M  V30 1995 H 184.296 -3.63015 -1.78892 0
M  V30 1996 H 182.866 -2.56782 -1.78275 0
M  V30 1997 H 182.086 -3.93088 0.295896 0
M  V30 1998 H 183.374 -5.08728 -0.0858147 0
M  V30 1999 H 182.772 -4.64042 -3.23546 0
M  V30 2000 H 181.329 -5.55721 -3.40614 0
M  V30 2001 N 184.763 -0.387143 -1.52771 0
M  V30 2002 C 185.673 0.456442 -2.30117 0
M  V30 2003 C 186.689 1.07342 -1.36944 0
M  V30 2004 O 187.865 1.07971 -1.70013 0
M  V30 2005 C 184.93 1.56957 -3.09136 0
M  V30 2006 C 183.991 0.977916 -4.18014 0
M  V30 2007 C 183.224 2.038 -4.93256 0
M  V30 2008 O 183.447 3.25271 -4.68567 0
M  V30 2009 O 182.381 1.6565 -5.78657 0
M  V30 2010 H 186.207 -0.17359 -3.03203 0
M  V30 2011 H 183.792 -0.150919 -1.48636 0
M  V30 2012 H 185.674 2.21628 -3.58412 0
M  V30 2013 H 184.349 2.18461 -2.38865 0
M  V30 2014 H 183.256 0.294525 -3.72939 0
M  V30 2015 H 184.589 0.407128 -4.90513 0
M  V30 2016 N 186.241 1.57166 -0.116904 0
M  V30 2017 C 187.204 2.14039 0.819742 0
M  V30 2018 C 188.204 1.07477 1.19605 0
M  V30 2019 O 189.394 1.33263 1.1219 0
M  V30 2020 C 186.526 2.67891 2.10826 0
M  V30 2021 H 187.719 2.98128 0.325511 0
M  V30 2022 H 185.272 1.55739 0.132312 0
M  V30 2023 H 186.007 1.87384 2.64685 0
M  V30 2024 H 185.792 3.45823 1.84793 0
M  V30 2025 H 187.282 3.11809 2.77785 0
M  V30 2026 N 187.719 -0.156864 1.56817 0
M  V30 2027 C 189.135 -0.50916 1.5126 0
M  V30 2028 C 189.335 -1.83897 0.823658 0
M  V30 2029 O 188.391 -2.49469 0.390055 0
M  V30 2030 C 189.704 -0.52857 2.96018 0
M  V30 2031 C 191.252 -0.614771 3.06903 0
M  V30 2032 C 191.727 -0.664938 4.53147 0
M  V30 2033 N 193.218 -0.727433 4.57452 0
M  V30 2034 C 193.953 -0.787067 5.67973 0
M  V30 2035 N 193.449 -0.806649 6.88088 0
M  V30 2036 N 195.242 -0.827195 5.5598 0
M  V30 2037 H 187.393 0.714935 2.00006 0
M  V30 2038 H 189.656 0.259526 0.911784 0
M  V30 2039 H 189.362 0.380154 3.49639 0
M  V30 2040 H 189.236 -1.36998 3.51442 0
M  V30 2041 H 191.623 -1.51392 2.53307 0
M  V30 2042 H 191.704 0.253597 2.5454 0
M  V30 2043 H 191.348 0.230011 5.07379 0
M  V30 2044 H 191.278 -1.54966 5.03282 0
M  V30 2045 H 193.769 -0.719998 3.70978 0
M  V30 2046 H 194.082 -0.853727 7.6807 0
M  V30 2047 H 192.427 -0.774687 6.90669 0
M  V30 2048 H 195.618 -0.808998 4.61056 0
M  V30 2049 H 195.791 -0.870206 6.4213 0
M  V30 2050 N 189.197 -1.51736 -0.425897 0
M  V30 2051 C 190.144 -1.73875 -1.51776 0
M  V30 2052 C 191.114 -0.580702 -1.55618 0
M  V30 2053 O 192.299 -0.81641 -1.72451 0
M  V30 2054 C 189.439 -1.88012 -2.89388 0
M  V30 2055 C 188.552 -3.15606 -2.94986 0
M  V30 2056 C 187.687 -3.20271 -4.23793 0
M  V30 2057 C 186.726 -4.42134 -4.23302 0
M  V30 2058 N 185.863 -4.44284 -5.43651 0
M  V30 2059 H 190.703 -2.67071 -1.32201 0
M  V30 2060 H 188.24 -1.32351 -0.642008 0
M  V30 2061 H 190.198 -1.9419 -3.69251 0
M  V30 2062 H 188.828 -0.98213 -3.07496 0
M  V30 2063 H 187.88 -3.18681 -2.07717 0
M  V30 2064 H 189.192 -4.05486 -2.90486 0
M  V30 2065 H 188.346 -3.25428 -5.12036 0
M  V30 2066 H 187.085 -2.28299 -4.30965 0
M  V30 2067 H 186.09 -4.3714 -3.3345 0
M  V30 2068 H 187.315 -5.35382 -4.17783 0
M  V30 2069 H 185.261 -3.55188 -5.51523 0
M  V30 2070 H 185.178 -5.27988 -5.41078 0
M  V30 2071 H 186.446 -4.53649 -6.33895 0
M  V30 2072 N 190.675 0.682077 -1.42076 0
M  V30 2073 C 191.638 1.77756 -1.44691 0
M  V30 2074 C 192.638 1.5726 -0.335535 0
M  V30 2075 O 193.828 1.63686 -0.596037 0
M  V30 2076 C 190.96 3.16301 -1.27146 0
M  V30 2077 H 192.153 1.76826 -2.42224 0
M  V30 2078 H 189.706 0.891012 -1.28416 0
M  V30 2079 H 190.441 3.22862 -0.305075 0
M  V30 2080 H 190.226 3.32581 -2.07683 0
M  V30 2081 H 191.716 3.96241 -1.31843 0
M  V30 2082 N 192.153 1.28127 0.917671 0
M  V30 2083 C 193.399 1.16232 1.66918 0
M  V30 2084 C 193.754 -0.28701 1.90247 0
M  V30 2085 O 193.047 -1.20586 1.48895 0
M  V30 2086 C 193.241 1.89018 3.03327 0
M  V30 2087 C 193.07 3.4088 2.9331 0
M  V30 2088 C 191.84 4.10214 2.95047 0
M  V30 2089 C 194.038 4.36689 2.71675 0
M  V30 2090 N 192.02 5.48571 2.75577 0
M  V30 2091 C 193.391 5.62382 2.6101 0
M  V30 2092 C 195.446 4.26661 2.56641 0
M  V30 2093 C 194.149 6.79189 2.36843 0
M  V30 2094 C 196.175 5.432 2.33853 0
M  V30 2095 C 195.537 6.67855 2.23939 0
M  V30 2096 H 191.636 0.48024 0.617166 0
M  V30 2097 H 194.22 1.61727 1.08409 0
M  V30 2098 H 192.391 1.45963 3.59929 0
M  V30 2099 H 194.123 1.69541 3.67475 0
M  V30 2100 H 190.878 3.61762 3.05655 0
M  V30 2101 H 191.302 6.21287 2.68945 0
M  V30 2102 H 195.944 3.30998 2.63059 0
M  V30 2103 H 193.662 7.74926 2.29164 0
M  V30 2104 H 197.248 5.37328 2.23091 0
M  V30 2105 H 196.128 7.56511 2.06546 0
M  V30 2106 N 193.631 -1.12557 1.10312 0
M  V30 2107 C 194.594 -2.16434 0.75424 0
M  V30 2108 C 195.594 -1.59278 -0.220685 0
M  V30 2109 O 196.784 -1.742 0.00230591 0
M  V30 2110 C 193.916 -3.40699 0.116987 0
M  V30 2111 H 195.109 -2.48811 1.67431 0
M  V30 2112 H 192.662 -1.27542 0.903475 0
M  V30 2113 H 193.397 -3.13921 -0.813877 0
M  V30 2114 H 193.182 -3.83459 0.818613 0
M  V30 2115 H 194.672 -4.17451 -0.111387 0
M  V30 2116 N 195.109 -0.891671 -1.2995 0
M  V30 2117 C 196.334 -0.527932 -2.00568 0
M  V30 2118 C 196.759 0.877969 -1.66353 0
M  V30 2119 O 196.117 1.58301 -0.883762 0
M  V30 2120 C 196.165 -0.717745 -3.53385 0
M  V30 2121 O 195.269 0.233376 -4.11739 0
M  V30 2122 H 194.61 -0.20722 -0.630837 0
M  V30 2123 H 197.14 -1.20105 -1.65638 0
M  V30 2124 H 197.15 -0.619307 -4.03272 0
M  V30 2125 H 195.825 -1.74276 -3.77625 0
M  V30 2126 H 194.402 0.0880706 -3.72796 0
M  V30 2127 N 196.587 1.43421 -0.653314 0
M  V30 2128 C 197.835 2.01414 -0.166415 0
M  V30 2129 C 198.156 1.51803 1.22397 0
M  V30 2130 O 197.426 0.730693 1.81763 0
M  V30 2131 H 196.006 0.744703 -0.0585319 0
M  V30 2132 H 198.668 1.75629 -0.845003 0
M  V30 2133 H 197.764 3.11734 -0.151111 0
M  V30 2134 N 198.065 0.39524 1.52563 0
M  V30 2135 C 198.997 -0.472201 2.24283 0
M  V30 2136 C 200.01 -1.02178 1.26742 0
M  V30 2137 O 201.199 -0.923097 1.52778 0
M  V30 2138 C 198.299 -1.66775 2.95024 0
M  V30 2139 C 197.472 -1.2445 4.19322 0
M  V30 2140 C 196.531 -2.30539 4.7301 0
M  V30 2141 O 195.557 -1.91702 5.35947 0
M  V30 2142 N 196.759 -3.6253 4.53379 0
M  V30 2143 H 199.524 0.142282 2.99362 0
M  V30 2144 H 197.085 0.2219 1.60372 0
M  V30 2145 H 199.077 -2.37283 3.27839 0
M  V30 2146 H 197.647 -2.18845 2.23217 0
M  V30 2147 H 196.867 -0.368069 3.92478 0
M  V30 2148 H 198.155 -0.938457 5.0007 0
M  V30 2149 H 197.553 -3.96841 4.03154 0
M  V30 2150 H 196.11 -4.29055 4.90668 0
M  V30 2151 N 199.544 -1.57102 0.125237 0
M  V30 2152 C 200.769 -2.0019 -0.542101 0
M  V30 2153 C 201.194 -1.00449 -1.59034 0
M  V30 2154 O 200.552 0.0229423 -1.81285 0
M  V30 2155 C 200.6 -3.42129 -1.13929 0
M  V30 2156 O 199.704 -3.45307 -2.2547 0
M  V30 2157 H 199.045 -0.650171 -0.134812 0
M  V30 2158 H 201.575 -2.03461 0.215553 0
M  V30 2159 H 201.585 -3.80471 -1.4733 0
M  V30 2160 H 200.26 -4.14237 -0.371531 0
M  V30 2161 H 198.837 -3.1879 -1.93462 0
M  V30 2162 N 201.022 0.148545 -1.56898 0
M  V30 2163 C 202.252 0.875118 -1.8715 0
M  V30 2164 C 202.66 1.75322 -0.711262 0
M  V30 2165 O 202.003 1.80745 0.328151 0
M  V30 2166 C 202.065 1.7844 -3.12089 0
M  V30 2167 C 201.729 1.08361 -4.43967 0
M  V30 2168 C 202.726 0.438247 -5.1805 0
M  V30 2169 C 200.411 1.07358 -4.90693 0
M  V30 2170 C 202.405 -0.20779 -6.37061 0
M  V30 2171 C 200.092 0.42373 -6.09629 0
M  V30 2172 C 201.09 -0.215829 -6.82659 0
M  V30 2173 O 200.778 -0.855378 -7.99336 0
M  V30 2174 H 200.51 0.258504 -0.624621 0
M  V30 2175 H 203.064 0.14652 -2.04877 0
M  V30 2176 H 201.294 2.55389 -2.90367 0
M  V30 2177 H 202.983 2.38279 -3.286 0
M  V30 2178 H 203.749 0.437817 -4.8302 0
M  V30 2179 H 199.628 1.5608 -4.33774 0
M  V30 2180 H 203.172 -0.70758 -6.94002 0
M  V30 2181 H 199.069 0.421822 -6.4412 0
M  V30 2182 H 199.837 -0.756892 -8.14993 0
M  V30 2183 N 202.5 1.5196 0.417844 0
M  V30 2184 C 203.749 1.6482 1.16264 0
M  V30 2185 C 204.062 0.379886 1.91876 0
M  V30 2186 O 205.268 0.388154 2.68711 0
M  V30 2187 C 203.724 2.91161 2.1155 0
M  V30 2188 C 203.332 4.25068 1.41495 0
M  V30 2189 C 205.076 3.13383 2.86341 0
M  V30 2190 C 202.983 5.42541 2.35379 0
M  V30 2191 H 201.913 0.613954 0.437694 0
M  V30 2192 H 204.564 1.78442 0.427871 0
M  V30 2193 H 202.946 2.71218 2.88543 0
M  V30 2194 H 204.12 4.55463 0.699263 0
M  V30 2195 H 202.435 4.0888 0.787792 0
M  V30 2196 H 205.032 3.98324 3.5671 0
M  V30 2197 H 205.375 2.27256 3.48798 0
M  V30 2198 H 205.908 3.33757 2.1645 0
M  V30 2199 H 202.647 6.30987 1.77582 0
M  V30 2200 H 202.167 5.16497 3.04945 0
M  V30 2201 H 203.846 5.75272 2.96093 0
M  V30 2202 N 203.978 -0.674533 1.42435 0
M  V30 2203 C 204.908 -1.80009 1.48724 0
M  V30 2204 C 205.889 -1.6659 0.343793 0
M  V30 2205 O 207.074 -1.86007 0.558137 0
M  V30 2206 C 204.204 -3.18306 1.38919 0
M  V30 2207 C 203.158 -3.46461 2.51294 0
M  V30 2208 C 202.484 -4.84335 2.26547 0
M  V30 2209 C 203.784 -3.43328 3.93603 0
M  V30 2210 H 205.478 -1.75004 2.42928 0
M  V30 2211 H 203.024 -0.840533 1.16923 0
M  V30 2212 H 204.977 -3.9678 1.41927 0
M  V30 2213 H 203.701 -3.2399 0.412094 0
M  V30 2214 H 202.36 -2.70348 2.47604 0
M  V30 2215 H 202.008 -4.86669 1.2713 0
M  V30 2216 H 201.708 -5.04136 3.01861 0
M  V30 2217 H 203.232 -5.65094 2.31304 0
M  V30 2218 H 204.646 -4.11772 3.98894 0
M  V30 2219 H 203.043 -3.74664 4.68771 0
M  V30 2220 H 204.113 -2.41897 4.20255 0
M  V30 2221 N 205.456 -1.28612 -0.910864 0
M  V30 2222 C 206.386 -1.15326 -2.03032 0
M  V30 2223 C 207.367 -0.0502924 -1.70026 0
M  V30 2224 O 208.552 -0.227797 -1.92859 0
M  V30 2225 C 205.682 -0.817343 -3.37545 0
M  V30 2226 C 204.636 -1.8754 -3.84724 0
M  V30 2227 C 203.962 -1.39305 -5.16235 0
M  V30 2228 C 205.262 -3.28244 -4.06267 0
M  V30 2229 H 206.956 -2.08975 -2.14406 0
M  V30 2230 H 204.502 -1.00612 -1.03021 0
M  V30 2231 H 206.455 -0.711151 -4.15356 0
M  V30 2232 H 205.179 0.154846 -3.26233 0
M  V30 2233 H 203.838 -1.97079 -3.09121 0
M  V30 2234 H 203.486 -0.409846 -5.01328 0
M  V30 2235 H 203.186 -2.10057 -5.48771 0
M  V30 2236 H 204.71 -1.30014 -5.96598 0
M  V30 2237 H 206.124 -3.21611 -4.74594 0
M  V30 2238 H 204.521 -3.96855 -4.5014 0
M  V30 2239 H 205.591 -3.72048 -3.10979 0
M  V30 2240 N 206.934 1.1197 -1.10907 0
M  V30 2241 C 208.182 1.83225 -0.852819 0
M  V30 2242 C 208.503 1.84769 0.623341 0
M  V30 2243 O 207.773 1.3143 1.45269 0
M  V30 2244 H 206.353 0.67849 -0.312507 0
M  V30 2245 H 209.015 1.3556 -1.40033 0
M  V30 2246 H 208.111 2.87265 -1.22005 0
M  V30 2247 N 208.412 0.89855 1.29475 0
M  V30 2248 C 209.642 0.538479 1.99459 0
M  V30 2249 C 210.05 -0.880922 1.67441 0
M  V30 2250 O 209.393 -1.59283 0.915127 0
M  V30 2251 C 209.455 0.649564 3.53583 0
M  V30 2252 C 209.119 2.03573 4.09154 0
M  V30 2253 C 210.116 3.00675 4.24135 0
M  V30 2254 C 207.801 2.3448 4.44212 0
M  V30 2255 C 209.795 4.26809 4.73405 0
M  V30 2256 C 207.482 3.60857 4.93179 0
M  V30 2257 C 208.48 4.56836 5.0773 0
M  V30 2258 O 208.168 5.80969 5.55635 0
M  V30 2259 H 207.9 0.205372 0.644048 0
M  V30 2260 H 210.454 1.20958 1.66007 0
M  V30 2261 H 208.684 -0.0785592 3.8662 0
M  V30 2262 H 210.373 0.29881 4.04799 0
M  V30 2263 H 211.139 2.78112 3.97339 0
M  V30 2264 H 207.018 1.60534 4.32145 0
M  V30 2265 H 210.562 5.0173 4.84678 0
M  V30 2266 H 206.459 3.83251 5.19412 0
M  V30 2267 H 207.227 5.83542 5.73952 0
M  V30 2268 N 209.89 -1.43072 0.660911 0
M  V30 2269 C 210.82 -2.33497 -0.0122829 0
M  V30 2270 C 211.801 -1.49903 -0.803925 0
M  V30 2271 O 212.986 -1.78546 -0.763864 0
M  V30 2272 C 210.116 -3.33363 -0.973994 0
M  V30 2273 C 209.07 -4.27003 -0.291928 0
M  V30 2274 C 208.396 -5.16967 -1.36562 0
M  V30 2275 C 209.696 -5.15816 0.820462 0
M  V30 2276 H 211.39 -2.90038 0.742873 0
M  V30 2277 H 208.936 -1.39461 0.358688 0
M  V30 2278 H 210.889 -3.95524 -1.45392 0
M  V30 2279 H 209.613 -2.75095 -1.7604 0
M  V30 2280 H 208.272 -3.66217 0.167623 0
M  V30 2281 H 207.92 -4.55034 -2.14366 0
M  V30 2282 H 207.62 -5.80441 -0.914454 0
M  V30 2283 H 209.144 -5.82003 -1.84675 0
M  V30 2284 H 210.558 -5.71742 0.422366 0
M  V30 2285 H 208.955 -5.8805 1.19656 0
M  V30 2286 H 210.025 -4.55045 1.67518 0
M  V30 2287 N 211.368 -0.403325 -1.52352 0
M  V30 2288 C 212.298 0.416205 -2.29761 0
M  V30 2289 C 213.279 1.05123 -1.33728 0
M  V30 2290 O 214.464 1.06134 -1.62632 0
M  V30 2291 C 211.594 1.53624 -3.11475 0
M  V30 2292 C 210.548 1.02653 -4.15507 0
M  V30 2293 C 209.874 2.23971 -4.85532 0
M  V30 2294 C 211.174 0.08463 -5.22231 0
M  V30 2295 H 212.868 -0.229701 -2.98518 0
M  V30 2296 H 210.414 -0.111913 -1.43564 0
M  V30 2297 H 212.367 2.1165 -3.64393 0
M  V30 2298 H 211.091 2.20994 -2.40477 0
M  V30 2299 H 209.75 0.46871 -3.63591 0
M  V30 2300 H 209.398 2.89883 -4.11068 0
M  V30 2301 H 209.098 1.90521 -5.55856 0
M  V30 2302 H 210.622 2.82614 -5.41259 0
M  V30 2303 H 212.036 0.573509 -5.70424 0
M  V30 2304 H 210.433 -0.160783 -5.99885 0
M  V30 2305 H 211.503 -0.86237 -4.7717 0
M  V30 2306 N 212.846 1.57033 -0.133567 0
M  V30 2307 C 213.776 2.1909 0.807567 0
M  V30 2308 C 214.757 1.13517 1.26681 0
M  V30 2309 O 215.942 1.41809 1.32679 0
M  V30 2310 C 213.072 2.80188 2.05212 0
M  V30 2311 C 212.026 3.91471 1.73015 0
M  V30 2312 C 211.352 4.39443 3.04622 0
M  V30 2313 C 212.652 5.12886 0.987168 0
M  V30 2314 H 214.346 2.97988 0.290403 0
M  V30 2315 H 211.892 1.43335 0.138239 0
M  V30 2316 H 213.845 3.22264 2.71521 0
M  V30 2317 H 212.569 1.98601 2.59278 0
M  V30 2318 H 211.228 3.49993 1.0909 0
M  V30 2319 H 210.876 3.54695 3.56651 0
M  V30 2320 H 210.576 5.14495 2.83847 0
M  V30 2321 H 212.1 4.8418 3.72024 0
M  V30 2322 H 213.514 5.51891 1.55208 0
M  V30 2323 H 211.911 5.93615 0.87985 0
M  V30 2324 H 212.981 4.84894 -0.0235286 0
M  V30 2325 N 214.325 -0.140222 1.56975 0
M  V30 2326 C 215.255 -1.17456 2.01808 0
M  V30 2327 C 216.236 -1.44415 0.898794 0
M  V30 2328 O 217.421 -1.5522 1.16707 0
M  V30 2329 C 214.551 -2.50607 2.40444 0
M  V30 2330 C 213.505 -2.38155 3.55621 0
M  V30 2331 C 212.831 -3.76078 3.80091 0
M  V30 2332 C 214.131 -1.85991 4.88062 0
M  V30 2333 H 215.825 -0.801743 2.88466 0
M  V30 2334 H 213.371 -0.38422 1.38779 0
M  V30 2335 H 215.324 -3.23197 2.7041 0
M  V30 2336 H 214.048 -2.89737 1.50732 0
M  V30 2337 H 212.707 -1.68016 3.25832 0
M  V30 2338 H 212.355 -4.12656 2.87618 0
M  V30 2339 H 212.055 -3.68606 4.57606 0
M  V30 2340 H 213.579 -4.50206 4.12488 0
M  V30 2341 H 214.993 -2.4838 5.16701 0
M  V30 2342 H 213.39 -1.89393 5.6943 0
M  V30 2343 H 214.46 -0.816023 4.77984 0
M  V30 2344 N 215.803 -1.52179 -0.40978 0
M  V30 2345 C 216.733 -1.78435 -1.5061 0
M  V30 2346 C 217.714 -0.635295 -1.57791 0
M  V30 2347 O 218.899 -0.880823 -1.73076 0
M  V30 2348 C 216.029 -1.93444 -2.88439 0
M  V30 2349 C 214.983 -3.09038 -2.96108 0
M  V30 2350 C 214.309 -3.09268 -4.36185 0
M  V30 2351 C 215.609 -4.48508 -2.67652 0
M  V30 2352 H 217.303 -2.70237 -1.28889 0
M  V30 2353 H 214.849 -1.30036 -0.618605 0
M  V30 2354 H 216.802 -2.10394 -3.65119 0
M  V30 2355 H 215.526 -0.983129 -3.11452 0
M  V30 2356 H 214.185 -2.91837 -2.21872 0
M  V30 2357 H 213.833 -2.11861 -4.56206 0
M  V30 2358 H 213.533 -3.86907 -4.42241 0
M  V30 2359 H 215.057 -3.28348 -5.14801 0
M  V30 2360 H 216.471 -4.65918 -3.34056 0
M  V30 2361 H 214.868 -5.28059 -2.85085 0
M  V30 2362 H 215.938 -4.56649 -1.63095 0
M  V30 2363 N 217.281 0.66697 -1.42791 0
M  V30 2364 C 218.191 1.80962 -1.49299 0
M  V30 2365 C 219.207 1.69775 -0.381108 0
M  V30 2366 O 220.383 1.91188 -0.633188 0
M  V30 2367 C 217.448 3.17156 -1.40045 0
M  V30 2368 C 216.509 3.40242 -2.6179 0
M  V30 2369 C 215.742 4.69939 -2.52969 0
M  V30 2370 O 215.965 5.48372 -1.56985 0
M  V30 2371 O 214.899 4.94441 -3.43237 0
M  V30 2372 H 218.725 1.78427 -2.45759 0
M  V30 2373 H 216.31 0.823713 -1.24641 0
M  V30 2374 H 218.192 3.98413 -1.37276 0
M  V30 2375 H 216.867 3.20312 -0.467138 0
M  V30 2376 H 215.774 2.58802 -2.70134 0
M  V30 2377 H 217.107 3.41923 -3.54047 0
M  V30 2378 N 218.759 1.29093 0.90403 0
M  V30 2379 C 219.722 1.1386 1.98919 0
M  V30 2380 C 220.722 0.0753457 1.60623 0
M  V30 2381 O 221.912 0.321931 1.71199 0
M  V30 2382 C 219.044 0.740198 3.32767 0
M  V30 2383 H 220.237 2.10246 2.13861 0
M  V30 2384 H 217.79 1.12218 1.08797 0
M  V30 2385 H 218.525 -0.223997 3.23525 0
M  V30 2386 H 218.31 1.50838 3.61926 0
M  V30 2387 H 219.8 0.656546 4.12407 0
M  V30 2388 N 220.237 -1.11381 1.11499 0
M  V30 2389 C 221.467 -1.86663 0.885464 0
M  V30 2390 C 221.875 -1.80464 -0.568281 0
M  V30 2391 O 221.218 -1.18445 -1.40415 0
M  V30 2392 C 221.28 -3.36337 1.26956 0
M  V30 2393 C 220.944 -3.66304 2.73259 0
M  V30 2394 C 221.941 -3.63733 3.71476 0
M  V30 2395 C 219.626 -3.9529 3.09921 0
M  V30 2396 C 221.62 -3.89725 5.04374 0
M  V30 2397 C 219.307 -4.20941 4.43004 0
M  V30 2398 C 220.305 -4.18147 5.40039 0
M  V30 2399 O 219.993 -4.43153 6.70724 0
M  V30 2400 H 219.725 -0.597114 0.316908 0
M  V30 2401 H 222.279 -1.41782 1.48617 0
M  V30 2402 H 220.509 -3.81826 0.611999 0
M  V30 2403 H 222.198 -3.92986 1.01573 0
M  V30 2404 H 222.964 -3.41389 3.44498 0
M  V30 2405 H 218.843 -3.966 2.35009 0
M  V30 2406 H 222.387 -3.8746 5.80104 0
M  V30 2407 H 218.284 -4.42761 4.69716 0
M  V30 2408 H 219.052 -4.60717 6.76522 0
M  V30 2409 N 221.715 -0.905404 -1.28997 0
M  V30 2410 C 222.963 -0.533192 -1.9494 0
M  V30 2411 C 223.284 0.924618 -1.71685 0
M  V30 2412 O 222.554 1.65268 -1.05183 0
M  V30 2413 H 221.134 -0.194194 -0.721317 0
M  V30 2414 H 223.796 -1.15294 -1.57141 0
M  V30 2415 H 222.892 -0.72059 -3.03667 0
M  V30 2416 N 223.193 1.4272 -0.668489 0
M  V30 2417 C 224.123 2.335 -0.000100175 0
M  V30 2418 C 225.104 1.50328 0.795964 0
M  V30 2419 O 226.289 1.78949 0.754385 0
M  V30 2420 C 223.419 3.33874 0.956302 0
M  V30 2421 C 222.373 4.27152 0.269278 0
M  V30 2422 C 221.699 5.17684 1.33818 0
M  V30 2423 C 222.999 5.15373 -0.847805 0
M  V30 2424 H 224.693 2.89639 -0.758244 0
M  V30 2425 H 222.239 1.39269 -0.366079 0
M  V30 2426 H 224.192 3.9629 1.43292 0
M  V30 2427 H 222.916 2.76025 1.74579 0
M  V30 2428 H 221.575 3.66123 -0.187042 0
M  V30 2429 H 221.223 4.56165 2.1195 0
M  V30 2430 H 220.923 5.80918 0.883659 0
M  V30 2431 H 222.447 5.82974 1.81586 0
M  V30 2432 H 223.861 5.7151 -0.452681 0
M  V30 2433 H 222.258 5.87407 -1.22773 0
M  V30 2434 H 223.328 4.5415 -1.69929 0
M  V30 2435 N 224.671 0.411399 1.52136 0
M  V30 2436 C 225.919 -0.163322 2.01439 0
M  V30 2437 C 226.24 -1.45453 1.29879 0
M  V30 2438 O 225.51 -1.91225 0.4254 0
M  V30 2439 H 224.09 -0.0633447 0.744309 0
M  V30 2440 H 226.752 0.548161 1.87033 0
M  V30 2441 H 225.848 -0.357817 3.10042 0
M  V30 2442 N 226.149 -1.5696 0.141893 0
M  V30 2443 C 227.374 -2.00754 -0.520838 0
M  V30 2444 C 227.799 -1.0213 -1.57959 0
M  V30 2445 O 227.157 0.00371324 -1.813 0
M  V30 2446 C 227.205 -3.43318 -1.10294 0
M  V30 2447 O 226.309 -3.47679 -2.21795 0
M  V30 2448 H 225.65 -0.651564 -0.127908 0
M  V30 2449 H 228.18 -2.03221 0.23712 0
M  V30 2450 H 228.19 -3.82012 -1.43287 0
M  V30 2451 H 226.865 -4.14608 -0.327574 0
M  V30 2452 H 225.442 -3.20824 -1.9007 0
M  V30 2453 N 227.627 0.131896 -1.57047 0
M  V30 2454 C 228.873 0.843179 -1.84441 0
M  V30 2455 C 229.206 1.80129 -0.725749 0
M  V30 2456 O 228.481 1.92624 0.269469 0
M  V30 2457 C 228.764 1.60442 -3.22382 0
M  V30 2458 C 228.617 0.666782 -4.4483 0
M  V30 2459 C 229.936 2.56354 -3.5773 0
M  V30 2460 H 227.055 0.305081 -0.670891 0
M  V30 2461 H 229.697 0.107839 -1.89694 0
M  V30 2462 H 227.847 2.23128 -3.18035 0
M  V30 2463 H 229.519 0.0497646 -4.61273 0
M  V30 2464 H 227.762 -0.022609 -4.33794 0
M  V30 2465 H 228.433 1.23579 -5.37989 0
M  V30 2466 H 230.909 2.0378 -3.62785 0
M  V30 2467 H 229.785 3.06657 -4.5525 0
M  V30 2468 H 230.046 3.38419 -2.84473 0
M  V30 2469 N 229.106 1.52395 0.401703 0
M  V30 2470 C 230.517 1.58899 0.980202 0
M  V30 2471 C 230.868 0.434032 1.91339 0
M  V30 2472 O 229.993 -0.444619 2.11783 0
M  V30 2473 C 230.588 2.87994 1.78451 0
M  V30 2474 C 229.147 2.96953 2.31292 0
M  V30 2475 C 228.294 2.53903 1.11483 0
M  V30 2476 H 231.245 1.57657 0.18168 0
M  V30 2477 H 231.266 2.73765 2.64259 0
M  V30 2478 H 230.778 3.72035 1.10506 0
M  V30 2479 H 228.879 2.17422 3.02586 0
M  V30 2480 H 228.992 4.01344 2.61649 0
M  V30 2481 H 227.356 2.07925 1.47104 0
M  V30 2482 H 228.139 3.40326 0.450928 0
M  V30 2483 N 230.584 -0.659388 1.43143 0
M  V30 2484 C 231.517 -1.78425 1.42267 0
M  V30 2485 C 232.495 -1.60085 0.284894 0
M  V30 2486 O 233.679 -1.82351 0.477527 0
M  V30 2487 C 230.806 -3.15642 1.22833 0
M  V30 2488 C 229.852 -3.52698 2.39806 0
M  V30 2489 S 230.685 -3.53372 4.02353 0
M  V30 2490 C 231.841 -4.93256 3.85291 0
M  V30 2491 H 232.074 -1.78897 2.37452 0
M  V30 2492 H 229.607 -0.831469 1.301 0
M  V30 2493 H 231.565 -3.94838 1.12308 0
M  V30 2494 H 230.226 -3.12739 0.29207 0
M  V30 2495 H 229.419 -4.52475 2.21996 0
M  V30 2496 H 229.021 -2.80899 2.46925 0
M  V30 2497 H 231.313 -5.81751 3.47235 0
M  V30 2498 H 232.256 -5.16115 4.84799 0
M  V30 2499 H 232.664 -4.665 3.17865 0
M  V30 2500 N 232.062 -1.29571 -0.897171 0
M  V30 2501 C 232.992 -1.17473 -2.01798 0
M  V30 2502 C 233.973 -0.068323 -1.69963 0
M  V30 2503 O 235.158 -0.248239 -1.92607 0
M  V30 2504 C 232.288 -0.853099 -3.36659 0
M  V30 2505 C 231.242 -1.9161 -3.82713 0
M  V30 2506 C 230.568 -1.44773 -5.14728 0
M  V30 2507 C 231.868 -3.32535 -4.02763 0
M  V30 2508 H 233.562 -2.11237 -2.12177 0
M  V30 2509 H 231.108 -1.01699 -1.01948 0
M  V30 2510 H 233.061 -0.755165 -4.14578 0
M  V30 2511 H 231.785 0.120236 -3.26379 0
M  V30 2512 H 230.444 -2.00346 -3.07013 0
M  V30 2513 H 230.092 -0.462995 -5.00865 0
M  V30 2514 H 229.792 -2.15865 -5.46513 0
M  V30 2515 H 231.316 -1.36334 -5.95185 0
M  V30 2516 H 232.73 -3.26626 -4.71156 0
M  V30 2517 H 231.127 -4.01607 -4.45905 0
M  V30 2518 H 232.197 -3.75326 -3.07016 0
M  V30 2519 N 233.54 1.10788 -1.12088 0
M  V30 2520 C 234.788 1.8231 -0.872205 0
M  V30 2521 C 235.109 1.85419 0.603709 0
M  V30 2522 O 234.379 1.32963 1.43867 0
M  V30 2523 H 232.959 0.675137 -0.319686 0
M  V30 2524 H 235.621 1.34068 -1.41463 0
M  V30 2525 H 234.717 2.85955 -1.25045 0
M  V30 2526 N 235.018 0.912232 1.28515 0
M  V30 2527 C 236.265 0.544599 1.95039 0
M  V30 2528 C 236.593 -0.911435 1.71823 0
M  V30 2529 O 235.848 -1.66317 1.03137 0
M  V30 2530 C 236.147 0.798392 3.48368 0
M  V30 2531 C 235.813 2.23374 3.91682 0
M  V30 2532 C 234.475 2.62617 4.03219 0
M  V30 2533 C 236.827 3.16786 4.13879 0
M  V30 2534 C 234.155 3.94429 4.3433 0
M  V30 2535 C 236.507 4.48161 4.46469 0
M  V30 2536 C 235.171 4.8726 4.56217 0
M  V30 2537 H 234.441 0.199283 0.7137 0
M  V30 2538 H 237.088 1.15327 1.52879 0
M  V30 2539 H 235.393 0.106908 3.91654 0
M  V30 2540 H 237.09 0.493141 3.97956 0
M  V30 2541 H 233.68 1.91922 3.83228 0
M  V30 2542 H 237.864 2.87677 4.0442 0
M  V30 2543 H 233.12 4.24426 4.40082 0
M  V30 2544 H 237.294 5.20559 4.62592 0
M  V30 2545 H 234.921 5.89431 4.80078 0
M  V30 2546 N 236.496 -1.42363 0.676048 0
M  V30 2547 C 237.773 -1.95183 0.127726 0
M  V30 2548 C 238.153 -1.61641 -1.35777 0
M  V30 2549 O 237.501 -0.913216 -2.09458 0
M  V30 2550 C 237.711 -3.46721 0.398199 0
M  V30 2551 C 239.059 -4.23427 0.315383 0
M  V30 2552 O 240.083 -3.54649 0.332016 0
M  V30 2553 O 238.942 -5.45888 0.25865 0
M  V30 2554 H 236.036 -0.826992 0.00359427 0
M  V30 2555 H 238.582 -1.52184 0.750864 0
M  V30 2556 H 237.354 -3.64344 1.4272 0
M  V30 2557 H 236.977 -3.96769 -0.256885 0
M  V30 2558 N 237.974 -0.419461 -1.51915 0
M  V30 2559 C 239.385 0.0477853 -1.86639 0
M  V30 2560 C 239.736 1.43531 -1.33766 0
M  V30 2561 O 238.861 2.05401 -0.68113 0
M  V30 2562 C 239.456 0.0934885 -3.38671 0
M  V30 2563 C 238.015 0.505097 -3.72996 0
M  V30 2564 C 237.162 -0.313792 -2.75519 0
M  V30 2565 H 240.113 -0.636088 -1.45395 0
M  V30 2566 H 240.134 0.906667 -3.6954 0
M  V30 2567 H 239.646 -0.916501 -3.77123 0
M  V30 2568 H 237.747 1.52135 -3.40126 0
M  V30 2569 H 237.86 0.242309 -4.78487 0
M  V30 2570 H 236.224 0.225363 -2.53701 0
M  V30 2571 H 237.007 -1.32232 -3.16812 0
M  V30 2572 N 239.452 1.56882 -0.150215 0
M  V30 2573 C 240.362 2.20494 0.801222 0
M  V30 2574 C 241.378 1.19019 1.26927 0
M  V30 2575 O 242.554 1.51607 1.32579 0
M  V30 2576 C 239.619 2.81659 2.02161 0
M  V30 2577 C 238.68 3.9827 1.60249 0
M  V30 2578 C 237.913 4.56508 2.7647 0
M  V30 2579 O 238.136 4.13627 3.92771 0
M  V30 2580 O 237.07 5.46719 2.51757 0
M  V30 2581 H 240.896 3.02315 0.289717 0
M  V30 2582 H 238.481 1.49202 0.0769684 0
M  V30 2583 H 240.363 3.20522 2.73576 0
M  V30 2584 H 239.038 2.02849 2.52258 0
M  V30 2585 H 237.945 3.64117 0.858477 0
M  V30 2586 H 239.278 4.78609 1.14864 0
M  V30 2587 N 240.93 -0.123565 1.57115 0
M  V30 2588 C 242.346 -0.476961 1.52306 0
M  V30 2589 C 242.546 -1.82109 0.86248 0
M  V30 2590 O 241.602 -2.48586 0.442884 0
M  V30 2591 C 242.915 -0.465661 2.97073 0
M  V30 2592 C 244.463 -0.549534 3.08138 0
M  V30 2593 C 244.938 -0.568669 4.54456 0
M  V30 2594 N 246.429 -0.630237 4.58892 0
M  V30 2595 C 247.164 -0.666415 5.69514 0
M  V30 2596 N 246.66 -0.660514 6.89644 0
M  V30 2597 N 248.453 -0.709077 5.5761 0
M  V30 2598 H 240.604 0.757198 1.98445 0
M  V30 2599 H 242.867 0.278808 0.906074 0
M  V30 2600 H 242.573 0.454232 3.48754 0
M  V30 2601 H 242.447 -1.29513 3.54269 0
M  V30 2602 H 244.834 -1.45985 2.56461 0
M  V30 2603 H 244.915 0.307532 2.53945 0
M  V30 2604 H 244.559 0.337581 5.06777 0
M  V30 2605 H 244.489 -1.44256 5.06456 0
M  V30 2606 H 246.98 -0.641146 3.72421 0
M  V30 2607 H 247.293 -0.690616 7.69708 0
M  V30 2608 H 245.638 -0.628012 6.92157 0
M  V30 2609 H 248.829 -0.711019 4.62668 0
M  V30 2610 H 249.002 -0.733804 6.43832 0
M  V30 2611 N 242.408 -1.52605 -0.393616 0
M  V30 2612 C 243.654 -1.67672 -1.14079 0
M  V30 2613 C 243.987 -0.413121 -1.89755 0
M  V30 2614 O 243.262 0.588952 -1.85369 0
M  V30 2615 C 243.545 -2.9088 -2.12276 0
M  V30 2616 C 243.398 -4.27329 -1.40394 0
M  V30 2617 C 244.717 -3.09628 -3.12759 0
M  V30 2618 H 241.836 -0.610168 -0.413356 0
M  V30 2619 H 244.478 -1.85193 -0.424696 0
M  V30 2620 H 242.628 -2.76073 -2.73342 0
M  V30 2621 H 244.3 -4.53894 -0.82327 0
M  V30 2622 H 242.543 -4.2802 -0.705801 0
M  V30 2623 H 243.214 -5.09615 -2.12123 0
M  V30 2624 H 245.69 -3.23436 -2.61779 0
M  V30 2625 H 244.566 -3.97322 -3.78717 0
M  V30 2626 H 244.827 -2.23637 -3.81365 0
M  V30 2627 N 243.887 0.651787 -1.4349 0
M  V30 2628 C 245.303 0.96762 -1.26922 0
M  V30 2629 C 245.503 2.00602 -0.189982 0
M  V30 2630 O 244.559 2.48793 0.431107 0
M  V30 2631 C 245.872 1.45052 -2.63401 0
M  V30 2632 C 247.42 1.5671 -2.70945 0
M  V30 2633 C 247.895 2.0839 -4.07845 0
M  V30 2634 N 249.386 2.1569 -4.09917 0
M  V30 2635 C 250.121 2.56804 -5.12679 0
M  V30 2636 N 249.617 2.97203 -6.25813 0
M  V30 2637 N 251.41 2.56756 -5.00033 0
M  V30 2638 H 243.561 -0.0353158 -2.12371 0
M  V30 2639 H 245.824 0.0467858 -0.946845 0
M  V30 2640 H 245.53 0.761926 -3.43348 0
M  V30 2641 H 245.404 2.42529 -2.88894 0
M  V30 2642 H 247.791 2.2467 -1.9133 0
M  V30 2643 H 247.872 0.57662 -2.49216 0
M  V30 2644 H 247.516 1.41031 -4.87927 0
M  V30 2645 H 247.446 3.08271 -4.26938 0
M  V30 2646 H 249.937 1.87237 -3.28254 0
M  V30 2647 H 250.25 3.27328 -7.00055 0
M  V30 2648 H 248.595 2.95004 -6.29283 0
M  V30 2649 H 251.786 2.24572 -4.10713 0
M  V30 2650 H 251.959 2.88475 -5.80247 0
M  V30 2651 N 245.365 1.30045 0.890287 0
M  V30 2652 C 246.328 1.15963 1.977 0
M  V30 2653 C 247.328 0.0923777 1.60534 0
M  V30 2654 O 248.518 0.340071 1.70848 0
M  V30 2655 C 245.65 0.775451 3.31963 0
M  V30 2656 H 246.843 2.12502 2.11619 0
M  V30 2657 H 244.396 1.13366 1.07601 0
M  V30 2658 H 245.131 -0.189671 3.23745 0
M  V30 2659 H 244.916 1.54668 3.60306 0
M  V30 2660 H 246.406 0.700251 4.11687 0
M  V30 2661 N 246.843 -1.10192 1.12674 0
M  V30 2662 C 248.092 -1.81573 0.8783 0
M  V30 2663 C 248.405 -1.86249 -0.597557 0
M  V30 2664 O 249.611 -2.5386 -0.962681 0
M  V30 2665 C 248.067 -3.26149 1.52167 0
M  V30 2666 C 247.675 -3.29763 3.03249 0
M  V30 2667 C 249.419 -4.0234 1.3536 0
M  V30 2668 C 247.326 -4.68815 3.60508 0
M  V30 2669 H 246.256 -0.680394 0.324931 0
M  V30 2670 H 248.907 -1.23902 1.35353 0
M  V30 2671 H 247.289 -3.83832 0.974104 0
M  V30 2672 H 248.463 -2.8189 3.6452 0
M  V30 2673 H 246.778 -2.67059 3.19481 0
M  V30 2674 H 249.375 -5.05058 1.75559 0
M  V30 2675 H 249.718 -4.15235 0.297554 0
M  V30 2676 H 250.251 -3.51079 1.87052 0
M  V30 2677 H 246.99 -4.61121 4.65884 0
M  V30 2678 H 246.51 -5.17045 3.04014 0
M  V30 2679 H 248.189 -5.37785 3.59717 0
M  V30 2680 N 248.321 -0.919034 -1.28029 0
M  V30 2681 C 249.251 -0.428581 -2.29533 0
M  V30 2682 C 250.232 0.50659 -1.62381 0
M  V30 2683 O 251.417 0.413195 -1.89753 0
M  V30 2684 C 248.547 0.327388 -3.45753 0
M  V30 2685 C 247.501 -0.519137 -4.2484 0
M  V30 2686 C 246.827 0.365486 -5.33449 0
M  V30 2687 C 248.127 -1.77914 -4.91064 0
M  V30 2688 H 249.821 -1.27687 -2.70807 0
M  V30 2689 H 247.367 -0.615428 -1.30186 0
M  V30 2690 H 249.32 0.681378 -4.15855 0
M  V30 2691 H 248.044 1.20963 -3.03374 0
M  V30 2692 H 246.703 -0.855717 -3.56473 0
M  V30 2693 H 246.351 1.24642 -4.87312 0
M  V30 2694 H 246.051 -0.197356 -5.87268 0
M  V30 2695 H 247.575 0.715241 -6.06396 0
M  V30 2696 H 248.989 -1.49374 -5.53498 0
M  V30 2697 H 247.386 -2.2848 -5.54903 0
M  V30 2698 H 248.456 -2.50382 -4.15255 0
M  V30 2699 N 249.799 1.42003 -0.683588 0
M  V30 2700 C 251.047 2.01015 -0.209101 0
M  V30 2701 C 251.368 1.54365 1.19149 0
M  V30 2702 O 250.638 0.769083 1.80172 0
M  V30 2703 H 249.218 0.743294 -0.074315 0
M  V30 2704 H 251.88 1.73798 -0.882066 0
M  V30 2705 H 250.976 3.11343 -0.2172 0
M  V30 2706 N 251.277 0.427512 1.51691 0
M  V30 2707 C 252.207 -0.3796 2.30394 0
M  V30 2708 C 253.188 -1.02982 1.35384 0
M  V30 2709 O 254.373 -1.03534 1.643 0
M  V30 2710 C 251.503 -1.48649 3.1388 0
M  V30 2711 C 250.457 -0.960294 4.17088 0
M  V30 2712 C 249.783 -2.16219 4.89033 0
M  V30 2713 C 251.083 -0.00153679 5.223 0
M  V30 2714 H 252.777 0.277164 2.98114 0
M  V30 2715 H 250.323 0.134739 1.43368 0
M  V30 2716 H 252.276 -2.05826 3.67714 0
M  V30 2717 H 251 -2.1714 2.43962 0
M  V30 2718 H 249.659 -0.410806 3.64291 0
M  V30 2719 H 249.307 -2.83307 4.15628 0
M  V30 2720 H 249.007 -1.81654 5.58816 0
M  V30 2721 H 250.531 -2.73968 5.45687 0
M  V30 2722 H 251.945 -0.482687 5.71264 0
M  V30 2723 H 250.342 0.256199 5.99553 0
M  V30 2724 H 251.412 0.938174 4.75738 0
M  V30 2725 N 252.755 -1.56801 0.158532 0
M  V30 2726 C 254.166 -1.83189 -0.360366 0
M  V30 2727 C 254.517 -1.07778 -1.63946 0
M  V30 2728 O 253.642 -0.326718 -2.13919 0
M  V30 2729 C 254.237 -3.32297 -0.660595 0
M  V30 2730 C 252.796 -3.59227 -1.12398 0
M  V30 2731 C 251.943 -2.76877 -0.153097 0
M  V30 2732 H 254.894 -1.54008 0.383031 0
M  V30 2733 H 254.915 -3.4908 -1.51405 0
M  V30 2734 H 254.427 -3.87156 0.270527 0
M  V30 2735 H 252.528 -3.09766 -2.07064 0
M  V30 2736 H 252.641 -4.67632 -1.04197 0
M  V30 2737 H 251.005 -2.46319 -0.647983 0
M  V30 2738 H 251.788 -3.34511 0.77182 0
M  V30 2739 N 254.233 0.115231 -1.57178 0
M  V30 2740 C 255.458 0.840354 -1.89612 0
M  V30 2741 C 255.883 1.72464 -0.750845 0
M  V30 2742 O 255.241 1.78826 0.298478 0
M  V30 2743 C 255.289 1.64654 -3.20814 0
M  V30 2744 O 254.393 2.7538 -3.06985 0
M  V30 2745 H 253.734 0.232158 -0.622092 0
M  V30 2746 H 256.264 0.0964977 -2.04372 0
M  V30 2747 H 256.274 2.03499 -3.53627 0
M  V30 2748 H 254.949 0.997416 -4.03763 0
M  V30 2749 H 253.526 2.3971 -2.85646 0
M  V30 2750 N 255.711 1.52812 0.385517 0
M  V30 2751 C 256.661 1.74219 1.47078 0
M  V30 2752 C 257.645 0.59632 1.49442 0
M  V30 2753 O 258.837 0.85428 1.5502 0
M  V30 2754 C 255.966 1.9176 2.84751 0
M  V30 2755 C 255.052 3.12289 2.86943 0
M  V30 2756 N 255.443 4.34575 2.58802 0
M  V30 2757 C 253.741 3.12605 3.1811 0
M  V30 2758 C 254.442 5.162 2.68166 0
M  V30 2759 N 253.418 4.51964 3.02043 0
M  V30 2760 H 257.22 2.6639 1.24152 0
M  V30 2761 H 254.734 1.51166 0.593504 0
M  V30 2762 H 256.731 2.05218 3.62893 0
M  V30 2763 H 255.391 1.00805 3.08656 0
M  V30 2764 H 256.402 4.62649 2.32759 0
M  V30 2765 H 253.079 2.31472 3.47458 0
M  V30 2766 H 254.469 6.23689 2.49923 0
M  V30 2767 N 257.189 -0.644168 1.43834 0
M  V30 2768 C 258.152 -1.73857 1.49353 0
M  V30 2769 C 259.152 -1.56315 0.377112 0
M  V30 2770 O 260.342 -1.62048 0.639226 0
M  V30 2771 C 257.474 -3.12819 1.35488 0
M  V30 2772 H 258.667 -1.70342 2.46827 0
M  V30 2773 H 256.22 -0.856652 1.30733 0
M  V30 2774 H 256.955 -3.2194 0.390569 0
M  V30 2775 H 256.74 -3.26958 2.16428 0
M  V30 2776 H 258.23 -3.92606 1.42302 0
M  V30 2777 N 258.668 -1.30515 -0.883378 0
M  V30 2778 C 259.631 -1.1701 -1.97082 0
M  V30 2779 C 260.631 -0.10089 -1.60483 0
M  V30 2780 O 261.821 -0.349127 -1.70666 0
M  V30 2781 C 258.953 -0.793045 -3.31547 0
M  V30 2782 H 260.146 -2.13622 -2.10489 0
M  V30 2783 H 257.699 -1.13935 -1.06998 0
M  V30 2784 H 258.434 0.172499 -3.23841 0
M  V30 2785 H 258.219 -1.56576 -3.5948 0
M  V30 2786 H 259.709 -0.722073 -4.1131 0
M  V30 2787 N 260.146 1.09593 -1.13257 0
M  V30 2788 C 261.395 1.81105 -0.887917 0
M  V30 2789 C 261.708 1.86563 0.587672 0
M  V30 2790 O 262.914 2.54367 0.949204 0
M  V30 2791 C 261.37 3.25338 -1.53895 0
M  V30 2792 C 260.978 3.28151 -3.04994 0
M  V30 2793 C 262.722 4.01617 -1.37492 0
M  V30 2794 C 260.629 4.66897 -3.6299 0
M  V30 2795 H 259.559 0.678661 -0.328534 0
M  V30 2796 H 262.21 1.23183 -1.36008 0
M  V30 2797 H 260.592 3.8331 -0.994446 0
M  V30 2798 H 261.766 2.79953 -3.66009 0
M  V30 2799 H 260.081 2.65361 -3.20893 0
M  V30 2800 H 262.678 5.04119 -1.78235 0
M  V30 2801 H 263.021 4.15072 -0.31957 0
M  V30 2802 H 263.554 3.50082 -1.88912 0
M  V30 2803 H 260.293 4.58643 -4.68323 0
M  V30 2804 H 259.813 5.15426 -3.06752 0
M  V30 2805 H 261.492 5.3587 -3.62563 0
M  V30 2806 N 261.624 0.925811 1.2754 0
M  V30 2807 C 263.035 0.610102 1.7645 0
M  V30 2808 C 263.386 -0.874723 1.75622 0
M  V30 2809 O 262.511 -1.68444 1.35851 0
M  V30 2810 C 263.106 1.10073 3.20421 0
M  V30 2811 C 261.665 0.835723 3.67005 0
M  V30 2812 C 260.812 1.26054 2.46993 0
M  V30 2813 H 263.763 1.10579 1.13833 0
M  V30 2814 H 263.784 0.447557 3.77859 0
M  V30 2815 H 263.296 2.18143 3.20991 0
M  V30 2816 H 261.397 -0.231249 3.71882 0
M  V30 2817 H 261.51 1.45193 4.56569 0
M  V30 2818 H 259.874 0.679111 2.45479 0
M  V30 2819 H 260.657 2.34984 2.50275 0
M  V30 2820 N 263.102 -1.41638 0.69111 0
M  V30 2821 C 264.065 -2.29178 0.0319786 0
M  V30 2822 C 265.065 -1.44153 -0.712496 0
M  V30 2823 O 266.255 -1.65354 -0.548053 0
M  V30 2824 C 263.387 -3.26952 -0.965161 0
M  V30 2825 H 264.58 -2.88959 0.802681 0
M  V30 2826 H 262.133 -1.4955 0.454356 0
M  V30 2827 H 262.868 -2.72142 -1.76378 0
M  V30 2828 H 262.653 -3.89685 -0.434522 0
M  V30 2829 H 264.143 -3.92561 -1.42428 0
M  V30 2830 N 264.58 -0.43555 -1.51462 0
M  V30 2831 C 265.51 0.367376 -2.30592 0
M  V30 2832 C 266.491 1.02263 -1.35928 0
M  V30 2833 O 267.676 1.02661 -1.64847 0
M  V30 2834 C 264.806 1.46983 -3.14664 0
M  V30 2835 C 263.76 0.938161 -4.17591 0
M  V30 2836 C 263.086 2.13622 -4.90173 0
M  V30 2837 C 264.386 -0.0261621 -5.22293 0
M  V30 2838 H 266.08 -0.292969 -2.97963 0
M  V30 2839 H 263.626 -0.14234 -1.43295 0
M  V30 2840 H 265.579 2.03873 -3.688 0
M  V30 2841 H 264.303 2.15843 -2.4511 0
M  V30 2842 H 262.962 0.391481 -3.64504 0
M  V30 2843 H 262.61 2.81098 -4.17124 0
M  V30 2844 H 262.31 1.78688 -5.59772 0
M  V30 2845 H 263.834 2.7107 -5.47132 0
M  V30 2846 H 265.248 0.452384 -5.71512 0
M  V30 2847 H 263.645 -0.287992 -5.99409 0
M  V30 2848 H 264.715 -0.963391 -4.75233 0
M  V30 2849 N 266.058 1.56714 -0.166846 0
M  V30 2850 C 267.304 1.97039 0.479962 0
M  V30 2851 C 267.637 1.05264 1.63197 0
M  V30 2852 O 266.912 0.0988833 1.94248 0
M  V30 2853 C 267.195 3.46867 0.967212 0
M  V30 2854 C 267.048 4.49421 -0.18466 0
M  V30 2855 C 268.367 3.9968 1.84238 0
M  V30 2856 H 265.486 0.71641 0.172992 0
M  V30 2857 H 268.128 1.8832 -0.252079 0
M  V30 2858 H 266.278 3.54428 1.59101 0
M  V30 2859 H 267.95 4.53924 -0.821621 0
M  V30 2860 H 266.193 4.25573 -0.840837 0
M  V30 2861 H 266.864 5.51644 0.198317 0
M  V30 2862 H 269.34 3.94723 1.31655 0
M  V30 2863 H 268.216 5.04941 2.15234 0
M  V30 2864 H 268.477 3.43226 2.78654 0
M  V30 2865 N 267.536 -0.106894 1.57237 0
M  V30 2866 C 268.499 -1.11466 2.0027 0
M  V30 2867 C 269.499 -1.33623 0.894519 0
M  V30 2868 O 270.689 -1.29935 1.16028 0
M  V30 2869 C 267.821 -2.46646 2.35327 0
M  V30 2870 H 269.014 -0.744516 2.90512 0
M  V30 2871 H 266.567 -0.351576 1.52295 0
M  V30 2872 H 267.302 -2.88558 1.48003 0
M  V30 2873 H 267.087 -2.31915 3.16161 0
M  V30 2874 H 268.577 -3.19151 2.69318 0
M  V30 2875 N 269.014 -1.53014 -0.377408 0
M  V30 2876 C 269.944 -1.81589 -1.46791 0
M  V30 2877 C 270.925 -0.668622 -1.56408 0
M  V30 2878 O 272.11 -0.917337 -1.71168 0
M  V30 2879 C 269.24 -1.99519 -2.8427 0
M  V30 2880 C 268.194 -3.15249 -2.89486 0
M  V30 2881 C 267.52 -3.18451 -4.29527 0
M  V30 2882 C 268.82 -4.54084 -2.58079 0
M  V30 2883 H 270.514 -2.7291 -1.23127 0
M  V30 2884 H 268.06 -1.31319 -0.590883 0
M  V30 2885 H 270.013 -2.18092 -3.60575 0
M  V30 2886 H 268.737 -1.04897 -3.09296 0
M  V30 2887 H 267.396 -2.96477 -2.15631 0
M  V30 2888 H 267.044 -2.2149 -4.5161 0
M  V30 2889 H 266.744 -3.962 -4.33934 0
M  V30 2890 H 268.268 -3.39193 -5.07721 0
M  V30 2891 H 269.682 -4.72899 -3.24098 0
M  V30 2892 H 268.079 -5.33987 -2.7382 0
M  V30 2893 H 269.149 -4.60006 -1.53372 0
M  V30 2894 N 270.492 0.636531 -1.44174 0
M  V30 2895 C 271.74 1.39343 -1.46383 0
M  V30 2896 C 272.061 1.94766 -0.0955715 0
M  V30 2897 O 271.331 1.75452 0.871395 0
M  V30 2898 H 269.911 0.517199 -0.538994 0
M  V30 2899 H 272.573 0.74957 -1.7991 0
M  V30 2900 H 271.669 2.22746 -2.18611 0
M  V30 2901 N 271.97 1.30982 0.876444 0
M  V30 2902 C 273.2 1.23063 1.65949 0
M  V30 2903 C 273.608 -0.207537 1.88058 0
M  V30 2904 O 272.951 -1.14781 1.43426 0
M  V30 2905 C 273.013 1.89768 3.05333 0
M  V30 2906 C 272.677 3.39106 3.0636 0
M  V30 2907 C 273.674 4.3496 2.84791 0
M  V30 2908 C 271.359 3.80693 3.27686 0
M  V30 2909 C 273.353 5.70375 2.84519 0
M  V30 2910 C 271.04 5.16223 3.27043 0
M  V30 2911 C 272.038 6.10875 3.05485 0
M  V30 2912 O 271.726 7.43928 3.04674 0
M  V30 2913 H 271.458 0.426685 0.524324 0
M  V30 2914 H 274.012 1.7329 1.10271 0
M  V30 2915 H 272.242 1.34082 3.6271 0
M  V30 2916 H 273.931 1.75853 3.65829 0
M  V30 2917 H 274.697 4.0416 2.68103 0
M  V30 2918 H 270.576 3.07457 3.43499 0
M  V30 2919 H 274.12 6.44228 2.67611 0
M  V30 2920 H 270.017 5.4666 3.43269 0
M  V30 2921 H 270.785 7.53022 3.2078 0
M  V30 2922 N 273.449 -1.08991 1.13837 0
M  V30 2923 C 274.86 -1.62746 0.914917 0
M  V30 2924 C 275.211 -1.88403 -0.547594 0
M  V30 2925 O 274.336 -1.63706 -1.41525 0
M  V30 2926 C 274.931 -2.95662 1.65437 0
M  V30 2927 C 273.49 -3.46225 1.47666 0
M  V30 2928 C 272.637 -2.20562 1.6807 0
M  V30 2929 H 275.588 -0.922946 1.29102 0
M  V30 2930 H 275.609 -3.63825 1.11407 0
M  V30 2931 H 275.121 -2.76956 2.71877 0
M  V30 2932 H 273.222 -3.70046 0.435478 0
M  V30 2933 H 273.335 -4.23368 2.24268 0
M  V30 2934 H 271.699 -2.29439 1.10589 0
M  V30 2935 H 272.482 -2.0437 2.7584 0
M  V30 2936 N 274.927 -0.932562 -1.27047 0
M  V30 2937 C 275.89 -0.440064 -2.24936 0
M  V30 2938 C 276.89 0.444071 -1.54547 0
M  V30 2939 O 278.08 0.244465 -1.72476 0
M  V30 2940 C 275.212 0.36678 -3.38921 0
M  V30 2941 H 276.405 -1.305 -2.70018 0
M  V30 2942 H 273.958 -0.713707 -1.39054 0
M  V30 2943 H 274.693 1.25033 -2.99228 0
M  V30 2944 H 274.478 -0.267204 -3.91188 0
M  V30 2945 H 275.968 0.701567 -4.11665 0
M  V30 2946 N 276.405 1.4127 -0.698611 0
M  V30 2947 C 277.315 2.34573 -0.0357891 0
M  V30 2948 C 278.331 1.56393 0.762701 0
M  V30 2949 O 279.507 1.8886 0.699564 0
M  V30 2950 C 276.572 3.35159 0.887089 0
M  V30 2951 C 275.633 4.29225 0.0804634 0
M  V30 2952 C 274.866 5.25006 0.959387 0
M  V30 2953 O 275.089 5.26314 2.19886 0
M  V30 2954 O 274.023 6.00519 0.407439 0
M  V30 2955 H 277.849 2.92838 -0.804957 0
M  V30 2956 H 275.434 1.42175 -0.458966 0
M  V30 2957 H 277.316 3.9689 1.41621 0
M  V30 2958 H 275.991 2.79333 1.6357 0
M  V30 2959 H 274.898 3.70833 -0.493328 0
M  V30 2960 H 276.231 4.88157 -0.629547 0
M  V30 2961 N 277.883 0.443576 1.51229 0
M  V30 2962 C 278.793 -0.370721 2.31652 0
M  V30 2963 C 279.809 -1.02186 1.40833 0
M  V30 2964 O 280.985 -1.01586 1.73903 0
M  V30 2965 C 278.05 -1.45376 3.14749 0
M  V30 2966 C 277.111 -0.822099 4.21355 0
M  V30 2967 C 276.344 -1.85353 5.0048 0
M  V30 2968 O 276.567 -3.07656 4.80316 0
M  V30 2969 O 275.501 -1.4406 5.84406 0
M  V30 2970 H 279.327 0.286002 3.0235 0
M  V30 2971 H 276.912 0.20598 1.47973 0
M  V30 2972 H 278.794 -2.08173 3.66391 0
M  V30 2973 H 277.469 -2.09445 2.46809 0
M  V30 2974 H 276.376 -0.155909 3.73775 0
M  V30 2975 H 277.709 -0.224797 4.91686 0
M  V30 2976 N 279.361 -1.56624 0.175154 0
M  V30 2977 C 280.609 -1.96609 -0.467885 0
M  V30 2978 C 280.93 -1.06238 -1.63519 0
M  V30 2979 O 280.2 -0.129523 -1.95471 0
M  V30 2980 H 278.78 -0.726008 -0.175845 0
M  V30 2981 H 281.442 -1.93195 0.257234 0
M  V30 2982 H 280.538 -3.00989 -0.825342 0
M  V30 2983 N 280.839 0.0985539 -1.57292 0
M  V30 2984 C 282.069 0.815135 -1.8984 0
M  V30 2985 C 282.477 1.7297 -0.766679 0
M  V30 2986 O 281.82 1.81698 0.270483 0
M  V30 2987 C 281.882 1.6842 -3.17608 0
M  V30 2988 C 281.546 0.94182 -4.4719 0
M  V30 2989 C 282.543 0.273212 -5.19182 0
M  V30 2990 C 280.228 0.916927 -4.9386 0
M  V30 2991 C 282.222 -0.410361 -6.36078 0
M  V30 2992 C 279.909 0.229567 -6.10669 0
M  V30 2993 C 280.907 -0.432902 -6.81627 0
M  V30 2994 O 280.595 -1.10925 -7.9621 0
M  V30 2995 H 280.327 0.238501 -0.632529 0
M  V30 2996 H 282.881 0.0812659 -2.05239 0
M  V30 2997 H 281.111 2.46022 -2.98345 0
M  V30 2998 H 282.8 2.27704 -3.36015 0
M  V30 2999 H 283.566 0.283927 -4.84168 0
M  V30 3000 H 279.445 1.42201 -4.3852 0
M  V30 3001 H 282.989 -0.928013 -6.914 0
M  V30 3002 H 278.886 0.216686 -6.45136 0
M  V30 3003 H 279.654 -1.01579 -8.12172 0
M  V30 3004 N 282.317 1.53212 0.369288 0
M  V30 3005 C 283.728 1.60943 0.946276 0
M  V30 3006 C 284.079 0.47452 1.90375 0
M  V30 3007 O 283.204 -0.399597 2.12679 0
M  V30 3008 C 283.799 2.91715 1.72302 0
M  V30 3009 C 282.358 3.01792 2.24941 0
M  V30 3010 C 281.505 2.56211 1.06072 0
M  V30 3011 H 284.456 1.58007 0.148198 0
M  V30 3012 H 284.477 2.79309 2.58393 0
M  V30 3013 H 283.989 3.74295 1.0259 0
M  V30 3014 H 282.09 2.23791 2.97906 0
M  V30 3015 H 282.203 4.06803 2.53077 0
M  V30 3016 H 280.567 2.10998 1.4266 0
M  V30 3017 H 281.35 3.41206 0.378639 0
M  V30 3018 N 283.795 -0.628877 1.44509 0
M  V30 3019 C 285.02 -1.42048 1.5112 0
M  V30 3020 C 285.445 -1.87594 0.137818 0
M  V30 3021 O 284.803 -1.58873 -0.873437 0
M  V30 3022 C 284.851 -2.61541 2.48251 0
M  V30 3023 O 283.955 -3.61453 1.98559 0
M  V30 3024 H 283.296 -0.424942 0.510216 0
M  V30 3025 H 285.826 -0.767374 1.89664 0
M  V30 3026 H 285.836 -3.09057 2.66361 0
M  V30 3027 H 284.511 -2.27736 3.48007 0
M  V30 3028 H 283.088 -3.20731 1.90227 0
M  V30 3029 N 285.273 -1.31445 -0.869486 0
M  V30 3030 C 286.223 -1.15731 -1.96444 0
M  V30 3031 C 287.207 -0.0681855 -1.60755 0
M  V30 3032 O 288.399 -0.293154 -1.74555 0
M  V30 3033 C 285.528 -0.867255 -3.32165 0
M  V30 3034 C 284.614 -1.99738 -3.74119 0
M  V30 3035 N 285.005 -3.24447 -3.88031 0
M  V30 3036 C 283.303 -1.89723 -4.03635 0
M  V30 3037 C 284.004 -3.98374 -4.23879 0
M  V30 3038 N 282.98 -3.26547 -4.3459 0
M  V30 3039 H 286.782 -2.10296 -2.05312 0
M  V30 3040 H 284.296 -1.23009 -1.06031 0
M  V30 3041 H 286.293 -0.735668 -4.10358 0
M  V30 3042 H 284.953 0.0701614 -3.24624 0
M  V30 3043 H 285.964 -3.59557 -3.72746 0
M  V30 3044 H 282.641 -1.03449 -4.04481 0
M  V30 3045 H 284.031 -5.05844 -4.42235 0
M  V30 3046 N 286.751 1.08385 -1.14413 0
M  V30 3047 C 288.167 1.32844 -0.884563 0
M  V30 3048 C 288.367 1.95841 0.474181 0
M  V30 3049 O 287.423 2.21158 1.21842 0
M  V30 3050 C 288.736 2.22978 -2.01745 0
M  V30 3051 C 290.284 2.36458 -2.05077 0
M  V30 3052 C 290.759 3.29934 -3.1766 0
M  V30 3053 N 292.25 3.37511 -3.17239 0
M  V30 3054 C 292.985 4.09871 -4.0099 0
M  V30 3055 N 292.481 4.84936 -4.94781 0
M  V30 3056 N 294.274 4.05704 -3.89051 0
M  V30 3057 H 286.425 0.658756 -2.01926 0
M  V30 3058 H 288.688 0.352821 -0.879899 0
M  V30 3059 H 288.394 1.83934 -2.99769 0
M  V30 3060 H 288.268 3.23441 -1.94077 0
M  V30 3061 H 290.655 2.7476 -1.0766 0
M  V30 3062 H 290.736 1.35736 -2.16816 0
M  V30 3063 H 290.38 2.92352 -4.15322 0
M  V30 3064 H 290.31 4.30584 -3.03158 0
M  V30 3065 H 292.801 2.83996 -2.49308 0
M  V30 3066 H 293.114 5.37612 -5.55151 0
M  V30 3067 H 291.459 4.83988 -4.98779 0
M  V30 3068 H 294.65 3.46167 -3.15097 0
M  V30 3069 H 294.823 4.61834 -4.54547 0
M  V30 3070 N 288.23 0.939286 1.26551 0
M  V30 3071 C 289.16 0.465044 2.28822 0
M  V30 3072 C 290.141 -0.480692 1.63167 0
M  V30 3073 O 291.326 -0.382955 1.90387 0
M  V30 3074 C 288.456 -0.27234 3.46231 0
M  V30 3075 C 287.41 0.58666 4.2396 0
M  V30 3076 C 286.736 -0.280573 5.33963 0
M  V30 3077 C 288.036 1.85704 4.88171 0
M  V30 3078 H 289.73 1.31979 2.68741 0
M  V30 3079 H 287.276 0.636061 1.29191 0
M  V30 3080 H 289.229 -0.615133 4.16886 0
M  V30 3081 H 287.953 -1.16121 3.0526 0
M  V30 3082 H 286.612 0.91232 3.55067 0
M  V30 3083 H 286.26 -1.16874 4.89234 0
M  V30 3084 H 285.96 0.29076 5.8688 0
M  V30 3085 H 287.484 -0.618678 6.07458 0
M  V30 3086 H 288.898 1.58161 5.51052 0
M  V30 3087 H 287.295 2.37279 5.51197 0
M  V30 3088 H 288.365 2.56957 4.11219 0
M  V30 3089 N 289.708 -1.40897 0.706093 0
M  V30 3090 C 291.119 -1.84023 0.315052 0
M  V30 3091 C 291.47 -1.5906 -1.14866 0
M  V30 3092 O 290.595 -1.06651 -1.88293 0
M  V30 3093 C 291.19 -3.34055 0.565038 0
M  V30 3094 C 289.749 -3.7571 0.227806 0
M  V30 3095 C 288.896 -2.64204 0.842122 0
M  V30 3096 H 291.847 -1.303 0.905963 0
M  V30 3097 H 291.868 -3.80107 -0.172843 0
M  V30 3098 H 291.38 -3.52192 1.63042 0
M  V30 3099 H 289.481 -3.63172 -0.832895 0
M  V30 3100 H 289.594 -4.74103 0.690174 0
M  V30 3101 H 287.958 -2.53255 0.270893 0
M  V30 3102 H 288.741 -2.85155 1.91158 0
M  V30 3103 N 291.186 -0.45159 -1.50991 0
M  V30 3104 C 292.116 0.342898 -2.30969 0
M  V30 3105 C 293.097 1.00815 -1.37005 0
M  V30 3106 O 294.282 1.00907 -1.65926 0
M  V30 3107 C 291.412 1.43637 -3.16205 0
M  V30 3108 C 290.366 0.893818 -4.18563 0
M  V30 3109 C 289.692 2.08411 -4.92411 0
M  V30 3110 C 290.992 -0.0815568 -5.22236 0
M  V30 3111 H 292.686 -0.324556 -2.97636 0
M  V30 3112 H 290.232 -0.157531 -1.43136 0
M  V30 3113 H 292.185 1.9995 -3.70942 0
M  V30 3114 H 290.909 2.13232 -2.47386 0
M  V30 3115 H 289.568 0.352798 -3.64898 0
M  V30 3116 H 289.216 2.76658 -4.20082 0
M  V30 3117 H 288.916 1.72741 -5.61636 0
M  V30 3118 H 290.44 2.65251 -5.49976 0
M  V30 3119 H 291.854 0.391742 -5.7196 0
M  V30 3120 H 290.251 -0.351551 -5.99069 0
M  V30 3121 H 291.321 -1.01374 -4.74185 0
M  V30 3122 N 292.664 1.56529 -0.183458 0
M  V30 3123 C 293.574 2.22144 0.754272 0
M  V30 3124 C 294.59 1.21684 1.24374 0
M  V30 3125 O 295.766 1.54385 1.29333 0
M  V30 3126 C 292.831 2.85884 1.96141 0
M  V30 3127 C 291.892 4.01579 1.51765 0
M  V30 3128 C 291.125 4.6227 2.66725 0
M  V30 3129 O 291.348 4.21865 3.83909 0
M  V30 3130 O 290.282 5.51936 2.40104 0
M  V30 3131 H 294.108 3.02861 0.225527 0
M  V30 3132 H 291.693 1.49331 0.0453032 0
M  V30 3133 H 293.575 3.26253 2.66715 0
M  V30 3134 H 292.25 2.08154 2.47899 0
M  V30 3135 H 291.157 3.65856 0.781049 0
M  V30 3136 H 292.49 4.80938 1.04686 0
M  V30 3137 N 294.142 -0.090211 1.57342 0
M  V30 3138 C 295.558 -0.444547 1.53284 0
M  V30 3139 C 295.758 -1.80238 0.900914 0
M  V30 3140 O 294.814 -2.4759 0.495513 0
M  V30 3141 C 296.127 -0.402543 2.97993 0
M  V30 3142 C 297.675 -0.48405 3.09234 0
M  V30 3143 C 298.15 -0.472144 4.5556 0
M  V30 3144 N 299.641 -0.532757 4.60126 0
M  V30 3145 C 300.376 -0.545462 5.708 0
M  V30 3146 N 299.872 -0.514082 6.9089 0
M  V30 3147 N 301.665 -0.59064 5.58988 0
M  V30 3148 H 293.816 0.799121 1.96794 0
M  V30 3149 H 296.079 0.297965 0.899956 0
M  V30 3150 H 295.785 0.528106 3.47712 0
M  V30 3151 H 295.659 -1.21969 3.56936 0
M  V30 3152 H 298.046 -1.40512 2.595 0
M  V30 3153 H 298.127 0.361328 2.53235 0
M  V30 3154 H 297.771 0.445 5.05947 0
M  V30 3155 H 297.701 -1.3348 5.09402 0
M  V30 3156 H 300.192 -0.562006 3.73698 0
M  V30 3157 H 300.505 -0.527195 7.71 0
M  V30 3158 H 298.85 -0.481054 6.93333 0
M  V30 3159 H 302.041 -0.61272 4.64073 0
M  V30 3160 H 302.214 -0.597073 6.45243 0
M  V30 3161 N 295.62 -1.53406 -0.361157 0
M  V30 3162 C 296.866 -1.70054 -1.10496 0
M  V30 3163 C 297.199 -0.453278 -1.88836 0
M  V30 3164 O 296.474 0.5495 -1.86576 0
M  V30 3165 C 296.757 -2.95317 -2.06058 0
M  V30 3166 C 296.61 -4.3021 -1.31298 0
M  V30 3167 C 297.929 -3.16193 -3.06121 0
M  V30 3168 H 295.048 -0.618799 -0.400321 0
M  V30 3169 H 297.69 -1.86052 -0.385318 0
M  V30 3170 H 295.84 -2.81809 -2.67425 0
M  V30 3171 H 297.512 -4.55538 -0.726807 0
M  V30 3172 H 295.755 -4.29421 -0.614853 0
M  V30 3173 H 296.426 -5.14 -2.01265 0
M  V30 3174 H 298.902 -3.28916 -2.5486 0
M  V30 3175 H 297.778 -4.05266 -3.70204 0
M  V30 3176 H 298.039 -2.31676 -3.76535 0
M  V30 3177 N 297.098 0.621204 -1.44841 0
M  V30 3178 C 298.344 1.3826 -1.48365 0
M  V30 3179 C 298.677 1.93831 -0.119624 0
M  V30 3180 O 297.952 1.74251 0.864111 0
M  V30 3181 C 298.235 2.54058 -2.55199 0
M  V30 3182 C 298.088 2.03772 -4.00995 0
M  V30 3183 C 299.407 3.56225 -2.58442 0
M  V30 3184 H 296.526 0.501374 -0.540179 0
M  V30 3185 H 299.168 0.7015 -1.76576 0
M  V30 3186 H 297.318 3.12162 -2.31274 0
M  V30 3187 H 298.99 1.50423 -4.36086 0
M  V30 3188 H 297.233 1.34876 -4.12299 0
M  V30 3189 H 297.904 2.87185 -4.71411 0
M  V30 3190 H 300.38 3.07939 -2.79844 0
M  V30 3191 H 299.256 4.34756 -3.3508 0
M  V30 3192 H 299.517 4.10949 -1.63013 0
M  V30 3193 N 298.576 1.31904 0.862503 0
M  V30 3194 C 299.506 1.22782 1.98612 0
M  V30 3195 C 300.487 0.113362 1.69722 0
M  V30 3196 O 301.672 0.299218 1.91881 0
M  V30 3197 C 298.802 0.942058 3.34279 0
M  V30 3198 C 297.756 2.0169 3.77499 0
M  V30 3199 C 297.082 1.58369 5.10709 0
M  V30 3200 C 298.382 3.43096 3.93805 0
M  V30 3201 H 300.076 2.16788 2.06502 0
M  V30 3202 H 297.622 1.04366 0.992154 0
M  V30 3203 H 299.575 0.864818 4.1243 0
M  V30 3204 H 298.299 -0.0336603 3.26583 0
M  V30 3205 H 296.958 2.08416 3.01593 0
M  V30 3206 H 296.606 0.595628 4.99461 0
M  V30 3207 H 296.306 2.30279 5.40597 0
M  V30 3208 H 297.83 1.52067 5.91361 0
M  V30 3209 H 299.244 3.39003 4.62331 0
M  V30 3210 H 297.641 4.13288 4.35101 0
M  V30 3211 H 298.711 3.83334 2.96957 0
M  V30 3212 N 300.054 -1.07777 1.14986 0
M  V30 3213 C 301.3 -1.80719 0.93339 0
M  V30 3214 C 301.655 -1.8484 -0.534019 0
M  V30 3215 O 300.948 -1.31795 -1.3907 0
M  V30 3216 C 301.142 -3.25495 1.47608 0
M  V30 3217 C 300.971 -3.3548 2.99472 0
M  V30 3218 C 299.741 -3.46293 3.6798 0
M  V30 3219 C 301.939 -3.26596 3.97291 0
M  V30 3220 N 299.921 -3.45136 5.07695 0
M  V30 3221 C 301.292 -3.32506 5.23297 0
M  V30 3222 C 303.347 -3.10376 3.89321 0
M  V30 3223 C 302.05 -3.23866 6.42264 0
M  V30 3224 C 304.076 -3.03069 5.07842 0
M  V30 3225 C 303.438 -3.09587 6.32721 0
M  V30 3226 H 299.537 -0.674814 0.395158 0
M  V30 3227 H 302.121 -1.28681 1.46114 0
M  V30 3228 H 300.292 -3.75963 0.975022 0
M  V30 3229 H 302.024 -3.86535 1.19887 0
M  V30 3230 H 298.779 -3.50456 3.18555 0
M  V30 3231 H 299.203 -3.48097 5.80653 0
M  V30 3232 H 303.845 -3.04194 2.93642 0
M  V30 3233 H 301.563 -3.28807 7.38181 0
M  V30 3234 H 305.149 -2.91629 5.03432 0
M  V30 3235 H 304.029 -3.0397 7.22891 0
M  V30 3236 N 301.532 -0.945985 -1.26051 0
M  V30 3237 C 302.948 -0.649045 -1.45807 0
M  V30 3238 C 303.148 0.796158 -1.85104 0
M  V30 3239 O 302.204 1.57233 -1.97571 0
M  V30 3240 C 303.517 -1.61458 -2.53677 0
M  V30 3241 C 305.065 -1.62481 -2.67524 0
M  V30 3242 C 305.54 -2.57776 -3.7857 0
M  V30 3243 N 307.031 -2.5609 -3.85969 0
M  V30 3244 C 307.766 -3.26508 -4.7136 0
M  V30 3245 N 307.262 -4.0637 -5.61102 0
M  V30 3246 N 309.055 -3.15437 -4.65248 0
M  V30 3247 H 301.206 -1.88005 -0.988328 0
M  V30 3248 H 303.469 -0.808198 -0.4955 0
M  V30 3249 H 303.175 -2.64644 -2.31638 0
M  V30 3250 H 303.049 -1.37036 -3.51427 0
M  V30 3251 H 305.436 -0.600167 -2.88933 0
M  V30 3252 H 305.517 -1.90958 -1.70202 0
M  V30 3253 H 305.161 -3.60361 -3.57913 0
M  V30 3254 H 305.091 -2.26587 -4.75359 0
M  V30 3255 H 307.582 -1.98105 -3.21812 0
M  V30 3256 H 307.895 -4.57042 -6.23164 0
M  V30 3257 H 306.24 -4.10469 -5.60839 0
M  V30 3258 H 309.431 -2.52525 -3.94143 0
M  V30 3259 H 309.604 -3.70584 -5.31575 0
M  V30 3260 O 303.049 1.37208 -0.85184 0
M  V30 3261 H 303.74 1.88528 -0.444614 0
M  V30 END ATOM
M  V30 BEGIN BOND
M  V30 END BOND
M  V30 END CTAB
M  END
$$$$
