drugbank_target|Q60393 Botulinum neurotoxin type G (DB13899)
 OpenBabel12092121133D

  0  0  0     0  0            999 V3000
M  V30 BEGIN CTAB
M  V30 COUNTS 20820 21053 0 0 0
M  V30 BEGIN ATOM
M  V30 1 H -0.908 1.98254 -0.117106 0
M  V30 2 N 0 1.576 0 0
M  V30 3 C 0.933 2.03868 1.02534 0
M  V30 4 C 1.911 0.928543 1.3348 0
M  V30 5 O 3.095 1.19667 1.45644 0
M  V30 6 C 0.222 2.43627 2.35294 0
M  V30 7 C -0.732 3.65373 2.2001 0
M  V30 8 S 0.101 5.13292 1.52614 0
M  V30 9 C 1.257 5.56322 2.86805 0
M  V30 10 H 1.49 2.90518 0.631377 0
M  V30 11 H -0.977 1.52953 0.210867 0
M  V30 12 H 0.981 2.67203 3.11629 0
M  V30 13 H -0.358 1.57376 2.7183 0
M  V30 14 H -1.165 3.90944 3.18086 0
M  V30 15 H -1.563 3.418 1.51819 0
M  V30 16 H 0.729 5.58782 3.83104 0
M  V30 17 H 1.672 6.56266 2.65933 0
M  V30 18 H 2.08 4.83886 2.90714 0
M  V30 19 N 1.4781 -0.272755 1.55222 0
M  V30 20 C 2.8891 -0.84378 1.66545 0
M  V30 21 C 3.2401 -1.87035 0.592641 0
M  V30 22 O 2.3651 -2.14761 -0.265818 0
M  V30 23 C 2.9601 -1.53723 3.01918 0
M  V30 24 C 1.5191 -2.05628 3.15268 0
M  V30 25 C 0.6661 -0.898424 2.62343 0
M  V30 26 H 3.6171 -0.0490998 1.58624 0
M  V30 27 H 3.6381 -2.40421 2.94921 0
M  V30 28 H 3.1501 -0.78983 3.79978 0
M  V30 29 H 1.2511 -2.83329 2.41983 0
M  V30 30 H 1.3641 -2.27142 4.21833 0
M  V30 31 H -0.2719 -1.29186 2.19506 0
M  V30 32 H 0.5111 -0.164528 3.42906 0
M  V30 33 N 2.9562 -1.48159 -0.537278 0
M  V30 34 C 4.2022 -1.56035 -1.29541 0
M  V30 35 C 4.5352 -0.230377 -1.92829 0
M  V30 36 O 3.8102 0.762952 -1.78911 0
M  V30 37 C 4.0932 -2.69323 -2.39034 0
M  V30 38 C 3.9462 -4.12002 -1.80485 0
M  V30 39 C 5.2652 -2.78408 -3.40847 0
M  V30 40 H 2.3842 -0.567992 -0.469632 0
M  V30 41 H 5.0262 -1.80302 -0.599277 0
M  V30 42 H 3.1762 -2.48763 -2.98412 0
M  V30 43 H 4.8482 -4.43981 -1.25215 0
M  V30 44 H 3.0912 -4.19344 -1.11055 0
M  V30 45 H 3.7622 -4.87077 -2.59731 0
M  V30 46 H 6.2382 -2.97012 -2.91416 0
M  V30 47 H 5.1142 -3.59416 -4.14863 0
M  V30 48 H 5.3752 -1.86269 -4.00944 0
M  V30 49 N 4.4343 0.785586 -1.36625 0
M  V30 50 C 5.3823 1.91978 -1.31329 0
M  V30 51 C 6.3763 1.68162 -0.204416 0
M  V30 52 O 7.5823 1.76122 -0.371645 0
M  V30 53 H 3.9573 0.631087 -0.408942 0
M  V30 54 H 5.9283 1.93562 -2.27104 0
M  V30 55 C 4.6773 3.29055 -1.12329 0
M  V30 56 H 4.0003 3.4795 -1.96903 0
M  V30 57 H 5.4403 4.08756 -1.12671 0
M  V30 58 C 3.8993 3.36461 0.171861 0
M  V30 59 O 4.4293 3.84576 1.16035 0
M  V30 60 N 2.6353 2.89782 0.217846 0
M  V30 61 H 2.1823 2.50819 -0.587183 0
M  V30 62 H 2.1403 2.95119 1.08408 0
M  V30 63 N 5.9124 1.20967 1.01018 0
M  V30 64 C 7.1614 1.01796 1.74128 0
M  V30 65 C 7.4744 -0.449691 1.90361 0
M  V30 66 O 8.6804 -0.76068 2.60626 0
M  V30 67 C 7.1364 1.7727 3.13215 0
M  V30 68 C 6.7444 3.28171 3.04972 0
M  V30 69 C 8.4884 1.66489 3.90489 0
M  V30 70 C 6.3954 3.96156 4.39107 0
M  V30 71 H 5.3254 0.377276 0.652824 0
M  V30 72 H 7.9764 1.44651 1.12909 0
M  V30 73 H 6.3584 1.27205 3.75013 0
M  V30 74 H 7.5324 3.85499 2.52443 0
M  V30 75 H 5.8474 3.39437 2.41188 0
M  V30 76 H 8.4444 2.14617 4.89738 0
M  V30 77 H 8.7874 0.6222 4.11624 0
M  V30 78 H 9.3204 2.14003 3.35332 0
M  V30 79 H 6.0594 5.00604 4.23174 0
M  V30 80 H 5.5794 3.43617 4.91617 0
M  V30 81 H 7.2584 4.00774 5.07926 0
M  V30 82 N 7.3905 -1.2043 1.01659 0
M  V30 83 C 8.3375 -2.23215 0.586822 0
M  V30 84 C 9.3075 -1.61382 -0.393085 0
M  V30 85 O 10.4925 -1.88544 -0.292525 0
M  V30 86 C 7.6325 -3.45032 -0.0687464 0
M  V30 87 C 6.7455 -4.21296 0.955724 0
M  V30 88 C 5.8805 -5.30507 0.271208 0
M  V30 89 C 4.9195 -5.98515 1.28244 0
M  V30 90 N 4.0565 -6.99316 0.62459 0
M  V30 91 H 8.8965 -2.59336 1.46796 0
M  V30 92 H 6.4335 -1.27431 0.734836 0
M  V30 93 H 8.3915 -4.1459 -0.465965 0
M  V30 94 H 7.0215 -3.09604 -0.913529 0
M  V30 95 H 6.0735 -3.50803 1.4711 0
M  V30 96 H 7.3855 -4.6803 1.72479 0
M  V30 97 H 6.5395 -6.06428 -0.18151 0
M  V30 98 H 5.2785 -4.8481 -0.530163 0
M  V30 99 H 4.2835 -5.21355 1.74554 0
M  V30 100 H 5.5085 -6.46298 2.08509 0
M  V30 101 H 3.4545 -6.55812 -0.156914 0
M  V30 102 H 3.3715 -7.44178 1.33172 0
M  V30 103 H 4.6395 -7.79255 0.195462 0
M  V30 104 N 8.8686 -0.792821 -1.36206 0
M  V30 105 C 9.8316 -0.199459 -2.2833 0
M  V30 106 C 10.8316 0.605189 -1.48977 0
M  V30 107 O 12.0216 0.425685 -1.68919 0
M  V30 108 N 10.3467 1.47872 -0.545128 0
M  V30 109 C 11.5937 2.02493 -0.0165858 0
M  V30 110 C 11.9217 1.42073 1.32836 0
M  V30 111 O 11.1767 0.561459 1.87473 0
M  V30 112 C 11.4757 3.57131 0.13867 0
M  V30 113 C 11.1417 4.36411 -1.13384 0
M  V30 114 C 9.8037 4.57792 -1.48256 0
M  V30 115 C 12.1557 4.82223 -1.97764 0
M  V30 116 C 9.4837 5.22233 -2.67376 0
M  V30 117 C 11.8357 5.47977 -3.16076 0
M  V30 118 C 10.4997 5.67593 -3.51275 0
M  V30 119 H 9.7697 0.740975 -0.00606918 0
M  V30 120 H 12.4167 1.77683 -0.714207 0
M  V30 121 H 10.7217 3.80865 0.919172 0
M  V30 122 H 12.4187 3.97031 0.562782 0
M  V30 123 H 9.0087 4.2004 -0.852297 0
M  V30 124 H 13.1927 4.65493 -1.72132 0
M  V30 125 H 8.4487 5.35616 -2.94831 0
M  V30 126 H 12.6227 5.8244 -3.81755 0
M  V30 127 H 10.2497 6.17298 -4.43675 0
M  V30 128 N 11.8248 0.280983 1.55075 0
M  V30 129 C 12.7728 -0.619864 2.24188 0
M  V30 130 C 13.7668 -1.15315 1.24092 0
M  V30 131 O 14.9728 -1.1061 1.42005 0
M  V30 132 H 11.3478 -0.218459 0.719569 0
M  V30 133 H 13.3188 -0.0141831 2.98397 0
M  V30 134 C 12.0678 -1.7899 2.98091 0
M  V30 135 H 11.3908 -1.38874 3.74905 0
M  V30 136 H 12.8308 -2.39672 3.49762 0
M  V30 137 C 11.2898 -2.68192 2.03899 0
M  V30 138 O 11.8198 -3.6872 1.594 0
M  V30 139 N 10.0258 -2.35488 1.70275 0
M  V30 140 H 9.5728 -1.53787 2.06658 0
M  V30 141 H 9.5308 -2.95442 1.07524 0
M  V30 142 N 13.3029 -1.57598 0.00835791 0
M  V30 143 C 14.5329 -1.94931 -0.684496 0
M  V30 144 C 14.9409 -0.882233 -1.67372 0
M  V30 145 O 14.2839 0.146621 -1.83114 0
M  V30 146 C 14.3459 -3.283 -1.4649 0
M  V30 147 C 14.0099 -4.52548 -0.63634 0
M  V30 148 C 15.0069 -5.19839 0.0795586 0
M  V30 149 C 12.6919 -4.98942 -0.579849 0
M  V30 150 C 14.6859 -6.3183 0.840843 0
M  V30 151 C 12.3729 -6.10819 0.185155 0
M  V30 152 C 13.3709 -6.77121 0.894227 0
M  V30 153 O 13.0589 -7.86853 1.64673 0
M  V30 154 H 12.7909 -0.647249 -0.19505 0
M  V30 155 H 15.3449 -2.05318 0.0581272 0
M  V30 156 H 13.5749 -3.14345 -2.2522 0
M  V30 157 H 15.2639 -3.50685 -2.04389 0
M  V30 158 H 16.0299 -4.84979 0.0451202 0
M  V30 159 H 11.9089 -4.47155 -1.1213 0
M  V30 160 H 15.4529 -6.83513 1.39483 0
M  V30 161 H 11.3499 -6.4512 0.221384 0
M  V30 162 H 12.1179 -8.03412 1.56432 0
M  V30 163 N 14.781 0.264519 -1.55364 0
M  V30 164 C 15.729 1.34702 -1.89626 0
M  V30 165 C 16.723 1.50712 -0.773459 0
M  V30 166 O 17.929 1.52395 -0.957897 0
M  V30 167 H 14.304 0.450682 -0.601988 0
M  V30 168 H 16.275 1.0306 -2.80038 0
M  V30 169 C 15.024 2.6989 -2.19214 0
M  V30 170 H 14.347 2.58365 -3.05103 0
M  V30 171 H 15.787 3.44553 -2.47102 0
M  V30 172 C 14.246 3.21637 -1.00254 0
M  V30 173 O 14.776 4.00973 -0.241501 0
M  V30 174 N 12.982 2.7943 -0.797938 0
M  V30 175 H 12.529 2.15026 -1.4185 0
M  V30 176 H 12.487 3.144 -0.00363422 0
M  V30 177 N 16.2591 1.48442 0.529413 0
M  V30 178 C 17.5361 1.46978 1.29062 0
M  V30 179 C 17.9161 0.181769 2.10316 0
M  V30 180 O 17.2641 -0.836481 2.12639 0
M  V30 181 C 17.4741 2.7321 2.17157 0
M  V30 182 C 18.8221 3.21562 2.77278 0
M  V30 183 O 19.8461 2.74131 2.27444 0
M  V30 184 O 18.7051 4.04094 3.67927 0
M  V30 185 H 15.7991 0.587003 0.582543 0
M  V30 186 H 18.3451 1.60676 0.546021 0
M  V30 187 H 17.1171 3.58465 1.56903 0
M  V30 188 H 16.7401 2.62235 2.98862 0
M  V30 189 N 17.7372 -0.778329 1.37039 0
M  V30 190 C 19.1482 -1.35421 1.28523 0
M  V30 191 C 19.4992 -1.96075 -0.0700901 0
M  V30 192 O 18.6242 -1.93352 -0.971801 0
M  V30 193 C 19.2192 -2.46211 2.32735 0
M  V30 194 C 17.7782 -2.99585 2.27873 0
M  V30 195 C 16.9252 -1.72748 2.16918 0
M  V30 196 H 19.8762 -0.5791 1.47757 0
M  V30 197 H 19.8972 -3.2552 1.9702 0
M  V30 198 H 19.4092 -2.02036 3.31365 0
M  V30 199 H 17.5102 -3.48152 1.32745 0
M  V30 200 H 17.6232 -3.55646 3.21018 0
M  V30 201 H 15.9872 -1.95416 1.63354 0
M  V30 202 H 16.7702 -1.30686 3.17452 0
M  V30 203 N 19.2153 -1.21501 -1.00376 0
M  V30 204 C 20.4643 -1.02718 -1.73586 0
M  V30 205 C 20.7773 0.439589 -1.90596 0
M  V30 206 O 21.9833 0.746848 -2.61026 0
M  V30 207 C 20.4393 -1.78929 -3.1227 0
M  V30 208 C 20.0473 -3.29783 -3.03228 0
M  V30 209 C 21.7913 -1.68557 -3.89601 0
M  V30 210 C 19.6983 -3.98479 -4.36999 0
M  V30 211 H 18.6283 -0.380733 -0.650814 0
M  V30 212 H 21.2793 -1.45248 -1.1214 0
M  V30 213 H 19.6613 -1.29192 -3.74333 0
M  V30 214 H 20.8353 -3.86832 -2.50395 0
M  V30 215 H 19.1503 -3.40711 -2.39385 0
M  V30 216 H 21.7473 -2.17211 -4.88593 0
M  V30 217 H 22.0903 -0.644021 -4.11288 0
M  V30 218 H 22.6233 -2.15778 -3.34193 0
M  V30 219 H 19.3623 -5.02841 -4.20513 0
M  V30 220 H 18.8823 -3.46219 -4.89788 0
M  V30 221 H 20.5613 -4.03462 -5.05794 0
M  V30 222 N 20.6934 1.19889 -1.02296 0
M  V30 223 C 21.6414 2.24938 -0.592081 0
M  V30 224 C 22.6354 1.65257 0.372357 0
M  V30 225 O 23.8414 1.78371 0.241583 0
M  V30 226 H 20.2164 0.731787 -0.173182 0
M  V30 227 H 22.1874 2.58603 -1.48885 0
M  V30 228 C 20.9364 3.47668 0.047351 0
M  V30 229 H 20.2594 3.93875 -0.685772 0
M  V30 230 H 21.6994 4.22852 0.311862 0
M  V30 231 C 20.1584 3.11136 1.29212 0
M  V30 232 O 20.6884 3.2325 2.38479 0
M  V30 233 N 18.8944 2.65625 1.17863 0
M  V30 234 H 18.4414 2.55968 0.289493 0
M  V30 235 H 18.3994 2.41553 2.01245 0
M  V30 236 N 22.1715 0.800033 1.35784 0
M  V30 237 C 23.1195 0.193851 2.31791 0
M  V30 238 C 24.1135 -0.652744 1.56319 0
M  V30 239 O 25.3195 -0.546641 1.71499 0
M  V30 240 H 21.6945 0.04392 0.750716 0
M  V30 241 H 23.6655 1.01883 2.80468 0
M  V30 242 C 22.4145 -0.648338 3.41602 0
M  V30 243 H 21.7375 -0.00624665 3.998 0
M  V30 244 H 23.1775 -1.03898 4.11073 0
M  V30 245 C 21.6365 -1.8111 2.84079 0
M  V30 246 O 22.1665 -2.90825 2.77099 0
M  V30 247 N 20.3725 -1.62056 2.41218 0
M  V30 248 H 19.9195 -0.728123 2.47095 0
M  V30 249 H 19.8775 -2.40013 2.03079 0
M  V30 250 N 23.6496 -1.47581 0.552962 0
M  V30 251 C 24.9266 -1.95563 -0.0381515 0
M  V30 252 C 25.3066 -1.49552 -1.48988 0
M  V30 253 O 24.6546 -0.732414 -2.16444 0
M  V30 254 C 24.8646 -3.48848 0.102919 0
M  V30 255 C 26.2126 -4.24577 -0.0446082 0
M  V30 256 O 27.2366 -3.56187 0.0302548 0
M  V30 257 O 26.0956 -5.46116 -0.204923 0
M  V30 258 H 23.1896 -0.824321 -0.0665067 0
M  V30 259 H 25.7356 -1.58001 0.619186 0
M  V30 260 H 24.5076 -3.75129 1.11328 0
M  V30 261 H 24.1306 -3.93165 -0.592224 0
M  V30 262 N 25.1277 -0.289203 -1.54924 0
M  V30 263 C 26.4047 0.376032 -1.91951 0
M  V30 264 C 26.7847 1.72622 -1.21511 0
M  V30 265 O 26.1327 2.25853 -0.346767 0
M  V30 266 C 26.3427 0.502378 -3.45365 0
M  V30 267 C 27.6907 0.778741 -4.17398 0
M  V30 268 O 28.7147 0.586647 -3.51336 0
M  V30 269 O 27.5737 1.14698 -5.34328 0
M  V30 270 H 24.6677 0.208167 -0.800372 0
M  V30 271 H 27.2137 -0.336394 -1.66332 0
M  V30 272 H 25.9857 -0.447255 -3.88736 0
M  V30 273 H 25.6087 1.26373 -3.76982 0
M  V30 274 N 26.6058 1.57591 -0.0167156 0
M  V30 275 C 27.8548 1.90461 0.663877 0
M  V30 276 C 28.1678 0.893515 1.73999 0
M  V30 277 O 29.3738 1.11302 2.47637 0
M  V30 278 C 27.8298 3.38155 1.23204 0
M  V30 279 C 27.4378 4.47597 0.189866 0
M  V30 280 C 29.1818 3.80111 1.88986 0
M  V30 281 C 27.0888 5.86379 0.768964 0
M  V30 282 H 26.0188 0.710738 0.251729 0
M  V30 283 H 28.6698 1.83326 -0.0799926 0
M  V30 284 H 27.0518 3.40182 2.02712 0
M  V30 285 H 28.2258 4.57112 -0.581846 0
M  V30 286 H 26.5408 4.14766 -0.368475 0
M  V30 287 H 29.1378 4.81145 2.33247 0
M  V30 288 H 29.4808 3.14511 2.72743 0
M  V30 289 H 30.0138 3.80454 1.16187 0
M  V30 290 H 26.7528 6.55493 -0.0301957 0
M  V30 291 H 26.2728 5.80496 1.50945 0
M  V30 292 H 27.9518 6.34563 1.26251 0
M  V30 293 N 28.0839 -0.256276 1.55502 0
M  V30 294 C 29.3329 -0.983486 1.76098 0
M  V30 295 C 29.6459 -1.86837 0.578896 0
M  V30 296 O 30.8519 -2.63163 0.667648 0
M  V30 297 C 29.3079 -1.79868 3.1173 0
M  V30 298 C 28.9159 -0.961648 4.37557 0
M  V30 299 C 30.6599 -2.51919 3.41668 0
M  V30 300 C 28.5669 -1.77219 5.64223 0
M  V30 301 H 27.4969 -0.370936 0.656447 0
M  V30 302 H 30.1479 -0.238492 1.81944 0
M  V30 303 H 28.5299 -2.58527 2.99966 0
M  V30 304 H 29.7039 -0.218048 4.60284 0
M  V30 305 H 28.0189 -0.354913 4.14885 0
M  V30 306 H 30.6159 -3.12998 4.33516 0
M  V30 307 H 30.9589 -3.23059 2.62562 0
M  V30 308 H 31.4919 -1.80278 3.54605 0
M  V30 309 H 28.2309 -1.10471 6.46124 0
M  V30 310 H 27.7509 -2.49132 5.45613 0
M  V30 311 H 29.4299 -2.34169 6.03137 0
M  V30 312 N 29.562 -1.4872 -0.521534 0
M  V30 313 C 30.495 -1.58451 -1.64221 0
M  V30 314 C 31.473 -0.434513 -1.56687 0
M  V30 315 O 32.657 -0.647275 -1.77038 0
M  V30 316 C 29.784 -1.52037 -3.02659 0
M  V30 317 C 28.83 -2.71981 -3.28525 0
M  V30 318 S 29.663 -4.33869 -3.13876 0
M  V30 319 C 30.819 -4.30067 -4.54745 0
M  V30 320 H 31.052 -2.53256 -1.55719 0
M  V30 321 H 28.585 -1.37358 -0.705143 0
M  V30 322 H 30.543 -1.49023 -3.82495 0
M  V30 323 H 29.204 -0.585541 -3.08594 0
M  V30 324 H 28.397 -2.63656 -4.29536 0
M  V30 325 H 27.999 -2.72302 -2.56374 0
M  V30 326 H 30.291 -4.00521 -5.46433 0
M  V30 327 H 31.234 -5.31287 -4.68123 0
M  V30 328 H 31.642 -3.60419 -4.34463 0
M  V30 329 N 31.0401 0.771051 -1.3745 0
M  V30 330 C 31.9731 1.89166 -1.27638 0
M  V30 331 C 32.9511 1.61842 -0.156782 0
M  V30 332 O 34.1351 1.85569 -0.331111 0
M  V30 333 C 31.2621 3.24405 -0.973621 0
M  V30 334 C 30.3081 3.70638 -2.1102 0
M  V30 335 S 31.1411 3.84228 -3.73 0
M  V30 336 C 32.2971 5.22313 -3.44876 0
M  V30 337 H 32.5301 1.972 -2.22485 0
M  V30 338 H 30.0631 0.932224 -1.23081 0
M  V30 339 H 32.0211 4.02514 -0.805766 0
M  V30 340 H 30.6821 3.14071 -0.0426279 0
M  V30 341 H 29.8751 4.68685 -1.85338 0
M  V30 342 H 29.4771 2.99632 -2.23822 0
M  V30 343 H 31.7691 6.07505 -2.99908 0
M  V30 344 H 32.7121 5.53008 -4.42253 0
M  V30 345 H 33.1201 4.90284 -2.79789 0
M  V30 346 N 32.5182 1.22032 0.997298 0
M  V30 347 C 33.4282 1.00271 2.12092 0
M  V30 348 C 34.4442 -0.047621 1.73935 0
M  V30 349 O 35.6202 0.144136 2.00884 0
M  V30 350 C 32.6852 0.578449 3.4184 0
M  V30 351 C 31.7462 1.70189 3.94125 0
M  V30 352 C 30.9792 1.29778 5.17681 0
M  V30 353 O 31.2022 0.174676 5.70132 0
M  V30 354 O 30.1362 2.11261 5.63607 0
M  V30 355 H 33.9622 1.94398 2.3333 0
M  V30 356 H 31.5472 1.00587 1.10465 0
M  V30 357 H 33.4292 0.351998 4.19927 0
M  V30 358 H 32.1042 -0.334019 3.21972 0
M  V30 359 H 31.0112 1.98282 3.1723 0
M  V30 360 H 32.3442 2.59206 4.18417 0
M  V30 361 N 33.9963 -1.19345 1.0293 0
M  V30 362 C 35.4073 -1.70725 0.755633 0
M  V30 363 C 35.7583 -1.82326 -0.724676 0
M  V30 364 O 34.8833 -1.49471 -1.56484 0
M  V30 365 C 35.4783 -3.10084 1.36503 0
M  V30 366 C 34.0373 -3.58723 1.13994 0
M  V30 367 C 33.1843 -2.35577 1.46283 0
M  V30 368 H 36.1353 -1.0418 1.19718 0
M  V30 369 H 36.1563 -3.72787 0.762217 0
M  V30 370 H 35.6683 -3.01609 2.44241 0
M  V30 371 H 33.7693 -3.72512 0.0807901 0
M  V30 372 H 33.8823 -4.42816 1.82894 0
M  V30 373 H 32.2463 -2.38935 0.88217 0
M  V30 374 H 33.0293 -2.29731 2.55105 0
M  V30 375 N 35.4744 -0.807222 -1.35358 0
M  V30 376 C 36.7214 -0.387888 -1.9875 0
M  V30 377 C 37.0494 1.04509 -1.64037 0
M  V30 378 O 36.3044 1.73986 -0.895946 0
M  V30 379 C 36.6034 -0.519036 -3.53611 0
M  V30 380 C 36.2694 -1.91542 -4.08194 0
M  V30 381 C 34.9314 -2.29745 -4.22813 0
M  V30 382 C 37.2834 -2.82896 -4.37744 0
M  V30 383 C 34.6114 -3.58668 -4.643 0
M  V30 384 C 36.9634 -4.11265 -4.8067 0
M  V30 385 C 35.6274 -4.49466 -4.93494 0
M  V30 386 H 34.8974 -0.141938 -0.727279 0
M  V30 387 H 37.5444 -1.02814 -1.6156 0
M  V30 388 H 35.8494 0.204658 -3.91265 0
M  V30 389 H 37.5464 -0.175345 -4.00616 0
M  V30 390 H 34.1364 -1.60862 -3.97268 0
M  V30 391 H 38.3204 -2.54629 -4.26002 0
M  V30 392 H 33.5764 -3.88113 -4.72418 0
M  V30 393 H 37.7504 -4.82153 -5.02496 0
M  V30 394 H 35.3774 -5.49418 -5.25399 0
M  V30 395 N 36.9525 1.47285 -0.560781 0
M  V30 396 C 37.9005 2.31756 0.197942 0
M  V30 397 C 38.8945 1.43146 0.905854 0
M  V30 398 O 40.1005 1.59891 0.826733 0
M  V30 399 H 36.4755 0.747438 0.0827049 0
M  V30 400 H 38.4465 2.9359 -0.533629 0
M  V30 401 C 37.1955 3.25874 1.21249 0
M  V30 402 H 36.5185 3.94023 0.67719 0
M  V30 403 H 37.9585 3.87803 1.71419 0
M  V30 404 C 36.4175 2.49651 2.26221 0
M  V30 405 O 36.9475 2.24355 3.33208 0
M  V30 406 N 35.1535 2.10597 2.00243 0
M  V30 407 H 34.7005 2.31369 1.13252 0
M  V30 408 H 34.6585 1.59913 2.70694 0
M  V30 409 N 38.4306 0.297415 1.54768 0
M  V30 410 C 39.7076 -0.365847 1.92148 0
M  V30 411 C 40.0876 -1.71975 1.22424 0
M  V30 412 O 39.4356 -2.25666 0.358739 0
M  V30 413 C 39.6456 -0.484056 3.45627 0
M  V30 414 C 40.9936 -0.756594 4.17805 0
M  V30 415 O 42.0176 -0.568007 3.51642 0
M  V30 416 O 40.8766 -1.11863 5.34929 0
M  V30 417 H 37.9706 -0.203919 0.801465 0
M  V30 418 H 40.5166 0.34521 1.66152 0
M  V30 419 H 39.2886 0.467865 3.88493 0
M  V30 420 H 38.9116 -1.24372 3.77647 0
M  V30 421 N 39.9087 -1.5758 0.0250728 0
M  V30 422 C 41.3197 -1.79476 -0.514323 0
M  V30 423 C 41.6707 -0.934956 -1.72491 0
M  V30 424 O 40.7957 -0.144245 -2.15919 0
M  V30 425 C 41.3907 -3.25503 -0.939842 0
M  V30 426 C 39.9497 -3.48408 -1.42438 0
M  V30 427 C 39.0967 -2.74583 -0.387201 0
M  V30 428 H 42.0477 -1.567 0.25113 0
M  V30 429 H 42.0687 -3.34992 -1.80445 0
M  V30 430 H 41.5807 -3.88056 -0.0585628 0
M  V30 431 H 39.6817 -2.91103 -2.32572 0
M  V30 432 H 39.7947 -4.57119 -1.43455 0
M  V30 433 H 38.1587 -2.39942 -0.854409 0
M  V30 434 H 38.9417 -3.39849 0.485543 0
M  V30 435 N 41.3868 0.248026 -1.55636 0
M  V30 436 C 42.6348 0.974295 -1.77065 0
M  V30 437 C 42.9558 1.85897 -0.588849 0
M  V30 438 O 42.2258 1.91868 0.395407 0
M  V30 439 H 40.8058 0.362733 -0.653019 0
M  V30 440 H 43.4678 0.266244 -1.93073 0
M  V30 441 H 42.5638 1.59667 -2.68166 0
M  V30 442 N 42.8649 1.48995 0.513639 0
M  V30 443 C 44.2759 1.5119 1.09537 0
M  V30 444 C 44.6269 0.290906 1.94031 0
M  V30 445 O 43.7519 -0.60049 2.07902 0
M  V30 446 C 44.3469 2.73964 1.99322 0
M  V30 447 C 42.9059 2.78978 2.52682 0
M  V30 448 C 42.0529 2.44934 1.30009 0
M  V30 449 H 45.0039 1.55875 0.298125 0
M  V30 450 H 45.0249 2.53409 2.83838 0
M  V30 451 H 44.5369 3.62813 1.37799 0
M  V30 452 H 42.6379 1.94378 3.1788 0
M  V30 453 H 42.7509 3.8083 2.90698 0
M  V30 454 H 41.1149 1.9644 1.62122 0
M  V30 455 H 41.8979 3.36043 0.702131 0
M  V30 456 N 44.343 -0.763751 1.37857 0
M  V30 457 C 45.591 -1.51957 1.33243 0
M  V30 458 C 45.912 -1.94835 -0.0801709 0
M  V30 459 O 45.182 -1.66894 -1.02582 0
M  V30 460 H 43.762 -0.563626 0.49024 0
M  V30 461 H 46.424 -0.908504 1.7243 0
M  V30 462 H 45.52 -2.41523 1.97669 0
M  V30 463 N 45.8211 -1.22559 -0.990812 0
M  V30 464 C 47.0491 -1.07779 -1.76611 0
M  V30 465 C 47.4641 0.371513 -1.85109 0
M  V30 466 O 46.8211 1.25737 -1.32274 0
M  V30 467 C 46.8721 -1.68512 -3.19822 0
M  V30 468 O 46.5931 -3.07774 -3.1178 0
M  V30 469 C 48.0941 -1.59035 -4.13791 0
M  V30 470 H 45.3141 -0.377729 -0.554583 0
M  V30 471 H 47.8581 -1.62195 -1.24551 0
M  V30 472 H 46.0131 -1.18154 -3.68942 0
M  V30 473 H 46.4271 -3.37062 -4.01858 0
M  V30 474 H 47.9011 -2.0625 -5.1202 0
M  V30 475 H 48.3781 -0.547273 -4.35777 0
M  V30 476 H 48.9841 -2.08709 -3.70568 0
M  V30 477 N 47.2992 1.18797 -1.03562 0
M  V30 478 C 48.5292 1.92319 -0.754773 0
M  V30 479 C 48.9372 1.7612 0.691248 0
M  V30 480 O 48.2802 1.08491 1.48241 0
M  V30 481 C 48.3422 3.44284 -1.03484 0
M  V30 482 C 48.0062 3.84258 -2.47376 0
M  V30 483 C 49.0032 3.88459 -3.45537 0
M  V30 484 C 46.6882 4.15701 -2.81954 0
M  V30 485 C 48.6822 4.23545 -4.76328 0
M  V30 486 C 46.3692 4.50458 -4.12954 0
M  V30 487 C 47.3672 4.54356 -5.09951 0
M  V30 488 O 47.0552 4.88305 -6.38603 0
M  V30 489 H 46.7872 0.617527 -0.275021 0
M  V30 490 H 49.3412 1.51683 -1.38497 0
M  V30 491 H 47.5712 3.85135 -0.347513 0
M  V30 492 H 49.2602 3.99049 -0.7426 0
M  V30 493 H 50.0262 3.6431 -3.20162 0
M  V30 494 H 45.9052 4.11847 -2.0713 0
M  V30 495 H 49.4492 4.26502 -5.52035 0
M  V30 496 H 45.3462 4.74067 -4.38099 0
M  V30 497 H 46.1142 5.06227 -6.43177 0
M  V30 498 N 48.7773 0.814389 1.34928 0
M  V30 499 C 50.0073 0.41054 2.0248 0
M  V30 500 C 50.4153 -0.985625 1.61499 0
M  V30 501 O 49.7583 -1.64781 0.811976 0
M  V30 502 C 49.8203 0.423384 3.56998 0
M  V30 503 C 49.4843 1.77141 4.21272 0
M  V30 504 C 50.4813 2.73093 4.42398 0
M  V30 505 C 48.1663 2.05755 4.58225 0
M  V30 506 C 50.1603 3.95838 4.9959 0
M  V30 507 C 47.8473 3.28762 5.1513 0
M  V30 508 C 48.8453 4.23621 5.35755 0
M  V30 509 O 48.5333 5.44456 5.91458 0
M  V30 510 H 48.2653 0.163997 0.655806 0
M  V30 511 H 50.8193 1.10155 1.73364 0
M  V30 512 H 49.0493 -0.324276 3.85338 0
M  V30 513 H 50.7383 0.0407683 4.0588 0
M  V30 514 H 51.5043 2.5228 4.14222 0
M  V30 515 H 47.3833 1.32727 4.4148 0
M  V30 516 H 50.9273 4.69891 5.15605 0
M  V30 517 H 46.8243 3.49443 5.42734 0
M  V30 518 H 47.5923 5.4586 6.09901 0
M  V30 519 N 50.2554 -1.46986 0.568584 0
M  V30 520 C 51.2024 -2.30153 -0.172707 0
M  V30 521 C 52.1724 -1.39759 -0.897586 0
M  V30 522 O 53.3574 -1.68716 -0.891044 0
M  V30 523 C 50.4974 -3.23952 -1.1895 0
M  V30 524 C 49.6104 -4.29441 -0.469517 0
M  V30 525 C 48.7454 -5.1038 -1.47259 0
M  V30 526 C 47.7844 -6.07632 -0.738225 0
M  V30 527 N 46.9214 -6.8149 -1.68868 0
M  V30 528 H 51.7614 -2.93019 0.542596 0
M  V30 529 H 49.2984 -1.44422 0.279401 0
M  V30 530 H 51.2564 -3.76767 -1.79173 0
M  V30 531 H 49.8864 -2.62926 -1.87269 0
M  V30 532 H 48.9384 -3.79594 0.247467 0
M  V30 533 H 50.2504 -4.98689 0.105241 0
M  V30 534 H 49.4044 -5.67402 -2.14803 0
M  V30 535 H 48.1434 -4.4106 -2.08128 0
M  V30 536 H 47.1484 -5.49778 -0.0489293 0
M  V30 537 H 48.3734 -6.78966 -0.135129 0
M  V30 538 H 46.3194 -6.14891 -2.28573 0
M  V30 539 H 46.2364 -7.46948 -1.16636 0
M  V30 540 H 47.5044 -7.43078 -2.3549 0
M  V30 541 N 51.7335 -0.305618 -1.54608 0
M  V30 542 C 52.6965 0.555591 -2.22364 0
M  V30 543 C 53.6965 1.05768 -1.21119 0
M  V30 544 O 54.8865 0.952972 -1.45822 0
M  V30 545 C 52.0185 1.76974 -2.91364 0
M  V30 546 H 53.2115 -0.0364572 -2.99878 0
M  V30 547 H 50.7645 -0.0565007 -1.56198 0
M  V30 548 H 51.4995 2.40151 -2.17941 0
M  V30 549 H 51.2845 1.41732 -3.65588 0
M  V30 550 H 52.7745 2.38148 -3.43038 0
M  V30 551 N 53.2116 1.57565 -0.0334293 0
M  V30 552 C 54.4586 1.91978 0.644272 0
M  V30 553 C 54.7866 0.910231 1.71887 0
M  V30 554 O 54.0416 -0.0801961 1.95536 0
M  V30 555 C 54.3406 3.33112 1.29504 0
M  V30 556 C 54.0066 4.49537 0.350388 0
M  V30 557 C 52.6686 4.81115 0.0903974 0
M  V30 558 C 55.0206 5.20347 -0.298032 0
M  V30 559 C 52.3486 5.8086 -0.825746 0
M  V30 560 C 54.7006 6.2107 -1.20226 0
M  V30 561 C 53.3646 6.51088 -1.4711 0
M  V30 562 H 52.6346 0.702496 0.235756 0
M  V30 563 H 55.2816 1.91259 -0.0961176 0
M  V30 564 H 53.5866 3.30113 2.11028 0
M  V30 565 H 55.2836 3.57011 1.82603 0
M  V30 566 H 51.8736 4.24883 0.563205 0
M  V30 567 H 56.0576 4.96178 -0.110234 0
M  V30 568 H 51.3136 6.02461 -1.04169 0
M  V30 569 H 55.4876 6.75057 -1.71086 0
M  V30 570 H 53.1146 7.28193 -2.18264 0
M  V30 571 N 54.6897 -0.239769 1.55765 0
M  V30 572 C 56.1057 -0.588624 1.48349 0
M  V30 573 C 56.3057 -1.88005 0.72502 0
M  V30 574 O 55.3617 -2.51186 0.257269 0
M  V30 575 C 56.6747 -0.68474 2.928 0
M  V30 576 C 58.2227 -0.77659 3.03213 0
M  V30 577 C 58.6977 -0.904207 4.48986 0
M  V30 578 N 60.1887 -0.968896 4.52953 0
M  V30 579 C 60.9237 -1.08703 5.63002 0
M  V30 580 N 60.4197 -1.17026 6.82845 0
M  V30 581 N 62.2127 -1.12074 5.50814 0
M  V30 582 H 54.3637 0.607911 2.03515 0
M  V30 583 H 56.6267 0.21083 0.924259 0
M  V30 584 H 56.3327 0.194284 3.51163 0
M  V30 585 H 56.2067 -1.55435 3.43686 0
M  V30 586 H 58.5937 -1.64606 2.44926 0
M  V30 587 H 58.6747 0.118315 2.55526 0
M  V30 588 H 58.3187 -0.0392633 5.07885 0
M  V30 589 H 58.2487 -1.81426 4.9436 0
M  V30 590 H 60.7397 -0.915633 3.6664 0
M  V30 591 H 61.0527 -1.25966 7.62465 0
M  V30 592 H 59.3977 -1.13971 6.85591 0
M  V30 593 H 62.5887 -1.05226 4.5612 0
M  V30 594 H 62.7617 -1.20936 6.36615 0
M  V30 595 N 56.1678 -1.49265 -0.50573 0
M  V30 596 C 57.4168 -1.57761 -1.25675 0
M  V30 597 C 57.7298 -0.267371 -1.93764 0
M  V30 598 O 58.9358 -0.230827 -2.70517 0
M  V30 599 C 57.3918 -2.78332 -2.28165 0
M  V30 600 C 56.9998 -4.16096 -1.66037 0
M  V30 601 C 58.7438 -2.96155 -3.04125 0
M  V30 602 C 56.6508 -5.27895 -2.6661 0
M  V30 603 H 55.5808 -0.587391 -0.472745 0
M  V30 604 H 58.2318 -1.75644 -0.53118 0
M  V30 605 H 56.6138 -2.53934 -3.03865 0
M  V30 606 H 57.7878 -4.50612 -0.963622 0
M  V30 607 H 56.1028 -4.03591 -1.02484 0
M  V30 608 H 58.6998 -3.76849 -3.79327 0
M  V30 609 H 59.0428 -2.06534 -3.61455 0
M  V30 610 H 59.5758 -3.2057 -2.35541 0
M  V30 611 H 56.3148 -6.1956 -2.14068 0
M  V30 612 H 55.8348 -4.97839 -3.34539 0
M  V30 613 H 57.5138 -5.57031 -3.29129 0
M  V30 614 N 57.6459 0.756429 -1.3826 0
M  V30 615 C 58.8949 1.51082 -1.3363 0
M  V30 616 C 59.2079 1.95467 0.0720068 0
M  V30 617 O 60.4139 2.7043 0.240834 0
M  V30 618 C 58.8699 2.72893 -2.34644 0
M  V30 619 C 58.4779 2.35544 -3.81081 0
M  V30 620 C 60.2219 3.50791 -2.39052 0
M  V30 621 C 58.1289 3.53948 -4.73787 0
M  V30 622 H 57.0589 0.56727 -0.49671 0
M  V30 623 H 59.7099 0.827147 -1.638 0
M  V30 624 H 58.0919 3.43227 -1.97513 0
M  V30 625 H 59.2659 1.72894 -4.27135 0
M  V30 626 H 57.5809 1.70786 -3.79764 0
M  V30 627 H 60.1779 4.38823 -3.05513 0
M  V30 628 H 60.5209 3.91745 -1.40861 0
M  V30 629 H 61.0539 2.87467 -2.74968 0
M  V30 630 H 57.7929 3.18064 -5.73163 0
M  V30 631 H 57.3129 4.15651 -4.32428 0
M  V30 632 H 58.9919 4.20566 -4.91663 0
M  V30 633 N 59.124 1.23083 0.984299 0
M  V30 634 C 60.401 0.9689 1.69917 0
M  V30 635 C 60.781 -0.513604 2.04757 0
M  V30 636 O 60.129 -1.48383 1.73767 0
M  V30 637 C 60.339 1.87518 2.94343 0
M  V30 638 C 61.687 2.13636 3.6694 0
M  V30 639 O 62.711 1.85036 3.04368 0
M  V30 640 O 61.57 2.62119 4.79537 0
M  V30 641 H 58.664 0.365095 0.742048 0
M  V30 642 H 61.21 1.34107 1.03987 0
M  V30 643 H 59.982 2.87756 2.65164 0
M  V30 644 H 59.605 1.50514 3.6801 0
M  V30 645 N 60.6021 -1.18246 1.0419 0
M  V30 646 C 62.0181 -1.40269 0.761366 0
M  V30 647 C 62.2181 -1.90777 -0.648578 0
M  V30 648 O 61.2741 -2.0929 -1.41258 0
M  V30 649 C 62.5871 -2.40237 1.8085 0
M  V30 650 C 64.1351 -2.53961 1.82955 0
M  V30 651 C 64.6101 -3.57194 2.86664 0
M  V30 652 N 66.1011 -3.64702 2.85563 0
M  V30 653 C 66.8361 -4.44309 3.6246 0
M  V30 654 N 66.3321 -5.27514 4.49111 0
M  V30 655 N 68.1251 -4.39084 3.50944 0
M  V30 656 H 60.2761 -0.837882 1.95175 0
M  V30 657 H 62.5391 -0.430608 0.84456 0
M  V30 658 H 62.2451 -2.10176 2.81991 0
M  V30 659 H 62.1191 -3.39601 1.64168 0
M  V30 660 H 64.5061 -2.83338 0.824855 0
M  V30 661 H 64.5871 -1.54706 2.03715 0
M  V30 662 H 64.2311 -3.28558 3.87314 0
M  V30 663 H 64.1611 -4.5613 2.6316 0
M  V30 664 H 66.6521 -3.05289 2.22727 0
M  V30 665 H 66.9651 -5.85411 5.04493 0
M  V30 666 H 65.3101 -5.2693 4.53178 0
M  V30 667 H 68.5011 -3.7313 2.82651 0
M  V30 668 H 68.6741 -5.00883 4.11121 0
M  V30 669 N 62.0802 -0.821533 -1.34494 0
M  V30 670 C 63.3292 -0.405355 -1.97585 0
M  V30 671 C 63.6422 1.03677 -1.65863 0
M  V30 672 O 64.8482 1.55679 -2.22433 0
M  V30 673 C 63.3042 -0.673861 -3.53535 0
M  V30 674 C 62.9122 -2.12951 -3.94152 0
M  V30 675 C 64.6562 -0.32378 -4.23263 0
M  V30 676 C 62.5632 -2.34298 -5.43009 0
M  V30 677 H 61.4932 -0.147836 -0.739365 0
M  V30 678 H 64.1442 -1.00769 -1.53355 0
M  V30 679 H 62.5262 -0.00137554 -3.96 0
M  V30 680 H 63.7002 -2.84104 -3.62797 0
M  V30 681 H 62.0152 -2.44089 -3.37356 0
M  V30 682 H 64.6122 -0.461126 -5.32708 0
M  V30 683 H 64.9552 0.731586 -4.09821 0
M  V30 684 H 65.4882 -0.950786 -3.8627 0
M  V30 685 H 62.2272 -3.38335 -5.61435 0
M  V30 686 H 61.7472 -1.67687 -5.75883 0
M  V30 687 H 63.4262 -2.16588 -6.09671 0
M  V30 688 N 63.5583 1.46682 -0.576371 0
M  V30 689 C 64.8043 2.03287 -0.0679305 0
M  V30 690 C 65.1593 1.44063 1.27529 0
M  V30 691 O 64.4523 0.593973 1.82161 0
M  V30 692 C 64.6463 3.57345 0.062886 0
M  V30 693 C 64.4753 4.31509 -1.26611 0
M  V30 694 C 63.2453 4.70664 -1.83856 0
M  V30 695 C 65.4433 4.65444 -2.18783 0
M  V30 696 N 63.4253 5.29552 -3.10561 0
M  V30 697 C 64.7963 5.24835 -3.30072 0
M  V30 698 C 66.8513 4.47375 -2.18542 0
M  V30 699 C 65.5543 5.68063 -4.41244 0
M  V30 700 C 67.5803 4.91614 -3.28739 0
M  V30 701 C 66.9423 5.51071 -4.38748 0
M  V30 702 H 63.0413 0.779083 -0.0674836 0
M  V30 703 H 65.6253 1.78918 -0.767877 0
M  V30 704 H 63.7963 3.8144 0.731988 0
M  V30 705 H 65.5283 4.00592 0.575134 0
M  V30 706 H 62.2833 4.53224 -1.37424 0
M  V30 707 H 62.7073 5.63523 -3.75195 0
M  V30 708 H 67.3493 4.00747 -1.34765 0
M  V30 709 H 65.0673 6.13672 -5.25768 0
M  V30 710 H 68.6533 4.79389 -3.29662 0
M  V30 711 H 67.5333 5.84678 -5.22611 0
M  V30 712 N 65.0364 0.313813 1.54444 0
M  V30 713 C 66.2854 -0.292519 1.99568 0
M  V30 714 C 66.5984 -1.54011 1.20582 0
M  V30 715 O 67.8044 -2.22183 1.56035 0
M  V30 716 C 66.2604 -0.571752 3.55329 0
M  V30 717 C 65.8684 0.658229 4.43138 0
M  V30 718 C 67.6124 -1.13857 4.08946 0
M  V30 719 C 65.5194 0.351439 5.90355 0
M  V30 720 H 64.4494 -0.113079 0.745472 0
M  V30 721 H 67.1004 0.424518 1.78522 0
M  V30 722 H 65.4824 -1.34872 3.72325 0
M  V30 723 H 66.6564 1.43403 4.37918 0
M  V30 724 H 64.9714 1.14458 4.0036 0
M  V30 725 H 67.5684 -1.38257 5.16516 0
M  V30 726 H 67.9114 -2.08489 3.6033 0
M  V30 727 H 68.4444 -0.423015 3.95544 0
M  V30 728 H 65.1834 1.26667 6.43145 0
M  V30 729 H 64.7034 -0.386842 5.98551 0
M  V30 730 H 66.3824 -0.0423134 6.46986 0
M  V30 731 N 66.5145 -1.57545 0.0417849 0
M  V30 732 C 67.7605 -1.92601 -0.635021 0
M  V30 733 C 68.0935 -0.919627 -1.71045 0
M  V30 734 O 67.3685 0.0557892 -1.9442 0
M  V30 735 C 67.6515 -3.38085 -1.23979 0
M  V30 736 C 67.5045 -4.49467 -0.173057 0
M  V30 737 C 68.8235 -3.83776 -2.15416 0
M  V30 738 H 65.9425 -0.700397 -0.229374 0
M  V30 739 H 68.5845 -1.89728 0.101633 0
M  V30 740 H 66.7345 -3.40664 -1.86762 0
M  V30 741 H 68.4065 -4.59018 0.458312 0
M  V30 742 H 66.6495 -4.30909 0.499996 0
M  V30 743 H 67.3205 -5.48323 -0.636054 0
M  V30 744 H 69.7965 -3.83013 -1.62605 0
M  V30 745 H 68.6725 -4.8624 -2.54679 0
M  V30 746 H 68.9335 -3.19998 -3.05047 0
M  V30 747 N 67.9926 0.231505 -1.5589 0
M  V30 748 C 69.4036 0.799327 -1.68724 0
M  V30 749 C 69.7546 1.85398 -0.642022 0
M  V30 750 O 68.8796 2.1539 0.208784 0
M  V30 751 C 69.4746 1.45664 -3.05888 0
M  V30 752 C 68.0336 1.97197 -3.20609 0
M  V30 753 C 67.1806 0.828552 -2.64632 0
M  V30 754 H 70.1316 0.00702616 -1.58698 0
M  V30 755 H 70.1526 2.32517 -3.01191 0
M  V30 756 H 69.6646 0.688808 -3.81939 0
M  V30 757 H 67.7656 2.76813 -2.4941 0
M  V30 758 H 67.8786 2.15878 -4.27707 0
M  V30 759 H 66.2426 1.23321 -2.22854 0
M  V30 760 H 67.0256 0.0735544 -3.43221 0
M  V30 761 N 69.4707 1.49531 0.497807 0
M  V30 762 C 70.3807 1.69176 1.62532 0
M  V30 763 C 71.3967 0.5744 1.64246 0
M  V30 764 O 72.5727 0.849497 1.82608 0
M  V30 765 C 69.6377 1.75695 2.98885 0
M  V30 766 C 68.6987 2.9929 3.07773 0
M  V30 767 C 67.9317 3.05488 4.37622 0
M  V30 768 O 68.1547 2.19192 5.26603 0
M  V30 769 O 67.0887 3.9798 4.51548 0
M  V30 770 H 70.9147 2.647 1.48887 0
M  V30 771 H 68.4997 1.3331 0.674441 0
M  V30 772 H 70.3817 1.82317 3.79919 0
M  V30 773 H 69.0567 0.8335 3.12785 0
M  V30 774 H 67.9637 2.98183 2.25915 0
M  V30 775 H 69.2967 3.91125 2.98801 0
M  V30 776 N 70.9488 -0.749086 1.3866 0
M  V30 777 C 72.3648 -1.05276 1.19955 0
M  V30 778 C 72.5648 -2.01435 0.05134 0
M  V30 779 O 71.6208 -2.45232 -0.60147 0
M  V30 780 C 72.9338 -1.62853 2.52783 0
M  V30 781 C 74.4818 -1.75002 2.59506 0
M  V30 782 C 74.9568 -2.35991 3.92521 0
M  V30 783 N 76.4478 -2.43416 3.94085 0
M  V30 784 C 77.1828 -2.91511 4.9377 0
M  V30 785 N 76.6788 -3.39608 6.03853 0
M  V30 786 N 78.4718 -2.90592 4.81157 0
M  V30 787 H 70.6228 -0.111066 2.12109 0
M  V30 788 H 72.8858 -0.111901 0.941373 0
M  V30 789 H 72.5918 -0.99664 3.37283 0
M  V30 790 H 72.4658 -2.61854 2.715 0
M  V30 791 H 74.8528 -2.37317 1.75398 0
M  V30 792 H 74.9338 -0.74693 2.44652 0
M  V30 793 H 74.5778 -1.74308 4.77053 0
M  V30 794 H 74.5078 -3.3695 4.04688 0
M  V30 795 H 76.9988 -2.09405 3.14576 0
M  V30 796 H 77.3118 -3.74775 6.75843 0
M  V30 797 H 75.6568 -3.37653 6.07466 0
M  V30 798 H 78.8478 -2.52332 3.94267 0
M  V30 799 H 79.0208 -3.27762 5.58996 0
M  V30 800 N 72.4269 -1.23603 -0.977757 0
M  V30 801 C 73.6739 -1.06971 -1.71941 0
M  V30 802 C 74.0019 0.393009 -1.90488 0
M  V30 803 O 73.2569 1.30719 -1.4564 0
M  V30 804 C 73.5559 -1.7433 -3.11999 0
M  V30 805 C 73.2219 -3.24252 -3.13323 0
M  V30 806 C 71.8839 -3.65156 -3.13392 0
M  V30 807 C 74.2359 -4.20141 -3.08433 0
M  V30 808 C 71.5639 -5.00403 -3.0629 0
M  V30 809 C 73.9159 -5.55384 -3.02873 0
M  V30 810 C 72.5799 -5.95647 -3.01265 0
M  V30 811 H 71.8499 -0.391433 -0.629175 0
M  V30 812 H 74.4969 -1.53572 -1.14403 0
M  V30 813 H 72.8019 -1.20096 -3.7294 0
M  V30 814 H 74.4989 -1.58936 -3.68158 0
M  V30 815 H 71.0889 -2.91692 -3.14029 0
M  V30 816 H 75.2729 -3.89547 -3.07517 0
M  V30 817 H 70.5289 -5.3081 -3.03399 0
M  V30 818 H 74.7029 -6.29398 -2.98046 0
M  V30 819 H 72.3299 -7.0041 -2.95516 0
M  V30 820 N 73.905 1.17692 -1.04816 0
M  V30 821 C 75.133 1.91786 -0.776254 0
M  V30 822 C 75.548 1.76604 0.667577 0
M  V30 823 O 74.905 1.10067 1.45573 0
M  V30 824 C 74.956 3.42967 -1.14263 0
M  V30 825 O 74.677 3.57678 -2.52978 0
M  V30 826 C 76.178 4.34144 -0.896311 0
M  V30 827 H 73.398 0.608624 -0.282519 0
M  V30 828 H 75.942 1.49268 -1.39783 0
M  V30 829 H 74.097 3.83245 -0.565874 0
M  V30 830 H 74.511 4.51319 -2.67229 0
M  V30 831 H 75.985 5.38744 -1.20244 0
M  V30 832 H 76.462 4.38876 0.168636 0
M  V30 833 H 77.068 3.99574 -1.45672 0
M  V30 834 N 75.3831 0.828654 1.34056 0
M  V30 835 C 76.6131 0.431993 2.02033 0
M  V30 836 C 77.0211 -0.96844 1.62536 0
M  V30 837 O 76.3641 -1.6391 0.829408 0
M  V30 838 C 76.4261 0.461224 3.56529 0
M  V30 839 C 76.0901 1.81599 4.1937 0
M  V30 840 C 77.0871 2.7777 4.39477 0
M  V30 841 C 74.7721 2.10604 4.56017 0
M  V30 842 C 76.7661 4.01115 4.95364 0
M  V30 843 C 74.4531 3.34207 5.11614 0
M  V30 844 C 75.4511 4.2928 5.31232 0
M  V30 845 O 75.1391 5.50699 5.8565 0
M  V30 846 H 74.8711 0.170943 0.654029 0
M  V30 847 H 77.4251 1.11988 1.72185 0
M  V30 848 H 75.6551 -0.283388 3.8566 0
M  V30 849 H 77.3441 0.0838149 4.05813 0
M  V30 850 H 78.1101 2.56659 4.11523 0
M  V30 851 H 73.9891 1.37402 4.40047 0
M  V30 852 H 77.5331 4.75333 5.10592 0
M  V30 853 H 73.4301 3.55179 5.38997 0
M  V30 854 H 74.1981 5.52298 6.04077 0
M  V30 855 N 76.8612 -1.46375 0.584142 0
M  V30 856 C 78.1092 -2.01978 0.0701287 0
M  V30 857 C 78.4302 -1.4579 -1.295 0
M  V30 858 O 77.7002 -0.64314 -1.85042 0
M  V30 859 H 76.2802 -0.746648 0.0229345 0
M  V30 860 H 78.9422 -1.79461 0.760245 0
M  V30 861 H 78.0382 -3.121 0.0022064 0
M  V30 862 N 78.3393 -0.321999 -1.54275 0
M  V30 863 C 79.5863 0.281044 -2.0054 0
M  V30 864 C 79.9143 1.52265 -1.21019 0
M  V30 865 O 79.1693 1.93687 -0.279982 0
M  V30 866 C 79.4683 0.661769 -3.5122 0
M  V30 867 C 79.1343 -0.480482 -4.48333 0
M  V30 868 C 77.7963 -0.794005 -4.74604 0
M  V30 869 C 80.1483 -1.24783 -5.06042 0
M  V30 870 C 77.4763 -1.87763 -5.55844 0
M  V30 871 C 79.8283 -2.32153 -5.88462 0
M  V30 872 C 78.4923 -2.64089 -6.13036 0
M  V30 873 H 77.7623 0.102841 -0.733829 0
M  V30 874 H 80.4093 -0.445453 -1.86247 0
M  V30 875 H 78.7143 1.46867 -3.63232 0
M  V30 876 H 80.4113 1.13989 -3.84457 0
M  V30 877 H 77.0013 -0.226039 -4.28004 0
M  V30 878 H 81.1853 -1.01887 -4.85729 0
M  V30 879 H 76.4413 -2.12954 -5.73115 0
M  V30 880 H 80.6153 -2.92057 -6.32199 0
M  V30 881 H 78.2423 -3.48185 -6.75775 0
M  V30 882 N 79.8174 1.5752 -0.0501392 0
M  V30 883 C 80.7494 2.08413 0.95376 0
M  V30 884 C 81.7624 1.01175 1.27544 0
M  V30 885 O 82.9514 1.28744 1.23641 0
M  V30 886 C 80.0514 2.51138 2.27559 0
M  V30 887 C 79.2244 3.817 2.13598 0
M  V30 888 C 78.2834 4.10749 3.28895 0
M  V30 889 O 77.3094 4.80685 3.04845 0
M  V30 890 N 78.5114 3.62579 4.5334 0
M  V30 891 H 81.2764 2.95165 0.519383 0
M  V30 892 H 78.8374 1.61327 0.136127 0
M  V30 893 H 80.8294 2.67648 3.03557 0
M  V30 894 H 79.3994 1.6964 2.62567 0
M  V30 895 H 78.6194 3.74782 1.22197 0
M  V30 896 H 79.9074 4.67201 2.01496 0
M  V30 897 H 79.3054 3.06039 4.75769 0
M  V30 898 H 77.8624 3.84329 5.26436 0
M  V30 899 N 81.2955 -0.223234 1.56011 0
M  V30 900 C 82.7065 -0.790368 1.69145 0
M  V30 901 C 83.0575 -1.85055 0.651845 0
M  V30 902 O 82.1825 -2.15498 -0.197359 0
M  V30 903 C 82.7775 -1.4404 3.06656 0
M  V30 904 C 81.3365 -1.95494 3.2165 0
M  V30 905 C 80.4835 -0.814506 2.65068 0
M  V30 906 H 83.4345 0.00139011 1.587 0
M  V30 907 H 83.4555 -2.30916 3.0242 0
M  V30 908 H 82.9675 -0.668543 3.82298 0
M  V30 909 H 81.0685 -2.75487 2.50874 0
M  V30 910 H 81.1815 -2.13607 4.28846 0
M  V30 911 H 79.5455 -1.22137 2.23505 0
M  V30 912 H 80.3285 -0.0553515 3.43255 0
M  V30 913 N 82.7736 -1.49793 -0.48987 0
M  V30 914 C 84.0506 -1.50348 -1.25119 0
M  V30 915 C 84.4306 -0.237466 -2.0976 0
M  V30 916 O 83.7786 0.77981 -2.14782 0
M  V30 917 C 83.9886 -2.78872 -2.09837 0
M  V30 918 C 85.3366 -3.288 -2.68655 0
M  V30 919 O 86.3606 -2.80065 -2.20096 0
M  V30 920 O 85.2196 -4.13707 -3.57083 0
M  V30 921 H 82.3136 -0.602242 -0.566775 0
M  V30 922 H 84.8596 -1.62067 -0.503229 0
M  V30 923 H 83.6316 -3.62499 -1.47343 0
M  V30 924 H 83.2546 -2.70066 -2.91805 0
M  V30 925 N 84.2517 0.741722 -1.39055 0
M  V30 926 C 85.1837 1.8657 -1.33133 0
M  V30 927 C 86.1967 1.61001 -0.241329 0
M  V30 928 O 87.3857 1.7136 -0.499784 0
M  V30 929 C 84.4857 3.22457 -1.04283 0
M  V30 930 C 83.6587 3.75435 -2.24427 0
M  V30 931 C 82.7177 4.89867 -1.92138 0
M  V30 932 O 81.7437 5.03879 -2.64754 0
M  V30 933 N 82.9457 5.73738 -0.88347 0
M  V30 934 H 85.7107 1.92156 -2.29991 0
M  V30 935 H 83.2717 0.922172 -1.3307 0
M  V30 936 H 85.2637 3.9657 -0.807128 0
M  V30 937 H 83.8337 3.12181 -0.161807 0
M  V30 938 H 83.0537 2.92751 -2.6399 0
M  V30 939 H 84.3417 4.07563 -3.04581 0
M  V30 940 H 83.7397 5.64999 -0.281517 0
M  V30 941 H 82.2967 6.47947 -0.707662 0
M  V30 942 N 85.7298 1.2412 0.971189 0
M  V30 943 C 86.9768 1.07881 1.71371 0
M  V30 944 C 87.3048 -0.382901 1.90694 0
M  V30 945 O 86.5598 -1.29945 1.46331 0
M  V30 946 C 86.8588 1.75983 3.11071 0
M  V30 947 C 86.5248 3.25909 3.11599 0
M  V30 948 C 85.1868 3.66813 3.11451 0
M  V30 949 C 87.5388 4.21771 3.062 0
M  V30 950 C 84.8668 5.02021 3.03631 0
M  V30 951 C 87.2188 5.56982 2.99923 0
M  V30 952 C 85.8828 5.97237 2.98102 0
M  V30 953 H 85.1528 0.394764 0.62709 0
M  V30 954 H 87.7998 1.54176 1.13587 0
M  V30 955 H 86.1048 1.22072 3.72298 0
M  V30 956 H 87.8018 1.60887 3.6731 0
M  V30 957 H 84.3918 2.93353 3.12477 0
M  V30 958 H 88.5758 3.91172 3.05447 0
M  V30 959 H 83.8318 5.32411 3.0058 0
M  V30 960 H 88.0058 6.30969 2.94704 0
M  V30 961 H 85.6328 7.01967 2.91798 0
M  V30 962 N 87.2079 -1.17134 1.05439 0
M  V30 963 C 88.1559 -2.23289 0.651511 0
M  V30 964 C 89.1499 -1.66186 -0.328411 0
M  V30 965 O 90.3559 -1.78949 -0.194206 0
M  V30 966 H 86.7309 -0.726938 0.192523 0
M  V30 967 H 88.7019 -2.54565 1.55689 0
M  V30 968 C 87.4509 -3.47671 0.0448436 0
M  V30 969 H 86.7739 -3.91918 0.78996 0
M  V30 970 H 88.2139 -4.2353 -0.19964 0
M  V30 971 C 86.6729 -3.14453 -1.20918 0
M  V30 972 O 87.2029 -3.29459 -2.29825 0
M  V30 973 N 85.4089 -2.68657 -1.10779 0
M  V30 974 H 84.9559 -2.56646 -0.221526 0
M  V30 975 H 84.9139 -2.46804 -1.9477 0
M  V30 976 N 88.686 -0.835752 -1.33615 0
M  V30 977 C 89.649 -0.272 -2.2758 0
M  V30 978 C 90.649 0.557487 -1.50827 0
M  V30 979 O 91.839 0.37173 -1.70188 0
M  V30 980 C 88.971 0.617173 -3.35267 0
M  V30 981 H 90.164 -1.10111 -2.78954 0
M  V30 982 H 87.717 -0.608594 -1.43965 0
M  V30 983 H 88.452 1.46884 -2.89129 0
M  V30 984 H 88.237 0.0237066 -3.92093 0
M  V30 985 H 89.727 1.005 -4.05326 0
M  V30 986 N 90.1641 1.46063 -0.591896 0
M  V30 987 C 91.3891 2.07226 -0.0850314 0
M  V30 988 C 91.8141 1.43625 1.21463 0
M  V30 989 O 91.1721 0.523305 1.73583 0
M  V30 990 C 91.2201 3.60554 0.0576567 0
M  V30 991 O 90.3241 3.97128 1.11188 0
M  V30 992 H 89.6651 0.660615 -0.0669568 0
M  V30 993 H 92.1951 1.8756 -0.81745 0
M  V30 994 H 92.2051 4.07165 0.2609 0
M  V30 995 H 90.8801 4.06235 -0.891416 0
M  V30 996 H 89.4571 3.62213 0.886356 0
M  V30 997 N 91.6422 0.330177 1.54103 0
M  V30 998 C 92.8702 -0.272179 2.05102 0
M  V30 999 C 93.2852 -1.45267 1.20595 0
M  V30 1000 O 92.6422 -1.8094 0.238144 0
M  V30 1001 C 92.6932 -0.70023 3.54653 0
M  V30 1002 O 92.4142 0.433301 4.35952 0
M  V30 1003 C 93.9152 -1.3647 4.21771 0
M  V30 1004 H 91.1352 -0.0549159 0.668749 0
M  V30 1005 H 93.6792 0.478285 1.98828 0
M  V30 1006 H 91.8342 -1.40066 3.61193 0
M  V30 1007 H 92.2482 0.0947539 5.24414 0
M  V30 1008 H 93.7222 -1.61509 5.27843 0
M  V30 1009 H 94.1992 -2.31409 3.73292 0
M  V30 1010 H 94.8052 -0.706675 4.19388 0
M  V30 1011 N 93.1203 -1.57491 0.0584922 0
M  V30 1012 C 94.3683 -1.92597 -0.612436 0
M  V30 1013 C 94.6893 -0.938162 -1.70949 0
M  V30 1014 O 93.9593 0.0158301 -1.95894 0
M  V30 1015 H 92.5393 -0.710964 -0.229214 0
M  V30 1016 H 95.2013 -1.94571 0.113218 0
M  V30 1017 H 94.2973 -2.94038 -1.04633 0
M  V30 1018 N 94.5984 0.214957 -1.56127 0
M  V30 1019 C 95.8444 0.939762 -1.79712 0
M  V30 1020 C 96.1774 1.83723 -0.629247 0
M  V30 1021 O 95.4524 1.90925 0.371197 0
M  V30 1022 C 95.7354 1.77306 -3.13424 0
M  V30 1023 C 95.5884 0.90164 -4.40671 0
M  V30 1024 C 96.9074 2.74956 -3.43638 0
M  V30 1025 H 94.0264 0.340214 -0.653776 0
M  V30 1026 H 96.6684 0.20824 -1.88855 0
M  V30 1027 H 94.8184 2.39673 -3.0576 0
M  V30 1028 H 96.4904 0.294206 -4.60361 0
M  V30 1029 H 94.7334 0.207368 -4.33304 0
M  V30 1030 H 95.4044 1.51923 -5.30682 0
M  V30 1031 H 97.8804 2.22724 -3.51473 0
M  V30 1032 H 96.7564 3.30358 -4.38355 0
M  V30 1033 H 97.0174 3.53023 -2.66134 0
M  V30 1034 N 96.0765 1.50051 0.48192 0
M  V30 1035 C 97.3235 1.60498 1.23477 0
M  V30 1036 C 97.6515 0.300331 1.92167 0
M  V30 1037 O 96.9065 -0.713094 1.82246 0
M  V30 1038 C 97.2055 2.72717 2.30998 0
M  V30 1039 C 96.8715 4.13572 1.79636 0
M  V30 1040 C 95.5335 4.519 1.65348 0
M  V30 1041 C 97.8855 5.01649 1.41412 0
M  V30 1042 C 95.2135 5.76057 1.11244 0
M  V30 1043 C 97.5655 6.26343 0.887538 0
M  V30 1044 C 96.2295 6.63483 0.731207 0
M  V30 1045 H 95.4995 0.587303 0.451836 0
M  V30 1046 H 98.1465 1.83948 0.532468 0
M  V30 1047 H 96.4515 2.43312 3.07094 0
M  V30 1048 H 98.1485 2.78006 2.88988 0
M  V30 1049 H 94.7385 3.83329 1.91721 0
M  V30 1050 H 98.9225 4.72679 1.51289 0
M  V30 1051 H 94.1785 6.03516 0.978686 0
M  V30 1052 H 98.3525 6.93958 0.582654 0
M  V30 1053 H 95.9795 7.59568 0.309806 0
M  V30 1054 N 97.5546 -0.734337 1.39446 0
M  V30 1055 C 98.7796 -1.52866 1.40167 0
M  V30 1056 C 99.2046 -1.881 -0.00171513 0
M  V30 1057 O 98.5626 -1.51957 -0.988879 0
M  V30 1058 C 98.6106 -2.79235 2.28167 0
M  V30 1059 O 97.7146 -3.75185 1.71201 0
M  V30 1060 H 97.0556 -0.461618 0.477289 0
M  V30 1061 H 99.5856 -0.905949 1.8345 0
M  V30 1062 H 99.5956 -3.27963 2.42702 0
M  V30 1063 H 98.2706 -2.52923 3.30156 0
M  V30 1064 H 96.8476 -3.33958 1.65912 0
M  V30 1065 N 99.0327 -1.24633 -0.964593 0
M  V30 1066 C 99.9797 -1.04144 -2.05968 0
M  V30 1067 C 100.95 0.046262 -1.66036 0
M  V30 1068 O 102.135 -0.108972 -1.90489 0
M  V30 1069 C 99.2747 -0.65563 -3.38815 0
M  V30 1070 C 98.3877 -1.81714 -3.91923 0
M  V30 1071 C 97.5227 -1.37662 -5.13052 0
M  V30 1072 C 96.5617 -2.50788 -5.58365 0
M  V30 1073 N 95.6987 -2.07582 -6.70712 0
M  V30 1074 H 100.539 -1.9787 -2.22827 0
M  V30 1075 H 98.0757 -0.9855 -1.09208 0
M  V30 1076 H 100.034 -0.412954 -4.15151 0
M  V30 1077 H 98.6637 0.244627 -3.21872 0
M  V30 1078 H 97.7157 -2.1734 -3.12198 0
M  V30 1079 H 99.0277 -2.66705 -4.21509 0
M  V30 1080 H 98.1817 -1.093 -5.96773 0
M  V30 1081 H 96.9207 -0.497293 -4.85158 0
M  V30 1082 H 95.9257 -2.79906 -4.73215 0
M  V30 1083 H 97.1507 -3.39283 -5.88272 0
M  V30 1084 H 95.0967 -1.22051 -6.44546 0
M  V30 1085 H 95.0137 -2.86125 -6.99763 0
M  V30 1086 H 96.2817 -1.82369 -7.57867 0
M  V30 1087 N 100.511 1.16574 -1.06058 0
M  V30 1088 C 101.788 1.83048 -0.689416 0
M  V30 1089 C 102.168 1.94122 0.829443 0
M  V30 1090 O 101.516 1.48249 1.7388 0
M  V30 1091 C 101.726 3.20186 -1.38859 0
M  V30 1092 C 103.074 3.95989 -1.53226 0
M  V30 1093 O 104.098 3.29696 -1.3483 0
M  V30 1094 O 102.957 5.14813 -1.83384 0
M  V30 1095 H 100.051 0.790258 -0.243764 0
M  V30 1096 H 102.597 1.23797 -1.16071 0
M  V30 1097 H 101.369 3.07146 -2.4244 0
M  V30 1098 H 100.992 3.87112 -0.907216 0
M  V30 1099 N 101.989 0.842826 1.3317 0
M  V30 1100 C 103.235 0.441099 1.97945 0
M  V30 1101 C 103.568 -0.998024 1.66593 0
M  V30 1102 O 102.843 -1.69839 0.947898 0
M  V30 1103 C 103.126 0.666841 3.53872 0
M  V30 1104 C 102.979 2.15352 3.94897 0
M  V30 1105 C 104.298 0.115544 4.39948 0
M  V30 1106 H 101.417 0.161739 0.719034 0
M  V30 1107 H 104.059 1.05907 1.57746 0
M  V30 1108 H 102.209 0.140828 3.88245 0
M  V30 1109 H 103.881 2.7447 3.70761 0
M  V30 1110 H 102.124 2.63653 3.44484 0
M  V30 1111 H 102.795 2.26221 5.03516 0
M  V30 1112 H 105.271 0.565213 4.12243 0
M  V30 1113 H 104.147 0.303152 5.48062 0
M  V30 1114 H 104.408 -0.980935 4.3108 0
M  V30 1115 N 103.467 -1.45747 0.599634 0
M  V30 1116 C 104.697 -2.06369 0.0977132 0
M  V30 1117 C 105.105 -1.44624 -1.21985 0
M  V30 1118 O 104.448 -0.551831 -1.75216 0
M  V30 1119 C 104.51 -3.59284 -0.124673 0
M  V30 1120 C 104.174 -4.43318 1.10987 0
M  V30 1121 C 105.171 -4.78796 2.02609 0
M  V30 1122 C 102.856 -4.84194 1.33647 0
M  V30 1123 C 104.85 -5.53997 3.15224 0
M  V30 1124 C 102.537 -5.5915 2.46565 0
M  V30 1125 C 103.535 -5.93968 3.37182 0
M  V30 1126 O 103.223 -6.67405 4.48136 0
M  V30 1127 H 102.955 -0.673122 0.0623153 0
M  V30 1128 H 105.509 -1.88104 0.824981 0
M  V30 1129 H 103.739 -3.75919 -0.906745 0
M  V30 1130 H 105.428 -4.01775 -0.577201 0
M  V30 1131 H 106.194 -4.47781 1.86325 0
M  V30 1132 H 102.073 -4.56534 0.64016 0
M  V30 1133 H 105.617 -5.81091 3.85978 0
M  V30 1134 H 101.514 -5.89579 2.62805 0
M  V30 1135 H 102.282 -6.85847 4.46717 0
M  V30 1136 N 104.945 -0.338344 -1.53925 0
M  V30 1137 C 105.855 0.529421 -2.28548 0
M  V30 1138 C 106.871 1.11645 -1.3346 0
M  V30 1139 O 108.047 1.13325 -1.66492 0
M  V30 1140 C 105.112 1.66713 -3.03987 0
M  V30 1141 C 104.173 1.11041 -4.14691 0
M  V30 1142 C 103.406 2.19389 -4.86522 0
M  V30 1143 O 103.629 3.40013 -4.57982 0
M  V30 1144 O 102.563 1.83976 -5.73094 0
M  V30 1145 H 106.389 -0.0770399 -3.03602 0
M  V30 1146 H 103.974 -0.103555 -1.49041 0
M  V30 1147 H 105.856 2.32918 -3.5118 0
M  V30 1148 H 104.531 2.25949 -2.31794 0
M  V30 1149 H 103.438 0.413024 -3.71813 0
M  V30 1150 H 104.771 0.562975 -4.8897 0
M  V30 1151 N 106.423 1.57458 -0.0668435 0
M  V30 1152 C 107.653 1.97337 0.611677 0
M  V30 1153 C 108.061 0.943744 1.63982 0
M  V30 1154 O 107.404 -0.0785584 1.83532 0
M  V30 1155 C 107.466 3.33511 1.34205 0
M  V30 1156 C 107.13 4.54598 0.467941 0
M  V30 1157 C 108.127 5.19186 -0.272439 0
M  V30 1158 C 105.812 5.0075 0.39427 0
M  V30 1159 C 107.806 6.28274 -1.07476 0
M  V30 1160 C 105.493 6.09711 -0.411729 0
M  V30 1161 C 106.491 6.73335 -1.14492 0
M  V30 1162 O 106.179 7.80199 -1.93763 0
M  V30 1163 H 105.911 0.654042 0.170893 0
M  V30 1164 H 108.465 2.04961 -0.134289 0
M  V30 1165 H 106.695 3.22487 2.13398 0
M  V30 1166 H 108.384 3.58029 1.91233 0
M  V30 1167 H 109.15 4.84477 -0.225086 0
M  V30 1168 H 105.029 4.51009 0.954569 0
M  V30 1169 H 108.573 6.77866 -1.64755 0
M  V30 1170 H 104.47 6.43854 -0.460664 0
M  V30 1171 H 105.238 7.97053 -1.86142 0
M  V30 1172 N 107.901 -0.206675 1.56239 0
M  V30 1173 C 109.131 -0.943975 1.83773 0
M  V30 1174 C 109.539 -1.77841 0.645703 0
M  V30 1175 O 108.882 -1.79403 -0.395008 0
M  V30 1176 C 108.944 -1.899 3.05251 0
M  V30 1177 C 108.608 -1.24764 4.39639 0
M  V30 1178 C 109.605 -0.630216 5.16066 0
M  V30 1179 C 107.29 -1.25496 4.8637 0
M  V30 1180 C 109.284 -0.0287946 6.37393 0
M  V30 1181 C 106.971 -0.649698 6.07637 0
M  V30 1182 C 107.969 -0.0376845 6.8299 0
M  V30 1183 O 107.657 0.55812 8.0196 0
M  V30 1184 H 107.389 -0.281508 0.614597 0
M  V30 1185 H 109.943 -0.222458 2.04192 0
M  V30 1186 H 108.173 -2.6599 2.80689 0
M  V30 1187 H 109.862 -2.5031 3.1953 0
M  V30 1188 H 110.628 -0.616785 4.81062 0
M  V30 1189 H 106.507 -1.72072 4.27683 0
M  V30 1190 H 110.051 0.449518 6.9615 0
M  V30 1191 H 105.948 -0.660592 6.42111 0
M  V30 1192 H 106.716 0.453891 8.17241 0
M  V30 1193 N 109.379 -1.50304 -0.473955 0
M  V30 1194 C 110.656 -1.51667 -1.23518 0
M  V30 1195 C 111.036 -0.259701 -2.09496 0
M  V30 1196 O 110.384 0.756986 -2.15597 0
M  V30 1197 C 110.594 -2.81082 -2.06868 0
M  V30 1198 C 111.942 -3.31631 -2.65153 0
M  V30 1199 O 112.966 -2.82384 -2.17113 0
M  V30 1200 O 111.825 -4.17471 -3.52675 0
M  V30 1201 H 108.919 -0.60822 -0.560355 0
M  V30 1202 H 111.465 -1.62592 -0.486011 0
M  V30 1203 H 110.237 -3.64041 -1.4349 0
M  V30 1204 H 109.86 -2.73146 -2.88924 0
M  V30 1205 N 110.857 0.726932 -1.39834 0
M  V30 1206 C 112.268 1.30558 -1.3346 0
M  V30 1207 C 112.619 1.962 -0.00273003 0
M  V30 1208 O 111.744 1.96826 0.899371 0
M  V30 1209 C 112.339 2.37404 -2.41713 0
M  V30 1210 C 110.898 2.90921 -2.38835 0
M  V30 1211 C 110.045 1.64578 -2.2318 0
M  V30 1212 H 112.996 0.523862 -1.49804 0
M  V30 1213 H 113.017 3.17984 -2.08966 0
M  V30 1214 H 112.529 1.89599 -3.38635 0
M  V30 1215 H 110.63 3.42985 -1.45575 0
M  V30 1216 H 110.743 3.43487 -3.33997 0
M  V30 1217 H 109.107 1.89219 -1.70494 0
M  V30 1218 H 109.89 1.18814 -3.22084 0
M  V30 1219 N 112.336 1.25143 0.95797 0
M  V30 1220 C 113.564 1.12424 1.73691 0
M  V30 1221 C 113.979 -0.322304 1.86029 0
M  V30 1222 O 113.336 -1.22186 1.35561 0
M  V30 1223 C 113.387 1.76933 3.15241 0
M  V30 1224 O 113.108 3.15932 3.03511 0
M  V30 1225 C 114.609 1.6995 4.09429 0
M  V30 1226 H 111.829 0.3923 0.544373 0
M  V30 1227 H 114.373 1.6544 1.20207 0
M  V30 1228 H 112.528 1.27895 3.6568 0
M  V30 1229 H 112.942 3.47598 3.9278 0
M  V30 1230 H 114.416 2.19753 5.06372 0
M  V30 1231 H 114.893 0.662619 4.34173 0
M  V30 1232 H 115.499 2.18461 3.64904 0
M  V30 1233 N 113.814 -1.1601 1.06675 0
M  V30 1234 C 115.044 -1.90251 0.805497 0
M  V30 1235 C 115.452 -1.77891 -0.64431 0
M  V30 1236 O 114.795 -1.12383 -1.45313 0
M  V30 1237 C 114.857 -3.41419 1.12576 0
M  V30 1238 C 114.521 -3.77564 2.57477 0
M  V30 1239 C 115.518 -3.79161 3.55715 0
M  V30 1240 C 113.203 -4.08079 2.92877 0
M  V30 1241 C 115.197 -4.10767 4.8739 0
M  V30 1242 C 112.884 -4.39351 4.24751 0
M  V30 1243 C 113.882 -4.40675 5.21818 0
M  V30 1244 O 113.57 -4.71202 6.51325 0
M  V30 1245 H 113.302 -0.610018 0.291297 0
M  V30 1246 H 115.856 -1.47958 1.4247 0
M  V30 1247 H 114.086 -3.84079 0.449503 0
M  V30 1248 H 115.775 -3.9694 0.84814 0
M  V30 1249 H 116.541 -3.55693 3.29708 0
M  V30 1250 H 112.42 -4.06211 2.17976 0
M  V30 1251 H 115.964 -4.11715 5.63148 0
M  V30 1252 H 111.861 -4.62285 4.50514 0
M  V30 1253 H 112.629 -4.88996 6.56373 0
M  V30 1254 N 115.292 -0.849877 -1.32721 0
M  V30 1255 C 116.222 -0.306308 -2.31482 0
M  V30 1256 C 117.203 0.591952 -1.59468 0
M  V30 1257 O 118.388 0.513199 -1.87296 0
M  V30 1258 C 115.518 0.510204 -3.43532 0
M  V30 1259 C 114.472 -0.293209 -4.26994 0
M  V30 1260 C 113.798 0.647743 -5.30762 0
M  V30 1261 C 115.098 -1.51634 -4.99804 0
M  V30 1262 H 116.792 -1.13153 -2.77195 0
M  V30 1263 H 114.338 -0.545553 -1.33266 0
M  V30 1264 H 116.291 0.900856 -4.11658 0
M  V30 1265 H 115.015 1.36874 -2.96535 0
M  V30 1266 H 113.674 -0.665555 -3.60508 0
M  V30 1267 H 113.322 1.50299 -4.8002 0
M  V30 1268 H 113.022 0.11422 -5.87489 0
M  V30 1269 H 114.546 1.03567 -6.01753 0
M  V30 1270 H 115.96 -1.19824 -5.60638 0
M  V30 1271 H 114.357 -1.98745 -5.66234 0
M  V30 1272 H 115.427 -2.28018 -4.27943 0
M  V30 1273 N 116.77 1.45427 -0.607355 0
M  V30 1274 C 117.717 2.3053 0.111625 0
M  V30 1275 C 118.687 1.4209 0.860216 0
M  V30 1276 O 119.872 1.71019 0.845998 0
M  V30 1277 C 117.012 3.26992 1.10319 0
M  V30 1278 C 116.125 4.30535 0.355493 0
M  V30 1279 C 115.26 5.14105 1.33676 0
M  V30 1280 C 114.299 6.09376 0.576862 0
M  V30 1281 N 113.436 6.85727 1.5074 0
M  V30 1282 H 118.276 2.91477 -0.620093 0
M  V30 1283 H 115.813 1.43631 -0.317594 0
M  V30 1284 H 117.771 3.81385 1.6912 0
M  V30 1285 H 116.401 2.67799 1.80232 0
M  V30 1286 H 115.453 3.78805 -0.348023 0
M  V30 1287 H 116.765 4.98235 -0.237423 0
M  V30 1288 H 115.919 5.72897 1.99684 0
M  V30 1289 H 114.658 4.46423 1.9636 0
M  V30 1290 H 113.663 5.49715 -0.0968519 0
M  V30 1291 H 114.888 6.79085 -0.0449341 0
M  V30 1292 H 112.834 6.20735 2.12189 0
M  V30 1293 H 112.751 7.49778 0.967913 0
M  V30 1294 H 114.019 7.4906 2.15706 0
M  V30 1295 N 118.248 0.346503 1.53744 0
M  V30 1296 C 119.476 -0.25041 2.05379 0
M  V30 1297 C 119.891 -1.43979 1.22129 0
M  V30 1298 O 119.248 -1.80677 0.257321 0
M  V30 1299 C 119.299 -0.662575 3.55376 0
M  V30 1300 O 119.02 0.479515 4.35468 0
M  V30 1301 C 120.521 -1.31989 4.23195 0
M  V30 1302 H 117.741 -0.0478198 0.669294 0
M  V30 1303 H 120.285 0.499346 1.9831 0
M  V30 1304 H 118.44 -1.36227 3.62658 0
M  V30 1305 H 118.854 0.15037 5.24284 0
M  V30 1306 H 120.328 -1.55902 5.29527 0
M  V30 1307 H 120.805 -2.27436 3.75725 0
M  V30 1308 H 121.411 -0.662154 4.20114 0
M  V30 1309 N 119.726 -1.57421 0.075193 0
M  V30 1310 C 121.003 -1.85029 -0.634329 0
M  V30 1311 C 121.383 -0.968305 -1.87582 0
M  V30 1312 O 120.731 -0.0354749 -2.28472 0
M  V30 1313 C 120.941 -3.35286 -0.968742 0
M  V30 1314 C 122.289 -4.02875 -1.34077 0
M  V30 1315 O 123.313 -3.40051 -1.06037 0
M  V30 1316 O 122.172 -5.13691 -1.86506 0
M  V30 1317 H 119.266 -0.7645 -0.315387 0
M  V30 1318 H 121.812 -1.69366 0.106382 0
M  V30 1319 H 120.584 -3.91203 -0.0871376 0
M  V30 1320 H 120.207 -3.56223 -1.7661 0
M  V30 1321 N 121.204 0.198386 -1.56346 0
M  V30 1322 C 122.167 1.22952 -1.93431 0
M  V30 1323 C 123.167 1.38611 -0.815092 0
M  V30 1324 O 124.357 1.36479 -1.08255 0
M  V30 1325 C 121.489 2.59946 -2.20546 0
M  V30 1326 H 122.682 0.912626 -2.85677 0
M  V30 1327 H 120.235 0.43977 -1.49986 0
M  V30 1328 H 120.97 2.96696 -1.30927 0
M  V30 1329 H 120.755 2.49953 -3.02102 0
M  V30 1330 H 122.245 3.3431 -2.50253 0
M  V30 1331 N 122.682 1.50554 0.465978 0
M  V30 1332 C 123.592 1.72585 1.58907 0
M  V30 1333 C 124.608 0.60911 1.6299 0
M  V30 1334 O 125.784 0.88804 1.80765 0
M  V30 1335 C 122.849 1.81995 2.95091 0
M  V30 1336 C 121.91 3.05751 3.01355 0
M  V30 1337 C 121.143 3.14702 4.31043 0
M  V30 1338 O 121.366 2.30313 5.21835 0
M  V30 1339 O 120.3 4.07468 4.43005 0
M  V30 1340 H 124.126 2.67799 1.43239 0
M  V30 1341 H 121.711 1.34711 0.646013 0
M  V30 1342 H 123.593 1.90335 3.75966 0
M  V30 1343 H 122.268 0.899659 3.10947 0
M  V30 1344 H 121.175 3.02908 2.19539 0
M  V30 1345 H 122.508 3.97375 2.90437 0
M  V30 1346 N 124.16 -0.719506 1.40217 0
M  V30 1347 C 125.107 -1.83359 1.40172 0
M  V30 1348 C 126.077 -1.64065 0.259206 0
M  V30 1349 O 127.262 -1.85254 0.456677 0
M  V30 1350 C 124.402 -3.2103 1.26624 0
M  V30 1351 C 123.515 -3.51923 2.50548 0
M  V30 1352 C 122.65 -4.79079 2.29471 0
M  V30 1353 C 121.689 -5.02863 3.48992 0
M  V30 1354 N 120.826 -6.2123 3.27135 0
M  V30 1355 H 125.666 -1.82733 2.35399 0
M  V30 1356 H 123.203 -0.892688 1.16917 0
M  V30 1357 H 125.161 -4.00524 1.16776 0
M  V30 1358 H 123.791 -3.20895 0.350176 0
M  V30 1359 H 122.843 -2.67014 2.70939 0
M  V30 1360 H 124.155 -3.6541 3.39525 0
M  V30 1361 H 123.309 -5.66582 2.16955 0
M  V30 1362 H 122.048 -4.67794 1.37913 0
M  V30 1363 H 121.053 -4.13816 3.6199 0
M  V30 1364 H 122.278 -5.16023 4.41472 0
M  V30 1365 H 120.224 -6.11204 2.38256 0
M  V30 1366 H 120.141 -6.35375 4.09675 0
M  V30 1367 H 121.409 -7.11532 3.18344 0
M  V30 1368 N 125.638 -1.25649 -0.95132 0
M  V30 1369 C 126.915 -1.01361 -1.67288 0
M  V30 1370 C 127.295 0.459135 -2.06046 0
M  V30 1371 O 126.643 1.43723 -1.7764 0
M  V30 1372 C 126.853 -1.95256 -2.89268 0
M  V30 1373 C 128.201 -2.23289 -3.61147 0
M  V30 1374 O 129.225 -1.93041 -2.99355 0
M  V30 1375 O 128.084 -2.74741 -4.72419 0
M  V30 1376 H 125.178 -0.38464 -0.732107 0
M  V30 1377 H 127.724 -1.36817 -1.00395 0
M  V30 1378 H 126.496 -2.94685 -2.57442 0
M  V30 1379 H 126.119 -1.60218 -3.6389 0
M  V30 1380 N 127.117 1.15442 -1.07289 0
M  V30 1381 C 128.064 2.20161 -0.692653 0
M  V30 1382 C 129.034 1.63073 0.31564 0
M  V30 1383 O 130.219 1.89725 0.202235 0
M  V30 1384 C 127.359 3.44967 -0.0959509 0
M  V30 1385 C 126.472 4.16256 -1.15564 0
M  V30 1386 C 125.607 5.28609 -0.524011 0
M  V30 1387 C 124.646 5.91715 -1.56653 0
M  V30 1388 N 123.783 6.9554 -0.957531 0
M  V30 1389 H 128.623 2.52037 -1.59002 0
M  V30 1390 H 126.16 1.2378 -0.794798 0
M  V30 1391 H 128.118 4.16341 0.267628 0
M  V30 1392 H 126.748 3.1361 0.764772 0
M  V30 1393 H 125.8 3.43385 -1.6368 0
M  V30 1394 H 127.112 4.59268 -1.94613 0
M  V30 1395 H 126.266 6.06604 -0.108032 0
M  V30 1396 H 125.005 4.86787 0.29825 0
M  V30 1397 H 124.01 5.12433 -1.9923 0
M  V30 1398 H 125.235 6.35614 -2.39107 0
M  V30 1399 H 123.181 6.55814 -0.156162 0
M  V30 1400 H 123.098 7.36977 -1.68526 0
M  V30 1401 H 124.366 7.77435 -0.567032 0
M  V30 1402 N 128.595 0.856903 1.32268 0
M  V30 1403 C 129.842 0.461386 1.97174 0
M  V30 1404 C 130.17 -0.983491 1.67803 0
M  V30 1405 O 129.425 -1.70541 0.959903 0
M  V30 1406 C 129.724 0.649919 3.51441 0
M  V30 1407 C 129.39 2.0656 4.00804 0
M  V30 1408 C 128.052 2.45279 4.13995 0
M  V30 1409 C 130.404 2.98947 4.26943 0
M  V30 1410 C 127.732 3.75653 4.50668 0
M  V30 1411 C 130.084 4.28822 4.65075 0
M  V30 1412 C 128.748 4.67472 4.76472 0
M  V30 1413 H 128.018 0.168833 0.72151 0
M  V30 1414 H 130.665 1.08739 1.57633 0
M  V30 1415 H 128.97 -0.0593018 3.91755 0
M  V30 1416 H 130.667 0.32391 3.9969 0
M  V30 1417 H 127.257 1.75495 3.91024 0
M  V30 1418 H 131.441 2.70265 4.16258 0
M  V30 1419 H 126.697 4.05379 4.57688 0
M  V30 1420 H 130.871 5.0047 4.84255 0
M  V30 1421 H 128.498 5.68539 5.04646 0
M  V30 1422 N 130.073 -1.45103 0.615059 0
M  V30 1423 C 131.003 -2.33339 -0.0865619 0
M  V30 1424 C 131.984 -1.4727 -0.851209 0
M  V30 1425 O 133.169 -1.76026 -0.820281 0
M  V30 1426 C 130.299 -3.30095 -1.07956 0
M  V30 1427 C 129.253 -4.25858 -0.427628 0
M  V30 1428 C 128.579 -5.12361 -1.5294 0
M  V30 1429 C 129.879 -5.18165 0.655944 0
M  V30 1430 H 131.573 -2.92254 0.650224 0
M  V30 1431 H 129.119 -1.40532 0.314138 0
M  V30 1432 H 131.072 -3.90698 -1.57901 0
M  V30 1433 H 129.796 -2.69355 -1.84703 0
M  V30 1434 H 128.455 -3.66564 0.0510292 0
M  V30 1435 H 128.103 -4.47984 -2.28734 0
M  V30 1436 H 127.803 -5.77238 -1.09865 0
M  V30 1437 H 129.327 -5.75833 -2.03098 0
M  V30 1438 H 130.741 -5.72796 0.240257 0
M  V30 1439 H 129.138 -5.91559 1.00888 0
M  V30 1440 H 130.208 -4.60144 1.52957 0
M  V30 1441 N 131.551 -0.354651 -1.53558 0
M  V30 1442 C 132.498 0.496968 -2.25386 0
M  V30 1443 C 133.468 1.0865 -1.25636 0
M  V30 1444 O 134.653 1.12104 -1.54394 0
M  V30 1445 C 131.793 1.63637 -3.03837 0
M  V30 1446 C 130.906 1.07307 -4.18461 0
M  V30 1447 C 130.041 2.18068 -4.84376 0
M  V30 1448 C 129.08 1.59147 -5.91049 0
M  V30 1449 N 128.217 2.63695 -6.50699 0
M  V30 1450 H 133.057 -0.122075 -2.9775 0
M  V30 1451 H 130.594 -0.0720154 -1.46924 0
M  V30 1452 H 132.552 2.30734 -3.47589 0
M  V30 1453 H 131.182 2.22623 -2.33749 0
M  V30 1454 H 130.234 0.292708 -3.79272 0
M  V30 1455 H 131.546 0.602193 -4.95152 0
M  V30 1456 H 130.7 2.93007 -5.31255 0
M  V30 1457 H 129.439 2.68504 -4.07133 0
M  V30 1458 H 128.444 0.827175 -5.43542 0
M  V30 1459 H 129.669 1.09549 -6.70206 0
M  V30 1460 H 127.615 3.13365 -5.76315 0
M  V30 1461 H 127.532 2.21263 -7.22896 0
M  V30 1462 H 128.8 3.3837 -7.02229 0
M  V30 1463 N 133.029 1.57378 -0.0835403 0
M  V30 1464 C 134.257 1.98263 0.59157 0
M  V30 1465 C 134.672 0.962302 1.62435 0
M  V30 1466 O 134.029 -0.049581 1.82433 0
M  V30 1467 C 134.08 3.39214 1.24965 0
M  V30 1468 O 133.801 4.37339 0.258186 0
M  V30 1469 C 135.302 3.95038 2.01147 0
M  V30 1470 H 132.522 0.651773 0.159477 0
M  V30 1471 H 135.066 2.03878 -0.159415 0
M  V30 1472 H 133.221 3.34649 1.95164 0
M  V30 1473 H 133.635 5.19371 0.731734 0
M  V30 1474 H 135.109 4.95848 2.42567 0
M  V30 1475 H 135.586 3.32222 2.87272 0
M  V30 1476 H 136.192 4.0304 1.35789 0
M  V30 1477 N 134.507 -0.190092 1.56449 0
M  V30 1478 C 135.44 -1.26375 1.90012 0
M  V30 1479 C 136.418 -1.43705 0.760765 0
M  V30 1480 O 137.602 -1.59014 1.01226 0
M  V30 1481 C 134.729 -2.62962 2.13468 0
M  V30 1482 C 133.775 -2.62474 3.36169 0
M  V30 1483 S 134.608 -2.13412 4.91137 0
M  V30 1484 C 135.764 -3.51812 5.17667 0
M  V30 1485 H 135.997 -0.977181 2.80782 0
M  V30 1486 H 133.53 -0.393814 1.49293 0
M  V30 1487 H 135.488 -3.41583 2.27664 0
M  V30 1488 H 134.149 -2.88828 1.23439 0
M  V30 1489 H 133.342 -3.62918 3.49723 0
M  V30 1490 H 132.944 -1.91937 3.20992 0
M  V30 1491 H 135.236 -4.47706 5.08494 0
M  V30 1492 H 136.179 -3.43148 6.19399 0
M  V30 1493 H 136.587 -3.46956 4.45288 0
M  V30 1494 N 135.985 -1.50799 -0.457987 0
M  V30 1495 C 137.234 -1.6168 -1.20593 0
M  V30 1496 C 137.547 -0.32888 -1.92815 0
M  V30 1497 O 138.753 -0.316773 -2.69646 0
M  V30 1498 C 137.209 -2.8545 -2.19195 0
M  V30 1499 C 136.817 -4.21168 -1.52715 0
M  V30 1500 C 138.561 -3.05681 -2.94549 0
M  V30 1501 C 136.468 -5.3611 -2.4968 0
M  V30 1502 H 135.398 -0.602134 -0.453818 0
M  V30 1503 H 138.049 -1.77245 -0.475031 0
M  V30 1504 H 136.431 -2.63472 -2.95632 0
M  V30 1505 H 137.605 -4.53449 -0.819775 0
M  V30 1506 H 135.92 -4.06648 -0.895922 0
M  V30 1507 H 138.517 -3.88727 -3.67145 0
M  V30 1508 H 138.86 -2.17929 -3.54701 0
M  V30 1509 H 139.393 -3.27901 -2.25223 0
M  V30 1510 H 136.132 -6.26057 -1.94249 0
M  V30 1511 H 135.652 -5.0823 -3.18532 0
M  V30 1512 H 137.331 -5.6722 -3.11241 0
M  V30 1513 N 137.463 0.71206 -1.40597 0
M  V30 1514 C 138.41 1.82613 -1.41142 0
M  V30 1515 C 139.38 1.63925 -0.267903 0
M  V30 1516 O 140.565 1.85009 -0.466495 0
M  V30 1517 C 137.705 3.20354 -1.28324 0
M  V30 1518 C 136.818 3.50589 -2.52411 0
M  V30 1519 C 135.953 4.77855 -2.32009 0
M  V30 1520 C 134.992 5.01005 -3.51654 0
M  V30 1521 N 134.129 6.19487 -3.30425 0
M  V30 1522 H 138.969 1.81482 -2.36365 0
M  V30 1523 H 136.506 0.886475 -1.17388 0
M  V30 1524 H 138.464 3.99899 -1.18899 0
M  V30 1525 H 137.094 3.20705 -0.367189 0
M  V30 1526 H 136.146 2.65573 -2.72351 0
M  V30 1527 H 137.458 3.63604 -3.41458 0
M  V30 1528 H 136.612 5.65424 -2.19956 0
M  V30 1529 H 135.351 4.67056 -1.40392 0
M  V30 1530 H 134.356 4.1189 -3.64179 0
M  V30 1531 H 135.581 5.13674 -4.44202 0
M  V30 1532 H 133.527 6.09932 -2.41494 0
M  V30 1533 H 133.444 6.33194 -4.13039 0
M  V30 1534 H 134.712 7.09834 -3.22113 0
M  V30 1535 N 138.941 1.26152 0.944643 0
M  V30 1536 C 139.871 1.09902 2.06019 0
M  V30 1537 C 140.852 0.00519538 1.70099 0
M  V30 1538 O 142.037 0.176583 1.93396 0
M  V30 1539 C 139.167 0.727562 3.39594 0
M  V30 1540 C 138.121 1.77274 3.89561 0
M  V30 1541 C 137.447 1.25569 5.19747 0
M  V30 1542 C 138.747 3.17357 4.14827 0
M  V30 1543 H 140.441 2.03217 2.19871 0
M  V30 1544 H 137.987 0.978452 1.05652 0
M  V30 1545 H 139.94 0.600777 4.17095 0
M  V30 1546 H 138.664 -0.241287 3.25707 0
M  V30 1547 H 137.323 1.88814 3.14237 0
M  V30 1548 H 136.971 0.276783 5.02238 0
M  V30 1549 H 136.671 1.95433 5.54148 0
M  V30 1550 H 138.195 1.1415 5.99835 0
M  V30 1551 H 139.609 3.08914 4.82954 0
M  V30 1552 H 138.006 3.84781 4.60504 0
M  V30 1553 H 139.076 3.63673 3.20734 0
M  V30 1554 N 140.419 -1.14872 1.07899 0
M  V30 1555 C 141.666 -1.85789 0.805532 0
M  V30 1556 C 141.994 -1.82649 -0.668561 0
M  V30 1557 O 141.249 -1.24858 -1.50695 0
M  V30 1558 C 141.548 -3.34223 1.26609 0
M  V30 1559 C 141.214 -3.57555 2.74709 0
M  V30 1560 C 139.876 -3.63631 3.1516 0
M  V30 1561 C 142.228 -3.66803 3.70277 0
M  V30 1562 C 139.556 -3.76473 4.49983 0
M  V30 1563 C 141.908 -3.8117 5.04869 0
M  V30 1564 C 140.572 -3.85494 5.44932 0
M  V30 1565 H 139.842 -0.679849 0.294765 0
M  V30 1566 H 142.489 -1.3572 1.35101 0
M  V30 1567 H 140.794 -3.86536 0.640103 0
M  V30 1568 H 142.491 -3.87511 1.03132 0
M  V30 1569 H 139.081 -3.5347 2.42398 0
M  V30 1570 H 143.265 -3.61404 3.40149 0
M  V30 1571 H 138.521 -3.7808 4.80484 0
M  V30 1572 H 142.695 -3.87268 5.78789 0
M  V30 1573 H 140.322 -3.95197 6.49403 0
M  V30 1574 N 141.898 -0.863906 -1.31812 0
M  V30 1575 C 142.846 -0.30422 -2.30602 0
M  V30 1576 C 143.84 0.577419 -1.59255 0
M  V30 1577 O 145.046 0.464194 -1.73912 0
M  V30 1578 H 141.421 -0.0796877 -0.747766 0
M  V30 1579 H 143.392 -1.15148 -2.75288 0
M  V30 1580 C 142.141 0.484617 -3.44306 0
M  V30 1581 H 141.464 -0.18451 -3.99374 0
M  V30 1582 H 142.904 0.841664 -4.15562 0
M  V30 1583 C 141.363 1.6735 -2.92396 0
M  V30 1584 O 141.893 2.77273 -2.90659 0
M  V30 1585 N 140.099 1.50362 -2.48676 0
M  V30 1586 H 139.646 0.609402 -2.50288 0
M  V30 1587 H 139.604 2.30051 -2.14299 0
M  V30 1588 N 143.376 1.44774 -0.622745 0
M  V30 1589 C 144.792 1.56986 -0.287652 0
M  V30 1590 C 144.992 1.61167 1.20944 0
M  V30 1591 O 144.048 1.55015 1.99315 0
M  V30 1592 C 145.361 2.84551 -0.972188 0
M  V30 1593 C 146.909 2.9825 -0.949536 0
M  V30 1594 C 147.384 4.28605 -1.61437 0
M  V30 1595 N 148.875 4.35399 -1.58057 0
M  V30 1596 C 149.61 5.34964 -2.064 0
M  V30 1597 N 149.106 6.40981 -2.62897 0
M  V30 1598 N 150.899 5.26419 -1.97078 0
M  V30 1599 H 143.05 1.40304 -1.59463 0
M  V30 1600 H 145.313 0.671794 -0.668878 0
M  V30 1601 H 145.019 2.87417 -2.02693 0
M  V30 1602 H 144.893 3.73807 -0.504771 0
M  V30 1603 H 147.28 2.94941 0.0967067 0
M  V30 1604 H 147.361 2.10364 -1.45536 0
M  V30 1605 H 147.005 4.32672 -2.66002 0
M  V30 1606 H 146.935 5.15334 -1.08344 0
M  V30 1607 H 149.426 3.59397 -1.16801 0
M  V30 1608 H 149.739 7.13225 -2.97539 0
M  V30 1609 H 148.084 6.4169 -2.66943 0
M  V30 1610 H 151.275 4.42504 -1.52669 0
M  V30 1611 H 151.448 6.03861 -2.35066 0
M  V30 1612 N 144.854 0.36279 1.53368 0
M  V30 1613 C 146.103 -0.22888 2.00397 0
M  V30 1614 C 146.416 -1.50096 1.25421 0
M  V30 1615 O 147.622 -2.17106 1.63025 0
M  V30 1616 C 146.078 -0.458417 3.56969 0
M  V30 1617 C 145.686 0.798877 4.4082 0
M  V30 1618 C 147.43 -1.00789 4.12361 0
M  V30 1619 C 145.337 0.539078 5.88938 0
M  V30 1620 H 144.267 -0.089305 0.748693 0
M  V30 1621 H 146.918 0.481099 1.77081 0
M  V30 1622 H 145.3 -1.22959 3.76427 0
M  V30 1623 H 146.474 1.57262 4.33134 0
M  V30 1624 H 144.789 1.27137 3.96516 0
M  V30 1625 H 147.386 -1.21754 5.20653 0
M  V30 1626 H 147.729 -1.9692 3.66781 0
M  V30 1627 H 148.262 -0.296961 3.9669 0
M  V30 1628 H 145.001 1.47064 6.3879 0
M  V30 1629 H 144.521 -0.196222 5.99479 0
M  V30 1630 H 146.2 0.163542 6.46793 0
M  V30 1631 N 146.332 -1.57332 0.0918853 0
M  V30 1632 C 147.28 -2.15075 -0.885747 0
M  V30 1633 C 148.274 -1.09277 -1.29441 0
M  V30 1634 O 149.48 -1.27627 -1.26931 0
M  V30 1635 H 145.855 -0.687966 -0.303656 0
M  V30 1636 H 147.826 -2.96047 -0.373995 0
M  V30 1637 C 146.575 -2.74325 -2.13638 0
M  V30 1638 H 145.898 -3.55418 -1.8308 0
M  V30 1639 H 147.338 -3.183 -2.80109 0
M  V30 1640 C 145.797 -1.70062 -2.90827 0
M  V30 1641 O 146.327 -1.13763 -3.85254 0
M  V30 1642 N 144.533 -1.40628 -2.54307 0
M  V30 1643 H 144.08 -1.866 -1.7759 0
M  V30 1644 H 144.038 -0.711043 -3.06254 0
M  V30 1645 N 147.81 0.181792 -1.56548 0
M  V30 1646 C 149.035 0.920019 -1.85877 0
M  V30 1647 C 149.46 1.75494 -0.677021 0
M  V30 1648 O 148.818 1.77399 0.374056 0
M  V30 1649 C 148.866 1.78112 -3.13542 0
M  V30 1650 O 147.97 2.88152 -2.95029 0
M  V30 1651 H 147.311 0.258334 -0.611686 0
M  V30 1652 H 149.841 0.183092 -2.03779 0
M  V30 1653 H 149.851 2.18314 -3.44678 0
M  V30 1654 H 148.526 1.16777 -3.99169 0
M  V30 1655 H 147.103 2.51609 -2.75222 0
M  V30 1656 N 149.288 1.51039 0.449983 0
M  V30 1657 C 150.235 1.71439 1.54523 0
M  V30 1658 C 151.205 0.555871 1.56522 0
M  V30 1659 O 152.39 0.788871 1.73728 0
M  V30 1660 C 149.53 1.83384 2.92343 0
M  V30 1661 C 148.643 3.10873 2.9997 0
M  V30 1662 C 147.778 3.13488 4.28834 0
M  V30 1663 C 146.817 4.35343 4.30282 0
M  V30 1664 N 145.954 4.35579 5.5065 0
M  V30 1665 H 150.794 2.64934 1.36433 0
M  V30 1666 H 148.331 1.31312 0.662982 0
M  V30 1667 H 150.289 1.88291 3.72293 0
M  V30 1668 H 148.919 0.933086 3.0902 0
M  V30 1669 H 147.971 3.15336 2.12761 0
M  V30 1670 H 149.283 4.00814 2.96901 0
M  V30 1671 H 148.437 3.17241 5.17149 0
M  V30 1672 H 147.176 2.21414 4.34543 0
M  V30 1673 H 146.181 4.3178 3.40362 0
M  V30 1674 H 147.406 5.28668 4.26248 0
M  V30 1675 H 145.352 3.46369 5.57104 0
M  V30 1676 H 145.269 5.19313 5.49409 0
M  V30 1677 H 146.537 4.43507 6.41032 0
M  V30 1678 N 150.766 -0.704594 1.40972 0
M  V30 1679 C 152.177 -1.28418 1.3552 0
M  V30 1680 C 152.528 -1.96171 0.0339434 0
M  V30 1681 O 151.653 -1.98231 -0.867944 0
M  V30 1682 C 152.248 -2.33528 2.45459 0
M  V30 1683 C 150.807 -2.87085 2.43433 0
M  V30 1684 C 149.954 -1.61007 2.2577 0
M  V30 1685 H 152.905 -0.499963 1.50619 0
M  V30 1686 H 152.926 -3.14619 2.13998 0
M  V30 1687 H 152.438 -1.84187 3.41609 0
M  V30 1688 H 150.539 -3.40626 1.51013 0
M  V30 1689 H 150.652 -3.3813 3.39419 0
M  V30 1690 H 149.016 -1.86482 1.73483 0
M  V30 1691 H 149.799 -1.13675 3.23933 0
M  V30 1692 N 152.244 -1.26651 -0.937939 0
M  V30 1693 C 153.469 -1.15279 -1.72411 0
M  V30 1694 C 153.894 0.287866 -1.85884 0
M  V30 1695 O 153.252 1.20855 -1.35143 0
M  V30 1696 C 153.3 -1.83028 -3.10698 0
M  V30 1697 O 152.404 -1.12128 -3.96864 0
M  V30 1698 H 151.745 -0.401504 -0.528858 0
M  V30 1699 H 154.275 -1.67531 -1.1745 0
M  V30 1700 H 154.285 -1.89981 -3.6107 0
M  V30 1701 H 152.96 -2.87833 -3.00208 0
M  V30 1702 H 151.537 -1.13173 -3.55312 0
M  V30 1703 N 153.722 1.14298 -1.08507 0
M  V30 1704 C 154.97 1.84993 -0.813763 0
M  V30 1705 C 155.291 1.83405 0.662393 0
M  V30 1706 O 154.561 1.28319 1.48024 0
M  V30 1707 H 153.141 0.684966 -0.298045 0
M  V30 1708 H 155.803 1.385 -1.37126 0
M  V30 1709 H 154.899 2.89788 -1.15884 0
M  V30 1710 N 155.201 0.870884 1.31352 0
M  V30 1711 C 156.133 0.28455 2.27427 0
M  V30 1712 C 157.146 -0.552927 1.53123 0
M  V30 1713 O 158.335 -0.374771 1.74521 0
M  V30 1714 C 155.435 -0.615164 3.3327 0
M  V30 1715 C 154.608 0.190079 4.36987 0
M  V30 1716 C 153.667 -0.637917 5.22319 0
M  V30 1717 O 152.693 -0.065626 5.69162 0
M  V30 1718 N 153.895 -1.94973 5.46778 0
M  V30 1719 H 156.66 1.11017 2.7838 0
M  V30 1720 H 154.221 0.732458 1.44384 0
M  V30 1721 H 156.213 -1.1748 3.87273 0
M  V30 1722 H 154.783 -1.34146 2.82354 0
M  V30 1723 H 154.003 0.931165 3.83044 0
M  V30 1724 H 155.291 0.742579 5.03352 0
M  V30 1725 H 154.689 -2.4378 5.10478 0
M  V30 1726 H 153.246 -2.45713 6.03712 0
M  V30 1727 N 156.679 -1.44442 0.630414 0
M  V30 1728 C 158.095 -1.56832 0.295973 0
M  V30 1729 C 158.295 -1.61806 -1.20088 0
M  V30 1730 O 157.351 -1.5607 -1.9849 0
M  V30 1731 C 158.664 -2.84031 0.987264 0
M  V30 1732 C 160.212 -2.97742 0.96534 0
M  V30 1733 C 160.687 -4.27743 1.63708 0
M  V30 1734 N 162.178 -4.34555 1.60364 0
M  V30 1735 C 162.913 -5.33862 2.09234 0
M  V30 1736 N 162.409 -6.39578 2.66292 0
M  V30 1737 N 164.202 -5.25366 1.99867 0
M  V30 1738 H 156.353 -1.39457 1.60205 0
M  V30 1739 H 158.616 -0.668237 0.672431 0
M  V30 1740 H 158.322 -2.86338 2.04215 0
M  V30 1741 H 158.196 -3.73534 0.524588 0
M  V30 1742 H 160.583 -2.94989 -0.0810639 0
M  V30 1743 H 160.664 -2.09589 1.4665 0
M  V30 1744 H 160.308 -4.31255 2.68293 0
M  V30 1745 H 160.238 -5.14752 1.11076 0
M  V30 1746 H 162.729 -3.58772 1.18705 0
M  V30 1747 H 163.042 -7.11637 3.01317 0
M  V30 1748 H 161.387 -6.40265 2.70343 0
M  V30 1749 H 164.578 -4.41688 1.55013 0
M  V30 1750 H 164.751 -6.02606 2.38265 0
M  V30 1751 N 158.157 -0.370918 -1.53173 0
M  V30 1752 C 159.087 0.464847 -2.28826 0
M  V30 1753 C 160.068 1.07936 -1.31468 0
M  V30 1754 O 161.253 1.0956 -1.60344 0
M  V30 1755 C 158.383 1.60196 -3.08147 0
M  V30 1756 C 157.337 1.11443 -4.13237 0
M  V30 1757 C 156.663 2.3422 -4.80672 0
M  V30 1758 C 157.963 0.195384 -5.21934 0
M  V30 1759 H 159.657 -0.166329 -2.98938 0
M  V30 1760 H 157.203 -0.0814359 -1.4377 0
M  V30 1761 H 159.156 2.19332 -3.59822 0
M  V30 1762 H 157.88 2.26045 -2.35735 0
M  V30 1763 H 156.539 0.545727 -3.62515 0
M  V30 1764 H 156.187 2.98537 -4.04827 0
M  V30 1765 H 155.887 2.02269 -5.51689 0
M  V30 1766 H 157.411 2.94032 -5.35143 0
M  V30 1767 H 158.825 0.694375 -5.69079 0
M  V30 1768 H 157.222 -0.0335027 -6.00091 0
M  V30 1769 H 158.292 -0.760961 -4.78892 0
M  V30 1770 N 159.635 1.57281 -0.100228 0
M  V30 1771 C 160.565 2.17328 0.853857 0
M  V30 1772 C 161.546 1.10804 1.2906 0
M  V30 1773 O 162.731 1.38963 1.35657 0
M  V30 1774 C 159.861 2.75772 2.11109 0
M  V30 1775 C 158.815 3.87713 1.81279 0
M  V30 1776 C 158.141 4.32882 3.13874 0
M  V30 1777 C 159.441 5.10677 1.09574 0
M  V30 1778 H 161.135 2.97305 0.353545 0
M  V30 1779 H 158.681 1.43009 0.168612 0
M  V30 1780 H 160.634 3.16433 2.78296 0
M  V30 1781 H 159.358 1.93057 2.63432 0
M  V30 1782 H 158.017 3.476 1.16489 0
M  V30 1783 H 157.665 3.47051 3.64095 0
M  V30 1784 H 157.365 5.08358 2.94696 0
M  V30 1785 H 158.889 4.7618 3.82211 0
M  V30 1786 H 160.303 5.48474 1.66879 0
M  V30 1787 H 158.7 5.91615 1.00557 0
M  V30 1788 H 159.77 4.84835 0.0793299 0
M  V30 1789 N 161.113 -0.173488 1.56642 0
M  V30 1790 C 162.39 -0.917617 1.7274 0
M  V30 1791 C 162.77 -2.00484 0.661027 0
M  V30 1792 O 162.118 -2.26184 -0.32453 0
M  V30 1793 C 162.328 -1.48433 3.15862 0
M  V30 1794 C 163.676 -1.95809 3.76754 0
M  V30 1795 O 164.7 -1.58231 3.19126 0
M  V30 1796 O 163.559 -2.65024 4.77938 0
M  V30 1797 H 160.653 -0.431772 0.705338 0
M  V30 1798 H 163.199 -0.161487 1.6893 0
M  V30 1799 H 161.971 -0.701715 3.84957 0
M  V30 1800 H 161.594 -2.30471 3.23989 0
M  V30 1801 N 162.591 -1.51276 -0.441967 0
M  V30 1802 C 163.524 -1.66933 -1.55591 0
M  V30 1803 C 164.502 -0.516958 -1.54163 0
M  V30 1804 O 165.686 -0.740209 -1.73358 0
M  V30 1805 C 162.813 -1.67866 -2.94174 0
M  V30 1806 C 161.859 -2.89013 -3.13646 0
M  V30 1807 S 162.692 -4.49897 -2.90436 0
M  V30 1808 C 163.848 -4.53568 -4.31308 0
M  V30 1809 H 164.081 -2.61155 -1.42076 0
M  V30 1810 H 161.614 -1.40902 -0.631341 0
M  V30 1811 H 163.572 -1.69089 -3.74058 0
M  V30 1812 H 162.233 -0.748296 -3.05056 0
M  V30 1813 H 161.426 -2.86054 -4.14957 0
M  V30 1814 H 161.028 -2.85509 -2.4158 0
M  V30 1815 H 163.32 -4.28924 -5.24434 0
M  V30 1816 H 164.263 -5.55355 -4.39303 0
M  V30 1817 H 164.671 -3.82943 -4.14747 0
M  V30 1818 N 164.069 0.697108 -1.41344 0
M  V30 1819 C 165.318 1.45279 -1.39918 0
M  V30 1820 C 165.631 1.95597 -0.0109624 0
M  V30 1821 O 166.837 2.71208 0.125919 0
M  V30 1822 C 165.293 2.62695 -2.46007 0
M  V30 1823 C 164.901 2.19169 -3.90729 0
M  V30 1824 C 166.645 3.40336 -2.53715 0
M  V30 1825 C 164.552 3.33535 -4.88373 0
M  V30 1826 H 163.482 0.545692 -0.520323 0
M  V30 1827 H 166.133 0.756929 -1.67161 0
M  V30 1828 H 164.515 3.34541 -2.11892 0
M  V30 1829 H 165.689 1.54623 -4.34083 0
M  V30 1830 H 164.004 1.54525 -3.86666 0
M  V30 1831 H 166.601 4.2547 -3.2385 0
M  V30 1832 H 166.944 3.85418 -1.5735 0
M  V30 1833 H 167.477 2.75546 -2.86913 0
M  V30 1834 H 164.216 2.93468 -5.86137 0
M  V30 1835 H 163.736 3.96936 -4.49668 0
M  V30 1836 H 165.415 3.99335 -5.09059 0
M  V30 1837 N 165.547 1.27147 0.931209 0
M  V30 1838 C 166.793 1.13446 1.68101 0
M  V30 1839 C 167.126 -0.319628 1.91552 0
M  V30 1840 O 166.401 -1.23407 1.50336 0
M  V30 1841 C 166.684 1.91482 3.0497 0
M  V30 1842 C 166.537 3.44855 2.88782 0
M  V30 1843 C 167.856 1.71651 4.05246 0
M  V30 1844 H 164.975 0.413498 0.610072 0
M  V30 1845 H 167.617 1.56261 1.08086 0
M  V30 1846 H 165.767 1.55095 3.56199 0
M  V30 1847 H 167.439 3.9105 2.44698 0
M  V30 1848 H 165.682 3.71373 2.24198 0
M  V30 1849 H 166.353 3.94694 3.85902 0
M  V30 1850 H 168.829 2.0337 3.63015 0
M  V30 1851 H 167.705 2.28651 4.99009 0
M  V30 1852 H 167.966 0.663555 4.37092 0
M  V30 1853 N 167.025 -1.13721 1.09112 0
M  V30 1854 C 168.302 -1.81155 0.737706 0
M  V30 1855 C 168.682 -1.96253 -0.777683 0
M  V30 1856 O 168.03 -1.52807 -1.69889 0
M  V30 1857 C 168.24 -3.16392 1.47299 0
M  V30 1858 C 169.588 -3.91787 1.63671 0
M  V30 1859 O 170.612 -3.26005 1.43524 0
M  V30 1860 O 169.471 -5.0977 1.96969 0
M  V30 1861 H 166.565 -0.783518 0.26463 0
M  V30 1862 H 169.111 -1.20676 1.19312 0
M  V30 1863 H 167.883 -3.0061 2.50498 0
M  V30 1864 H 167.506 -3.8457 1.00953 0
M  V30 1865 N 168.503 -0.877838 -1.30888 0
M  V30 1866 C 169.466 -0.344265 -2.266 0
M  V30 1867 C 170.466 0.50922 -1.52524 0
M  V30 1868 O 171.656 0.317398 -1.71284 0
M  V30 1869 C 168.788 0.510198 -3.37061 0
M  V30 1870 H 169.981 -1.1893 -2.7531 0
M  V30 1871 H 167.534 -0.654088 -1.41956 0
M  V30 1872 H 168.269 1.37612 -2.93655 0
M  V30 1873 H 168.054 -0.101047 -3.9197 0
M  V30 1874 H 169.544 0.875537 -4.08319 0
M  V30 1875 N 169.982 1.44106 -0.638065 0
M  V30 1876 C 171.231 2.01194 -0.142744 0
M  V30 1877 C 171.544 1.50835 1.24532 0
M  V30 1878 O 172.75 2.00096 1.83504 0
M  V30 1879 C 171.206 3.59319 -0.20442 0
M  V30 1880 C 170.814 4.18674 -1.59423 0
M  V30 1881 C 172.558 4.23854 0.234079 0
M  V30 1882 C 170.465 5.69045 -1.61065 0
M  V30 1883 H 169.395 0.752367 -0.0495998 0
M  V30 1884 H 172.046 1.65246 -0.797881 0
M  V30 1885 H 170.428 3.92598 0.517946 0
M  V30 1886 H 171.602 3.96921 -2.34074 0
M  V30 1887 H 169.917 3.66453 -1.97741 0
M  V30 1888 H 172.514 5.34155 0.241443 0
M  V30 1889 H 172.857 3.96688 1.2627 0
M  V30 1890 H 173.39 3.95403 -0.436025 0
M  V30 1891 H 170.129 6.00956 -2.61787 0
M  V30 1892 H 169.649 5.929 -0.90718 0
M  V30 1893 H 171.328 6.32809 -1.34766 0
M  V30 1894 N 171.46 0.379036 1.52974 0
M  V30 1895 C 172.871 -0.0972525 1.86447 0
M  V30 1896 C 173.222 -1.47027 1.29914 0
M  V30 1897 O 172.347 -2.07135 0.626433 0
M  V30 1898 C 172.942 -0.183248 3.38304 0
M  V30 1899 C 171.501 -0.603812 3.71525 0
M  V30 1900 C 170.648 0.240632 2.76254 0
M  V30 1901 H 173.599 0.597316 1.4703 0
M  V30 1902 H 173.62 -1.00432 3.67006 0
M  V30 1903 H 173.132 0.816191 3.79421 0
M  V30 1904 H 171.233 -1.61099 3.35973 0
M  V30 1905 H 171.346 -0.369086 4.77676 0
M  V30 1906 H 169.71 -0.292548 2.53014 0
M  V30 1907 H 170.493 1.23786 3.20206 0
M  V30 1908 N 172.938 -1.57226 0.108567 0
M  V30 1909 C 174.168 -1.9889 -0.559142 0
M  V30 1910 C 174.576 -0.986889 -1.61422 0
M  V30 1911 O 173.919 0.0298705 -1.83676 0
M  V30 1912 C 173.981 -3.36952 -1.25315 0
M  V30 1913 C 173.645 -4.55679 -0.347248 0
M  V30 1914 C 174.642 -5.18281 0.409996 0
M  V30 1915 C 172.327 -5.0162 -0.261367 0
M  V30 1916 C 174.321 -6.25203 1.24096 0
M  V30 1917 C 172.008 -6.08405 0.573238 0
M  V30 1918 C 173.006 -6.70063 1.32304 0
M  V30 1919 O 172.694 -7.74788 2.14381 0
M  V30 1920 H 172.426 -0.658343 -0.153492 0
M  V30 1921 H 174.98 -2.04532 0.188584 0
M  V30 1922 H 173.21 -3.28032 -2.04773 0
M  V30 1923 H 174.899 -3.62974 -1.81673 0
M  V30 1924 H 175.665 -4.8371 0.353457 0
M  V30 1925 H 171.544 -4.53381 -0.834656 0
M  V30 1926 H 175.088 -6.73259 1.82669 0
M  V30 1927 H 170.985 -6.42406 0.631208 0
M  V30 1928 H 171.753 -7.91837 2.07209 0
M  V30 1929 N 174.416 0.165178 -1.56732 0
M  V30 1930 C 175.346 1.20651 -1.99914 0
M  V30 1931 C 176.327 1.45827 -0.875705 0
M  V30 1932 O 177.512 1.57057 -1.14223 0
M  V30 1933 C 174.642 2.54401 -2.36427 0
M  V30 1934 C 173.596 2.43782 -3.51787 0
M  V30 1935 C 172.922 3.82078 -3.7406 0
M  V30 1936 C 174.222 1.93732 -4.85041 0
M  V30 1937 H 175.916 0.847534 -2.87154 0
M  V30 1938 H 173.462 0.40625 -1.38151 0
M  V30 1939 H 175.415 3.27458 -2.65234 0
M  V30 1940 H 174.139 2.92098 -1.46103 0
M  V30 1941 H 172.798 1.73178 -3.23117 0
M  V30 1942 H 172.446 4.17179 -2.81017 0
M  V30 1943 H 172.146 3.7584 -4.51684 0
M  V30 1944 H 173.67 4.56712 -4.05274 0
M  V30 1945 H 175.084 2.56569 -5.12684 0
M  V30 1946 H 173.481 1.98428 -5.66345 0
M  V30 1947 H 174.551 0.891962 -4.76626 0
M  V30 1948 N 175.894 1.51508 0.433938 0
M  V30 1949 C 177.142 1.6402 1.18075 0
M  V30 1950 C 177.463 0.360328 1.91642 0
M  V30 1951 O 176.733 -0.623945 1.85698 0
M  V30 1952 H 175.313 0.6045 0.43885 0
M  V30 1953 H 177.975 1.88452 0.497178 0
M  V30 1954 H 177.071 2.46949 1.90847 0
M  V30 1955 N 177.372 -0.689602 1.41712 0
M  V30 1956 C 178.32 -1.82475 1.44242 0
M  V30 1957 C 179.314 -1.66354 0.319774 0
M  V30 1958 O 180.52 -1.73143 0.492089 0
M  V30 1959 H 176.895 -0.601416 0.451445 0
M  V30 1960 H 178.866 -1.77458 2.39899 0
M  V30 1961 C 177.615 -3.20535 1.3473 0
M  V30 1962 H 176.938 -3.33559 2.20405 0
M  V30 1963 H 178.378 -4.00023 1.40562 0
M  V30 1964 C 176.837 -3.36846 0.0603281 0
M  V30 1965 O 177.367 -3.91656 -0.892663 0
M  V30 1966 N 175.573 -2.90595 -0.0177039 0
M  V30 1967 H 175.12 -2.46178 0.758572 0
M  V30 1968 H 175.078 -3.01886 -0.878201 0
M  V30 1969 N 178.85 -1.27639 -0.924453 0
M  V30 1970 C 179.813 -1.10681 -2.00705 0
M  V30 1971 C 180.813 -0.0497823 -1.60723 0
M  V30 1972 O 182.003 -0.294654 -1.7169 0
M  V30 1973 C 179.135 -0.687164 -3.33902 0
M  V30 1974 H 180.328 -2.06817 -2.17179 0
M  V30 1975 H 177.881 -1.10473 -1.10569 0
M  V30 1976 H 178.616 0.275439 -3.23128 0
M  V30 1977 H 178.401 -1.45061 -3.6428 0
M  V30 1978 H 179.891 -0.590853 -4.13399 0
M  V30 1979 N 180.328 1.1314 -1.09713 0
M  V30 1980 C 181.553 1.88862 -0.857081 0
M  V30 1981 C 181.978 1.78729 0.586304 0
M  V30 1982 O 181.336 1.13692 1.41222 0
M  V30 1983 C 181.384 3.36325 -1.30069 0
M  V30 1984 O 180.488 4.09815 -0.461007 0
M  V30 1985 H 179.829 0.587108 -0.310162 0
M  V30 1986 H 182.359 1.43129 -1.46203 0
M  V30 1987 H 182.369 3.87157 -1.28738 0
M  V30 1988 H 181.044 3.43017 -2.35185 0
M  V30 1989 H 179.621 3.68986 -0.538888 0
M  V30 1990 N 181.806 0.884767 1.30421 0
M  V30 1991 C 183.034 0.518044 2.0031 0
M  V30 1992 C 183.449 -0.893408 1.66324 0
M  V30 1993 O 182.806 -1.5875 0.900262 0
M  V30 1994 C 182.857 0.682997 3.54989 0
M  V30 1995 O 182.578 2.03888 3.87764 0
M  V30 1996 C 184.079 0.31924 4.42149 0
M  V30 1997 H 181.299 0.200265 0.640418 0
M  V30 1998 H 183.843 1.19001 1.6631 0
M  V30 1999 H 181.998 0.0584052 3.87356 0
M  V30 2000 H 182.412 2.05735 4.82466 0
M  V30 2001 H 183.886 0.485555 5.4986 0
M  V30 2002 H 184.363 -0.742717 4.32875 0
M  V30 2003 H 184.969 0.920147 4.15227 0
M  V30 2004 N 183.284 -1.43765 0.645699 0
M  V30 2005 C 184.695 -1.85193 0.236719 0
M  V30 2006 C 185.046 -1.54045 -1.21509 0
M  V30 2007 O 184.171 -0.985694 -1.92647 0
M  V30 2008 C 184.766 -3.36151 0.422845 0
M  V30 2009 C 183.325 -3.76338 0.0682492 0
M  V30 2010 C 182.472 -2.67538 0.729306 0
M  V30 2011 H 185.423 -1.34025 0.849883 0
M  V30 2012 H 185.444 -3.79032 -0.333904 0
M  V30 2013 H 184.956 -3.5879 1.47958 0
M  V30 2014 H 183.057 -3.59312 -0.986179 0
M  V30 2015 H 183.17 -4.76603 0.488469 0
M  V30 2016 H 181.534 -2.54176 0.163235 0
M  V30 2017 H 182.317 -2.93006 1.78892 0
M  V30 2018 N 184.763 -0.387143 -1.52771 0
M  V30 2019 C 186.174 0.0873634 -1.86495 0
M  V30 2020 C 186.525 1.46336 -1.30691 0
M  V30 2021 O 185.65 2.068 -0.637409 0
M  V30 2022 C 186.245 0.165305 -3.38396 0
M  V30 2023 C 184.804 0.584101 -3.7184 0
M  V30 2024 C 183.951 -0.255279 -2.76122 0
M  V30 2025 H 186.902 -0.605104 -1.46711 0
M  V30 2026 H 186.923 0.984848 -3.67534 0
M  V30 2027 H 186.435 -0.836301 -3.78982 0
M  V30 2028 H 184.536 1.59315 -3.36823 0
M  V30 2029 H 184.649 0.343749 -4.77865 0
M  V30 2030 H 183.013 0.279126 -2.53166 0
M  V30 2031 H 183.796 -1.25482 -3.19545 0
M  V30 2032 N 186.241 1.57166 -0.116904 0
M  V30 2033 C 187.518 1.86645 0.585049 0
M  V30 2034 C 187.898 1.0177 1.84949 0
M  V30 2035 O 187.246 0.0960379 2.28298 0
M  V30 2036 C 187.456 3.37736 0.879507 0
M  V30 2037 C 188.804 4.06289 1.23348 0
M  V30 2038 O 189.828 3.42743 0.969836 0
M  V30 2039 O 188.687 5.18455 1.7282 0
M  V30 2040 H 185.781 0.772593 0.295007 0
M  V30 2041 H 188.327 1.69025 -0.151249 0
M  V30 2042 H 187.099 3.91296 -0.0166136 0
M  V30 2043 H 186.722 3.6078 1.67103 0
M  V30 2044 N 187.719 -0.156864 1.56817 0
M  V30 2045 C 188.666 -1.19394 1.97519 0
M  V30 2046 C 189.636 -1.4322 0.841265 0
M  V30 2047 O 190.821 -1.55719 1.10255 0
M  V30 2048 C 187.961 -2.52483 2.35258 0
M  V30 2049 C 187.074 -2.35914 3.61896 0
M  V30 2050 C 186.209 -3.61969 3.88782 0
M  V30 2051 C 185.248 -3.40395 5.08722 0
M  V30 2052 N 184.385 -4.58556 5.31668 0
M  V30 2053 H 189.225 -0.839845 2.85921 0
M  V30 2054 H 186.762 -0.403264 1.41464 0
M  V30 2055 H 188.72 -3.30071 2.55165 0
M  V30 2056 H 187.35 -2.85859 1.49949 0
M  V30 2057 H 186.402 -1.49429 3.49821 0
M  V30 2058 H 187.714 -2.15926 4.49641 0
M  V30 2059 H 186.868 -4.47989 4.09135 0
M  V30 2060 H 185.607 -3.84951 2.9944 0
M  V30 2061 H 184.612 -2.52763 4.88253 0
M  V30 2062 H 185.837 -3.18822 5.99608 0
M  V30 2063 H 183.783 -4.81729 4.45279 0
M  V30 2064 H 183.7 -4.41535 6.13664 0
M  V30 2065 H 184.968 -5.45817 5.5651 0
M  V30 2066 N 189.197 -1.51736 -0.425897 0
M  V30 2067 C 190.444 -1.6497 -1.17436 0
M  V30 2068 C 190.772 -0.371445 -1.9092 0
M  V30 2069 O 190.027 0.644963 -1.84767 0
M  V30 2070 C 190.326 -2.81103 -2.20717 0
M  V30 2071 C 189.992 -4.19954 -1.64162 0
M  V30 2072 C 188.654 -4.57725 -1.48462 0
M  V30 2073 C 191.006 -5.06552 -1.22696 0
M  V30 2074 C 188.334 -5.79789 -0.897873 0
M  V30 2075 C 190.686 -6.29205 -0.654464 0
M  V30 2076 C 189.35 -6.6574 -0.484456 0
M  V30 2077 H 188.62 -0.603668 -0.429727 0
M  V30 2078 H 191.267 -1.85798 -0.463829 0
M  V30 2079 H 189.572 -2.54542 -2.97852 0
M  V30 2080 H 191.269 -2.8854 -2.78471 0
M  V30 2081 H 187.859 -3.90181 -1.77361 0
M  V30 2082 H 192.043 -4.77968 -1.33642 0
M  V30 2083 H 187.299 -6.06733 -0.75402 0
M  V30 2084 H 191.473 -6.95643 -0.324694 0
M  V30 2085 H 189.1 -7.60195 -0.0276833 0
M  V30 2086 N 190.675 0.682077 -1.42076 0
M  V30 2087 C 191.638 1.77756 -1.44691 0
M  V30 2088 C 192.638 1.5726 -0.335535 0
M  V30 2089 O 193.828 1.63686 -0.596037 0
M  V30 2090 C 190.96 3.16301 -1.27146 0
M  V30 2091 H 192.153 1.76826 -2.42224 0
M  V30 2092 H 189.706 0.891012 -1.28416 0
M  V30 2093 H 190.441 3.22862 -0.305075 0
M  V30 2094 H 190.226 3.32581 -2.07683 0
M  V30 2095 H 191.716 3.96241 -1.31843 0
M  V30 2096 N 192.153 1.28127 0.917671 0
M  V30 2097 C 193.116 1.11744 2.00115 0
M  V30 2098 C 194.116 0.0583052 1.60694 0
M  V30 2099 O 195.306 0.303755 1.71531 0
M  V30 2100 C 192.438 0.704862 3.33533 0
M  V30 2101 H 193.631 2.07966 2.16079 0
M  V30 2102 H 191.184 1.11058 1.09981 0
M  V30 2103 H 191.919 -0.258299 3.2327 0
M  V30 2104 H 191.704 1.4699 3.63505 0
M  V30 2105 H 193.194 0.612768 4.1308 0
M  V30 2106 N 193.631 -1.12557 1.10312 0
M  V30 2107 C 194.579 -2.20325 0.745629 0
M  V30 2108 C 195.573 -1.67429 -0.25763 0
M  V30 2109 O 196.779 -1.79612 -0.118132 0
M  V30 2110 H 193.154 -0.718118 0.223182 0
M  V30 2111 H 195.125 -2.47733 1.66346 0
M  V30 2112 C 193.874 -3.47168 0.192262 0
M  V30 2113 H 193.197 -3.88215 0.955475 0
M  V30 2114 H 194.637 -4.23995 -0.0198274 0
M  V30 2115 C 193.096 -3.19298 -1.07472 0
M  V30 2116 O 193.626 -3.3891 -2.15645 0
M  V30 2117 N 191.832 -2.73113 -0.992847 0
M  V30 2118 H 191.379 -2.57354 -0.112474 0
M  V30 2119 H 191.337 -2.54842 -1.84127 0
M  V30 2120 N 195.109 -0.891671 -1.2995 0
M  V30 2121 C 196.355 -0.514261 -1.96171 0
M  V30 2122 C 196.688 0.935506 -1.70182 0
M  V30 2123 O 195.963 1.66204 -1.01028 0
M  V30 2124 C 196.246 -0.797719 -3.51153 0
M  V30 2125 C 196.099 -2.2986 -3.86632 0
M  V30 2126 C 197.418 -0.278749 -4.39216 0
M  V30 2127 H 194.537 -0.188314 -0.712535 0
M  V30 2128 H 197.179 -1.11689 -1.53706 0
M  V30 2129 H 195.329 -0.284826 -3.87455 0
M  V30 2130 H 197.001 -2.88042 -3.60319 0
M  V30 2131 H 195.244 -2.76257 -3.34462 0
M  V30 2132 H 195.915 -2.44753 -4.94773 0
M  V30 2133 H 198.391 -0.717825 -4.09862 0
M  V30 2134 H 197.267 -0.506353 -5.46559 0
M  V30 2135 H 197.528 0.820266 -4.34424 0
M  V30 2136 N 196.587 1.43421 -0.653314 0
M  V30 2137 C 197.55 2.29182 0.0287951 0
M  V30 2138 C 198.55 1.42213 0.750465 0
M  V30 2139 O 199.74 1.63843 0.591701 0
M  V30 2140 C 196.872 3.24278 1.05151 0
M  V30 2141 H 198.065 2.90985 -0.725786 0
M  V30 2142 H 195.618 1.50702 -0.414545 0
M  V30 2143 H 196.353 2.6737 1.83532 0
M  V30 2144 H 196.138 3.88396 0.537687 0
M  V30 2145 H 197.628 3.88647 1.52786 0
M  V30 2146 N 198.065 0.39524 1.52563 0
M  V30 2147 C 199.013 -0.451859 2.28169 0
M  V30 2148 C 200.007 -1.05792 1.32304 0
M  V30 2149 O 201.213 -0.997718 1.49818 0
M  V30 2150 H 197.588 -0.164481 0.733792 0
M  V30 2151 H 199.559 0.207199 2.9768 0
M  V30 2152 C 198.308 -1.56385 3.10546 0
M  V30 2153 H 197.631 -1.10682 3.84174 0
M  V30 2154 H 199.071 -2.13067 3.66577 0
M  V30 2155 C 197.53 -2.52328 2.23231 0
M  V30 2156 O 198.06 -3.5588 1.86312 0
M  V30 2157 N 196.266 -2.22209 1.87274 0
M  V30 2158 H 195.813 -1.38033 2.17496 0
M  V30 2159 H 195.771 -2.86652 1.29143 0
M  V30 2160 N 199.544 -1.57102 0.125237 0
M  V30 2161 C 200.79 -1.95697 -0.532035 0
M  V30 2162 C 201.123 -1.009 -1.6593 0
M  V30 2163 O 200.398 -0.047347 -1.94442 0
M  V30 2164 C 200.681 -3.44181 -1.05884 0
M  V30 2165 C 200.534 -4.49752 0.0654392 0
M  V30 2166 C 201.853 -3.94655 -1.9477 0
M  V30 2167 H 198.972 -0.711571 -0.191925 0
M  V30 2168 H 201.614 -1.88923 0.20206 0
M  V30 2169 H 199.764 -3.50085 -1.68442 0
M  V30 2170 H 201.436 -4.55943 0.700982 0
M  V30 2171 H 199.679 -4.27653 0.727709 0
M  V30 2172 H 200.35 -5.50924 -0.344505 0
M  V30 2173 H 202.826 -3.91094 -1.42074 0
M  V30 2174 H 201.702 -4.99057 -2.28546 0
M  V30 2175 H 201.963 -3.35718 -2.87656 0
M  V30 2176 N 201.022 0.148545 -1.56898 0
M  V30 2177 C 202.247 0.880385 -1.87787 0
M  V30 2178 C 202.672 1.74018 -0.714093 0
M  V30 2179 O 202.03 1.78153 0.336343 0
M  V30 2180 C 202.078 1.71422 -3.17249 0
M  V30 2181 O 201.182 2.8183 -3.01074 0
M  V30 2182 H 200.523 0.245301 -0.617028 0
M  V30 2183 H 203.053 0.139826 -2.04122 0
M  V30 2184 H 203.063 2.10954 -3.49231 0
M  V30 2185 H 201.738 1.08284 -4.01556 0
M  V30 2186 H 200.315 2.45715 -2.80497 0
M  V30 2187 N 202.5 1.5196 0.417844 0
M  V30 2188 C 203.749 1.6482 1.16264 0
M  V30 2189 C 204.062 0.379886 1.91876 0
M  V30 2190 O 205.268 0.388154 2.68711 0
M  V30 2191 C 203.724 2.91161 2.1155 0
M  V30 2192 C 203.332 4.25068 1.41495 0
M  V30 2193 C 205.076 3.13383 2.86341 0
M  V30 2194 C 202.983 5.42541 2.35379 0
M  V30 2195 H 201.913 0.613954 0.437694 0
M  V30 2196 H 204.564 1.78442 0.427871 0
M  V30 2197 H 202.946 2.71218 2.88543 0
M  V30 2198 H 204.12 4.55463 0.699263 0
M  V30 2199 H 202.435 4.0888 0.787792 0
M  V30 2200 H 205.032 3.98324 3.5671 0
M  V30 2201 H 205.375 2.27256 3.48798 0
M  V30 2202 H 205.908 3.33757 2.1645 0
M  V30 2203 H 202.647 6.30987 1.77582 0
M  V30 2204 H 202.167 5.16497 3.04945 0
M  V30 2205 H 203.846 5.75272 2.96093 0
M  V30 2206 N 203.978 -0.674533 1.42435 0
M  V30 2207 C 204.926 -1.80934 1.46169 0
M  V30 2208 C 205.92 -1.66006 0.3374 0
M  V30 2209 O 207.126 -1.72611 0.510425 0
M  V30 2210 H 203.501 -0.596594 0.457798 0
M  V30 2211 H 205.472 -1.74903 2.41767 0
M  V30 2212 C 204.221 -3.19088 1.38123 0
M  V30 2213 H 203.544 -3.31203 2.23931 0
M  V30 2214 H 204.984 -3.9851 1.44797 0
M  V30 2215 C 203.443 -3.36763 0.0960517 0
M  V30 2216 O 203.973 -3.92581 -0.851073 0
M  V30 2217 N 202.179 -2.90597 0.0131186 0
M  V30 2218 H 201.726 -2.45359 0.784639 0
M  V30 2219 H 201.684 -3.028 -0.846133 0
M  V30 2220 N 205.456 -1.28612 -0.910864 0
M  V30 2221 C 206.403 -1.12786 -2.01365 0
M  V30 2222 C 207.373 -0.024201 -1.66082 0
M  V30 2223 O 208.558 -0.189667 -1.89855 0
M  V30 2224 C 205.698 -0.798743 -3.35729 0
M  V30 2225 C 204.811 -1.98173 -3.83864 0
M  V30 2226 C 203.946 -1.59298 -5.06752 0
M  V30 2227 C 202.985 -2.74245 -5.47226 0
M  V30 2228 N 202.122 -2.35842 -6.61304 0
M  V30 2229 H 206.962 -2.07142 -2.14234 0
M  V30 2230 H 204.499 -1.03093 -1.0493 0
M  V30 2231 H 206.457 -0.588662 -4.13026 0
M  V30 2232 H 205.087 0.10789 -3.2262 0
M  V30 2233 H 204.139 -2.30386 -3.02699 0
M  V30 2234 H 205.451 -2.84343 -4.09818 0
M  V30 2235 H 204.605 -1.34513 -5.916 0
M  V30 2236 H 203.344 -0.702618 -4.82612 0
M  V30 2237 H 202.349 -2.99725 -4.60918 0
M  V30 2238 H 203.574 -3.63928 -5.73353 0
M  V30 2239 H 201.52 -1.49279 -6.38789 0
M  V30 2240 H 201.437 -3.15546 -6.86998 0
M  V30 2241 H 202.705 -2.14348 -7.4945 0
M  V30 2242 N 206.934 1.1197 -1.10907 0
M  V30 2243 C 207.881 2.17846 -0.762345 0
M  V30 2244 C 208.851 1.63995 0.263599 0
M  V30 2245 O 210.036 1.90273 0.141773 0
M  V30 2246 C 207.176 3.44487 -0.205651 0
M  V30 2247 C 206.289 4.12369 -1.28748 0
M  V30 2248 C 205.424 5.26674 -0.691919 0
M  V30 2249 C 204.463 5.86431 -1.75399 0
M  V30 2250 N 203.6 6.92142 -1.17833 0
M  V30 2251 H 208.44 2.46851 -1.6694 0
M  V30 2252 H 205.977 1.21188 -0.833776 0
M  V30 2253 H 207.935 4.16981 0.135037 0
M  V30 2254 H 206.565 3.15884 0.664613 0
M  V30 2255 H 205.617 3.38003 -1.74522 0
M  V30 2256 H 206.929 4.52844 -2.09125 0
M  V30 2257 H 206.083 6.05953 -0.300963 0
M  V30 2258 H 204.822 4.8749 0.143232 0
M  V30 2259 H 203.827 5.05835 -2.15432 0
M  V30 2260 H 205.052 6.27685 -2.59208 0
M  V30 2261 H 202.998 6.54985 -0.364725 0
M  V30 2262 H 202.915 7.31242 -1.91887 0
M  V30 2263 H 204.183 7.75237 -0.81408 0
M  V30 2264 N 208.412 0.89855 1.29475 0
M  V30 2265 C 209.661 0.519863 1.94885 0
M  V30 2266 C 209.974 -0.9383 1.71625 0
M  V30 2267 O 211.18 -1.42445 2.31131 0
M  V30 2268 C 209.636 0.878836 3.49005 0
M  V30 2269 C 209.244 2.35569 3.81066 0
M  V30 2270 C 210.988 0.570004 4.20656 0
M  V30 2271 C 208.895 2.65558 5.28425 0
M  V30 2272 H 207.825 0.190692 0.729488 0
M  V30 2273 H 210.476 1.09539 1.47219 0
M  V30 2274 H 208.858 0.232253 3.95318 0
M  V30 2275 H 210.032 3.04773 3.45616 0
M  V30 2276 H 208.347 2.63343 3.22552 0
M  V30 2277 H 210.944 0.770925 5.29113 0
M  V30 2278 H 211.287 -0.491404 4.1339 0
M  V30 2279 H 211.82 1.17438 3.8007 0
M  V30 2280 H 208.559 3.70493 5.40754 0
M  V30 2281 H 208.079 2.00977 5.65127 0
M  V30 2282 H 209.758 2.51765 5.96006 0
M  V30 2283 N 209.89 -1.43072 0.660911 0
M  V30 2284 C 211.139 -2.00942 0.174735 0
M  V30 2285 C 211.452 -1.52797 -1.22117 0
M  V30 2286 O 212.658 -2.02991 -1.80297 0
M  V30 2287 C 211.114 -3.58948 0.261559 0
M  V30 2288 C 210.722 -4.16085 1.66064 0
M  V30 2289 C 212.466 -4.24173 -0.166617 0
M  V30 2290 C 210.373 -5.6641 1.70098 0
M  V30 2291 H 209.303 -0.751483 0.0615631 0
M  V30 2292 H 211.954 -1.63955 0.824069 0
M  V30 2293 H 210.336 -3.93372 -0.455421 0
M  V30 2294 H 211.51 -3.93147 2.40359 0
M  V30 2295 H 209.825 -3.6326 2.03546 0
M  V30 2296 H 212.422 -5.34471 -0.156433 0
M  V30 2297 H 212.765 -3.98647 -1.19943 0
M  V30 2298 H 213.298 -3.94659 0.498875 0
M  V30 2299 H 210.037 -5.96715 2.71315 0
M  V30 2300 H 209.557 -5.91382 1.00139 0
M  V30 2301 H 211.236 -6.30585 1.44816 0
M  V30 2302 N 211.368 -0.403325 -1.52352 0
M  V30 2303 C 212.3 0.4603 -2.2453 0
M  V30 2304 C 213.313 1.01505 -1.27282 0
M  V30 2305 O 214.502 0.914982 -1.53266 0
M  V30 2306 C 211.602 1.65208 -2.95905 0
M  V30 2307 C 210.775 1.22224 -4.19976 0
M  V30 2308 C 209.834 2.28028 -4.74226 0
M  V30 2309 O 208.86 1.88857 -5.36956 0
M  V30 2310 N 210.062 3.6012 -4.55295 0
M  V30 2311 H 212.827 -0.158156 -2.99282 0
M  V30 2312 H 210.388 -0.230402 -1.60252 0
M  V30 2313 H 212.38 2.35541 -3.29093 0
M  V30 2314 H 210.95 2.17658 -2.24374 0
M  V30 2315 H 210.17 0.34725 -3.92668 0
M  V30 2316 H 211.458 0.911924 -5.00561 0
M  V30 2317 H 210.856 3.94698 -4.05253 0
M  V30 2318 H 209.413 4.26447 -4.92936 0
M  V30 2319 N 212.846 1.57033 -0.133567 0
M  V30 2320 C 214.257 1.82593 0.389464 0
M  V30 2321 C 214.608 1.05156 1.6564 0
M  V30 2322 O 213.733 0.292644 2.14412 0
M  V30 2323 C 214.328 3.31204 0.713377 0
M  V30 2324 C 212.887 3.57393 1.18098 0
M  V30 2325 C 212.034 2.76598 0.197126 0
M  V30 2326 H 214.985 1.54598 -0.358481 0
M  V30 2327 H 215.006 3.46627 1.56939 0
M  V30 2328 H 214.518 3.87537 -0.2089 0
M  V30 2329 H 212.619 3.06433 2.11966 0
M  V30 2330 H 212.732 4.65915 1.11624 0
M  V30 2331 H 211.096 2.45257 0.687088 0
M  V30 2332 H 211.879 3.35697 -0.718504 0
M  V30 2333 N 214.325 -0.140222 1.56975 0
M  V30 2334 C 215.573 -0.850005 1.83356 0
M  V30 2335 C 215.894 -1.81399 0.71551 0
M  V30 2336 O 215.164 -1.94136 -0.262294 0
M  V30 2337 H 213.744 -0.316886 0.676456 0
M  V30 2338 H 216.406 -0.132608 1.94448 0
M  V30 2339 H 215.502 -1.40814 2.78528 0
M  V30 2340 N 215.803 -1.52179 -0.40978 0
M  V30 2341 C 216.766 -1.74853 -1.48186 0
M  V30 2342 C 217.766 -0.618417 -1.48433 0
M  V30 2343 O 218.956 -0.886286 -1.49969 0
M  V30 2344 C 216.088 -1.8303 -2.87598 0
M  V30 2345 H 217.281 -2.70559 -1.29374 0
M  V30 2346 H 214.834 -1.42586 -0.640233 0
M  V30 2347 H 215.569 -0.89236 -3.11781 0
M  V30 2348 H 215.354 -2.65187 -2.88822 0
M  V30 2349 H 216.844 -2.02316 -3.65319 0
M  V30 2350 N 217.281 0.66697 -1.42791 0
M  V30 2351 C 218.191 1.80962 -1.49299 0
M  V30 2352 C 219.207 1.69775 -0.381108 0
M  V30 2353 O 220.383 1.91188 -0.633188 0
M  V30 2354 C 217.448 3.17156 -1.40045 0
M  V30 2355 C 216.509 3.40242 -2.6179 0
M  V30 2356 C 215.742 4.69939 -2.52969 0
M  V30 2357 O 215.965 5.48372 -1.56985 0
M  V30 2358 O 214.899 4.94441 -3.43237 0
M  V30 2359 H 218.725 1.78427 -2.45759 0
M  V30 2360 H 216.31 0.823713 -1.24641 0
M  V30 2361 H 218.192 3.98413 -1.37276 0
M  V30 2362 H 216.867 3.20312 -0.467138 0
M  V30 2363 H 215.774 2.58802 -2.70134 0
M  V30 2364 H 217.107 3.41923 -3.54047 0
M  V30 2365 N 218.759 1.29093 0.90403 0
M  V30 2366 C 220.036 1.075 1.63411 0
M  V30 2367 C 220.416 -0.382346 2.07609 0
M  V30 2368 O 219.764 -1.37031 1.82851 0
M  V30 2369 C 219.974 2.05858 2.81822 0
M  V30 2370 C 221.322 2.36539 3.52611 0
M  V30 2371 O 222.346 2.04019 2.91984 0
M  V30 2372 O 221.205 2.92085 4.61897 0
M  V30 2373 H 218.299 0.411547 0.717327 0
M  V30 2374 H 220.845 1.40449 0.952479 0
M  V30 2375 H 219.617 3.04037 2.46327 0
M  V30 2376 H 219.24 1.73613 3.57693 0
M  V30 2377 N 220.237 -1.11381 1.11499 0
M  V30 2378 C 221.169 -2.17207 0.731704 0
M  V30 2379 C 222.182 -1.61066 -0.236957 0
M  V30 2380 O 223.371 -1.78489 -0.0197591 0
M  V30 2381 C 220.471 -3.38846 0.0607624 0
M  V30 2382 C 219.644 -4.24451 1.0564 0
M  V30 2383 C 218.703 -5.24562 0.4149 0
M  V30 2384 O 217.729 -5.59071 1.069 0
M  V30 2385 N 218.931 -5.74651 -0.821943 0
M  V30 2386 H 221.696 -2.50699 1.64225 0
M  V30 2387 H 219.257 -1.26908 1.00529 0
M  V30 2388 H 221.249 -4.02911 -0.380139 0
M  V30 2389 H 219.819 -3.03411 -0.752376 0
M  V30 2390 H 219.039 -3.56833 1.67524 0
M  V30 2391 H 220.327 -4.78486 1.72998 0
M  V30 2392 H 219.725 -5.48797 -1.37252 0
M  V30 2393 H 218.282 -6.40549 -1.20582 0
M  V30 2394 N 221.715 -0.905404 -1.28997 0
M  V30 2395 C 222.964 -0.530191 -1.94607 0
M  V30 2396 C 223.277 0.929185 -1.72121 0
M  V30 2397 O 224.483 1.41218 -2.31883 0
M  V30 2398 C 222.939 -0.897333 -3.48534 0
M  V30 2399 C 222.547 -2.37587 -3.79811 0
M  V30 2400 C 224.291 -0.592304 -4.20347 0
M  V30 2401 C 222.198 -2.68357 -5.27009 0
M  V30 2402 H 221.128 -0.194558 -0.728466 0
M  V30 2403 H 223.779 -1.10318 -1.46636 0
M  V30 2404 H 222.161 -0.253214 -3.9519 0
M  V30 2405 H 223.335 -3.06602 -3.43994 0
M  V30 2406 H 221.65 -2.6505 -3.2115 0
M  V30 2407 H 224.247 -0.798975 -5.28697 0
M  V30 2408 H 224.59 0.469474 -4.13644 0
M  V30 2409 H 225.123 -1.19452 -3.79442 0
M  V30 2410 H 221.862 -3.73355 -5.38782 0
M  V30 2411 H 221.382 -2.03971 -5.64053 0
M  V30 2412 H 223.061 -2.54922 -5.94663 0
M  V30 2413 N 223.193 1.4272 -0.668489 0
M  V30 2414 C 224.14 2.30796 0.0137489 0
M  V30 2415 C 225.11 1.4561 0.799177 0
M  V30 2416 O 226.295 1.74453 0.772702 0
M  V30 2417 C 223.435 3.31377 0.963507 0
M  V30 2418 C 222.548 4.31655 0.172569 0
M  V30 2419 C 221.683 5.19312 1.1175 0
M  V30 2420 C 220.722 6.11274 0.317886 0
M  V30 2421 N 219.859 6.91504 1.2152 0
M  V30 2422 H 224.699 2.88585 -0.743161 0
M  V30 2423 H 222.236 1.42154 -0.378226 0
M  V30 2424 H 224.194 3.88214 1.52792 0
M  V30 2425 H 222.824 2.75202 1.68712 0
M  V30 2426 H 221.876 3.76988 -0.508374 0
M  V30 2427 H 223.188 4.96779 -0.448527 0
M  V30 2428 H 222.342 5.80851 1.75206 0
M  V30 2429 H 221.081 4.5435 1.77249 0
M  V30 2430 H 220.086 5.48809 -0.329918 0
M  V30 2431 H 221.311 6.78283 -0.332917 0
M  V30 2432 H 219.257 6.29176 1.85671 0
M  V30 2433 H 219.174 7.53209 0.649036 0
M  V30 2434 H 220.442 7.57535 1.83742 0
M  V30 2435 N 224.671 0.411399 1.52136 0
M  V30 2436 C 225.919 -0.163322 2.01439 0
M  V30 2437 C 226.24 -1.45453 1.29879 0
M  V30 2438 O 225.51 -1.91225 0.4254 0
M  V30 2439 H 224.09 -0.0633447 0.744309 0
M  V30 2440 H 226.752 0.548161 1.87033 0
M  V30 2441 H 225.848 -0.357817 3.10042 0
M  V30 2442 N 226.149 -1.5696 0.141893 0
M  V30 2443 C 227.079 -2.19516 -0.795936 0
M  V30 2444 C 228.06 -1.14187 -1.26077 0
M  V30 2445 O 229.245 -1.42511 -1.31925 0
M  V30 2446 C 226.375 -2.81272 -2.03723 0
M  V30 2447 C 225.329 -3.92384 -1.70936 0
M  V30 2448 C 224.655 -4.41052 -3.02287 0
M  V30 2449 C 225.955 -5.13403 -0.959954 0
M  V30 2450 H 227.649 -2.98138 -0.274596 0
M  V30 2451 H 225.195 -1.43406 -0.130636 0
M  V30 2452 H 227.148 -3.237 -2.69808 0
M  V30 2453 H 225.872 -1.99973 -2.58221 0
M  V30 2454 H 224.531 -3.50566 -1.07232 0
M  V30 2455 H 224.179 -3.56582 -3.54765 0
M  V30 2456 H 223.879 -5.15993 -2.81114 0
M  V30 2457 H 225.403 -4.86146 -3.69451 0
M  V30 2458 H 226.817 -5.52706 -1.52279 0
M  V30 2459 H 225.214 -5.94073 -0.848357 0
M  V30 2460 H 226.284 -4.84875 0.0492434 0
M  V30 2461 N 227.627 0.131896 -1.57047 0
M  V30 2462 C 228.56 1.19236 -1.94571 0
M  V30 2463 C 229.538 1.40782 -0.813576 0
M  V30 2464 O 230.722 1.55148 -1.07058 0
M  V30 2465 C 227.849 2.54858 -2.23081 0
M  V30 2466 C 226.895 2.49817 -3.45679 0
M  V30 2467 S 227.728 1.95036 -4.98719 0
M  V30 2468 C 228.884 3.32357 -5.30367 0
M  V30 2469 H 229.117 0.872297 -2.84215 0
M  V30 2470 H 226.65 0.338134 -1.50652 0
M  V30 2471 H 228.608 3.32898 -2.40185 0
M  V30 2472 H 227.269 2.84047 -1.34074 0
M  V30 2473 H 226.462 3.49688 -3.62952 0
M  V30 2474 H 226.064 1.79892 -3.27895 0
M  V30 2475 H 228.356 4.28525 -5.2476 0
M  V30 2476 H 229.299 3.19923 -6.31708 0
M  V30 2477 H 229.707 3.3019 -4.57859 0
M  V30 2478 N 229.106 1.52395 0.401703 0
M  V30 2479 C 230.334 1.70676 1.16949 0
M  V30 2480 C 230.749 0.419503 1.8408 0
M  V30 2481 O 230.106 -0.605061 1.72178 0
M  V30 2482 C 230.157 2.84753 2.22706 0
M  V30 2483 O 229.878 4.08495 1.58314 0
M  V30 2484 C 231.379 3.14608 3.12309 0
M  V30 2485 H 228.599 0.571787 0.351142 0
M  V30 2486 H 231.143 1.98987 0.471652 0
M  V30 2487 H 229.298 2.58941 2.88147 0
M  V30 2488 H 229.712 4.72117 2.28485 0
M  V30 2489 H 231.186 3.97923 3.82572 0
M  V30 2490 H 231.663 2.28464 3.75101 0
M  V30 2491 H 232.269 3.42212 2.52529 0
M  V30 2492 N 230.584 -0.659388 1.43143 0
M  V30 2493 C 231.532 -1.79374 1.4808 0
M  V30 2494 C 232.526 -1.65639 0.354988 0
M  V30 2495 O 233.732 -1.7206 0.528704 0
M  V30 2496 H 230.107 -0.591705 0.4641 0
M  V30 2497 H 232.078 -1.72329 2.43609 0
M  V30 2498 C 230.827 -3.17606 1.41499 0
M  V30 2499 H 230.15 -3.28809 2.27431 0
M  V30 2500 H 231.59 -3.96951 1.49015 0
M  V30 2501 C 230.049 -3.36642 0.131765 0
M  V30 2502 O 230.579 -3.93461 -0.809386 0
M  V30 2503 N 228.785 -2.90567 0.0439396 0
M  V30 2504 H 228.332 -2.44513 0.810619 0
M  V30 2505 H 228.29 -3.03681 -0.813969 0
M  V30 2506 N 232.062 -1.29571 -0.897171 0
M  V30 2507 C 232.992 -1.17473 -2.01798 0
M  V30 2508 C 233.973 -0.068323 -1.69963 0
M  V30 2509 O 235.158 -0.248239 -1.92607 0
M  V30 2510 C 232.288 -0.853099 -3.36659 0
M  V30 2511 C 231.242 -1.9161 -3.82713 0
M  V30 2512 C 230.568 -1.44773 -5.14728 0
M  V30 2513 C 231.868 -3.32535 -4.02763 0
M  V30 2514 H 233.562 -2.11237 -2.12177 0
M  V30 2515 H 231.108 -1.01699 -1.01948 0
M  V30 2516 H 233.061 -0.755165 -4.14578 0
M  V30 2517 H 231.785 0.120236 -3.26379 0
M  V30 2518 H 230.444 -2.00346 -3.07013 0
M  V30 2519 H 230.092 -0.462995 -5.00865 0
M  V30 2520 H 229.792 -2.15865 -5.46513 0
M  V30 2521 H 231.316 -1.36334 -5.95185 0
M  V30 2522 H 232.73 -3.26626 -4.71156 0
M  V30 2523 H 231.127 -4.01607 -4.45905 0
M  V30 2524 H 232.197 -3.75326 -3.07016 0
M  V30 2525 N 233.54 1.10788 -1.12088 0
M  V30 2526 C 234.789 1.82036 -0.868659 0
M  V30 2527 C 235.102 1.85929 0.607426 0
M  V30 2528 O 236.308 2.53346 0.97613 0
M  V30 2529 C 234.764 3.26951 -1.50435 0
M  V30 2530 C 234.372 3.31367 -3.01496 0
M  V30 2531 C 236.116 4.03053 -1.33225 0
M  V30 2532 C 234.023 4.7072 -3.58017 0
M  V30 2533 H 232.953 0.682108 -0.321318 0
M  V30 2534 H 235.604 1.24618 -1.34694 0
M  V30 2535 H 233.986 3.84343 -0.953735 0
M  V30 2536 H 235.16 2.83819 -3.6302 0
M  V30 2537 H 233.475 2.6875 -3.18061 0
M  V30 2538 H 236.072 5.05981 -1.72878 0
M  V30 2539 H 236.415 4.15387 -0.275529 0
M  V30 2540 H 236.948 3.52066 -1.85188 0
M  V30 2541 H 233.687 4.63585 -4.63432 0
M  V30 2542 H 233.207 5.1865 -3.01268 0
M  V30 2543 H 234.886 5.39685 -3.56859 0
M  V30 2544 N 235.018 0.912232 1.28515 0
M  V30 2545 C 236.267 0.540504 1.94323 0
M  V30 2546 C 236.58 -0.920044 1.72611 0
M  V30 2547 O 237.786 -1.39986 2.32629 0
M  V30 2548 C 236.242 0.915803 3.48053 0
M  V30 2549 C 235.85 2.39598 3.78546 0
M  V30 2550 C 237.594 0.614588 4.20027 0
M  V30 2551 C 235.501 2.71148 5.25578 0
M  V30 2552 H 234.431 0.198418 0.727424 0
M  V30 2553 H 237.082 1.11094 1.46049 0
M  V30 2554 H 235.464 0.274168 3.9505 0
M  V30 2555 H 236.638 3.08422 3.42364 0
M  V30 2556 H 234.953 2.66749 3.1974 0
M  V30 2557 H 237.55 0.827002 5.28266 0
M  V30 2558 H 237.893 -0.447531 4.13887 0
M  V30 2559 H 238.426 1.21462 3.78803 0
M  V30 2560 H 235.165 3.76207 5.36794 0
M  V30 2561 H 234.685 2.0696 5.62963 0
M  V30 2562 H 236.364 2.58072 5.93302 0
M  V30 2563 N 236.496 -1.42363 0.676048 0
M  V30 2564 C 237.743 -2.01522 0.19883 0
M  V30 2565 C 238.071 -1.53456 -1.19505 0
M  V30 2566 O 237.326 -0.727967 -1.81657 0
M  V30 2567 C 237.625 -3.56929 0.183431 0
M  V30 2568 C 237.291 -4.24431 1.52215 0
M  V30 2569 C 235.953 -4.42585 1.8887 0
M  V30 2570 C 238.305 -4.62459 2.40377 0
M  V30 2571 C 235.633 -4.96039 3.13309 0
M  V30 2572 C 237.985 -5.17294 3.64129 0
M  V30 2573 C 236.649 -5.33661 4.00951 0
M  V30 2574 H 235.919 -0.737419 0.0727571 0
M  V30 2575 H 238.566 -1.70531 0.871281 0
M  V30 2576 H 236.871 -3.87594 -0.572532 0
M  V30 2577 H 238.568 -4.00486 -0.203035 0
M  V30 2578 H 235.158 -4.10661 1.22701 0
M  V30 2579 H 239.342 -4.48105 2.13343 0
M  V30 2580 H 234.598 -5.06896 3.41857 0
M  V30 2581 H 238.772 -5.45704 4.32644 0
M  V30 2582 H 236.399 -5.74845 4.9745 0
M  V30 2583 N 237.974 -0.419461 -1.51915 0
M  V30 2584 C 239.222 0.152637 -2.01523 0
M  V30 2585 C 239.543 1.44762 -1.30649 0
M  V30 2586 O 238.813 1.90997 -0.435535 0
M  V30 2587 H 237.393 0.0593966 -0.744635 0
M  V30 2588 H 240.055 -0.558073 -1.86739 0
M  V30 2589 H 239.151 0.341369 -3.10227 0
M  V30 2590 N 239.452 1.56882 -0.150215 0
M  V30 2591 C 240.863 1.82995 0.370076 0
M  V30 2592 C 241.214 1.06907 1.64515 0
M  V30 2593 O 240.339 0.315369 2.1409 0
M  V30 2594 C 240.934 3.31942 0.678208 0
M  V30 2595 C 239.493 3.58625 1.14301 0
M  V30 2596 C 238.64 2.76792 0.167778 0
M  V30 2597 H 241.591 1.54209 -0.374858 0
M  V30 2598 H 241.612 3.48272 1.53254 0
M  V30 2599 H 241.124 3.87294 -0.249991 0
M  V30 2600 H 239.225 3.08664 2.08704 0
M  V30 2601 H 239.338 4.67073 1.06676 0
M  V30 2602 H 237.702 2.45972 0.661037 0
M  V30 2603 H 238.485 3.34916 -0.754069 0
M  V30 2604 N 240.93 -0.123565 1.57115 0
M  V30 2605 C 242.178 -0.83051 1.84247 0
M  V30 2606 C 242.499 -1.80629 0.73471 0
M  V30 2607 O 241.769 -1.94403 -0.241688 0
M  V30 2608 H 240.349 -0.309694 0.679778 0
M  V30 2609 H 243.011 -0.111976 1.94578 0
M  V30 2610 H 242.107 -1.37852 2.80006 0
M  V30 2611 N 242.408 -1.52605 -0.393616 0
M  V30 2612 C 243.819 -1.59417 -0.971761 0
M  V30 2613 C 244.17 -0.444173 -1.91106 0
M  V30 2614 O 243.295 0.433382 -2.12016 0
M  V30 2615 C 243.89 -2.88936 -1.76921 0
M  V30 2616 C 242.449 -2.98175 -2.29714 0
M  V30 2617 C 241.596 -2.54491 -1.10135 0
M  V30 2618 H 244.547 -1.57751 -0.173317 0
M  V30 2619 H 244.568 -2.75163 -2.62804 0
M  V30 2620 H 244.08 -3.72616 -1.08532 0
M  V30 2621 H 242.181 -2.19024 -3.01429 0
M  V30 2622 H 242.294 -4.02726 -2.59517 0
M  V30 2623 H 240.658 -2.08702 -1.45999 0
M  V30 2624 H 241.441 -3.4056 -0.432874 0
M  V30 2625 N 243.887 0.651787 -1.4349 0
M  V30 2626 C 245.133 1.41376 -1.45398 0
M  V30 2627 C 245.466 1.94041 -0.0784823 0
M  V30 2628 O 244.741 1.72379 0.900878 0
M  V30 2629 C 245.024 2.59414 -2.49752 0
M  V30 2630 C 244.877 2.12232 -3.96582 0
M  V30 2631 C 246.196 3.61626 -2.50827 0
M  V30 2632 H 243.315 0.512719 -0.529422 0
M  V30 2633 H 245.957 0.738796 -1.75048 0
M  V30 2634 H 244.107 3.16997 -2.246 0
M  V30 2635 H 245.779 1.59639 -4.32797 0
M  V30 2636 H 244.022 1.43592 -4.09346 0
M  V30 2637 H 244.693 2.9712 -4.65214 0
M  V30 2638 H 247.169 3.13805 -2.7325 0
M  V30 2639 H 246.045 4.41766 -3.25783 0
M  V30 2640 H 246.306 4.14314 -1.5426 0
M  V30 2641 N 245.365 1.30045 0.890287 0
M  V30 2642 C 246.295 1.18541 2.01172 0
M  V30 2643 C 247.276 0.0773356 1.69924 0
M  V30 2644 O 248.461 0.25845 1.92473 0
M  V30 2645 C 245.591 0.870941 3.36202 0
M  V30 2646 C 244.545 1.93637 3.81692 0
M  V30 2647 C 243.871 1.475 5.13953 0
M  V30 2648 C 245.171 3.34666 4.00994 0
M  V30 2649 H 246.865 2.12359 2.11054 0
M  V30 2650 H 244.411 1.02238 1.01407 0
M  V30 2651 H 246.364 0.777141 4.14172 0
M  V30 2652 H 245.088 -0.102926 3.26438 0
M  V30 2653 H 243.747 2.01972 3.05946 0
M  V30 2654 H 243.395 0.489551 5.00612 0
M  V30 2655 H 243.095 2.1876 5.4536 0
M  V30 2656 H 244.619 1.39489 5.94454 0
M  V30 2657 H 246.033 3.2912 4.69417 0
M  V30 2658 H 244.43 4.03966 4.43769 0
M  V30 2659 H 245.5 3.76949 3.05021 0
M  V30 2660 N 246.843 -1.10192 1.12674 0
M  V30 2661 C 248.068 -1.86523 0.906853 0
M  V30 2662 C 248.493 -1.80221 -0.538711 0
M  V30 2663 O 247.851 -1.17396 -1.38158 0
M  V30 2664 C 247.899 -3.32758 1.3894 0
M  V30 2665 O 247.003 -4.08449 0.5695 0
M  V30 2666 H 246.344 -0.578678 0.325619 0
M  V30 2667 H 248.874 -1.39203 1.49946 0
M  V30 2668 H 248.884 -3.83608 1.38958 0
M  V30 2669 H 247.559 -3.36661 2.44197 0
M  V30 2670 H 246.136 -3.67427 0.636528 0
M  V30 2671 N 248.321 -0.919034 -1.28029 0
M  V30 2672 C 249.598 -0.473668 -1.89778 0
M  V30 2673 C 249.978 1.04783 -1.83259 0
M  V30 2674 O 249.326 1.8982 -1.27202 0
M  V30 2675 C 249.536 -1.00998 -3.34066 0
M  V30 2676 C 250.884 -1.06525 -4.1102 0
M  V30 2677 O 251.908 -0.958996 -3.43048 0
M  V30 2678 O 250.767 -1.22776 -5.3253 0
M  V30 2679 H 247.861 -0.15098 -0.813101 0
M  V30 2680 H 250.407 -1.01016 -1.36359 0
M  V30 2681 H 249.179 -2.05392 -3.33061 0
M  V30 2682 H 248.802 -0.454626 -3.94992 0
M  V30 2683 N 249.799 1.42003 -0.683588 0
M  V30 2684 C 250.747 2.326 0.000815408 0
M  V30 2685 C 251.741 1.50308 0.781278 0
M  V30 2686 O 252.947 1.66322 0.688251 0
M  V30 2687 H 249.322 0.751758 0.0190616 0
M  V30 2688 H 251.293 2.88011 -0.780528 0
M  V30 2689 C 250.042 3.34978 0.93195 0
M  V30 2690 H 249.365 3.98345 0.340817 0
M  V30 2691 H 250.805 4.00936 1.37936 0
M  V30 2692 C 249.264 2.67925 2.04249 0
M  V30 2693 O 249.794 2.51788 3.12995 0
M  V30 2694 N 248 2.2681 1.81675 0
M  V30 2695 H 247.547 2.40135 0.932363 0
M  V30 2696 H 247.505 1.8228 2.56167 0
M  V30 2697 N 251.277 0.427512 1.51691 0
M  V30 2698 C 252.524 -0.142229 2.02 0
M  V30 2699 C 252.852 -1.43566 1.31221 0
M  V30 2700 O 252.107 -1.91298 0.412744 0
M  V30 2701 C 252.406 -0.418249 3.54944 0
M  V30 2702 C 252.072 0.788187 4.43958 0
M  V30 2703 C 250.734 1.11906 4.68007 0
M  V30 2704 C 253.086 1.59347 4.96244 0
M  V30 2705 C 250.414 2.25608 5.41588 0
M  V30 2706 C 252.766 2.7214 5.71072 0
M  V30 2707 C 251.43 3.05692 5.93387 0
M  V30 2708 H 250.7 -0.0520451 0.73917 0
M  V30 2709 H 253.347 0.572697 1.82736 0
M  V30 2710 H 251.652 -1.21496 3.72486 0
M  V30 2711 H 253.349 -0.872339 3.91397 0
M  V30 2712 H 249.939 0.520344 4.2543 0
M  V30 2713 H 254.123 1.35106 4.77556 0
M  V30 2714 H 249.379 2.51929 5.57083 0
M  V30 2715 H 253.553 3.34914 6.10578 0
M  V30 2716 H 251.18 3.9391 6.50184 0
M  V30 2717 N 252.755 -1.56801 0.158532 0
M  V30 2718 C 253.983 -2.00859 -0.496303 0
M  V30 2719 C 254.398 -1.03871 -1.57659 0
M  V30 2720 O 253.755 -0.0375165 -1.82461 0
M  V30 2721 C 253.806 -3.4479 -1.08638 0
M  V30 2722 O 253.527 -4.38072 -0.0492322 0
M  V30 2723 C 255.028 -4.04185 -1.8207 0
M  V30 2724 H 252.248 -0.65864 -0.128199 0
M  V30 2725 H 254.792 -2.02885 0.256506 0
M  V30 2726 H 252.947 -3.43579 -1.78975 0
M  V30 2727 H 253.361 -5.2227 -0.483102 0
M  V30 2728 H 254.835 -5.06857 -2.18633 0
M  V30 2729 H 255.312 -3.45549 -2.71095 0
M  V30 2730 H 255.918 -4.0906 -1.16405 0
M  V30 2731 N 254.233 0.115231 -1.57178 0
M  V30 2732 C 255.51 0.852873 -1.76027 0
M  V30 2733 C 255.89 1.97892 -0.73498 0
M  V30 2734 O 255.238 2.27232 0.24036 0
M  V30 2735 C 255.448 1.36608 -3.21153 0
M  V30 2736 C 256.796 1.81692 -3.83762 0
M  V30 2737 O 257.82 1.46278 -3.24779 0
M  V30 2738 O 256.679 2.47104 -4.87444 0
M  V30 2739 H 253.773 0.405296 -0.720877 0
M  V30 2740 H 256.319 0.0986785 -1.69413 0
M  V30 2741 H 255.091 0.558357 -3.87296 0
M  V30 2742 H 254.714 2.18287 -3.3232 0
M  V30 2743 N 255.711 1.52812 0.385517 0
M  V30 2744 C 256.936 1.72207 1.15583 0
M  V30 2745 C 257.361 0.441034 1.82857 0
M  V30 2746 O 256.719 -0.603465 1.70962 0
M  V30 2747 C 256.767 2.87476 2.17692 0
M  V30 2748 O 255.871 2.54693 3.24354 0
M  V30 2749 H 255.212 0.572526 0.336319 0
M  V30 2750 H 257.742 1.99618 0.448744 0
M  V30 2751 H 257.752 3.13072 2.6163 0
M  V30 2752 H 256.427 3.80408 1.68115 0
M  V30 2753 H 255.004 2.3985 2.85529 0
M  V30 2754 N 257.189 -0.644168 1.43834 0
M  V30 2755 C 258.122 -1.76906 1.44151 0
M  V30 2756 C 259.1 -1.59774 0.301857 0
M  V30 2757 O 260.284 -1.81834 0.496841 0
M  V30 2758 C 257.411 -3.14321 1.26174 0
M  V30 2759 C 256.457 -3.50134 2.43533 0
M  V30 2760 S 257.29 -3.49085 4.06079 0
M  V30 2761 C 258.446 -4.89142 3.90501 0
M  V30 2762 H 258.679 -1.76368 2.39336 0
M  V30 2763 H 256.212 -0.817624 1.30974 0
M  V30 2764 H 258.17 -3.93625 1.16489 0
M  V30 2765 H 256.831 -3.12412 0.325224 0
M  V30 2766 H 256.024 -4.50095 2.26783 0
M  V30 2767 H 255.626 -2.78264 2.4989 0
M  V30 2768 H 257.918 -5.78036 3.53385 0
M  V30 2769 H 258.861 -5.10945 4.90246 0
M  V30 2770 H 259.269 -4.63102 3.22795 0
M  V30 2771 N 258.668 -1.30515 -0.883378 0
M  V30 2772 C 259.917 -1.18795 -1.63005 0
M  V30 2773 C 260.23 0.255923 -1.93919 0
M  V30 2774 O 261.436 0.494654 -2.66956 0
M  V30 2775 C 259.892 -2.07878 -2.93794 0
M  V30 2776 C 259.5 -3.57184 -2.70414 0
M  V30 2777 C 261.244 -2.04924 -3.71761 0
M  V30 2778 C 259.151 -4.38317 -3.97029 0
M  V30 2779 H 258.081 -0.441031 -0.611562 0
M  V30 2780 H 260.732 -1.55275 -0.977854 0
M  V30 2781 H 259.114 -1.64283 -3.60315 0
M  V30 2782 H 260.288 -4.08937 -2.12384 0
M  V30 2783 H 258.603 -3.61976 -2.0582 0
M  V30 2784 H 261.2 -2.62792 -4.65665 0
M  V30 2785 H 261.543 -1.0331 -4.03277 0
M  V30 2786 H 262.076 -2.46649 -3.12104 0
M  V30 2787 H 258.815 -5.40632 -3.70671 0
M  V30 2788 H 258.335 -3.91326 -4.54559 0
M  V30 2789 H 260.014 -4.49834 -4.65036 0
M  V30 2790 N 260.146 1.09593 -1.13257 0
M  V30 2791 C 261.079 2.15451 -0.752061 0
M  V30 2792 C 262.057 1.60493 0.260913 0
M  V30 2793 O 263.241 1.8788 0.152819 0
M  V30 2794 C 260.368 3.38506 -0.114594 0
M  V30 2795 C 259.414 4.12183 -1.09579 0
M  V30 2796 S 260.247 4.6661 -2.62745 0
M  V30 2797 C 261.403 5.92966 -2.00354 0
M  V30 2798 H 261.636 2.47395 -1.64872 0
M  V30 2799 H 259.169 1.21515 -0.952545 0
M  V30 2800 H 261.127 4.09757 0.246808 0
M  V30 2801 H 259.788 3.04784 0.759309 0
M  V30 2802 H 258.981 5.00445 -0.597545 0
M  V30 2803 H 258.583 3.46785 -1.40057 0
M  V30 2804 H 260.875 6.63882 -1.35156 0
M  V30 2805 H 261.818 6.47467 -2.86691 0
M  V30 2806 H 262.226 5.45405 -1.4558 0
M  V30 2807 N 261.624 0.925811 1.2754 0
M  V30 2808 C 262.572 0.413897 2.28888 0
M  V30 2809 C 263.566 -0.500779 1.61829 0
M  V30 2810 O 264.772 -0.38069 1.75928 0
M  V30 2811 H 261.147 0.115274 0.743112 0
M  V30 2812 H 263.118 1.28151 2.69481 0
M  V30 2813 C 261.867 -0.319792 3.46226 0
M  V30 2814 H 261.19 0.374846 3.98039 0
M  V30 2815 H 262.63 -0.642435 4.19105 0
M  V30 2816 C 261.089 -1.53209 3.00048 0
M  V30 2817 O 261.619 -2.6309 3.03557 0
M  V30 2818 N 259.825 -1.38326 2.55566 0
M  V30 2819 H 259.372 -0.489292 2.5291 0
M  V30 2820 H 259.33 -2.19564 2.25031 0
M  V30 2821 N 263.102 -1.41638 0.69111 0
M  V30 2822 C 264.35 -2.00902 0.219758 0
M  V30 2823 C 264.671 -1.54994 -1.18329 0
M  V30 2824 O 263.941 -0.778628 -1.79762 0
M  V30 2825 H 262.521 -0.74289 0.0782558 0
M  V30 2826 H 265.183 -1.73327 0.891271 0
M  V30 2827 H 264.279 -3.11224 0.233708 0
M  V30 2828 N 264.58 -0.43555 -1.51462 0
M  V30 2829 C 265.53 0.394701 -2.24558 0
M  V30 2830 C 266.514 0.99157 -1.26715 0
M  V30 2831 O 267.706 0.910007 -1.51815 0
M  V30 2832 C 264.835 1.4963 -3.08975 0
M  V30 2833 C 263.921 0.908912 -4.14246 0
M  V30 2834 N 264.312 0.0505335 -5.05775 0
M  V30 2835 C 262.61 1.17668 -4.30198 0
M  V30 2836 C 263.311 -0.279161 -5.8103 0
M  V30 2837 N 262.287 0.336767 -5.42556 0
M  V30 2838 H 266.089 -0.267106 -2.92684 0
M  V30 2839 H 263.603 -0.247518 -1.60503 0
M  V30 2840 H 265.6 2.10394 -3.59917 0
M  V30 2841 H 264.26 2.16046 -2.42393 0
M  V30 2842 H 265.271 -0.31577 -5.16936 0
M  V30 2843 H 261.948 1.83847 -3.74842 0
M  V30 2844 H 263.338 -0.977553 -6.64751 0
M  V30 2845 N 266.058 1.56714 -0.166846 0
M  V30 2846 C 267.283 2.01557 0.488833 0
M  V30 2847 C 267.708 1.0463 1.56314 0
M  V30 2848 O 267.066 0.0251304 1.81283 0
M  V30 2849 C 267.114 3.4503 1.04818 0
M  V30 2850 O 266.218 3.51163 2.16236 0
M  V30 2851 H 265.559 0.653516 0.117526 0
M  V30 2852 H 268.089 2.02818 -0.269421 0
M  V30 2853 H 268.099 3.84243 1.37191 0
M  V30 2854 H 266.774 4.15077 0.261572 0
M  V30 2855 H 265.351 3.23807 1.84942 0
M  V30 2856 N 267.536 -0.106894 1.57237 0
M  V30 2857 C 268.947 -0.662723 1.74542 0
M  V30 2858 C 269.298 -1.7971 0.787319 0
M  V30 2859 O 268.423 -2.16368 -0.0369636 0
M  V30 2860 C 269.018 -1.20896 3.16496 0
M  V30 2861 C 267.577 -1.71096 3.35266 0
M  V30 2862 C 266.724 -0.615642 2.7038 0
M  V30 2863 H 269.675 0.119106 1.58252 0
M  V30 2864 H 269.696 -2.07847 3.18716 0
M  V30 2865 H 269.208 -0.383122 3.86204 0
M  V30 2866 H 267.309 -2.56119 2.70618 0
M  V30 2867 H 267.422 -1.81208 4.43509 0
M  V30 2868 H 265.786 -1.05222 2.31949 0
M  V30 2869 H 266.569 0.199419 3.4272 0
M  V30 2870 N 269.014 -1.53014 -0.377408 0
M  V30 2871 C 270.263 -1.67845 -1.11853 0
M  V30 2872 C 270.576 -0.430625 -1.90801 0
M  V30 2873 O 271.782 -0.459261 -2.67587 0
M  V30 2874 C 270.238 -2.96668 -2.03756 0
M  V30 2875 C 269.846 -4.28671 -1.30175 0
M  V30 2876 C 271.59 -3.20865 -2.77932 0
M  V30 2877 C 269.497 -5.48591 -2.20911 0
M  V30 2878 H 268.427 -0.625343 -0.421263 0
M  V30 2879 H 271.078 -1.79514 -0.380409 0
M  V30 2880 H 269.46 -2.78773 -2.8125 0
M  V30 2881 H 270.634 -4.57157 -0.578259 0
M  V30 2882 H 268.949 -4.10825 -0.679108 0
M  V30 2883 H 271.546 -4.07642 -3.46024 0
M  V30 2884 H 271.889 -2.36424 -3.4265 0
M  V30 2885 H 272.422 -3.39379 -2.07525 0
M  V30 2886 H 269.161 -6.35474 -1.6079 0
M  V30 2887 H 268.681 -5.244 -2.91144 0
M  V30 2888 H 270.36 -5.8292 -2.80736 0
M  V30 2889 N 270.492 0.636531 -1.44174 0
M  V30 2890 C 271.717 1.42847 -1.50364 0
M  V30 2891 C 272.142 1.87665 -0.127867 0
M  V30 2892 O 271.5 1.58408 0.88185 0
M  V30 2893 C 271.548 2.62854 -2.4686 0
M  V30 2894 O 270.652 3.62501 -1.9664 0
M  V30 2895 H 269.993 0.427642 -0.507955 0
M  V30 2896 H 272.523 0.777422 -1.89255 0
M  V30 2897 H 272.533 3.10465 -2.64718 0
M  V30 2898 H 271.208 2.29578 -3.46795 0
M  V30 2899 H 269.785 3.21735 -1.88523 0
M  V30 2900 N 271.97 1.30982 0.876444 0
M  V30 2901 C 272.88 1.2003 2.01569 0
M  V30 2902 C 273.896 0.11838 1.73597 0
M  V30 2903 O 275.072 0.33495 1.98595 0
M  V30 2904 C 272.137 0.901637 3.34771 0
M  V30 2905 C 271.198 2.06979 3.76109 0
M  V30 2906 C 270.431 1.78529 5.02954 0
M  V30 2907 O 270.654 0.717296 5.65872 0
M  V30 2908 O 269.588 2.64019 5.40905 0
M  V30 2909 H 273.414 2.15753 2.13739 0
M  V30 2910 H 270.999 1.10658 1.00375 0
M  V30 2911 H 272.881 0.750645 4.1466 0
M  V30 2912 H 271.556 -0.0256141 3.2369 0
M  V30 2913 H 270.463 2.27616 2.96887 0
M  V30 2914 H 271.796 2.97907 3.91807 0
M  V30 2915 N 273.449 -1.08991 1.13837 0
M  V30 2916 C 274.697 -1.80899 0.901098 0
M  V30 2917 C 275.018 -1.86356 -0.574134 0
M  V30 2918 O 274.288 -1.35235 -1.41733 0
M  V30 2919 H 272.868 -0.669966 0.330386 0
M  V30 2920 H 275.53 -1.318 1.43578 0
M  V30 2921 H 274.626 -2.83929 1.29578 0
M  V30 2922 N 274.927 -0.932562 -1.27047 0
M  V30 2923 C 276.174 -0.575559 -1.94148 0
M  V30 2924 C 276.502 0.883984 -1.73251 0
M  V30 2925 O 275.757 1.64655 -1.0577 0
M  V30 2926 C 276.056 -0.853713 -3.47054 0
M  V30 2927 C 275.722 -2.29577 -3.88079 0
M  V30 2928 C 274.384 -2.68999 -3.9899 0
M  V30 2929 C 276.736 -3.23331 -4.08787 0
M  V30 2930 C 274.064 -4.01289 -4.28 0
M  V30 2931 C 276.416 -4.55207 -4.39282 0
M  V30 2932 C 275.08 -4.94457 -4.48407 0
M  V30 2933 H 274.35 -0.210612 -0.710439 0
M  V30 2934 H 276.997 -1.17744 -1.51025 0
M  V30 2935 H 275.302 -0.169204 -3.91434 0
M  V30 2936 H 276.999 -0.55639 -3.97121 0
M  V30 2937 H 273.589 -1.97994 -3.80127 0
M  V30 2938 H 277.773 -2.94074 -3.99793 0
M  V30 2939 H 273.029 -4.31374 -4.33275 0
M  V30 2940 H 277.203 -5.27852 -4.54252 0
M  V30 2941 H 274.83 -5.96994 -4.7064 0
M  V30 2942 N 276.405 1.4127 -0.698611 0
M  V30 2943 C 277.653 2.00782 -0.230409 0
M  V30 2944 C 277.974 1.5562 1.17505 0
M  V30 2945 O 277.244 0.78815 1.79346 0
M  V30 2946 H 275.824 0.742464 -0.0821944 0
M  V30 2947 H 278.486 1.72852 -0.90045 0
M  V30 2948 H 277.582 3.11095 -0.25021 0
M  V30 2949 N 277.883 0.443576 1.51229 0
M  V30 2950 C 278.846 -0.353132 2.26463 0
M  V30 2951 C 279.846 -0.944338 1.3015 0
M  V30 2952 O 281.036 -0.817813 1.5381 0
M  V30 2953 C 278.168 -1.50023 3.06114 0
M  V30 2954 H 279.361 0.3063 2.98332 0
M  V30 2955 H 276.914 0.196902 1.55055 0
M  V30 2956 H 277.649 -2.19553 2.38677 0
M  V30 2957 H 277.434 -1.08241 3.76864 0
M  V30 2958 H 278.924 -2.06296 3.63087 0
M  V30 2959 N 279.361 -1.56624 0.175154 0
M  V30 2960 C 280.777 -1.58571 -0.180966 0
M  V30 2961 C 280.977 -1.19065 -1.6256 0
M  V30 2962 O 280.033 -0.904044 -2.35761 0
M  V30 2963 C 281.346 -3.00522 0.103326 0
M  V30 2964 C 282.894 -3.12972 0.0418426 0
M  V30 2965 C 283.369 -4.57022 0.299175 0
M  V30 2966 N 284.86 -4.62541 0.247086 0
M  V30 2967 C 285.595 -5.71857 0.420318 0
M  V30 2968 N 285.091 -6.89717 0.652816 0
M  V30 2969 N 286.884 -5.60972 0.355957 0
M  V30 2970 H 279.035 -1.80589 1.11809 0
M  V30 2971 H 281.298 -0.837178 0.444788 0
M  V30 2972 H 281.004 -3.33916 1.10422 0
M  V30 2973 H 280.878 -3.72344 -0.603299 0
M  V30 2974 H 283.265 -2.79403 -0.949636 0
M  V30 2975 H 283.346 -2.43578 0.781238 0
M  V30 2976 H 282.99 -4.913 1.28788 0
M  V30 2977 H 282.92 -5.24579 -0.460876 0
M  V30 2978 H 285.411 -3.77829 0.0731895 0
M  V30 2979 H 285.724 -7.68911 0.774347 0
M  V30 2980 H 284.069 -6.91572 0.689476 0
M  V30 2981 H 287.26 -4.67773 0.174882 0
M  V30 2982 H 287.433 -6.46111 0.494388 0
M  V30 2983 N 280.839 0.0985539 -1.57292 0
M  V30 2984 C 281.772 1.15082 -1.97057 0
M  V30 2985 C 282.75 1.39025 -0.843255 0
M  V30 2986 O 283.934 1.52842 -1.10325 0
M  V30 2987 C 281.061 2.50069 -2.28437 0
M  V30 2988 C 280.107 2.42428 -3.509 0
M  V30 2989 S 280.94 1.84414 -5.02744 0
M  V30 2990 C 282.096 3.21032 -5.37298 0
M  V30 2991 H 282.329 0.811815 -2.86002 0
M  V30 2992 H 279.862 0.306102 -1.51335 0
M  V30 2993 H 281.82 3.27729 -2.47192 0
M  V30 2994 H 280.481 2.8114 -1.40069 0
M  V30 2995 H 279.674 3.41911 -3.70288 0
M  V30 2996 H 279.276 1.72896 -3.31637 0
M  V30 2997 H 281.568 4.17297 -5.33731 0
M  V30 2998 H 282.511 3.06452 -6.38352 0
M  V30 2999 H 282.919 3.20404 -4.64759 0
M  V30 3000 N 282.317 1.53212 0.369288 0
M  V30 3001 C 283.25 1.74166 1.4745 0
M  V30 3002 C 284.228 0.589923 1.51521 0
M  V30 3003 O 285.412 0.822078 1.69629 0
M  V30 3004 C 282.539 1.81711 2.8583 0
M  V30 3005 C 281.585 3.03649 2.99499 0
M  V30 3006 S 282.418 4.63242 2.6864 0
M  V30 3007 C 283.574 4.7363 4.09177 0
M  V30 3008 H 283.807 2.67636 1.29454 0
M  V30 3009 H 281.34 1.43754 0.563396 0
M  V30 3010 H 283.298 1.86743 3.65564 0
M  V30 3011 H 281.959 0.89299 3.01139 0
M  V30 3012 H 281.152 3.05526 4.00836 0
M  V30 3013 H 280.754 2.9671 2.27683 0
M  V30 3014 H 283.046 4.53456 5.03372 0
M  V30 3015 H 283.989 5.75682 4.12306 0
M  V30 3016 H 284.397 4.02295 3.96004 0
M  V30 3017 N 283.795 -0.628877 1.44509 0
M  V30 3018 C 285.044 -1.38437 1.4669 0
M  V30 3019 C 285.357 -1.95322 0.104272 0
M  V30 3020 O 286.563 -2.715 0.00362163 0
M  V30 3021 C 285.019 -2.50659 2.5826 0
M  V30 3022 C 284.627 -2.00277 4.0074 0
M  V30 3023 C 286.371 -3.27844 2.69664 0
M  V30 3024 C 284.278 -3.09854 5.0373 0
M  V30 3025 H 283.208 -0.520245 0.545766 0
M  V30 3026 H 285.859 -0.676313 1.70582 0
M  V30 3027 H 284.241 -3.2405 2.27612 0
M  V30 3028 H 285.415 -1.33736 4.40966 0
M  V30 3029 H 283.73 -1.35901 3.93599 0
M  V30 3030 H 286.327 -4.09534 3.43781 0
M  V30 3031 H 286.67 -3.77471 1.75559 0
M  V30 3032 H 287.203 -2.61543 2.99733 0
M  V30 3033 H 283.942 -2.65168 5.99472 0
M  V30 3034 H 283.462 -3.7503 4.68095 0
M  V30 3035 H 285.141 -3.74592 5.27532 0
M  V30 3036 N 285.273 -1.31445 -0.869486 0
M  V30 3037 C 286.689 -1.10113 -1.15531 0
M  V30 3038 C 286.889 0.128087 -2.01092 0
M  V30 3039 O 285.945 0.817276 -2.38908 0
M  V30 3040 C 287.258 -2.37291 -1.84698 0
M  V30 3041 C 288.806 -2.42906 -1.97397 0
M  V30 3042 C 289.281 -3.69967 -2.69979 0
M  V30 3043 N 290.772 -3.70864 -2.77514 0
M  V30 3044 C 291.507 -4.65875 -3.34287 0
M  V30 3045 N 291.003 -5.71242 -3.91988 0
M  V30 3046 N 292.796 -4.53394 -3.3225 0
M  V30 3047 H 284.947 -2.1028 -0.299347 0
M  V30 3048 H 287.21 -0.927683 -0.195214 0
M  V30 3049 H 286.916 -3.27078 -1.29278 0
M  V30 3050 H 286.79 -2.47125 -2.84972 0
M  V30 3051 H 289.177 -1.53588 -2.51982 0
M  V30 3052 H 289.258 -2.37036 -0.961643 0
M  V30 3053 H 288.902 -4.59652 -2.16062 0
M  V30 3054 H 288.832 -3.73103 -3.7162 0
M  V30 3055 H 291.323 -2.94697 -2.36563 0
M  V30 3056 H 291.636 -6.39817 -4.33421 0
M  V30 3057 H 289.981 -5.75015 -3.90362 0
M  V30 3058 H 293.172 -3.70252 -2.8641 0
M  V30 3059 H 293.345 -5.27617 -3.76197 0
M  V30 3060 N 286.751 1.08385 -1.14413 0
M  V30 3061 C 287.998 1.80776 -0.912482 0
M  V30 3062 C 288.326 1.86236 0.560934 0
M  V30 3063 O 287.581 1.33431 1.43159 0
M  V30 3064 C 287.88 3.26273 -1.45879 0
M  V30 3065 C 287.546 3.4093 -2.95089 0
M  V30 3066 C 286.208 3.44638 -3.35824 0
M  V30 3067 C 288.56 3.44591 -3.91033 0
M  V30 3068 C 285.888 3.49597 -4.71167 0
M  V30 3069 C 288.24 3.51086 -5.26233 0
M  V30 3070 C 286.904 3.53067 -5.6648 0
M  V30 3071 H 286.174 0.661507 -0.333901 0
M  V30 3072 H 288.821 1.27613 -1.42784 0
M  V30 3073 H 287.126 3.82146 -0.864376 0
M  V30 3074 H 288.823 3.80839 -1.2555 0
M  V30 3075 H 285.413 3.38736 -2.62594 0
M  V30 3076 H 289.597 3.40957 -3.60641 0
M  V30 3077 H 284.853 3.49424 -5.0171 0
M  V30 3078 H 289.027 3.52864 -6.00383 0
M  V30 3079 H 286.654 3.56662 -6.71339 0
M  V30 3080 N 288.23 0.939286 1.26551 0
M  V30 3081 C 289.47 0.5933 1.956 0
M  V30 3082 C 289.834 -0.851515 1.72085 0
M  V30 3083 O 291.035 -1.30634 2.34921 0
M  V30 3084 C 289.306 0.923996 3.45249 0
M  V30 3085 S 290.865 0.688269 4.33369 0
M  V30 3086 H 287.683 0.218591 0.676564 0
M  V30 3087 H 290.285 1.2102 1.5354 0
M  V30 3088 H 288.989 1.97297 3.59864 0
M  V30 3089 H 288.52 0.296746 3.92279 0
M  V30 3090 H 290.535 -0.448434 4.9417 0
M  V30 3091 N 289.708 -1.40897 0.706093 0
M  V30 3092 C 291.119 -1.84023 0.315052 0
M  V30 3093 C 291.47 -1.5906 -1.14866 0
M  V30 3094 O 290.595 -1.06651 -1.88293 0
M  V30 3095 C 291.19 -3.34055 0.565038 0
M  V30 3096 C 289.749 -3.7571 0.227806 0
M  V30 3097 C 288.896 -2.64204 0.842122 0
M  V30 3098 H 291.847 -1.303 0.905963 0
M  V30 3099 H 291.868 -3.80107 -0.172843 0
M  V30 3100 H 291.38 -3.52192 1.63042 0
M  V30 3101 H 289.481 -3.63172 -0.832895 0
M  V30 3102 H 289.594 -4.74103 0.690174 0
M  V30 3103 H 287.958 -2.53255 0.270893 0
M  V30 3104 H 288.741 -2.85155 1.91158 0
M  V30 3105 N 291.186 -0.45159 -1.50991 0
M  V30 3106 C 292.411 0.110667 -2.07105 0
M  V30 3107 C 292.836 1.3446 -1.31538 0
M  V30 3108 O 292.194 1.77743 -0.357365 0
M  V30 3109 C 292.242 0.397238 -3.58405 0
M  V30 3110 O 291.346 1.48124 -3.84881 0
M  V30 3111 H 290.687 -0.00439271 -0.663985 0
M  V30 3112 H 293.217 -0.637026 -1.9443 0
M  V30 3113 H 293.227 0.64351 -4.02893 0
M  V30 3114 H 291.902 -0.504553 -4.12828 0
M  V30 3115 H 290.479 1.22381 -3.52246 0
M  V30 3116 N 292.664 1.56529 -0.183458 0
M  V30 3117 C 293.904 1.99141 0.460667 0
M  V30 3118 C 294.268 1.06736 1.59597 0
M  V30 3119 O 295.469 1.38538 2.30349 0
M  V30 3120 C 293.74 3.45358 0.919939 0
M  V30 3121 S 295.299 4.09999 1.56354 0
M  V30 3122 H 292.117 0.695479 0.147748 0
M  V30 3123 H 294.719 1.93429 -0.283782 0
M  V30 3124 H 293.423 4.10315 0.0834208 0
M  V30 3125 H 292.954 3.54862 1.69814 0
M  V30 3126 H 294.969 4.06046 2.85203 0
M  V30 3127 N 294.142 -0.090211 1.57342 0
M  V30 3128 C 295.072 -1.10976 2.05443 0
M  V30 3129 C 296.053 -1.41482 0.944284 0
M  V30 3130 O 297.238 -1.51428 1.21586 0
M  V30 3131 C 294.368 -2.42831 2.48295 0
M  V30 3132 C 293.322 -2.26721 3.63018 0
M  V30 3133 C 292.648 -3.63796 3.91863 0
M  V30 3134 C 293.948 -1.7037 4.93732 0
M  V30 3135 H 295.642 -0.709564 2.9087 0
M  V30 3136 H 293.188 -0.339874 1.39932 0
M  V30 3137 H 295.141 -3.14431 2.80555 0
M  V30 3138 H 293.865 -2.84795 1.59873 0
M  V30 3139 H 292.524 -1.57565 3.31012 0
M  V30 3140 H 292.172 -4.03297 3.00601 0
M  V30 3141 H 291.872 -3.53861 4.69101 0
M  V30 3142 H 293.396 -4.36855 4.26603 0
M  V30 3143 H 294.81 -2.31816 5.24342 0
M  V30 3144 H 293.207 -1.71181 5.75167 0
M  V30 3145 H 294.277 -0.663542 4.80339 0
M  V30 3146 N 295.62 -1.53406 -0.361157 0
M  V30 3147 C 296.568 -1.80832 -1.46296 0
M  V30 3148 C 297.562 -0.677699 -1.55253 0
M  V30 3149 O 298.768 -0.860723 -1.58087 0
M  V30 3150 H 295.143 -0.572627 -0.487445 0
M  V30 3151 H 297.114 -2.73045 -1.20371 0
M  V30 3152 C 295.863 -2.01907 -2.8307 0
M  V30 3153 H 295.186 -2.88349 -2.76938 0
M  V30 3154 H 296.626 -2.25072 -3.59331 0
M  V30 3155 C 295.085 -0.799449 -3.27277 0
M  V30 3156 O 295.615 0.00971761 -4.01699 0
M  V30 3157 N 293.821 -0.621637 -2.83873 0
M  V30 3158 H 293.368 -1.28126 -2.23476 0
M  V30 3159 H 293.326 0.19298 -3.13807 0
M  V30 3160 N 297.098 0.621204 -1.44841 0
M  V30 3161 C 298.344 1.3826 -1.48365 0
M  V30 3162 C 298.677 1.93831 -0.119624 0
M  V30 3163 O 297.952 1.74251 0.864111 0
M  V30 3164 C 298.235 2.54058 -2.55199 0
M  V30 3165 C 298.088 2.03772 -4.00995 0
M  V30 3166 C 299.407 3.56225 -2.58442 0
M  V30 3167 H 296.526 0.501374 -0.540179 0
M  V30 3168 H 299.168 0.7015 -1.76576 0
M  V30 3169 H 297.318 3.12162 -2.31274 0
M  V30 3170 H 298.99 1.50423 -4.36086 0
M  V30 3171 H 297.233 1.34876 -4.12299 0
M  V30 3172 H 297.904 2.87185 -4.71411 0
M  V30 3173 H 300.38 3.07939 -2.79844 0
M  V30 3174 H 299.256 4.34756 -3.3508 0
M  V30 3175 H 299.517 4.10949 -1.63013 0
M  V30 3176 N 298.576 1.31904 0.862503 0
M  V30 3177 C 299.823 1.22017 1.61611 0
M  V30 3178 C 300.151 -0.21991 1.93253 0
M  V30 3179 O 299.406 -1.17076 1.56817 0
M  V30 3180 C 299.705 2.01713 2.95037 0
M  V30 3181 C 299.371 3.51145 2.82857 0
M  V30 3182 C 298.033 3.91889 2.79243 0
M  V30 3183 C 300.385 4.46204 2.69353 0
M  V30 3184 C 297.713 5.25947 2.59993 0
M  V30 3185 C 300.065 5.80397 2.5164 0
M  V30 3186 C 298.729 6.20352 2.46413 0
M  V30 3187 H 297.999 0.44649 0.591378 0
M  V30 3188 H 300.646 1.63248 1.00111 0
M  V30 3189 H 298.951 1.53185 3.60613 0
M  V30 3190 H 300.648 1.91437 3.52353 0
M  V30 3191 H 297.238 3.1878 2.86491 0
M  V30 3192 H 301.422 4.15652 2.71196 0
M  V30 3193 H 296.678 5.5597 2.54376 0
M  V30 3194 H 300.852 6.53676 2.40169 0
M  V30 3195 H 298.479 7.24172 2.31256 0
M  V30 3196 N 300.054 -1.07777 1.14986 0
M  V30 3197 C 301.002 -2.16964 0.838406 0
M  V30 3198 C 301.996 -1.68372 -0.186386 0
M  V30 3199 O 303.202 -1.79951 -0.0418465 0
M  V30 3200 H 299.577 -0.708006 0.253439 0
M  V30 3201 H 301.548 -2.40454 1.76704 0
M  V30 3202 C 300.297 -3.4604 0.339335 0
M  V30 3203 H 299.62 -3.83813 1.11927 0
M  V30 3204 H 301.06 -4.23698 0.160021 0
M  V30 3205 C 299.519 -3.23569 -0.938325 0
M  V30 3206 O 300.049 -3.47752 -2.01077 0
M  V30 3207 N 298.255 -2.77079 -0.876117 0
M  V30 3208 H 297.802 -2.576 -0.00322037 0
M  V30 3209 H 297.76 -2.62422 -1.73153 0
M  V30 3210 N 301.532 -0.945985 -1.26051 0
M  V30 3211 C 302.48 -0.450259 -2.282 0
M  V30 3212 C 303.474 0.47497 -1.62605 0
M  V30 3213 O 304.68 0.352653 -1.76512 0
M  V30 3214 H 301.055 -0.127081 -0.741184 0
M  V30 3215 H 303.026 -1.32422 -2.67408 0
M  V30 3216 C 301.775 0.26467 -3.46691 0
M  V30 3217 H 301.098 -0.438123 -3.97392 0
M  V30 3218 H 302.538 0.575678 -4.20074 0
M  V30 3219 C 300.997 1.48416 -3.02447 0
M  V30 3220 O 301.527 2.58227 -3.07704 0
M  V30 3221 N 299.733 1.34243 -2.57735 0
M  V30 3222 H 299.28 0.448994 -2.53657 0
M  V30 3223 H 299.238 2.15957 -2.28495 0
M  V30 3224 N 303.011 1.40521 -0.713556 0
M  V30 3225 C 304.257 2.01221 -0.252564 0
M  V30 3226 C 304.59 1.56444 1.1506 0
M  V30 3227 O 303.865 0.783597 1.78017 0
M  V30 3228 C 304.148 3.58582 -0.330332 0
M  V30 3229 C 304.001 4.13437 -1.77173 0
M  V30 3230 C 305.32 4.39079 0.299641 0
M  V30 3231 H 302.439 0.731077 -0.0932471 0
M  V30 3232 H 305.081 1.67026 -0.905673 0
M  V30 3233 H 303.231 3.87844 0.225737 0
M  V30 3234 H 304.903 3.9498 -2.38303 0
M  V30 3235 H 303.146 3.67801 -2.3001 0
M  V30 3236 H 303.817 5.22597 -1.77755 0
M  V30 3237 H 306.293 4.15735 -0.174139 0
M  V30 3238 H 305.169 5.4848 0.214771 0
M  V30 3239 H 305.43 4.19915 1.38288 0
M  V30 3240 N 304.489 0.459591 1.5075 0
M  V30 3241 C 305.421 -0.37665 2.26084 0
M  V30 3242 C 306.434 -0.967109 1.30961 0
M  V30 3243 O 307.623 -0.857468 1.56556 0
M  V30 3244 C 304.723 -1.54112 3.01832 0
M  V30 3245 C 303.896 -1.06553 4.24223 0
M  V30 3246 C 302.955 -2.1027 4.82362 0
M  V30 3247 O 301.981 -1.68798 5.43595 0
M  V30 3248 N 303.183 -3.42974 4.68347 0
M  V30 3249 H 305.948 0.269124 2.98489 0
M  V30 3250 H 303.509 0.28972 1.59287 0
M  V30 3251 H 305.501 -2.23165 3.37608 0
M  V30 3252 H 304.071 -2.0918 2.32298 0
M  V30 3253 H 303.291 -0.201274 3.93686 0
M  V30 3254 H 304.579 -0.725516 5.03601 0
M  V30 3255 H 303.977 -3.79385 4.19623 0
M  V30 3256 H 302.534 -4.07858 5.08424 0
M  V30 3257 N 305.967 -1.56429 0.191757 0
M  V30 3258 C 306.877 -2.22541 -0.742481 0
M  V30 3259 C 307.893 -1.22342 -1.23727 0
M  V30 3260 O 309.069 -1.55069 -1.28513 0
M  V30 3261 C 306.134 -2.8692 -1.94623 0
M  V30 3262 C 305.195 -4.02378 -1.49633 0
M  V30 3263 C 304.428 -4.63678 -2.6427 0
M  V30 3264 O 304.651 -4.23895 -3.81666 0
M  V30 3265 O 303.585 -5.53202 -2.37174 0
M  V30 3266 H 307.411 -3.02977 -0.209462 0
M  V30 3267 H 304.996 -1.49353 -0.0373832 0
M  V30 3268 H 306.878 -3.27663 -2.64982 0
M  V30 3269 H 305.553 -2.09466 -2.46791 0
M  V30 3270 H 304.46 -3.66265 -0.761636 0
M  V30 3271 H 305.793 -4.81487 -1.02134 0
M  V30 3272 N 307.445 0.0818655 -1.57387 0
M  V30 3273 C 308.393 1.11712 -2.04018 0
M  V30 3274 C 309.387 1.40683 -0.94364 0
M  V30 3275 O 310.593 1.40209 -1.12878 0
M  V30 3276 H 306.968 0.377542 -0.650358 0
M  V30 3277 H 308.939 0.697614 -2.90131 0
M  V30 3278 C 307.688 2.42537 -2.49141 0
M  V30 3279 H 307.011 2.21092 -3.33104 0
M  V30 3280 H 308.451 3.13446 -2.85531 0
M  V30 3281 C 306.91 3.0778 -1.37014 0
M  V30 3282 O 307.44 3.95436 -0.706621 0
M  V30 3283 N 305.646 2.68242 -1.11779 0
M  V30 3284 H 305.193 1.97052 -1.65917 0
M  V30 3285 H 305.151 3.1222 -0.369594 0
M  V30 3286 N 308.923 1.53595 0.353017 0
M  V30 3287 C 309.87 1.80919 1.43308 0
M  V30 3288 C 310.84 0.654288 1.5267 0
M  V30 3289 O 312.025 0.897759 1.6836 0
M  V30 3290 C 309.165 2.01605 2.80089 0
M  V30 3291 C 308.278 3.29321 2.79593 0
M  V30 3292 C 307.413 3.40125 4.0803 0
M  V30 3293 C 306.452 4.61826 4.01725 0
M  V30 3294 N 305.589 4.69716 5.21834 0
M  V30 3295 H 310.429 2.73074 1.19308 0
M  V30 3296 H 307.966 1.35263 0.578131 0
M  V30 3297 H 309.924 2.11586 3.59565 0
M  V30 3298 H 308.554 1.12772 3.0246 0
M  V30 3299 H 307.606 3.28229 1.92276 0
M  V30 3300 H 308.918 4.18884 2.70809 0
M  V30 3301 H 308.072 3.49488 4.95927 0
M  V30 3302 H 306.811 2.48601 4.19582 0
M  V30 3303 H 305.816 4.52552 3.12213 0
M  V30 3304 H 307.041 5.54705 3.91764 0
M  V30 3305 H 304.987 3.81097 5.33948 0
M  V30 3306 H 304.904 5.53202 5.1527 0
M  V30 3307 H 306.172 4.83376 6.11529 0
M  V30 3308 N 310.401 -0.613514 1.45168 0
M  V30 3309 C 311.678 -1.37263 1.39349 0
M  V30 3310 C 312.058 -2.11012 0.0610848 0
M  V30 3311 O 311.406 -2.07502 -0.956825 0
M  V30 3312 C 311.616 -2.3244 2.60332 0
M  V30 3313 C 312.964 -2.9523 3.05163 0
M  V30 3314 O 313.988 -2.42762 2.60663 0
M  V30 3315 O 312.847 -3.90454 3.82372 0
M  V30 3316 H 309.941 -0.615188 0.552696 0
M  V30 3317 H 312.487 -0.637097 1.57287 0
M  V30 3318 H 311.259 -1.77164 3.48896 0
M  V30 3319 H 310.882 -3.13383 2.44698 0
M  V30 3320 N 311.879 -1.3236 -0.855495 0
M  V30 3321 C 313.107 -1.2587 -1.64208 0
M  V30 3322 C 313.522 0.173457 -1.88002 0
M  V30 3323 O 312.879 1.11027 -1.44842 0
M  V30 3324 C 312.93 -2.01424 -3.00184 0
M  V30 3325 O 312.651 -3.39051 -2.77445 0
M  V30 3326 C 314.152 -2.01948 -3.94629 0
M  V30 3327 H 311.372 -0.434318 -0.511477 0
M  V30 3328 H 313.916 -1.74469 -1.0668 0
M  V30 3329 H 312.071 -1.56549 -3.5436 0
M  V30 3330 H 312.485 -3.77711 -3.63916 0
M  V30 3331 H 313.959 -2.59297 -4.87308 0
M  V30 3332 H 314.436 -1.00554 -4.27534 0
M  V30 3333 H 315.042 -2.46767 -3.4639 0
M  V30 3334 N 313.357 1.07166 -1.15556 0
M  V30 3335 C 314.582 1.84053 -0.955988 0
M  V30 3336 C 315.007 1.81586 0.490739 0
M  V30 3337 O 314.365 1.21018 1.34997 0
M  V30 3338 C 314.413 3.28957 -1.47714 0
M  V30 3339 O 313.517 4.06795 -0.677593 0
M  V30 3340 H 312.858 0.569842 -0.340847 0
M  V30 3341 H 315.388 1.35178 -1.53584 0
M  V30 3342 H 315.398 3.79788 -1.4908 0
M  V30 3343 H 314.073 3.30068 -2.53037 0
M  V30 3344 H 312.65 3.6561 -0.733721 0
M  V30 3345 N 314.835 0.952656 1.25548 0
M  V30 3346 C 316.084 0.602053 1.92505 0
M  V30 3347 C 316.397 -0.864663 1.75451 0
M  V30 3348 O 317.603 -1.32514 2.36965 0
M  V30 3349 C 316.059 1.02607 3.44963 0
M  V30 3350 C 315.667 2.51519 3.70732 0
M  V30 3351 C 317.411 0.747905 4.1786 0
M  V30 3352 C 315.318 2.87732 5.16686 0
M  V30 3353 H 314.248 0.22146 0.720744 0
M  V30 3354 H 316.899 1.15684 1.42441 0
M  V30 3355 H 315.281 0.399712 3.93978 0
M  V30 3356 H 316.455 3.19157 3.32378 0
M  V30 3357 H 314.77 2.76786 3.11092 0
M  V30 3358 H 317.367 0.994647 5.25367 0
M  V30 3359 H 317.71 -0.315629 4.15102 0
M  V30 3360 H 318.243 1.33452 3.74747 0
M  V30 3361 H 314.982 3.93095 5.24554 0
M  V30 3362 H 314.502 2.24765 5.56094 0
M  V30 3363 H 316.181 2.76817 5.84792 0
M  V30 3364 N 316.313 -1.40141 0.720998 0
M  V30 3365 C 317.56 -2.00787 0.262842 0
M  V30 3366 C 317.888 -1.5718 -1.14563 0
M  V30 3367 O 317.143 -0.785391 -1.79249 0
M  V30 3368 C 317.442 -3.56165 0.296892 0
M  V30 3369 C 317.108 -4.19373 1.65641 0
M  V30 3370 C 315.77 -4.36352 2.02855 0
M  V30 3371 C 318.122 -4.54578 2.54968 0
M  V30 3372 C 315.45 -4.8582 3.28931 0
M  V30 3373 C 317.802 -5.05447 3.80402 0
M  V30 3374 C 316.466 -5.20635 4.17726 0
M  V30 3375 H 315.736 -0.734731 0.0961807 0
M  V30 3376 H 318.383 -1.67673 0.925093 0
M  V30 3377 H 316.688 -3.8922 -0.448932 0
M  V30 3378 H 318.385 -4.00929 -0.0755208 0
M  V30 3379 H 314.975 -4.06549 1.35704 0
M  V30 3380 H 319.159 -4.41091 2.27491 0
M  V30 3381 H 314.415 -4.95764 3.57811 0
M  V30 3382 H 318.589 -5.31663 4.49786 0
M  V30 3383 H 316.216 -5.58728 5.15487 0
M  V30 3384 N 317.792 -0.46758 -1.50504 0
M  V30 3385 C 319.017 0.0886943 -2.0721 0
M  V30 3386 C 319.442 1.33057 -1.32956 0
M  V30 3387 O 318.8 1.77354 -0.376197 0
M  V30 3388 C 318.848 0.359202 -3.58806 0
M  V30 3389 O 317.952 1.44034 -3.8643 0
M  V30 3390 H 317.293 -0.0114349 -0.663902 0
M  V30 3391 H 319.823 -0.657613 -1.93744 0
M  V30 3392 H 319.833 0.600742 -4.03553 0
M  V30 3393 H 318.508 -0.548311 -4.1227 0
M  V30 3394 H 317.085 1.18638 -3.53524 0
M  V30 3395 N 319.27 1.56325 -0.20005 0
M  V30 3396 C 320.686 1.58839 0.155716 0
M  V30 3397 C 320.886 1.21636 1.60645 0
M  V30 3398 O 319.942 0.941437 2.34293 0
M  V30 3399 C 321.255 3.0032 -0.151124 0
M  V30 3400 C 322.803 3.12866 -0.0916284 0
M  V30 3401 C 323.278 4.56488 -0.371845 0
M  V30 3402 N 324.769 4.62089 -0.320641 0
M  V30 3403 C 325.504 5.71116 -0.511243 0
M  V30 3404 N 325 6.88592 -0.762461 0
M  V30 3405 N 326.793 5.60335 -0.445157 0
M  V30 3406 H 318.944 1.78788 -1.14668 0
M  V30 3407 H 321.207 0.829996 -0.458051 0
M  V30 3408 H 320.913 3.32117 -1.15721 0
M  V30 3409 H 320.787 3.73257 0.543986 0
M  V30 3410 H 323.174 2.80878 0.905065 0
M  V30 3411 H 323.255 2.42304 -0.81989 0
M  V30 3412 H 322.899 4.89189 -1.36588 0
M  V30 3413 H 322.829 5.25246 0.377362 0
M  V30 3414 H 325.32 3.77665 -0.13329 0
M  V30 3415 H 325.633 7.67581 -0.896576 0
M  V30 3416 H 323.978 6.90387 -0.799412 0
M  V30 3417 H 327.169 4.67436 -0.249278 0
M  V30 3418 H 327.342 6.45243 -0.597116 0
M  V30 3419 N 320.748 -0.0735177 1.57428 0
M  V30 3420 C 322.164 -0.428264 1.53747 0
M  V30 3421 C 322.364 -1.79272 0.91998 0
M  V30 3422 O 321.42 -2.47051 0.521745 0
M  V30 3423 C 322.733 -0.370914 2.98404 0
M  V30 3424 C 324.281 -0.451224 3.0973 0
M  V30 3425 C 324.756 -0.4238 4.56035 0
M  V30 3426 N 326.247 -0.483925 4.60665 0
M  V30 3427 C 326.982 -0.484891 5.71346 0
M  V30 3428 N 326.478 -0.440775 6.91396 0
M  V30 3429 N 328.271 -0.531319 5.59583 0
M  V30 3430 H 320.422 0.819949 1.95935 0
M  V30 3431 H 322.685 0.307493 0.896745 0
M  V30 3432 H 322.391 0.564956 3.47133 0
M  V30 3433 H 322.265 -1.18176 3.5821 0
M  V30 3434 H 324.652 -1.37752 2.60976 0
M  V30 3435 H 324.733 0.388167 2.52838 0
M  V30 3436 H 324.377 0.498638 5.05446 0
M  V30 3437 H 324.307 -1.2807 5.10789 0
M  V30 3438 H 326.798 -0.522338 3.74273 0
M  V30 3439 H 327.111 -0.44539 7.71515 0
M  V30 3440 H 325.456 -0.40749 6.93804 0
M  V30 3441 H 328.647 -0.563464 4.64696 0
M  V30 3442 H 328.82 -0.528603 6.4584 0
M  V30 3443 N 322.226 -1.5378 -0.344866 0
M  V30 3444 C 323.189 -1.80981 -1.40637 0
M  V30 3445 C 324.189 -0.680816 -1.45676 0
M  V30 3446 O 325.379 -0.949095 -1.46075 0
M  V30 3447 C 322.511 -1.95063 -2.79577 0
M  V30 3448 H 323.704 -2.75803 -1.17783 0
M  V30 3449 H 321.257 -1.45173 -0.579181 0
M  V30 3450 H 321.992 -1.02379 -3.07716 0
M  V30 3451 H 321.777 -2.77198 -2.77315 0
M  V30 3452 H 323.267 -2.17629 -3.56409 0
M  V30 3453 N 323.704 0.605807 -1.45491 0
M  V30 3454 C 324.934 1.38934 -1.52908 0
M  V30 3455 C 325.342 1.88513 -0.161086 0
M  V30 3456 O 324.685 1.62962 0.847891 0
M  V30 3457 C 324.747 2.62737 -2.45376 0
M  V30 3458 C 324.411 2.34785 -3.92078 0
M  V30 3459 C 325.408 1.95038 -4.8193 0
M  V30 3460 C 323.093 2.47642 -4.37011 0
M  V30 3461 C 325.087 1.68511 -6.14722 0
M  V30 3462 C 322.774 2.20728 -5.69844 0
M  V30 3463 C 323.772 1.81225 -6.58519 0
M  V30 3464 O 323.46 1.54627 -7.88889 0
M  V30 3465 H 323.192 0.431629 -0.520262 0
M  V30 3466 H 325.746 0.74573 -1.91384 0
M  V30 3467 H 323.976 3.29824 -2.01874 0
M  V30 3468 H 325.665 3.24783 -2.43456 0
M  V30 3469 H 326.431 1.84639 -4.48479 0
M  V30 3470 H 322.31 2.77356 -3.68232 0
M  V30 3471 H 325.854 1.37602 -6.83894 0
M  V30 3472 H 321.751 2.30744 -6.02849 0
M  V30 3473 H 322.519 1.68665 -8.00933 0
M  V30 3474 N 325.182 1.32811 0.848464 0
M  V30 3475 C 326.429 1.23724 1.60308 0
M  V30 3476 C 326.757 -0.1994 1.93475 0
M  V30 3477 O 326.012 -1.15406 1.5805 0
M  V30 3478 C 326.311 2.04831 2.92881 0
M  V30 3479 C 325.977 3.54125 2.79117 0
M  V30 3480 C 324.639 3.94829 2.7507 0
M  V30 3481 C 326.991 4.49036 2.64606 0
M  V30 3482 C 324.319 5.28675 2.544 0
M  V30 3483 C 326.671 5.83033 2.4547 0
M  V30 3484 C 325.335 6.22931 2.39819 0
M  V30 3485 H 324.605 0.452737 0.586609 0
M  V30 3486 H 327.252 1.64301 0.983743 0
M  V30 3487 H 325.557 1.57001 3.58968 0
M  V30 3488 H 327.254 1.95164 3.50303 0
M  V30 3489 H 323.844 3.21801 2.83094 0
M  V30 3490 H 328.028 4.18505 2.66772 0
M  V30 3491 H 323.284 5.58637 2.48465 0
M  V30 3492 H 327.458 6.56186 2.33222 0
M  V30 3493 H 325.085 7.26584 2.23562 0
M  V30 3494 N 326.66 -1.06551 1.16123 0
M  V30 3495 C 327.623 -2.12132 0.867906 0
M  V30 3496 C 328.623 -1.60224 -0.135944 0
M  V30 3497 O 329.813 -1.73943 0.0946422 0
M  V30 3498 C 326.945 -3.396 0.297419 0
M  V30 3499 H 328.138 -2.39586 1.80385 0
M  V30 3500 H 325.691 -1.22574 0.969812 0
M  V30 3501 H 326.426 -3.17794 -0.64633 0
M  V30 3502 H 326.211 -3.78581 1.02073 0
M  V30 3503 H 327.701 -4.17455 0.110052 0
M  V30 3504 N 328.138 -0.959301 -1.25041 0
M  V30 3505 C 329.415 -0.533805 -1.88175 0
M  V30 3506 C 329.795 0.988994 -1.865 0
M  V30 3507 O 329.143 1.85677 -1.33177 0
M  V30 3508 C 329.353 -1.11575 -3.30684 0
M  V30 3509 C 330.701 -1.19548 -4.07423 0
M  V30 3510 O 331.725 -1.06765 -3.39823 0
M  V30 3511 O 330.584 -1.39656 -5.28354 0
M  V30 3512 H 327.678 -0.176772 -0.807887 0
M  V30 3513 H 330.224 -1.05303 -1.33076 0
M  V30 3514 H 328.996 -2.15884 -3.26358 0
M  V30 3515 H 328.619 -0.580059 -3.93346 0
M  V30 3516 N 329.616 1.39756 -0.72842 0
M  V30 3517 C 331.027 1.83498 -0.344289 0
M  V30 3518 C 331.378 1.60868 1.12321 0
M  V30 3519 O 330.503 1.09634 1.86573 0
M  V30 3520 C 331.098 3.33114 -0.618112 0
M  V30 3521 C 329.657 3.753 -0.287549 0
M  V30 3522 C 328.804 2.62831 -0.884048 0
M  V30 3523 H 331.755 1.28842 -0.926578 0
M  V30 3524 H 331.776 3.80334 0.112349 0
M  V30 3525 H 331.288 3.49553 -1.68625 0
M  V30 3526 H 329.389 3.64451 0.775012 0
M  V30 3527 H 329.502 4.72945 -0.765512 0
M  V30 3528 H 327.866 2.52792 -0.311149 0
M  V30 3529 H 328.649 2.82078 -1.95671 0
M  V30 3530 N 331.094 0.475555 1.50254 0
M  V30 3531 C 332.057 -0.305016 2.27161 0
M  V30 3532 C 333.057 -0.916519 1.32123 0
M  V30 3533 O 334.247 -0.785003 1.5551 0
M  V30 3534 C 331.379 -1.43496 3.09227 0
M  V30 3535 H 332.572 0.369511 2.97615 0
M  V30 3536 H 330.125 0.229747 1.54602 0
M  V30 3537 H 330.86 -2.14441 2.43281 0
M  V30 3538 H 330.645 -1.00223 3.79075 0
M  V30 3539 H 332.135 -1.98548 3.67381 0
M  V30 3540 N 332.573 -1.56217 0.208337 0
M  V30 3541 C 333.503 -2.22694 -0.702116 0
M  V30 3542 C 334.484 -1.19432 -1.2112 0
M  V30 3543 O 335.669 -1.47978 -1.25762 0
M  V30 3544 C 332.799 -2.8966 -1.9161 0
M  V30 3545 C 331.753 -3.9928 -1.5414 0
M  V30 3546 C 331.079 -4.53476 -2.83308 0
M  V30 3547 C 332.379 -5.17012 -0.741339 0
M  V30 3548 H 334.073 -2.99034 -0.147898 0
M  V30 3549 H 331.619 -1.43831 -0.0696951 0
M  V30 3550 H 333.572 -3.34852 -2.55836 0
M  V30 3551 H 332.296 -2.10746 -2.49507 0
M  V30 3552 H 330.955 -3.54799 -0.922668 0
M  V30 3553 H 330.603 -3.71308 -3.39322 0
M  V30 3554 H 330.303 -5.27451 -2.58976 0
M  V30 3555 H 331.827 -5.01378 -3.485 0
M  V30 3556 H 333.241 -5.58667 -1.28699 0
M  V30 3557 H 331.638 -5.97137 -0.595627 0
M  V30 3558 H 332.708 -4.8423 0.254851 0
M  V30 3559 N 334.051 0.0651679 -1.57465 0
M  V30 3560 C 335.279 0.775808 -1.91804 0
M  V30 3561 C 335.694 1.70782 -0.804916 0
M  V30 3562 O 335.051 1.81153 0.221311 0
M  V30 3563 C 335.102 1.56381 -3.25925 0
M  V30 3564 O 334.823 0.669248 -4.32958 0
M  V30 3565 C 336.324 2.37485 -3.7432 0
M  V30 3566 H 333.544 0.2202 -0.63384 0
M  V30 3567 H 336.088 0.0334587 -2.04473 0
M  V30 3568 H 334.243 2.25837 -3.14764 0
M  V30 3569 H 334.657 1.21801 -5.10162 0
M  V30 3570 H 336.131 2.88223 -4.70778 0
M  V30 3571 H 336.608 3.17307 -3.03666 0
M  V30 3572 H 337.214 1.73173 -3.88447 0
M  V30 3573 N 335.529 1.53961 0.336706 0
M  V30 3574 C 336.459 1.85417 1.41925 0
M  V30 3575 C 337.44 0.709856 1.5458 0
M  V30 3576 O 338.625 0.962396 1.68676 0
M  V30 3577 C 335.755 2.06985 2.78881 0
M  V30 3578 C 334.709 3.22813 2.81026 0
M  V30 3579 C 334.035 3.29727 4.20932 0
M  V30 3580 C 335.335 4.60767 2.45949 0
M  V30 3581 H 337.029 2.76079 1.15848 0
M  V30 3582 H 334.575 1.32839 0.555859 0
M  V30 3583 H 336.528 2.27575 3.54665 0
M  V30 3584 H 335.252 1.13061 3.06406 0
M  V30 3585 H 333.911 3.0209 2.07695 0
M  V30 3586 H 333.559 2.33385 4.45579 0
M  V30 3587 H 333.259 4.07566 4.23277 0
M  V30 3588 H 334.783 3.52536 4.98549 0
M  V30 3589 H 336.197 4.81325 3.11446 0
M  V30 3590 H 334.594 5.4106 2.59566 0
M  V30 3591 H 335.664 4.6391 1.41122 0
M  V30 3592 N 337.007 -0.598083 1.45811 0
M  V30 3593 C 337.94 -1.7223 1.49706 0
M  V30 3594 C 338.918 -1.58732 0.352535 0
M  V30 3595 O 340.102 -1.80162 0.554438 0
M  V30 3596 C 337.229 -3.10148 1.3611 0
M  V30 3597 C 336.275 -3.42209 2.54549 0
M  V30 3598 S 337.108 -3.35989 4.16979 0
M  V30 3599 C 338.264 -4.76471 4.05865 0
M  V30 3600 H 338.497 -1.68665 2.44826 0
M  V30 3601 H 336.03 -0.775541 1.33509 0
M  V30 3602 H 337.988 -3.8972 1.28953 0
M  V30 3603 H 336.649 -3.11219 0.424451 0
M  V30 3604 H 335.842 -4.42652 2.40988 0
M  V30 3605 H 335.444 -2.70173 2.58617 0
M  V30 3606 H 337.736 -5.665 3.71596 0
M  V30 3607 H 338.679 -4.95089 5.06253 0
M  V30 3608 H 339.087 -4.52599 3.37364 0
M  V30 3609 N 338.485 -1.33259 -0.841409 0
M  V30 3610 C 339.435 -1.19872 -1.93945 0
M  V30 3611 C 340.419 -0.102269 -1.60575 0
M  V30 3612 O 341.611 -0.330114 -1.73894 0
M  V30 3613 C 338.74 -0.937517 -3.30251 0
M  V30 3614 C 337.826 -2.07629 -3.69799 0
M  V30 3615 N 338.217 -3.32604 -3.81062 0
M  V30 3616 C 336.515 -1.98242 -3.9952 0
M  V30 3617 C 337.216 -4.07275 -4.15333 0
M  V30 3618 N 336.192 -3.35691 -4.27566 0
M  V30 3619 H 339.994 -2.14604 -2.00805 0
M  V30 3620 H 337.508 -1.2523 -1.03398 0
M  V30 3621 H 339.505 -0.822545 -4.08705 0
M  V30 3622 H 338.165 0.00128798 -3.247 0
M  V30 3623 H 339.176 -3.67382 -3.65035 0
M  V30 3624 H 335.853 -1.12005 -4.02195 0
M  V30 3625 H 337.243 -5.1511 -4.31406 0
M  V30 3626 N 339.963 1.05934 -1.16686 0
M  V30 3627 C 340.873 2.17014 -0.891183 0
M  V30 3628 C 341.889 1.73453 0.137907 0
M  V30 3629 O 343.065 2.01361 -0.039592 0
M  V30 3630 C 340.13 3.44384 -0.400099 0
M  V30 3631 C 339.191 4.02433 -1.49486 0
M  V30 3632 C 338.424 5.23723 -1.02711 0
M  V30 3633 O 338.647 5.7027 0.121716 0
M  V30 3634 O 337.581 5.7382 -1.81699 0
M  V30 3635 H 341.407 2.43113 -1.82015 0
M  V30 3636 H 338.992 1.15541 -0.947132 0
M  V30 3637 H 340.874 4.21189 -0.133392 0
M  V30 3638 H 339.549 3.19802 0.500817 0
M  V30 3639 H 338.456 3.27102 -1.81535 0
M  V30 3640 H 339.789 4.31317 -2.37121 0
M  V30 3641 N 341.441 0.965919 1.2453 0
M  V30 3642 C 342.371 0.513476 2.27784 0
M  V30 3643 C 343.352 -0.445974 1.6415 0
M  V30 3644 O 344.537 -0.342485 1.91156 0
M  V30 3645 C 341.667 -0.198839 3.4673 0
M  V30 3646 C 340.621 0.676456 4.2262 0
M  V30 3647 C 339.947 -0.167248 5.34438 0
M  V30 3648 C 341.247 1.96017 4.84123 0
M  V30 3649 H 342.941 1.3765 2.65881 0
M  V30 3650 H 340.487 0.663321 1.27813 0
M  V30 3651 H 342.44 -0.526567 4.18097 0
M  V30 3652 H 341.164 -1.0962 3.07654 0
M  V30 3653 H 339.823 0.98743 3.53052 0
M  V30 3654 H 339.471 -1.0647 4.91603 0
M  V30 3655 H 339.171 0.415181 5.86131 0
M  V30 3656 H 340.695 -0.489688 6.08633 0
M  V30 3657 H 342.109 1.69814 5.47573 0
M  V30 3658 H 340.506 2.48918 5.4604 0
M  V30 3659 H 341.576 2.65622 4.05676 0
M  V30 3660 N 342.919 -1.39368 0.735821 0
M  V30 3661 C 344.168 -1.99733 0.281004 0
M  V30 3662 C 344.481 -1.59055 -1.13846 0
M  V30 3663 O 345.687 -2.12262 -1.69284 0
M  V30 3664 C 344.143 -3.57057 0.451462 0
M  V30 3665 C 343.751 -4.06697 1.87886 0
M  V30 3666 C 345.495 -4.2446 0.0584616 0
M  V30 3667 C 343.402 -5.56598 1.99883 0
M  V30 3668 H 342.332 -0.747163 0.101311 0
M  V30 3669 H 344.983 -1.59357 0.909819 0
M  V30 3670 H 343.365 -3.95234 -0.246263 0
M  V30 3671 H 344.539 -3.79853 2.60861 0
M  V30 3672 H 342.854 -3.5196 2.22515 0
M  V30 3673 H 345.451 -5.34549 0.127099 0
M  V30 3674 H 345.794 -4.04444 -0.986433 0
M  V30 3675 H 346.327 -3.9146 0.707374 0
M  V30 3676 H 343.066 -5.81494 3.02564 0
M  V30 3677 H 342.586 -5.85242 1.31346 0
M  V30 3678 H 344.265 -6.22022 1.78039 0
M  V30 3679 N 344.397 -0.483516 -1.5 0
M  V30 3680 C 345.347 0.32306 -2.257 0
M  V30 3681 C 346.331 0.950755 -1.29805 0
M  V30 3682 O 347.523 0.861247 -1.54634 0
M  V30 3683 C 344.652 1.39724 -3.13579 0
M  V30 3684 C 343.738 0.776663 -4.16928 0
M  V30 3685 N 344.129 -0.1104 -5.0568 0
M  V30 3686 C 342.427 1.03922 -4.33724 0
M  V30 3687 C 343.128 -0.46387 -5.79848 0
M  V30 3688 N 342.104 0.163987 -5.43353 0
M  V30 3689 H 345.906 -0.360086 -2.91686 0
M  V30 3690 H 343.42 -0.298456 -1.59634 0
M  V30 3691 H 345.417 1.98837 -3.66428 0
M  V30 3692 H 344.077 2.08225 -2.49143 0
M  V30 3693 H 345.088 -0.480069 -5.1567 0
M  V30 3694 H 341.765 1.71829 -3.80501 0
M  V30 3695 H 343.155 -1.18854 -6.61304 0
M  V30 3696 N 345.875 1.56104 -0.216619 0
M  V30 3697 C 347.121 1.98466 0.417033 0
M  V30 3698 C 347.454 1.10403 1.59765 0
M  V30 3699 O 346.729 0.160632 1.93836 0
M  V30 3700 C 347.012 3.49769 0.85637 0
M  V30 3701 C 346.865 4.48606 -0.327546 0
M  V30 3702 C 348.184 4.05339 1.7143 0
M  V30 3703 H 345.303 0.721551 0.150112 0
M  V30 3704 H 347.945 1.87423 -0.311864 0
M  V30 3705 H 346.095 3.5931 1.47745 0
M  V30 3706 H 347.767 4.5108 -0.965618 0
M  V30 3707 H 346.01 4.22682 -0.975805 0
M  V30 3708 H 346.681 5.51995 0.0227149 0
M  V30 3709 H 349.157 3.98712 1.19031 0
M  V30 3710 H 348.033 5.11533 1.99061 0
M  V30 3711 H 348.294 3.51918 2.67593 0
M  V30 3712 N 347.353 -0.0568162 1.57498 0
M  V30 3713 C 348.283 -1.06593 2.0775 0
M  V30 3714 C 349.264 -1.39448 0.974082 0
M  V30 3715 O 350.449 -1.48815 1.24771 0
M  V30 3716 C 347.579 -2.37509 2.5339 0
M  V30 3717 C 346.533 -2.1897 3.67745 0
M  V30 3718 C 345.859 -3.55402 3.99492 0
M  V30 3719 C 347.159 -1.59859 4.97235 0
M  V30 3720 H 348.853 -0.647706 2.9231 0
M  V30 3721 H 346.399 -0.310116 1.40621 0
M  V30 3722 H 348.352 -3.08409 2.87162 0
M  V30 3723 H 347.076 -2.8134 1.65878 0
M  V30 3724 H 345.735 -1.50508 3.3428 0
M  V30 3725 H 345.383 -3.9683 3.09088 0
M  V30 3726 H 345.083 -3.43831 4.76502 0
M  V30 3727 H 346.607 -4.27708 4.35773 0
M  V30 3728 H 348.021 -2.20642 5.29141 0
M  V30 3729 H 346.418 -1.58942 5.78669 0
M  V30 3730 H 347.488 -0.561506 4.81638 0
M  V30 3731 N 348.832 -1.54138 -0.328536 0
M  V30 3732 C 349.782 -1.79557 -1.4051 0
M  V30 3733 C 350.766 -0.651373 -1.47126 0
M  V30 3734 O 351.958 -0.911226 -1.51742 0
M  V30 3735 C 349.087 -2.02196 -2.77438 0
M  V30 3736 C 348.173 -3.22724 -2.75155 0
M  V30 3737 N 348.564 -4.43881 -2.42494 0
M  V30 3738 C 346.862 -3.24196 -3.06289 0
M  V30 3739 C 347.563 -5.25797 -2.48822 0
M  V30 3740 N 346.539 -4.62862 -2.8506 0
M  V30 3741 H 350.341 -2.70814 -1.1418 0
M  V30 3742 H 347.855 -1.53265 -0.536991 0
M  V30 3743 H 349.852 -2.18546 -3.55026 0
M  V30 3744 H 348.512 -1.12191 -3.04702 0
M  V30 3745 H 349.523 -4.70969 -2.15428 0
M  V30 3746 H 346.2 -2.44208 -3.38627 0
M  V30 3747 H 347.59 -6.32535 -2.26603 0
M  V30 3748 N 350.31 0.590341 -1.46126 0
M  V30 3749 C 351.558 1.34616 -1.50742 0
M  V30 3750 C 351.879 1.94363 -0.157486 0
M  V30 3751 O 351.149 1.78136 0.815136 0
M  V30 3752 H 349.729 0.499789 -0.555175 0
M  V30 3753 H 352.391 0.691953 -1.82203 0
M  V30 3754 H 351.487 2.15678 -2.25587 0
M  V30 3755 N 351.788 1.33704 0.83433 0
M  V30 3756 C 352.718 1.26967 1.95963 0
M  V30 3757 C 353.699 0.149337 1.69443 0
M  V30 3758 O 354.884 0.339852 1.91203 0
M  V30 3759 C 352.014 1.01275 3.32206 0
M  V30 3760 C 350.968 2.09652 3.73136 0
M  V30 3761 C 350.294 1.69166 5.07235 0
M  V30 3762 C 351.594 3.51372 3.86439 0
M  V30 3763 H 353.288 2.2112 2.01857 0
M  V30 3764 H 350.834 1.06447 0.969793 0
M  V30 3765 H 352.787 0.952106 4.10503 0
M  V30 3766 H 351.511 0.0356203 3.26581 0
M  V30 3767 H 350.17 2.14766 2.97104 0
M  V30 3768 H 349.818 0.701437 4.98085 0
M  V30 3769 H 349.518 2.41694 5.35591 0
M  V30 3770 H 351.042 1.64576 5.88003 0
M  V30 3771 H 352.456 3.48734 4.55036 0
M  V30 3772 H 350.853 4.22425 4.26236 0
M  V30 3773 H 351.923 3.89546 2.88759 0
M  V30 3774 N 353.266 -1.05314 1.17247 0
M  V30 3775 C 354.496 -1.81707 0.983166 0
M  V30 3776 C 354.904 -1.83222 -0.471822 0
M  V30 3777 O 354.247 -1.25721 -1.3394 0
M  V30 3778 C 354.309 -3.29134 1.44606 0
M  V30 3779 C 353.973 -3.51304 2.92292 0
M  V30 3780 C 354.97 -3.4353 3.90235 0
M  V30 3781 C 352.655 -3.78306 3.30439 0
M  V30 3782 C 354.649 -3.62442 5.24323 0
M  V30 3783 C 352.336 -3.96866 4.64694 0
M  V30 3784 C 353.334 -3.88933 5.61445 0
M  V30 3785 O 353.022 -4.06976 6.93272 0
M  V30 3786 H 352.754 -0.579476 0.348114 0
M  V30 3787 H 355.308 -1.33705 1.55924 0
M  V30 3788 H 353.538 -3.78046 0.813537 0
M  V30 3789 H 355.227 -3.87049 1.22262 0
M  V30 3790 H 355.993 -3.22648 3.62109 0
M  V30 3791 H 351.872 -3.83585 2.55702 0
M  V30 3792 H 355.416 -3.56165 5.99827 0
M  V30 3793 H 351.313 -4.1724 4.92525 0
M  V30 3794 H 352.081 -4.24209 6.99992 0
M  V30 3795 N 354.744 -0.972509 -1.24016 0
M  V30 3796 C 355.992 -0.635776 -1.91839 0
M  V30 3797 C 356.313 0.832312 -1.76345 0
M  V30 3798 O 355.583 1.5946 -1.13795 0
M  V30 3799 H 354.163 -0.232157 -0.710009 0
M  V30 3800 H 356.825 -1.23462 -1.50809 0
M  V30 3801 H 355.921 -0.880545 -2.99421 0
M  V30 3802 N 356.222 1.38976 -0.743202 0
M  V30 3803 C 357.471 1.99581 -0.291592 0
M  V30 3804 C 357.784 1.59656 1.13001 0
M  V30 3805 O 358.99 2.13157 1.68156 0
M  V30 3806 C 357.446 3.56813 -0.470391 0
M  V30 3807 C 357.054 4.05695 -1.90041 0
M  V30 3808 C 358.798 4.24423 -0.0809709 0
M  V30 3809 C 356.705 5.5553 -2.02832 0
M  V30 3810 H 355.635 0.746615 -0.105272 0
M  V30 3811 H 358.286 1.58872 -0.918258 0
M  V30 3812 H 356.668 3.95359 0.225299 0
M  V30 3813 H 357.842 3.78464 -2.62872 0
M  V30 3814 H 356.157 3.50775 -2.24379 0
M  V30 3815 H 358.754 5.34474 -0.155445 0
M  V30 3816 H 359.097 4.04962 0.96497 0
M  V30 3817 H 359.63 3.9108 -0.728124 0
M  V30 3818 H 356.369 5.79881 -3.05643 0
M  V30 3819 H 355.889 5.84537 -1.34448 0
M  V30 3820 H 357.568 6.21069 -1.81335 0
M  V30 3821 N 357.7 0.491464 1.49741 0
M  V30 3822 C 358.647 -0.292027 2.28945 0
M  V30 3823 C 359.617 -0.968973 1.34908 0
M  V30 3824 O 360.802 -0.97748 1.6386 0
M  V30 3825 C 357.942 -1.35617 3.17336 0
M  V30 3826 C 357.055 -0.691957 4.26422 0
M  V30 3827 C 356.19 -1.73572 5.02042 0
M  V30 3828 C 355.229 -1.05286 6.02977 0
M  V30 3829 N 354.366 -2.0404 6.71798 0
M  V30 3830 H 359.206 0.389654 2.95442 0
M  V30 3831 H 356.743 0.204003 1.45679 0
M  V30 3832 H 358.701 -1.98502 3.66951 0
M  V30 3833 H 357.331 -2.00674 2.52844 0
M  V30 3834 H 356.383 0.0499523 3.80367 0
M  V30 3835 H 357.695 -0.153946 4.98562 0
M  V30 3836 H 356.849 -2.43987 5.55478 0
M  V30 3837 H 355.588 -2.30757 4.29654 0
M  V30 3838 H 354.593 -0.334446 5.48782 0
M  V30 3839 H 355.818 -0.487636 6.77347 0
M  V30 3840 H 353.764 -2.60205 6.02187 0
M  V30 3841 H 353.681 -1.55279 7.39881 0
M  V30 3842 H 354.949 -2.73772 7.29842 0
M  V30 3843 N 359.178 -1.55987 0.224894 0
M  V30 3844 C 360.427 -1.97566 -0.406273 0
M  V30 3845 C 360.74 -1.11569 -1.6066 0
M  V30 3846 O 361.946 -1.43062 -2.3075 0
M  V30 3847 C 360.402 -3.51474 -0.774207 0
M  V30 3848 C 360.01 -4.46179 0.403496 0
M  V30 3849 C 361.754 -4.01758 -1.37079 0
M  V30 3850 C 359.661 -5.91399 0.0129412 0
M  V30 3851 H 358.591 -0.737777 -0.155565 0
M  V30 3852 H 361.242 -1.80659 0.321635 0
M  V30 3853 H 359.624 -3.63994 -1.55963 0
M  V30 3854 H 360.798 -4.45409 1.18101 0
M  V30 3855 H 359.113 -4.06255 0.913536 0
M  V30 3856 H 361.71 -5.07756 -1.67596 0
M  V30 3857 H 362.053 -3.47805 -2.28773 0
M  V30 3858 H 362.586 -3.92475 -0.648733 0
M  V30 3859 H 359.325 -6.49341 0.896451 0
M  V30 3860 H 358.845 -5.95356 -0.728821 0
M  V30 3861 H 360.524 -6.45683 -0.412582 0
M  V30 3862 N 360.656 0.0484629 -1.57525 0
M  V30 3863 C 361.881 0.759177 -1.93006 0
M  V30 3864 C 362.306 1.69125 -0.823317 0
M  V30 3865 O 361.664 1.79931 0.222364 0
M  V30 3866 C 361.712 1.50899 -3.27509 0
M  V30 3867 O 360.816 2.62112 -3.18388 0
M  V30 3868 H 360.157 0.205564 -0.631379 0
M  V30 3869 H 362.687 0.00972959 -2.04598 0
M  V30 3870 H 362.697 1.88317 -3.6194 0
M  V30 3871 H 361.372 0.825269 -4.0763 0
M  V30 3872 H 359.949 2.27379 -2.95556 0
M  V30 3873 N 362.134 1.5431 0.320358 0
M  V30 3874 C 363.082 1.84647 1.4145 0
M  V30 3875 C 364.076 0.718624 1.53402 0
M  V30 3876 O 365.282 0.902335 1.5575 0
M  V30 3877 H 361.657 0.585349 0.472091 0
M  V30 3878 H 363.628 2.7614 1.13089 0
M  V30 3879 C 362.377 2.09341 2.77617 0
M  V30 3880 H 361.7 2.9559 2.69196 0
M  V30 3881 H 363.14 2.3452 3.53237 0
M  V30 3882 C 361.599 0.885939 3.25043 0
M  V30 3883 O 362.129 0.0967891 4.01583 0
M  V30 3884 N 360.335 0.696682 2.82125 0
M  V30 3885 H 359.882 1.34006 2.2 0
M  V30 3886 H 359.84 -0.109712 3.14209 0
M  V30 3887 N 363.613 -0.582584 1.46437 0
M  V30 3888 C 364.543 -1.70187 1.59871 0
M  V30 3889 C 365.524 -1.64066 0.449042 0
M  V30 3890 O 366.709 -1.82081 0.6753 0
M  V30 3891 C 363.839 -3.08827 1.58881 0
M  V30 3892 C 362.793 -3.29779 2.72819 0
M  V30 3893 C 362.119 -4.68947 2.5689 0
M  V30 3894 C 363.419 -3.17601 4.1464 0
M  V30 3895 H 365.113 -1.592 2.53566 0
M  V30 3896 H 362.659 -0.764472 1.22032 0
M  V30 3897 H 364.612 -3.86951 1.66873 0
M  V30 3898 H 363.336 -3.20713 0.617306 0
M  V30 3899 H 361.995 -2.54054 2.64296 0
M  V30 3900 H 361.643 -4.77599 1.57823 0
M  V30 3901 H 361.343 -4.83919 3.33312 0
M  V30 3902 H 362.867 -5.4924 2.66773 0
M  V30 3903 H 364.281 -3.8557 4.24274 0
M  V30 3904 H 362.678 -3.44094 4.9165 0
M  V30 3905 H 363.748 -2.14681 4.34788 0
M  V30 3906 N 365.091 -1.34144 -0.827227 0
M  V30 3907 C 366.502 -1.23557 -1.39966 0
M  V30 3908 C 366.853 0.140731 -1.95695 0
M  V30 3909 O 365.978 1.04087 -1.89723 0
M  V30 3910 C 366.573 -2.23708 -2.54441 0
M  V30 3911 C 365.132 -2.16924 -3.07605 0
M  V30 3912 C 364.279 -2.10549 -1.80456 0
M  V30 3913 H 367.23 -1.45573 -0.631991 0
M  V30 3914 H 367.251 -1.85157 -3.32411 0
M  V30 3915 H 366.763 -3.23866 -2.13851 0
M  V30 3916 H 364.864 -1.20107 -3.52711 0
M  V30 3917 H 364.977 -3.07988 -3.66988 0
M  V30 3918 H 363.341 -1.56203 -2.01178 0
M  V30 3919 H 364.124 -3.12535 -1.42046 0
M  V30 3920 N 366.569 1.04691 -1.17803 0
M  V30 3921 C 367.818 1.77176 -0.963931 0
M  V30 3922 C 368.131 1.88888 0.508015 0
M  V30 3923 O 369.337 2.58164 0.840465 0
M  V30 3924 C 367.793 3.18518 -1.67555 0
M  V30 3925 C 367.401 3.14919 -3.18637 0
M  V30 3926 C 369.145 3.95424 -1.54402 0
M  V30 3927 C 367.052 4.51081 -3.82466 0
M  V30 3928 H 365.982 0.664116 -0.357023 0
M  V30 3929 H 368.633 1.17303 -1.4111 0
M  V30 3930 H 367.015 3.78748 -1.15613 0
M  V30 3931 H 368.189 2.64178 -3.77554 0
M  V30 3932 H 366.504 2.51512 -3.31859 0
M  V30 3933 H 369.101 4.96106 -1.99456 0
M  V30 3934 H 369.444 4.13343 -0.495329 0
M  V30 3935 H 369.977 3.41754 -2.0359 0
M  V30 3936 H 366.716 4.38368 -4.87354 0
M  V30 3937 H 366.236 5.01951 -3.28337 0
M  V30 3938 H 367.915 5.2001 -3.84965 0
M  V30 3939 N 368.047 0.979072 1.23499 0
M  V30 3940 C 369.275 0.665202 1.95915 0
M  V30 3941 C 369.69 -0.767571 1.72493 0
M  V30 3942 O 369.047 -1.51635 1.01554 0
M  V30 3943 C 369.098 0.944438 3.48945 0
M  V30 3944 O 368.819 2.3209 3.71572 0
M  V30 3945 C 370.32 0.646336 4.38563 0
M  V30 3946 H 367.54 0.247218 0.623798 0
M  V30 3947 H 370.084 1.31009 1.57025 0
M  V30 3948 H 368.239 0.345575 3.85856 0
M  V30 3949 H 368.653 2.40957 4.65876 0
M  V30 3950 H 370.127 0.892091 5.44744 0
M  V30 3951 H 370.604 -0.419575 4.37191 0
M  V30 3952 H 371.21 1.22562 4.07258 0
M  V30 3953 N 369.525 -1.3858 0.750561 0
M  V30 3954 C 370.936 -1.82927 0.373438 0
M  V30 3955 C 371.287 -1.62634 -1.09748 0
M  V30 3956 O 370.412 -1.12588 -1.84805 0
M  V30 3957 C 371.007 -3.32088 0.671029 0
M  V30 3958 C 369.566 -3.74795 0.34722 0
M  V30 3959 C 368.713 -2.61391 0.92575 0
M  V30 3960 H 371.664 -1.27351 0.946958 0
M  V30 3961 H 371.685 -3.80465 -0.0518269 0
M  V30 3962 H 371.197 -3.46826 1.74164 0
M  V30 3963 H 369.298 -3.65638 -0.716933 0
M  V30 3964 H 369.411 -4.71667 0.840656 0
M  V30 3965 H 367.775 -2.52265 0.351327 0
M  V30 3966 H 368.558 -2.78929 2.00133 0
M  V30 3967 N 371.003 -0.499398 -1.49478 0
M  V30 3968 C 371.951 0.293604 -2.3074 0
M  V30 3969 C 372.945 0.96427 -1.39277 0
M  V30 3970 O 374.151 0.892141 -1.56336 0
M  V30 3971 H 370.526 0.113541 -0.743379 0
M  V30 3972 H 372.497 -0.411772 -2.95545 0
M  V30 3973 C 371.246 1.3462 -3.20582 0
M  V30 3974 H 370.569 0.83954 -3.90886 0
M  V30 3975 H 372.009 1.87308 -3.80384 0
M  V30 3976 C 370.468 2.36351 -2.40083 0
M  V30 3977 O 370.998 3.422 -2.10385 0
M  V30 3978 N 369.204 2.0878 -2.02137 0
M  V30 3979 H 368.751 1.22723 -2.26488 0
M  V30 3980 H 368.709 2.77075 -1.48583 0
M  V30 3981 N 372.481 1.55866 -0.233164 0
M  V30 3982 C 373.709 2.02998 0.399905 0
M  V30 3983 C 374.124 1.11274 1.52524 0
M  V30 3984 O 373.481 0.124528 1.82075 0
M  V30 3985 C 373.532 3.4958 0.920639 0
M  V30 3986 O 373.253 4.37808 -0.159834 0
M  V30 3987 C 374.754 4.12411 1.62578 0
M  V30 3988 H 371.974 0.664006 0.0966281 0
M  V30 3989 H 374.518 2.0143 -0.353013 0
M  V30 3990 H 372.673 3.51727 1.62379 0
M  V30 3991 H 373.087 5.23981 0.23337 0
M  V30 3992 H 374.561 5.16711 1.94201 0
M  V30 3993 H 375.038 3.5809 2.54299 0
M  V30 3994 H 375.644 4.14148 0.967553 0
M  V30 3995 N 373.959 -0.0401083 1.57549 0
M  V30 3996 C 374.906 -1.04413 2.05831 0
M  V30 3997 C 375.876 -1.36585 0.945184 0
M  V30 3998 O 377.061 -1.47112 1.21502 0
M  V30 3999 C 374.201 -2.34336 2.53339 0
M  V30 4000 C 373.314 -2.08419 3.78398 0
M  V30 4001 C 372.449 -3.32133 4.14561 0
M  V30 4002 C 371.488 -3.01721 5.3257 0
M  V30 4003 N 370.625 -4.17855 5.64218 0
M  V30 4004 H 375.465 -0.625442 2.91363 0
M  V30 4005 H 373.002 -0.297218 1.44066 0
M  V30 4006 H 374.96 -3.10234 2.78946 0
M  V30 4007 H 373.59 -2.73948 1.7074 0
M  V30 4008 H 372.642 -1.23069 3.59942 0
M  V30 4009 H 373.954 -1.81978 4.64419 0
M  V30 4010 H 373.108 -4.16406 4.41238 0
M  V30 4011 H 371.847 -3.61678 3.2717 0
M  V30 4012 H 370.852 -2.15849 5.05657 0
M  V30 4013 H 372.077 -2.73466 6.21605 0
M  V30 4014 H 370.023 -4.47372 4.79786 0
M  V30 4015 H 369.94 -3.94798 6.44725 0
M  V30 4016 H 371.208 -5.03033 5.95465 0
M  V30 4017 N 375.437 -1.54477 -0.31217 0
M  V30 4018 C 376.347 -1.87695 -1.4074 0
M  V30 4019 C 377.363 -0.769975 -1.56036 0
M  V30 4020 O 378.539 -1.06537 -1.70915 0
M  V30 4021 C 375.604 -2.10755 -2.75287 0
M  V30 4022 C 374.665 -3.34514 -2.69071 0
M  V30 4023 C 373.898 -3.56465 -3.97201 0
M  V30 4024 O 374.121 -2.81637 -4.96021 0
M  V30 4025 O 373.055 -4.49964 -3.9977 0
M  V30 4026 H 376.881 -2.80849 -1.15574 0
M  V30 4027 H 374.466 -1.40526 -0.507228 0
M  V30 4028 H 376.348 -2.27188 -3.54913 0
M  V30 4029 H 375.023 -1.20788 -3.0032 0
M  V30 4030 H 373.93 -3.23456 -1.87955 0
M  V30 4031 H 375.263 -4.24575 -2.48992 0
M  V30 4032 N 376.915 0.57481 -1.46744 0
M  V30 4033 C 378.162 1.33272 -1.52462 0
M  V30 4034 C 378.49 1.93669 -0.179572 0
M  V30 4035 O 377.745 1.7743 0.825664 0
M  V30 4036 C 378.044 2.476 -2.57738 0
M  V30 4037 C 377.71 2.05146 -4.01529 0
M  V30 4038 C 376.372 1.93284 -4.40676 0
M  V30 4039 C 378.724 1.72506 -4.91824 0
M  V30 4040 C 376.052 1.47049 -5.67973 0
M  V30 4041 C 378.404 1.27748 -6.19567 0
M  V30 4042 C 377.068 1.14468 -6.57612 0
M  V30 4043 H 376.338 0.487678 -0.557899 0
M  V30 4044 H 378.985 0.646456 -1.80259 0
M  V30 4045 H 377.29 3.21708 -2.23632 0
M  V30 4046 H 378.987 3.05807 -2.5939 0
M  V30 4047 H 375.577 2.15316 -3.7059 0
M  V30 4048 H 379.761 1.80552 -4.62293 0
M  V30 4049 H 375.017 1.35417 -5.96215 0
M  V30 4050 H 379.191 1.01547 -6.88957 0
M  V30 4051 H 376.818 0.78419 -7.56145 0
M  V30 4052 N 378.394 1.34581 0.820102 0
M  V30 4053 C 379.641 1.27096 1.57648 0
M  V30 4054 C 379.969 -0.158317 1.93855 0
M  V30 4055 O 379.224 -1.12028 1.60463 0
M  V30 4056 C 379.523 2.10997 2.8847 0
M  V30 4057 C 379.189 3.59966 2.71543 0
M  V30 4058 C 377.851 4.00575 2.66634 0
M  V30 4059 C 380.203 4.54548 2.55021 0
M  V30 4060 C 377.531 5.33953 2.43128 0
M  V30 4061 C 379.883 5.88109 2.33047 0
M  V30 4062 C 378.547 6.27878 2.26552 0
M  V30 4063 H 377.817 0.465078 0.576874 0
M  V30 4064 H 380.464 1.6635 0.948671 0
M  V30 4065 H 378.769 1.6458 3.55557 0
M  V30 4066 H 380.466 2.0255 3.46084 0
M  V30 4067 H 377.056 3.27733 2.76205 0
M  V30 4068 H 381.24 4.24069 2.57835 0
M  V30 4069 H 376.496 5.63781 2.3656 0
M  V30 4070 H 380.67 6.60985 2.19251 0
M  V30 4071 H 378.297 7.31162 2.081 0
M  V30 4072 N 379.872 -1.04064 1.18357 0
M  V30 4073 C 380.805 -2.11618 0.854 0
M  V30 4074 C 381.783 -1.61555 -0.184043 0
M  V30 4075 O 382.967 -1.88395 -0.0630048 0
M  V30 4076 C 380.094 -3.37574 0.27597 0
M  V30 4077 C 379.14 -4.06485 1.2912 0
M  V30 4078 S 379.973 -4.53543 2.84709 0
M  V30 4079 C 381.129 -5.82732 2.28417 0
M  V30 4080 H 381.362 -2.39247 1.76488 0
M  V30 4081 H 378.895 -1.16832 1.00944 0
M  V30 4082 H 380.853 -4.10468 -0.051026 0
M  V30 4083 H 379.514 -3.0806 -0.613028 0
M  V30 4084 H 378.707 -4.97024 0.835633 0
M  V30 4085 H 378.309 -3.39708 1.56443 0
M  V30 4086 H 380.601 -6.56677 1.66677 0
M  V30 4087 H 381.544 -6.33052 3.17256 0
M  V30 4088 H 381.952 -5.37838 1.71436 0
M  V30 4089 N 381.35 -0.985608 -1.22978 0
M  V30 4090 C 382.282 -0.488154 -2.23941 0
M  V30 4091 C 383.295 0.41282 -1.57479 0
M  V30 4092 O 384.484 0.216121 -1.77187 0
M  V30 4093 C 381.584 0.312611 -3.37455 0
M  V30 4094 C 380.757 -0.582741 -4.33501 0
M  V30 4095 C 379.816 0.165064 -5.25941 0
M  V30 4096 O 378.842 -0.447077 -5.67442 0
M  V30 4097 N 380.044 1.44953 -5.62111 0
M  V30 4098 H 382.809 -1.3563 -2.67254 0
M  V30 4099 H 380.37 -0.859477 -1.37203 0
M  V30 4100 H 382.362 0.821357 -3.96277 0
M  V30 4101 H 380.932 1.0818 -2.93285 0
M  V30 4102 H 380.152 -1.27225 -3.73105 0
M  V30 4103 H 381.44 -1.19275 -4.94622 0
M  V30 4104 H 380.838 1.9683 -5.30353 0
M  V30 4105 H 379.395 1.90361 -6.23383 0
M  V30 4106 N 382.828 1.3818 -0.7579 0
M  V30 4107 C 383.778 2.27741 -0.108674 0
M  V30 4108 C 384.762 1.45415 0.688709 0
M  V30 4109 O 385.954 1.68108 0.553956 0
M  V30 4110 C 383.083 3.34313 0.780367 0
M  V30 4111 C 382.169 4.24093 -0.0240977 0
M  V30 4112 N 382.56 4.9451 -1.06271 0
M  V30 4113 C 380.858 4.45542 0.202049 0
M  V30 4114 C 381.559 5.60675 -1.54979 0
M  V30 4115 N 380.535 5.36684 -0.864348 0
M  V30 4116 H 384.337 2.79649 -0.904071 0
M  V30 4117 H 381.851 1.51133 -0.594346 0
M  V30 4118 H 383.848 3.97368 1.26114 0
M  V30 4119 H 382.508 2.83962 1.57467 0
M  V30 4120 H 383.519 4.97345 -1.44459 0
M  V30 4121 H 380.196 4.06091 0.96935 0
M  V30 4122 H 381.586 6.26992 -2.41517 0
M  V30 4123 N 384.306 0.507319 1.49211 0
M  V30 4124 C 385.531 -0.033725 2.07373 0
M  V30 4125 C 385.956 -1.29485 1.36437 0
M  V30 4126 O 385.314 -1.76294 0.423087 0
M  V30 4127 C 385.362 -0.263945 3.59633 0
M  V30 4128 O 384.466 -1.33737 3.90113 0
M  V30 4129 H 383.807 0.0290331 0.663365 0
M  V30 4130 H 386.337 0.708749 1.91932 0
M  V30 4131 H 386.347 -0.493536 4.05004 0
M  V30 4132 H 385.022 0.657424 4.10671 0
M  V30 4133 H 383.599 -1.09224 3.56545 0
M  V30 4134 N 385.784 -1.5574 0.241426 0
M  V30 4135 C 387.061 -1.90704 -0.434881 0
M  V30 4136 C 387.441 -1.16145 -1.76277 0
M  V30 4137 O 386.789 -0.277152 -2.26813 0
M  V30 4138 C 386.999 -3.43657 -0.608343 0
M  V30 4139 C 388.347 -4.14806 -0.906725 0
M  V30 4140 O 389.371 -3.49366 -0.694408 0
M  V30 4141 O 388.23 -5.30548 -1.31075 0
M  V30 4142 H 385.324 -0.793592 -0.23268 0
M  V30 4143 H 387.87 -1.67288 0.285086 0
M  V30 4144 H 386.642 -3.89927 0.327505 0
M  V30 4145 H 386.265 -3.72918 -1.37906 0
M  V30 4146 N 387.262 0.0317525 -1.57568 0
M  V30 4147 C 388.673 0.578692 -1.77505 0
M  V30 4148 C 389.024 1.75749 -0.872164 0
M  V30 4149 O 388.149 2.16298 -0.0663106 0
M  V30 4150 C 388.744 1.05658 -3.21904 0
M  V30 4151 C 387.303 1.54906 -3.43047 0
M  V30 4152 C 386.45 0.485939 -2.73009 0
M  V30 4153 H 389.401 -0.194475 -1.57504 0
M  V30 4154 H 389.422 1.92404 -3.28269 0
M  V30 4155 H 388.934 0.198422 -3.87592 0
M  V30 4156 H 387.035 2.42915 -2.82529 0
M  V30 4157 H 387.148 1.59841 -4.5165 0
M  V30 4158 H 385.512 0.940354 -2.36705 0
M  V30 4159 H 386.295 -0.362709 -3.41379 0
M  V30 4160 N 388.74 1.54641 0.303973 0
M  V30 4161 C 389.986 1.74038 1.04109 0
M  V30 4162 C 390.319 0.523051 1.87024 0
M  V30 4163 O 389.594 -0.479874 1.88487 0
M  V30 4164 C 389.877 3.02761 1.94955 0
M  V30 4165 C 389.73 4.34787 1.1524 0
M  V30 4166 C 391.049 3.27336 2.94175 0
M  V30 4167 H 388.168 0.63323 0.377079 0
M  V30 4168 H 390.81 1.87354 0.316001 0
M  V30 4169 H 388.96 2.9154 2.56782 0
M  V30 4170 H 390.632 4.57922 0.557236 0
M  V30 4171 H 388.875 4.31407 0.455053 0
M  V30 4172 H 389.546 5.21116 1.8205 0
M  V30 4173 H 392.022 3.38148 2.42477 0
M  V30 4174 H 390.898 4.18726 3.54908 0
M  V30 4175 H 391.159 2.45491 3.67677 0
M  V30 4176 N 390.218 -0.567019 1.47046 0
M  V30 4177 C 391.15 -1.68985 1.54844 0
M  V30 4178 C 392.163 -1.56869 0.435431 0
M  V30 4179 O 393.352 -1.64006 0.70457 0
M  V30 4180 C 390.452 -3.07373 1.42742 0
M  V30 4181 C 389.625 -3.45339 2.6844 0
M  V30 4182 C 388.684 -4.62849 2.50314 0
M  V30 4183 O 387.71 -4.67922 3.24095 0
M  V30 4184 N 388.912 -5.58726 1.57499 0
M  V30 4185 H 391.677 -1.62745 2.51663 0
M  V30 4186 H 389.238 -0.753411 1.43302 0
M  V30 4187 H 391.23 -3.83803 1.28365 0
M  V30 4188 H 389.8 -3.07893 0.540445 0
M  V30 4189 H 389.02 -2.58455 2.97648 0
M  V30 4190 H 390.308 -3.67476 3.51907 0
M  V30 4191 H 389.706 -5.57376 0.966876 0
M  V30 4192 H 388.263 -6.34523 1.49078 0
M  V30 4193 N 391.696 -1.35014 -0.812953 0
M  V30 4194 C 392.659 -1.27292 -1.90602 0
M  V30 4195 C 393.659 -0.185817 -1.59723 0
M  V30 4196 O 394.849 -0.439102 -1.68575 0
M  V30 4197 C 391.981 -0.967676 -3.26877 0
M  V30 4198 H 393.174 -2.24479 -1.9887 0
M  V30 4199 H 390.727 -1.19446 -1.00808 0
M  V30 4200 H 391.462 0.0005954 -3.243 0
M  V30 4201 H 391.247 -1.75412 -3.50675 0
M  V30 4202 H 392.737 -0.939085 -4.06904 0
M  V30 4203 N 393.175 1.03435 -1.18907 0
M  V30 4204 C 394.085 2.15075 -0.937015 0
M  V30 4205 C 395.101 1.73706 0.101085 0
M  V30 4206 O 396.277 2.01232 -0.0822948 0
M  V30 4207 C 393.342 3.43458 -0.473057 0
M  V30 4208 C 392.403 3.99172 -1.57989 0
M  V30 4209 C 391.636 5.21427 -1.13797 0
M  V30 4210 O 391.859 5.704 0.000725941 0
M  V30 4211 O 390.793 5.69837 -1.9383 0
M  V30 4212 H 394.619 2.39198 -1.87131 0
M  V30 4213 H 392.204 1.13506 -0.971427 0
M  V30 4214 H 394.086 4.20811 -0.222702 0
M  V30 4215 H 392.761 3.20793 0.432869 0
M  V30 4216 H 391.668 3.23178 -1.88433 0
M  V30 4217 H 393.001 4.2619 -2.46217 0
M  V30 4218 N 394.653 0.992116 1.22453 0
M  V30 4219 C 395.563 0.55065 2.28046 0
M  V30 4220 C 396.579 -0.400189 1.69335 0
M  V30 4221 O 397.755 -0.267215 1.99619 0
M  V30 4222 C 394.82 -0.128496 3.46462 0
M  V30 4223 C 393.881 0.865208 4.20491 0
M  V30 4224 C 393.114 0.218377 5.33253 0
M  V30 4225 O 393.337 -0.987894 5.6178 0
M  V30 4226 O 392.271 0.922845 5.94783 0
M  V30 4227 H 396.097 1.4291 2.67975 0
M  V30 4228 H 393.682 0.760326 1.28606 0
M  V30 4229 H 395.564 -0.508947 4.18315 0
M  V30 4230 H 394.239 -0.981526 3.0846 0
M  V30 4231 H 393.146 1.29658 3.50913 0
M  V30 4232 H 394.479 1.68741 4.62371 0
M  V30 4233 N 396.131 -1.37776 0.765217 0
M  V30 4234 C 397.061 -2.32945 0.160953 0
M  V30 4235 C 398.042 -1.55454 -0.690516 0
M  V30 4236 O 399.227 -1.83721 -0.629318 0
M  V30 4237 C 396.357 -3.39669 -0.724031 0
M  V30 4238 C 395.311 -4.27992 0.0256173 0
M  V30 4239 C 394.637 -5.25673 -0.978383 0
M  V30 4240 C 395.937 -5.08309 1.20082 0
M  V30 4241 H 397.631 -2.83728 0.955969 0
M  V30 4242 H 395.177 -1.36416 0.461149 0
M  V30 4243 H 397.13 -4.05219 -1.15652 0
M  V30 4244 H 395.854 -2.87396 -1.5515 0
M  V30 4245 H 394.513 -3.63964 0.438812 0
M  V30 4246 H 394.161 -4.69682 -1.80022 0
M  V30 4247 H 393.861 -5.85625 -0.481378 0
M  V30 4248 H 395.385 -5.94098 -1.40995 0
M  V30 4249 H 396.799 -5.67034 0.845307 0
M  V30 4250 H 395.196 -5.77554 1.62947 0
M  V30 4251 H 396.266 -4.41365 2.00811 0
M  V30 4252 N 397.609 -0.515225 -1.4894 0
M  V30 4253 C 398.839 0.0205735 -2.0659 0
M  V30 4254 C 399.247 1.30064 -1.37405 0
M  V30 4255 O 398.59 1.78087 -0.450632 0
M  V30 4256 C 398.652 0.330124 -3.57981 0
M  V30 4257 C 398.316 -0.854295 -4.48944 0
M  V30 4258 C 399.313 -1.7487 -4.89609 0
M  V30 4259 C 396.998 -1.05712 -4.9105 0
M  V30 4260 C 398.992 -2.82996 -5.71132 0
M  V30 4261 C 396.679 -2.14154 -5.72347 0
M  V30 4262 C 397.677 -3.0263 -6.12294 0
M  V30 4263 O 397.365 -4.09198 -6.91962 0
M  V30 4264 H 397.097 -0.0236833 -0.675585 0
M  V30 4265 H 399.651 -0.715956 -1.92518 0
M  V30 4266 H 397.881 1.12044 -3.70112 0
M  V30 4267 H 399.57 0.806233 -3.97812 0
M  V30 4268 H 400.336 -1.60388 -4.57712 0
M  V30 4269 H 396.215 -0.377788 -4.59449 0
M  V30 4270 H 399.759 -3.52083 -6.02232 0
M  V30 4271 H 395.656 -2.28626 -6.03656 0
M  V30 4272 H 396.424 -4.06726 -7.10293 0
M  V30 4273 N 399.087 1.5561 -0.249682 0
M  V30 4274 C 400.315 2.03411 0.378352 0
M  V30 4275 C 400.73 1.12886 1.51335 0
M  V30 4276 O 400.087 0.143833 1.81932 0
M  V30 4277 C 400.138 3.50537 0.88351 0
M  V30 4278 O 399.859 4.37614 -0.20626 0
M  V30 4279 C 401.36 4.14113 1.58195 0
M  V30 4280 H 398.58 0.664994 0.08958 0
M  V30 4281 H 401.124 2.01044 -0.374357 0
M  V30 4282 H 399.279 3.5343 1.58639 0
M  V30 4283 H 399.693 5.24199 0.177782 0
M  V30 4284 H 401.167 5.18741 1.8871 0
M  V30 4285 H 401.644 3.60767 2.50487 0
M  V30 4286 H 402.25 4.15151 0.923573 0
M  V30 4287 N 400.565 -0.0233959 1.57583 0
M  V30 4288 C 401.812 -0.713063 1.8953 0
M  V30 4289 C 402.14 -1.75056 0.847673 0
M  V30 4290 O 401.395 -1.95119 -0.150636 0
M  V30 4291 C 401.694 -1.41428 3.28227 0
M  V30 4292 C 401.36 -0.512222 4.47981 0
M  V30 4293 C 400.022 -0.263785 4.80476 0
M  V30 4294 C 402.374 0.110248 5.21083 0
M  V30 4295 C 399.702 0.615804 5.83459 0
M  V30 4296 C 402.054 0.977573 6.25001 0
M  V30 4297 C 400.718 1.23542 6.55968 0
M  V30 4298 H 399.988 -0.260928 0.69354 0
M  V30 4299 H 402.635 0.0271047 1.91481 0
M  V30 4300 H 400.94 -2.22791 3.22291 0
M  V30 4301 H 402.637 -1.95355 3.50196 0
M  V30 4302 H 399.227 -0.716013 4.22577 0
M  V30 4303 H 403.411 -0.0687137 4.96252 0
M  V30 4304 H 398.667 0.82382 6.05824 0
M  V30 4305 H 402.841 1.46638 6.80786 0
M  V30 4306 H 400.468 1.91871 7.35588 0
M  V30 4307 N 402.043 -1.548 -0.295768 0
M  V30 4308 C 403.291 -1.73985 -1.02828 0
M  V30 4309 C 403.612 -0.531406 -1.87619 0
M  V30 4310 O 402.882 0.454221 -1.90561 0
M  V30 4311 H 401.462 -0.641556 -0.382642 0
M  V30 4312 H 404.124 -1.92163 -0.325489 0
M  V30 4313 H 403.22 -2.63129 -1.67838 0
M  V30 4314 N 403.521 0.559213 -1.47345 0
M  V30 4315 C 404.769 1.31388 -1.53563 0
M  V30 4316 C 405.09 1.93985 -0.198678 0
M  V30 4317 O 404.36 1.79825 0.777167 0
M  V30 4318 H 402.94 0.487901 -0.565652 0
M  V30 4319 H 405.602 0.65315 -1.8363 0
M  V30 4320 H 404.698 2.10844 -2.30111 0
M  V30 4321 N 404.999 1.35443 0.805782 0
M  V30 4322 C 405.949 1.24972 1.90699 0
M  V30 4323 C 406.933 0.144806 1.60247 0
M  V30 4324 O 408.125 0.376102 1.72958 0
M  V30 4325 C 405.254 1.02475 3.27649 0
M  V30 4326 C 404.34 2.17361 3.64164 0
M  V30 4327 N 404.731 3.42591 3.72109 0
M  V30 4328 C 403.029 2.08765 3.94123 0
M  V30 4329 C 403.73 4.18144 4.04389 0
M  V30 4330 N 402.706 3.4691 4.18515 0
M  V30 4331 H 406.508 2.19852 1.95044 0
M  V30 4332 H 404.022 1.27928 1.00041 0
M  V30 4333 H 406.019 0.930617 4.06381 0
M  V30 4334 H 404.679 0.0848009 3.24589 0
M  V30 4335 H 405.69 3.76932 3.55166 0
M  V30 4336 H 402.367 1.22629 3.99084 0
M  V30 4337 H 403.757 5.26367 4.17597 0
M  V30 4338 N 406.477 -1.02803 1.19454 0
M  V30 4339 C 407.754 -1.73299 0.907013 0
M  V30 4340 C 408.134 -2.02772 -0.587086 0
M  V30 4341 O 407.482 -1.68304 -1.54551 0
M  V30 4342 C 407.692 -3.00912 1.76785 0
M  V30 4343 C 409.04 -3.74403 2.00268 0
M  V30 4344 O 410.064 -3.10841 1.73943 0
M  V30 4345 O 408.923 -4.88675 2.4466 0
M  V30 4346 H 406.017 -0.754727 0.338106 0
M  V30 4347 H 408.563 -1.08754 1.30271 0
M  V30 4348 H 407.335 -2.75366 2.7801 0
M  V30 4349 H 406.958 -3.73197 1.37149 0
M  V30 4350 N 407.956 -0.998596 -1.21925 0
M  V30 4351 C 409.367 -0.711939 -1.72593 0
M  V30 4352 C 409.718 0.770842 -1.80423 0
M  V30 4353 O 408.843 1.60237 -1.4544 0
M  V30 4354 C 409.438 -1.28567 -3.13458 0
M  V30 4355 C 407.997 -1.04828 -3.61508 0
M  V30 4356 C 407.144 -1.4024 -2.39224 0
M  V30 4357 H 410.095 -1.17027 -1.07193 0
M  V30 4358 H 410.116 -0.667098 -3.74607 0
M  V30 4359 H 409.628 -2.36486 -3.07727 0
M  V30 4360 H 407.729 0.0140383 -3.72597 0
M  V30 4361 H 407.842 -1.71566 -4.47328 0
M  V30 4362 H 406.206 -0.821077 -2.41103 0
M  V30 4363 H 406.989 -2.49176 -2.36149 0
M  V30 4364 N 409.434 1.37368 -0.772513 0
M  V30 4365 C 410.659 2.0447 -0.347386 0
M  V30 4366 C 411.084 1.57882 1.0225 0
M  V30 4367 O 410.442 0.73941 1.65537 0
M  V30 4368 C 410.49 3.58369 -0.400479 0
M  V30 4369 O 409.594 4.0803 0.598789 0
M  V30 4370 H 408.935 0.646773 -0.15027 0
M  V30 4371 H 411.465 1.75667 -1.04892 0
M  V30 4372 H 411.475 4.07183 -0.258045 0
M  V30 4373 H 410.15 3.91633 -1.39986 0
M  V30 4374 H 408.727 3.70534 0.419411 0
M  V30 4375 N 410.912 0.523116 1.48665 0
M  V30 4376 C 412.158 -0.0134963 2.02796 0
M  V30 4377 C 412.491 -1.34582 1.40004 0
M  V30 4378 O 411.766 -1.86756 0.543381 0
M  V30 4379 C 412.049 -0.14276 3.59817 0
M  V30 4380 C 411.902 1.21425 4.331 0
M  V30 4381 C 413.221 -0.872856 4.31357 0
M  V30 4382 H 410.34 -0.00343074 0.736992 0
M  V30 4383 H 412.982 0.678816 1.7746 0
M  V30 4384 H 411.132 -0.732401 3.81534 0
M  V30 4385 H 412.804 1.84447 4.2282 0
M  V30 4386 H 411.047 1.79791 3.94788 0
M  V30 4387 H 411.718 1.07687 5.41394 0
M  V30 4388 H 414.194 -0.372555 4.14429 0
M  V30 4389 H 413.07 -0.932185 5.40927 0
M  V30 4390 H 413.331 -1.92161 3.98154 0
M  V30 4391 N 412.39 -1.55475 0.257931 0
M  V30 4392 C 413.639 -1.98383 -0.364275 0
M  V30 4393 C 413.952 -1.14952 -1.58258 0
M  V30 4394 O 415.158 -1.47924 -2.27664 0
M  V30 4395 C 413.614 -3.53037 -0.699479 0
M  V30 4396 C 413.222 -4.45223 0.498046 0
M  V30 4397 C 414.966 -4.04575 -1.28526 0
M  V30 4398 C 412.873 -5.91238 0.138383 0
M  V30 4399 H 411.803 -0.740911 -0.13988 0
M  V30 4400 H 414.454 -1.79936 0.359883 0
M  V30 4401 H 412.836 -3.6722 -1.48207 0
M  V30 4402 H 414.01 -4.42803 1.27522 0
M  V30 4403 H 412.325 -4.04226 0.999503 0
M  V30 4404 H 414.922 -5.11196 -1.56788 0
M  V30 4405 H 415.265 -3.5258 -2.21344 0
M  V30 4406 H 415.798 -3.93762 -0.565337 0
M  V30 4407 H 412.537 -6.47294 1.03398 0
M  V30 4408 H 412.057 -5.96768 -0.602374 0
M  V30 4409 H 413.736 -6.46413 -0.27553 0
M  V30 4410 N 413.868 0.0150385 -1.57593 0
M  V30 4411 C 415.093 0.718067 -1.94573 0
M  V30 4412 C 415.518 1.6734 -0.859005 0
M  V30 4413 O 414.876 1.80362 0.184147 0
M  V30 4414 C 414.924 1.43918 -3.30636 0
M  V30 4415 O 414.028 2.55299 -3.23876 0
M  V30 4416 H 413.369 0.192125 -0.635597 0
M  V30 4417 H 415.899 -0.0336708 -2.04572 0
M  V30 4418 H 415.909 1.80598 -3.65853 0
M  V30 4419 H 414.584 0.738619 -4.09289 0
M  V30 4420 H 413.161 2.21058 -3.00312 0
M  V30 4421 N 415.346 1.54954 0.287554 0
M  V30 4422 C 416.757 1.65732 0.859634 0
M  V30 4423 C 417.108 0.574767 1.87592 0
M  V30 4424 O 416.233 -0.286299 2.14498 0
M  V30 4425 C 416.828 3.00438 1.56597 0
M  V30 4426 C 415.387 3.13292 2.08627 0
M  V30 4427 C 414.534 2.61473 0.923416 0
M  V30 4428 H 417.485 1.5857 0.0642338 0
M  V30 4429 H 417.506 2.92613 2.43224 0
M  V30 4430 H 417.018 3.79207 0.826053 0
M  V30 4431 H 415.119 2.39268 2.85625 0
M  V30 4432 H 415.232 4.19647 2.31157 0
M  V30 4433 H 413.596 2.18264 1.31275 0
M  V30 4434 H 414.379 3.42733 0.197241 0
M  V30 4435 N 416.824 -0.551391 1.4764 0
M  V30 4436 C 418.049 -1.33837 1.58437 0
M  V30 4437 C 418.474 -1.866 0.237063 0
M  V30 4438 O 417.832 -1.6328 -0.787994 0
M  V30 4439 C 417.88 -2.48014 2.61766 0
M  V30 4440 O 416.984 -3.50419 2.1744 0
M  V30 4441 H 416.325 -0.397299 0.532024 0
M  V30 4442 H 418.855 -0.665759 1.93465 0
M  V30 4443 H 418.865 -2.94503 2.82369 0
M  V30 4444 H 417.54 -2.08969 3.5959 0
M  V30 4445 H 416.117 -3.10196 2.06961 0
M  V30 4446 N 418.302 -1.35869 -0.798587 0
M  V30 4447 C 419.53 -1.32722 -1.58722 0
M  V30 4448 C 419.945 0.0935631 -1.88568 0
M  V30 4449 O 419.302 1.04784 -1.49421 0
M  V30 4450 C 419.353 -2.13974 -2.91371 0
M  V30 4451 O 419.074 -3.50514 -2.62815 0
M  V30 4452 C 420.575 -2.18504 -3.85708 0
M  V30 4453 H 417.795 -0.45562 -0.492596 0
M  V30 4454 H 420.339 -1.78837 -0.991843 0
M  V30 4455 H 418.494 -1.71438 -3.47402 0
M  V30 4456 H 418.908 -3.92806 -3.47568 0
M  V30 4457 H 420.382 -2.79732 -4.75872 0
M  V30 4458 H 420.859 -1.18597 -4.22885 0
M  V30 4459 H 421.465 -2.61236 -3.35612 0
M  V30 4460 N 419.78 1.02168 -1.19998 0
M  V30 4461 C 421.057 1.72816 -0.916191 0
M  V30 4462 C 421.437 2.03081 0.576325 0
M  V30 4463 O 420.785 1.69122 1.53656 0
M  V30 4464 C 420.995 2.9997 -1.78378 0
M  V30 4465 C 422.343 3.73336 -2.02251 0
M  V30 4466 O 423.367 3.09914 -1.75589 0
M  V30 4467 O 422.226 4.87371 -2.47249 0
M  V30 4468 H 419.32 0.752924 -0.342103 0
M  V30 4469 H 421.866 1.08062 -1.30846 0
M  V30 4470 H 420.638 2.73888 -2.79466 0
M  V30 4471 H 420.261 3.72464 -1.39126 0
M  V30 4472 N 421.258 1.00505 1.21394 0
M  V30 4473 C 422.191 0.51032 2.22421 0
M  V30 4474 C 423.169 -0.436 1.56645 0
M  V30 4475 O 424.353 -0.358709 1.85055 0
M  V30 4476 C 421.48 -0.258733 3.3771 0
M  V30 4477 C 420.526 0.635395 4.2174 0
M  V30 4478 S 421.359 2.09783 4.92698 0
M  V30 4479 C 422.515 1.33862 6.11418 0
M  V30 4480 H 422.748 1.36637 2.64041 0
M  V30 4481 H 420.281 0.812991 1.31262 0
M  V30 4482 H 422.239 -0.696372 4.0455 0
M  V30 4483 H 420.9 -1.0902 2.94573 0
M  V30 4484 H 420.093 0.0430189 5.03982 0
M  V30 4485 H 419.695 1.01031 3.60095 0
M  V30 4486 H 421.987 0.612541 6.74725 0
M  V30 4487 H 422.93 2.13675 6.75092 0
M  V30 4488 H 423.338 0.846568 5.58116 0
M  V30 4489 N 422.737 -1.36956 0.779787 0
M  V30 4490 C 423.685 -2.32053 0.15942 0
M  V30 4491 C 424.679 -1.55333 -0.675878 0
M  V30 4492 O 425.885 -1.70668 -0.57204 0
M  V30 4493 H 422.26 -0.751286 0.0327707 0
M  V30 4494 H 424.231 -2.8195 0.977078 0
M  V30 4495 C 422.98 -3.40602 -0.698977 0
M  V30 4496 H 422.303 -3.99746 -0.0655966 0
M  V30 4497 H 423.743 -4.09486 -1.09989 0
M  V30 4498 C 422.202 -2.81359 -1.85307 0
M  V30 4499 O 422.732 -2.72751 -2.94906 0
M  V30 4500 N 420.938 -2.38786 -1.65619 0
M  V30 4501 H 420.485 -2.45987 -0.764725 0
M  V30 4502 H 420.443 -1.99493 -2.43002 0
M  V30 4503 N 424.215 -0.530993 -1.48385 0
M  V30 4504 C 425.464 0.00474348 -2.01699 0
M  V30 4505 C 425.777 1.35227 -1.41325 0
M  V30 4506 O 426.983 1.97643 -1.86144 0
M  V30 4507 C 425.439 0.0588473 -3.59852 0
M  V30 4508 C 425.047 -1.28385 -4.2921 0
M  V30 4509 C 426.791 0.543358 -4.21008 0
M  V30 4510 C 424.698 -1.19028 -5.79298 0
M  V30 4511 H 423.628 0.00554317 -0.75398 0
M  V30 4512 H 426.279 -0.674924 -1.70637 0
M  V30 4513 H 424.661 0.803612 -3.8776 0
M  V30 4514 H 425.835 -2.04426 -4.12973 0
M  V30 4515 H 424.15 -1.70418 -3.7993 0
M  V30 4516 H 426.747 0.631351 -5.3096 0
M  V30 4517 H 427.09 1.54937 -3.86394 0
M  V30 4518 H 427.623 -0.145754 -3.97533 0
M  V30 4519 H 424.362 -2.17147 -6.18488 0
M  V30 4520 H 423.882 -0.471246 -5.97946 0
M  V30 4521 H 425.561 -0.881365 -6.40969 0
M  V30 4522 N 425.693 1.55336 -0.266172 0
M  V30 4523 C 426.923 2.03506 0.356239 0
M  V30 4524 C 427.331 1.14426 1.50676 0
M  V30 4525 O 426.674 0.155043 1.83045 0
M  V30 4526 C 426.736 3.47848 0.90785 0
M  V30 4527 C 426.4 4.56861 -0.112888 0
M  V30 4528 C 427.397 5.11528 -0.929264 0
M  V30 4529 C 425.082 5.01704 -0.244546 0
M  V30 4530 C 427.076 6.09549 -1.86357 0
M  V30 4531 C 424.763 5.99553 -1.18234 0
M  V30 4532 C 425.761 6.53356 -1.99036 0
M  V30 4533 O 425.449 7.49293 -2.91231 0
M  V30 4534 H 425.181 0.670444 0.08649 0
M  V30 4535 H 427.735 2.01598 -0.39337 0
M  V30 4536 H 425.965 3.46967 1.70737 0
M  V30 4537 H 427.654 3.79407 1.44239 0
M  V30 4538 H 428.42 4.77701 -0.838237 0
M  V30 4539 H 424.299 4.59477 0.374359 0
M  V30 4540 H 427.843 6.51469 -2.49467 0
M  V30 4541 H 423.74 6.32799 -1.27421 0
M  V30 4542 H 424.508 7.66978 -2.8581 0
M  V30 4543 N 427.171 -0.0066808 1.57599 0
M  V30 4544 C 428.119 -1.01851 2.09115 0
M  V30 4545 C 429.113 -1.36021 1.00969 0
M  V30 4546 O 430.319 -1.34663 1.19439 0
M  V30 4547 H 426.694 -0.346083 0.667631 0
M  V30 4548 H 428.665 -0.558394 2.93129 0
M  V30 4549 C 427.414 -2.30374 2.60429 0
M  V30 4550 H 426.737 -2.04947 3.43273 0
M  V30 4551 H 428.177 -2.99466 3.00161 0
M  V30 4552 C 426.636 -3.00893 1.51542 0
M  V30 4553 O 427.166 -3.91614 0.894484 0
M  V30 4554 N 425.372 -2.62603 1.2445 0
M  V30 4555 H 424.919 -1.88911 1.75129 0
M  V30 4556 H 424.877 -3.10101 0.518137 0
M  V30 4557 N 428.649 -1.55105 -0.279332 0
M  V30 4558 C 429.596 -1.8755 -1.34513 0
M  V30 4559 C 430.566 -0.726384 -1.49375 0
M  V30 4560 O 431.751 -0.977063 -1.63884 0
M  V30 4561 C 428.891 -2.14738 -2.70151 0
M  V30 4562 C 428.004 -3.42285 -2.63562 0
M  V30 4563 C 427.139 -3.59206 -3.91337 0
M  V30 4564 C 426.178 -4.80467 -3.79233 0
M  V30 4565 N 425.315 -4.94079 -4.98829 0
M  V30 4566 H 430.155 -2.78456 -1.06143 0
M  V30 4567 H 427.692 -1.37867 -0.512936 0
M  V30 4568 H 429.65 -2.28501 -3.49061 0
M  V30 4569 H 428.28 -1.27075 -2.96735 0
M  V30 4570 H 427.332 -3.37029 -1.76397 0
M  V30 4571 H 428.644 -4.31328 -2.50515 0
M  V30 4572 H 427.798 -3.72751 -4.78687 0
M  V30 4573 H 426.537 -2.68337 -4.07243 0
M  V30 4574 H 425.542 -4.66932 -2.90266 0
M  V30 4575 H 426.767 -5.72765 -3.64852 0
M  V30 4576 H 424.713 -4.06139 -5.15158 0
M  V30 4577 H 424.63 -5.77156 -4.8829 0
M  V30 4578 H 425.898 -5.12003 -5.8777 0
M  V30 4579 N 430.127 0.543554 -1.4793 0
M  V30 4580 C 431.09 1.63156 -1.60975 0
M  V30 4581 C 432.09 1.53346 -0.483899 0
M  V30 4582 O 433.28 1.5726 -0.749339 0
M  V30 4583 C 430.412 3.02743 -1.56716 0
M  V30 4584 H 431.605 1.52934 -2.57975 0
M  V30 4585 H 429.158 0.764557 -1.36324 0
M  V30 4586 H 429.893 3.18484 -0.611418 0
M  V30 4587 H 429.678 3.11272 -2.38438 0
M  V30 4588 H 431.168 3.81871 -1.6901 0
M  V30 4589 N 431.605 1.3629 0.791371 0
M  V30 4590 C 432.535 1.33137 1.91825 0
M  V30 4591 C 433.516 0.203168 1.68882 0
M  V30 4592 O 434.701 0.400509 1.90025 0
M  V30 4593 C 431.831 1.11793 3.28816 0
M  V30 4594 C 430.785 2.21417 3.66277 0
M  V30 4595 C 430.111 1.85218 5.01596 0
M  V30 4596 C 431.411 3.63489 3.75064 0
M  V30 4597 H 433.105 2.2743 1.9472 0
M  V30 4598 H 430.651 1.09479 0.935437 0
M  V30 4599 H 432.604 1.08222 4.07266 0
M  V30 4600 H 431.328 0.139501 3.26302 0
M  V30 4601 H 429.987 2.2411 2.90121 0
M  V30 4602 H 429.635 0.859544 4.95602 0
M  V30 4603 H 429.335 2.58611 5.27631 0
M  V30 4604 H 430.859 1.832 5.82469 0
M  V30 4605 H 432.273 3.63034 4.43711 0
M  V30 4606 H 430.67 4.35771 4.12582 0
M  V30 4607 H 431.74 3.98536 2.76219 0
M  V30 4608 N 433.083 -1.0153 1.20538 0
M  V30 4609 C 434.015 -2.10224 0.913155 0
M  V30 4610 C 435.028 -1.62495 -0.0995998 0
M  V30 4611 O 436.217 -1.78014 0.131582 0
M  V30 4612 C 433.317 -3.37111 0.347717 0
M  V30 4613 C 432.49 -4.13971 1.41233 0
M  V30 4614 C 431.549 -5.19158 0.857976 0
M  V30 4615 O 430.575 -5.48 1.53897 0
M  V30 4616 N 431.777 -5.7955 -0.331966 0
M  V30 4617 H 434.542 -2.35879 1.84881 0
M  V30 4618 H 432.103 -1.17931 1.10923 0
M  V30 4619 H 434.095 -4.04683 -0.0373026 0
M  V30 4620 H 432.665 -3.08696 -0.492527 0
M  V30 4621 H 431.885 -3.41351 1.97163 0
M  V30 4622 H 433.173 -4.62103 2.12928 0
M  V30 4623 H 432.571 -5.58455 -0.902478 0
M  V30 4624 H 431.128 -6.48464 -0.65861 0
M  V30 4625 N 434.561 -1.01147 -1.20859 0
M  V30 4626 C 435.509 -0.57059 -2.25493 0
M  V30 4627 C 436.503 0.388109 -1.64894 0
M  V30 4628 O 437.709 0.258592 -1.78133 0
M  V30 4629 H 434.084 -0.166191 -0.733406 0
M  V30 4630 H 436.055 -1.46411 -2.60012 0
M  V30 4631 C 434.804 0.0805241 -3.47607 0
M  V30 4632 H 434.127 -0.648156 -3.94511 0
M  V30 4633 H 435.567 0.352197 -4.22535 0
M  V30 4634 C 434.026 1.32175 -3.09889 0
M  V30 4635 O 434.556 2.41553 -3.20959 0
M  V30 4636 N 432.762 1.20392 -2.64488 0
M  V30 4637 H 432.309 0.313905 -2.5568 0
M  V30 4638 H 432.267 2.03541 -2.39621 0
M  V30 4639 N 436.039 1.36541 -0.78704 0
M  V30 4640 C 437.286 1.99304 -0.358341 0
M  V30 4641 C 437.614 1.62467 1.06933 0
M  V30 4642 O 436.869 0.870019 1.75297 0
M  V30 4643 C 437.168 3.54343 -0.466485 0
M  V30 4644 C 436.834 4.10993 -1.85461 0
M  V30 4645 C 435.496 4.26177 -2.23443 0
M  V30 4646 C 437.848 4.41895 -2.76366 0
M  V30 4647 C 435.176 4.69573 -3.51736 0
M  V30 4648 C 437.528 4.86722 -4.04084 0
M  V30 4649 C 436.192 5.00112 -4.42091 0
M  V30 4650 H 435.462 0.729306 -0.131126 0
M  V30 4651 H 438.109 1.63068 -1.00404 0
M  V30 4652 H 436.414 3.90918 0.262719 0
M  V30 4653 H 438.111 4.00833 -0.115854 0
M  V30 4654 H 434.701 3.99612 -1.54946 0
M  V30 4655 H 438.885 4.29735 -2.48277 0
M  V30 4656 H 434.141 4.78127 -3.81057 0
M  V30 4657 H 438.315 5.09598 -4.7464 0
M  V30 4658 H 435.942 5.33498 -5.41557 0
M  V30 4659 N 437.518 0.538854 1.48102 0
M  V30 4660 C 438.45 -0.256278 2.27763 0
M  V30 4661 C 439.463 -0.89633 1.35904 0
M  V30 4662 O 440.652 -0.773275 1.60881 0
M  V30 4663 C 437.752 -1.37896 3.09577 0
M  V30 4664 C 436.925 -0.839159 4.29275 0
M  V30 4665 C 435.984 -1.84405 4.9283 0
M  V30 4666 O 435.01 -1.39746 5.51779 0
M  V30 4667 N 436.212 -3.17666 4.85869 0
M  V30 4668 H 438.977 0.426968 2.96643 0
M  V30 4669 H 436.538 0.373747 1.57527 0
M  V30 4670 H 438.53 -2.04955 3.48963 0
M  V30 4671 H 437.1 -1.96572 2.4306 0
M  V30 4672 H 436.32 0.00769287 3.94199 0
M  V30 4673 H 437.608 -0.457548 5.06739 0
M  V30 4674 H 437.006 -3.56609 4.39143 0
M  V30 4675 H 435.563 -3.80334 5.29329 0
M  V30 4676 N 438.996 -1.55193 0.274407 0
M  V30 4677 C 440.273 -1.91584 -0.394331 0
M  V30 4678 C 440.653 -1.19858 -1.73774 0
M  V30 4679 O 440.001 -0.3252 -2.26174 0
M  V30 4680 C 440.211 -3.4487 -0.535311 0
M  V30 4681 C 441.559 -4.16636 -0.818534 0
M  V30 4682 O 442.583 -3.5076 -0.620146 0
M  V30 4683 O 441.442 -5.33209 -1.19792 0
M  V30 4684 H 438.536 -0.798349 -0.215794 0
M  V30 4685 H 441.082 -1.66646 0.320507 0
M  V30 4686 H 439.854 -3.89145 0.410141 0
M  V30 4687 H 439.477 -3.75759 -1.29964 0
M  V30 4688 N 440.474 -0.00167713 -1.576 0
M  V30 4689 C 441.723 0.682021 -1.89819 0
M  V30 4690 C 442.036 1.74844 -0.876871 0
M  V30 4691 O 443.242 2.48688 -1.08934 0
M  V30 4692 C 441.698 1.26425 -3.36964 0
M  V30 4693 C 441.306 0.232568 -4.47396 0
M  V30 4694 C 443.05 1.92604 -3.78291 0
M  V30 4695 C 440.957 0.824882 -5.85619 0
M  V30 4696 H 439.887 0.258499 -0.708304 0
M  V30 4697 H 442.538 -0.0624957 -1.83394 0
M  V30 4698 H 440.92 2.05949 -3.38232 0
M  V30 4699 H 442.094 -0.5382 -4.57646 0
M  V30 4700 H 440.409 -0.32888 -4.15099 0
M  V30 4701 H 443.006 2.37827 -4.78897 0
M  V30 4702 H 443.349 2.75732 -3.11894 0
M  V30 4703 H 443.882 1.19812 -3.79328 0
M  V30 4704 H 440.621 0.0323542 -6.55492 0
M  V30 4705 H 440.141 1.56477 -5.79029 0
M  V30 4706 H 441.82 1.32301 -6.33329 0
M  V30 4707 N 441.952 1.55251 0.271103 0
M  V30 4708 C 442.915 1.87484 1.31842 0
M  V30 4709 C 443.915 0.749545 1.42262 0
M  V30 4710 O 445.105 1.01771 1.4138 0
M  V30 4711 C 442.237 2.0818 2.69951 0
M  V30 4712 H 443.43 2.81108 1.0449 0
M  V30 4713 H 440.983 1.47771 0.509258 0
M  V30 4714 H 441.718 1.16944 3.02481 0
M  V30 4715 H 441.503 2.90114 2.63774 0
M  V30 4716 H 442.993 2.34385 3.4562 0
M  V30 4717 N 443.43 -0.535701 1.48216 0
M  V30 4718 C 444.378 -1.66179 1.62749 0
M  V30 4719 C 445.372 -1.62034 0.49409 0
M  V30 4720 O 446.578 -1.6696 0.672624 0
M  V30 4721 H 442.953 -0.550244 0.512578 0
M  V30 4722 H 444.924 -1.51063 2.57337 0
M  V30 4723 C 443.673 -3.04471 1.67907 0
M  V30 4724 H 442.996 -3.08351 2.54479 0
M  V30 4725 H 444.436 -3.82894 1.82121 0
M  V30 4726 C 442.895 -3.34314 0.416596 0
M  V30 4727 O 443.425 -3.98905 -0.473014 0
M  V30 4728 N 441.631 -2.89149 0.290038 0
M  V30 4729 H 441.178 -2.36764 1.01493 0
M  V30 4730 H 441.136 -3.09486 -0.55367 0
M  V30 4731 N 444.908 -1.36708 -0.784132 0
M  V30 4732 C 446.324 -1.17237 -1.08294 0
M  V30 4733 C 446.524 -5.93947e-05 -2.015 0
M  V30 4734 O 445.58 0.663686 -2.43622 0
M  V30 4735 C 446.893 -2.48557 -1.69233 0
M  V30 4736 C 448.441 -2.54968 -1.8155 0
M  V30 4737 C 448.916 -3.86388 -2.45904 0
M  V30 4738 N 450.407 -3.87762 -2.53367 0
M  V30 4739 C 451.142 -4.86191 -3.03983 0
M  V30 4740 N 450.638 -5.95015 -3.54866 0
M  V30 4741 N 452.431 -4.73606 -3.02743 0
M  V30 4742 H 444.582 -2.11758 -0.16501 0
M  V30 4743 H 446.845 -0.93822 -0.135822 0
M  V30 4744 H 446.551 -3.34638 -1.08215 0
M  V30 4745 H 446.425 -2.64748 -2.68679 0
M  V30 4746 H 448.812 -1.69302 -2.41704 0
M  V30 4747 H 448.893 -2.42672 -0.80895 0
M  V30 4748 H 448.537 -4.72462 -1.86392 0
M  V30 4749 H 448.467 -3.95982 -3.4714 0
M  V30 4750 H 450.958 -3.09145 -2.17343 0
M  V30 4751 H 451.271 -6.66086 -3.91854 0
M  V30 4752 H 449.616 -5.98676 -3.53003 0
M  V30 4753 H 452.807 -3.87717 -2.62284 0
M  V30 4754 H 452.98 -5.50473 -3.41881 0
M  V30 4755 N 446.386 1.0089 -1.21074 0
M  V30 4756 C 447.316 2.1145 -0.990523 0
M  V30 4757 C 448.297 1.69897 0.0831699 0
M  V30 4758 O 449.482 1.94052 -0.0758853 0
M  V30 4759 C 446.612 3.42914 -0.550177 0
M  V30 4760 C 445.566 3.98244 -1.56799 0
M  V30 4761 C 444.892 5.25568 -0.984013 0
M  V30 4762 C 446.192 4.30752 -2.95381 0
M  V30 4763 H 447.886 2.3013 -1.91521 0
M  V30 4764 H 445.432 1.10592 -0.92225 0
M  V30 4765 H 447.385 4.19653 -0.383305 0
M  V30 4766 H 446.109 3.24014 0.41015 0
M  V30 4767 H 444.768 3.23621 -1.72236 0
M  V30 4768 H 444.416 5.02998 -0.0155216 0
M  V30 4769 H 444.116 5.63551 -1.66384 0
M  V30 4770 H 445.64 6.04955 -0.828378 0
M  V30 4771 H 447.054 4.98349 -2.8341 0
M  V30 4772 H 445.451 4.79869 -3.60341 0
M  V30 4773 H 446.521 3.39192 -3.46521 0
M  V30 4774 N 447.864 1.01787 1.20321 0
M  V30 4775 C 448.812 0.58254 2.25187 0
M  V30 4776 C 449.806 -0.379359 1.65098 0
M  V30 4777 O 451.012 -0.249142 1.78267 0
M  V30 4778 H 447.387 0.170078 0.732514 0
M  V30 4779 H 449.358 1.47788 2.59232 0
M  V30 4780 C 448.107 -0.0620885 3.47645 0
M  V30 4781 H 447.43 0.669069 3.94162 0
M  V30 4782 H 448.87 -0.329784 4.22716 0
M  V30 4783 C 447.329 -1.3053 3.10586 0
M  V30 4784 O 447.859 -2.39848 3.22236 0
M  V30 4785 N 446.065 -1.18988 2.65123 0
M  V30 4786 H 445.612 -0.300341 2.55843 0
M  V30 4787 H 445.57 -2.02267 2.40698 0
M  V30 4788 N 449.342 -1.36122 0.79427 0
M  V30 4789 C 450.591 -1.98361 0.365464 0
M  V30 4790 C 450.904 -1.6374 -1.06997 0
M  V30 4791 O 452.11 -2.19251 -1.60129 0
M  V30 4792 C 450.566 -3.54821 0.602496 0
M  V30 4793 C 450.174 -3.98362 2.04967 0
M  V30 4794 C 451.918 -4.2383 0.238437 0
M  V30 4795 C 449.825 -5.47619 2.2331 0
M  V30 4796 H 448.755 -0.742193 0.13291 0
M  V30 4797 H 451.406 -1.55354 0.976589 0
M  V30 4798 H 449.788 -3.95922 -0.078409 0
M  V30 4799 H 450.962 -3.68447 2.76737 0
M  V30 4800 H 449.277 -3.42206 2.37243 0
M  V30 4801 H 451.874 -5.33529 0.353705 0
M  V30 4802 H 452.217 -4.08264 -0.814006 0
M  V30 4803 H 452.75 -3.88108 0.872769 0
M  V30 4804 H 449.489 -5.68138 3.26955 0
M  V30 4805 H 449.009 -5.79145 1.5605 0
M  V30 4806 H 450.688 -6.13911 2.0426 0
M  V30 4807 N 450.82 -0.546701 -1.47814 0
M  V30 4808 C 452.066 -0.0187684 -2.02791 0
M  V30 4809 C 452.399 1.32338 -1.42128 0
M  V30 4810 O 451.674 1.85867 -0.573023 0
M  V30 4811 C 451.957 0.0854985 -3.59998 0
M  V30 4812 C 451.81 -1.283 -4.31114 0
M  V30 4813 C 453.129 0.80412 -4.32691 0
M  V30 4814 H 450.248 -0.0082946 -0.736953 0
M  V30 4815 H 452.89 -0.706962 -1.76358 0
M  V30 4816 H 451.04 0.671609 -3.82651 0
M  V30 4817 H 452.712 -1.91151 -4.19832 0
M  V30 4818 H 450.955 -1.86049 -3.91878 0
M  V30 4819 H 451.626 -1.16287 -5.39612 0
M  V30 4820 H 454.102 0.306576 -4.14969 0
M  V30 4821 H 452.978 0.846011 -5.42341 0
M  V30 4822 H 453.239 1.85802 -4.01161 0
M  V30 4823 N 452.299 1.55045 -0.282633 0
M  V30 4824 C 453.524 2.04628 0.337977 0
M  V30 4825 C 453.949 1.15937 1.48123 0
M  V30 4826 O 453.307 0.159532 1.80597 0
M  V30 4827 C 453.355 3.51854 0.78936 0
M  V30 4828 O 452.459 3.66236 1.89592 0
M  V30 4829 H 451.8 0.660434 0.0687261 0
M  V30 4830 H 454.33 2.00261 -0.419124 0
M  V30 4831 H 454.34 3.93361 1.08311 0
M  V30 4832 H 453.015 4.15873 -0.0470419 0
M  V30 4833 H 451.592 3.36633 1.60413 0
M  V30 4834 N 453.777 0.010035 1.57597 0
M  V30 4835 C 455.002 -0.687021 1.95691 0
M  V30 4836 C 455.427 -1.65952 0.885519 0
M  V30 4837 O 454.785 -1.80633 -0.15543 0
M  V30 4838 C 454.833 -1.3864 3.32884 0
M  V30 4839 O 453.937 -2.50115 3.27897 0
M  V30 4840 H 453.278 -0.181989 0.638573 0
M  V30 4841 H 455.808 0.0662122 2.04493 0
M  V30 4842 H 455.818 -1.74754 3.6868 0
M  V30 4843 H 454.493 -0.673411 4.10412 0
M  V30 4844 H 453.07 -2.16253 3.03791 0
M  V30 4845 N 455.255 -1.55392 -0.262866 0
M  V30 4846 C 456.218 -1.88181 -1.30846 0
M  V30 4847 C 457.218 -0.757079 -1.41862 0
M  V30 4848 O 458.408 -1.02519 -1.40838 0
M  V30 4849 C 455.54 -2.09609 -2.68844 0
M  V30 4850 H 456.733 -2.81659 -1.02997 0
M  V30 4851 H 454.286 -1.48039 -0.501414 0
M  V30 4852 H 455.021 -1.18547 -3.01856 0
M  V30 4853 H 454.806 -2.91508 -2.62231 0
M  V30 4854 H 456.296 -2.36215 -3.44372 0
M  V30 4855 N 456.733 0.527833 -1.48498 0
M  V30 4856 C 457.665 1.6482 -1.5927 0
M  V30 4857 C 458.678 1.55659 -0.476869 0
M  V30 4858 O 459.867 1.62081 -0.747806 0
M  V30 4859 C 456.967 3.0348 -1.50842 0
M  V30 4860 C 456.14 3.381 -2.77502 0
M  V30 4861 C 455.199 4.5605 -2.62497 0
M  V30 4862 O 454.225 4.59165 -3.36387 0
M  V30 4863 N 455.427 5.54353 -1.72257 0
M  V30 4864 H 458.192 1.56015 -2.55889 0
M  V30 4865 H 455.753 0.715152 -1.45249 0
M  V30 4866 H 457.745 3.80264 -1.38496 0
M  V30 4867 H 456.315 3.06352 -0.621887 0
M  V30 4868 H 455.535 2.50473 -3.04396 0
M  V30 4869 H 456.823 3.58017 -3.61527 0
M  V30 4870 H 456.221 5.54617 -1.11431 0
M  V30 4871 H 454.778 6.30347 -1.65849 0
M  V30 4872 N 458.211 1.37122 0.776871 0
M  V30 4873 C 459.459 1.31787 1.53221 0
M  V30 4874 C 459.78 -0.0987589 1.9475 0
M  V30 4875 O 459.05 -1.0417 1.65908 0
M  V30 4876 H 457.63 0.484839 0.568278 0
M  V30 4877 H 460.292 1.71556 0.924917 0
M  V30 4878 H 459.388 1.95355 2.43398 0
M  V30 4879 N 459.689 -1.00246 1.21608 0
M  V30 4880 C 460.914 -1.78167 1.06167 0
M  V30 4881 C 461.339 -1.84138 -0.384035 0
M  V30 4882 O 460.697 -1.28683 -1.27712 0
M  V30 4883 C 460.745 -3.19786 1.66642 0
M  V30 4884 O 459.849 -4.02153 0.913613 0
M  V30 4885 H 459.19 -0.549 0.37349 0
M  V30 4886 H 461.72 -1.25994 1.61204 0
M  V30 4887 H 461.73 -3.70451 1.70969 0
M  V30 4888 H 460.405 -3.14754 2.7185 0
M  V30 4889 H 458.982 -3.60711 0.945635 0
M  V30 4890 N 461.167 -1.02423 -1.1978 0
M  V30 4891 C 462.415 -0.716569 -1.8897 0
M  V30 4892 C 462.736 0.756769 -1.79716 0
M  V30 4893 O 462.006 1.5449 -1.20456 0
M  V30 4894 H 460.586 -0.262062 -0.699523 0
M  V30 4895 H 463.248 -1.29747 -1.45436 0
M  V30 4896 H 462.344 -1.00675 -2.95417 0
M  V30 4897 N 462.645 1.35699 -0.801477 0
M  V30 4898 C 463.894 1.98165 -0.375979 0
M  V30 4899 C 464.207 1.64306 1.06127 0
M  V30 4900 O 465.413 2.20097 1.58964 0
M  V30 4901 C 463.869 3.54497 -0.621305 0
M  V30 4902 C 463.477 3.9727 -2.07076 0
M  V30 4903 C 465.221 4.23697 -0.26091 0
M  V30 4904 C 463.128 5.46427 -2.26211 0
M  V30 4905 H 462.058 0.741478 -0.136844 0
M  V30 4906 H 464.709 1.54834 -0.984814 0
M  V30 4907 H 463.091 3.95958 0.0574112 0
M  V30 4908 H 464.265 3.66974 -2.78687 0
M  V30 4909 H 462.58 3.40943 -2.39054 0
M  V30 4910 H 465.177 5.33334 -0.381994 0
M  V30 4911 H 465.52 4.0869 0.792344 0
M  V30 4912 H 466.053 3.87639 -0.893339 0
M  V30 4913 H 462.792 5.66396 -3.29963 0
M  V30 4914 H 462.312 5.78309 -1.59119 0
M  V30 4915 H 463.991 6.12819 -2.07513 0
M  V30 4916 N 464.123 0.554532 1.47522 0
M  V30 4917 C 465.4 -0.0360704 1.95567 0
M  V30 4918 C 465.78 -1.48828 1.49711 0
M  V30 4919 O 465.128 -2.16366 0.734717 0
M  V30 4920 C 465.338 0.106631 3.48837 0
M  V30 4921 C 466.686 -0.0400899 4.24581 0
M  V30 4922 O 467.71 0.0340453 3.56184 0
M  V30 4923 O 466.569 -0.199111 5.46137 0
M  V30 4924 H 463.663 -0.0656294 0.824392 0
M  V30 4925 H 466.209 0.620867 1.57935 0
M  V30 4926 H 464.981 1.11727 3.7501 0
M  V30 4927 H 464.604 -0.58804 3.93227 0
M  V30 4928 N 465.601 -1.54893 0.290851 0
M  V30 4929 C 466.85 -1.99111 -0.322113 0
M  V30 4930 C 467.163 -1.18283 -1.55784 0
M  V30 4931 O 468.369 -1.5272 -2.24475 0
M  V30 4932 C 466.825 -3.54442 -0.624438 0
M  V30 4933 C 466.433 -4.44066 0.592373 0
M  V30 4934 C 468.177 -4.07211 -1.19916 0
M  V30 4935 C 466.084 -5.90812 0.263762 0
M  V30 4936 H 465.014 -0.743712 -0.124133 0
M  V30 4937 H 467.665 -1.79132 0.39797 0
M  V30 4938 H 466.047 -3.70281 -1.40384 0
M  V30 4939 H 467.221 -4.39999 1.36886 0
M  V30 4940 H 465.536 -4.02015 1.08502 0
M  V30 4941 H 468.133 -5.14407 -1.45909 0
M  V30 4942 H 468.476 -3.57196 -2.13815 0
M  V30 4943 H 469.009 -3.94873 -0.481687 0
M  V30 4944 H 465.748 -6.44955 1.17105 0
M  V30 4945 H 465.268 -5.97911 -0.475655 0
M  V30 4946 H 466.947 -6.46852 -0.138354 0
M  V30 4947 N 467.08 -0.0183926 -1.57589 0
M  V30 4948 C 468.305 0.676634 -1.96052 0
M  V30 4949 C 468.73 1.6548 -0.894307 0
M  V30 4950 O 468.088 1.80712 0.145849 0
M  V30 4951 C 468.136 1.36872 -3.33614 0
M  V30 4952 O 467.24 2.48372 -3.29219 0
M  V30 4953 H 466.581 0.1786 -0.63953 0
M  V30 4954 H 469.111 -0.077056 -2.04455 0
M  V30 4955 H 469.121 1.72797 -3.69601 0
M  V30 4956 H 467.796 0.651636 -4.10763 0
M  V30 4957 H 466.373 2.14639 -3.04934 0
M  V30 4958 N 468.558 1.5553 0.254621 0
M  V30 4959 C 469.488 1.9268 1.31897 0
M  V30 4960 C 470.469 0.790797 1.506 0
M  V30 4961 O 471.654 1.05045 1.63337 0
M  V30 4962 C 468.784 2.21477 2.67517 0
M  V30 4963 C 467.738 3.37256 2.63519 0
M  V30 4964 C 467.064 3.51576 4.02862 0
M  V30 4965 C 468.364 4.73157 2.21179 0
M  V30 4966 H 470.058 2.81832 1.01051 0
M  V30 4967 H 467.604 1.35599 0.484662 0
M  V30 4968 H 469.557 2.46055 3.42104 0
M  V30 4969 H 468.281 1.29144 2.99982 0
M  V30 4970 H 466.94 3.12675 1.9139 0
M  V30 4971 H 466.588 2.56676 4.32581 0
M  V30 4972 H 466.288 4.2943 4.01078 0
M  V30 4973 H 467.812 3.78467 4.79161 0
M  V30 4974 H 469.226 4.97158 2.85494 0
M  V30 4975 H 467.623 5.54058 2.30521 0
M  V30 4976 H 468.693 4.70739 1.16332 0
M  V30 4977 N 470.036 -0.519951 1.48776 0
M  V30 4978 C 471.266 -1.29783 1.60748 0
M  V30 4979 C 471.674 -1.87253 0.27072 0
M  V30 4980 O 471.017 -1.67628 -0.751438 0
M  V30 4981 C 471.079 -2.47984 2.60277 0
M  V30 4982 C 470.743 -2.11526 4.051 0
M  V30 4983 C 471.74 -1.66608 4.92481 0
M  V30 4984 C 469.425 -2.21742 4.50706 0
M  V30 4985 C 471.419 -1.32384 6.23501 0
M  V30 4986 C 469.106 -1.87129 5.81744 0
M  V30 4987 C 470.104 -1.42523 6.67964 0
M  V30 4988 O 469.792 -1.0837 7.96562 0
M  V30 4989 H 469.524 -0.400562 0.544542 0
M  V30 4990 H 472.078 -0.632879 1.95407 0
M  V30 4991 H 470.308 -3.17493 2.2076 0
M  V30 4992 H 471.997 -3.10036 2.61978 0
M  V30 4993 H 472.763 -1.58178 4.58481 0
M  V30 4994 H 468.642 -2.55415 3.83776 0
M  V30 4995 H 472.186 -0.974949 6.90754 0
M  V30 4996 H 468.083 -1.95204 6.15277 0
M  V30 4997 H 468.851 -1.21681 8.09405 0
M  V30 4998 N 471.514 -1.37532 -0.769588 0
M  V30 4999 C 472.461 -1.3347 -1.88293 0
M  V30 5000 C 473.431 -0.199891 -1.64893 0
M  V30 5001 O 474.616 -0.389594 -1.8678 0
M  V30 5002 C 471.756 -1.14968 -3.25387 0
M  V30 5003 C 470.869 -2.37698 -3.60727 0
M  V30 5004 C 470.004 -2.12051 -4.8704 0
M  V30 5005 C 469.043 -3.30636 -5.15117 0
M  V30 5006 N 468.18 -3.04527 -6.3262 0
M  V30 5007 H 473.02 -2.28658 -1.911 0
M  V30 5008 H 470.557 -1.13622 -0.934257 0
M  V30 5009 H 472.515 -1.02261 -4.04473 0
M  V30 5010 H 471.145 -0.234263 -3.21949 0
M  V30 5011 H 470.197 -2.61137 -2.76608 0
M  V30 5012 H 471.509 -3.26131 -3.77413 0
M  V30 5013 H 470.663 -1.96388 -5.74035 0
M  V30 5014 H 469.402 -1.20959 -4.72462 0
M  V30 5015 H 468.407 -3.46836 -4.26597 0
M  V30 5016 H 469.632 -4.22582 -5.31603 0
M  V30 5017 H 467.578 -2.16067 -6.19396 0
M  V30 5018 H 467.495 -3.86503 -6.49732 0
M  V30 5019 H 468.763 -2.92485 -7.22546 0
M  V30 5020 N 472.992 0.995999 -1.22138 0
M  V30 5021 C 473.924 2.08745 -0.946485 0
M  V30 5022 C 474.937 1.62633 0.0737356 0
M  V30 5023 O 476.126 1.77782 -0.159886 0
M  V30 5024 C 473.226 3.36516 -0.401305 0
M  V30 5025 C 472.399 4.11672 -1.47801 0
M  V30 5026 C 471.458 5.17728 -0.940461 0
M  V30 5027 O 470.484 5.45482 -1.62596 0
M  V30 5028 N 471.686 5.80005 0.239723 0
M  V30 5029 H 474.451 2.32908 -1.88611 0
M  V30 5030 H 472.012 1.16152 -1.12785 0
M  V30 5031 H 474.004 4.04691 -0.0270837 0
M  V30 5032 H 472.574 3.0944 0.443354 0
M  V30 5033 H 471.794 3.38171 -2.02568 0
M  V30 5034 H 473.082 4.58657 -2.20253 0
M  V30 5035 H 472.48 5.5982 0.813518 0
M  V30 5036 H 471.037 6.4943 0.555361 0
M  V30 5037 N 474.47 1.03057 1.19235 0
M  V30 5038 C 475.719 0.72326 1.88287 0
M  V30 5039 C 476.032 -0.751333 1.80594 0
M  V30 5040 O 477.238 -1.17176 2.44912 0
M  V30 5041 C 475.694 1.24338 3.3774 0
M  V30 5042 C 475.302 2.74587 3.53986 0
M  V30 5043 C 477.046 1.01213 4.12257 0
M  V30 5044 C 474.953 3.20009 4.97341 0
M  V30 5045 H 473.883 0.266848 0.705201 0
M  V30 5046 H 476.534 1.24509 1.34795 0
M  V30 5047 H 474.916 0.649457 3.90638 0
M  V30 5048 H 476.09 3.39649 3.11408 0
M  V30 5049 H 474.405 2.9601 2.9286 0
M  V30 5050 H 477.002 1.32675 5.17978 0
M  V30 5051 H 477.345 -0.051001 4.16269 0
M  V30 5052 H 477.878 1.57014 3.65501 0
M  V30 5053 H 474.617 4.25659 4.98493 0
M  V30 5054 H 474.137 2.59676 5.40674 0
M  V30 5055 H 475.816 3.13447 5.66003 0
M  V30 5056 N 475.948 -1.35272 0.808662 0
M  V30 5057 C 477.178 -2.02652 0.401953 0
M  V30 5058 C 477.586 -1.6108 -0.992462 0
M  V30 5059 O 476.929 -0.804984 -1.65123 0
M  V30 5060 C 476.991 -3.57174 0.408246 0
M  V30 5061 C 476.655 -4.22019 1.75353 0
M  V30 5062 C 477.652 -4.43552 2.71215 0
M  V30 5063 C 475.337 -4.59093 2.03811 0
M  V30 5064 C 477.331 -5.01264 3.93717 0
M  V30 5065 C 475.018 -5.16519 3.26576 0
M  V30 5066 C 476.016 -5.37546 4.21347 0
M  V30 5067 O 475.704 -5.93761 5.41944 0
M  V30 5068 H 475.436 -0.656495 0.161216 0
M  V30 5069 H 477.99 -1.73829 1.0942 0
M  V30 5070 H 476.22 -3.85197 -0.340608 0
M  V30 5071 H 477.909 -4.05893 0.0235623 0
M  V30 5072 H 478.675 -4.15288 2.50522 0
M  V30 5073 H 474.554 -4.42039 1.30854 0
M  V30 5074 H 478.098 -5.17592 4.67701 0
M  V30 5075 H 473.995 -5.4421 3.47139 0
M  V30 5076 H 474.763 -6.1221 5.43269 0
M  V30 5077 N 477.426 -0.562348 -1.47226 0
M  V30 5078 C 478.373 0.182461 -2.30078 0
M  V30 5079 C 479.343 0.903503 -1.39377 0
M  V30 5080 O 480.528 0.898188 -1.68337 0
M  V30 5081 C 477.668 1.20322 -3.23445 0
M  V30 5082 C 476.781 0.487717 -4.29238 0
M  V30 5083 C 475.916 1.49422 -5.09752 0
M  V30 5084 C 474.955 0.763976 -6.07314 0
M  V30 5085 N 474.092 1.71755 -6.80768 0
M  V30 5086 H 478.932 -0.530169 -2.93246 0
M  V30 5087 H 476.469 -0.273276 -1.44539 0
M  V30 5088 H 478.427 1.80768 -3.76004 0
M  V30 5089 H 477.057 1.88382 -2.6213 0
M  V30 5090 H 476.109 -0.231374 -3.79696 0
M  V30 5091 H 477.421 -0.0841003 -4.98729 0
M  V30 5092 H 476.575 2.17206 -5.66486 0
M  V30 5093 H 475.314 2.09995 -4.40174 0
M  V30 5094 H 474.319 0.0722344 -5.49753 0
M  V30 5095 H 475.544 0.16391 -6.78902 0
M  V30 5096 H 473.49 2.31177 -6.13916 0
M  V30 5097 H 473.407 1.19802 -7.46447 0
M  V30 5098 H 474.675 2.38638 -7.42073 0
M  V30 5099 N 478.904 1.54736 -0.299062 0
M  V30 5100 C 479.852 2.24897 0.593658 0
M  V30 5101 C 480.846 1.25429 1.13859 0
M  V30 5102 O 482.052 1.43286 1.08945 0
M  V30 5103 H 478.427 0.72207 0.210046 0
M  V30 5104 H 480.398 2.98393 -0.0206421 0
M  V30 5105 C 479.147 3.00159 1.75499 0
M  V30 5106 H 478.47 3.76501 1.34489 0
M  V30 5107 H 479.91 3.52535 2.35574 0
M  V30 5108 C 478.369 2.07015 2.65794 0
M  V30 5109 O 478.899 1.63692 3.66835 0
M  V30 5110 N 477.105 1.73012 2.33485 0
M  V30 5111 H 476.652 2.08439 1.51364 0
M  V30 5112 H 476.61 1.10965 2.94167 0
M  V30 5113 N 480.382 0.0267497 1.57577 0
M  V30 5114 C 481.329 -0.955894 2.10075 0
M  V30 5115 C 482.299 -1.32453 1.00226 0
M  V30 5116 O 483.484 -1.41826 1.27632 0
M  V30 5117 C 480.624 -2.2338 2.6305 0
M  V30 5118 C 479.737 -1.92183 3.86898 0
M  V30 5119 C 478.872 -3.14251 4.28275 0
M  V30 5120 C 477.911 -2.78862 5.44888 0
M  V30 5121 N 477.048 -3.93548 5.81433 0
M  V30 5122 H 481.888 -0.501303 2.93753 0
M  V30 5123 H 479.425 -0.235847 1.45197 0
M  V30 5124 H 481.383 -2.98124 2.91853 0
M  V30 5125 H 480.013 -2.6646 1.82205 0
M  V30 5126 H 479.065 -1.07692 3.64838 0
M  V30 5127 H 480.377 -1.62117 4.7172 0
M  V30 5128 H 479.531 -3.97317 4.58502 0
M  V30 5129 H 478.27 -3.47476 3.42215 0
M  V30 5130 H 477.275 -1.94208 5.14357 0
M  V30 5131 H 478.5 -2.46855 6.32645 0
M  V30 5132 H 476.446 -4.2662 4.98328 0
M  V30 5133 H 476.363 -3.67098 6.6089 0
M  V30 5134 H 477.631 -4.77325 6.16264 0
M  V30 5135 N 481.861 -1.55662 -0.24637 0
M  V30 5136 C 483.091 -1.81312 -0.990438 0
M  V30 5137 C 483.499 -0.600234 -1.79426 0
M  V30 5138 O 482.842 0.440537 -1.78339 0
M  V30 5139 C 482.904 -3.0032 -1.97607 0
M  V30 5140 C 482.568 -4.36322 -1.35912 0
M  V30 5141 C 483.565 -5.14295 -0.761348 0
M  V30 5142 C 481.25 -4.83019 -1.37833 0
M  V30 5143 C 483.244 -6.37114 -0.190998 0
M  V30 5144 C 480.931 -6.05786 -0.804128 0
M  V30 5145 C 481.929 -6.82672 -0.211489 0
M  V30 5146 O 481.617 -8.03121 0.353845 0
M  V30 5147 H 481.349 -0.607233 -0.297058 0
M  V30 5148 H 483.903 -2.0356 -0.274351 0
M  V30 5149 H 482.133 -2.73829 -2.73047 0
M  V30 5150 H 483.822 -3.13057 -2.58361 0
M  V30 5151 H 484.588 -4.79337 -0.739013 0
M  V30 5152 H 480.467 -4.23165 -1.829 0
M  V30 5153 H 484.011 -6.97069 0.272206 0
M  V30 5154 H 479.908 -6.40222 -0.823792 0
M  V30 5155 H 480.676 -8.18131 0.245761 0
M  V30 5156 N 483.339 0.512053 -1.4905 0
M  V30 5157 C 484.616 1.27337 -1.48474 0
M  V30 5158 C 484.996 2.1009 -0.206301 0
M  V30 5159 O 484.344 2.136 0.811609 0
M  V30 5160 C 484.554 2.13954 -2.75726 0
M  V30 5161 C 485.902 2.73507 -3.24776 0
M  V30 5162 O 486.926 2.24229 -2.76767 0
M  V30 5163 O 485.785 3.63186 -4.08361 0
M  V30 5164 H 482.879 0.575652 -0.593762 0
M  V30 5165 H 485.425 0.527232 -1.61302 0
M  V30 5166 H 484.197 1.52709 -3.60272 0
M  V30 5167 H 483.82 2.95782 -2.65705 0
M  V30 5168 N 484.817 1.37938 0.762283 0
M  V30 5169 C 486.064 1.33668 1.52115 0
M  V30 5170 C 486.392 -0.0759538 1.94352 0
M  V30 5171 O 485.647 -1.05121 1.6507 0
M  V30 5172 C 485.946 2.23042 2.79261 0
M  V30 5173 C 485.612 3.71159 2.56031 0
M  V30 5174 C 484.274 4.11523 2.49404 0
M  V30 5175 C 486.626 4.64955 2.35513 0
M  V30 5176 C 483.954 5.43784 2.20263 0
M  V30 5177 C 486.306 5.97464 2.07894 0
M  V30 5178 C 484.97 6.36922 1.99718 0
M  V30 5179 H 484.24 0.489127 0.556629 0
M  V30 5180 H 486.887 1.70224 0.877262 0
M  V30 5181 H 485.192 1.79512 3.48256 0
M  V30 5182 H 486.889 2.17047 3.37182 0
M  V30 5183 H 483.479 3.39153 2.62056 0
M  V30 5184 H 487.663 4.34623 2.39617 0
M  V30 5185 H 482.919 5.73307 2.12435 0
M  V30 5186 H 487.093 6.6969 1.91019 0
M  V30 5187 H 484.72 7.39331 1.76902 0
M  V30 5188 N 486.295 -0.989507 1.22664 0
M  V30 5189 C 487.541 -1.7321 1.05481 0
M  V30 5190 C 487.874 -1.89852 -0.408635 0
M  V30 5191 O 487.149 -1.44416 -1.30285 0
M  V30 5192 C 487.432 -3.1357 1.77047 0
M  V30 5193 C 487.285 -3.04555 3.31008 0
M  V30 5194 C 488.604 -4.12812 1.5256 0
M  V30 5195 H 485.723 -0.628697 0.384589 0
M  V30 5196 H 488.365 -1.15258 1.51049 0
M  V30 5197 H 486.515 -3.63046 1.3831 0
M  V30 5198 H 488.187 -2.62674 3.7921 0
M  V30 5199 H 486.43 -2.41278 3.6051 0
M  V30 5200 H 487.101 -4.03894 3.76263 0
M  V30 5201 H 489.577 -3.72106 1.86215 0
M  V30 5202 H 488.453 -5.09132 2.05124 0
M  V30 5203 H 488.714 -4.39711 0.458936 0
M  V30 5204 N 487.773 -1.03688 -1.18687 0
M  V30 5205 C 488.683 -0.634908 -2.25845 0
M  V30 5206 C 489.699 0.337065 -1.70704 0
M  V30 5207 O 490.875 0.192943 -2.00474 0
M  V30 5208 C 487.94 -0.000180054 -3.467 0
M  V30 5209 C 487.001 -1.02067 -4.1699 0
M  V30 5210 C 486.234 -0.41614 -5.32075 0
M  V30 5211 O 486.457 0.778712 -5.65059 0
M  V30 5212 O 485.391 -1.14296 -5.90948 0
M  V30 5213 H 489.217 -1.52757 -2.62486 0
M  V30 5214 H 486.802 -0.807533 -1.25695 0
M  V30 5215 H 488.684 0.353342 -4.19916 0
M  V30 5216 H 487.359 0.866367 -3.11891 0
M  V30 5217 H 486.266 -1.42592 -3.45859 0
M  V30 5218 H 487.599 -1.85786 -4.5579 0
M  V30 5219 N 489.251 1.34841 -0.815825 0
M  V30 5220 C 490.528 1.92908 -0.323416 0
M  V30 5221 C 490.908 1.74479 1.18828 0
M  V30 5222 O 490.256 1.11928 1.99209 0
M  V30 5223 C 490.466 3.40957 -0.744952 0
M  V30 5224 C 491.814 4.18107 -0.739716 0
M  V30 5225 O 492.838 3.49511 -0.68708 0
M  V30 5226 O 491.697 5.40517 -0.806456 0
M  V30 5227 H 488.791 0.822436 -0.0867646 0
M  V30 5228 H 491.337 1.4386 -0.90014 0
M  V30 5229 H 490.109 3.4814 -1.78646 0
M  V30 5230 H 489.732 3.97341 -0.143535 0
M  V30 5231 N 490.729 0.570148 1.46925 0
M  V30 5232 C 492.14 0.1402 1.86173 0
M  V30 5233 C 492.491 -1.29347 1.47526 0
M  V30 5234 O 491.616 -1.97508 0.884292 0
M  V30 5235 C 492.211 0.247661 3.37894 0
M  V30 5236 C 490.77 -0.127332 3.76185 0
M  V30 5237 C 489.917 0.589349 2.70965 0
M  V30 5238 H 492.868 0.779117 1.38259 0
M  V30 5239 H 492.889 -0.530341 3.76786 0
M  V30 5240 H 492.401 1.29121 3.65991 0
M  V30 5241 H 490.502 -1.17149 3.53704 0
M  V30 5242 H 490.615 0.240238 4.78497 0
M  V30 5243 H 488.979 0.0309824 2.54681 0
M  V30 5244 H 489.762 1.6343 3.01903 0
M  V30 5245 N 492.207 -1.54576 0.307264 0
M  V30 5246 C 493.155 -2.25208 -0.581723 0
M  V30 5247 C 494.149 -1.26031 -1.13192 0
M  V30 5248 O 495.355 -1.43862 -1.08184 0
M  V30 5249 H 491.73 -0.723173 -0.206214 0
M  V30 5250 H 493.701 -2.98378 0.0364663 0
M  V30 5251 C 492.45 -3.01086 -1.73904 0
M  V30 5252 H 491.773 -3.77208 -1.32491 0
M  V30 5253 H 493.213 -3.5378 -2.33701 0
M  V30 5254 C 491.672 -2.08422 -2.64692 0
M  V30 5255 O 492.202 -1.65636 -3.65961 0
M  V30 5256 N 490.408 -1.74247 -2.32564 0
M  V30 5257 H 489.955 -2.09238 -1.50257 0
M  V30 5258 H 489.913 -1.12524 -2.93574 0
M  V30 5259 N 493.685 -0.035106 -1.57561 0
M  V30 5260 C 494.933 0.64096 -1.91667 0
M  V30 5261 C 495.254 1.72323 -0.912681 0
M  V30 5262 O 494.524 1.95849 0.0449089 0
M  V30 5263 H 493.104 0.239743 -0.707483 0
M  V30 5264 H 495.766 -0.084321 -1.94718 0
M  V30 5265 H 494.862 1.08987 -2.92452 0
M  V30 5266 N 495.163 1.55791 0.238111 0
M  V30 5267 C 496.11 1.9105 1.29493 0
M  V30 5268 C 497.08 0.765733 1.47397 0
M  V30 5269 O 498.265 1.02017 1.61236 0
M  V30 5270 C 495.405 2.21826 2.64362 0
M  V30 5271 C 494.518 3.49153 2.54394 0
M  V30 5272 C 493.653 3.69455 3.81676 0
M  V30 5273 C 492.692 4.90353 3.66361 0
M  V30 5274 N 491.829 5.07131 4.85554 0
M  V30 5275 H 496.669 2.81172 0.987233 0
M  V30 5276 H 494.206 1.39179 0.476203 0
M  V30 5277 H 496.164 2.37675 3.4288 0
M  V30 5278 H 494.794 1.34897 2.93262 0
M  V30 5279 H 493.846 3.41587 1.67399 0
M  V30 5280 H 495.158 4.37818 2.38991 0
M  V30 5281 H 494.312 3.85311 4.68636 0
M  V30 5282 H 493.051 2.7904 3.99985 0
M  V30 5283 H 492.056 4.74464 2.77784 0
M  V30 5284 H 493.281 5.82237 3.49538 0
M  V30 5285 H 491.227 4.19654 5.04209 0
M  V30 5286 H 491.144 5.89899 4.72816 0
M  V30 5287 H 492.412 5.27407 5.73988 0
M  V30 5288 N 496.642 -0.504142 1.49319 0
M  V30 5289 C 497.872 -1.28071 1.62116 0
M  V30 5290 C 498.28 -1.86955 0.290566 0
M  V30 5291 O 497.623 -1.68415 -0.733616 0
M  V30 5292 C 497.685 -2.4521 2.62893 0
M  V30 5293 C 497.349 -2.07218 4.0732 0
M  V30 5294 C 498.346 -1.61375 4.94221 0
M  V30 5295 C 496.031 -2.16949 4.53033 0
M  V30 5296 C 498.025 -1.25763 6.2487 0
M  V30 5297 C 495.712 -1.80949 5.83696 0
M  V30 5298 C 496.71 -1.3543 6.69438 0
M  V30 5299 O 496.398 -0.99915 7.97667 0
M  V30 5300 H 496.13 -0.394763 0.54876 0
M  V30 5301 H 498.684 -0.612118 1.96067 0
M  V30 5302 H 496.914 -3.15134 2.24115 0
M  V30 5303 H 498.603 -3.0724 2.65252 0
M  V30 5304 H 499.369 -1.53306 4.60133 0
M  V30 5305 H 495.248 -2.5133 3.86463 0
M  V30 5306 H 498.792 -0.901631 6.91749 0
M  V30 5307 H 494.689 -1.88667 6.17313 0
M  V30 5308 H 495.457 -1.13089 8.1065 0
M  V30 5309 N 498.12 -1.38341 -0.754957 0
M  V30 5310 C 499.345 -1.37882 -1.5493 0
M  V30 5311 C 499.77 0.0296385 -1.88077 0
M  V30 5312 O 499.128 1.01133 -1.50472 0
M  V30 5313 C 499.176 -2.23996 -2.82592 0
M  V30 5314 O 498.28 -1.65612 -3.77686 0
M  V30 5315 H 497.621 -0.470384 -0.468652 0
M  V30 5316 H 500.151 -1.82084 -0.933082 0
M  V30 5317 H 500.161 -2.37806 -3.3153 0
M  V30 5318 H 498.836 -3.26365 -2.57796 0
M  V30 5319 H 497.413 -1.60936 -3.36384 0
M  V30 5320 N 499.598 0.982988 -1.23187 0
M  V30 5321 C 500.844 1.72648 -1.06398 0
M  V30 5322 C 501.177 1.90066 0.398561 0
M  V30 5323 O 500.452 1.45105 1.29518 0
M  V30 5324 C 500.735 3.12627 -1.78707 0
M  V30 5325 C 500.588 3.02795 -3.32618 0
M  V30 5326 C 501.907 4.11997 -1.54747 0
M  V30 5327 H 499.026 0.626649 -0.387918 0
M  V30 5328 H 501.668 1.14455 -1.51658 0
M  V30 5329 H 499.818 3.62308 -1.40234 0
M  V30 5330 H 501.49 2.60659 -3.80598 0
M  V30 5331 H 499.733 2.39362 -3.61785 0
M  V30 5332 H 500.404 4.01893 -3.78399 0
M  V30 5333 H 502.88 3.71114 -1.88186 0
M  V30 5334 H 501.756 5.08037 -2.07821 0
M  V30 5335 H 502.017 4.39462 -0.482249 0
M  V30 5336 N 501.076 1.04316 1.18135 0
M  V30 5337 C 502.353 0.662166 1.84051 0
M  V30 5338 C 502.733 -0.858169 1.9287 0
M  V30 5339 O 502.081 -1.76062 1.45652 0
M  V30 5340 C 502.291 1.3409 3.22212 0
M  V30 5341 C 503.639 1.4733 3.9822 0
M  V30 5342 O 504.663 1.29921 3.31661 0
M  V30 5343 O 503.522 1.75722 5.17479 0
M  V30 5344 H 500.616 0.232005 0.79379 0
M  V30 5345 H 503.162 1.1422 1.25506 0
M  V30 5346 H 501.934 2.37853 3.10711 0
M  V30 5347 H 501.557 0.849649 3.88416 0
M  V30 5348 N 502.554 -1.34406 0.822964 0
M  V30 5349 C 503.501 -2.29519 0.24284 0
M  V30 5350 C 504.471 -1.5359 -0.632397 0
M  V30 5351 O 505.656 -1.8196 -0.57403 0
M  V30 5352 C 502.796 -3.40032 -0.58925 0
M  V30 5353 C 501.909 -4.30899 0.308236 0
M  V30 5354 C 501.044 -5.28515 -0.533425 0
M  V30 5355 C 500.083 -6.1102 0.363444 0
M  V30 5356 N 499.22 -7.00725 -0.439147 0
M  V30 5357 H 504.06 -2.78537 1.05929 0
M  V30 5358 H 501.597 -1.3707 0.533872 0
M  V30 5359 H 503.555 -4.0279 -1.087 0
M  V30 5360 H 502.185 -2.92248 -1.37081 0
M  V30 5361 H 501.237 -3.69002 0.924203 0
M  V30 5362 H 502.549 -4.88717 0.997862 0
M  V30 5363 H 501.703 -5.96725 -1.09565 0
M  V30 5364 H 500.442 -4.71235 -1.25656 0
M  V30 5365 H 499.447 -5.41743 0.937812 0
M  V30 5366 H 500.672 -6.70381 1.08469 0
M  V30 5367 H 498.618 -6.45913 -1.14595 0
M  V30 5368 H 498.535 -7.55756 0.19209 0
M  V30 5369 H 499.803 -7.73263 -0.984124 0
M  V30 5370 N 504.032 -0.577932 -1.46621 0
M  V30 5371 C 505.309 0.00495287 -1.95599 0
M  V30 5372 C 505.689 1.46428 -1.5206 0
M  V30 5373 O 505.037 2.1517 -0.769046 0
M  V30 5374 C 505.247 -0.162114 -3.48623 0
M  V30 5375 C 506.595 -0.0274623 -4.24591 0
M  V30 5376 O 507.619 -0.0907067 -3.56084 0
M  V30 5377 O 506.478 0.1122 -5.46385 0
M  V30 5378 H 503.572 0.0525057 -0.825332 0
M  V30 5379 H 506.118 -0.645914 -1.56927 0
M  V30 5380 H 504.89 -1.17679 -3.73185 0
M  V30 5381 H 504.513 0.525407 -3.94113 0
M  V30 5382 N 505.51 1.54411 -0.315457 0
M  V30 5383 C 506.457 2.24048 0.554166 0
M  V30 5384 C 507.427 1.2283 1.11812 0
M  V30 5385 O 508.612 1.51491 1.15997 0
M  V30 5386 C 505.752 2.99574 1.71316 0
M  V30 5387 C 504.865 4.15594 1.17922 0
M  V30 5388 C 504 4.78669 2.30324 0
M  V30 5389 C 503.039 5.86807 1.74137 0
M  V30 5390 N 502.176 6.43777 2.8017 0
M  V30 5391 H 507.016 2.97964 -0.0462602 0
M  V30 5392 H 504.553 1.47059 -0.0346009 0
M  V30 5393 H 506.511 3.41604 2.39505 0
M  V30 5394 H 505.141 2.28008 2.285 0
M  V30 5395 H 504.193 3.78404 0.389136 0
M  V30 5396 H 505.505 4.93459 0.728012 0
M  V30 5397 H 504.659 5.23626 3.06433 0
M  V30 5398 H 503.398 4.00168 2.78778 0
M  V30 5399 H 502.403 5.41261 0.965236 0
M  V30 5400 H 503.628 6.67201 1.2657 0
M  V30 5401 H 501.574 5.68153 3.2793 0
M  V30 5402 H 501.491 7.17031 2.39588 0
M  V30 5403 H 502.759 6.9339 3.56132 0
M  V30 5404 N 506.988 0.0434614 1.5754 0
M  V30 5405 C 508.235 -0.632035 1.92384 0
M  V30 5406 C 508.563 -1.71304 0.921157 0
M  V30 5407 O 507.818 -1.95583 -0.067744 0
M  V30 5408 C 508.117 -1.2738 3.3393 0
M  V30 5409 C 507.783 -0.321757 4.49751 0
M  V30 5410 C 506.445 -0.0597611 4.81163 0
M  V30 5411 C 508.797 0.331158 5.20147 0
M  V30 5412 C 506.125 0.862715 5.80322 0
M  V30 5413 C 508.477 1.24178 6.20292 0
M  V30 5414 C 507.141 1.51252 6.50138 0
M  V30 5415 H 506.411 -0.231278 0.703983 0
M  V30 5416 H 509.058 0.108294 1.91194 0
M  V30 5417 H 507.363 -2.08921 3.3145 0
M  V30 5418 H 509.06 -1.80326 3.58167 0
M  V30 5419 H 505.65 -0.53614 4.25233 0
M  V30 5420 H 509.834 0.141826 4.96097 0
M  V30 5421 H 505.09 1.08003 6.01785 0
M  V30 5422 H 509.264 1.75381 6.73954 0
M  V30 5423 H 506.891 2.22897 7.26788 0
M  V30 5424 N 508.466 -1.55915 -0.229846 0
M  V30 5425 C 509.743 -1.6932 -0.979295 0
M  V30 5426 C 510.123 -0.588321 -2.02736 0
M  V30 5427 O 509.471 0.40586 -2.24867 0
M  V30 5428 C 509.681 -3.10305 -1.59724 0
M  V30 5429 C 511.029 -3.6945 -2.09264 0
M  V30 5430 O 512.053 -3.13214 -1.69633 0
M  V30 5431 O 510.912 -4.68072 -2.82082 0
M  V30 5432 H 508.006 -0.689314 -0.456919 0
M  V30 5433 H 510.552 -1.68238 -0.222283 0
M  V30 5434 H 509.324 -3.82177 -0.840039 0
M  V30 5435 H 508.947 -3.1547 -2.42001 0
M  V30 5436 N 509.944 0.496216 -1.49584 0
M  V30 5437 C 510.891 1.59722 -1.66606 0
M  V30 5438 C 511.861 1.58158 -0.507477 0
M  V30 5439 O 513.046 1.76072 -0.735076 0
M  V30 5440 C 510.186 2.97844 -1.74308 0
M  V30 5441 C 509.299 3.09388 -3.01502 0
M  V30 5442 C 508.434 4.38271 -3.00153 0
M  V30 5443 C 507.473 4.43466 -4.21906 0
M  V30 5444 N 506.61 5.63784 -4.1844 0
M  V30 5445 H 511.45 1.44515 -2.60613 0
M  V30 5446 H 508.987 0.703048 -1.29212 0
M  V30 5447 H 510.945 3.77907 -1.76754 0
M  V30 5448 H 509.575 3.11743 -0.837619 0
M  V30 5449 H 508.627 2.22357 -3.08645 0
M  V30 5450 H 509.939 3.09085 -3.91494 0
M  V30 5451 H 509.093 5.2666 -3.01188 0
M  V30 5452 H 507.832 4.41146 -2.07947 0
M  V30 5453 H 506.837 3.53478 -4.21109 0
M  V30 5454 H 508.062 4.42303 -5.1531 0
M  V30 5455 H 506.008 5.67491 -3.29074 0
M  V30 5456 H 505.925 5.65118 -5.02173 0
M  V30 5457 H 507.193 6.54367 -4.23585 0
M  V30 5458 N 511.423 1.38739 0.74761 0
M  V30 5459 C 512.353 1.39173 1.87492 0
M  V30 5460 C 513.334 0.256794 1.6815 0
M  V30 5461 O 514.519 0.460762 1.88655 0
M  V30 5462 C 511.649 1.22197 3.25093 0
M  V30 5463 C 510.603 2.32957 3.59047 0
M  V30 5464 C 509.929 2.01082 4.95449 0
M  V30 5465 C 511.229 3.75237 3.6331 0
M  V30 5466 H 512.923 2.3351 1.87386 0
M  V30 5467 H 510.469 1.12399 0.900134 0
M  V30 5468 H 512.422 1.21124 4.03617 0
M  V30 5469 H 511.146 0.243241 3.25693 0
M  V30 5470 H 509.805 2.33226 2.82845 0
M  V30 5471 H 509.453 1.01678 4.92616 0
M  V30 5472 H 509.153 2.75267 5.19136 0
M  V30 5473 H 510.677 2.01638 5.76346 0
M  V30 5474 H 512.091 3.76966 4.31937 0
M  V30 5475 H 510.488 4.48677 3.98509 0
M  V30 5476 H 511.558 4.07122 2.634 0
M  V30 5477 N 512.901 -0.976442 1.23707 0
M  V30 5478 C 514.131 -1.75087 1.09673 0
M  V30 5479 C 514.539 -1.85852 -0.354344 0
M  V30 5480 O 513.882 -1.33985 -1.25673 0
M  V30 5481 C 513.944 -3.19272 1.65245 0
M  V30 5482 C 513.608 -3.32004 3.14042 0
M  V30 5483 C 514.605 -3.18017 4.11292 0
M  V30 5484 C 512.29 -3.56525 3.53829 0
M  V30 5485 C 514.284 -3.28363 5.46312 0
M  V30 5486 C 511.971 -3.6651 4.88993 0
M  V30 5487 C 512.969 -3.52439 5.85043 0
M  V30 5488 O 512.657 -3.62063 7.1775 0
M  V30 5489 H 512.389 -0.556164 0.384262 0
M  V30 5490 H 514.943 -1.23518 1.64111 0
M  V30 5491 H 513.173 -3.72107 1.05231 0
M  V30 5492 H 514.862 -3.7849 1.46629 0
M  V30 5493 H 515.628 -2.98966 3.81896 0
M  V30 5494 H 511.507 -3.66547 2.79579 0
M  V30 5495 H 515.051 -3.17297 6.21263 0
M  V30 5496 H 510.948 -3.85072 5.18063 0
M  V30 5497 H 511.716 -3.78833 7.25553 0
M  V30 5498 N 514.379 -1.04941 -1.1758 0
M  V30 5499 C 515.326 -0.648155 -2.21512 0
M  V30 5500 C 516.296 0.348431 -1.62404 0
M  V30 5501 O 517.481 0.240419 -1.89279 0
M  V30 5502 C 514.621 -0.0264291 -3.4509 0
M  V30 5503 C 513.734 -1.07154 -4.185 0
M  V30 5504 C 512.869 -0.417403 -5.29558 0
M  V30 5505 C 511.908 -1.447 -5.94751 0
M  V30 5506 N 511.045 -0.817203 -6.97328 0
M  V30 5507 H 515.885 -1.53891 -2.55189 0
M  V30 5508 H 513.422 -0.769699 -1.25356 0
M  V30 5509 H 515.38 0.351456 -4.15717 0
M  V30 5510 H 514.01 0.827802 -3.12005 0
M  V30 5511 H 513.062 -1.56728 -3.46613 0
M  V30 5512 H 514.374 -1.8532 -4.63096 0
M  V30 5513 H 513.528 0.0142061 -6.06698 0
M  V30 5514 H 512.267 0.396265 -4.86087 0
M  V30 5515 H 511.272 -1.88865 -5.16343 0
M  V30 5516 H 512.497 -2.26252 -6.40302 0
M  V30 5517 H 510.443 -0.0239995 -6.55996 0
M  V30 5518 H 510.36 -1.53644 -7.40223 0
M  V30 5519 H 511.628 -0.410283 -7.7842 0
M  V30 5520 N 515.857 1.33968 -0.830081 0
M  V30 5521 C 516.82 2.27694 -0.26235 0
M  V30 5522 C 517.82 1.50589 0.563876 0
M  V30 5523 O 519.01 1.70028 0.378941 0
M  V30 5524 C 516.142 3.35002 0.63138 0
M  V30 5525 H 517.335 2.79419 -1.08928 0
M  V30 5526 H 514.888 1.44221 -0.602486 0
M  V30 5527 H 515.623 2.88504 1.48109 0
M  V30 5528 H 515.408 3.92079 0.0403276 0
M  V30 5529 H 516.898 4.04897 1.02217 0
M  V30 5530 N 517.335 0.585699 1.46312 0
M  V30 5531 C 518.265 -0.133556 2.33118 0
M  V30 5532 C 519.246 -0.880707 1.45525 0
M  V30 5533 O 520.431 -0.855579 1.74337 0
M  V30 5534 C 517.561 -1.14585 3.27853 0
M  V30 5535 C 516.515 -0.513341 4.2491 0
M  V30 5536 C 515.841 -1.63231 5.09175 0
M  V30 5537 C 517.141 0.551413 5.19381 0
M  V30 5538 H 518.835 0.59121 2.93505 0
M  V30 5539 H 516.381 0.285761 1.41136 0
M  V30 5540 H 518.334 -1.65741 3.87438 0
M  V30 5541 H 517.058 -1.90093 2.65579 0
M  V30 5542 H 515.717 -0.0228349 3.66593 0
M  V30 5543 H 515.365 -2.37713 4.43285 0
M  V30 5544 H 515.065 -1.21473 5.74907 0
M  V30 5545 H 516.589 -2.14658 5.71624 0
M  V30 5546 H 518.003 0.124804 5.73164 0
M  V30 5547 H 516.4 0.889486 5.93471 0
M  V30 5548 H 517.47 1.43655 4.63132 0
M  V30 5549 N 518.813 -1.54241 0.323641 0
M  V30 5550 C 519.746 -2.20579 -0.584833 0
M  V30 5551 C 520.724 -1.18286 -1.11567 0
M  V30 5552 O 521.908 -1.47025 -1.17966 0
M  V30 5553 C 519.035 -2.86754 -1.80249 0
M  V30 5554 C 518.081 -4.02767 -1.4029 0
M  V30 5555 S 518.914 -5.33693 -0.439539 0
M  V30 5556 C 520.07 -6.03362 -1.66448 0
M  V30 5557 H 520.303 -2.97292 -0.0213238 0
M  V30 5558 H 517.836 -1.54024 0.107726 0
M  V30 5559 H 519.794 -3.25503 -2.50116 0
M  V30 5560 H 518.455 -2.09844 -2.33719 0
M  V30 5561 H 517.648 -4.47933 -2.31024 0
M  V30 5562 H 517.25 -3.65692 -0.783928 0
M  V30 5563 H 519.542 -6.25546 -2.6019 0
M  V30 5564 H 520.485 -6.9689 -1.25498 0
M  V30 5565 H 520.893 -5.33273 -1.85149 0
M  V30 5566 N 520.291 -0.0518155 -1.57515 0
M  V30 5567 C 521.538 0.621823 -1.92716 0
M  V30 5568 C 521.866 1.70813 -0.930229 0
M  V30 5569 O 521.121 1.95616 0.0573708 0
M  V30 5570 C 521.42 1.25607 -3.34601 0
M  V30 5571 C 521.086 0.297901 -4.49915 0
M  V30 5572 C 519.748 0.034243 -4.81188 0
M  V30 5573 C 522.1 -0.358738 -5.19964 0
M  V30 5574 C 519.428 -0.893479 -5.79857 0
M  V30 5575 C 521.78 -1.27466 -6.19625 0
M  V30 5576 C 520.444 -1.54698 -6.49326 0
M  V30 5577 H 519.714 0.227541 -0.705199 0
M  V30 5578 H 522.361 -0.118432 -1.91133 0
M  V30 5579 H 520.666 2.07161 -3.32553 0
M  V30 5580 H 522.363 1.78424 -3.59118 0
M  V30 5581 H 518.953 0.513581 -4.25512 0
M  V30 5582 H 523.137 -0.168133 -4.96015 0
M  V30 5583 H 518.393 -1.11193 -6.01204 0
M  V30 5584 H 522.567 -1.78953 -6.73015 0
M  V30 5585 H 520.194 -2.26748 -7.25596 0
M  V30 5586 N 521.769 1.56035 0.221574 0
M  V30 5587 C 523.017 1.78693 0.944102 0
M  V30 5588 C 523.338 0.620317 1.8487 0
M  V30 5589 O 522.608 -0.362784 1.92512 0
M  V30 5590 H 521.188 0.659082 0.351597 0
M  V30 5591 H 523.85 1.93497 0.233435 0
M  V30 5592 H 522.946 2.70837 1.55093 0
M  V30 5593 N 523.247 -0.488276 1.49845 0
M  V30 5594 C 524.494 -1.24157 1.59973 0
M  V30 5595 C 524.822 -1.92293 0.292182 0
M  V30 5596 O 524.077 -1.81942 -0.720813 0
M  V30 5597 C 524.376 -2.32152 2.71735 0
M  V30 5598 C 524.042 -1.81387 4.12807 0
M  V30 5599 C 522.704 -1.67262 4.51195 0
M  V30 5600 C 525.056 -1.43537 5.01045 0
M  V30 5601 C 522.384 -1.13685 5.7558 0
M  V30 5602 C 524.736 -0.914081 6.25961 0
M  V30 5603 C 523.4 -0.759327 6.63167 0
M  V30 5604 H 522.67 -0.454322 0.585383 0
M  V30 5605 H 525.317 -0.540261 1.83721 0
M  V30 5606 H 523.622 -3.08122 2.42008 0
M  V30 5607 H 525.319 -2.90164 2.76778 0
M  V30 5608 H 521.909 -1.93344 3.82513 0
M  V30 5609 H 526.093 -1.53292 4.72033 0
M  V30 5610 H 521.349 -1.00426 6.03096 0
M  V30 5611 H 525.523 -0.612066 6.93705 0
M  V30 5612 H 523.15 -0.342002 7.5943 0
M  V30 5613 N 524.725 -1.39134 -0.740242 0
M  V30 5614 C 525.953 -1.39334 -1.5295 0
M  V30 5615 C 526.368 0.0135008 -1.88795 0
M  V30 5616 O 525.725 0.983524 -1.5373 0
M  V30 5617 C 525.776 -2.2614 -2.82034 0
M  V30 5618 O 525.497 -3.61345 -2.47712 0
M  V30 5619 C 526.998 -2.34666 -3.76094 0
M  V30 5620 H 524.218 -0.476103 -0.472828 0
M  V30 5621 H 526.762 -1.82883 -0.9151 0
M  V30 5622 H 524.917 -1.86018 -3.39818 0
M  V30 5623 H 525.331 -4.07194 -3.30595 0
M  V30 5624 H 526.805 -2.99663 -4.63579 0
M  V30 5625 H 527.282 -1.36426 -4.17474 0
M  V30 5626 H 527.888 -2.75236 -3.2423 0
M  V30 5627 N 526.204 0.969867 -1.24223 0
M  V30 5628 C 527.114 2.09806 -1.0497 0
M  V30 5629 C 528.13 1.73998 0.00886455 0
M  V30 5630 O 529.306 2.00513 -0.188848 0
M  V30 5631 C 526.371 3.40467 -0.654452 0
M  V30 5632 C 525.432 3.90236 -1.78926 0
M  V30 5633 C 524.665 5.14662 -1.41277 0
M  V30 5634 O 524.888 5.69602 -0.301632 0
M  V30 5635 O 523.822 5.58761 -2.23763 0
M  V30 5636 H 527.648 2.28942 -1.99548 0
M  V30 5637 H 525.233 1.08197 -1.03023 0
M  V30 5638 H 527.115 4.19039 -0.445452 0
M  V30 5639 H 525.79 3.22636 0.262216 0
M  V30 5640 H 524.697 3.12735 -2.05299 0
M  V30 5641 H 526.03 4.1254 -2.68462 0
M  V30 5642 N 527.682 1.05563 1.17022 0
M  V30 5643 C 528.91 0.78845 1.91288 0
M  V30 5644 C 529.325 -0.656318 1.77025 0
M  V30 5645 O 528.682 -1.44869 1.10992 0
M  V30 5646 C 528.733 1.16444 3.42232 0
M  V30 5647 O 528.454 2.5525 3.5606 0
M  V30 5648 C 529.955 0.923937 4.33565 0
M  V30 5649 H 527.175 0.286389 0.606813 0
M  V30 5650 H 529.719 1.4073 1.48375 0
M  V30 5651 H 527.874 0.590266 3.82877 0
M  V30 5652 H 528.288 2.70097 4.49609 0
M  V30 5653 H 529.762 1.23672 5.37968 0
M  V30 5654 H 530.239 -0.140688 4.38975 0
M  V30 5655 H 530.845 1.48214 3.98639 0
M  V30 5656 N 529.16 -1.33526 0.837174 0
M  V30 5657 C 530.108 -2.31168 0.257698 0
M  V30 5658 C 531.102 -1.5806 -0.609388 0
M  V30 5659 O 532.308 -1.72941 -0.499139 0
M  V30 5660 H 528.683 -0.74922 0.0646058 0
M  V30 5661 H 530.654 -2.77552 1.09578 0
M  V30 5662 C 529.403 -3.4326 -0.553887 0
M  V30 5663 H 528.726 -3.99665 0.104008 0
M  V30 5664 H 530.166 -4.13782 -0.925219 0
M  V30 5665 C 528.625 -2.88965 -1.73207 0
M  V30 5666 O 529.155 -2.85013 -2.83073 0
M  V30 5667 N 527.361 -2.45596 -1.55342 0
M  V30 5668 H 526.908 -2.49009 -0.659705 0
M  V30 5669 H 526.866 -2.0962 -2.34322 0
M  V30 5670 N 530.638 -0.59345 -1.46 0
M  V30 5671 C 531.568 0.121192 -2.33185 0
M  V30 5672 C 532.549 0.872977 -1.4599 0
M  V30 5673 O 533.734 0.846321 -1.74789 0
M  V30 5674 C 530.864 1.12844 -3.28456 0
M  V30 5675 C 529.818 0.4908 -4.25177 0
M  V30 5676 C 529.144 1.60529 -5.10034 0
M  V30 5677 C 530.444 -0.578949 -5.19081 0
M  V30 5678 H 532.138 -0.606767 -2.93187 0
M  V30 5679 H 529.684 -0.293242 -1.40983 0
M  V30 5680 H 531.637 1.63684 -3.88311 0
M  V30 5681 H 530.361 1.88681 -2.66584 0
M  V30 5682 H 529.02 0.00339328 -3.666 0
M  V30 5683 H 528.668 2.35359 -4.44539 0
M  V30 5684 H 528.368 1.18422 -5.75543 0
M  V30 5685 H 529.892 2.11623 -5.72755 0
M  V30 5686 H 531.306 -0.155199 -5.7309 0
M  V30 5687 H 529.703 -0.920947 -5.92991 0
M  V30 5688 H 530.773 -1.46109 -4.62364 0
M  V30 5689 N 532.116 1.54067 -0.331816 0
M  V30 5690 C 533.079 2.23275 0.517768 0
M  V30 5691 C 534.079 1.22897 1.03697 0
M  V30 5692 O 535.269 1.47419 0.928084 0
M  V30 5693 C 532.401 2.94326 1.72004 0
M  V30 5694 H 533.594 2.99773 -0.0873507 0
M  V30 5695 H 531.147 1.56079 -0.0830042 0
M  V30 5696 H 531.882 2.21986 2.36417 0
M  V30 5697 H 531.667 3.67941 1.35507 0
M  V30 5698 H 533.157 3.47031 2.32291 0
M  V30 5699 N 533.594 0.0601682 1.57485 0
M  V30 5700 C 534.842 -0.610386 1.92662 0
M  V30 5701 C 535.163 -1.70849 0.939981 0
M  V30 5702 O 534.433 -1.95895 -0.0137455 0
M  V30 5703 H 533.013 -0.228457 0.711208 0
M  V30 5704 H 535.675 0.115288 1.94559 0
M  V30 5705 H 534.771 -1.0432 2.94149 0
M  V30 5706 N 535.072 -1.5615 -0.213296 0
M  V30 5707 C 535.982 -1.96265 -1.28519 0
M  V30 5708 C 536.998 -0.86765 -1.50824 0
M  V30 5709 O 538.174 -1.17191 -1.63793 0
M  V30 5710 C 535.239 -2.27836 -2.61327 0
M  V30 5711 C 534.3 -3.50949 -2.47252 0
M  V30 5712 C 533.533 -3.81004 -3.73727 0
M  V30 5713 O 533.756 -3.12612 -4.77106 0
M  V30 5714 O 532.69 -4.74477 -3.70344 0
M  V30 5715 H 536.516 -2.87631 -0.974795 0
M  V30 5716 H 534.101 -1.43467 -0.416832 0
M  V30 5717 H 535.983 -2.49299 -3.39747 0
M  V30 5718 H 534.658 -1.39643 -2.9203 0
M  V30 5719 H 533.565 -3.34754 -1.67004 0
M  V30 5720 H 534.898 -4.39551 -2.21486 0
M  V30 5721 N 536.55 0.480323 -1.50102 0
M  V30 5722 C 537.78 1.25475 -1.64133 0
M  V30 5723 C 538.188 1.8647 -0.320272 0
M  V30 5724 O 537.531 1.69561 0.70673 0
M  V30 5725 C 537.593 2.40996 -2.6676 0
M  V30 5726 C 537.257 2.00711 -4.10565 0
M  V30 5727 C 538.254 1.53492 -4.96725 0
M  V30 5728 C 535.939 2.09714 -4.56427 0
M  V30 5729 C 537.933 1.15806 -6.26792 0
M  V30 5730 C 535.62 1.7164 -5.86501 0
M  V30 5731 C 536.618 1.24763 -6.71508 0
M  V30 5732 O 536.306 0.872122 -7.99155 0
M  V30 5733 H 536.038 0.385983 -0.554971 0
M  V30 5734 H 538.592 0.580848 -1.97016 0
M  V30 5735 H 536.822 3.11528 -2.291 0
M  V30 5736 H 538.511 3.02981 -2.70106 0
M  V30 5737 H 539.277 1.45966 -4.62514 0
M  V30 5738 H 535.156 2.4515 -3.90413 0
M  V30 5739 H 538.7 0.791465 -6.93096 0
M  V30 5740 H 534.597 1.78822 -6.20236 0
M  V30 5741 H 535.365 1.00178 -8.12346 0
M  V30 5742 N 538.028 1.39524 0.732853 0
M  V30 5743 C 539.276 1.36594 1.48951 0
M  V30 5744 C 539.597 -0.0367507 1.94965 0
M  V30 5745 O 538.867 -0.988391 1.69138 0
M  V30 5746 H 537.447 0.502673 0.552566 0
M  V30 5747 H 540.109 1.74411 0.869869 0
M  V30 5748 H 539.205 2.03 2.3706 0
M  V30 5749 N 539.506 -0.963266 1.24736 0
M  V30 5750 C 540.755 -1.70115 1.08369 0
M  V30 5751 C 541.068 -1.91939 -0.376688 0
M  V30 5752 O 542.274 -2.6334 -0.660624 0
M  V30 5753 C 540.73 -3.06218 1.89099 0
M  V30 5754 C 540.338 -2.92221 3.39574 0
M  V30 5755 C 542.082 -3.83848 1.81275 0
M  V30 5756 C 539.989 -4.23662 4.12631 0
M  V30 5757 H 538.919 -0.637944 0.401924 0
M  V30 5758 H 541.57 -1.07304 1.48856 0
M  V30 5759 H 539.952 -3.69884 1.41429 0
M  V30 5760 H 541.126 -2.37541 3.94856 0
M  V30 5761 H 539.441 -2.28054 3.48397 0
M  V30 5762 H 542.038 -4.81188 2.33158 0
M  V30 5763 H 542.381 -4.08949 0.778895 0
M  V30 5764 H 542.914 -3.26918 2.26649 0
M  V30 5765 H 539.653 -4.03753 5.16395 0
M  V30 5766 H 539.173 -4.78141 3.62135 0
M  V30 5767 H 540.852 -4.92256 4.19873 0
M  V30 5768 N 540.985 -1.06182 -1.16461 0
M  V30 5769 C 541.932 -0.671613 -2.20812 0
M  V30 5770 C 542.902 0.331186 -1.62765 0
M  V30 5771 O 544.087 0.22033 -1.89524 0
M  V30 5772 C 541.227 -0.063029 -3.45042 0
M  V30 5773 C 540.34 -1.11587 -4.1734 0
M  V30 5774 C 539.475 -0.473546 -5.29085 0
M  V30 5775 C 538.514 -1.51 -5.93182 0
M  V30 5776 N 537.651 -0.891118 -6.96422 0
M  V30 5777 H 542.491 -1.56589 -2.53542 0
M  V30 5778 H 540.028 -0.782951 -1.24532 0
M  V30 5779 H 541.986 0.307344 -4.16066 0
M  V30 5780 H 540.616 0.794663 -3.12866 0
M  V30 5781 H 539.668 -1.60396 -3.44931 0
M  V30 5782 H 540.98 -1.90221 -4.61104 0
M  V30 5783 H 540.134 -0.0501432 -6.06679 0
M  V30 5784 H 538.873 0.344687 -4.8648 0
M  V30 5785 H 537.878 -1.94331 -5.14311 0
M  V30 5786 H 539.103 -2.33031 -6.37866 0
M  V30 5787 H 537.049 -0.0935753 -6.55933 0
M  V30 5788 H 536.966 -1.61486 -7.38551 0
M  V30 5789 H 538.234 -0.492822 -7.77941 0
M  V30 5790 N 542.463 1.3308 -0.844243 0
M  V30 5791 C 543.691 2.01808 -0.456203 0
M  V30 5792 C 544.106 1.63498 0.944131 0
M  V30 5793 O 543.463 0.85102 1.61443 0
M  V30 5794 C 543.514 3.56922 -0.573513 0
M  V30 5795 O 543.235 3.93851 -1.91868 0
M  V30 5796 C 544.736 4.42922 -0.183125 0
M  V30 5797 H 541.956 0.646273 -0.180477 0
M  V30 5798 H 544.5 1.69891 -1.1383 0
M  V30 5799 H 542.655 3.87352 0.0607367 0
M  V30 5800 H 543.069 4.88564 -1.90802 0
M  V30 5801 H 544.543 5.51093 -0.316241 0
M  V30 5802 H 545.02 4.30386 0.875477 0
M  V30 5803 H 545.626 4.1786 -0.792027 0
M  V30 5804 N 543.941 0.601185 1.45683 0
M  V30 5805 C 545.357 0.264315 1.57396 0
M  V30 5806 C 545.557 -1.23324 1.59353 0
M  V30 5807 O 544.613 -2.01594 1.52039 0
M  V30 5808 C 545.926 0.929839 2.85962 0
M  V30 5809 C 547.474 0.905156 2.99626 0
M  V30 5810 C 547.949 1.55057 4.30954 0
M  V30 5811 N 549.44 1.51576 4.37697 0
M  V30 5812 C 550.175 1.98436 5.37969 0
M  V30 5813 N 549.671 2.53352 6.44813 0
M  V30 5814 N 551.464 1.89242 5.29286 0
M  V30 5815 H 543.615 1.57363 1.42656 0
M  V30 5816 H 545.878 0.658831 0.681649 0
M  V30 5817 H 545.584 1.98404 2.90394 0
M  V30 5818 H 545.458 0.449224 3.74515 0
M  V30 5819 H 547.845 -0.14048 2.94765 0
M  V30 5820 H 547.926 1.42397 2.12501 0
M  V30 5821 H 547.57 2.5955 4.36573 0
M  V30 5822 H 547.5 1.00682 5.16886 0
M  V30 5823 H 549.991 1.11452 3.61091 0
M  V30 5824 H 550.304 2.86918 7.17564 0
M  V30 5825 H 548.649 2.57388 6.45582 0
M  V30 5826 H 551.84 1.46083 4.44722 0
M  V30 5827 H 552.013 2.26075 6.07284 0
M  V30 5828 N 545.419 -1.53889 0.339982 0
M  V30 5829 C 546.649 -2.04973 -0.258738 0
M  V30 5830 C 547.057 -1.21485 -1.45045 0
M  V30 5831 O 546.4 -0.2422 -1.82096 0
M  V30 5832 C 546.462 -3.51783 -0.740853 0
M  V30 5833 C 546.126 -4.55802 0.330734 0
M  V30 5834 C 547.123 -5.06512 1.17226 0
M  V30 5835 C 544.808 -4.99966 0.483637 0
M  V30 5836 C 546.802 -5.99963 2.15227 0
M  V30 5837 C 544.489 -5.93229 1.46704 0
M  V30 5838 C 545.487 -6.43115 2.29981 0
M  V30 5839 O 545.175 -7.34545 3.26649 0
M  V30 5840 H 544.907 -0.673807 -0.0544037 0
M  V30 5841 H 547.461 -1.99492 0.489107 0
M  V30 5842 H 545.691 -3.54717 -1.53988 0
M  V30 5843 H 547.38 -3.85857 -1.25973 0
M  V30 5844 H 548.146 -4.73158 1.0652 0
M  V30 5845 H 544.025 -4.6074 -0.15471 0
M  V30 5846 H 547.569 -6.38825 2.80265 0
M  V30 5847 H 543.466 -6.25998 1.57468 0
M  V30 5848 H 544.234 -7.52468 3.22078 0
M  V30 5849 N 546.897 -0.0685191 -1.57451 0
M  V30 5850 C 548.122 0.613919 -1.98106 0
M  V30 5851 C 548.547 1.62551 -0.946501 0
M  V30 5852 O 547.905 1.81085 0.0882824 0
M  V30 5853 C 547.953 1.26189 -3.378 0
M  V30 5854 O 547.057 2.37773 -3.36954 0
M  V30 5855 H 546.398 0.158163 -0.644888 0
M  V30 5856 H 548.928 -0.142063 -2.04106 0
M  V30 5857 H 548.938 1.60951 -3.74912 0
M  V30 5858 H 547.613 0.520625 -4.12629 0
M  V30 5859 H 546.19 2.04829 -3.11608 0
M  V30 5860 N 548.375 1.56261 0.205012 0
M  V30 5861 C 549.605 1.83874 0.942018 0
M  V30 5862 C 550.013 0.647595 1.77772 0
M  V30 5863 O 549.356 -0.393098 1.79445 0
M  V30 5864 C 549.418 3.05453 1.89575 0
M  V30 5865 C 549.082 4.39772 1.24296 0
M  V30 5866 C 550.079 5.16133 0.624724 0
M  V30 5867 C 547.764 4.86504 1.24978 0
M  V30 5868 C 549.758 6.37396 0.0220117 0
M  V30 5869 C 547.445 6.07705 0.643232 0
M  V30 5870 C 548.443 6.82993 0.0304164 0
M  V30 5871 O 548.131 8.019 -0.566654 0
M  V30 5872 H 547.863 0.614896 0.280854 0
M  V30 5873 H 550.417 2.04215 0.220285 0
M  V30 5874 H 548.647 2.80972 2.65691 0
M  V30 5875 H 550.336 3.19797 2.4997 0
M  V30 5876 H 551.102 4.81127 0.611666 0
M  V30 5877 H 546.981 4.27865 1.71616 0
M  V30 5878 H 550.525 6.96102 -0.456926 0
M  V30 5879 H 546.422 6.42181 0.653759 0
M  V30 5880 H 547.19 8.17192 -0.462588 0
M  V30 5881 N 549.853 -0.472356 1.50355 0
M  V30 5882 C 551.1 -1.22453 1.61281 0
M  V30 5883 C 551.428 -1.91972 0.31256 0
M  V30 5884 O 550.683 -1.82696 -0.701475 0
M  V30 5885 C 550.982 -2.29257 2.74182 0
M  V30 5886 C 550.648 -1.76999 4.14708 0
M  V30 5887 C 549.31 -1.62467 4.52944 0
M  V30 5888 C 551.662 -1.38215 5.0254 0
M  V30 5889 C 548.99 -1.07574 5.76754 0
M  V30 5890 C 551.342 -0.847638 6.26895 0
M  V30 5891 C 550.006 -0.688946 6.63935 0
M  V30 5892 H 549.276 -0.448087 0.590168 0
M  V30 5893 H 551.923 -0.520744 1.84284 0
M  V30 5894 H 550.228 -3.05538 2.45263 0
M  V30 5895 H 551.925 -2.87212 2.7984 0
M  V30 5896 H 548.515 -1.89276 3.84542 0
M  V30 5897 H 552.699 -1.48276 4.73633 0
M  V30 5898 H 547.955 -0.940237 6.04127 0
M  V30 5899 H 552.129 -0.538455 6.94315 0
M  V30 5900 H 549.756 -0.261435 7.5975 0
M  V30 5901 N 551.331 -1.39911 -0.725443 0
M  V30 5902 C 552.556 -1.41137 -1.5197 0
M  V30 5903 C 552.981 -0.010262 -1.88097 0
M  V30 5904 O 552.339 0.979184 -1.52583 0
M  V30 5905 C 552.387 -2.2994 -2.77777 0
M  V30 5906 O 551.491 -1.73586 -3.74088 0
M  V30 5907 H 550.832 -0.480219 -0.458569 0
M  V30 5908 H 553.362 -1.84023 -0.894249 0
M  V30 5909 H 553.372 -2.44785 -3.26411 0
M  V30 5910 H 552.047 -3.31759 -2.50816 0
M  V30 5911 H 550.624 -1.68035 -3.32894 0
M  V30 5912 N 552.809 0.956637 -1.25245 0
M  V30 5913 C 553.719 2.0868 -1.0719 0
M  V30 5914 C 554.735 1.73997 -0.00959074 0
M  V30 5915 O 555.911 2.00301 -0.210104 0
M  V30 5916 C 552.976 3.39754 -0.690526 0
M  V30 5917 C 552.037 3.88316 -1.83055 0
M  V30 5918 C 551.27 5.13134 -1.46728 0
M  V30 5919 O 551.493 5.6925 -0.362029 0
M  V30 5920 O 550.427 5.56356 -2.29677 0
M  V30 5921 H 554.253 2.26813 -2.01965 0
M  V30 5922 H 551.838 1.07098 -1.04165 0
M  V30 5923 H 553.72 4.18543 -0.489871 0
M  V30 5924 H 552.395 3.22896 0.227981 0
M  V30 5925 H 551.302 3.1054 -2.08604 0
M  V30 5926 H 552.635 4.09669 -2.72822 0
M  V30 5927 N 554.287 1.06798 1.15896 0
M  V30 5928 C 555.517 0.807522 1.90165 0
M  V30 5929 C 555.925 -0.642417 1.7796 0
M  V30 5930 O 555.268 -1.45193 1.12537 0
M  V30 5931 C 555.33 1.12939 3.41299 0
M  V30 5932 C 554.994 2.57879 3.7729 0
M  V30 5933 C 555.991 3.56118 3.78782 0
M  V30 5934 C 553.676 2.93311 4.07767 0
M  V30 5935 C 555.67 4.87827 4.10248 0
M  V30 5936 C 553.357 4.25219 4.38899 0
M  V30 5937 C 554.355 5.22287 4.4012 0
M  V30 5938 O 554.043 6.51826 4.70508 0
M  V30 5939 H 553.775 0.291946 0.609708 0
M  V30 5940 H 556.329 1.42627 1.47806 0
M  V30 5941 H 554.559 0.45359 3.84031 0
M  V30 5942 H 556.248 0.852363 3.9685 0
M  V30 5943 H 557.014 3.30086 3.55342 0
M  V30 5944 H 552.893 2.18409 4.05979 0
M  V30 5945 H 556.437 5.63586 4.11116 0
M  V30 5946 H 552.334 4.51006 4.61805 0
M  V30 5947 H 553.102 6.56893 4.88298 0
M  V30 5948 N 555.766 -1.3263 0.851289 0
M  V30 5949 C 556.696 -2.31449 0.308771 0
M  V30 5950 C 557.677 -1.59531 -0.590255 0
M  V30 5951 O 558.862 -1.87351 -0.511205 0
M  V30 5952 C 555.992 -3.43586 -0.506548 0
M  V30 5953 C 554.946 -4.26963 0.297753 0
M  V30 5954 C 554.272 -5.30831 -0.642094 0
M  V30 5955 C 555.572 -4.99643 1.52166 0
M  V30 5956 H 557.266 -2.77074 1.13447 0
M  V30 5957 H 554.812 -1.33207 0.546971 0
M  V30 5958 H 556.765 -4.11754 -0.896474 0
M  V30 5959 H 555.489 -2.96681 -1.36558 0
M  V30 5960 H 554.148 -3.60437 0.669391 0
M  V30 5961 H 553.796 -4.8018 -1.49788 0
M  V30 5962 H 553.496 -5.87501 -0.107968 0
M  V30 5963 H 555.02 -6.01862 -1.02927 0
M  V30 5964 H 556.434 -5.6051 1.20421 0
M  V30 5965 H 554.831 -5.66022 1.99347 0
M  V30 5966 H 555.901 -4.27701 2.28474 0
M  V30 5967 N 557.244 -0.608902 -1.45362 0
M  V30 5968 C 558.655 -0.189511 -1.85736 0
M  V30 5969 C 559.006 1.2539 -1.50903 0
M  V30 5970 O 558.131 1.95094 -0.936347 0
M  V30 5971 C 558.726 -0.33716 -3.37118 0
M  V30 5972 C 557.285 0.0275487 -3.7639 0
M  V30 5973 C 556.432 -0.660983 -2.69307 0
M  V30 5974 H 559.383 -0.815499 -1.36144 0
M  V30 5975 H 559.404 0.430257 -3.7806 0
M  V30 5976 H 558.916 -1.38779 -3.62439 0
M  V30 5977 H 557.017 1.0773 -3.56686 0
M  V30 5978 H 557.13 -0.367018 -4.77692 0
M  V30 5979 H 555.494 -0.0984958 -2.54509 0
M  V30 5980 H 556.277 -1.71377 -2.97464 0
M  V30 5981 N 558.722 1.53707 -0.348139 0
M  V30 5982 C 560.133 1.86213 0.134797 0
M  V30 5983 C 560.484 1.26925 1.49614 0
M  V30 5984 O 559.609 0.584573 2.08355 0
M  V30 5985 C 560.204 3.37866 0.251371 0
M  V30 5986 C 558.763 3.70233 0.678543 0
M  V30 5987 C 557.91 2.76683 -0.184925 0
M  V30 5988 H 560.861 1.48204 -0.567571 0
M  V30 5989 H 560.882 3.64908 1.07806 0
M  V30 5990 H 560.394 3.80988 -0.739581 0
M  V30 5991 H 558.495 3.32659 1.67835 0
M  V30 5992 H 558.608 4.76836 0.465251 0
M  V30 5993 H 556.972 2.52374 0.343465 0
M  V30 5994 H 557.755 3.22635 -1.1731 0
M  V30 5995 N 560.2 0.0768682 1.57412 0
M  V30 5996 C 561.449 -0.590679 1.92857 0
M  V30 5997 C 561.762 -1.70461 0.959293 0
M  V30 5998 O 562.968 -2.43207 1.20675 0
M  V30 5999 C 561.424 -1.10204 3.42612 0
M  V30 6000 C 561.032 -0.0188447 4.47996 0
M  V30 6001 C 562.776 -1.74336 3.87049 0
M  V30 6002 C 560.683 -0.544536 5.88888 0
M  V30 6003 H 559.613 -0.224411 0.71983 0
M  V30 6004 H 562.264 0.149924 1.82887 0
M  V30 6005 H 560.646 -1.89577 3.47673 0
M  V30 6006 H 561.82 0.755936 4.54557 0
M  V30 6007 H 560.135 0.526555 4.13057 0
M  V30 6008 H 562.732 -2.14708 4.89699 0
M  V30 6009 H 563.075 -2.60537 3.24694 0
M  V30 6010 H 563.608 -1.01577 3.84613 0
M  V30 6011 H 560.347 0.280426 6.549 0
M  V30 6012 H 559.867 -1.28673 5.85836 0
M  V30 6013 H 561.546 -1.01933 6.3892 0
M  V30 6014 N 561.678 -1.56367 -0.196722 0
M  V30 6015 C 562.625 -1.94417 -1.24382 0
M  V30 6016 C 563.595 -0.804543 -1.45315 0
M  V30 6017 O 564.78 -1.06256 -1.58475 0
M  V30 6018 C 561.92 -2.28757 -2.58388 0
M  V30 6019 C 561.033 -3.55775 -2.45047 0
M  V30 6020 C 560.168 -3.79445 -3.71746 0
M  V30 6021 C 559.207 -4.99894 -3.53231 0
M  V30 6022 N 558.344 -5.19826 -4.71938 0
M  V30 6023 H 563.184 -2.83691 -0.912338 0
M  V30 6024 H 560.721 -1.40392 -0.439135 0
M  V30 6025 H 562.679 -2.46682 -3.36457 0
M  V30 6026 H 561.309 -1.42625 -2.89582 0
M  V30 6027 H 560.361 -3.45905 -1.58284 0
M  V30 6028 H 561.673 -4.44 -2.27299 0
M  V30 6029 H 560.827 -3.97601 -4.58256 0
M  V30 6030 H 559.566 -2.89546 -3.92446 0
M  V30 6031 H 558.571 -4.81662 -2.65107 0
M  V30 6032 H 559.796 -5.913 -3.33978 0
M  V30 6033 H 557.742 -4.32875 -4.92905 0
M  V30 6034 H 557.659 -6.02228 -4.57009 0
M  V30 6035 H 558.927 -5.42439 -5.59803 0
M  V30 6036 N 563.156 0.464375 -1.50603 0
M  V30 6037 C 564.384 1.23907 -1.65695 0
M  V30 6038 C 564.799 1.85658 -0.343027 0
M  V30 6039 O 564.156 1.69529 0.675739 0
M  V30 6040 C 564.207 2.3429 -2.75301 0
M  V30 6041 O 563.928 1.7507 -4.01599 0
M  V30 6042 C 565.429 3.25051 -3.01424 0
M  V30 6043 H 562.649 0.374485 -0.556778 0
M  V30 6044 H 565.193 0.55353 -1.96866 0
M  V30 6045 H 563.348 2.98607 -2.46804 0
M  V30 6046 H 563.762 2.47812 -4.62266 0
M  V30 6047 H 565.236 3.98699 -3.81763 0
M  V30 6048 H 565.713 3.84227 -2.12758 0
M  V30 6049 H 566.319 2.66463 -3.31477 0
M  V30 6050 N 564.634 1.40294 0.718013 0
M  V30 6051 C 565.544 1.42678 1.86226 0
M  V30 6052 C 566.56 0.319655 1.71039 0
M  V30 6053 O 567.736 0.563852 1.93346 0
M  V30 6054 C 564.801 1.2852 3.21999 0
M  V30 6055 C 563.862 2.49354 3.49458 0
M  V30 6056 C 563.095 2.35863 4.78753 0
M  V30 6057 O 563.318 1.37114 5.53675 0
M  V30 6058 O 562.252 3.25189 5.06494 0
M  V30 6059 H 566.078 2.39167 1.87171 0
M  V30 6060 H 563.663 1.2159 0.868112 0
M  V30 6061 H 565.545 1.22824 4.03103 0
M  V30 6062 H 564.22 0.351359 3.21787 0
M  V30 6063 H 563.127 2.60628 2.68373 0
M  V30 6064 H 564.46 3.41491 3.54464 0
M  V30 6065 N 566.112 -0.949982 1.2575 0
M  V30 6066 C 567.059 -2.04738 1.06541 0
M  V30 6067 C 568.029 -1.66078 -0.0268818 0
M  V30 6068 O 569.214 -1.90348 0.131196 0
M  V30 6069 C 566.354 -3.38027 0.695127 0
M  V30 6070 C 565.467 -3.89776 1.86276 0
M  V30 6071 C 564.602 -5.11411 1.4364 0
M  V30 6072 C 563.641 -5.554 2.57287 0
M  V30 6073 N 562.778 -6.68244 2.15395 0
M  V30 6074 H 567.618 -2.20502 2.00457 0
M  V30 6075 H 565.155 -1.0805 0.998178 0
M  V30 6076 H 567.113 -4.14641 0.461375 0
M  V30 6077 H 565.743 -3.22135 -0.207046 0
M  V30 6078 H 564.795 -3.0964 2.20969 0
M  V30 6079 H 566.107 -4.18368 2.71606 0
M  V30 6080 H 565.261 -5.95457 1.16257 0
M  V30 6081 H 564 -4.84545 0.553879 0
M  V30 6082 H 563.005 -4.69916 2.85409 0
M  V30 6083 H 564.23 -5.84272 3.46125 0
M  V30 6084 H 562.176 -6.43078 1.29565 0
M  V30 6085 H 562.093 -6.96377 2.94272 0
M  V30 6086 H 563.361 -7.55687 1.91201 0
M  V30 6087 N 567.59 -1.07411 -1.15328 0
M  V30 6088 C 568.52 -0.716472 -2.22236 0
M  V30 6089 C 569.501 0.296373 -1.67498 0
M  V30 6090 O 570.686 0.168989 -1.93463 0
M  V30 6091 C 567.816 -0.114142 -3.47112 0
M  V30 6092 C 566.77 -1.05421 -4.14814 0
M  V30 6093 C 566.096 -0.314604 -5.33774 0
M  V30 6094 C 567.396 -2.38808 -4.64508 0
M  V30 6095 H 569.09 -1.61029 -2.52408 0
M  V30 6096 H 566.636 -0.775702 -1.21321 0
M  V30 6097 H 568.589 0.148001 -4.2114 0
M  V30 6098 H 567.313 0.814755 -3.16274 0
M  V30 6099 H 565.972 -1.30128 -3.42728 0
M  V30 6100 H 565.62 0.617772 -4.99192 0
M  V30 6101 H 565.32 -0.941209 -5.80013 0
M  V30 6102 H 566.844 -0.0602747 -6.1057 0
M  V30 6103 H 568.258 -2.18424 -5.3006 0
M  V30 6104 H 566.655 -2.97069 -5.21412 0
M  V30 6105 H 567.725 -3.01067 -3.80114 0
M  V30 6106 N 569.068 1.32177 -0.85831 0
M  V30 6107 C 569.998 2.31282 -0.321041 0
M  V30 6108 C 570.979 1.59841 0.581786 0
M  V30 6109 O 572.164 1.87619 0.501262 0
M  V30 6110 C 569.294 3.4385 0.48832 0
M  V30 6111 C 568.248 4.26799 -0.320391 0
M  V30 6112 C 567.574 5.31164 0.613934 0
M  V30 6113 C 568.874 4.98829 -1.54813 0
M  V30 6114 H 570.568 2.76469 -1.14915 0
M  V30 6115 H 568.114 1.32916 -0.554028 0
M  V30 6116 H 570.067 4.12224 0.874626 0
M  V30 6117 H 568.791 2.97401 1.34983 0
M  V30 6118 H 567.45 3.60077 -0.688497 0
M  V30 6119 H 567.098 4.80967 1.47239 0
M  V30 6120 H 566.798 5.8755 0.0768097 0
M  V30 6121 H 568.322 6.024 0.997336 0
M  V30 6122 H 569.736 5.59864 -1.23392 0
M  V30 6123 H 568.133 5.64957 -2.02346 0
M  V30 6124 H 569.203 4.26483 -2.30739 0
M  V30 6125 N 570.547 0.616602 1.45037 0
M  V30 6126 C 571.824 0.0469086 1.95544 0
M  V30 6127 C 572.204 -1.42345 1.55888 0
M  V30 6128 O 571.552 -2.13055 0.825824 0
M  V30 6129 C 571.762 0.254489 3.48071 0
M  V30 6130 C 573.11 0.140025 4.24369 0
M  V30 6131 O 574.134 0.185084 3.55719 0
M  V30 6132 O 572.993 0.0327034 5.4649 0
M  V30 6133 H 570.087 -0.0306051 0.826433 0
M  V30 6134 H 572.633 0.687293 1.55159 0
M  V30 6135 H 571.405 1.27532 3.69934 0
M  V30 6136 H 571.028 -0.42073 3.95368 0
M  V30 6137 N 572.025 -1.5352 0.356285 0
M  V30 6138 C 572.973 -2.26945 -0.50978 0
M  V30 6139 C 573.967 -1.29569 -1.09125 0
M  V30 6140 O 575.173 -1.47231 -1.03552 0
M  V30 6141 H 571.548 -0.729368 -0.183102 0
M  V30 6142 H 573.519 -2.98111 0.131374 0
M  V30 6143 C 572.268 -3.06466 -1.64237 0
M  V30 6144 H 571.591 -3.81233 -1.20423 0
M  V30 6145 H 573.031 -3.61035 -2.22327 0
M  V30 6146 C 571.49 -2.16737 -2.57928 0
M  V30 6147 O 572.02 -1.77195 -3.60507 0
M  V30 6148 N 570.226 -1.81558 -2.26903 0
M  V30 6149 H 569.773 -2.13913 -1.43524 0
M  V30 6150 H 569.731 -1.21806 -2.89846 0
M  V30 6151 N 573.503 -0.0852151 -1.57369 0
M  V30 6152 C 574.731 0.58946 -1.98325 0
M  V30 6153 C 575.146 1.62333 -0.96403 0
M  V30 6154 O 574.503 1.82438 0.0476395 0
M  V30 6155 C 574.554 1.24604 -3.39347 0
M  V30 6156 O 574.275 0.253532 -4.37366 0
M  V30 6157 C 575.776 2.00726 -3.95252 0
M  V30 6158 H 572.996 0.158783 -0.651942 0
M  V30 6159 H 575.54 -0.161584 -2.03861 0
M  V30 6160 H 573.695 1.94808 -3.34856 0
M  V30 6161 H 574.109 0.726207 -5.19448 0
M  V30 6162 H 575.583 2.42039 -4.96106 0
M  V30 6163 H 576.06 2.86919 -3.32527 0
M  V30 6164 H 576.666 1.3536 -4.03185 0
M  V30 6165 N 574.981 1.5647 0.188427 0
M  V30 6166 C 576.23 1.80207 0.905995 0
M  V30 6167 C 576.543 0.659579 1.84144 0
M  V30 6168 O 577.749 0.781431 2.60011 0
M  V30 6169 C 576.205 3.19255 1.66145 0
M  V30 6170 C 575.813 4.41324 0.770504 0
M  V30 6171 C 577.557 3.52298 2.36826 0
M  V30 6172 C 575.464 5.71394 1.52521 0
M  V30 6173 H 574.394 0.671953 0.342045 0
M  V30 6174 H 577.045 1.82808 0.159164 0
M  V30 6175 H 575.427 3.10922 2.45242 0
M  V30 6176 H 576.601 4.60797 0.0177261 0
M  V30 6177 H 574.916 4.16035 0.174199 0
M  V30 6178 H 577.513 4.46715 2.93854 0
M  V30 6179 H 577.856 2.76359 3.11338 0
M  V30 6180 H 578.389 3.62108 1.6469 0
M  V30 6181 H 575.128 6.50316 0.82275 0
M  V30 6182 H 574.648 5.55928 2.25175 0
M  V30 6183 H 576.327 6.12747 2.07725 0
M  V30 6184 N 576.459 -0.456382 1.50847 0
M  V30 6185 C 577.689 -1.22848 1.66108 0
M  V30 6186 C 578.097 -1.85936 0.349897 0
M  V30 6187 O 577.44 -1.70664 -0.679665 0
M  V30 6188 C 577.502 -2.36722 2.70561 0
M  V30 6189 C 577.166 -1.94154 4.13707 0
M  V30 6190 C 578.163 -1.4557 4.99105 0
M  V30 6191 C 575.848 -2.02426 4.59705 0
M  V30 6192 C 577.842 -1.0582 6.28555 0
M  V30 6193 C 575.529 -1.62287 5.89157 0
M  V30 6194 C 576.527 -1.14064 6.73408 0
M  V30 6195 O 576.215 -0.744873 8.00442 0
M  V30 6196 H 575.947 -0.377105 0.561042 0
M  V30 6197 H 578.501 -0.549431 1.97915 0
M  V30 6198 H 576.731 -3.07844 2.34027 0
M  V30 6199 H 578.42 -2.98646 2.74892 0
M  V30 6200 H 579.186 -1.38589 4.64777 0
M  V30 6201 H 575.065 -2.38908 3.94264 0
M  V30 6202 H 578.609 -0.6811 6.94267 0
M  V30 6203 H 574.506 -1.68932 6.23003 0
M  V30 6204 H 575.274 -0.87242 8.13837 0
M  V30 6205 N 577.937 -1.40673 -0.710563 0
M  V30 6206 C 579.165 -1.42547 -1.4996 0
M  V30 6207 C 579.58 -0.0265485 -1.88781 0
M  V30 6208 O 578.937 0.950694 -1.55782 0
M  V30 6209 C 578.988 -2.32071 -2.77173 0
M  V30 6210 O 578.709 -3.66518 -2.39992 0
M  V30 6211 C 580.21 -2.42591 -3.71032 0
M  V30 6212 H 577.43 -0.486025 -0.462623 0
M  V30 6213 H 579.974 -1.84783 -0.876102 0
M  V30 6214 H 578.129 -1.93184 -3.35795 0
M  V30 6215 H 578.543 -4.14115 -3.21884 0
M  V30 6216 H 580.017 -3.09429 -4.57119 0
M  V30 6217 H 580.494 -1.4525 -4.14486 0
M  V30 6218 H 581.1 -2.82051 -3.18319 0
M  V30 6219 N 579.415 0.9433 -1.26252 0
M  V30 6220 C 580.347 2.04542 -1.03417 0
M  V30 6221 C 581.36 1.62799 0.0046911 0
M  V30 6222 O 582.549 1.76944 -0.235146 0
M  V30 6223 C 579.649 3.34511 -0.543671 0
M  V30 6224 C 578.822 4.05033 -1.65128 0
M  V30 6225 C 577.881 5.13273 -1.1592 0
M  V30 6226 O 576.907 5.38095 -1.85586 0
M  V30 6227 N 578.109 5.805 -0.00649279 0
M  V30 6228 H 580.874 2.24699 -1.98319 0
M  V30 6229 H 578.435 1.11264 -1.1761 0
M  V30 6230 H 580.427 4.04212 -0.198703 0
M  V30 6231 H 578.997 3.11042 0.311711 0
M  V30 6232 H 578.217 3.29275 -2.16729 0
M  V30 6233 H 579.505 4.48903 -2.39508 0
M  V30 6234 H 578.903 5.62767 0.575347 0
M  V30 6235 H 577.46 6.51201 0.279416 0
M  V30 6236 N 580.893 1.08022 1.14757 0
M  V30 6237 C 581.841 0.701088 2.21783 0
M  V30 6238 C 582.835 -0.291311 1.66876 0
M  V30 6239 O 584.041 -0.154296 1.79337 0
M  V30 6240 H 580.416 0.208668 0.722469 0
M  V30 6241 H 582.387 1.61321 2.51034 0
M  V30 6242 C 581.136 0.122278 3.47485 0
M  V30 6243 H 580.459 0.877065 3.90061 0
M  V30 6244 H 581.899 -0.105248 4.23869 0
M  V30 6245 C 580.358 -1.13883 3.17068 0
M  V30 6246 O 580.888 -2.22429 3.34497 0
M  V30 6247 N 579.094 -1.04767 2.71058 0
M  V30 6248 H 578.641 -0.164302 2.57075 0
M  V30 6249 H 578.599 -1.89224 2.51081 0
M  V30 6250 N 582.371 -1.3172 0.865308 0
M  V30 6251 C 583.281 -2.32394 0.320935 0
M  V30 6252 C 584.297 -1.64511 -0.566746 0
M  V30 6253 O 585.473 -1.95969 -0.464575 0
M  V30 6254 C 582.538 -3.43462 -0.472701 0
M  V30 6255 C 581.599 -4.27015 0.442385 0
M  V30 6256 C 580.832 -5.32779 -0.313469 0
M  V30 6257 O 581.055 -5.49158 -1.54214 0
M  V30 6258 O 579.989 -6.01015 0.326257 0
M  V30 6259 H 583.815 -2.80868 1.15528 0
M  V30 6260 H 581.4 -1.35535 0.628545 0
M  V30 6261 H 583.282 -4.11172 -0.922781 0
M  V30 6262 H 581.957 -2.97159 -1.28367 0
M  V30 6263 H 580.864 -3.62075 0.940866 0
M  V30 6264 H 582.197 -4.76871 1.21882 0
M  V30 6265 N 583.85 -0.624285 -1.44708 0
M  V30 6266 C 585.098 -0.125802 -2.01708 0
M  V30 6267 C 585.418 1.2543 -1.49306 0
M  V30 6268 O 584.689 1.83198 -0.693924 0
M  V30 6269 H 583.269 -0.0435161 -0.745731 0
M  V30 6270 H 585.931 -0.809446 -1.77296 0
M  V30 6271 H 585.027 -0.0882734 -3.11975 0
M  V30 6272 N 585.328 1.53329 -0.364422 0
M  V30 6273 C 586.575 2.01239 0.225634 0
M  V30 6274 C 586.903 1.25172 1.48869 0
M  V30 6275 O 586.158 0.333289 1.92841 0
M  V30 6276 C 586.457 3.52911 0.564661 0
M  V30 6277 C 586.123 4.46837 -0.603936 0
M  V30 6278 C 584.785 4.72234 -0.924585 0
M  V30 6279 C 587.137 5.02409 -1.38691 0
M  V30 6280 C 584.465 5.50454 -2.0302 0
M  V30 6281 C 586.817 5.81836 -2.48293 0
M  V30 6282 C 585.481 6.0552 -2.80894 0
M  V30 6283 H 584.751 0.736386 0.0825654 0
M  V30 6284 H 587.398 1.84948 -0.496645 0
M  V30 6285 H 585.703 3.67144 1.36794 0
M  V30 6286 H 587.4 3.87455 1.03344 0
M  V30 6287 H 583.99 4.27217 -0.343983 0
M  V30 6288 H 588.174 4.82735 -1.15243 0
M  V30 6289 H 583.43 5.67024 -2.28678 0
M  V30 6290 H 587.604 6.23905 -3.0938 0
M  V30 6291 H 585.231 6.65916 -3.66688 0
M  V30 6292 N 586.806 0.0935595 1.57322 0
M  V30 6293 C 587.754 -0.883457 2.15169 0
M  V30 6294 C 588.748 -1.29324 1.09415 0
M  V30 6295 O 589.954 -1.26795 1.27762 0
M  V30 6296 H 586.329 -0.302923 0.688289 0
M  V30 6297 H 588.3 -0.370845 2.96087 0
M  V30 6298 C 587.049 -2.13345 2.74552 0
M  V30 6299 H 586.372 -1.82702 3.55612 0
M  V30 6300 H 587.812 -2.7977 3.18598 0
M  V30 6301 C 586.271 -2.90646 1.70371 0
M  V30 6302 O 586.801 -3.85133 1.14173 0
M  V30 6303 N 585.007 -2.54157 1.40899 0
M  V30 6304 H 584.554 -1.77391 1.86789 0
M  V30 6305 H 584.512 -3.06178 0.714301 0
M  V30 6306 N 588.284 -1.56567 -0.180126 0
M  V30 6307 C 589.533 -1.80685 -0.896426 0
M  V30 6308 C 589.846 -0.669335 -1.83791 0
M  V30 6309 O 591.052 -0.795209 -2.59593 0
M  V30 6310 C 589.508 -3.20132 -1.6445 0
M  V30 6311 C 589.116 -4.41727 -0.747088 0
M  V30 6312 C 590.86 -3.53549 -2.34955 0
M  V30 6313 C 588.767 -5.72195 -1.49489 0
M  V30 6314 H 587.697 -0.673758 -0.338477 0
M  V30 6315 H 590.348 -1.8289 -0.149467 0
M  V30 6316 H 588.73 -3.12218 -2.43589 0
M  V30 6317 H 589.904 -4.608 0.00671129 0
M  V30 6318 H 588.219 -4.16122 -0.152134 0
M  V30 6319 H 590.816 -4.48267 -2.91481 0
M  V30 6320 H 591.159 -2.78006 -3.09868 0
M  V30 6321 H 591.692 -3.62976 -1.62768 0
M  V30 6322 H 588.431 -6.50743 -0.788251 0
M  V30 6323 H 587.951 -5.57115 -2.22224 0
M  V30 6324 H 589.63 -6.1384 -2.04472 0
M  V30 6325 N 589.762 0.448376 -1.51087 0
M  V30 6326 C 590.725 1.52588 -1.71025 0
M  V30 6327 C 591.725 1.49958 -0.580442 0
M  V30 6328 O 592.915 1.52176 -0.847833 0
M  V30 6329 C 590.047 2.92163 -1.75652 0
M  V30 6330 H 591.24 1.36218 -2.67179 0
M  V30 6331 H 588.793 0.676313 -1.4091 0
M  V30 6332 H 589.528 3.13951 -0.812724 0
M  V30 6333 H 589.313 2.95478 -2.57751 0
M  V30 6334 H 590.803 3.70349 -1.92953 0
M  V30 6335 N 591.24 1.41047 0.703093 0
M  V30 6336 C 592.465 1.43537 1.49706 0
M  V30 6337 C 592.89 0.0401853 1.88057 0
M  V30 6338 O 592.248 -0.954785 1.54122 0
M  V30 6339 C 592.296 2.3433 2.74084 0
M  V30 6340 O 591.4 1.79515 3.71279 0
M  V30 6341 H 590.741 0.487454 0.450871 0
M  V30 6342 H 593.271 1.85422 0.86486 0
M  V30 6343 H 593.281 2.49947 3.22476 0
M  V30 6344 H 591.956 3.35708 2.45506 0
M  V30 6345 H 590.533 1.7331 3.30179 0
M  V30 6346 N 592.718 -0.936591 1.26751 0
M  V30 6347 C 593.665 -2.03597 1.08706 0
M  V30 6348 C 594.635 -1.66097 -0.00926542 0
M  V30 6349 O 595.82 -1.90199 0.151377 0
M  V30 6350 C 592.96 -3.3727 0.73094 0
M  V30 6351 C 592.073 -3.87778 1.90399 0
M  V30 6352 C 591.208 -5.09859 1.49056 0
M  V30 6353 C 590.247 -5.5264 2.63164 0
M  V30 6354 N 589.384 -6.65921 2.22471 0
M  V30 6355 H 594.224 -2.18364 2.02784 0
M  V30 6356 H 591.761 -1.06985 1.00958 0
M  V30 6357 H 593.719 -4.14128 0.505328 0
M  V30 6358 H 592.349 -3.22337 -0.172868 0
M  V30 6359 H 591.401 -3.07279 2.2424 0
M  V30 6360 H 592.713 -4.15464 2.76028 0
M  V30 6361 H 591.867 -5.9419 1.22567 0
M  V30 6362 H 590.606 -4.8393 0.60524 0
M  V30 6363 H 589.611 -4.66863 2.90377 0
M  V30 6364 H 590.836 -5.80568 3.52303 0
M  V30 6365 H 588.782 -6.41667 1.36379 0
M  V30 6366 H 588.699 -6.93216 3.01641 0
M  V30 6367 H 589.967 -7.53616 1.99205 0
M  V30 6368 N 594.196 -1.08629 -1.14182 0
M  V30 6369 C 595.144 -0.71284 -2.21408 0
M  V30 6370 C 596.138 0.282457 -1.67029 0
M  V30 6371 O 597.344 0.144783 -1.79417 0
M  V30 6372 H 593.719 -0.212497 -0.721352 0
M  V30 6373 H 595.69 -1.6265 -2.50175 0
M  V30 6374 C 594.439 -0.140704 -3.47415 0
M  V30 6375 H 593.762 -0.897739 -3.8959 0
M  V30 6376 H 595.202 0.0827677 -4.23919 0
M  V30 6377 C 593.661 1.122 -3.17668 0
M  V30 6378 O 594.191 2.20652 -3.35672 0
M  V30 6379 N 592.397 1.03328 -2.71609 0
M  V30 6380 H 591.944 0.150666 -2.57159 0
M  V30 6381 H 591.902 1.8789 -2.52081 0
M  V30 6382 N 595.674 1.31259 -0.872281 0
M  V30 6383 C 596.604 2.30929 -0.345554 0
M  V30 6384 C 597.585 1.60449 0.5648 0
M  V30 6385 O 598.77 1.8814 0.481335 0
M  V30 6386 C 595.9 3.44348 0.451823 0
M  V30 6387 C 594.854 4.26435 -0.365641 0
M  V30 6388 C 594.18 5.31785 0.557562 0
M  V30 6389 C 595.48 4.97159 -1.60095 0
M  V30 6390 H 597.174 2.75234 -1.17841 0
M  V30 6391 H 594.72 1.3232 -0.568094 0
M  V30 6392 H 596.673 4.13128 0.830854 0
M  V30 6393 H 595.397 2.98816 1.31821 0
M  V30 6394 H 594.056 3.59326 -0.726649 0
M  V30 6395 H 593.704 4.82502 1.4213 0
M  V30 6396 H 593.404 5.87598 0.0144878 0
M  V30 6397 H 594.928 6.03424 0.933387 0
M  V30 6398 H 596.342 5.58523 -1.29323 0
M  V30 6399 H 594.739 5.62779 -2.08327 0
M  V30 6400 H 595.809 4.24012 -2.35249 0
M  V30 6401 N 597.152 0.631951 1.44375 0
M  V30 6402 C 598.099 -0.0724807 2.30686 0
M  V30 6403 C 599.069 -0.835975 1.43529 0
M  V30 6404 O 600.254 -0.816849 1.7243 0
M  V30 6405 C 597.394 -1.04753 3.28817 0
M  V30 6406 C 596.507 -0.282367 4.31076 0
M  V30 6407 C 595.642 -1.2493 5.163 0
M  V30 6408 C 594.681 -0.473349 6.10267 0
M  V30 6409 N 593.818 -1.39079 6.88187 0
M  V30 6410 H 598.658 0.669477 2.90383 0
M  V30 6411 H 596.195 0.341927 1.43071 0
M  V30 6412 H 598.153 -1.62623 3.842 0
M  V30 6413 H 596.783 -1.75661 2.70819 0
M  V30 6414 H 595.835 0.412268 3.78159 0
M  V30 6415 H 597.147 0.321955 4.9776 0
M  V30 6416 H 596.301 -1.89931 5.76204 0
M  V30 6417 H 595.04 -1.88755 4.49692 0
M  V30 6418 H 594.045 0.190142 5.49471 0
M  V30 6419 H 595.27 0.16019 6.78911 0
M  V30 6420 H 593.216 -2.01623 6.24247 0
M  V30 6421 H 593.133 -0.840513 7.51313 0
M  V30 6422 H 594.401 -2.02961 7.52613 0
M  V30 6423 N 598.631 -1.53133 0.372548 0
M  V30 6424 C 599.859 -2.05774 -0.215515 0
M  V30 6425 C 600.274 -1.24555 -1.41886 0
M  V30 6426 O 599.631 -0.287951 -1.80214 0
M  V30 6427 C 599.682 -3.5645 -0.602161 0
M  V30 6428 O 599.403 -4.34591 0.553359 0
M  V30 6429 C 600.904 -4.25374 -1.24787 0
M  V30 6430 H 598.124 -0.670009 -0.0364529 0
M  V30 6431 H 600.668 -1.97434 0.532934 0
M  V30 6432 H 598.823 -3.64918 -1.30052 0
M  V30 6433 H 599.237 -5.23954 0.239336 0
M  V30 6434 H 600.711 -5.32097 -1.46891 0
M  V30 6435 H 601.188 -3.79531 -2.21026 0
M  V30 6436 H 601.794 -4.21177 -0.590752 0
M  V30 6437 N 600.109 -0.101901 -1.5727 0
M  V30 6438 C 601.019 0.868647 -2.17926 0
M  V30 6439 C 602.035 1.30527 -1.1506 0
M  V30 6440 O 603.211 1.37178 -1.47459 0
M  V30 6441 C 600.276 2.10727 -2.75309 0
M  V30 6442 C 599.337 1.7242 -3.93154 0
M  V30 6443 C 598.57 2.90377 -4.47791 0
M  V30 6444 O 598.793 4.05305 -4.01353 0
M  V30 6445 O 597.727 2.6845 -5.38719 0
M  V30 6446 H 601.553 0.382544 -3.01281 0
M  V30 6447 H 599.138 0.122812 -1.48894 0
M  V30 6448 H 601.02 2.83303 -3.11958 0
M  V30 6449 H 599.695 2.58376 -1.94996 0
M  V30 6450 H 598.602 0.970039 -3.61305 0
M  V30 6451 H 599.935 1.29528 -4.74851 0
M  V30 6452 N 601.587 1.56661 0.17182 0
M  V30 6453 C 602.834 1.81965 0.888529 0
M  V30 6454 C 603.162 0.6789 1.82267 0
M  V30 6455 O 602.417 -0.333875 1.92831 0
M  V30 6456 C 602.716 3.13435 1.71736 0
M  V30 6457 C 602.382 4.41159 0.932184 0
M  V30 6458 C 601.044 4.75851 0.715481 0
M  V30 6459 C 603.396 5.19803 0.381387 0
M  V30 6460 C 600.724 5.86666 -0.063126 0
M  V30 6461 C 603.076 6.31433 -0.384129 0
M  V30 6462 C 601.74 6.64692 -0.611637 0
M  V30 6463 H 601.01 0.665859 0.325136 0
M  V30 6464 H 603.657 1.90884 0.153495 0
M  V30 6465 H 601.962 2.99857 2.52177 0
M  V30 6466 H 603.659 3.30224 2.27493 0
M  V30 6467 H 600.249 4.13947 1.11112 0
M  V30 6468 H 604.433 4.93396 0.536148 0
M  V30 6469 H 599.689 6.10892 -0.249136 0
M  V30 6470 H 603.863 6.91577 -0.818185 0
M  V30 6471 H 601.49 7.50398 -1.21684 0
M  V30 6472 N 603.065 -0.440357 1.51323 0
M  V30 6473 C 604.013 -1.55492 1.72988 0
M  V30 6474 C 605.007 -1.58564 0.596138 0
M  V30 6475 O 606.213 -1.62345 0.777443 0
M  V30 6476 H 602.588 -0.516532 0.546533 0
M  V30 6477 H 604.559 -1.34392 2.66423 0
M  V30 6478 C 603.308 -2.93176 1.86931 0
M  V30 6479 H 602.631 -2.91543 2.73574 0
M  V30 6480 H 604.071 -3.70537 2.06103 0
M  V30 6481 C 602.53 -3.30988 0.628365 0
M  V30 6482 O 603.06 -4.01106 -0.218367 0
M  V30 6483 N 601.266 -2.86719 0.473339 0
M  V30 6484 H 600.813 -2.2983 1.16345 0
M  V30 6485 H 600.771 -3.12381 -0.355727 0
M  V30 6486 N 604.543 -1.41418 -0.695603 0
M  V30 6487 C 605.791 -1.40496 -1.45277 0
M  V30 6488 C 606.112 -0.0149538 -1.94994 0
M  V30 6489 O 605.382 0.9432 -1.71699 0
M  V30 6490 H 603.962 -0.517147 -0.539044 0
M  V30 6491 H 606.624 -1.76656 -0.823321 0
M  V30 6492 H 605.72 -2.09214 -2.31595 0
M  V30 6493 N 606.021 0.929856 -1.27246 0
M  V30 6494 C 606.953 2.03434 -1.0558 0
M  V30 6495 C 607.966 1.62795 -0.0125762 0
M  V30 6496 O 609.155 1.76685 -0.2539 0
M  V30 6497 C 606.255 3.33915 -0.57912 0
M  V30 6498 C 605.428 4.03259 -1.69415 0
M  V30 6499 C 604.487 5.12014 -1.21357 0
M  V30 6500 O 603.513 5.36097 -1.91282 0
M  V30 6501 N 604.715 5.8046 -0.0680622 0
M  V30 6502 H 607.48 2.22583 -2.00691 0
M  V30 6503 H 605.041 1.1001 -1.18783 0
M  V30 6504 H 607.033 4.03978 -0.241563 0
M  V30 6505 H 605.603 3.11355 0.278703 0
M  V30 6506 H 604.823 3.26958 -2.20209 0
M  V30 6507 H 606.111 4.46337 -2.44255 0
M  V30 6508 H 605.509 5.63345 0.515626 0
M  V30 6509 H 604.066 6.51461 0.210332 0
M  V30 6510 N 607.499 1.09233 1.13605 0
M  V30 6511 C 608.447 0.724572 2.21027 0
M  V30 6512 C 609.441 -0.273595 1.67176 0
M  V30 6513 O 610.647 -0.135266 1.79491 0
M  V30 6514 H 607.022 0.216319 0.720215 0
M  V30 6515 H 608.993 1.63975 2.49309 0
M  V30 6516 C 607.742 0.159126 3.47336 0
M  V30 6517 H 607.065 0.918387 3.89109 0
M  V30 6518 H 608.505 -0.0602851 4.23957 0
M  V30 6519 C 606.964 -1.10514 3.18258 0
M  V30 6520 O 607.494 -2.18869 3.36837 0
M  V30 6521 N 605.7 -1.01886 2.72154 0
M  V30 6522 H 605.247 -0.137027 2.57235 0
M  V30 6523 H 605.205 -1.8655 2.53074 0
M  V30 6524 N 608.977 -1.30795 0.87923 0
M  V30 6525 C 609.924 -2.28282 0.339968 0
M  V30 6526 C 610.894 -1.56134 -0.566685 0
M  V30 6527 O 612.079 -1.84231 -0.496338 0
M  V30 6528 C 609.219 -3.42225 -0.444501 0
M  V30 6529 C 608.332 -4.29204 0.490717 0
M  V30 6530 C 607.467 -5.30302 -0.308784 0
M  V30 6531 C 606.506 -6.08929 0.622272 0
M  V30 6532 N 605.643 -7.01957 -0.14155 0
M  V30 6533 H 610.483 -2.73794 1.17647 0
M  V30 6534 H 608.02 -1.34682 0.591527 0
M  V30 6535 H 609.978 -4.07038 -0.915186 0
M  V30 6536 H 608.608 -2.97799 -1.24562 0
M  V30 6537 H 607.66 -3.6475 1.07988 0
M  V30 6538 H 608.972 -4.84045 1.20425 0
M  V30 6539 H 608.126 -6.00835 -0.841575 0
M  V30 6540 H 606.865 -4.7614 -1.05556 0
M  V30 6541 H 605.87 -5.37278 1.16674 0
M  V30 6542 H 607.095 -6.65178 1.36804 0
M  V30 6543 H 605.041 -6.50192 -0.870966 0
M  V30 6544 H 604.958 -7.54261 0.51246 0
M  V30 6545 H 606.226 -7.76741 -0.655271 0
M  V30 6546 N 610.455 -0.639598 -1.44038 0
M  V30 6547 C 611.418 0.0506628 -2.29144 0
M  V30 6548 C 612.418 0.764001 -1.41491 0
M  V30 6549 O 613.608 0.607309 -1.63271 0
M  V30 6550 C 610.74 1.0824 -3.2326 0
M  V30 6551 H 611.933 -0.697987 -2.91664 0
M  V30 6552 H 609.486 -0.400146 -1.51091 0
M  V30 6553 H 610.221 1.86075 -2.65606 0
M  V30 6554 H 610.006 0.574725 -3.87865 0
M  V30 6555 H 611.496 1.56487 -3.87171 0
M  V30 6556 N 611.933 1.52934 -0.380664 0
M  V30 6557 C 613.179 2.01765 0.20458 0
M  V30 6558 C 613.512 1.26696 1.47179 0
M  V30 6559 O 612.787 0.364936 1.91046 0
M  V30 6560 C 613.07 3.56869 0.481269 0
M  V30 6561 C 612.923 4.42617 -0.800629 0
M  V30 6562 C 614.242 4.2121 1.27554 0
M  V30 6563 H 611.361 0.733388 0.0728803 0
M  V30 6564 H 614.003 1.83068 -0.50853 0
M  V30 6565 H 612.153 3.72932 1.08875 0
M  V30 6566 H 613.825 4.38323 -1.43773 0
M  V30 6567 H 612.068 4.09977 -1.4178 0
M  V30 6568 H 612.739 5.49134 -0.561791 0
M  V30 6569 H 615.215 4.09072 0.761514 0
M  V30 6570 H 614.091 5.29732 1.43788 0
M  V30 6571 H 614.352 3.78269 2.28833 0
M  V30 6572 N 613.412 0.11024 1.57214 0
M  V30 6573 C 614.36 -0.860586 2.16094 0
M  V30 6574 C 615.354 -1.28156 1.1078 0
M  V30 6575 O 616.56 -1.25433 1.29099 0
M  V30 6576 H 612.935 -0.295606 0.691463 0
M  V30 6577 H 614.906 -0.33942 2.96463 0
M  V30 6578 C 613.655 -2.10421 2.768 0
M  V30 6579 H 612.978 -1.7892 3.5753 0
M  V30 6580 H 614.418 -2.76375 3.21547 0
M  V30 6581 C 612.877 -2.88823 1.73444 0
M  V30 6582 O 613.407 -3.839 1.18251 0
M  V30 6583 N 611.613 -2.52649 1.43586 0
M  V30 6584 H 611.16 -1.754 1.8866 0
M  V30 6585 H 611.118 -3.05403 0.746735 0
M  V30 6586 N 614.89 -1.56749 -0.16351 0
M  V30 6587 C 615.837 -1.97011 -1.2023 0
M  V30 6588 C 616.807 -0.835186 -1.43575 0
M  V30 6589 O 617.992 -1.09594 -1.56185 0
M  V30 6590 C 615.132 -2.34186 -2.53478 0
M  V30 6591 C 614.245 -3.60893 -2.37446 0
M  V30 6592 C 613.38 -3.87245 -3.63614 0
M  V30 6593 C 612.419 -5.07274 -3.42548 0
M  V30 6594 N 611.556 -5.29719 -4.60806 0
M  V30 6595 H 616.396 -2.85562 -0.851958 0
M  V30 6596 H 613.933 -1.41292 -0.409257 0
M  V30 6597 H 615.891 -2.53764 -3.31149 0
M  V30 6598 H 614.521 -1.48736 -2.86492 0
M  V30 6599 H 613.573 -3.49185 -1.50911 0
M  V30 6600 H 614.885 -4.48722 -2.1783 0
M  V30 6601 H 614.039 -4.07232 -4.49719 0
M  V30 6602 H 612.778 -2.97806 -3.86216 0
M  V30 6603 H 611.783 -4.87177 -2.5483 0
M  V30 6604 H 613.008 -5.98251 -3.2136 0
M  V30 6605 H 610.954 -4.43233 -4.83612 0
M  V30 6606 H 610.871 -6.11786 -4.44132 0
M  V30 6607 H 612.139 -5.54192 -5.48171 0
M  V30 6608 N 616.368 0.432326 -1.51554 0
M  V30 6609 C 617.278 1.55023 -1.76082 0
M  V30 6610 C 618.294 1.61593 -0.645265 0
M  V30 6611 O 619.47 1.78742 -0.928086 0
M  V30 6612 C 616.535 2.90964 -1.88523 0
M  V30 6613 C 615.596 2.9447 -3.12388 0
M  V30 6614 C 614.829 4.23926 -3.24225 0
M  V30 6615 O 615.052 5.16576 -2.4188 0
M  V30 6616 O 613.986 4.33818 -4.17235 0
M  V30 6617 H 617.812 1.37238 -2.70923 0
M  V30 6618 H 615.397 0.615845 -1.36117 0
M  V30 6619 H 617.279 3.71633 -1.98662 0
M  V30 6620 H 615.954 3.08865 -0.9687 0
M  V30 6621 H 614.861 2.12737 -3.07723 0
M  V30 6622 H 616.194 2.81514 -4.03746 0
M  V30 6623 N 617.846 1.41785 0.688094 0
M  V30 6624 C 618.809 1.43936 1.78368 0
M  V30 6625 C 619.809 0.328866 1.57401 0
M  V30 6626 O 620.999 0.589093 1.63937 0
M  V30 6627 C 618.131 1.25804 3.16838 0
M  V30 6628 H 619.324 2.41472 1.77852 0
M  V30 6629 H 616.877 1.28037 0.896448 0
M  V30 6630 H 617.612 0.291386 3.22988 0
M  V30 6631 H 617.397 2.06272 3.33458 0
M  V30 6632 H 618.887 1.30162 3.96797 0
M  V30 6633 N 619.324 -0.923095 1.27737 0
M  V30 6634 C 620.554 -1.70277 1.17001 0
M  V30 6635 C 620.962 -1.87188 -0.275199 0
M  V30 6636 O 620.305 -1.39195 -1.19877 0
M  V30 6637 C 620.367 -3.11976 1.78637 0
M  V30 6638 C 620.031 -3.18386 3.27841 0
M  V30 6639 C 621.028 -3.00287 4.2441 0
M  V30 6640 C 618.713 -3.41198 3.68632 0
M  V30 6641 C 620.707 -3.04896 5.59747 0
M  V30 6642 C 618.394 -3.4544 5.04097 0
M  V30 6643 C 619.392 -3.27309 5.99465 0
M  V30 6644 O 619.08 -3.31295 7.32461 0
M  V30 6645 H 618.812 -0.539366 0.407505 0
M  V30 6646 H 621.366 -1.16446 1.69202 0
M  V30 6647 H 619.596 -3.67308 1.20919 0
M  V30 6648 H 621.285 -3.7193 1.6255 0
M  V30 6649 H 622.051 -2.825 3.94232 0
M  V30 6650 H 617.93 -3.54359 2.94873 0
M  V30 6651 H 621.474 -2.90662 6.34162 0
M  V30 6652 H 617.371 -3.62753 5.33929 0
M  V30 6653 H 618.139 -3.47719 7.40968 0
M  V30 6654 N 620.802 -1.09834 -1.13024 0
M  V30 6655 C 621.712 -0.753731 -2.22162 0
M  V30 6656 C 622.728 0.246105 -1.72251 0
M  V30 6657 O 623.904 0.0864051 -2.01215 0
M  V30 6658 C 620.969 -0.183958 -3.46212 0
M  V30 6659 C 620.03 -1.24028 -4.10993 0
M  V30 6660 C 619.263 -0.697597 -5.29121 0
M  V30 6661 O 619.486 0.478092 -5.68393 0
M  V30 6662 O 618.42 -1.4546 -5.84059 0
M  V30 6663 H 622.246 -1.66456 -2.5402 0
M  V30 6664 H 619.831 -0.873026 -1.21238 0
M  V30 6665 H 621.713 0.130257 -4.21199 0
M  V30 6666 H 620.388 0.699823 -3.16045 0
M  V30 6667 H 619.295 -1.60725 -3.37814 0
M  V30 6668 H 620.628 -2.09685 -4.45301 0
M  V30 6669 N 622.28 1.30327 -0.886154 0
M  V30 6670 C 623.19 2.31854 -0.357866 0
M  V30 6671 C 624.206 1.65392 0.540502 0
M  V30 6672 O 625.382 1.96683 0.433339 0
M  V30 6673 C 622.447 3.44171 0.417999 0
M  V30 6674 C 621.508 4.26257 -0.510263 0
M  V30 6675 C 620.741 5.3321 0.228669 0
M  V30 6676 O 620.964 5.51542 1.45458 0
M  V30 6677 O 619.898 6.0042 -0.421832 0
M  V30 6678 H 623.724 2.78995 -1.19982 0
M  V30 6679 H 621.309 1.34518 -0.650028 0
M  V30 6680 H 623.191 4.12588 0.857251 0
M  V30 6681 H 621.866 2.99164 1.23623 0
M  V30 6682 H 620.773 3.60533 -0.99835 0
M  V30 6683 H 622.106 4.74871 -1.29454 0
M  V30 6684 N 623.758 0.647228 1.43697 0
M  V30 6685 C 625.007 0.155552 2.01099 0
M  V30 6686 C 625.32 -1.23569 1.51624 0
M  V30 6687 O 626.526 -1.82226 2.01261 0
M  V30 6688 C 624.982 0.227296 3.59182 0
M  V30 6689 C 624.59 1.62086 4.17651 0
M  V30 6690 C 626.334 -0.207085 4.23995 0
M  V30 6691 C 624.241 1.64685 5.68008 0
M  V30 6692 H 623.171 0.0543895 0.752036 0
M  V30 6693 H 625.822 0.808386 1.64734 0
M  V30 6694 H 624.204 -0.492937 3.9292 0
M  V30 6695 H 625.378 2.36597 3.95422 0
M  V30 6696 H 623.693 2.0007 3.65186 0
M  V30 6697 H 626.29 -0.207426 5.34298 0
M  V30 6698 H 626.633 -1.23742 3.97484 0
M  V30 6699 H 627.166 0.461193 3.95118 0
M  V30 6700 H 623.905 2.65608 5.99277 0
M  V30 6701 H 623.425 0.944914 5.9231 0
M  V30 6702 H 625.104 1.38792 6.31938 0
M  V30 6703 N 625.236 -1.5273 0.388769 0
M  V30 6704 C 626.461 -2.0647 -0.19621 0
M  V30 6705 C 626.886 -1.25865 -1.39784 0
M  V30 6706 O 626.244 -0.283562 -1.79069 0
M  V30 6707 C 626.292 -3.56456 -0.5451 0
M  V30 6708 O 625.396 -3.78426 -1.63912 0
M  V30 6709 H 624.737 -0.663599 -0.023067 0
M  V30 6710 H 627.267 -1.96898 0.556084 0
M  V30 6711 H 627.277 -3.99888 -0.809557 0
M  V30 6712 H 625.952 -4.14561 0.333417 0
M  V30 6713 H 624.529 -3.46884 -1.36842 0
M  V30 6714 N 626.714 -0.118576 -1.57153 0
M  V30 6715 C 627.644 0.828436 -2.1831 0
M  V30 6716 C 628.625 1.27758 -1.12303 0
M  V30 6717 O 629.81 1.34026 -1.40537 0
M  V30 6718 C 626.94 2.07876 -2.78217 0
M  V30 6719 C 625.894 1.76742 -3.89803 0
M  V30 6720 C 625.22 3.08801 -4.36516 0
M  V30 6721 C 626.52 1.03606 -5.11921 0
M  V30 6722 H 628.214 0.318824 -2.97698 0
M  V30 6723 H 625.76 0.151911 -1.43196 0
M  V30 6724 H 627.713 2.74584 -3.19659 0
M  V30 6725 H 626.437 2.61161 -1.96118 0
M  V30 6726 H 625.096 1.12424 -3.48936 0
M  V30 6727 H 624.744 3.6002 -3.51276 0
M  V30 6728 H 624.444 2.88743 -5.11763 0
M  V30 6729 H 625.968 3.76627 -4.80608 0
M  V30 6730 H 627.382 1.60467 -5.50385 0
M  V30 6731 H 625.779 0.936454 -5.92748 0
M  V30 6732 H 626.849 0.0227421 -4.84895 0
M  V30 6733 N 628.193 1.56834 0.155195 0
M  V30 6734 C 629.103 2.009 1.21146 0
M  V30 6735 C 630.119 0.923029 1.475 0
M  V30 6736 O 631.295 1.23189 1.59331 0
M  V30 6737 C 628.36 2.37378 2.52691 0
M  V30 6738 C 627.421 3.59883 2.34057 0
M  V30 6739 C 626.654 3.94612 3.59329 0
M  V30 6740 O 626.877 3.30104 4.65175 0
M  V30 6741 O 625.811 4.87895 3.52479 0
M  V30 6742 H 629.637 2.9105 0.867371 0
M  V30 6743 H 627.222 1.44916 0.363298 0
M  V30 6744 H 629.104 2.61737 3.3026 0
M  V30 6745 H 627.779 1.50385 2.86646 0
M  V30 6746 H 626.686 3.40722 1.54465 0
M  V30 6747 H 628.019 4.47468 2.0502 0
M  V30 6748 N 629.671 -0.424282 1.51781 0
M  V30 6749 C 630.621 -1.51464 1.70419 0
M  V30 6750 C 631.605 -1.50911 0.558094 0
M  V30 6751 O 632.797 -1.57143 0.814552 0
M  V30 6752 C 629.926 -2.89539 1.84451 0
M  V30 6753 C 629.012 -2.94798 3.04886 0
M  V30 6754 N 629.403 -2.69778 4.27848 0
M  V30 6755 C 627.701 -3.25962 3.04408 0
M  V30 6756 C 628.402 -2.81216 5.09208 0
M  V30 6757 N 627.378 -3.13447 4.44131 0
M  V30 6758 H 631.18 -1.30892 2.63144 0
M  V30 6759 H 628.694 -0.631783 1.49607 0
M  V30 6760 H 630.691 -3.67998 1.95917 0
M  V30 6761 H 629.351 -3.11121 0.929168 0
M  V30 6762 H 630.362 -2.44458 4.56575 0
M  V30 6763 H 627.039 -3.53236 2.22555 0
M  V30 6764 H 628.429 -2.65715 6.17127 0
M  V30 6765 N 631.149 -1.42148 -0.680565 0
M  V30 6766 C 632.079 -1.4796 -1.80638 0
M  V30 6767 C 633.06 -0.336728 -1.66734 0
M  V30 6768 O 634.245 -0.550247 -1.86242 0
M  V30 6769 C 631.375 -1.37569 -3.18892 0
M  V30 6770 C 630.329 -2.49823 -3.47524 0
M  V30 6771 C 629.655 -2.24491 -4.85291 0
M  V30 6772 C 630.955 -3.92144 -3.44994 0
M  V30 6773 H 632.649 -2.42184 -1.76032 0
M  V30 6774 H 630.195 -1.16566 -0.845481 0
M  V30 6775 H 632.148 -1.40243 -3.97379 0
M  V30 6776 H 630.872 -0.398357 -3.24162 0
M  V30 6777 H 629.531 -2.46455 -2.71395 0
M  V30 6778 H 629.179 -1.25066 -4.87204 0
M  V30 6779 H 628.879 -2.99722 -5.05411 0
M  V30 6780 H 630.403 -2.28906 -5.66069 0
M  V30 6781 H 631.817 -3.97145 -4.13459 0
M  V30 6782 H 630.214 -4.67179 -3.76648 0
M  V30 6783 H 631.284 -4.19225 -2.43676 0
M  V30 6784 N 632.627 0.916307 -1.28225 0
M  V30 6785 C 633.873 1.66765 -1.154 0
M  V30 6786 C 634.206 1.91912 0.297251 0
M  V30 6787 O 633.481 1.51766 1.21644 0
M  V30 6788 C 633.764 3.02715 -1.95028 0
M  V30 6789 C 633.617 2.84738 -3.48201 0
M  V30 6790 C 634.936 4.03215 -1.76369 0
M  V30 6791 H 632.055 0.605205 -0.42059 0
M  V30 6792 H 634.697 1.06255 -1.57512 0
M  V30 6793 H 632.847 3.54365 -1.59242 0
M  V30 6794 H 634.519 2.40118 -3.9388 0
M  V30 6795 H 632.762 2.19848 -3.73964 0
M  V30 6796 H 633.433 3.8127 -3.99171 0
M  V30 6797 H 635.909 3.60617 -2.07593 0
M  V30 6798 H 634.785 4.96306 -2.34459 0
M  V30 6799 H 635.046 4.36288 -0.71452 0
M  V30 6800 N 634.105 1.10431 1.1244 0
M  V30 6801 C 635.354 0.841539 1.83306 0
M  V30 6802 C 635.667 -0.634961 1.85007 0
M  V30 6803 O 636.873 -1.01363 2.51869 0
M  V30 6804 C 635.329 1.45565 3.29149 0
M  V30 6805 C 634.937 2.96544 3.35806 0
M  V30 6806 C 636.681 1.27227 4.04986 0
M  V30 6807 C 634.588 3.5099 4.75983 0
M  V30 6808 H 633.518 0.311156 0.686803 0
M  V30 6809 H 636.169 1.32829 1.26604 0
M  V30 6810 H 634.551 0.896574 3.85717 0
M  V30 6811 H 635.725 3.58766 2.89177 0
M  V30 6812 H 634.04 3.14036 2.73442 0
M  V30 6813 H 636.637 1.65348 5.08492 0
M  V30 6814 H 636.98 0.213834 4.1575 0
M  V30 6815 H 637.513 1.79941 3.54776 0
M  V30 6816 H 634.252 4.56499 4.70413 0
M  V30 6817 H 633.772 2.93535 5.23065 0
M  V30 6818 H 635.451 3.48808 5.44924 0
M  V30 6819 N 635.583 -1.29855 0.893053 0
M  V30 6820 C 636.813 -1.99686 0.530019 0
M  V30 6821 C 637.221 -1.67066 -0.888012 0
M  V30 6822 O 636.564 -0.908366 -1.5967 0
M  V30 6823 C 636.626 -3.53855 0.63457 0
M  V30 6824 C 636.29 -4.10013 2.01837 0
M  V30 6825 C 637.287 -4.25406 2.98874 0
M  V30 6826 C 634.972 -4.45202 2.32595 0
M  V30 6827 C 636.966 -4.7521 4.24799 0
M  V30 6828 C 634.653 -4.94704 3.58763 0
M  V30 6829 C 635.651 -5.09662 4.5468 0
M  V30 6830 O 635.339 -5.58093 5.78608 0
M  V30 6831 H 635.071 -0.644913 0.20264 0
M  V30 6832 H 637.625 -1.66518 1.20253 0
M  V30 6833 H 635.855 -3.86583 -0.0949477 0
M  V30 6834 H 637.544 -4.04922 0.281648 0
M  V30 6835 H 638.31 -3.98515 2.76425 0
M  V30 6836 H 634.189 -4.32822 1.58701 0
M  V30 6837 H 637.733 -4.86801 4.99671 0
M  V30 6838 H 633.63 -5.21032 3.81046 0
M  V30 6839 H 634.398 -5.7642 5.81104 0
M  V30 6840 N 637.061 -0.65484 -1.43351 0
M  V30 6841 C 638.477 -0.32255 -1.56307 0
M  V30 6842 C 638.677 1.17324 -1.63821 0
M  V30 6843 O 637.733 1.95813 -1.59417 0
M  V30 6844 C 639.046 -1.03533 -2.82314 0
M  V30 6845 C 640.594 -1.01574 -2.9606 0
M  V30 6846 C 641.069 -1.70945 -4.24902 0
M  V30 6847 N 642.56 -1.67716 -4.3177 0
M  V30 6848 C 643.295 -2.18265 -5.30234 0
M  V30 6849 N 642.791 -2.7711 -6.34966 0
M  V30 6850 N 644.584 -2.08756 -5.21898 0
M  V30 6851 H 636.735 -1.62549 -1.36717 0
M  V30 6852 H 638.998 -0.683676 -0.656727 0
M  V30 6853 H 638.704 -2.09045 -2.8283 0
M  V30 6854 H 638.578 -0.587913 -3.7259 0
M  V30 6855 H 640.965 0.0309834 -2.95084 0
M  V30 6856 H 641.046 -1.50186 -2.07069 0
M  V30 6857 H 640.69 -2.75574 -4.26639 0
M  V30 6858 H 640.62 -1.19797 -5.12793 0
M  V30 6859 H 643.111 -1.24777 -3.56706 0
M  V30 6860 H 643.424 -3.13353 -7.06421 0
M  V30 6861 H 641.769 -2.81171 -6.35585 0
M  V30 6862 H 644.96 -1.62488 -4.38994 0
M  V30 6863 H 645.133 -2.48459 -5.98475 0
M  V30 6864 N 638.539 1.52521 -0.396863 0
M  V30 6865 C 639.788 2.00857 0.184184 0
M  V30 6866 C 640.101 1.28733 1.47265 0
M  V30 6867 O 641.307 1.67821 2.13421 0
M  V30 6868 C 639.763 3.57901 0.378787 0
M  V30 6869 C 639.371 4.38931 -0.896873 0
M  V30 6870 C 641.115 4.14504 0.915789 0
M  V30 6871 C 639.022 5.87591 -0.670133 0
M  V30 6872 H 637.952 0.750496 0.0726055 0
M  V30 6873 H 640.603 1.75965 -0.520425 0
M  V30 6874 H 638.985 3.79072 1.14543 0
M  V30 6875 H 640.159 4.29524 -1.66872 0
M  V30 6876 H 638.474 3.93586 -1.35938 0
M  V30 6877 H 641.071 5.23236 1.10126 0
M  V30 6878 H 641.414 3.71076 1.88701 0
M  V30 6879 H 641.947 3.97253 0.208523 0
M  V30 6880 H 638.686 6.35355 -1.61257 0
M  V30 6881 H 638.206 5.99767 0.0626368 0
M  V30 6882 H 639.885 6.46268 -0.307577 0
M  V30 6883 N 640.017 0.126909 1.57088 0
M  V30 6884 C 640.98 -0.806097 2.14557 0
M  V30 6885 C 641.98 -1.18918 1.08236 0
M  V30 6886 O 643.17 -1.11339 1.33975 0
M  V30 6887 C 640.302 -2.09116 2.69227 0
M  V30 6888 H 641.495 -0.306522 2.98329 0
M  V30 6889 H 639.048 -0.122393 1.5582 0
M  V30 6890 H 639.783 -2.63486 1.89065 0
M  V30 6891 H 639.568 -1.82588 3.46993 0
M  V30 6892 H 641.058 -2.75794 3.13572 0
M  V30 6893 N 641.495 -1.56914 -0.146875 0
M  V30 6894 C 642.428 -1.93425 -1.21087 0
M  V30 6895 C 643.406 -0.800106 -1.41552 0
M  V30 6896 O 644.59 -1.05572 -1.56162 0
M  V30 6897 C 641.717 -2.20639 -2.56975 0
M  V30 6898 C 640.763 -3.43279 -2.53104 0
M  V30 6899 S 641.596 -4.96836 -1.99786 0
M  V30 6900 C 642.752 -5.27172 -3.37403 0
M  V30 6901 H 642.985 -2.8337 -0.899378 0
M  V30 6902 H 640.518 -1.50322 -0.352494 0
M  V30 6903 H 642.476 -2.36998 -3.35175 0
M  V30 6904 H 641.137 -1.31357 -2.85314 0
M  V30 6905 H 640.33 -3.59599 -3.53136 0
M  V30 6906 H 639.932 -3.26163 -1.83012 0
M  V30 6907 H 642.224 -5.20647 -4.33513 0
M  V30 6908 H 643.167 -6.28626 -3.25937 0
M  V30 6909 H 643.575 -4.54687 -3.34544 0
M  V30 6910 N 642.974 0.416227 -1.52004 0
M  V30 6911 C 644.214 1.17307 -1.67387 0
M  V30 6912 C 644.578 1.87959 -0.39183 0
M  V30 6913 O 645.779 2.65472 -0.421671 0
M  V30 6914 C 644.05 2.14661 -2.85754 0
M  V30 6915 S 645.609 2.98549 -3.21581 0
M  V30 6916 H 642.427 0.397505 -0.5895 0
M  V30 6917 H 645.029 0.461431 -1.89976 0
M  V30 6918 H 643.733 1.61431 -3.77317 0
M  V30 6919 H 643.264 2.90375 -2.65417 0
M  V30 6920 H 645.279 4.16536 -2.69652 0
M  V30 6921 N 644.452 1.42507 0.673017 0
M  V30 6922 C 645.399 1.46124 1.78651 0
M  V30 6923 C 646.369 0.313007 1.63124 0
M  V30 6924 O 647.554 0.517337 1.83653 0
M  V30 6925 C 644.694 1.3711 3.16694 0
M  V30 6926 C 643.807 2.61983 3.43495 0
M  V30 6927 C 642.942 2.45098 4.71275 0
M  V30 6928 C 641.981 3.65336 4.91117 0
M  V30 6929 N 641.118 3.47383 6.10139 0
M  V30 6930 H 645.958 2.4128 1.74895 0
M  V30 6931 H 643.495 1.19788 0.853766 0
M  V30 6932 H 645.453 1.29881 3.96468 0
M  V30 6933 H 644.083 0.45549 3.1957 0
M  V30 6934 H 643.135 2.79571 2.57961 0
M  V30 6935 H 644.447 3.51355 3.5405 0
M  V30 6936 H 643.601 2.35466 5.59143 0
M  V30 6937 H 642.34 1.53219 4.63007 0
M  V30 6938 H 641.345 3.754 4.0169 0
M  V30 6939 H 642.57 4.58199 5.01229 0
M  V30 6940 H 640.516 2.58222 6.0304 0
M  V30 6941 H 640.433 4.30344 6.21563 0
M  V30 6942 H 641.701 3.41565 7.00681 0
M  V30 6943 N 645.93 -0.909495 1.28709 0
M  V30 6944 C 647.341 -1.47419 1.14563 0
M  V30 6945 C 647.692 -1.94432 -0.262832 0
M  V30 6946 O 646.817 -1.82842 -1.15748 0
M  V30 6947 C 647.412 -2.67933 2.07358 0
M  V30 6948 C 645.971 -3.20568 1.97264 0
M  V30 6949 C 645.118 -1.93269 1.98852 0
M  V30 6950 H 648.069 -0.721787 1.41336 0
M  V30 6951 H 648.09 -3.43339 1.64007 0
M  V30 6952 H 647.602 -2.33685 3.09859 0
M  V30 6953 H 645.703 -3.59531 0.978157 0
M  V30 6954 H 645.816 -3.85529 2.84436 0
M  V30 6955 H 644.18 -2.10553 1.43317 0
M  V30 6956 H 644.963 -1.61312 3.0304 0
M  V30 6957 N 647.408 -1.11026 -1.11852 0
M  V30 6958 C 648.654 -0.857729 -1.83768 0
M  V30 6959 C 648.987 0.615143 -1.842 0
M  V30 6960 O 648.262 1.45391 -1.29196 0
M  V30 6961 C 648.545 -1.41453 -3.31154 0
M  V30 6962 C 648.398 -2.95471 -3.39142 0
M  V30 6963 C 649.717 -1.0619 -4.27097 0
M  V30 6964 H 646.836 -0.313044 -0.667212 0
M  V30 6965 H 649.478 -1.37443 -1.31185 0
M  V30 6966 H 647.628 -0.975052 -3.76065 0
M  V30 6967 H 649.3 -3.4799 -3.02821 0
M  V30 6968 H 647.543 -3.31759 -2.79497 0
M  V30 6969 H 648.214 -3.29515 -4.42859 0
M  V30 6970 H 650.69 -1.44122 -3.90344 0
M  V30 6971 H 649.566 -1.47832 -5.28618 0
M  V30 6972 H 649.827 0.0278912 -4.42091 0
M  V30 6973 N 648.886 1.2938 -0.899927 0
M  V30 6974 C 649.819 2.25911 -0.322386 0
M  V30 6975 C 650.797 1.52447 0.565567 0
M  V30 6976 O 651.981 1.81404 0.512324 0
M  V30 6977 C 649.108 3.3436 0.540455 0
M  V30 6978 C 648.154 4.25579 -0.280211 0
M  V30 6979 S 648.987 5.08526 -1.67814 0
M  V30 6980 C 650.143 6.20476 -0.822224 0
M  V30 6981 H 650.376 2.7455 -1.1406 0
M  V30 6982 H 647.909 1.37606 -0.700285 0
M  V30 6983 H 649.867 3.97303 1.0325 0
M  V30 6984 H 648.528 2.84416 1.33291 0
M  V30 6985 H 647.721 5.02574 0.378915 0
M  V30 6986 H 647.323 3.67287 -0.705405 0
M  V30 6987 H 649.615 6.77485 -0.0457138 0
M  V30 6988 H 650.558 6.90606 -1.56426 0
M  V30 6989 H 650.966 5.63243 -0.37651 0
M  V30 6990 N 650.364 0.662433 1.43002 0
M  V30 6991 C 651.594 0.187343 2.05749 0
M  V30 6992 C 652.002 -1.15582 1.49791 0
M  V30 6993 O 651.345 -1.72651 0.627487 0
M  V30 6994 C 651.407 0.0316493 3.59486 0
M  V30 6995 C 651.071 1.30156 4.38073 0
M  V30 6996 C 652.068 2.23234 4.69535 0
M  V30 6997 C 649.753 1.54572 4.77926 0
M  V30 6998 C 651.747 3.39012 5.39768 0
M  V30 6999 C 649.434 2.70641 5.47902 0
M  V30 7000 C 650.432 3.62687 5.78746 0
M  V30 7001 O 650.12 4.76728 6.47291 0
M  V30 7002 H 649.852 0.0915214 0.669776 0
M  V30 7003 H 652.406 0.905982 1.8434 0
M  V30 7004 H 650.636 -0.742451 3.79506 0
M  V30 7005 H 652.325 -0.401977 4.03905 0
M  V30 7006 H 653.091 2.05616 4.39257 0
M  V30 7007 H 648.97 0.83804 4.53319 0
M  V30 7008 H 652.514 4.10877 5.63761 0
M  V30 7009 H 648.411 2.88189 5.77596 0
M  V30 7010 H 649.179 4.76113 6.65777 0
M  V30 7011 N 651.842 -1.52309 0.404946 0
M  V30 7012 C 652.789 -2.26898 -0.422597 0
M  V30 7013 C 653.759 -1.2914 -1.04461 0
M  V30 7014 O 654.944 -1.57996 -1.06967 0
M  V30 7015 C 652.084 -3.09053 -1.53559 0
M  V30 7016 C 651.197 -4.21762 -0.934908 0
M  V30 7017 C 650.332 -4.91283 -2.02025 0
M  V30 7018 C 649.371 -5.95962 -1.39628 0
M  V30 7019 N 648.508 -6.59017 -2.42159 0
M  V30 7020 H 653.348 -2.97188 0.219903 0
M  V30 7021 H 650.885 -1.46607 0.120282 0
M  V30 7022 H 652.843 -3.54987 -2.19181 0
M  V30 7023 H 651.473 -2.40942 -2.14818 0
M  V30 7024 H 650.525 -3.80029 -0.167854 0
M  V30 7025 H 651.837 -4.96864 -0.439073 0
M  V30 7026 H 650.991 -5.40601 -2.75383 0
M  V30 7027 H 649.73 -4.15741 -2.54973 0
M  V30 7028 H 648.735 -5.45968 -0.648023 0
M  V30 7029 H 649.96 -6.73445 -0.874553 0
M  V30 7030 H 647.906 -5.86306 -2.94247 0
M  V30 7031 H 647.823 -7.2978 -1.97376 0
M  V30 7032 H 649.091 -7.12974 -3.15099 0
M  V30 7033 N 653.32 -0.135238 -1.57019 0
M  V30 7034 C 654.268 0.826099 -2.17436 0
M  V30 7035 C 655.262 1.26378 -1.12805 0
M  V30 7036 O 656.468 1.23363 -1.31079 0
M  V30 7037 H 652.843 0.284568 -0.696078 0
M  V30 7038 H 654.814 0.292212 -2.96966 0
M  V30 7039 C 653.563 2.05991 -2.80112 0
M  V30 7040 H 652.886 1.73209 -3.60331 0
M  V30 7041 H 654.326 2.71225 -3.25903 0
M  V30 7042 C 652.785 2.86027 -1.78017 0
M  V30 7043 O 653.315 3.81971 -1.24344 0
M  V30 7044 N 651.521 2.50332 -1.47588 0
M  V30 7045 H 651.068 1.72377 -1.91426 0
M  V30 7046 H 651.026 3.04177 -0.795228 0
M  V30 7047 N 654.798 1.5699 0.138552 0
M  V30 7048 C 656.026 1.87976 0.864437 0
M  V30 7049 C 656.441 0.724372 1.74351 0
M  V30 7050 O 655.798 -0.305575 1.79924 0
M  V30 7051 C 655.849 3.18276 1.71414 0
M  V30 7052 O 655.57 4.29365 0.870487 0
M  V30 7053 C 657.071 3.62834 2.54688 0
M  V30 7054 H 654.291 0.622878 0.249528 0
M  V30 7055 H 656.835 2.04094 0.128805 0
M  V30 7056 H 654.99 3.03886 2.40274 0
M  V30 7057 H 655.404 5.03924 1.45466 0
M  V30 7058 H 656.878 4.5682 3.0987 0
M  V30 7059 H 657.355 2.88533 3.31127 0
M  V30 7060 H 657.961 3.79946 1.91105 0
M  V30 7061 N 656.276 -0.40816 1.52223 0
M  V30 7062 C 657.524 -1.15274 1.66001 0
M  V30 7063 C 657.845 -1.91003 0.392803 0
M  V30 7064 O 657.115 -1.8673 -0.592336 0
M  V30 7065 H 655.695 -0.428526 0.611861 0
M  V30 7066 H 658.357 -0.46512 1.89269 0
M  V30 7067 H 657.453 -1.86628 2.50153 0
M  V30 7068 N 657.755 -1.42862 -0.66545 0
M  V30 7069 C 658.702 -1.4707 -1.77874 0
M  V30 7070 C 659.672 -0.321654 -1.62956 0
M  V30 7071 O 660.857 -0.52707 -1.83376 0
M  V30 7072 C 657.997 -1.38788 -3.15962 0
M  V30 7073 C 657.11 -2.63801 -3.42101 0
M  V30 7074 C 656.245 -2.47594 -4.69969 0
M  V30 7075 C 655.284 -3.67936 -4.89172 0
M  V30 7076 N 654.421 -3.50614 -6.08288 0
M  V30 7077 H 659.261 -2.42204 -1.73613 0
M  V30 7078 H 656.798 -1.20239 -0.847401 0
M  V30 7079 H 658.756 -1.31982 -3.95773 0
M  V30 7080 H 657.386 -0.472431 -3.19324 0
M  V30 7081 H 656.438 -2.80935 -2.56475 0
M  V30 7082 H 657.75 -3.53228 -3.52181 0
M  V30 7083 H 656.904 -2.38427 -5.57886 0
M  V30 7084 H 655.643 -1.55672 -4.62188 0
M  V30 7085 H 654.648 -3.77525 -3.99694 0
M  V30 7086 H 655.873 -4.60851 -4.98792 0
M  V30 7087 H 653.819 -2.61417 -6.01662 0
M  V30 7088 H 653.736 -4.33634 -6.19272 0
M  V30 7089 H 655.004 -3.45276 -6.98859 0
M  V30 7090 N 659.233 0.902656 -1.29189 0
M  V30 7091 C 660.458 1.69167 -1.19989 0
M  V30 7092 C 660.883 1.86607 0.236495 0
M  V30 7093 O 660.241 1.38425 1.17082 0
M  V30 7094 C 660.289 3.05532 -1.91527 0
M  V30 7095 O 659.393 3.93621 -1.2303 0
M  V30 7096 H 658.734 0.517584 -0.415936 0
M  V30 7097 H 661.264 1.12785 -1.70706 0
M  V30 7098 H 661.274 3.55693 -1.99866 0
M  V30 7099 H 659.949 2.92156 -2.96003 0
M  V30 7100 H 658.526 3.52055 -1.22928 0
M  V30 7101 N 660.711 1.11618 1.11262 0
M  V30 7102 C 661.621 0.78898 2.20935 0
M  V30 7103 C 662.637 -0.21867 1.7262 0
M  V30 7104 O 663.813 -0.0543826 2.01327 0
M  V30 7105 C 660.878 0.239014 3.45875 0
M  V30 7106 C 659.939 1.3055 4.08968 0
M  V30 7107 C 659.172 0.781687 5.27944 0
M  V30 7108 O 659.395 -0.387605 5.69082 0
M  V30 7109 O 658.329 1.54734 5.81671 0
M  V30 7110 H 662.155 1.70477 2.51339 0
M  V30 7111 H 659.74 0.892203 1.19834 0
M  V30 7112 H 661.622 -0.0632312 4.21353 0
M  V30 7113 H 660.297 -0.649454 3.17118 0
M  V30 7114 H 659.204 1.66079 3.35214 0
M  V30 7115 H 660.537 2.16743 4.41909 0
M  V30 7116 N 662.189 -1.289 0.906776 0
M  V30 7117 C 663.121 -2.26556 0.347159 0
M  V30 7118 C 664.134 -1.54589 -0.51049 0
M  V30 7119 O 665.323 -1.75489 -0.326501 0
M  V30 7120 C 662.423 -3.3484 -0.523024 0
M  V30 7121 C 661.596 -4.36296 0.310515 0
M  V30 7122 C 660.655 -5.23879 -0.493634 0
M  V30 7123 O 659.681 -5.69127 0.0913569 0
M  V30 7124 N 660.883 -5.51946 -1.7982 0
M  V30 7125 H 663.648 -2.75212 1.18652 0
M  V30 7126 H 661.209 -1.42309 0.771996 0
M  V30 7127 H 663.201 -3.90366 -1.06756 0
M  V30 7128 H 661.771 -2.85946 -1.26309 0
M  V30 7129 H 660.991 -3.80331 1.03644 0
M  V30 7130 H 662.279 -5.01113 0.881106 0
M  V30 7131 H 661.677 -5.17006 -2.2961 0
M  V30 7132 H 660.234 -6.10258 -2.28971 0
M  V30 7133 N 663.667 -0.670007 -1.42649 0
M  V30 7134 C 664.907 -0.194106 -2.03476 0
M  V30 7135 C 665.271 1.1755 -1.51809 0
M  V30 7136 O 666.472 1.74579 -2.04391 0
M  V30 7137 C 664.743 -0.221828 -3.56711 0
M  V30 7138 S 666.302 0.183772 -4.38415 0
M  V30 7139 H 663.12 -0.0802478 -0.706457 0
M  V30 7140 H 665.722 -0.882092 -1.74469 0
M  V30 7141 H 664.426 -1.22107 -3.91814 0
M  V30 7142 H 663.957 0.486149 -3.90385 0
M  V30 7143 H 665.972 1.41839 -4.75496 0
M  V30 7144 N 665.145 1.52092 -0.413018 0
M  V30 7145 C 666.394 2.01041 0.16287 0
M  V30 7146 C 666.707 1.30288 1.45892 0
M  V30 7147 O 667.913 1.70075 2.11629 0
M  V30 7148 C 666.369 3.58283 0.340806 0
M  V30 7149 C 665.977 4.37955 -0.943377 0
M  V30 7150 C 667.721 4.15452 0.871774 0
M  V30 7151 C 665.628 5.86847 -0.732417 0
M  V30 7152 H 664.558 0.751224 0.0646414 0
M  V30 7153 H 667.209 1.75404 -0.539059 0
M  V30 7154 H 665.591 3.80266 1.10516 0
M  V30 7155 H 666.765 4.2773 -1.71418 0
M  V30 7156 H 665.08 3.92122 -1.40105 0
M  V30 7157 H 667.677 5.24375 1.0457 0
M  V30 7158 H 668.02 3.73057 1.84755 0
M  V30 7159 H 668.553 3.97452 0.166377 0
M  V30 7160 H 665.292 6.33609 -1.67986 0
M  V30 7161 H 664.812 5.998 -0.000980058 0
M  V30 7162 H 666.491 6.45906 -0.376105 0
M  V30 7163 N 666.623 0.143563 1.56945 0
M  V30 7164 C 667.872 -0.50835 1.95189 0
M  V30 7165 C 668.185 -1.66239 1.03073 0
M  V30 7166 O 669.391 -2.3787 1.30882 0
M  V30 7167 C 667.847 -0.955735 3.46978 0
M  V30 7168 C 667.455 0.171183 4.47673 0
M  V30 7169 C 669.199 -1.57763 3.94095 0
M  V30 7170 C 667.106 -0.294279 5.90667 0
M  V30 7171 H 666.036 -0.193679 0.728701 0
M  V30 7172 H 668.687 0.227357 1.82086 0
M  V30 7173 H 667.069 -1.7466 3.55401 0
M  V30 7174 H 668.243 0.948049 4.50942 0
M  V30 7175 H 666.558 0.701273 4.10452 0
M  V30 7176 H 669.155 -1.93745 4.98364 0
M  V30 7177 H 669.498 -2.46531 3.35452 0
M  V30 7178 H 670.031 -0.851728 3.88575 0
M  V30 7179 H 666.77 0.557939 6.53121 0
M  V30 7180 H 666.29 -1.0371 5.90766 0
M  V30 7181 H 667.969 -0.747426 6.42668 0
M  V30 7182 N 668.101 -1.57061 -0.130224 0
M  V30 7183 C 669.347 -1.8453 -0.841216 0
M  V30 7184 C 669.68 -0.727666 -1.80052 0
M  V30 7185 O 668.955 0.267419 -1.92653 0
M  V30 7186 C 669.238 -3.22553 -1.60099 0
M  V30 7187 C 669.091 -4.44901 -0.662048 0
M  V30 7188 C 670.41 -3.58003 -2.55973 0
M  V30 7189 H 667.529 -0.671215 -0.304366 0
M  V30 7190 H 670.171 -1.89705 -0.105821 0
M  V30 7191 H 668.321 -3.18272 -2.22789 0
M  V30 7192 H 669.993 -4.61278 -0.0448559 0
M  V30 7193 H 668.236 -4.33791 0.0272253 0
M  V30 7194 H 668.907 -5.3812 -1.23006 0
M  V30 7195 H 671.383 -3.63002 -2.03393 0
M  V30 7196 H 670.259 -4.55576 -3.06172 0
M  V30 7197 H 670.52 -2.84833 -3.38116 0
M  V30 7198 N 669.579 0.400081 -1.52437 0
M  V30 7199 C 670.527 1.50851 -1.7705 0
M  V30 7200 C 671.521 1.56928 -0.637969 0
M  V30 7201 O 672.727 1.60226 -0.820212 0
M  V30 7202 H 669.102 0.50186 -0.560036 0
M  V30 7203 H 671.073 1.27281 -2.69893 0
M  V30 7204 C 669.822 2.88117 -1.94638 0
M  V30 7205 H 669.145 2.84187 -2.81208 0
M  V30 7206 H 670.585 3.64942 -2.15855 0
M  V30 7207 C 669.044 3.29206 -0.715899 0
M  V30 7208 O 669.574 4.01544 0.111944 0
M  V30 7209 N 667.78 2.85363 -0.549191 0
M  V30 7210 H 667.327 2.26664 -1.22397 0
M  V30 7211 H 667.285 3.13214 0.27278 0
M  V30 7212 N 671.057 1.43213 0.657864 0
M  V30 7213 C 672.005 1.48271 1.79216 0
M  V30 7214 C 672.999 0.35675 1.65601 0
M  V30 7215 O 674.205 0.530535 1.72004 0
M  V30 7216 H 670.58 0.464729 0.591211 0
M  V30 7217 H 672.551 2.43792 1.7207 0
M  V30 7218 C 671.3 1.41837 3.17455 0
M  V30 7219 H 670.623 2.27781 3.28567 0
M  V30 7220 H 672.063 1.49438 3.96793 0
M  V30 7221 C 670.522 0.135347 3.36628 0
M  V30 7222 O 671.052 -0.805199 3.93547 0
M  V30 7223 N 669.258 0.0470316 2.90562 0
M  V30 7224 H 668.805 0.813221 2.44427 0
M  V30 7225 H 668.763 -0.810737 3.03767 0
M  V30 7226 N 672.536 -0.895792 1.29666 0
M  V30 7227 C 673.446 -2.03329 1.17024 0
M  V30 7228 C 674.462 -1.73753 0.0925962 0
M  V30 7229 O 675.638 -1.99071 0.305431 0
M  V30 7230 C 672.703 -3.36072 0.851841 0
M  V30 7231 C 671.764 -3.7914 2.01373 0
M  V30 7232 C 670.997 -5.05549 1.71043 0
M  V30 7233 O 671.22 -5.66874 0.633213 0
M  V30 7234 O 670.154 -5.44764 2.5596 0
M  V30 7235 H 673.98 -2.16918 2.12556 0
M  V30 7236 H 671.565 -1.02007 1.09156 0
M  V30 7237 H 673.447 -4.15729 0.689006 0
M  V30 7238 H 672.122 -3.23616 -0.0736634 0
M  V30 7239 H 671.029 -3.00233 2.23183 0
M  V30 7240 H 672.362 -3.96186 2.92058 0
M  V30 7241 N 674.014 -1.12206 -1.10668 0
M  V30 7242 C 675.291 -0.787382 -1.79052 0
M  V30 7243 C 675.671 0.723267 -1.98323 0
M  V30 7244 O 675.019 1.6561 -1.57434 0
M  V30 7245 C 675.229 -1.55968 -3.1221 0
M  V30 7246 C 676.577 -1.74413 -3.87125 0
M  V30 7247 O 677.601 -1.5246 -3.21923 0
M  V30 7248 O 676.46 -2.10952 -5.04144 0
M  V30 7249 H 673.554 -0.286137 -0.775922 0
M  V30 7250 H 676.1 -1.22595 -1.1734 0
M  V30 7251 H 674.872 -2.58692 -2.93588 0
M  V30 7252 H 674.495 -1.1152 -3.8164 0
M  V30 7253 N 675.492 1.28418 -0.913599 0
M  V30 7254 C 676.422 2.29713 -0.418847 0
M  V30 7255 C 677.403 1.62165 0.513469 0
M  V30 7256 O 678.588 1.89576 0.421235 0
M  V30 7257 C 675.718 3.45612 0.342042 0
M  V30 7258 C 674.672 4.25056 -0.501123 0
M  V30 7259 C 673.998 5.3329 0.388097 0
M  V30 7260 C 675.298 4.91814 -1.75831 0
M  V30 7261 H 676.992 2.71346 -1.26538 0
M  V30 7262 H 674.538 1.30446 -0.609903 0
M  V30 7263 H 676.491 4.15562 0.699 0
M  V30 7264 H 675.215 3.02858 1.22248 0
M  V30 7265 H 673.874 3.56833 -0.840598 0
M  V30 7266 H 673.522 4.8678 1.26707 0
M  V30 7267 H 673.222 5.87347 -0.172459 0
M  V30 7268 H 674.746 6.06088 0.74094 0
M  V30 7269 H 676.16 5.54126 -1.47026 0
M  V30 7270 H 674.557 5.55866 -2.26126 0
M  V30 7271 H 675.627 4.16313 -2.4862 0
M  V30 7272 N 676.97 0.677563 1.42291 0
M  V30 7273 C 678.217 0.200975 2.015 0
M  V30 7274 C 678.545 -1.19342 1.53583 0
M  V30 7275 O 677.8 -1.81579 0.7299 0
M  V30 7276 C 678.099 0.187229 3.56909 0
M  V30 7277 C 677.765 1.52667 4.24268 0
M  V30 7278 C 676.427 1.89341 4.42384 0
M  V30 7279 C 678.779 2.40869 4.62203 0
M  V30 7280 C 676.107 3.13836 4.95705 0
M  V30 7281 C 678.459 3.64679 5.16906 0
M  V30 7282 C 677.123 4.01519 5.33234 0
M  V30 7283 H 676.393 0.0735418 0.737342 0
M  V30 7284 H 679.04 0.873095 1.70439 0
M  V30 7285 H 677.345 -0.568407 3.87655 0
M  V30 7286 H 679.042 -0.198773 4.00507 0
M  V30 7287 H 675.632 1.23138 4.1053 0
M  V30 7288 H 679.816 2.1382 4.47878 0
M  V30 7289 H 675.072 3.42396 5.06532 0
M  V30 7290 H 679.246 4.33224 5.45243 0
M  V30 7291 H 676.873 4.98062 5.74316 0
M  V30 7292 N 678.448 -1.51871 0.421078 0
M  V30 7293 C 679.695 -2.01938 -0.15079 0
M  V30 7294 C 680.023 -1.30611 -1.44121 0
M  V30 7295 O 679.278 -0.404631 -1.91471 0
M  V30 7296 C 679.577 -3.54764 -0.433292 0
M  V30 7297 C 679.243 -4.44288 0.76936 0
M  V30 7298 C 677.905 -4.68477 1.09921 0
M  V30 7299 C 680.257 -4.96915 1.57242 0
M  V30 7300 C 677.585 -5.4254 2.2331 0
M  V30 7301 C 679.937 -5.7222 2.69716 0
M  V30 7302 C 678.601 -5.94678 3.03174 0
M  V30 7303 H 677.871 -0.738943 -0.0551781 0
M  V30 7304 H 680.518 -1.82977 0.564945 0
M  V30 7305 H 678.823 -3.71968 -1.23074 0
M  V30 7306 H 680.52 -3.91023 -0.888922 0
M  V30 7307 H 677.11 -4.25646 0.502305 0
M  V30 7308 H 681.294 -4.78125 1.3308 0
M  V30 7309 H 676.55 -5.58146 2.49565 0
M  V30 7310 H 680.724 -6.11992 3.32323 0
M  V30 7311 H 678.351 -6.51848 3.9115 0
M  V30 7312 N 679.926 -0.151884 -1.56866 0
M  V30 7313 C 681.175 0.497992 -1.95456 0
M  V30 7314 C 681.488 1.6569 -1.03953 0
M  V30 7315 O 682.694 2.37173 -1.32142 0
M  V30 7316 C 681.15 0.93732 -3.4748 0
M  V30 7317 C 680.758 -0.194921 -4.47576 0
M  V30 7318 C 682.502 1.55671 -3.94926 0
M  V30 7319 C 680.409 0.26295 -5.90815 0
M  V30 7320 H 679.339 0.189811 -0.729717 0
M  V30 7321 H 681.99 -0.237011 -1.81963 0
M  V30 7322 H 680.372 1.72773 -3.56322 0
M  V30 7323 H 681.546 -0.971951 -4.50433 0
M  V30 7324 H 679.861 -0.72303 -4.10075 0
M  V30 7325 H 682.458 1.91099 -4.99385 0
M  V30 7326 H 682.801 2.44748 -3.36755 0
M  V30 7327 H 683.334 0.831109 -3.89021 0
M  V30 7328 H 680.073 -0.592568 -6.52816 0
M  V30 7329 H 679.593 1.00575 -5.91308 0
M  V30 7330 H 681.272 0.713333 -6.43056 0
M  V30 7331 N 681.404 1.57128 0.121893 0
M  V30 7332 C 682.367 1.99197 1.13372 0
M  V30 7333 C 683.367 0.881728 1.3447 0
M  V30 7334 O 684.557 1.14783 1.31036 0
M  V30 7335 C 681.689 2.32963 2.4888 0
M  V30 7336 H 682.882 2.89788 0.772204 0
M  V30 7337 H 680.435 1.51952 0.366093 0
M  V30 7338 H 681.17 1.45243 2.89957 0
M  V30 7339 H 680.955 3.13934 2.34921 0
M  V30 7340 H 682.445 2.66261 3.21706 0
M  V30 7341 N 682.882 -0.391992 1.52647 0
M  V30 7342 C 683.83 -1.4991 1.77848 0
M  V30 7343 C 684.824 -1.56587 0.646282 0
M  V30 7344 O 686.03 -1.59789 0.828698 0
M  V30 7345 H 682.405 -0.498883 0.56269 0
M  V30 7346 H 684.376 -1.25847 2.70564 0
M  V30 7347 C 683.125 -2.87081 1.96163 0
M  V30 7348 H 682.448 -2.82692 2.82711 0
M  V30 7349 H 683.888 -3.63792 2.17787 0
M  V30 7350 C 682.347 -3.28822 0.733348 0
M  V30 7351 O 682.877 -4.01598 -0.0906481 0
M  V30 7352 N 681.083 -2.85068 0.564317 0
M  V30 7353 H 680.63 -2.26012 1.23598 0
M  V30 7354 H 680.588 -3.13355 -0.256166 0
M  V30 7355 N 684.36 -1.4356 -0.65026 0
M  V30 7356 C 685.307 -1.48948 -1.76304 0
M  V30 7357 C 686.277 -0.338919 -1.62605 0
M  V30 7358 O 687.462 -0.54649 -1.82806 0
M  V30 7359 C 684.602 -1.42131 -3.14472 0
M  V30 7360 C 683.715 -2.67415 -3.39284 0
M  V30 7361 C 682.85 -2.52565 -4.67316 0
M  V30 7362 C 681.889 -3.73103 -4.85243 0
M  V30 7363 N 681.026 -3.57046 -6.04535 0
M  V30 7364 H 685.866 -2.44032 -1.71034 0
M  V30 7365 H 683.403 -1.21131 -0.834601 0
M  V30 7366 H 685.361 -1.36172 -3.94351 0
M  V30 7367 H 683.991 -0.506273 -3.18805 0
M  V30 7368 H 683.043 -2.8364 -2.53481 0
M  V30 7369 H 684.355 -3.56943 -3.48415 0
M  V30 7370 H 683.509 -2.44331 -5.55326 0
M  V30 7371 H 682.248 -1.60566 -4.60511 0
M  V30 7372 H 681.253 -3.81743 -3.95667 0
M  V30 7373 H 682.478 -4.66115 -4.93876 0
M  V30 7374 H 680.424 -2.67783 -5.98856 0
M  V30 7375 H 680.341 -4.40178 -6.14638 0
M  V30 7376 H 681.609 -3.52669 -6.95158 0
M  V30 7377 N 685.838 0.888903 -1.30139 0
M  V30 7378 C 687.115 1.62145 -1.094 0
M  V30 7379 C 687.495 2.08041 0.358091 0
M  V30 7380 O 686.843 1.84438 1.34888 0
M  V30 7381 C 687.053 2.794 -2.09133 0
M  V30 7382 C 688.401 3.49826 -2.40638 0
M  V30 7383 O 689.425 2.89583 -2.07412 0
M  V30 7384 O 688.284 4.58457 -2.97455 0
M  V30 7385 H 685.378 0.712475 -0.41989 0
M  V30 7386 H 687.924 0.936023 -1.41551 0
M  V30 7387 H 686.696 2.42762 -3.06891 0
M  V30 7388 H 686.319 3.55643 -1.77776 0
M  V30 7389 N 687.317 1.12792 1.10072 0
M  V30 7390 C 688.542 0.908838 1.86427 0
M  V30 7391 C 688.967 -0.536793 1.80278 0
M  V30 7392 O 688.325 -1.38033 1.17543 0
M  V30 7393 C 688.373 1.39295 3.3261 0
M  V30 7394 O 687.477 0.573846 4.08388 0
M  V30 7395 H 686.818 0.326234 0.578331 0
M  V30 7396 H 689.348 1.50094 1.39043 0
M  V30 7397 H 689.358 1.39366 3.83459 0
M  V30 7398 H 688.033 2.44555 3.36401 0
M  V30 7399 H 686.61 0.640438 3.67359 0
M  V30 7400 N 688.795 -1.27931 0.920396 0
M  V30 7401 C 690.042 -1.94689 0.557007 0
M  V30 7402 C 690.37 -1.724 -0.900476 0
M  V30 7403 O 689.625 -1.04194 -1.65657 0
M  V30 7404 C 689.924 -3.47853 0.820558 0
M  V30 7405 C 689.59 -3.90252 2.25863 0
M  V30 7406 C 688.252 -4.01539 2.65179 0
M  V30 7407 C 690.604 -4.11853 3.19415 0
M  V30 7408 C 687.932 -4.3181 3.97187 0
M  V30 7409 C 690.284 -4.43606 4.50995 0
M  V30 7410 C 688.948 -4.53105 4.90155 0
M  V30 7411 H 688.218 -0.712416 0.203823 0
M  V30 7412 H 690.865 -1.52142 1.16298 0
M  V30 7413 H 689.17 -3.91578 0.131844 0
M  V30 7414 H 690.867 -3.97634 0.51847 0
M  V30 7415 H 687.457 -3.81999 1.94358 0
M  V30 7416 H 691.641 -4.0258 2.90246 0
M  V30 7417 H 686.897 -4.37371 4.2722 0
M  V30 7418 H 691.071 -4.59268 5.23494 0
M  V30 7419 H 688.698 -4.76315 5.92476 0
M  V30 7420 N 690.273 -0.685099 -1.4193 0
M  V30 7421 C 691.498 -0.218842 -2.06242 0
M  V30 7422 C 691.923 1.11923 -1.51178 0
M  V30 7423 O 691.281 1.69837 -0.634446 0
M  V30 7424 C 691.329 -0.175592 -3.60172 0
M  V30 7425 O 690.433 0.852776 -4.03487 0
M  V30 7426 H 689.774 -0.109531 -0.654904 0
M  V30 7427 H 692.304 -0.937013 -1.81882 0
M  V30 7428 H 692.314 -0.00291151 -4.08 0
M  V30 7429 H 690.989 -1.15222 -3.99621 0
M  V30 7430 H 689.566 0.650301 -3.67186 0
M  V30 7431 N 691.751 1.51645 -0.429126 0
M  V30 7432 C 692.698 2.27542 0.386446 0
M  V30 7433 C 693.668 1.30786 1.02393 0
M  V30 7434 O 694.853 1.59678 1.0444 0
M  V30 7435 C 691.993 3.11457 1.48623 0
M  V30 7436 C 691.106 4.23196 0.867691 0
M  V30 7437 C 690.241 4.94435 1.94183 0
M  V30 7438 C 689.28 5.98108 1.30129 0
M  V30 7439 N 688.417 6.62786 2.31644 0
M  V30 7440 H 693.257 2.968 -0.267155 0
M  V30 7441 H 690.794 1.46397 -0.143591 0
M  V30 7442 H 692.752 3.58429 2.13506 0
M  V30 7443 H 691.382 2.44329 2.10957 0
M  V30 7444 H 690.434 3.80248 0.107373 0
M  V30 7445 H 691.746 4.97499 0.35997 0
M  V30 7446 H 690.9 5.44914 2.66747 0
M  V30 7447 H 689.639 4.19744 2.48326 0
M  V30 7448 H 688.644 5.4693 0.561082 0
M  V30 7449 H 689.869 6.74751 0.767303 0
M  V30 7450 H 687.815 5.90913 2.84883 0
M  V30 7451 H 687.732 7.32828 1.85741 0
M  V30 7452 H 689 7.17897 3.03717 0
M  V30 7453 N 693.229 0.160201 1.56784 0
M  V30 7454 C 694.506 -0.533355 1.88188 0
M  V30 7455 C 694.886 -1.82072 1.06831 0
M  V30 7456 O 694.234 -2.27946 0.158959 0
M  V30 7457 C 694.444 -0.786034 3.40033 0
M  V30 7458 C 695.792 -1.12097 4.09536 0
M  V30 7459 O 696.816 -0.874949 3.45287 0
M  V30 7460 O 695.675 -1.58457 5.23023 0
M  V30 7461 H 692.769 -0.273589 0.780434 0
M  V30 7462 H 695.315 0.197803 1.68543 0
M  V30 7463 H 694.087 0.124515 3.91102 0
M  V30 7464 H 693.71 -1.57091 3.65251 0
M  V30 7465 N 694.707 -1.5719 -0.113559 0
M  V30 7466 C 695.637 -2.03772 -1.14013 0
M  V30 7467 C 696.618 -0.923176 -1.42869 0
M  V30 7468 O 697.803 -1.19325 -1.53216 0
M  V30 7469 C 694.933 -2.44663 -2.4649 0
M  V30 7470 C 693.887 -3.59612 -2.32085 0
M  V30 7471 C 693.213 -3.8642 -3.69573 0
M  V30 7472 C 694.513 -4.91149 -1.7768 0
M  V30 7473 H 696.207 -2.89785 -0.752665 0
M  V30 7474 H 693.753 -1.39412 -0.360609 0
M  V30 7475 H 695.706 -2.75857 -3.18561 0
M  V30 7476 H 694.43 -1.55628 -2.87137 0
M  V30 7477 H 693.089 -3.28636 -1.62461 0
M  V30 7478 H 692.737 -2.94581 -4.07715 0
M  V30 7479 H 692.437 -4.63797 -3.60786 0
M  V30 7480 H 693.961 -4.2007 -4.4314 0
M  V30 7481 H 695.375 -5.20843 -2.39574 0
M  V30 7482 H 693.772 -5.72562 -1.79701 0
M  V30 7483 H 694.842 -4.79301 -0.734776 0
M  V30 7484 N 696.185 0.383891 -1.52853 0
M  V30 7485 C 697.148 1.45197 -1.77343 0
M  V30 7486 C 698.148 1.47362 -0.643522 0
M  V30 7487 O 699.338 1.48443 -0.911613 0
M  V30 7488 C 696.47 2.8445 -1.87885 0
M  V30 7489 H 697.663 1.24764 -2.72716 0
M  V30 7490 H 695.216 0.615939 -1.43652 0
M  V30 7491 H 695.951 3.10222 -0.94515 0
M  V30 7492 H 695.736 2.8428 -2.70051 0
M  V30 7493 H 697.226 3.61832 -2.08488 0
M  V30 7494 N 697.663 1.43903 0.642637 0
M  V30 7495 C 698.61 1.49881 1.75512 0
M  V30 7496 C 699.58 0.347538 1.62423 0
M  V30 7497 O 700.765 0.556177 1.82514 0
M  V30 7498 C 697.905 1.43797 3.13714 0
M  V30 7499 C 697.018 2.6921 3.37861 0
M  V30 7500 C 696.153 2.5504 4.6597 0
M  V30 7501 C 695.192 3.75671 4.83257 0
M  V30 7502 N 694.329 3.60247 6.02633 0
M  V30 7503 H 699.169 2.44935 1.69737 0
M  V30 7504 H 696.706 1.21572 0.828165 0
M  V30 7505 H 698.664 1.38262 3.93624 0
M  V30 7506 H 697.294 0.523173 3.18532 0
M  V30 7507 H 696.346 2.8498 2.51973 0
M  V30 7508 H 697.658 3.58786 3.46517 0
M  V30 7509 H 696.812 2.47273 5.54023 0
M  V30 7510 H 695.551 1.63006 4.59653 0
M  V30 7511 H 694.556 3.83836 3.93637 0
M  V30 7512 H 695.781 4.68728 4.91397 0
M  V30 7513 H 693.727 2.70955 5.97427 0
M  V30 7514 H 693.644 4.43431 6.12295 0
M  V30 7515 H 694.912 3.56351 6.93278 0
M  V30 7516 N 699.141 -0.881989 1.30609 0
M  V30 7517 C 700.104 -1.96957 1.1722 0
M  V30 7518 C 701.104 -1.60472 0.102598 0
M  V30 7519 O 702.294 -1.70628 0.350943 0
M  V30 7520 C 699.426 -3.31463 0.796572 0
M  V30 7521 H 700.619 -2.10262 2.13846 0
M  V30 7522 H 698.172 -1.06877 1.14048 0
M  V30 7523 H 698.907 -3.23859 -0.169053 0
M  V30 7524 H 698.692 -3.59314 1.56959 0
M  V30 7525 H 700.182 -4.11233 0.72645 0
M  V30 7526 N 700.619 -1.13374 -1.09472 0
M  V30 7527 C 701.529 -0.824029 -2.19652 0
M  V30 7528 C 702.545 0.19118 -1.72947 0
M  V30 7529 O 703.721 0.0223464 -2.01388 0
M  V30 7530 C 700.786 -0.294009 -3.45451 0
M  V30 7531 C 699.847 -1.3704 -4.0684 0
M  V30 7532 C 699.08 -0.86558 -5.26634 0
M  V30 7533 O 699.303 0.29702 -5.69626 0
M  V30 7534 O 698.237 -1.63968 -5.79136 0
M  V30 7535 H 702.063 -1.74454 -2.48595 0
M  V30 7536 H 699.648 -0.911155 -1.18399 0
M  V30 7537 H 701.53 -0.00381039 -4.214 0
M  V30 7538 H 700.205 0.598921 -3.18111 0
M  V30 7539 H 699.112 -1.71391 -3.3253 0
M  V30 7540 H 700.445 -2.23746 -4.38405 0
M  V30 7541 N 702.098 1.27442 -0.927168 0
M  V30 7542 C 703.326 1.98498 -0.583622 0
M  V30 7543 C 703.741 1.69171 0.838241 0
M  V30 7544 O 703.098 0.951969 1.55704 0
M  V30 7545 C 703.149 3.52552 -0.799341 0
M  V30 7546 O 702.87 3.80851 -2.16527 0
M  V30 7547 C 704.371 4.4086 -0.464436 0
M  V30 7548 H 701.591 0.633487 -0.221213 0
M  V30 7549 H 704.135 1.62308 -1.24404 0
M  V30 7550 H 702.29 3.86955 -0.185728 0
M  V30 7551 H 702.704 4.75441 -2.21487 0
M  V30 7552 H 704.178 5.47967 -0.666075 0
M  V30 7553 H 704.655 4.35082 0.599995 0
M  V30 7554 H 705.261 4.11977 -1.05617 0
M  V30 7555 N 703.576 0.692616 1.41565 0
M  V30 7556 C 704.825 0.219452 2.00503 0
M  V30 7557 C 705.138 -1.18683 1.55479 0
M  V30 7558 O 706.344 -1.75731 2.06956 0
M  V30 7559 C 704.8 0.341451 3.58277 0
M  V30 7560 C 704.408 1.75291 4.12283 0
M  V30 7561 C 706.152 -0.0720899 4.24439 0
M  V30 7562 C 704.059 1.82673 5.62481 0
M  V30 7563 H 702.989 0.0782874 0.749925 0
M  V30 7564 H 705.64 0.860386 1.62079 0
M  V30 7565 H 704.022 -0.367683 3.94289 0
M  V30 7566 H 705.196 2.49057 3.87695 0
M  V30 7567 H 703.511 2.11587 3.58636 0
M  V30 7568 H 706.108 -0.0373385 5.34687 0
M  V30 7569 H 706.451 -1.11034 4.0122 0
M  V30 7570 H 706.984 0.586663 3.9345 0
M  V30 7571 H 703.723 2.84539 5.90523 0
M  V30 7572 H 703.243 1.13288 5.89004 0
M  V30 7573 H 704.922 1.58827 6.27203 0
M  V30 7574 N 705.054 -1.51416 0.437162 0
M  V30 7575 C 706.017 -2.26312 -0.362729 0
M  V30 7576 C 707.017 -1.29748 -0.949847 0
M  V30 7577 O 708.207 -1.53462 -0.824325 0
M  V30 7578 C 705.339 -3.05475 -1.5132 0
M  V30 7579 H 706.532 -2.98459 0.29365 0
M  V30 7580 H 704.085 -1.55137 0.190327 0
M  V30 7581 H 704.82 -2.37744 -2.20563 0
M  V30 7582 H 704.605 -3.76401 -1.09838 0
M  V30 7583 H 706.095 -3.62209 -2.07833 0
M  V30 7584 N 706.532 -0.168513 -1.56696 0
M  V30 7585 C 707.762 0.482802 -2.0088 0
M  V30 7586 C 708.17 1.57537 -1.0478 0
M  V30 7587 O 707.513 1.83656 -0.0402746 0
M  V30 7588 C 707.575 1.1236 -3.4149 0
M  V30 7589 C 707.239 0.173027 -4.56672 0
M  V30 7590 C 708.236 -0.607565 -5.16338 0
M  V30 7591 C 705.921 0.0696691 -5.02252 0
M  V30 7592 C 707.915 -1.47874 -6.2001 0
M  V30 7593 C 705.602 -0.805096 -6.05773 0
M  V30 7594 C 706.6 -1.57789 -6.64524 0
M  V30 7595 O 706.288 -2.43804 -7.66038 0
M  V30 7596 H 706.02 0.128246 -0.663723 0
M  V30 7597 H 708.574 -0.266532 -2.03663 0
M  V30 7598 H 706.804 1.921 -3.35611 0
M  V30 7599 H 708.493 1.67683 -3.69645 0
M  V30 7600 H 709.259 -0.53787 -4.82008 0
M  V30 7601 H 705.138 0.660957 -4.56237 0
M  V30 7602 H 708.682 -2.0824 -6.65794 0
M  V30 7603 H 704.579 -0.876005 -6.39528 0
M  V30 7604 H 705.347 -2.37289 -7.83349 0
M  V30 7605 N 708.01 1.57248 0.105221 0
M  V30 7606 C 708.958 2.02337 1.14728 0
M  V30 7607 C 709.952 0.922652 1.42069 0
M  V30 7608 O 711.158 1.10785 1.41869 0
M  V30 7609 H 707.533 0.644682 0.387155 0
M  V30 7610 H 709.504 2.89063 0.740607 0
M  V30 7611 C 708.253 2.45513 2.46209 0
M  V30 7612 H 707.576 3.29785 2.26013 0
M  V30 7613 H 709.016 2.80846 3.1765 0
M  V30 7614 C 707.475 1.3243 3.09781 0
M  V30 7615 O 708.005 0.647841 3.96442 0
M  V30 7616 N 706.211 1.07785 2.69872 0
M  V30 7617 H 705.758 1.62973 1.99493 0
M  V30 7618 H 705.716 0.323204 3.12734 0
M  V30 7619 N 709.488 -0.375779 1.53054 0
M  V30 7620 C 710.716 -1.14036 1.72637 0
M  V30 7621 C 711.131 -1.83342 0.450687 0
M  V30 7622 O 710.488 -1.7318 -0.575749 0
M  V30 7623 C 710.539 -2.17841 2.88492 0
M  V30 7624 O 710.26 -1.51358 4.11123 0
M  V30 7625 C 711.761 -3.06924 3.19863 0
M  V30 7626 H 708.981 -0.341386 0.577665 0
M  V30 7627 H 711.525 -0.437809 1.99759 0
M  V30 7628 H 709.68 -2.8371 2.63794 0
M  V30 7629 H 710.094 -2.20439 4.75928 0
M  V30 7630 H 711.568 -3.75763 4.04359 0
M  V30 7631 H 712.045 -3.71169 2.34798 0
M  V30 7632 H 712.651 -2.46684 3.46449 0
M  V30 7633 N 710.966 -1.44241 -0.634997 0
M  V30 7634 C 711.898 -1.46793 -1.76024 0
M  V30 7635 C 712.911 -0.361781 -1.58729 0
M  V30 7636 O 714.1 -0.627297 -1.67114 0
M  V30 7637 C 711.2 -1.28248 -3.13697 0
M  V30 7638 C 710.373 -2.52038 -3.57485 0
M  V30 7639 C 709.432 -2.2845 -4.74022 0
M  V30 7640 O 708.458 -3.01915 -4.82531 0
M  V30 7641 N 709.66 -1.31264 -5.65464 0
M  V30 7642 H 712.425 -2.43797 -1.74307 0
M  V30 7643 H 709.986 -1.39631 -0.819438 0
M  V30 7644 H 711.978 -1.10321 -3.89373 0
M  V30 7645 H 710.548 -0.39623 -3.10079 0
M  V30 7646 H 709.768 -2.85268 -2.72059 0
M  V30 7647 H 711.056 -3.34382 -3.83492 0
M  V30 7648 H 710.454 -0.705817 -5.6128 0
M  V30 7649 H 709.011 -1.19316 -6.40786 0
M  V30 7650 N 712.444 0.87505 -1.31075 0
M  V30 7651 C 713.392 2.00317 -1.18219 0
M  V30 7652 C 714.386 1.69152 -0.0916872 0
M  V30 7653 O 715.592 1.7821 -0.253229 0
M  V30 7654 H 711.967 0.656981 -0.365895 0
M  V30 7655 H 713.938 2.08293 -2.13674 0
M  V30 7656 C 712.687 3.35821 -0.901095 0
M  V30 7657 H 712.01 3.6032 -1.73233 0
M  V30 7658 H 713.45 4.15366 -0.851295 0
M  V30 7659 C 711.909 3.34563 0.396114 0
M  V30 7660 O 712.439 3.75971 1.41452 0
M  V30 7661 N 710.645 2.87681 0.410832 0
M  V30 7662 H 710.192 2.54179 -0.418415 0
M  V30 7663 H 710.15 2.87223 1.27869 0
M  V30 7664 N 713.922 1.13953 1.08869 0
M  V30 7665 C 714.87 0.817664 2.17754 0
M  V30 7666 C 715.864 -0.202444 1.68186 0
M  V30 7667 O 717.07 -0.0590159 1.79903 0
M  V30 7668 H 713.445 0.246671 0.710392 0
M  V30 7669 H 715.416 1.74401 2.4213 0
M  V30 7670 C 714.165 0.3063 3.46348 0
M  V30 7671 H 713.488 1.08259 3.84864 0
M  V30 7672 H 714.928 0.119584 4.23831 0
M  V30 7673 C 713.387 -0.969158 3.22659 0
M  V30 7674 O 713.917 -2.04386 3.45817 0
M  V30 7675 N 712.123 -0.902516 2.7623 0
M  V30 7676 H 711.67 -0.027801 2.57585 0
M  V30 7677 H 711.628 -1.75649 2.60758 0
M  V30 7678 N 715.4 -1.26948 0.933913 0
M  V30 7679 C 716.628 -1.98186 0.59414 0
M  V30 7680 C 717.043 -1.69614 -0.829257 0
M  V30 7681 O 716.4 -0.960213 -1.55197 0
M  V30 7682 C 716.451 -3.52123 0.818026 0
M  V30 7683 O 716.172 -3.79698 2.18543 0
M  V30 7684 C 717.673 -4.40608 0.48781 0
M  V30 7685 H 714.893 -0.632305 0.224569 0
M  V30 7686 H 717.437 -1.61646 1.25263 0
M  V30 7687 H 715.592 -3.86851 0.206246 0
M  V30 7688 H 716.006 -4.7426 2.24005 0
M  V30 7689 H 717.48 -5.47606 0.695126 0
M  V30 7690 H 717.957 -4.35394 -0.576913 0
M  V30 7691 H 718.563 -4.11411 1.078 0
M  V30 7692 N 716.879 -0.700114 -1.41195 0
M  V30 7693 C 718.128 -0.230082 -2.00383 0
M  V30 7694 C 718.441 1.17857 -1.56106 0
M  V30 7695 O 719.647 1.74631 -2.07885 0
M  V30 7696 C 718.103 -0.360447 -3.5809 0
M  V30 7697 C 717.711 -1.77475 -4.11347 0
M  V30 7698 C 719.455 0.0495799 -4.24471 0
M  V30 7699 C 717.362 -1.85653 -5.61504 0
M  V30 7700 H 716.292 -0.0822633 -0.749499 0
M  V30 7701 H 718.943 -0.868969 -1.6162 0
M  V30 7702 H 717.325 0.346768 -3.94479 0
M  V30 7703 H 718.499 -2.51109 -3.86369 0
M  V30 7704 H 716.814 -2.13486 -3.57509 0
M  V30 7705 H 719.411 0.00898219 -5.34699 0
M  V30 7706 H 719.754 1.08904 -4.01803 0
M  V30 7707 H 720.287 -0.607521 -3.93134 0
M  V30 7708 H 717.026 -2.87667 -5.89006 0
M  V30 7709 H 716.546 -1.1641 -5.88395 0
M  V30 7710 H 718.225 -1.62151 -6.26351 0
M  V30 7711 N 718.357 1.51182 -0.445186 0
M  V30 7712 C 719.267 2.31692 0.368255 0
M  V30 7713 C 720.283 1.40942 1.02036 0
M  V30 7714 O 721.459 1.74011 1.01401 0
M  V30 7715 C 718.524 3.14903 1.45041 0
M  V30 7716 C 717.585 4.21442 0.817615 0
M  V30 7717 C 716.818 5.00677 1.8482 0
M  V30 7718 O 717.041 4.80644 3.07145 0
M  V30 7719 O 715.975 5.84559 1.43438 0
M  V30 7720 H 719.801 3.0232 -0.289219 0
M  V30 7721 H 717.386 1.47951 -0.207555 0
M  V30 7722 H 719.268 3.66612 2.07783 0
M  V30 7723 H 717.943 2.47031 2.09182 0
M  V30 7724 H 716.85 3.73791 0.151931 0
M  V30 7725 H 718.183 4.9171 0.219564 0
M  V30 7726 N 719.835 0.176821 1.56605 0
M  V30 7727 C 720.783 -0.768159 2.1955 0
M  V30 7728 C 721.777 -1.23343 1.16116 0
M  V30 7729 O 722.983 -1.19844 1.34303 0
M  V30 7730 H 719.358 -0.266013 0.703378 0
M  V30 7731 H 721.329 -0.213374 2.97636 0
M  V30 7732 C 720.078 -1.98492 2.85475 0
M  V30 7733 H 719.401 -1.63595 3.64797 0
M  V30 7734 H 720.841 -2.62489 3.3298 0
M  V30 7735 C 719.3 -2.81207 1.85538 0
M  V30 7736 O 719.83 -3.7854 1.34427 0
M  V30 7737 N 718.036 -2.46331 1.54173 0
M  V30 7738 H 717.583 -1.67241 1.95929 0
M  V30 7739 H 717.541 -3.01961 0.875595 0
M  V30 7740 N 721.313 -1.57302 -0.09688 0
M  V30 7741 C 722.261 -2.02942 -1.13654 0
M  V30 7742 C 723.255 -0.930173 -1.41577 0
M  V30 7743 O 724.461 -1.11535 -1.41279 0
M  V30 7744 H 720.836 -0.646726 -0.383731 0
M  V30 7745 H 722.807 -2.89452 -0.725267 0
M  V30 7746 C 721.556 -2.46815 -2.44903 0
M  V30 7747 H 720.879 -3.30979 -2.24261 0
M  V30 7748 H 722.319 -2.82527 -3.16156 0
M  V30 7749 C 720.778 -1.34071 -3.09074 0
M  V30 7750 O 721.308 -0.668856 -3.96092 0
M  V30 7751 N 719.514 -1.09214 -2.69296 0
M  V30 7752 H 719.061 -1.64029 -1.98626 0
M  V30 7753 H 719.019 -0.339785 -3.12559 0
M  V30 7754 N 722.791 0.367657 -1.53252 0
M  V30 7755 C 724.038 1.11052 -1.69333 0
M  V30 7756 C 724.366 1.89363 -0.444064 0
M  V30 7757 O 723.621 1.87094 0.573953 0
M  V30 7758 C 723.92 2.09825 -2.89324 0
M  V30 7759 C 723.586 1.4801 -4.25915 0
M  V30 7760 C 722.248 1.30879 -4.6306 0
M  V30 7761 C 724.6 1.03268 -5.10867 0
M  V30 7762 C 721.928 0.675868 -5.82794 0
M  V30 7763 C 724.28 0.41377 -6.31245 0
M  V30 7764 C 722.944 0.229939 -6.67104 0
M  V30 7765 H 722.214 0.406367 -0.619634 0
M  V30 7766 H 724.861 0.392558 -1.87433 0
M  V30 7767 H 723.166 2.87917 -2.65728 0
M  V30 7768 H 724.863 2.67252 -2.98961 0
M  V30 7769 H 721.453 1.62336 -3.96667 0
M  V30 7770 H 725.637 1.15297 -4.82722 0
M  V30 7771 H 720.893 0.521833 -6.09169 0
M  V30 7772 H 725.067 0.0588768 -6.96375 0
M  V30 7773 H 722.694 -0.262562 -7.59746 0
M  V30 7774 N 724.269 1.44576 0.627338 0
M  V30 7775 C 725.494 1.51271 1.41887 0
M  V30 7776 C 725.919 0.139814 1.8758 0
M  V30 7777 O 725.277 -0.871746 1.58966 0
M  V30 7778 C 725.325 2.48529 2.61277 0
M  V30 7779 O 724.429 1.98944 3.61241 0
M  V30 7780 H 723.77 0.510668 0.424399 0
M  V30 7781 H 726.3 1.89746 0.765356 0
M  V30 7782 H 726.31 2.66689 3.08773 0
M  V30 7783 H 724.985 3.48249 2.27366 0
M  V30 7784 H 723.562 1.90568 3.20528 0
M  V30 7785 N 725.747 -0.868086 1.31537 0
M  V30 7786 C 726.996 -1.61607 1.20689 0
M  V30 7787 C 727.309 -1.94204 -0.233275 0
M  V30 7788 O 728.515 -2.67515 -0.463465 0
M  V30 7789 C 726.971 -2.91348 2.11292 0
M  V30 7790 C 726.579 -2.66227 3.60315 0
M  V30 7791 C 728.323 -3.69344 2.09249 0
M  V30 7792 C 726.23 -3.91887 4.42921 0
M  V30 7793 H 725.16 -0.606373 0.448138 0
M  V30 7794 H 727.811 -0.959666 1.56405 0
M  V30 7795 H 726.193 -3.58374 1.68477 0
M  V30 7796 H 727.367 -2.07597 4.11388 0
M  V30 7797 H 725.682 -2.01582 3.64354 0
M  V30 7798 H 728.279 -4.62567 2.68209 0
M  V30 7799 H 728.622 -4.02044 1.0801 0
M  V30 7800 H 729.155 -3.09205 2.50274 0
M  V30 7801 H 725.894 -3.64336 5.44922 0
M  V30 7802 H 725.414 -4.49961 3.96605 0
M  V30 7803 H 727.093 -4.59754 4.55231 0
M  V30 7804 N 727.225 -1.14528 -1.08264 0
M  V30 7805 C 728.502 -0.825185 -1.77342 0
M  V30 7806 C 728.882 0.681037 -1.99813 0
M  V30 7807 O 728.23 1.62234 -1.60912 0
M  V30 7808 C 728.44 -1.62556 -3.08831 0
M  V30 7809 C 729.788 -1.82585 -3.83338 0
M  V30 7810 O 730.812 -1.59254 -3.18617 0
M  V30 7811 O 729.671 -2.21598 -4.99556 0
M  V30 7812 H 726.765 -0.302531 -0.769678 0
M  V30 7813 H 729.311 -1.25056 -1.14713 0
M  V30 7814 H 728.083 -2.64862 -2.88035 0
M  V30 7815 H 727.706 -1.1959 -3.79189 0
M  V30 7816 N 728.703 1.26451 -0.940633 0
M  V30 7817 C 729.635 2.25556 -0.407104 0
M  V30 7818 C 730.648 1.55888 0.469324 0
M  V30 7819 O 731.837 1.76292 0.279858 0
M  V30 7820 C 728.937 3.36109 0.434064 0
M  V30 7821 C 728.11 4.3532 -0.426082 0
M  V30 7822 C 727.169 5.25004 0.354563 0
M  V30 7823 O 726.195 5.68684 -0.242219 0
M  V30 7824 N 727.397 5.5652 1.65123 0
M  V30 7825 H 730.162 2.7197 -1.25907 0
M  V30 7826 H 727.723 1.40212 -0.809456 0
M  V30 7827 H 729.715 3.93059 0.963684 0
M  V30 7828 H 728.285 2.89194 1.18683 0
M  V30 7829 H 727.505 3.77449 -1.13692 0
M  V30 7830 H 728.793 4.986 -1.01366 0
M  V30 7831 H 728.191 5.22912 2.15822 0
M  V30 7832 H 726.748 6.16115 2.12711 0
M  V30 7833 N 730.181 0.707592 1.40822 0
M  V30 7834 C 731.111 0.0644925 2.33411 0
M  V30 7835 C 732.092 -0.754205 1.52466 0
M  V30 7836 O 733.277 -0.704749 1.80961 0
M  V30 7837 C 730.407 -0.863865 3.36385 0
M  V30 7838 C 729.361 -0.15138 4.27732 0
M  V30 7839 C 728.687 -1.19491 5.21177 0
M  V30 7840 C 729.987 0.989607 5.12839 0
M  V30 7841 H 731.681 0.837829 2.87438 0
M  V30 7842 H 729.227 0.404346 1.38207 0
M  V30 7843 H 731.18 -1.32309 4.0009 0
M  V30 7844 H 729.904 -1.66901 2.80734 0
M  V30 7845 H 728.563 0.287937 3.65467 0
M  V30 7846 H 728.211 -1.9929 4.61836 0
M  V30 7847 H 727.911 -0.723123 5.83134 0
M  V30 7848 H 729.435 -1.6544 5.8776 0
M  V30 7849 H 730.849 0.610114 5.70044 0
M  V30 7850 H 729.246 1.38926 5.83798 0
M  V30 7851 H 730.316 1.82389 4.49291 0
M  V30 7852 N 731.66 -1.50943 0.453197 0
M  V30 7853 C 732.909 -2.01402 -0.10951 0
M  V30 7854 C 733.222 -1.3411 -1.42386 0
M  V30 7855 O 734.428 -1.75626 -2.07045 0
M  V30 7856 C 732.884 -3.5906 -0.245693 0
M  V30 7857 C 732.492 -4.353 1.05916 0
M  V30 7858 C 734.236 -4.17617 -0.761318 0
M  V30 7859 C 732.143 -5.84699 0.887752 0
M  V30 7860 H 731.073 -0.752674 -0.0447013 0
M  V30 7861 H 733.724 -1.73913 0.585375 0
M  V30 7862 H 732.106 -3.83062 -1.00395 0
M  V30 7863 H 733.28 -4.23034 1.82698 0
M  V30 7864 H 731.595 -3.88269 1.50452 0
M  V30 7865 H 734.192 -5.26963 -0.906306 0
M  V30 7866 H 734.535 -3.77824 -1.74799 0
M  V30 7867 H 735.068 -3.97753 -0.0609416 0
M  V30 7868 H 731.807 -6.28933 1.84726 0
M  V30 7869 H 731.327 -5.99587 0.160006 0
M  V30 7870 H 733.006 -6.44682 0.547223 0
M  V30 7871 N 733.138 -0.185124 -1.56509 0
M  V30 7872 C 734.068 0.735098 -2.21627 0
M  V30 7873 C 735.049 1.2288 -1.1762 0
M  V30 7874 O 736.234 1.27945 -1.46095 0
M  V30 7875 C 733.364 1.95889 -2.86783 0
M  V30 7876 C 732.318 1.6005 -3.96948 0
M  V30 7877 C 731.644 2.90009 -4.4922 0
M  V30 7878 C 732.944 0.818008 -5.15855 0
M  V30 7879 H 734.638 0.192274 -2.98782 0
M  V30 7880 H 732.184 0.0910393 -1.43712 0
M  V30 7881 H 734.137 2.60779 -3.31017 0
M  V30 7882 H 732.861 2.52608 -2.07018 0
M  V30 7883 H 731.52 0.975237 -3.5339 0
M  V30 7884 H 731.168 3.44797 -3.6623 0
M  V30 7885 H 730.868 2.66778 -5.23549 0
M  V30 7886 H 732.392 3.55904 -4.9615 0
M  V30 7887 H 733.806 1.36979 -5.56695 0
M  V30 7888 H 732.203 0.684207 -5.96187 0
M  V30 7889 H 733.273 -0.182939 -4.84555 0
M  V30 7890 N 734.616 1.57351 0.0885366 0
M  V30 7891 C 735.893 1.77449 0.822873 0
M  V30 7892 C 736.273 0.768463 1.96616 0
M  V30 7893 O 735.621 -0.201757 2.27608 0
M  V30 7894 C 735.831 3.23425 1.31137 0
M  V30 7895 C 737.179 3.86791 1.75152 0
M  V30 7896 O 738.203 3.27215 1.40745 0
M  V30 7897 O 737.062 4.91568 2.38794 0
M  V30 7898 H 734.156 0.727653 0.393002 0
M  V30 7899 H 736.702 1.69556 0.0699095 0
M  V30 7900 H 735.474 3.88188 0.49254 0
M  V30 7901 H 735.097 3.35977 2.12615 0
M  V30 7902 N 736.094 -0.359525 1.53444 0
M  V30 7903 C 737.042 -1.46104 1.80987 0
M  V30 7904 C 738.036 -1.55181 0.679351 0
M  V30 7905 O 739.242 -1.57995 0.862405 0
M  V30 7906 H 735.617 -0.486835 0.573145 0
M  V30 7907 H 737.588 -1.2008 2.73173 0
M  V30 7908 C 736.337 -2.82855 2.02208 0
M  V30 7909 H 735.66 -2.76631 2.88644 0
M  V30 7910 H 737.1 -3.59091 2.25455 0
M  V30 7911 C 735.559 -3.27192 0.802931 0
M  V30 7912 O 736.089 -4.017 -0.00544286 0
M  V30 7913 N 734.295 -2.83807 0.624657 0
M  V30 7914 H 733.842 -2.23339 1.28364 0
M  V30 7915 H 733.8 -3.13828 -0.189641 0
M  V30 7916 N 737.572 -1.44907 -0.619662 0
M  V30 7917 C 738.849 -1.38766 -1.37852 0
M  V30 7918 C 739.229 -0.0521393 -2.11036 0
M  V30 7919 O 738.577 0.965613 -2.07095 0
M  V30 7920 C 738.787 -2.59344 -2.33541 0
M  V30 7921 C 740.135 -3.03909 -2.96521 0
M  V30 7922 O 741.159 -2.59631 -2.43865 0
M  V30 7923 O 740.018 -3.80713 -3.92071 0
M  V30 7924 H 737.112 -0.550083 -0.617525 0
M  V30 7925 H 739.658 -1.57015 -0.643759 0
M  V30 7926 H 738.43 -3.48142 -1.78642 0
M  V30 7927 H 738.053 -2.43367 -3.14417 0
M  V30 7928 N 739.05 0.861098 -1.31996 0
M  V30 7929 C 739.98 1.98482 -1.22993 0
M  V30 7930 C 740.961 1.6971 -0.115168 0
M  V30 7931 O 742.146 1.91849 -0.30126 0
M  V30 7932 C 739.276 3.34179 -0.945615 0
M  V30 7933 C 738.23 3.77284 -2.02091 0
M  V30 7934 C 737.556 5.1054 -1.58912 0
M  V30 7935 C 738.856 3.93439 -3.43515 0
M  V30 7936 H 740.55 2.06271 -2.17008 0
M  V30 7937 H 738.096 0.991043 -1.04472 0
M  V30 7938 H 740.049 4.12338 -0.869206 0
M  V30 7939 H 738.773 3.26586 0.0301849 0
M  V30 7940 H 737.432 3.01371 -2.08737 0
M  V30 7941 H 737.08 4.99397 -0.600942 0
M  V30 7942 H 736.78 5.40352 -2.30854 0
M  V30 7943 H 738.304 5.91199 -1.52696 0
M  V30 7944 H 739.718 4.6197 -3.39495 0
M  V30 7945 H 738.115 4.34661 -4.13751 0
M  V30 7946 H 739.185 2.96548 -3.8365 0
M  V30 7947 N 740.528 1.15101 1.07655 0
M  V30 7948 C 741.753 0.948177 1.84457 0
M  V30 7949 C 742.178 -0.498432 1.81376 0
M  V30 7950 O 741.536 -1.35509 1.20445 0
M  V30 7951 C 741.584 1.46318 3.29581 0
M  V30 7952 O 740.688 0.660342 4.07079 0
M  V30 7953 H 740.029 0.338428 0.571281 0
M  V30 7954 H 742.559 1.5301 1.35828 0
M  V30 7955 H 742.569 1.47468 3.80417 0
M  V30 7956 H 741.244 2.51635 3.31138 0
M  V30 7957 H 739.821 0.718216 3.65918 0
M  V30 7958 N 742.006 -1.2595 0.947325 0
M  V30 7959 C 743.231 -1.98083 0.614633 0
M  V30 7960 C 743.656 -1.70013 -0.804815 0
M  V30 7961 O 743.014 -0.95175 -1.54309 0
M  V30 7962 C 743.062 -3.4993 0.870706 0
M  V30 7963 O 742.166 -4.12364 -0.0541451 0
M  V30 7964 H 741.507 -0.621232 0.234451 0
M  V30 7965 H 744.037 -1.60259 1.27193 0
M  V30 7966 H 744.047 -4.00198 0.794051 0
M  V30 7967 H 742.722 -3.69691 1.90529 0
M  V30 7968 H 741.299 -3.72826 0.0740917 0
M  V30 7969 N 743.484 -0.715051 -1.40445 0
M  V30 7970 C 744.732 -0.253826 -2.005 0
M  V30 7971 C 745.053 1.15681 -1.5698 0
M  V30 7972 O 744.323 1.78414 -0.809027 0
M  V30 7973 H 742.903 -0.0908537 -0.741454 0
M  V30 7974 H 745.565 -0.920561 -1.7179 0
M  V30 7975 H 744.661 -0.286499 -3.10782 0
M  V30 7976 N 744.962 1.50701 -0.461195 0
M  V30 7977 C 746.211 2.01458 0.0988277 0
M  V30 7978 C 746.524 1.34863 1.41673 0
M  V30 7979 O 747.73 1.76721 2.06111 0
M  V30 7980 C 746.186 3.59186 0.226648 0
M  V30 7981 C 745.794 4.34732 -1.08223 0
M  V30 7982 C 747.538 4.18015 0.73916 0
M  V30 7983 C 745.445 5.8422 -0.918747 0
M  V30 7984 H 744.375 0.7529 0.040709 0
M  V30 7985 H 747.026 1.736 -0.594589 0
M  V30 7986 H 745.408 3.83589 0.983621 0
M  V30 7987 H 746.582 4.22059 -1.84939 0
M  V30 7988 H 744.897 3.87466 -1.52509 0
M  V30 7989 H 747.494 5.27436 0.878347 0
M  V30 7990 H 747.837 3.78746 1.72793 0
M  V30 7991 H 748.37 3.9778 0.0398469 0
M  V30 7992 H 745.109 6.27944 -1.88059 0
M  V30 7993 H 744.629 5.99493 -0.191801 0
M  V30 7994 H 746.308 6.44382 -0.581405 0
M  V30 7995 N 746.441 0.193421 1.56409 0
M  V30 7996 C 747.718 -0.493318 1.89277 0
M  V30 7997 C 748.098 -1.79765 1.10669 0
M  V30 7998 O 747.446 -2.27558 0.207274 0
M  V30 7999 C 747.656 -0.713732 3.41624 0
M  V30 8000 C 749.004 -1.03385 4.11821 0
M  V30 8001 O 750.028 -0.801511 3.47065 0
M  V30 8002 O 748.887 -1.47327 5.26267 0
M  V30 8003 H 745.981 -0.256973 0.786062 0
M  V30 8004 H 748.527 0.23351 1.68086 0
M  V30 8005 H 747.299 0.207446 3.9075 0
M  V30 8006 H 746.922 -1.49308 3.68501 0
M  V30 8007 N 747.919 -1.57396 -0.0801906 0
M  V30 8008 C 748.849 -2.06145 -1.09665 0
M  V30 8009 C 749.83 -0.953273 -1.40878 0
M  V30 8010 O 751.015 -1.22548 -1.50651 0
M  V30 8011 C 748.145 -2.49836 -2.41245 0
M  V30 8012 C 747.099 -3.64454 -2.24405 0
M  V30 8013 C 746.425 -3.94172 -3.61293 0
M  V30 8014 C 747.725 -4.94807 -1.67223 0
M  V30 8015 H 749.419 -2.91316 -0.691028 0
M  V30 8016 H 746.965 -1.40145 -0.330957 0
M  V30 8017 H 748.918 -2.82552 -3.12638 0
M  V30 8018 H 747.642 -1.61683 -2.83771 0
M  V30 8019 H 746.301 -3.32008 -1.55454 0
M  V30 8020 H 745.949 -3.03163 -4.01374 0
M  V30 8021 H 745.649 -4.71345 -3.50867 0
M  V30 8022 H 747.173 -4.29376 -4.3413 0
M  V30 8023 H 748.587 -5.25807 -2.28472 0
M  V30 8024 H 746.984 -5.76245 -1.67515 0
M  V30 8025 H 748.054 -4.80751 -0.632944 0
M  V30 8026 N 749.397 0.351382 -1.53633 0
M  V30 8027 C 750.808 0.927429 -1.62036 0
M  V30 8028 C 751.159 1.89809 -0.496706 0
M  V30 8029 O 750.284 2.1313 0.374749 0
M  V30 8030 C 750.879 1.68886 -2.93706 0
M  V30 8031 C 749.438 2.21404 -3.04397 0
M  V30 8032 C 748.585 1.03075 -2.57431 0
M  V30 8033 H 751.536 0.129748 -1.58169 0
M  V30 8034 H 751.557 2.55116 -2.82305 0
M  V30 8035 H 751.069 0.982149 -3.75467 0
M  V30 8036 H 749.17 2.95274 -2.27253 0
M  V30 8037 H 749.283 2.48312 -4.09729 0
M  V30 8038 H 747.647 1.40188 -2.12649 0
M  V30 8039 H 748.43 0.338793 -3.41624 0
M  V30 8040 N 750.875 1.45233 0.611969 0
M  V30 8041 C 751.823 1.53898 1.74408 0
M  V30 8042 C 752.817 0.409254 1.64382 0
M  V30 8043 O 754.023 0.584988 1.70229 0
M  V30 8044 H 750.398 0.483303 0.576127 0
M  V30 8045 H 752.369 2.49143 1.64227 0
M  V30 8046 C 751.118 1.51865 3.12782 0
M  V30 8047 H 750.441 2.38118 3.21154 0
M  V30 8048 H 751.881 1.61986 3.91838 0
M  V30 8049 C 750.34 0.242374 3.36027 0
M  V30 8050 O 750.87 -0.679587 3.9591 0
M  V30 8051 N 749.076 0.139448 2.90265 0
M  V30 8052 H 748.623 0.890571 2.41716 0
M  V30 8053 H 748.581 -0.713686 3.06193 0
M  V30 8054 N 752.353 -0.854086 1.3245 0
M  V30 8055 C 753.263 -1.99503 1.23434 0
M  V30 8056 C 754.279 -1.73371 0.147828 0
M  V30 8057 O 755.455 -1.97998 0.368609 0
M  V30 8058 C 752.52 -3.33192 0.958328 0
M  V30 8059 C 751.581 -3.72542 2.13333 0
M  V30 8060 C 750.814 -4.99852 1.8704 0
M  V30 8061 O 751.037 -5.64573 0.813239 0
M  V30 8062 O 749.971 -5.36345 2.73161 0
M  V30 8063 H 753.797 -2.10046 2.1935 0
M  V30 8064 H 751.382 -0.984823 1.12346 0
M  V30 8065 H 753.264 -4.13327 0.820918 0
M  V30 8066 H 751.939 -3.23687 0.0293299 0
M  V30 8067 H 750.846 -2.92981 2.32622 0
M  V30 8068 H 752.179 -3.86694 3.04514 0
M  V30 8069 N 753.831 -1.1567 -1.07043 0
M  V30 8070 C 754.779 -0.852204 -2.16426 0
M  V30 8071 C 755.773 0.175661 -1.68487 0
M  V30 8072 O 756.979 0.0303874 -1.79974 0
M  V30 8073 H 753.354 -0.257942 -0.706378 0
M  V30 8074 H 755.325 -1.78231 -2.39324 0
M  V30 8075 C 754.074 -0.361362 -3.45817 0
M  V30 8076 H 753.397 -1.14369 -3.83092 0
M  V30 8077 H 754.837 -0.186997 -4.23587 0
M  V30 8078 C 753.296 0.917703 -3.2416 0
M  V30 8079 O 753.826 1.98858 -3.49025 0
M  V30 8080 N 752.032 0.858456 -2.77631 0
M  V30 8081 H 751.579 -0.0131821 -2.57597 0
M  V30 8082 H 751.537 1.71478 -2.6352 0
M  V30 8083 N 755.309 1.25446 -0.953992 0
M  V30 8084 C 756.537 1.97215 -0.625595 0
M  V30 8085 C 756.952 1.70911 0.802168 0
M  V30 8086 O 756.309 0.984782 1.5365 0
M  V30 8087 C 756.36 3.50777 -0.873943 0
M  V30 8088 O 756.081 3.76173 -2.24556 0
M  V30 8089 C 757.582 4.39776 -0.557845 0
M  V30 8090 H 754.802 0.628652 -0.2346 0
M  V30 8091 H 757.346 1.59632 -1.27819 0
M  V30 8092 H 755.501 3.86474 -0.267765 0
M  V30 8093 H 755.915 4.70636 -2.31522 0
M  V30 8094 H 757.389 5.46431 -0.782157 0
M  V30 8095 H 757.866 4.36257 0.507573 0
M  V30 8096 H 758.472 4.09644 -1.14332 0
M  V30 8097 N 756.787 0.722489 1.40064 0
M  V30 8098 C 757.697 0.0755984 2.34478 0
M  V30 8099 C 758.713 -0.736046 1.57665 0
M  V30 8100 O 759.889 -0.667407 1.9002 0
M  V30 8101 C 756.954 -0.830075 3.36616 0
M  V30 8102 C 756.015 -0.00759884 4.29299 0
M  V30 8103 C 755.248 -0.870139 5.26559 0
M  V30 8104 O 755.471 -2.10921 5.2997 0
M  V30 8105 O 754.405 -0.305454 6.01124 0
M  V30 8106 H 758.231 0.854545 2.9143 0
M  V30 8107 H 755.816 0.483032 1.41376 0
M  V30 8108 H 757.698 -1.34864 3.99236 0
M  V30 8109 H 756.373 -1.58805 2.82069 0
M  V30 8110 H 755.28 0.556199 3.69942 0
M  V30 8111 H 756.613 0.712312 4.87018 0
M  V30 8112 N 758.265 -1.50454 0.469181 0
M  V30 8113 C 759.676 -1.86695 0.0136034 0
M  V30 8114 C 760.027 -1.38413 -1.39055 0
M  V30 8115 O 759.152 -0.748294 -2.03051 0
M  V30 8116 C 759.747 -3.38795 0.0179098 0
M  V30 8117 C 758.306 -3.74455 -0.382191 0
M  V30 8118 C 757.453 -2.74338 0.404207 0
M  V30 8119 H 760.404 -1.43225 0.683547 0
M  V30 8120 H 760.425 -3.72321 -0.78468 0
M  V30 8121 H 759.937 -3.73906 1.04 0
M  V30 8122 H 758.038 -3.44944 -1.4087 0
M  V30 8123 H 758.151 -4.79025 -0.084862 0
M  V30 8124 H 756.515 -2.54305 -0.141829 0
M  V30 8125 H 757.298 -3.12293 1.42577 0
M  V30 8126 N 759.743 -0.201713 -1.56304 0
M  V30 8127 C 760.99 0.435307 -1.97766 0
M  V30 8128 C 761.318 1.61169 -1.0888 0
M  V30 8129 O 760.573 1.95272 -0.12934 0
M  V30 8130 C 760.872 0.931432 -3.45049 0
M  V30 8131 C 760.538 -0.132287 -4.50706 0
M  V30 8132 C 759.2 -0.424552 -4.79323 0
M  V30 8133 C 761.552 -0.852703 -5.14177 0
M  V30 8134 C 758.88 -1.4421 -5.68701 0
M  V30 8135 C 761.232 -1.85944 -6.04655 0
M  V30 8136 C 759.896 -2.15884 -6.31625 0
M  V30 8137 H 759.166 0.15929 -0.723676 0
M  V30 8138 H 761.813 -0.300069 -1.89134 0
M  V30 8139 H 760.118 1.7452 -3.50785 0
M  V30 8140 H 761.815 1.43383 -3.74489 0
M  V30 8141 H 758.405 0.105671 -4.2847 0
M  V30 8142 H 762.589 -0.640139 -4.92154 0
M  V30 8143 H 757.845 -1.6799 -5.87869 0
M  V30 8144 H 762.019 -2.42286 -6.52894 0
M  V30 8145 H 759.646 -2.94875 -7.0068 0
M  V30 8146 N 761.222 1.57436 0.0718424 0
M  V30 8147 C 762.45 1.91474 0.783932 0
M  V30 8148 C 762.865 0.797669 1.71122 0
M  V30 8149 O 762.222 -0.228989 1.81058 0
M  V30 8150 C 762.273 3.25259 1.57761 0
M  V30 8151 O 761.994 4.3267 0.687596 0
M  V30 8152 C 763.495 3.7331 2.3907 0
M  V30 8153 H 760.715 0.632901 0.222885 0
M  V30 8154 H 763.259 2.04457 0.0421262 0
M  V30 8155 H 761.414 3.13804 2.27169 0
M  V30 8156 H 761.828 5.09641 1.23962 0
M  V30 8157 H 763.302 4.69551 2.90216 0
M  V30 8158 H 763.779 3.02318 3.18591 0
M  V30 8159 H 764.385 3.8771 1.74818 0
M  V30 8160 N 762.7 -0.34323 1.53817 0
M  V30 8161 C 763.648 -1.44176 1.82527 0
M  V30 8162 C 764.642 -1.54452 0.695772 0
M  V30 8163 O 765.848 -1.57072 0.879114 0
M  V30 8164 H 762.223 -0.480729 0.578277 0
M  V30 8165 H 764.194 -1.17176 2.74431 0
M  V30 8166 C 762.943 -2.80695 2.05197 0
M  V30 8167 H 762.266 -2.73554 2.91561 0
M  V30 8168 H 763.706 -3.56679 2.29251 0
M  V30 8169 C 762.165 -3.26322 0.837589 0
M  V30 8170 O 762.695 -4.01683 0.0371631 0
M  V30 8171 N 760.901 -2.83128 0.654724 0
M  V30 8172 H 760.448 -2.21965 1.30725 0
M  V30 8173 H 760.406 -3.14011 -0.156345 0
M  V30 8174 N 764.178 -1.45556 -0.604258 0
M  V30 8175 C 765.425 -1.49746 -1.36317 0
M  V30 8176 C 765.753 -0.140516 -1.93992 0
M  V30 8177 O 765.008 0.861244 -1.7573 0
M  V30 8178 C 765.307 -2.52697 -2.52743 0
M  V30 8179 C 764.973 -3.97315 -2.13195 0
M  V30 8180 C 763.635 -4.36692 -2.02123 0
M  V30 8181 C 765.987 -4.88249 -1.8238 0
M  V30 8182 C 763.315 -5.64895 -1.58463 0
M  V30 8183 C 765.667 -6.16867 -1.40205 0
M  V30 8184 C 764.331 -6.55172 -1.27694 0
M  V30 8185 H 763.601 -0.54796 -0.49882 0
M  V30 8186 H 766.248 -1.7892 -0.682643 0
M  V30 8187 H 764.553 -2.17105 -3.26148 0
M  V30 8188 H 766.25 -2.53176 -3.10971 0
M  V30 8189 H 762.84 -3.66176 -2.22739 0
M  V30 8190 H 767.024 -4.58561 -1.89829 0
M  V30 8191 H 762.28 -5.93365 -1.47402 0
M  V30 8192 H 766.454 -6.86771 -1.15408 0
M  V30 8193 H 764.081 -7.54411 -0.936375 0
M  V30 8194 N 765.656 0.84705 -1.32902 0
M  V30 8195 C 766.933 1.58583 -1.14503 0
M  V30 8196 C 767.313 2.09075 0.291724 0
M  V30 8197 O 766.661 1.88636 1.28952 0
M  V30 8198 C 766.871 2.72605 -2.17916 0
M  V30 8199 C 768.219 3.41993 -2.51646 0
M  V30 8200 O 769.243 2.82838 -2.1652 0
M  V30 8201 O 768.102 4.48761 -3.1189 0
M  V30 8202 H 765.196 0.698756 -0.442345 0
M  V30 8203 H 767.742 0.890516 -1.44457 0
M  V30 8204 H 766.514 2.32876 -3.14459 0
M  V30 8205 H 766.137 3.49807 -1.89 0
M  V30 8206 N 767.134 1.16236 1.06428 0
M  V30 8207 C 768.411 0.853294 1.76006 0
M  V30 8208 C 768.791 -0.649162 2.00871 0
M  V30 8209 O 768.139 -1.59653 1.63472 0
M  V30 8210 C 768.349 1.67448 3.06206 0
M  V30 8211 C 769.697 1.8866 3.80385 0
M  V30 8212 O 770.721 1.64303 3.16043 0
M  V30 8213 O 769.58 2.29518 4.95968 0
M  V30 8214 H 766.674 0.314737 0.764767 0
M  V30 8215 H 769.22 1.26865 1.12709 0
M  V30 8216 H 767.992 2.69411 2.83784 0
M  V30 8217 H 767.615 1.25608 3.77238 0
M  V30 8218 N 768.612 -1.24939 0.960631 0
M  V30 8219 C 769.861 -1.92118 0.614298 0
M  V30 8220 C 770.174 -1.75998 -0.853474 0
M  V30 8221 O 771.38 -2.37804 -1.31003 0
M  V30 8222 C 769.836 -3.44303 1.04801 0
M  V30 8223 C 769.444 -3.69123 2.53875 0
M  V30 8224 C 771.188 -4.17375 0.774497 0
M  V30 8225 C 769.095 -5.14843 2.91016 0
M  V30 8226 H 768.025 -0.719319 0.226045 0
M  V30 8227 H 770.676 -1.41701 1.16589 0
M  V30 8228 H 769.058 -3.93715 0.42479 0
M  V30 8229 H 770.232 -3.30339 3.21267 0
M  V30 8230 H 768.547 -3.09323 2.78762 0
M  V30 8231 H 771.144 -5.24723 1.02808 0
M  V30 8232 H 771.487 -4.15294 -0.289192 0
M  V30 8233 H 772.02 -3.7389 1.35835 0
M  V30 8234 H 768.759 -5.2204 3.96427 0
M  V30 8235 H 768.279 -5.54652 2.28302 0
M  V30 8236 H 769.958 -5.83017 2.80535 0
M  V30 8237 N 770.09 -0.729906 -1.39679 0
M  V30 8238 C 771.367 -0.202149 -1.94553 0
M  V30 8239 C 771.747 1.29507 -1.66707 0
M  V30 8240 O 771.095 2.05819 -0.992517 0
M  V30 8241 C 771.305 -0.530279 -3.44948 0
M  V30 8242 C 772.653 -0.476808 -4.21914 0
M  V30 8243 O 773.677 -0.467171 -3.53123 0
M  V30 8244 O 772.536 -0.466869 -5.44502 0
M  V30 8245 H 769.63 -0.0351644 -0.826252 0
M  V30 8246 H 772.176 -0.808417 -1.49207 0
M  V30 8247 H 770.948 -1.56526 -3.5863 0
M  V30 8248 H 770.571 0.10522 -3.97461 0
M  V30 8249 N 771.568 1.50203 -0.477153 0
M  V30 8250 C 772.817 2.01551 0.0774548 0
M  V30 8251 C 773.13 1.36359 1.40234 0
M  V30 8252 O 774.336 1.78898 2.04225 0
M  V30 8253 C 772.792 3.59406 0.188539 0
M  V30 8254 C 772.4 4.3356 -1.12828 0
M  V30 8255 C 774.144 4.18776 0.694782 0
M  V30 8256 C 772.051 5.83213 -0.98066 0
M  V30 8257 H 770.981 0.75329 0.0327212 0
M  V30 8258 H 773.632 1.72959 -0.612969 0
M  V30 8259 H 772.014 3.84611 0.942881 0
M  V30 8260 H 773.188 4.20074 -1.89405 0
M  V30 8261 H 771.503 3.85827 -1.5661 0
M  V30 8262 H 774.1 5.28338 0.822356 0
M  V30 8263 H 774.443 3.80557 1.68766 0
M  V30 8264 H 774.976 3.978 -0.00234519 0
M  V30 8265 H 771.715 6.25914 -1.94709 0
M  V30 8266 H 771.235 5.99256 -0.255375 0
M  V30 8267 H 772.914 6.4373 -0.649717 0
M  V30 8268 N 773.046 0.209999 1.56195 0
M  V30 8269 C 774.457 -0.299943 1.84275 0
M  V30 8270 C 774.808 -1.60314 1.1311 0
M  V30 8271 O 773.933 -2.1273 0.396874 0
M  V30 8272 C 774.528 -0.550986 3.3429 0
M  V30 8273 C 773.087 -1.00526 3.62728 0
M  V30 8274 C 772.234 -0.0619828 2.77231 0
M  V30 8275 H 775.185 0.433458 1.52666 0
M  V30 8276 H 775.206 -1.39846 3.53869 0
M  V30 8277 H 774.718 0.397669 3.86057 0
M  V30 8278 H 772.819 -1.96768 3.16407 0
M  V30 8279 H 772.932 -0.887664 4.70805 0
M  V30 8280 H 771.296 -0.566648 2.48317 0
M  V30 8281 H 772.079 0.881383 3.31793 0
M  V30 8282 N 774.524 -1.57472 -0.0634922 0
M  V30 8283 C 775.77 -1.87932 -0.762194 0
M  V30 8284 C 776.103 -0.803377 -1.76804 0
M  V30 8285 O 775.378 0.185468 -1.93614 0
M  V30 8286 C 775.661 -3.29053 -1.46275 0
M  V30 8287 C 775.514 -4.47309 -0.472755 0
M  V30 8288 C 776.833 -3.68537 -2.40558 0
M  V30 8289 H 773.952 -0.683521 -0.275624 0
M  V30 8290 H 776.594 -1.89983 -0.0252651 0
M  V30 8291 H 774.744 -3.27435 -2.0909 0
M  V30 8292 H 776.416 -4.61053 0.150828 0
M  V30 8293 H 774.659 -4.33286 0.211187 0
M  V30 8294 H 775.33 -5.42853 -1.00072 0
M  V30 8295 H 777.806 -3.71302 -1.87814 0
M  V30 8296 H 776.682 -4.68152 -2.86574 0
M  V30 8297 H 776.943 -2.98917 -3.25731 0
M  V30 8298 N 776.003 0.335068 -1.53997 0
M  V30 8299 C 777.233 1.0926 -1.75345 0
M  V30 8300 C 777.641 1.82568 -0.496545 0
M  V30 8301 O 776.984 1.75525 0.541897 0
M  V30 8302 C 777.046 2.14473 -2.88516 0
M  V30 8303 C 776.71 1.60665 -4.27827 0
M  V30 8304 C 777.707 1.05448 -5.09094 0
M  V30 8305 C 775.392 1.65255 -4.74337 0
M  V30 8306 C 777.386 0.555372 -6.34976 0
M  V30 8307 C 775.073 1.14956 -6.0019 0
M  V30 8308 C 776.071 0.601907 -6.80343 0
M  V30 8309 O 775.759 0.106445 -8.0383 0
M  V30 8310 H 775.491 0.331329 -0.589234 0
M  V30 8311 H 778.045 0.39042 -2.01655 0
M  V30 8312 H 776.275 2.88274 -2.5775 0
M  V30 8313 H 777.964 2.75857 -2.97755 0
M  V30 8314 H 778.73 1.01218 -4.74321 0
M  V30 8315 H 774.609 2.06822 -4.12002 0
M  V30 8316 H 778.153 0.127245 -6.97484 0
M  V30 8317 H 774.05 1.18891 -6.34457 0
M  V30 8318 H 774.818 0.222944 -8.18196 0
M  V30 8319 N 777.481 1.45874 0.596531 0
M  V30 8320 C 778.73 1.49737 1.35135 0
M  V30 8321 C 779.043 0.147755 1.95041 0
M  V30 8322 O 780.249 0.0640984 2.71424 0
M  V30 8323 C 778.705 2.6378 2.44843 0
M  V30 8324 C 778.313 4.05102 1.91301 0
M  V30 8325 C 780.057 2.769 3.21755 0
M  V30 8326 C 777.964 5.10508 2.98557 0
M  V30 8327 H 776.894 0.557219 0.507959 0
M  V30 8328 H 779.545 1.72046 0.638147 0
M  V30 8329 H 777.927 2.34774 3.189 0
M  V30 8330 H 779.101 4.43836 1.2388 0
M  V30 8331 H 777.416 3.96528 1.271 0
M  V30 8332 H 780.013 3.52819 4.01775 0
M  V30 8333 H 780.356 1.83924 3.73467 0
M  V30 8334 H 780.889 3.05485 2.54802 0
M  V30 8335 H 777.628 6.0523 2.51749 0
M  V30 8336 H 777.148 4.76332 3.6451 0
M  V30 8337 H 778.827 5.35745 3.62748 0
M  V30 8338 N 778.959 -0.83999 1.33349 0
M  V30 8339 C 779.906 -1.94972 1.23509 0
M  V30 8340 C 780.876 -1.65709 0.113967 0
M  V30 8341 O 782.061 -1.88552 0.292045 0
M  V30 8342 C 779.201 -3.30919 0.979105 0
M  V30 8343 C 778.314 -3.72587 2.18639 0
M  V30 8344 C 777.449 -4.97397 1.86465 0
M  V30 8345 C 776.488 -5.31597 3.03432 0
M  V30 8346 N 775.625 -6.47584 2.71254 0
M  V30 8347 H 780.465 -2.0272 2.18423 0
M  V30 8348 H 778.002 -0.992017 1.08616 0
M  V30 8349 H 779.96 -4.09239 0.811126 0
M  V30 8350 H 778.59 -3.22731 0.0667099 0
M  V30 8351 H 777.642 -2.89799 2.46416 0
M  V30 8352 H 778.954 -3.93844 3.06086 0
M  V30 8353 H 778.108 -5.83462 1.66305 0
M  V30 8354 H 776.847 -4.78107 0.96254 0
M  V30 8355 H 775.852 -4.44037 3.24208 0
M  V30 8356 H 777.077 -5.52836 3.94397 0
M  V30 8357 H 775.023 -6.29783 1.836 0
M  V30 8358 H 774.94 -6.68931 3.52231 0
M  V30 8359 H 776.208 -7.36764 2.54558 0
M  V30 8360 N 780.437 -1.16799 -1.0581 0
M  V30 8361 C 781.369 -0.836774 -2.13379 0
M  V30 8362 C 782.382 0.158116 -1.6203 0
M  V30 8363 O 783.571 -0.0673211 -1.78373 0
M  V30 8364 C 780.671 -0.225959 -3.38146 0
M  V30 8365 C 779.844 -1.26217 -4.18794 0
M  V30 8366 C 778.903 -0.670257 -5.21914 0
M  V30 8367 O 777.929 -1.34042 -5.53192 0
M  V30 8368 N 779.131 0.540683 -5.77977 0
M  V30 8369 H 781.896 -1.76257 -2.42391 0
M  V30 8370 H 779.457 -1.06599 -1.21853 0
M  V30 8371 H 781.449 0.18317 -4.04285 0
M  V30 8372 H 780.019 0.603494 -3.06719 0
M  V30 8373 H 779.239 -1.84729 -3.48237 0
M  V30 8374 H 780.527 -1.9613 -4.69479 0
M  V30 8375 H 779.925 1.10322 -5.54838 0
M  V30 8376 H 778.482 0.891958 -6.45668 0
M  V30 8377 N 781.915 1.24427 -0.967243 0
M  V30 8378 C 783.14 1.9708 -0.646069 0
M  V30 8379 C 783.565 1.71272 0.777665 0
M  V30 8380 O 782.923 0.976179 1.52776 0
M  V30 8381 C 782.971 3.48501 -0.926266 0
M  V30 8382 O 782.075 4.12398 -0.0114653 0
M  V30 8383 H 781.416 0.617423 -0.244304 0
M  V30 8384 H 783.946 1.58215 -1.29727 0
M  V30 8385 H 783.956 3.98885 -0.857619 0
M  V30 8386 H 782.631 3.66613 -1.96386 0
M  V30 8387 H 781.208 3.72661 -0.133396 0
M  V30 8388 N 783.393 0.737304 1.3929 0
M  V30 8389 C 784.356 0.10731 2.28949 0
M  V30 8390 C 785.356 -0.664716 1.46418 0
M  V30 8391 O 786.546 -0.493392 1.67067 0
M  V30 8392 C 783.678 -0.857145 3.29948 0
M  V30 8393 H 784.871 0.89725 2.86163 0
M  V30 8394 H 782.424 0.503279 1.47976 0
M  V30 8395 H 783.159 -1.67336 2.77794 0
M  V30 8396 H 782.944 -0.306167 3.90903 0
M  V30 8397 H 784.434 -1.29444 3.97031 0
M  V30 8398 N 784.871 -1.49948 0.485112 0
M  V30 8399 C 785.801 -2.31675 -0.291364 0
M  V30 8400 C 786.782 -1.39216 -0.977383 0
M  V30 8401 O 787.967 -1.68133 -0.971855 0
M  V30 8402 C 785.097 -3.19326 -1.36558 0
M  V30 8403 C 784.051 -4.2045 -0.800359 0
M  V30 8404 C 783.377 -4.96931 -1.97391 0
M  V30 8405 C 784.677 -5.21925 0.197867 0
M  V30 8406 H 786.371 -2.96839 0.390775 0
M  V30 8407 H 783.917 -1.42749 0.189375 0
M  V30 8408 H 785.87 -3.75304 -1.91638 0
M  V30 8409 H 784.594 -2.52074 -2.07668 0
M  V30 8410 H 783.253 -3.65594 -0.271428 0
M  V30 8411 H 782.901 -4.26141 -2.67232 0
M  V30 8412 H 782.601 -5.65344 -1.60187 0
M  V30 8413 H 784.125 -5.55749 -2.52935 0
M  V30 8414 H 785.539 -5.72691 -0.264239 0
M  V30 8415 H 783.936 -5.98138 0.484908 0
M  V30 8416 H 785.006 -4.71809 1.11912 0
M  V30 8417 N 786.349 -0.21828 -1.56081 0
M  V30 8418 C 787.296 0.693189 -2.20144 0
M  V30 8419 C 788.266 1.19274 -1.15598 0
M  V30 8420 O 789.451 1.25243 -1.4394 0
M  V30 8421 C 786.591 1.89715 -2.88275 0
M  V30 8422 C 785.704 1.4368 -4.07407 0
M  V30 8423 C 784.839 2.59807 -4.63329 0
M  V30 8424 C 783.878 2.10492 -5.74769 0
M  V30 8425 N 783.015 3.1988 -6.24997 0
M  V30 8426 H 787.855 0.14016 -2.9767 0
M  V30 8427 H 785.392 0.0574292 -1.46988 0
M  V30 8428 H 787.35 2.60398 -3.25958 0
M  V30 8429 H 785.98 2.42311 -2.13273 0
M  V30 8430 H 785.032 0.625007 -3.7523 0
M  V30 8431 H 786.344 1.03517 -4.8794 0
M  V30 8432 H 785.498 3.38577 -5.03438 0
M  V30 8433 H 784.237 3.03256 -3.81951 0
M  V30 8434 H 783.242 1.30182 -5.34165 0
M  V30 8435 H 784.467 1.68045 -6.5798 0
M  V30 8436 H 782.413 3.62817 -5.46534 0
M  V30 8437 H 782.33 2.83958 -7.00645 0
M  V30 8438 H 783.598 3.98796 -6.69763 0
M  V30 8439 N 787.827 1.57504 0.0551401 0
M  V30 8440 C 788.774 2.04825 1.06373 0
M  V30 8441 C 789.744 0.932108 1.37481 0
M  V30 8442 O 790.929 1.20093 1.48265 0
M  V30 8443 C 788.069 2.51091 2.36743 0
M  V30 8444 C 787.182 3.76392 2.12021 0
M  V30 8445 C 786.317 4.11373 3.36074 0
M  V30 8446 C 785.356 5.29666 3.0679 0
M  V30 8447 N 784.493 5.60205 4.2322 0
M  V30 8448 H 789.333 2.90753 0.653216 0
M  V30 8449 H 786.87 1.43776 0.310951 0
M  V30 8450 H 788.828 2.75973 3.12881 0
M  V30 8451 H 787.458 1.68118 2.75565 0
M  V30 8452 H 786.51 3.58751 1.26498 0
M  V30 8453 H 787.822 4.62662 1.86401 0
M  V30 8454 H 786.976 4.37245 4.20597 0
M  V30 8455 H 785.715 3.23704 3.64784 0
M  V30 8456 H 784.72 5.03574 2.20664 0
M  V30 8457 H 785.945 6.18968 2.79385 0
M  V30 8458 H 783.891 4.75495 4.5193 0
M  V30 8459 H 783.808 6.40928 4.00933 0
M  V30 8460 H 785.076 5.90637 5.08692 0
M  V30 8461 N 789.305 -0.326896 1.54172 0
M  V30 8462 C 790.554 -1.06274 1.71431 0
M  V30 8463 C 790.867 -1.89282 0.493123 0
M  V30 8464 O 792.073 -2.65933 0.54699 0
M  V30 8465 C 790.529 -1.93892 3.03206 0
M  V30 8466 C 790.137 -1.16011 4.32719 0
M  V30 8467 C 791.881 -2.67232 3.29829 0
M  V30 8468 C 789.788 -2.02755 5.55558 0
M  V30 8469 H 788.718 -0.400475 0.638855 0
M  V30 8470 H 791.369 -0.321184 1.80667 0
M  V30 8471 H 789.751 -2.71933 2.87869 0
M  V30 8472 H 790.925 -0.427643 4.58811 0
M  V30 8473 H 789.24 -0.54367 4.12836 0
M  V30 8474 H 791.837 -3.32434 4.18798 0
M  V30 8475 H 792.18 -3.34692 2.47562 0
M  V30 8476 H 792.713 -1.96255 3.46018 0
M  V30 8477 H 789.452 -1.3981 6.40417 0
M  V30 8478 H 788.972 -2.73745 5.33689 0
M  V30 8479 H 790.651 -2.61419 5.91835 0
M  V30 8480 N 790.784 -1.46188 -0.588786 0
M  V30 8481 C 792.031 -1.51184 -1.34721 0
M  V30 8482 C 792.359 -0.161084 -1.93832 0
M  V30 8483 O 791.614 0.842557 -1.76634 0
M  V30 8484 C 791.913 -2.55364 -2.50048 0
M  V30 8485 C 791.579 -3.99553 -2.08969 0
M  V30 8486 C 790.241 -4.38811 -1.9748 0
M  V30 8487 C 792.593 -4.90156 -1.77191 0
M  V30 8488 C 789.921 -5.66544 -1.52463 0
M  V30 8489 C 792.273 -6.1832 -1.33654 0
M  V30 8490 C 790.937 -6.5649 -1.20738 0
M  V30 8491 H 790.207 -0.55322 -0.49298 0
M  V30 8492 H 792.854 -1.79634 -0.663627 0
M  V30 8493 H 791.159 -2.20552 -3.23827 0
M  V30 8494 H 792.856 -2.5646 -3.08268 0
M  V30 8495 H 789.446 -3.68518 -2.18843 0
M  V30 8496 H 793.63 -4.60549 -1.84955 0
M  V30 8497 H 788.886 -5.94895 -1.411 0
M  V30 8498 H 793.06 -6.87956 -1.08117 0
M  V30 8499 H 790.687 -7.55362 -0.856307 0
M  V30 8500 N 792.262 0.832906 -1.33792 0
M  V30 8501 C 793.508 1.59089 -1.25772 0
M  V30 8502 C 793.841 1.93414 0.174601 0
M  V30 8503 O 793.116 1.59195 1.11746 0
M  V30 8504 C 793.399 2.89699 -2.13885 0
M  V30 8505 C 793.252 2.62017 -3.65605 0
M  V30 8506 C 794.571 3.91182 -2.01654 0
M  V30 8507 H 791.69 0.577232 -0.458227 0
M  V30 8508 H 794.332 0.960227 -1.6395 0
M  V30 8509 H 792.482 3.4352 -1.81456 0
M  V30 8510 H 794.154 2.14582 -4.08353 0
M  V30 8511 H 792.397 1.95621 -3.87189 0
M  V30 8512 H 793.068 3.55112 -4.2261 0
M  V30 8513 H 795.544 3.46684 -2.30107 0
M  V30 8514 H 794.42 4.80391 -2.65548 0
M  V30 8515 H 794.681 4.30861 -0.990536 0
M  V30 8516 N 793.74 1.17359 1.05189 0
M  V30 8517 C 795.017 0.871914 1.75091 0
M  V30 8518 C 795.397 -0.627821 2.01548 0
M  V30 8519 O 794.745 -1.5791 1.65156 0
M  V30 8520 C 794.955 1.70687 3.04413 0
M  V30 8521 C 796.303 1.92684 3.78362 0
M  V30 8522 O 797.327 1.67645 3.14282 0
M  V30 8523 O 796.186 2.34765 4.93505 0
M  V30 8524 H 793.28 0.322831 0.761386 0
M  V30 8525 H 795.826 1.28054 1.11357 0
M  V30 8526 H 794.598 2.72405 2.80911 0
M  V30 8527 H 794.221 1.29602 3.75884 0
M  V30 8528 N 795.218 -1.23913 0.973828 0
M  V30 8529 C 796.466 -1.91771 0.637817 0
M  V30 8530 C 796.787 -1.76434 -0.830435 0
M  V30 8531 O 796.057 -1.13965 -1.59339 0
M  V30 8532 H 794.637 -0.709761 0.232912 0
M  V30 8533 H 797.299 -1.50677 1.23622 0
M  V30 8534 H 796.395 -2.99327 0.883731 0
M  V30 8535 N 796.696 -0.74468 -1.38897 0
M  V30 8536 C 797.973 -0.222773 -1.94327 0
M  V30 8537 C 798.353 1.27731 -1.68071 0
M  V30 8538 O 797.701 2.04754 -1.01429 0
M  V30 8539 C 797.911 -0.566836 -3.44366 0
M  V30 8540 C 799.259 -0.521531 -4.21385 0
M  V30 8541 O 800.283 -0.504599 -3.52608 0
M  V30 8542 O 799.142 -0.524595 -5.43976 0
M  V30 8543 H 796.236 -0.0439259 -0.825833 0
M  V30 8544 H 798.782 -0.824197 -1.48341 0
M  V30 8545 H 797.554 -1.60321 -3.56949 0
M  V30 8546 H 797.177 0.0630577 -3.9755 0
M  V30 8547 N 798.174 1.49689 -0.493057 0
M  V30 8548 C 799.399 2.07331 0.0535114 0
M  V30 8549 C 799.824 1.35196 1.30781 0
M  V30 8550 O 799.182 0.406246 1.7669 0
M  V30 8551 C 799.23 3.59364 0.29825 0
M  V30 8552 O 798.334 3.88819 1.37454 0
M  V30 8553 H 797.675 0.663612 -0.0227018 0
M  V30 8554 H 800.205 1.926 -0.690402 0
M  V30 8555 H 800.215 4.04515 0.532159 0
M  V30 8556 H 798.89 4.1128 -0.618207 0
M  V30 8557 H 797.467 3.55487 1.12621 0
M  V30 8558 N 799.652 0.226554 1.55963 0
M  V30 8559 C 800.582 -0.676079 2.23498 0
M  V30 8560 C 801.563 -1.19718 1.20837 0
M  V30 8561 O 802.748 -1.24027 1.49436 0
M  V30 8562 C 799.878 -1.88217 2.91876 0
M  V30 8563 C 798.832 -1.4947 4.01052 0
M  V30 8564 C 798.158 -2.77997 4.56751 0
M  V30 8565 C 799.458 -0.680951 5.17842 0
M  V30 8566 H 801.152 -0.112989 2.99187 0
M  V30 8567 H 798.698 -0.0529046 1.43903 0
M  V30 8568 H 800.651 -2.51911 3.37815 0
M  V30 8569 H 799.375 -2.47031 2.13643 0
M  V30 8570 H 798.034 -0.881199 3.55852 0
M  V30 8571 H 797.682 -3.34966 3.75243 0
M  V30 8572 H 797.382 -2.52803 5.30438 0
M  V30 8573 H 798.906 -3.42625 5.05411 0
M  V30 8574 H 800.32 -1.22171 5.60131 0
M  V30 8575 H 798.717 -0.525898 5.97791 0
M  V30 8576 H 799.787 0.311346 4.83899 0
M  V30 8577 N 801.13 -1.57531 -0.0467866 0
M  V30 8578 C 802.377 -1.88451 -0.74112 0
M  V30 8579 C 802.705 -0.821592 -1.76296 0
M  V30 8580 O 801.96 0.179585 -1.94874 0
M  V30 8581 C 802.259 -3.26091 -1.46285 0
M  V30 8582 C 801.925 -4.47171 -0.578669 0
M  V30 8583 C 800.587 -4.80032 -0.335083 0
M  V30 8584 C 802.939 -5.2119 0.0328809 0
M  V30 8585 C 800.267 -5.84309 0.529121 0
M  V30 8586 C 802.619 -6.26383 0.884684 0
M  V30 8587 C 801.283 -6.57729 1.1379 0
M  V30 8588 H 800.553 -0.68959 -0.271195 0
M  V30 8589 H 803.2 -1.915 -0.00132378 0
M  V30 8590 H 801.505 -3.18948 -2.27551 0
M  V30 8591 H 803.202 -3.47258 -2.00532 0
M  V30 8592 H 799.792 -4.21467 -0.778666 0
M  V30 8593 H 803.976 -4.96096 -0.142375 0
M  V30 8594 H 799.232 -6.06981 0.733794 0
M  V30 8595 H 803.406 -6.82888 1.36516 0
M  V30 8596 H 801.033 -7.38355 1.80929 0
M  V30 8597 N 802.608 0.318715 -1.54344 0
M  V30 8598 C 803.518 1.41535 -1.87097 0
M  V30 8599 C 804.534 1.56361 -0.763353 0
M  V30 8600 O 805.71 1.71365 -1.05811 0
M  V30 8601 C 802.775 2.76178 -2.09587 0
M  V30 8602 C 801.836 2.70486 -3.3337 0
M  V30 8603 C 801.069 3.98708 -3.54778 0
M  V30 8604 O 801.292 4.9721 -2.79532 0
M  V30 8605 O 800.226 4.01674 -4.48266 0
M  V30 8606 H 804.052 1.16764 -2.80357 0
M  V30 8607 H 801.637 0.51318 -1.4031 0
M  V30 8608 H 803.519 3.55873 -2.25682 0
M  V30 8609 H 802.194 3.00829 -1.19514 0
M  V30 8610 H 801.101 1.89325 -3.22656 0
M  V30 8611 H 802.434 2.50789 -4.23516 0
M  V30 8612 N 804.086 1.46499 0.581025 0
M  V30 8613 C 805.316 1.55244 1.36319 0
M  V30 8614 C 805.724 0.193059 1.88212 0
M  V30 8615 O 805.067 -0.820109 1.64377 0
M  V30 8616 C 805.129 2.498 2.58535 0
M  V30 8617 C 804.793 3.96007 2.28096 0
M  V30 8618 C 805.79 4.85171 1.8683 0
M  V30 8619 C 803.475 4.41152 2.40189 0
M  V30 8620 C 805.469 6.17493 1.58053 0
M  V30 8621 C 803.156 5.73508 2.11024 0
M  V30 8622 C 804.154 6.615 1.70021 0
M  V30 8623 O 803.842 7.914 1.41215 0
M  V30 8624 H 803.574 0.527513 0.422736 0
M  V30 8625 H 806.128 1.92623 0.713139 0
M  V30 8626 H 804.358 2.07443 3.2635 0
M  V30 8627 H 806.047 2.48934 3.20604 0
M  V30 8628 H 806.813 4.51548 1.77001 0
M  V30 8629 H 802.692 3.72886 2.71066 0
M  V30 8630 H 806.236 6.86131 1.25974 0
M  V30 8631 H 802.133 6.06679 2.20478 0
M  V30 8632 H 802.901 8.03681 1.55046 0
M  V30 8633 N 805.565 -0.825799 1.34232 0
M  V30 8634 C 806.495 -1.95151 1.28212 0
M  V30 8635 C 807.476 -1.69345 0.160123 0
M  V30 8636 O 808.661 -1.90983 0.352019 0
M  V30 8637 C 805.791 -3.31554 1.03388 0
M  V30 8638 C 804.745 -3.71793 2.12023 0
M  V30 8639 C 804.071 -5.06147 1.72392 0
M  V30 8640 C 805.371 -3.84193 3.53826 0
M  V30 8641 H 807.065 -2.00445 2.22401 0
M  V30 8642 H 804.611 -0.962996 1.07063 0
M  V30 8643 H 806.564 -4.09889 0.978225 0
M  V30 8644 H 805.288 -3.26551 0.0564142 0
M  V30 8645 H 803.947 -2.95731 2.16654 0
M  V30 8646 H 803.595 -4.97628 0.733137 0
M  V30 8647 H 803.295 -5.34041 2.451 0
M  V30 8648 H 804.819 -5.86943 1.68317 0
M  V30 8649 H 806.233 -4.52806 3.51624 0
M  V30 8650 H 804.63 -4.23538 4.2513 0
M  V30 8651 H 805.7 -2.86272 3.91377 0
M  V30 8652 N 807.043 -1.17915 -1.04565 0
M  V30 8653 C 807.993 -0.869634 -2.10764 0
M  V30 8654 C 808.977 0.158502 -1.60117 0
M  V30 8655 O 810.169 -0.04483 -1.76943 0
M  V30 8656 C 807.298 -0.391642 -3.41059 0
M  V30 8657 C 806.384 -1.45156 -3.98485 0
M  V30 8658 N 806.775 -2.6667 -4.29792 0
M  V30 8659 C 805.073 -1.3109 -4.263 0
M  V30 8660 C 805.774 -3.34823 -4.75677 0
M  V30 8661 N 804.75 -2.62203 -4.76183 0
M  V30 8662 H 808.552 -1.79342 -2.32838 0
M  V30 8663 H 806.066 -1.0688 -1.22272 0
M  V30 8664 H 808.063 -0.151428 -4.16625 0
M  V30 8665 H 806.723 0.525862 -3.20413 0
M  V30 8666 H 807.734 -3.0358 -4.19594 0
M  V30 8667 H 804.411 -0.455545 -4.15007 0
M  V30 8668 H 805.801 -4.38645 -5.0896 0
M  V30 8669 N 808.521 1.23394 -0.980386 0
M  V30 8670 C 809.484 2.23092 -0.525619 0
M  V30 8671 C 810.484 1.56129 0.384745 0
M  V30 8672 O 811.674 1.73284 0.178439 0
M  V30 8673 C 808.806 3.40074 0.23712 0
M  V30 8674 H 809.999 2.64839 -1.40714 0
M  V30 8675 H 807.552 1.36227 -0.766275 0
M  V30 8676 H 808.287 3.03783 1.13518 0
M  V30 8677 H 808.072 3.89883 -0.416356 0
M  V30 8678 H 809.562 4.14043 0.543892 0
M  V30 8679 N 809.999 0.752036 1.385 0
M  V30 8680 C 810.931 0.0835089 2.29048 0
M  V30 8681 C 811.944 -0.685402 1.47669 0
M  V30 8682 O 813.133 -0.526748 1.70551 0
M  V30 8683 C 810.233 -0.905772 3.26572 0
M  V30 8684 C 809.406 -0.194828 4.36966 0
M  V30 8685 C 808.465 -1.09464 5.14688 0
M  V30 8686 O 807.491 -0.565743 5.66381 0
M  V30 8687 N 808.693 -2.42287 5.2752 0
M  V30 8688 H 811.458 0.861142 2.87062 0
M  V30 8689 H 809.019 0.602689 1.50264 0
M  V30 8690 H 811.011 -1.51072 3.75446 0
M  V30 8691 H 809.581 -1.58449 2.69467 0
M  V30 8692 H 808.801 0.590812 3.89747 0
M  V30 8693 H 810.089 0.297189 5.07931 0
M  V30 8694 H 809.487 -2.87715 4.8707 0
M  V30 8695 H 808.044 -2.97836 5.79773 0
M  V30 8696 N 811.477 -1.49425 0.500989 0
M  V30 8697 C 812.705 -2.06861 -0.0403443 0
M  V30 8698 C 813.12 -1.36132 -1.30819 0
M  V30 8699 O 812.477 -0.439647 -1.77125 0
M  V30 8700 C 812.528 -3.6027 -0.297902 0
M  V30 8701 O 812.249 -4.28338 0.919686 0
M  V30 8702 C 813.75 -4.34419 -0.882876 0
M  V30 8703 H 810.97 -0.670688 0.0204619 0
M  V30 8704 H 813.514 -1.92207 0.698342 0
M  V30 8705 H 811.669 -3.74627 -0.98657 0
M  V30 8706 H 812.083 -5.2004 0.682528 0
M  V30 8707 H 813.557 -5.42631 -1.01268 0
M  V30 8708 H 814.034 -3.96898 -1.88066 0
M  V30 8709 H 814.64 -4.24669 -0.231677 0
M  V30 8710 N 812.955 -0.234822 -1.55841 0
M  V30 8711 C 814.202 0.39326 -1.98645 0
M  V30 8712 C 814.53 1.58823 -1.12274 0
M  V30 8713 O 813.785 1.94954 -0.170731 0
M  V30 8714 C 814.084 0.858032 -3.46947 0
M  V30 8715 C 813.75 -0.227858 -4.50324 0
M  V30 8716 C 812.412 -0.526128 -4.78315 0
M  V30 8717 C 814.764 -0.961576 -5.12253 0
M  V30 8718 C 812.092 -1.5624 -5.65514 0
M  V30 8719 C 814.444 -1.98728 -6.00575 0
M  V30 8720 C 813.108 -2.29233 -6.26904 0
M  V30 8721 H 812.378 0.143904 -0.726892 0
M  V30 8722 H 815.025 -0.34012 -1.88455 0
M  V30 8723 H 813.33 1.67041 -3.54408 0
M  V30 8724 H 815.027 1.35407 -3.77447 0
M  V30 8725 H 811.617 0.0147624 -4.28597 0
M  V30 8726 H 815.801 -0.744388 -4.90686 0
M  V30 8727 H 811.057 -1.80422 -5.84173 0
M  V30 8728 H 815.231 -2.5608 -6.47608 0
M  V30 8729 H 812.858 -3.09671 -6.94268 0
M  V30 8730 N 814.433 1.57553 0.0384317 0
M  V30 8731 C 815.844 1.77258 0.586211 0
M  V30 8732 C 816.195 0.864706 1.76117 0
M  V30 8733 O 815.32 0.057141 2.16325 0
M  V30 8734 C 815.915 3.21453 1.07021 0
M  V30 8735 C 814.474 3.42387 1.56358 0
M  V30 8736 C 813.621 2.72801 0.497508 0
M  V30 8737 H 816.572 1.57585 -0.187796 0
M  V30 8738 H 816.593 3.27451 1.93794 0
M  V30 8739 H 816.105 3.87505 0.214851 0
M  V30 8740 H 814.206 2.81497 2.44111 0
M  V30 8741 H 814.319 4.50968 1.61754 0
M  V30 8742 H 812.683 2.36305 0.95038 0
M  V30 8743 H 813.466 3.41529 -0.348234 0
M  V30 8744 N 815.911 -0.310526 1.54511 0
M  V30 8745 C 817.136 -1.07046 1.7764 0
M  V30 8746 C 817.561 -1.80488 0.529696 0
M  V30 8747 O 816.919 -1.73702 -0.519361 0
M  V30 8748 C 816.967 -2.03411 2.97752 0
M  V30 8749 O 816.071 -3.11545 2.7021 0
M  V30 8750 H 815.412 -0.307994 0.588248 0
M  V30 8751 H 817.942 -0.350848 2.01569 0
M  V30 8752 H 817.952 -2.46048 3.2546 0
M  V30 8753 H 816.627 -1.49361 3.88155 0
M  V30 8754 H 815.204 -2.7349 2.53491 0
M  V30 8755 N 817.389 -1.46805 -0.573248 0
M  V30 8756 C 818.337 -1.58468 -1.70267 0
M  V30 8757 C 819.331 -0.452694 -1.63239 0
M  V30 8758 O 820.537 -0.629915 -1.68618 0
M  V30 8759 H 816.912 -0.498408 -0.56311 0
M  V30 8760 H 818.883 -2.5341 -1.57563 0
M  V30 8761 C 817.632 -1.60104 -3.08645 0
M  V30 8762 H 816.955 -2.4655 -3.14727 0
M  V30 8763 H 818.395 -1.72318 -3.87405 0
M  V30 8764 C 816.854 -0.33138 -3.35266 0
M  V30 8765 O 817.384 0.57438 -3.97572 0
M  V30 8766 N 815.59 -0.216358 -2.89793 0
M  V30 8767 H 815.137 -0.954345 -2.3927 0
M  V30 8768 H 815.095 0.632253 -3.07977 0
M  V30 8769 N 818.867 0.818669 -1.34668 0
M  V30 8770 C 820.116 1.57017 -1.26604 0
M  V30 8771 C 820.429 1.94936 0.161036 0
M  V30 8772 O 821.635 2.69051 0.36386 0
M  V30 8773 C 820.091 2.83305 -2.2196 0
M  V30 8774 C 819.699 2.52671 -3.69948 0
M  V30 8775 C 821.443 3.61324 -2.22813 0
M  V30 8776 C 819.35 3.75178 -4.5716 0
M  V30 8777 H 818.28 0.589323 -0.470335 0
M  V30 8778 H 820.931 0.900956 -1.59859 0
M  V30 8779 H 819.313 3.51874 -1.81661 0
M  V30 8780 H 820.487 1.92186 -4.18809 0
M  V30 8781 H 818.802 1.8792 -3.71584 0
M  V30 8782 H 821.399 4.52294 -2.85192 0
M  V30 8783 H 821.742 3.97759 -1.22857 0
M  V30 8784 H 822.275 2.99703 -2.61578 0
M  V30 8785 H 819.014 3.43861 -5.58068 0
M  V30 8786 H 818.534 4.34931 -4.13031 0
M  V30 8787 H 820.213 4.42542 -4.71981 0
M  V30 8788 N 820.346 1.18468 1.03938 0
M  V30 8789 C 821.256 0.927889 2.1547 0
M  V30 8790 C 822.272 -0.108447 1.73662 0
M  V30 8791 O 823.448 0.0737636 2.01265 0
M  V30 8792 C 820.513 0.458494 3.43655 0
M  V30 8793 C 819.574 1.56295 3.99838 0
M  V30 8794 C 818.807 1.11586 5.21904 0
M  V30 8795 O 819.03 -0.0249057 5.70395 0
M  V30 8796 O 817.964 1.91412 5.70653 0
M  V30 8797 H 821.79 1.86116 2.39989 0
M  V30 8798 H 819.375 0.966607 1.13917 0
M  V30 8799 H 821.257 0.204861 4.20902 0
M  V30 8800 H 819.932 -0.446464 3.20606 0
M  V30 8801 H 818.839 1.87061 3.23974 0
M  V30 8802 H 820.172 2.44408 4.2723 0
M  V30 8803 N 821.824 -1.22873 0.986916 0
M  V30 8804 C 822.772 -2.26597 0.525043 0
M  V30 8805 C 823.766 -1.64079 -0.421252 0
M  V30 8806 O 824.972 -1.77576 -0.294429 0
M  V30 8807 H 821.347 -0.736606 0.151381 0
M  V30 8808 H 823.318 -2.62909 1.41142 0
M  V30 8809 C 822.067 -3.47374 -0.150542 0
M  V30 8810 H 821.39 -3.95737 0.568541 0
M  V30 8811 H 822.83 -4.21739 -0.437256 0
M  V30 8812 C 821.289 -3.07163 -1.38392 0
M  V30 8813 O 821.819 -3.16028 -2.47971 0
M  V30 8814 N 820.025 -2.62009 -1.25697 0
M  V30 8815 H 819.572 -2.54996 -0.365355 0
M  V30 8816 H 819.53 -2.35472 -2.08327 0
M  V30 8817 N 823.302 -0.75937 -1.38099 0
M  V30 8818 C 824.232 -0.151077 -2.33011 0
M  V30 8819 C 825.213 0.697099 -1.5516 0
M  V30 8820 O 826.398 0.637101 -1.83452 0
M  V30 8821 C 823.528 0.738423 -3.39359 0
M  V30 8822 C 822.482 -0.0074741 -4.27999 0
M  V30 8823 C 821.808 1.00066 -5.25253 0
M  V30 8824 C 823.108 -1.17926 -5.08813 0
M  V30 8825 H 824.802 -0.943933 -2.84131 0
M  V30 8826 H 822.348 -0.455362 -1.36611 0
M  V30 8827 H 824.301 1.17369 -4.04725 0
M  V30 8828 H 823.025 1.56366 -2.86735 0
M  V30 8829 H 821.684 -0.423379 -3.64147 0
M  V30 8830 H 821.332 1.82012 -4.68914 0
M  V30 8831 H 821.032 0.506199 -5.85416 0
M  V30 8832 H 822.556 1.43512 -5.93495 0
M  V30 8833 H 823.97 -0.821262 -5.67387 0
M  V30 8834 H 822.367 -1.60497 -5.78239 0
M  V30 8835 H 823.437 -1.98938 -4.42212 0
M  V30 8836 N 824.78 1.49157 -0.508906 0
M  V30 8837 C 825.712 2.272 0.302115 0
M  V30 8838 C 826.725 1.3407 0.923529 0
M  V30 8839 O 827.914 1.5929 0.805532 0
M  V30 8840 C 825.014 3.06736 1.44105 0
M  V30 8841 C 824.187 4.27497 0.925477 0
M  V30 8842 C 823.246 4.89014 1.94297 0
M  V30 8843 O 822.272 5.48851 1.50834 0
M  V30 8844 N 823.474 4.7937 3.2739 0
M  V30 8845 H 826.239 2.97443 -0.367115 0
M  V30 8846 H 823.8 1.58248 -0.341933 0
M  V30 8847 H 825.792 3.44763 2.11944 0
M  V30 8848 H 824.362 2.3905 2.0143 0
M  V30 8849 H 823.582 3.94135 0.0717301 0
M  V30 8850 H 824.87 5.05714 0.55955 0
M  V30 8851 H 824.268 4.31869 3.65384 0
M  V30 8852 H 822.825 5.21559 3.90922 0
M  V30 8853 N 826.258 0.243083 1.55714 0
M  V30 8854 C 827.188 -0.652336 2.24203 0
M  V30 8855 C 828.169 -1.1843 1.221 0
M  V30 8856 O 829.354 -1.22435 1.50743 0
M  V30 8857 C 826.484 -1.85111 2.93856 0
M  V30 8858 C 825.438 -1.45208 4.02615 0
M  V30 8859 C 824.764 -2.73137 4.59674 0
M  V30 8860 C 826.064 -0.625988 5.18535 0
M  V30 8861 H 827.758 -0.0812504 2.9929 0
M  V30 8862 H 825.304 -0.0376388 1.43951 0
M  V30 8863 H 827.257 -2.48314 3.40468 0
M  V30 8864 H 825.981 -2.44751 2.16251 0
M  V30 8865 H 824.64 -0.843406 3.56766 0
M  V30 8866 H 824.288 -3.30967 3.78774 0
M  V30 8867 H 823.988 -2.47163 5.33089 0
M  V30 8868 H 825.512 -3.37245 5.09017 0
M  V30 8869 H 826.926 -1.16223 5.61396 0
M  V30 8870 H 825.323 -0.462465 5.98315 0
M  V30 8871 H 826.393 0.362652 4.83542 0
M  V30 8872 N 827.736 -1.57571 -0.0300757 0
M  V30 8873 C 828.964 -1.93485 -0.732891 0
M  V30 8874 C 829.379 -0.842758 -1.68947 0
M  V30 8875 O 828.736 0.180904 -1.81601 0
M  V30 8876 C 828.787 -3.29328 -1.49082 0
M  V30 8877 O 828.508 -4.34341 -0.572639 0
M  V30 8878 C 830.009 -3.79517 -2.29088 0
M  V30 8879 H 827.229 -0.638588 -0.206026 0
M  V30 8880 H 829.773 -2.04496 0.0120966 0
M  V30 8881 H 827.928 -3.19716 -2.1877 0
M  V30 8882 H 828.342 -5.12748 -1.10406 0
M  V30 8883 H 829.816 -4.77081 -2.77665 0
M  V30 8884 H 830.293 -3.10659 -3.10464 0
M  V30 8885 H 830.899 -3.92208 -1.64477 0
M  V30 8886 N 829.214 0.302327 -1.54673 0
M  V30 8887 C 830.162 1.39286 -1.86285 0
M  V30 8888 C 831.156 1.52553 -0.736478 0
M  V30 8889 O 832.362 1.54686 -0.92045 0
M  V30 8890 H 828.737 0.465228 -0.590819 0
M  V30 8891 H 830.708 1.09859 -2.77441 0
M  V30 8892 C 829.457 2.75155 -2.12567 0
M  V30 8893 H 828.78 2.65728 -2.98712 0
M  V30 8894 H 830.22 3.50476 -2.38627 0
M  V30 8895 C 828.679 3.23987 -0.923813 0
M  V30 8896 O 829.209 4.01443 -0.143649 0
M  V30 8897 N 827.415 2.81293 -0.72956 0
M  V30 8898 H 826.962 2.18421 -1.36565 0
M  V30 8899 H 826.92 3.14315 0.0730351 0
M  V30 8900 N 830.692 1.47107 0.565454 0
M  V30 8901 C 831.917 1.57153 1.35343 0
M  V30 8902 C 832.342 0.219247 1.86818 0
M  V30 8903 O 831.7 -0.803539 1.62521 0
M  V30 8904 C 831.748 2.59387 2.50501 0
M  V30 8905 O 830.852 2.14086 3.52478 0
M  V30 8906 H 830.193 0.528209 0.402357 0
M  V30 8907 H 832.723 1.92821 0.684189 0
M  V30 8908 H 832.733 2.79546 2.97184 0
M  V30 8909 H 831.408 3.57579 2.12391 0
M  V30 8910 H 829.985 2.03991 3.12157 0
M  V30 8911 N 832.17 -0.811516 1.35101 0
M  V30 8912 C 833.1 -1.9378 1.30275 0
M  V30 8913 C 834.081 -1.69165 0.178075 0
M  V30 8914 O 835.266 -1.90599 0.372256 0
M  V30 8915 C 832.396 -3.30439 1.06899 0
M  V30 8916 C 831.35 -3.69523 2.15955 0
M  V30 8917 C 830.676 -5.0429 1.77751 0
M  V30 8918 C 831.976 -3.80419 3.57881 0
M  V30 8919 H 833.67 -1.98075 2.24514 0
M  V30 8920 H 831.216 -0.951586 1.08078 0
M  V30 8921 H 833.169 -4.08828 1.02164 0
M  V30 8922 H 831.893 -3.26473 0.0910462 0
M  V30 8923 H 830.552 -2.93416 2.19778 0
M  V30 8924 H 830.2 -4.96823 0.785876 0
M  V30 8925 H 829.9 -5.31411 2.5075 0
M  V30 8926 H 831.424 -5.85125 1.74533 0
M  V30 8927 H 832.838 -4.49051 3.56407 0
M  V30 8928 H 831.235 -4.19005 4.29598 0
M  V30 8929 H 832.305 -2.82105 3.94391 0
M  V30 8930 N 833.648 -1.19017 -1.03309 0
M  V30 8931 C 834.596 -0.920627 -2.13605 0
M  V30 8932 C 835.59 0.121969 -1.6896 0
M  V30 8933 O 836.796 -0.0268854 -1.7998 0
M  V30 8934 H 833.171 -0.280284 -0.697814 0
M  V30 8935 H 835.142 -1.85755 -2.33533 0
M  V30 8936 C 833.891 -0.471198 -3.44492 0
M  V30 8937 H 833.214 -1.26499 -3.7926 0
M  V30 8938 H 834.654 -0.321663 -4.22778 0
M  V30 8939 C 833.113 0.81411 -3.26916 0
M  V30 8940 O 833.643 1.87654 -3.55175 0
M  V30 8941 N 831.849 0.769695 -2.80221 0
M  V30 8942 H 831.396 -0.0951278 -2.57424 0
M  V30 8943 H 831.354 1.63008 -2.68842 0
M  V30 8944 N 835.127 1.22348 -0.993418 0
M  V30 8945 C 836.404 1.86632 -0.585495 0
M  V30 8946 C 836.784 1.89156 0.937187 0
M  V30 8947 O 836.132 1.38247 1.81934 0
M  V30 8948 C 836.342 3.27481 -1.20652 0
M  V30 8949 C 837.69 4.03971 -1.30738 0
M  V30 8950 O 838.714 3.3675 -1.16096 0
M  V30 8951 O 837.573 5.24302 -1.54173 0
M  V30 8952 H 834.667 0.802704 -0.198984 0
M  V30 8953 H 837.213 1.30122 -1.08933 0
M  V30 8954 H 835.985 3.20281 -2.24802 0
M  V30 8955 H 835.608 3.91597 -0.688312 0
M  V30 8956 N 836.605 0.766683 1.37694 0
M  V30 8957 C 837.568 0.155849 2.2867 0
M  V30 8958 C 838.568 -0.633509 1.47795 0
M  V30 8959 O 839.758 -0.457844 1.68076 0
M  V30 8960 C 836.89 -0.786965 3.31692 0
M  V30 8961 H 838.083 0.957748 2.84196 0
M  V30 8962 H 835.636 0.534554 1.46875 0
M  V30 8963 H 836.371 -1.61406 2.8128 0
M  V30 8964 H 836.156 -0.223182 3.91464 0
M  V30 8965 H 837.646 -1.20994 3.99688 0
M  V30 8966 N 838.083 -1.48885 0.516809 0
M  V30 8967 C 839.013 -2.32241 -0.242157 0
M  V30 8968 C 839.994 -1.41258 -0.947633 0
M  V30 8969 O 841.179 -1.70156 -0.935973 0
M  V30 8970 C 838.309 -3.22151 -1.29754 0
M  V30 8971 C 837.263 -4.22053 -0.710995 0
M  V30 8972 C 836.589 -5.01007 -1.86806 0
M  V30 8973 C 837.889 -5.21388 0.30853 0
M  V30 8974 H 839.583 -2.95943 0.453651 0
M  V30 8975 H 837.129 -1.42316 0.219612 0
M  V30 8976 H 839.082 -3.79284 -1.83634 0
M  V30 8977 H 837.806 -2.56423 -2.02274 0
M  V30 8978 H 836.465 -3.66087 -0.193819 0
M  V30 8979 H 836.113 -4.31713 -2.58133 0
M  V30 8980 H 835.813 -5.68615 -1.48159 0
M  V30 8981 H 837.337 -5.60989 -2.4109 0
M  V30 8982 H 838.751 -5.73122 -0.142703 0
M  V30 8983 H 837.148 -5.96975 0.611673 0
M  V30 8984 H 838.218 -4.69329 1.21894 0
M  V30 8985 N 839.561 -0.251338 -1.55583 0
M  V30 8986 C 840.977 0.103409 -1.59265 0
M  V30 8987 C 841.177 1.56559 -1.26852 0
M  V30 8988 O 840.233 2.31071 -1.01796 0
M  V30 8989 C 841.546 -0.249781 -2.99661 0
M  V30 8990 C 843.094 -0.194442 -3.12395 0
M  V30 8991 C 843.569 -0.521728 -4.55019 0
M  V30 8992 N 845.06 -0.472393 -4.60785 0
M  V30 8993 C 845.795 -0.698737 -5.69127 0
M  V30 8994 N 845.291 -0.988443 -6.85713 0
M  V30 8995 N 847.084 -0.629143 -5.58568 0
M  V30 8996 H 839.235 -1.20484 -1.74921 0
M  V30 8997 H 841.498 -0.485092 -0.814488 0
M  V30 8998 H 841.204 -1.26577 -3.28133 0
M  V30 8999 H 841.078 0.420973 -3.74844 0
M  V30 9000 H 843.465 0.812229 -2.83702 0
M  V30 9001 H 843.546 -0.899111 -2.39478 0
M  V30 9002 H 843.19 -1.52597 -4.84434 0
M  V30 9003 H 843.12 0.204468 -5.26203 0
M  V30 9004 H 845.611 -0.257386 -3.77022 0
M  V30 9005 H 845.924 -1.14846 -7.64219 0
M  V30 9006 H 844.269 -1.02596 -6.87386 0
M  V30 9007 H 847.46 -0.402826 -4.66364 0
M  V30 9008 H 847.633 -0.808935 -6.42931 0
M  V30 9009 N 841.039 1.57585 0.0217189 0
M  V30 9010 C 841.987 2.08134 1.03842 0
M  V30 9011 C 842.981 0.996662 1.36978 0
M  V30 9012 O 844.187 1.18149 1.35797 0
M  V30 9013 H 840.562 0.664298 0.352438 0
M  V30 9014 H 842.533 2.92583 0.58634 0
M  V30 9015 C 841.282 2.58218 2.32849 0
M  V30 9016 H 840.605 3.41302 2.08214 0
M  V30 9017 H 842.045 2.97289 3.02316 0
M  V30 9018 C 840.504 1.48664 3.02325 0
M  V30 9019 O 841.034 0.857075 3.9245 0
M  V30 9020 N 839.24 1.21938 2.63779 0
M  V30 9021 H 838.787 1.73319 1.90574 0
M  V30 9022 H 838.745 0.488523 3.10581 0
M  V30 9023 N 842.517 -0.29412 1.54831 0
M  V30 9024 C 843.465 -1.38296 1.87021 0
M  V30 9025 C 844.459 -1.5216 0.744557 0
M  V30 9026 O 845.665 -1.54196 0.92864 0
M  V30 9027 H 842.04 -0.462088 0.593278 0
M  V30 9028 H 844.011 -1.08386 2.7802 0
M  V30 9029 C 842.76 -2.74024 2.14023 0
M  V30 9030 H 842.083 -2.6414 3.00117 0
M  V30 9031 H 843.523 -3.49205 2.40482 0
M  V30 9032 C 841.982 -3.23492 0.940982 0
M  V30 9033 O 842.512 -4.01361 0.164937 0
M  V30 9034 N 840.718 -2.80902 0.744467 0
M  V30 9035 H 840.265 -2.17694 1.37721 0
M  V30 9036 H 840.223 -3.14349 -0.0563652 0
M  V30 9037 N 843.995 -1.47404 -0.557645 0
M  V30 9038 C 844.943 -1.60265 -1.68576 0
M  V30 9039 C 845.937 -0.469982 -1.6275 0
M  V30 9040 O 847.143 -0.647764 -1.67941 0
M  V30 9041 H 843.518 -0.504353 -0.557792 0
M  V30 9042 H 845.489 -2.55066 -1.54867 0
M  V30 9043 C 844.238 -1.63369 -3.0693 0
M  V30 9044 H 843.561 -2.49874 -3.12095 0
M  V30 9045 H 845.001 -1.76417 -3.85556 0
M  V30 9046 C 843.46 -0.366921 -3.34896 0
M  V30 9047 O 843.99 0.53218 -3.98159 0
M  V30 9048 N 842.196 -0.247082 -2.89548 0
M  V30 9049 H 841.743 -0.979669 -2.38244 0
M  V30 9050 H 841.701 0.599552 -3.0863 0
M  V30 9051 N 845.473 0.80434 -1.35529 0
M  V30 9052 C 846.42 1.91629 -1.28635 0
M  V30 9053 C 847.39 1.65348 -0.157862 0
M  V30 9054 O 848.575 1.87711 -0.341934 0
M  V30 9055 C 845.715 3.28207 -1.0665 0
M  V30 9056 C 844.828 3.66659 -2.28441 0
M  V30 9057 C 843.963 4.92279 -1.99588 0
M  V30 9058 C 843.002 5.23365 -3.1742 0
M  V30 9059 N 842.139 6.40165 -2.88328 0
M  V30 9060 H 846.979 1.96858 -2.23721 0
M  V30 9061 H 844.516 0.962871 -1.11208 0
M  V30 9062 H 846.474 4.06945 -0.919343 0
M  V30 9063 H 845.104 3.22441 -0.152253 0
M  V30 9064 H 844.156 2.83164 -2.54013 0
M  V30 9065 H 845.468 3.8559 -3.1642 0
M  V30 9066 H 844.622 5.78847 -1.81715 0
M  V30 9067 H 843.361 4.75387 -1.08896 0
M  V30 9068 H 842.366 4.35285 -3.35867 0
M  V30 9069 H 843.591 5.42185 -4.08916 0
M  V30 9070 H 841.537 6.24694 -2.00233 0
M  V30 9071 H 841.454 6.59357 -3.69843 0
M  V30 9072 H 842.722 7.29755 -2.74002 0
M  V30 9073 N 846.951 1.19563 1.02676 0
M  V30 9074 C 848.197 1.00105 1.76371 0
M  V30 9075 C 848.53 -0.466823 1.88506 0
M  V30 9076 O 847.805 -1.34665 1.40341 0
M  V30 9077 C 848.088 1.67321 3.18866 0
M  V30 9078 C 847.941 3.21486 3.1459 0
M  V30 9079 C 849.26 1.39794 4.17308 0
M  V30 9080 H 846.379 0.365075 0.640226 0
M  V30 9081 H 849.021 1.47433 1.19848 0
M  V30 9082 H 847.171 1.27081 3.67128 0
M  V30 9083 H 848.843 3.70953 2.7421 0
M  V30 9084 H 847.086 3.5292 2.52249 0
M  V30 9085 H 847.757 3.63665 4.15273 0
M  V30 9086 H 850.233 1.74685 3.77657 0
M  V30 9087 H 849.109 1.89371 5.15199 0
M  V30 9088 H 849.37 0.323505 4.40915 0
M  V30 9089 N 848.429 -1.21819 0.999893 0
M  V30 9090 C 849.659 -1.94475 0.697346 0
M  V30 9091 C 850.067 -1.73991 -0.743228 0
M  V30 9092 O 849.41 -1.04042 -1.51397 0
M  V30 9093 C 849.472 -3.47204 0.932181 0
M  V30 9094 C 849.136 -3.91432 2.3586 0
M  V30 9095 C 850.133 -3.98545 3.33853 0
M  V30 9096 C 847.818 -4.23888 2.69489 0
M  V30 9097 C 849.812 -4.37499 4.63545 0
M  V30 9098 C 847.499 -4.62519 3.99399 0
M  V30 9099 C 848.497 -4.69294 4.96238 0
M  V30 9100 O 848.185 -5.07048 6.23825 0
M  V30 9101 H 847.917 -0.625419 0.256567 0
M  V30 9102 H 850.471 -1.55728 1.33933 0
M  V30 9103 H 848.701 -3.85997 0.233025 0
M  V30 9104 H 850.39 -4.01078 0.623807 0
M  V30 9105 H 851.156 -3.73654 3.09205 0
M  V30 9106 H 847.035 -4.17815 1.94812 0
M  V30 9107 H 850.579 -4.42702 5.3913 0
M  V30 9108 H 846.476 -4.86864 4.23833 0
M  V30 9109 H 847.244 -5.25098 6.27865 0
M  V30 9110 N 849.908 -0.773975 -1.37286 0
M  V30 9111 C 851.136 -0.350758 -2.03905 0
M  V30 9112 C 851.551 1.02779 -1.58373 0
M  V30 9113 O 850.908 1.65646 -0.766009 0
M  V30 9114 C 850.959 -0.387335 -3.59419 0
M  V30 9115 O 850.68 -1.7115 -4.03286 0
M  V30 9116 C 852.181 0.047198 -4.43275 0
M  V30 9117 H 849.401 -0.146663 -0.654775 0
M  V30 9118 H 851.945 -1.04852 -1.75574 0
M  V30 9119 H 850.1 0.261865 -3.86514 0
M  V30 9120 H 850.514 -1.65166 -4.97816 0
M  V30 9121 H 851.988 -0.0295474 -5.51992 0
M  V30 9122 H 852.465 1.09786 -4.25257 0
M  V30 9123 H 853.071 -0.573899 -4.2141 0
M  V30 9124 N 851.386 1.48609 -0.524698 0
M  V30 9125 C 852.633 2.02497 0.0113214 0
M  V30 9126 C 852.961 1.40229 1.34781 0
M  V30 9127 O 852.216 0.53557 1.88229 0
M  V30 9128 C 852.515 3.56906 0.187873 0
M  V30 9129 C 852.181 4.37932 -1.07359 0
M  V30 9130 C 850.843 4.59792 -1.41933 0
M  V30 9131 C 853.195 4.84902 -1.911 0
M  V30 9132 C 850.523 5.25868 -2.60154 0
M  V30 9133 C 852.875 5.52281 -3.08495 0
M  V30 9134 C 851.539 5.7238 -3.4342 0
M  V30 9135 H 850.809 0.740988 0.0041428 0
M  V30 9136 H 853.456 1.78651 -0.689652 0
M  V30 9137 H 851.761 3.79563 0.971572 0
M  V30 9138 H 853.458 3.96218 0.617443 0
M  V30 9139 H 850.048 4.21175 -0.794331 0
M  V30 9140 H 854.232 4.67821 -1.65701 0
M  V30 9141 H 849.488 5.39628 -2.87422 0
M  V30 9142 H 853.662 5.87645 -3.73692 0
M  V30 9143 H 851.289 6.23354 -4.35126 0
M  V30 9144 N 852.864 0.259585 1.55447 0
M  V30 9145 C 854.111 -0.361607 1.99245 0
M  V30 9146 C 854.439 -1.57017 1.14787 0
M  V30 9147 O 853.694 -1.94658 0.201724 0
M  V30 9148 C 853.993 -0.802727 3.48269 0
M  V30 9149 C 853.659 0.299472 4.49904 0
M  V30 9150 C 852.321 0.602157 4.77418 0
M  V30 9151 C 854.673 1.04295 5.10658 0
M  V30 9152 C 852.001 1.65217 5.62957 0
M  V30 9153 C 854.353 2.08257 5.97337 0
M  V30 9154 C 853.017 2.39177 6.23178 0
M  V30 9155 H 852.287 -0.132322 0.72909 0
M  V30 9156 H 854.934 0.370059 1.8789 0
M  V30 9157 H 853.239 -1.61381 3.5702 0
M  V30 9158 H 854.936 -1.29385 3.79553 0
M  V30 9159 H 851.526 0.0534256 4.28567 0
M  V30 9160 H 855.71 0.822358 4.89439 0
M  V30 9161 H 850.966 1.89692 5.81229 0
M  V30 9162 H 855.14 2.6635 6.43452 0
M  V30 9163 H 852.767 3.20677 6.89253 0
M  V30 9164 N 854.342 -1.57594 -0.0133615 0
M  V30 9165 C 855.567 -1.94649 -0.715996 0
M  V30 9166 C 855.992 -0.860786 -1.67249 0
M  V30 9167 O 855.35 0.182228 -1.80382 0
M  V30 9168 C 855.398 -3.30789 -1.43566 0
M  V30 9169 O 854.502 -3.24148 -2.54955 0
M  V30 9170 H 853.843 -0.635801 -0.191449 0
M  V30 9171 H 856.373 -2.04569 0.0358478 0
M  V30 9172 H 856.383 -3.66045 -1.80208 0
M  V30 9173 H 855.058 -4.09367 -0.734263 0
M  V30 9174 H 853.635 -3.00548 -2.20739 0
M  V30 9175 N 855.82 0.285905 -1.54985 0
M  V30 9176 C 857.048 1.03776 -1.78992 0
M  V30 9177 C 857.463 1.80402 -0.556814 0
M  V30 9178 O 856.82 1.76242 0.473801 0
M  V30 9179 C 856.871 2.0065 -3.00702 0
M  V30 9180 O 856.592 1.27131 -4.19249 0
M  V30 9181 C 858.093 2.87753 -3.37214 0
M  V30 9182 H 855.313 0.307126 -0.596586 0
M  V30 9183 H 857.857 0.3206 -2.01971 0
M  V30 9184 H 856.012 2.67847 -2.79887 0
M  V30 9185 H 856.426 1.92316 -4.8797 0
M  V30 9186 H 857.9 3.51548 -4.2558 0
M  V30 9187 H 858.377 3.56848 -2.56039 0
M  V30 9188 H 858.983 2.26065 -3.60242 0
M  V30 9189 N 857.298 1.47698 0.54982 0
M  V30 9190 C 858.246 1.61156 1.67724 0
M  V30 9191 C 859.24 0.478606 1.62498 0
M  V30 9192 O 860.446 0.656661 1.67595 0
M  V30 9193 H 856.821 0.507304 0.55511 0
M  V30 9194 H 858.792 2.55884 1.53512 0
M  V30 9195 C 857.541 1.64994 3.06059 0
M  V30 9196 H 856.864 2.51525 3.10765 0
M  V30 9197 H 858.304 1.78459 3.84615 0
M  V30 9198 C 856.763 0.384677 3.34697 0
M  V30 9199 O 857.293 -0.511057 3.98436 0
M  V30 9200 N 855.499 0.262434 2.89413 0
M  V30 9201 H 855.046 0.99229 2.37721 0
M  V30 9202 H 855.004 -0.583177 3.08944 0
M  V30 9203 N 858.776 -0.797141 1.35954 0
M  V30 9204 C 859.706 -1.92387 1.32323 0
M  V30 9205 C 860.687 -1.68967 0.196007 0
M  V30 9206 O 861.872 -1.90193 0.39245 0
M  V30 9207 C 859.002 -3.29286 1.10398 0
M  V30 9208 C 857.956 -3.67212 2.19862 0
M  V30 9209 C 857.282 -5.02377 1.8309 0
M  V30 9210 C 858.582 -3.76602 3.61896 0
M  V30 9211 H 860.276 -1.95683 2.26602 0
M  V30 9212 H 857.822 -0.94007 1.09081 0
M  V30 9213 H 859.775 -4.07721 1.06495 0
M  V30 9214 H 858.499 -3.26358 0.125668 0
M  V30 9215 H 857.158 -2.91069 2.22878 0
M  V30 9216 H 856.806 -4.95961 0.838527 0
M  V30 9217 H 856.506 -5.28722 2.56372 0
M  V30 9218 H 858.03 -5.8324 1.80729 0
M  V30 9219 H 859.444 -4.45246 3.6115 0
M  V30 9220 H 857.841 -4.14425 4.34018 0
M  V30 9221 H 858.911 -2.77906 3.97361 0
M  V30 9222 N 860.254 -1.20106 -1.0204 0
M  V30 9223 C 861.5 -1.01039 -1.75838 0
M  V30 9224 C 861.833 0.456819 -1.88751 0
M  V30 9225 O 861.108 1.33919 -1.41053 0
M  V30 9226 C 861.391 -1.69009 -3.17975 0
M  V30 9227 C 861.244 -3.2315 -3.1288 0
M  V30 9228 C 862.563 -1.42005 -4.16561 0
M  V30 9229 H 859.682 -0.368465 -0.638281 0
M  V30 9230 H 862.324 -1.48066 -1.19064 0
M  V30 9231 H 860.474 -1.29026 -3.66449 0
M  V30 9232 H 862.146 -3.72402 -2.72239 0
M  V30 9233 H 860.389 -3.54253 -2.50374 0
M  V30 9234 H 861.06 -3.65862 -4.13339 0
M  V30 9235 H 863.536 -1.76685 -3.76725 0
M  V30 9236 H 862.412 -1.92101 -5.14187 0
M  V30 9237 H 862.673 -0.346884 -4.40737 0
M  V30 9238 N 861.732 1.21287 -1.00634 0
M  V30 9239 C 862.642 2.27388 -0.577226 0
M  V30 9240 C 863.658 1.69791 0.380399 0
M  V30 9241 O 864.834 1.99918 0.2439 0
M  V30 9242 C 861.899 3.46588 0.0880532 0
M  V30 9243 C 860.96 4.19453 -0.914222 0
M  V30 9244 C 860.193 5.32962 -0.280596 0
M  V30 9245 O 860.416 5.62895 0.922265 0
M  V30 9246 O 859.35 5.93666 -0.992196 0
M  V30 9247 H 863.176 2.66289 -1.46028 0
M  V30 9248 H 860.761 1.2771 -0.775283 0
M  V30 9249 H 862.643 4.18881 0.460094 0
M  V30 9250 H 861.318 3.09585 0.945461 0
M  V30 9251 H 860.225 3.49376 -1.33744 0
M  V30 9252 H 861.558 4.6037 -1.74126 0
M  V30 9253 N 863.21 0.781244 1.36873 0
M  V30 9254 C 864.157 0.172146 2.30157 0
M  V30 9255 C 865.127 -0.679328 1.51573 0
M  V30 9256 O 866.312 -0.629713 1.80109 0
M  V30 9257 C 863.452 -0.693534 3.38059 0
M  V30 9258 C 862.565 0.175586 4.31643 0
M  V30 9259 C 861.7 -0.695695 5.26625 0
M  V30 9260 C 860.739 0.17538 6.11849 0
M  V30 9261 N 859.876 -0.654416 6.99043 0
M  V30 9262 H 864.716 0.973133 2.81663 0
M  V30 9263 H 862.253 0.491469 1.38647 0
M  V30 9264 H 864.211 -1.21035 3.99257 0
M  V30 9265 H 862.841 -1.46003 2.87894 0
M  V30 9266 H 861.893 0.810295 3.7167 0
M  V30 9267 H 863.205 0.847107 4.91554 0
M  V30 9268 H 862.359 -1.27863 5.93073 0
M  V30 9269 H 861.098 -1.40087 4.67148 0
M  V30 9270 H 860.103 0.77078 5.4437 0
M  V30 9271 H 861.328 0.87803 6.734 0
M  V30 9272 H 859.274 -1.34403 6.42084 0
M  V30 9273 H 859.191 -0.0403998 7.55989 0
M  V30 9274 H 860.459 -1.22144 7.69871 0
M  V30 9275 N 864.689 -1.48329 0.532571 0
M  V30 9276 C 865.652 -2.2816 -0.218069 0
M  V30 9277 C 866.652 -1.35526 -0.865409 0
M  V30 9278 O 867.842 -1.58394 -0.725061 0
M  V30 9279 C 864.974 -3.1448 -1.31586 0
M  V30 9280 H 866.167 -2.95987 0.482865 0
M  V30 9281 H 863.72 -1.53612 0.288603 0
M  V30 9282 H 864.455 -2.5129 -2.04997 0
M  V30 9283 H 864.24 -3.82625 -0.856779 0
M  V30 9284 H 865.73 -3.74693 -1.84377 0
M  V30 9285 N 866.167 -0.267825 -1.55308 0
M  V30 9286 C 867.115 0.638848 -2.23655 0
M  V30 9287 C 868.109 1.16363 -1.2311 0
M  V30 9288 O 869.315 1.1181 -1.41062 0
M  V30 9289 H 865.69 0.224551 -0.717691 0
M  V30 9290 H 867.661 0.0394809 -2.98374 0
M  V30 9291 C 866.41 1.8151 -2.96562 0
M  V30 9292 H 865.733 1.42048 -3.73715 0
M  V30 9293 H 867.173 2.42629 -3.47717 0
M  V30 9294 C 865.632 2.69911 -2.01618 0
M  V30 9295 O 866.162 3.70058 -1.56268 0
M  V30 9296 N 864.368 2.36924 -1.68272 0
M  V30 9297 H 863.915 1.55533 -2.05347 0
M  V30 9298 H 863.873 2.96343 -1.05016 0
M  V30 9299 N 867.645 1.57599 0.00500368 0
M  V30 9300 C 868.873 1.94626 0.702016 0
M  V30 9301 C 869.288 0.86953 1.67585 0
M  V30 9302 O 868.645 -0.15199 1.81866 0
M  V30 9303 C 868.696 3.31658 1.43824 0
M  V30 9304 O 868.417 4.35197 0.503467 0
M  V30 9305 C 869.918 3.83114 2.23021 0
M  V30 9306 H 867.138 0.641785 0.195841 0
M  V30 9307 H 869.682 2.04451 -0.0446287 0
M  V30 9308 H 867.837 3.23156 2.13655 0
M  V30 9309 H 868.251 5.1444 1.02235 0
M  V30 9310 H 869.725 4.81438 2.7004 0
M  V30 9311 H 870.202 3.15559 3.05482 0
M  V30 9312 H 870.808 3.94775 1.58216 0
M  V30 9313 N 869.123 -0.277682 1.55134 0
M  V30 9314 C 870.369 -1.0114 1.7578 0
M  V30 9315 C 870.702 -1.86109 0.554719 0
M  V30 9316 O 869.977 -1.89275 -0.447813 0
M  V30 9317 C 870.26 -1.89789 3.06027 0
M  V30 9318 C 870.113 -1.07844 4.3668 0
M  V30 9319 C 871.432 -2.88577 3.32282 0
M  V30 9320 H 868.551 -0.366277 0.639539 0
M  V30 9321 H 871.193 -0.284155 1.87863 0
M  V30 9322 H 869.343 -2.51796 2.95856 0
M  V30 9323 H 871.015 -0.479432 4.58802 0
M  V30 9324 H 869.258 -0.381764 4.32117 0
M  V30 9325 H 869.929 -1.73179 5.24131 0
M  V30 9326 H 872.405 -2.36702 3.42215 0
M  V30 9327 H 871.281 -3.47749 4.2469 0
M  V30 9328 H 871.542 -3.63458 2.51696 0
M  V30 9329 N 870.601 -1.47988 -0.541979 0
M  V30 9330 C 871.847 -1.55623 -1.30036 0
M  V30 9331 C 872.18 -0.224254 -1.92901 0
M  V30 9332 O 871.455 0.768629 -1.78668 0
M  V30 9333 C 871.738 -2.68562 -2.39888 0
M  V30 9334 C 871.591 -4.11426 -1.81792 0
M  V30 9335 C 872.91 -2.77325 -3.41729 0
M  V30 9336 H 870.029 -0.566498 -0.471433 0
M  V30 9337 H 872.671 -1.8011 -0.604998 0
M  V30 9338 H 870.821 -2.47814 -2.992 0
M  V30 9339 H 872.493 -4.43581 -1.26624 0
M  V30 9340 H 870.736 -4.18989 -1.12386 0
M  V30 9341 H 871.407 -4.8625 -2.61276 0
M  V30 9342 H 873.883 -2.96085 -2.92357 0
M  V30 9343 H 872.759 -3.58097 -4.16002 0
M  V30 9344 H 873.02 -1.84995 -4.01534 0
M  V30 9345 N 872.079 0.78992 -1.36375 0
M  V30 9346 C 873.327 1.54472 -1.30319 0
M  V30 9347 C 873.648 1.94647 0.117338 0
M  V30 9348 O 872.918 1.64906 1.05748 0
M  V30 9349 H 871.498 0.572879 -0.479394 0
M  V30 9350 H 874.16 0.941245 -1.70665 0
M  V30 9351 H 873.256 2.45252 -1.93024 0
M  V30 9352 N 873.557 1.20646 1.01402 0
M  V30 9353 C 874.52 0.959314 2.08158 0
M  V30 9354 C 875.52 -0.0661558 1.60664 0
M  V30 9355 O 876.71 0.170177 1.73367 0
M  V30 9356 C 873.842 0.444785 3.37986 0
M  V30 9357 H 875.035 1.90631 2.31517 0
M  V30 9358 H 872.588 1.02219 1.18241 0
M  V30 9359 H 873.323 -0.507553 3.20304 0
M  V30 9360 H 873.108 1.18435 3.73785 0
M  V30 9361 H 874.598 0.291443 4.16582 0
M  V30 9362 N 875.035 -1.20752 1.01276 0
M  V30 9363 C 876.26 -1.94547 0.718769 0
M  V30 9364 C 876.685 -1.7404 -0.713563 0
M  V30 9365 O 876.043 -1.03221 -1.49047 0
M  V30 9366 C 876.091 -3.44823 1.05497 0
M  V30 9367 O 875.195 -4.12072 0.164516 0
M  V30 9368 H 874.536 -0.607931 0.267051 0
M  V30 9369 H 877.066 -1.53292 1.35509 0
M  V30 9370 H 877.076 -3.95427 1.00507 0
M  V30 9371 H 875.751 -3.59072 2.09858 0
M  V30 9372 H 874.328 -3.71909 0.271615 0
M  V30 9373 N 876.513 -0.788492 -1.36457 0
M  V30 9374 C 877.443 -0.200468 -2.32638 0
M  V30 9375 C 878.424 0.664031 -1.56603 0
M  V30 9376 O 879.609 0.598045 -1.84762 0
M  V30 9377 C 876.739 0.666274 -3.40849 0
M  V30 9378 C 875.693 -0.0982574 -4.27887 0
M  V30 9379 C 875.019 0.889018 -5.27258 0
M  V30 9380 C 876.319 -1.28692 -5.06197 0
M  V30 9381 H 878.013 -1.00399 -2.82065 0
M  V30 9382 H 875.559 -0.484237 -1.35614 0
M  V30 9383 H 877.512 1.08757 -4.07124 0
M  V30 9384 H 876.236 1.50249 -2.89987 0
M  V30 9385 H 874.895 -0.500525 -3.63167 0
M  V30 9386 H 874.543 1.72024 -4.7267 0
M  V30 9387 H 874.243 0.381909 -5.86358 0
M  V30 9388 H 875.767 1.30891 -5.96406 0
M  V30 9389 H 877.181 -0.941429 -5.65517 0
M  V30 9390 H 875.578 -1.72726 -5.74705 0
M  V30 9391 H 876.648 -2.08273 -4.37893 0
M  V30 9392 N 877.991 1.48044 -0.54043 0
M  V30 9393 C 879.238 2.02497 -0.0101567 0
M  V30 9394 C 879.566 1.41651 1.33286 0
M  V30 9395 O 878.821 0.555504 1.8765 0
M  V30 9396 C 879.12 3.57085 0.150008 0
M  V30 9397 C 878.786 4.36769 -1.11998 0
M  V30 9398 C 877.448 4.58261 -1.46801 0
M  V30 9399 C 879.8 4.82848 -1.96232 0
M  V30 9400 C 877.128 5.23079 -2.65717 0
M  V30 9401 C 879.48 5.48977 -3.14335 0
M  V30 9402 C 878.144 5.68705 -3.49472 0
M  V30 9403 H 877.414 0.740991 -0.00371661 0
M  V30 9404 H 880.061 1.77909 -0.708562 0
M  V30 9405 H 878.366 3.80572 0.931259 0
M  V30 9406 H 880.063 3.96851 0.575384 0
M  V30 9407 H 876.653 4.20309 -0.838957 0
M  V30 9408 H 880.837 4.66038 -1.70654 0
M  V30 9409 H 876.093 5.36549 -2.93129 0
M  V30 9410 H 880.267 5.83649 -3.79904 0
M  V30 9411 H 877.894 6.18703 -4.41713 0
M  V30 9412 N 879.47 0.276058 1.55163 0
M  V30 9413 C 880.716 -0.340959 1.99913 0
M  V30 9414 C 881.049 -1.55434 1.16422 0
M  V30 9415 O 880.324 -1.93081 0.234517 0
M  V30 9416 C 880.607 -0.722211 3.52783 0
M  V30 9417 C 880.46 0.498575 4.47028 0
M  V30 9418 C 881.779 -1.5583 4.11589 0
M  V30 9419 H 878.898 -0.122455 0.726756 0
M  V30 9420 H 881.54 0.38319 1.86096 0
M  V30 9421 H 879.69 -1.33919 3.64689 0
M  V30 9422 H 881.362 1.13713 4.47065 0
M  V30 9423 H 879.605 1.13646 4.18649 0
M  V30 9424 H 880.276 0.188041 5.5168 0
M  V30 9425 H 882.752 -1.03722 4.02965 0
M  V30 9426 H 881.628 -1.79387 5.1876 0
M  V30 9427 H 881.889 -2.53963 3.61877 0
M  V30 9428 N 880.948 -1.576 0.00335426 0
M  V30 9429 C 881.896 -2.09759 -1.00517 0
M  V30 9430 C 882.89 -1.01833 -1.35375 0
M  V30 9431 O 884.096 -1.20294 -1.339 0
M  V30 9432 H 880.471 -0.669821 -0.341825 0
M  V30 9433 H 882.442 -2.93478 -0.539718 0
M  V30 9434 C 881.191 -2.6189 -2.28711 0
M  V30 9435 H 880.514 -3.44571 -2.02758 0
M  V30 9436 H 881.954 -3.02061 -2.97548 0
M  V30 9437 C 880.413 -1.53455 -2.99922 0
M  V30 9438 O 880.943 -0.919402 -3.91037 0
M  V30 9439 N 879.149 -1.2612 -2.61806 0
M  V30 9440 H 878.696 -1.76329 -1.87792 0
M  V30 9441 H 878.654 -0.537872 -3.09765 0
M  V30 9442 N 882.426 0.269451 -1.5528 0
M  V30 9443 C 883.672 0.997946 -1.77236 0
M  V30 9444 C 884.027 1.83808 -0.568546 0
M  V30 9445 O 883.32 1.8651 0.438706 0
M  V30 9446 C 883.514 1.91 -3.02082 0
M  V30 9447 C 883.343 1.15963 -4.34491 0
M  V30 9448 C 882.113 0.873873 -4.97686 0
M  V30 9449 C 884.311 0.548307 -5.11369 0
M  V30 9450 N 882.293 0.0970863 -6.13823 0
M  V30 9451 C 883.664 -0.0941413 -6.19929 0
M  V30 9452 C 885.719 0.456507 -4.95803 0
M  V30 9453 C 884.422 -0.819547 -7.14616 0
M  V30 9454 C 886.448 -0.255315 -5.90849 0
M  V30 9455 C 885.81 -0.886488 -6.988 0
M  V30 9456 H 881.909 0.347038 -0.700777 0
M  V30 9457 H 884.493 0.273262 -1.92773 0
M  V30 9458 H 882.664 2.60691 -2.87915 0
M  V30 9459 H 884.396 2.57237 -3.12428 0
M  V30 9460 H 881.151 1.18003 -4.58663 0
M  V30 9461 H 881.575 -0.278741 -6.76426 0
M  V30 9462 H 886.217 0.930164 -4.12441 0
M  V30 9463 H 883.935 -1.30488 -7.97495 0
M  V30 9464 H 887.521 -0.32671 -5.80882 0
M  V30 9465 H 886.401 -1.42851 -7.71079 0
M  V30 9466 N 883.904 1.48273 0.534124 0
M  V30 9467 C 885.15 1.56311 1.29208 0
M  V30 9468 C 885.483 0.234481 1.92779 0
M  V30 9469 O 884.758 -0.759143 1.79073 0
M  V30 9470 C 885.041 2.69831 2.3846 0
M  V30 9471 C 884.894 4.12385 1.79608 0
M  V30 9472 C 886.213 2.79133 3.40254 0
M  V30 9473 H 883.332 0.56899 0.468422 0
M  V30 9474 H 885.974 1.80429 0.595438 0
M  V30 9475 H 884.124 2.49397 2.97881 0
M  V30 9476 H 885.796 4.44246 1.24269 0
M  V30 9477 H 884.039 4.19579 1.10162 0
M  V30 9478 H 884.71 4.87629 2.58693 0
M  V30 9479 H 887.186 2.97632 2.90783 0
M  V30 9480 H 886.062 3.60298 4.14097 0
M  V30 9481 H 886.323 1.87122 4.00547 0
M  V30 9482 N 885.382 -0.782676 1.36792 0
M  V30 9483 C 886.329 -1.89558 1.31667 0
M  V30 9484 C 887.299 -1.65076 0.184147 0
M  V30 9485 O 888.484 -1.87143 0.371753 0
M  V30 9486 C 885.624 -3.26469 1.11858 0
M  V30 9487 C 884.737 -3.62978 2.34245 0
M  V30 9488 C 883.872 -4.89041 2.07394 0
M  V30 9489 C 882.911 -5.18249 3.25706 0
M  V30 9490 N 882.048 -6.35497 2.98476 0
M  V30 9491 H 886.888 -1.93274 2.26824 0
M  V30 9492 H 884.425 -0.945057 1.12726 0
M  V30 9493 H 886.383 -4.05431 0.983968 0
M  V30 9494 H 885.013 -3.22158 0.203531 0
M  V30 9495 H 884.065 -2.79087 2.58485 0
M  V30 9496 H 885.377 -3.80507 3.22514 0
M  V30 9497 H 884.531 -5.75883 1.90901 0
M  V30 9498 H 883.27 -4.73594 1.16446 0
M  V30 9499 H 882.275 -4.29887 3.4275 0
M  V30 9500 H 883.5 -5.35611 4.1749 0
M  V30 9501 H 881.446 -6.21429 2.10146 0
M  V30 9502 H 881.363 -6.5339 3.80286 0
M  V30 9503 H 882.631 -7.25304 2.85577 0
M  V30 9504 N 886.86 -1.21182 -1.00761 0
M  V30 9505 C 888.108 -1.02543 -1.74153 0
M  V30 9506 C 888.429 0.442372 -1.89916 0
M  V30 9507 O 887.699 1.31927 -1.44818 0
M  V30 9508 H 886.279 -0.37644 -0.645214 0
M  V30 9509 H 888.941 -1.52446 -1.21434 0
M  V30 9510 H 888.037 -1.49122 -2.7417 0
M  V30 9511 N 888.338 1.20213 -1.01915 0
M  V30 9512 C 889.584 1.89928 -0.711007 0
M  V30 9513 C 889.917 1.7881 0.75767 0
M  V30 9514 O 889.192 1.17399 1.55073 0
M  V30 9515 C 889.475 3.41225 -1.15053 0
M  V30 9516 C 889.328 3.61264 -2.67971 0
M  V30 9517 C 890.647 4.34108 -0.72377 0
M  V30 9518 H 887.766 0.689702 -0.259768 0
M  V30 9519 H 890.408 1.41557 -1.26734 0
M  V30 9520 H 888.558 3.82552 -0.677199 0
M  V30 9521 H 890.23 3.29173 -3.23176 0
M  V30 9522 H 888.473 3.04647 -3.08824 0
M  V30 9523 H 889.144 4.67331 -2.93779 0
M  V30 9524 H 891.62 4.00442 -1.13073 0
M  V30 9525 H 890.496 5.38581 -1.05931 0
M  V30 9526 H 890.757 4.40512 0.374424 0
M  V30 9527 N 889.816 0.795718 1.36037 0
M  V30 9528 C 891.065 0.367575 1.98322 0
M  V30 9529 C 891.378 -1.06823 1.63854 0
M  V30 9530 O 892.584 -1.59895 2.19421 0
M  V30 9531 C 891.04 0.606272 3.54757 0
M  V30 9532 C 890.648 2.0539 3.98144 0
M  V30 9533 C 892.392 0.242947 4.23804 0
M  V30 9534 C 890.299 2.23893 5.47381 0
M  V30 9535 H 889.229 0.133699 0.742052 0
M  V30 9536 H 891.88 0.978242 1.5525 0
M  V30 9537 H 890.262 -0.0741957 3.9593 0
M  V30 9538 H 891.436 2.77129 3.68152 0
M  V30 9539 H 889.751 2.37607 3.41953 0
M  V30 9540 H 892.348 0.359382 5.33491 0
M  V30 9541 H 892.691 -0.809661 4.08351 0
M  V30 9542 H 893.224 0.876899 3.88015 0
M  V30 9543 H 889.963 3.27559 5.6779 0
M  V30 9544 H 889.483 1.56666 5.78978 0
M  V30 9545 H 891.162 2.04914 6.13693 0
M  V30 9546 N 891.294 -1.47756 0.548274 0
M  V30 9547 C 892.571 -1.9555 -0.0443603 0
M  V30 9548 C 892.951 -1.49079 -1.49462 0
M  V30 9549 O 892.299 -0.725538 -2.16675 0
M  V30 9550 C 892.509 -3.48879 0.0918425 0
M  V30 9551 C 893.857 -4.2456 -0.0580879 0
M  V30 9552 O 894.881 -3.56195 0.018946 0
M  V30 9553 O 893.74 -5.46048 -0.222261 0
M  V30 9554 H 890.834 -0.824106 -0.0691235 0
M  V30 9555 H 893.38 -1.58196 0.614166 0
M  V30 9556 H 892.152 -3.7548 1.10137 0
M  V30 9557 H 891.775 -3.92975 -0.604704 0
M  V30 9558 N 892.772 -0.284283 -1.55015 0
M  V30 9559 C 894.049 0.382125 -1.91831 0
M  V30 9560 C 894.429 1.73007 -1.20962 0
M  V30 9561 O 893.777 2.25962 -0.339594 0
M  V30 9562 C 893.987 0.513341 -3.45204 0
M  V30 9563 C 895.335 0.791989 -4.17148 0
M  V30 9564 O 896.359 0.597799 -3.51148 0
M  V30 9565 O 895.218 1.16394 -5.33961 0
M  V30 9566 H 892.312 0.210707 -0.799707 0
M  V30 9567 H 894.858 -0.331111 -1.66438 0
M  V30 9568 H 893.63 -0.434911 -3.88876 0
M  V30 9569 H 893.253 1.27569 -3.76579 0
M  V30 9570 N 894.251 1.57596 -0.0117121 0
M  V30 9571 C 895.498 1.91071 0.670667 0
M  V30 9572 C 895.826 0.886457 1.73125 0
M  V30 9573 O 895.081 -0.107135 1.95407 0
M  V30 9574 C 895.38 3.31296 1.34082 0
M  V30 9575 C 895.046 4.49011 0.412305 0
M  V30 9576 C 893.708 4.80945 0.156691 0
M  V30 9577 C 896.06 5.20709 -0.226294 0
M  V30 9578 C 893.388 5.81943 -0.745619 0
M  V30 9579 C 895.74 6.22668 -1.11655 0
M  V30 9580 C 894.404 6.53053 -1.38123 0
M  V30 9581 H 893.674 0.69918 0.245415 0
M  V30 9582 H 896.321 1.91373 -0.0697511 0
M  V30 9583 H 894.626 3.27174 2.15557 0
M  V30 9584 H 896.323 3.54461 1.87506 0
M  V30 9585 H 892.913 4.24067 0.621705 0
M  V30 9586 H 897.097 4.96282 -0.0418456 0
M  V30 9587 H 892.353 6.03839 -0.958566 0
M  V30 9588 H 896.527 6.77351 -1.61767 0
M  V30 9589 H 894.154 7.31132 -2.08208 0
M  V30 9590 N 895.729 -0.261212 1.5542 0
M  V30 9591 C 896.957 -1.00916 1.8062 0
M  V30 9592 C 897.372 -1.79494 0.585444 0
M  V30 9593 O 896.729 -1.76974 -0.445702 0
M  V30 9594 C 896.78 -1.95841 3.03856 0
M  V30 9595 O 896.501 -1.20445 4.21218 0
M  V30 9596 C 898.002 -2.82352 3.41749 0
M  V30 9597 H 895.222 -0.297596 0.601397 0
M  V30 9598 H 897.766 -0.288427 2.02456 0
M  V30 9599 H 895.921 -2.63361 2.84112 0
M  V30 9600 H 896.335 -1.84528 4.90968 0
M  V30 9601 H 897.809 -3.44733 4.31118 0
M  V30 9602 H 898.286 -3.5273 2.61683 0
M  V30 9603 H 898.892 -2.20306 3.63793 0
M  V30 9604 N 897.207 -1.48554 -0.526253 0
M  V30 9605 C 898.432 -1.60686 -1.31129 0
M  V30 9606 C 898.857 -0.268701 -1.86171 0
M  V30 9607 O 898.215 0.760167 -1.64594 0
M  V30 9608 C 898.263 -2.65938 -2.43536 0
M  V30 9609 O 897.367 -2.23356 -3.46678 0
M  V30 9610 H 896.708 -0.538691 -0.388211 0
M  V30 9611 H 899.238 -1.94567 -0.632826 0
M  V30 9612 H 899.248 -2.87327 -2.89668 0
M  V30 9613 H 897.923 -3.63085 -2.02835 0
M  V30 9614 H 896.5 -2.12196 -3.06639 0
M  V30 9615 N 898.685 0.775411 -1.37205 0
M  V30 9616 C 899.595 1.91967 -1.34855 0
M  V30 9617 C 900.611 1.72214 -0.248656 0
M  V30 9618 O 901.787 1.95512 -0.483421 0
M  V30 9619 C 898.852 3.27038 -1.15096 0
M  V30 9620 C 897.913 3.5947 -2.34691 0
M  V30 9621 C 897.146 4.88097 -2.15865 0
M  V30 9622 O 897.369 5.58871 -1.14102 0
M  V30 9623 O 896.303 5.19507 -3.03967 0
M  V30 9624 H 900.129 1.969 -2.31223 0
M  V30 9625 H 897.714 0.917647 -1.17897 0
M  V30 9626 H 899.596 4.07837 -1.0605 0
M  V30 9627 H 898.271 3.22965 -0.217999 0
M  V30 9628 H 897.178 2.7892 -2.49308 0
M  V30 9629 H 898.511 3.68282 -3.26541 0
M  V30 9630 N 900.163 1.21714 1.00117 0
M  V30 9631 C 901.388 1.06357 1.78054 0
M  V30 9632 C 901.813 -0.382075 1.84179 0
M  V30 9633 O 901.171 -1.27575 1.28819 0
M  V30 9634 C 901.219 1.66982 3.19608 0
M  V30 9635 O 900.323 0.917892 4.02055 0
M  V30 9636 H 899.664 0.374074 0.548602 0
M  V30 9637 H 902.194 1.61338 1.25822 0
M  V30 9638 H 902.204 1.71363 3.70268 0
M  V30 9639 H 900.879 2.72185 3.14465 0
M  V30 9640 H 899.456 0.949473 3.6061 0
M  V30 9641 N 901.641 -1.19671 1.02551 0
M  V30 9642 C 902.869 -1.93233 0.739513 0
M  V30 9643 C 903.284 -1.75298 -0.701158 0
M  V30 9644 O 902.641 -1.07269 -1.47647 0
M  V30 9645 C 902.692 -3.45085 1.07697 0
M  V30 9646 O 902.413 -3.62441 2.46106 0
M  V30 9647 C 903.914 -4.35776 0.813298 0
M  V30 9648 H 901.134 -0.613905 0.270853 0
M  V30 9649 H 903.678 -1.51909 1.36909 0
M  V30 9650 H 901.833 -3.84255 0.492635 0
M  V30 9651 H 902.247 -4.56337 2.58567 0
M  V30 9652 H 903.721 -5.40941 1.09941 0
M  V30 9653 H 904.198 -4.38474 -0.252359 0
M  V30 9654 H 904.804 -4.02282 1.38021 0
M  V30 9655 N 903.119 -0.802921 -1.35613 0
M  V30 9656 C 904.051 -0.168461 -2.2858 0
M  V30 9657 C 905.064 0.630123 -1.50111 0
M  V30 9658 O 906.253 0.463086 -1.72388 0
M  V30 9659 C 903.353 0.783943 -3.29708 0
M  V30 9660 C 902.526 0.0325165 -4.37388 0
M  V30 9661 C 901.585 0.902859 -5.18396 0
M  V30 9662 O 900.611 0.355144 -5.68091 0
M  V30 9663 N 901.813 2.22542 -5.36149 0
M  V30 9664 H 904.578 -0.96709 -2.83668 0
M  V30 9665 H 902.139 -0.658043 -1.47924 0
M  V30 9666 H 904.131 1.37034 -3.80794 0
M  V30 9667 H 902.701 1.48339 -2.75162 0
M  V30 9668 H 901.921 -0.735057 -3.87286 0
M  V30 9669 H 903.209 -0.485499 -5.06478 0
M  V30 9670 H 902.607 2.69439 -4.97412 0
M  V30 9671 H 901.164 2.76113 -5.90428 0
M  V30 9672 N 904.597 1.47463 -0.556102 0
M  V30 9673 C 905.544 2.29998 0.192213 0
M  V30 9674 C 906.514 1.38993 0.909403 0
M  V30 9675 O 907.699 1.67954 0.905316 0
M  V30 9676 C 904.839 3.22932 1.21692 0
M  V30 9677 C 903.952 4.29027 0.505908 0
M  V30 9678 C 903.087 5.09114 1.51581 0
M  V30 9679 C 902.126 6.06984 0.789714 0
M  V30 9680 N 901.263 6.80033 1.74639 0
M  V30 9681 H 906.103 2.93468 -0.517734 0
M  V30 9682 H 903.64 1.44654 -0.267147 0
M  V30 9683 H 905.598 3.75234 1.8236 0
M  V30 9684 H 904.228 2.61329 1.89491 0
M  V30 9685 H 903.28 3.7979 -0.215276 0
M  V30 9686 H 904.592 4.9876 -0.062958 0
M  V30 9687 H 903.746 5.6556 2.19606 0
M  V30 9688 H 902.485 4.3928 2.11859 0
M  V30 9689 H 901.49 5.49717 0.0955382 0
M  V30 9690 H 902.715 6.78827 0.192688 0
M  V30 9691 H 900.661 6.12931 2.33777 0
M  V30 9692 H 900.578 7.45933 1.22965 0
M  V30 9693 H 901.846 7.41054 2.41782 0
M  V30 9694 N 906.075 0.2925 1.54862 0
M  V30 9695 C 907.3 -0.32494 2.04839 0
M  V30 9696 C 907.725 -1.47381 1.16877 0
M  V30 9697 O 907.083 -1.80492 0.171028 0
M  V30 9698 C 907.131 -0.76694 3.5235 0
M  V30 9699 O 906.235 -1.87256 3.67436 0
M  V30 9700 H 905.576 -0.0645195 0.660858 0
M  V30 9701 H 908.106 0.431867 1.9999 0
M  V30 9702 H 908.116 -1.05804 3.94043 0
M  V30 9703 H 906.791 0.0735212 4.15835 0
M  V30 9704 H 905.368 -1.58266 3.37648 0
M  V30 9705 N 907.553 -1.57587 0.0200696 0
M  V30 9706 C 908.781 -1.95718 -0.670964 0
M  V30 9707 C 909.196 -0.896081 -1.6618 0
M  V30 9708 O 908.553 0.123037 -1.82085 0
M  V30 9709 C 908.604 -3.33904 -1.38529 0
M  V30 9710 O 908.325 -4.35943 -0.434167 0
M  V30 9711 C 909.826 -3.86614 -2.16898 0
M  V30 9712 H 907.046 -0.644819 -0.185606 0
M  V30 9713 H 909.59 -2.04354 0.0771495 0
M  V30 9714 H 907.745 -3.26515 -2.08487 0
M  V30 9715 H 908.159 -5.16001 -0.940378 0
M  V30 9716 H 909.633 -4.85673 -2.62346 0
M  V30 9717 H 910.11 -3.20379 -3.00423 0
M  V30 9718 H 910.716 -3.97243 -1.51916 0
M  V30 9719 N 909.032 0.252966 -1.55557 0
M  V30 9720 C 910.281 0.979736 -1.76307 0
M  V30 9721 C 910.594 1.86714 -0.582871 0
M  V30 9722 O 911.8 2.6302 -0.673247 0
M  V30 9723 C 910.256 1.79205 -3.12112 0
M  V30 9724 C 909.864 0.952333 -4.37761 0
M  V30 9725 C 911.608 2.51191 -3.42203 0
M  V30 9726 C 909.515 1.76018 -5.64599 0
M  V30 9727 H 908.445 0.369538 -0.657235 0
M  V30 9728 H 911.096 0.234619 -1.81994 0
M  V30 9729 H 909.478 2.57888 -3.00515 0
M  V30 9730 H 910.652 0.208251 -4.60329 0
M  V30 9731 H 908.967 0.346082 -4.14959 0
M  V30 9732 H 911.564 3.12074 -4.34182 0
M  V30 9733 H 911.907 3.22499 -2.63249 0
M  V30 9734 H 912.44 1.79523 -3.54988 0
M  V30 9735 H 909.179 1.09095 -6.46358 0
M  V30 9736 H 908.699 2.4797 -5.46142 0
M  V30 9737 H 910.378 2.32884 -6.03634 0
M  V30 9738 N 910.51 1.48831 0.518367 0
M  V30 9739 C 911.787 1.47933 1.27966 0
M  V30 9740 C 912.167 0.197393 2.10175 0
M  V30 9741 O 911.515 -0.820656 2.13255 0
M  V30 9742 C 911.725 2.74816 2.15121 0
M  V30 9743 C 913.073 3.23613 2.74881 0
M  V30 9744 O 914.097 2.75814 2.254 0
M  V30 9745 O 912.956 4.06818 3.64913 0
M  V30 9746 H 910.05 0.591316 0.578164 0
M  V30 9747 H 912.596 1.61077 0.534065 0
M  V30 9748 H 911.368 3.59621 1.54234 0
M  V30 9749 H 910.991 2.64449 2.96905 0
M  V30 9750 N 911.988 -0.768124 1.37614 0
M  V30 9751 C 912.935 -1.88151 1.33671 0
M  V30 9752 C 913.905 -1.64871 0.201645 0
M  V30 9753 O 915.09 -1.86739 0.391582 0
M  V30 9754 C 912.23 -3.25264 1.15314 0
M  V30 9755 C 911.343 -3.60473 2.38082 0
M  V30 9756 C 910.478 -4.86814 2.12569 0
M  V30 9757 C 909.517 -5.14765 3.31184 0
M  V30 9758 N 908.654 -6.32295 3.052 0
M  V30 9759 H 913.494 -1.90857 2.28862 0
M  V30 9760 H 911.031 -0.933048 1.13722 0
M  V30 9761 H 912.989 -4.04364 1.02691 0
M  V30 9762 H 911.619 -3.21924 0.237689 0
M  V30 9763 H 910.671 -2.7633 2.61431 0
M  V30 9764 H 911.983 -3.77065 3.26532 0
M  V30 9765 H 911.137 -5.73826 1.96999 0
M  V30 9766 H 909.876 -4.72333 1.21462 0
M  V30 9767 H 908.881 -4.26227 3.4729 0
M  V30 9768 H 910.106 -5.31153 4.23147 0
M  V30 9769 H 908.052 -6.19166 2.16726 0
M  V30 9770 H 907.969 -6.4932 3.87195 0
M  V30 9771 H 909.237 -7.22234 2.93254 0
M  V30 9772 N 913.466 -1.22244 -0.994698 0
M  V30 9773 C 914.712 -1.04746 -1.73655 0
M  V30 9774 C 915.045 0.41668 -1.89677 0
M  V30 9775 O 914.32 1.30897 -1.43862 0
M  V30 9776 C 914.603 -1.75716 -3.14318 0
M  V30 9777 C 914.456 -3.29714 -3.05955 0
M  V30 9778 C 915.775 -1.50809 -4.13455 0
M  V30 9779 H 912.894 -0.381921 -0.630322 0
M  V30 9780 H 915.536 -1.50559 -1.15897 0
M  V30 9781 H 913.686 -1.3677 -3.63629 0
M  V30 9782 H 915.358 -3.78093 -2.64279 0
M  V30 9783 H 913.601 -3.59484 -2.42804 0
M  V30 9784 H 914.272 -3.74547 -4.05485 0
M  V30 9785 H 916.748 -1.84636 -3.72892 0
M  V30 9786 H 915.624 -2.02964 -5.09997 0
M  V30 9787 H 915.885 -0.440292 -4.39902 0
M  V30 9788 N 914.944 1.19125 -1.03184 0
M  V30 9789 C 916.169 1.93379 -0.749628 0
M  V30 9790 C 916.594 1.75153 0.685785 0
M  V30 9791 O 915.952 1.05579 1.47386 0
M  V30 9792 C 916 3.43101 -1.1097 0
M  V30 9793 O 915.104 4.11758 -0.230053 0
M  V30 9794 H 914.445 0.603605 -0.276689 0
M  V30 9795 H 916.975 1.51116 -1.37931 0
M  V30 9796 H 916.985 3.93778 -1.06785 0
M  V30 9797 H 915.66 3.55688 -2.15544 0
M  V30 9798 H 914.237 3.7143 -0.330748 0
M  V30 9799 N 916.422 0.810101 1.35185 0
M  V30 9800 C 917.699 0.315235 1.93043 0
M  V30 9801 C 918.079 -1.19567 1.73974 0
M  V30 9802 O 917.427 -1.99682 1.11083 0
M  V30 9803 C 917.637 0.730492 3.41269 0
M  V30 9804 C 918.985 0.721985 4.18417 0
M  V30 9805 O 920.009 0.672258 3.49799 0
M  V30 9806 O 918.868 0.783535 5.40854 0
M  V30 9807 H 915.962 0.0832774 0.822796 0
M  V30 9808 H 918.508 0.894034 1.4424 0
M  V30 9809 H 917.28 1.77169 3.48894 0
M  V30 9810 H 916.903 0.12669 3.97398 0
M  V30 9811 N 917.9 -1.47166 0.563914 0
M  V30 9812 C 919.146 -2.02756 0.0424338 0
M  V30 9813 C 919.479 -1.43662 -1.3067 0
M  V30 9814 O 918.754 -0.594676 -1.85186 0
M  V30 9815 C 919.037 -3.60074 -0.0434793 0
M  V30 9816 C 918.89 -4.29587 1.33323 0
M  V30 9817 C 920.209 -4.336 -0.753568 0
M  V30 9818 H 917.328 -0.736806 0.0168946 0
M  V30 9819 H 919.97 -1.75521 0.727496 0
M  V30 9820 H 918.12 -3.83409 -0.626906 0
M  V30 9821 H 919.792 -4.17573 1.96037 0
M  V30 9822 H 918.035 -3.8968 1.9061 0
M  V30 9823 H 918.706 -5.38218 1.22576 0
M  V30 9824 H 921.182 -4.15299 -0.258126 0
M  V30 9825 H 920.058 -5.43291 -0.782659 0
M  V30 9826 H 920.319 -4.03302 -1.81108 0
M  V30 9827 N 919.378 -0.300708 -1.54705 0
M  V30 9828 C 920.603 0.314073 -2.05008 0
M  V30 9829 C 921.028 1.46759 -1.17657 0
M  V30 9830 O 920.386 1.80398 -0.180598 0
M  V30 9831 C 920.434 0.748243 -3.52752 0
M  V30 9832 O 919.538 1.85305 -3.68424 0
M  V30 9833 H 918.879 0.0610139 -0.661191 0
M  V30 9834 H 921.409 -0.442467 -1.99758 0
M  V30 9835 H 921.419 1.03713 -3.94598 0
M  V30 9836 H 920.094 -0.095573 -4.1579 0
M  V30 9837 H 918.671 1.56473 -3.38483 0
M  V30 9838 N 920.856 1.57574 -0.0284266 0
M  V30 9839 C 922.105 1.9095 0.649704 0
M  V30 9840 C 922.418 0.906421 1.7333 0
M  V30 9841 O 923.624 1.1314 2.46803 0
M  V30 9842 C 922.08 3.39061 1.20687 0
M  V30 9843 C 921.688 4.47726 0.156597 0
M  V30 9844 C 923.432 3.81505 1.86156 0
M  V30 9845 C 921.339 5.86935 0.725365 0
M  V30 9846 H 920.269 0.712589 0.24644 0
M  V30 9847 H 922.92 1.83261 -0.0936143 0
M  V30 9848 H 921.302 3.41679 2.00178 0
M  V30 9849 H 922.476 4.56667 -0.6158 0
M  V30 9850 H 920.791 4.14481 -0.399288 0
M  V30 9851 H 923.388 4.82865 2.29665 0
M  V30 9852 H 923.731 3.16529 2.70398 0
M  V30 9853 H 924.264 3.81307 1.13356 0
M  V30 9854 H 921.003 6.55453 -0.0789081 0
M  V30 9855 H 920.523 5.81602 1.46627 0
M  V30 9856 H 922.202 6.35483 1.21532 0
M  V30 9857 N 922.334 -0.244713 1.55689 0
M  V30 9858 C 923.583 -0.970373 1.76824 0
M  V30 9859 C 923.896 -1.86402 0.592764 0
M  V30 9860 O 925.102 -2.62659 0.687186 0
M  V30 9861 C 923.558 -1.77547 3.13058 0
M  V30 9862 C 923.166 -0.929104 4.3826 0
M  V30 9863 C 924.91 -2.49373 3.43531 0
M  V30 9864 C 922.817 -1.73021 5.65524 0
M  V30 9865 H 921.747 -0.366048 0.659185 0
M  V30 9866 H 924.398 -0.224964 1.82116 0
M  V30 9867 H 922.78 -2.56291 3.01879 0
M  V30 9868 H 923.954 -0.183836 4.60433 0
M  V30 9869 H 922.269 -0.324071 4.15137 0
M  V30 9870 H 924.866 -3.09767 4.35831 0
M  V30 9871 H 925.209 -3.21099 2.64955 0
M  V30 9872 H 925.742 -1.77637 3.55935 0
M  V30 9873 H 922.481 -1.05666 6.46927 0
M  V30 9874 H 922.001 -2.45071 5.47449 0
M  V30 9875 H 923.68 -2.2968 6.0486 0
M  V30 9876 N 923.813 -1.49104 -0.510467 0
M  V30 9877 C 925.062 -1.57362 -1.26175 0
M  V30 9878 C 925.375 -0.261218 -1.93848 0
M  V30 9879 O 926.581 -0.222238 -2.70589 0
M  V30 9880 C 925.037 -2.77606 -2.29048 0
M  V30 9881 C 924.645 -4.15567 -1.67357 0
M  V30 9882 C 926.389 -2.95188 -3.05064 0
M  V30 9883 C 924.296 -5.27046 -2.68285 0
M  V30 9884 H 923.226 -0.585887 -0.474608 0
M  V30 9885 H 925.877 -1.75474 -0.536753 0
M  V30 9886 H 924.259 -2.52968 -3.04669 0
M  V30 9887 H 925.433 -4.50304 -0.977924 0
M  V30 9888 H 923.748 -4.03264 -1.03765 0
M  V30 9889 H 926.345 -3.75643 -3.80521 0
M  V30 9890 H 926.688 -2.05385 -3.62108 0
M  V30 9891 H 927.221 -3.19821 -2.36558 0
M  V30 9892 H 923.96 -6.18878 -2.16034 0
M  V30 9893 H 923.48 -4.96774 -3.36118 0
M  V30 9894 H 925.159 -5.55983 -3.30896 0
M  V30 9895 N 925.291 0.760815 -1.38019 0
M  V30 9896 C 926.702 1.33773 -1.30237 0
M  V30 9897 C 927.053 1.96148 0.0451153 0
M  V30 9898 O 926.178 1.94574 0.9471 0
M  V30 9899 C 926.773 2.43227 -2.35851 0
M  V30 9900 C 925.332 2.96659 -2.31669 0
M  V30 9901 C 924.479 1.69972 -2.191 0
M  V30 9902 H 927.43 0.560237 -1.48482 0
M  V30 9903 H 927.451 3.22985 -2.01149 0
M  V30 9904 H 926.963 1.978 -3.33911 0
M  V30 9905 H 925.064 3.46433 -1.37167 0
M  V30 9906 H 925.177 3.51529 -3.25521 0
M  V30 9907 H 923.541 1.9332 -1.65829 0
M  V30 9908 H 924.324 1.26633 -3.19091 0
M  V30 9909 N 926.769 1.22769 0.988202 0
M  V30 9910 C 927.999 1.07998 1.76125 0
M  V30 9911 C 928.407 -0.372062 1.85506 0
M  V30 9912 O 927.75 -1.26946 1.3278 0
M  V30 9913 C 927.812 1.6219 3.20834 0
M  V30 9914 C 927.476 3.1086 3.34986 0
M  V30 9915 C 928.473 4.08239 3.21927 0
M  V30 9916 C 926.158 3.50411 3.59886 0
M  V30 9917 C 928.152 5.43154 3.33561 0
M  V30 9918 C 925.839 4.85473 3.71159 0
M  V30 9919 C 926.837 5.81653 3.58006 0
M  V30 9920 O 926.525 7.14263 3.68895 0
M  V30 9921 H 926.257 0.378937 0.559806 0
M  V30 9922 H 928.811 1.62925 1.25078 0
M  V30 9923 H 927.041 1.01676 3.73094 0
M  V30 9924 H 928.73 1.43011 3.79872 0
M  V30 9925 H 929.496 3.79025 3.02597 0
M  V30 9926 H 925.375 2.76068 3.69198 0
M  V30 9927 H 928.919 6.18207 3.23211 0
M  V30 9928 H 924.816 5.14365 3.89998 0
M  V30 9929 H 925.584 7.21906 3.85739 0
M  V30 9930 N 928.247 -1.18576 1.03814 0
M  V30 9931 C 929.496 -1.87822 0.735235 0
M  V30 9932 C 929.809 -1.81069 -0.739819 0
M  V30 9933 O 931.015 -2.45654 -1.15614 0
M  V30 9934 C 929.471 -3.36941 1.26486 0
M  V30 9935 C 929.079 -3.5223 2.76836 0
M  V30 9936 C 930.823 -4.11604 1.03836 0
M  V30 9937 C 928.73 -4.95294 3.23169 0
M  V30 9938 H 927.66 -0.703487 0.271333 0
M  V30 9939 H 930.311 -1.34 1.25365 0
M  V30 9940 H 928.693 -3.90217 0.674318 0
M  V30 9941 H 929.867 -3.09239 3.41625 0
M  V30 9942 H 928.182 -2.90969 2.97869 0
M  V30 9943 H 930.779 -5.17123 1.3597 0
M  V30 9944 H 931.122 -4.16293 -0.0244945 0
M  V30 9945 H 931.655 -3.64494 1.59338 0
M  V30 9946 H 928.394 -4.95772 4.28824 0
M  V30 9947 H 927.914 -5.3901 2.63113 0
M  V30 9948 H 929.593 -5.63996 3.17045 0
M  V30 9949 N 929.725 -0.817259 -1.34754 0
M  V30 9950 C 930.973 -0.401852 -1.98065 0
M  V30 9951 C 931.294 1.03718 -1.65129 0
M  V30 9952 O 930.564 1.71921 -0.939141 0
M  V30 9953 H 929.144 -0.145603 -0.732672 0
M  V30 9954 H 931.806 -1.04545 -1.64488 0
M  V30 9955 H 930.902 -0.516241 -3.07801 0
M  V30 9956 N 931.203 1.46865 -0.571711 0
M  V30 9957 C 932.614 1.86158 -0.142181 0
M  V30 9958 C 932.965 1.47663 1.2919 0
M  V30 9959 O 932.09 0.886393 1.97413 0
M  V30 9960 C 932.685 3.37867 -0.251256 0
M  V30 9961 C 931.244 3.76198 0.123329 0
M  V30 9962 C 930.391 2.70902 -0.592232 0
M  V30 9963 H 933.342 1.38176 -0.780587 0
M  V30 9964 H 933.363 3.76842 0.526331 0
M  V30 9965 H 932.875 3.65853 -1.2951 0
M  V30 9966 H 930.976 3.53829 1.16773 0
M  V30 9967 H 931.089 4.78471 -0.24533 0
M  V30 9968 H 929.453 2.54678 -0.0336927 0
M  V30 9969 H 930.236 3.01729 -1.63751 0
M  V30 9970 N 932.681 0.308908 1.54543 0
M  V30 9971 C 933.644 -0.550857 2.22482 0
M  V30 9972 C 934.644 -1.0551 1.21344 0
M  V30 9973 O 935.834 -0.949866 1.46025 0
M  V30 9974 C 932.966 -1.76354 2.9174 0
M  V30 9975 H 934.159 0.0428395 2.99869 0
M  V30 9976 H 931.712 0.059825 1.56185 0
M  V30 9977 H 932.447 -2.39686 2.18451 0
M  V30 9978 H 932.232 -1.40954 3.65889 0
M  V30 9979 H 933.722 -2.37417 3.43545 0
M  V30 9980 N 934.159 -1.57557 0.0367827 0
M  V30 9981 C 935.089 -2.13712 -0.940719 0
M  V30 9982 C 936.07 -1.05515 -1.33419 0
M  V30 9983 O 937.255 -1.33385 -1.41146 0
M  V30 9984 C 934.385 -2.67043 -2.22048 0
M  V30 9985 C 933.339 -3.80096 -1.96752 0
M  V30 9986 C 932.665 -4.19886 -3.31059 0
M  V30 9987 C 933.965 -5.05848 -1.30058 0
M  V30 9988 H 935.659 -2.9564 -0.473033 0
M  V30 9989 H 933.205 -1.42214 -0.226089 0
M  V30 9990 H 935.158 -3.04964 -2.90818 0
M  V30 9991 H 933.882 -1.82287 -2.70996 0
M  V30 9992 H 932.541 -3.42625 -1.30398 0
M  V30 9993 H 932.189 -3.32101 -3.77781 0
M  V30 9994 H 931.889 -4.96073 -3.14937 0
M  V30 9995 H 933.413 -4.60395 -4.01084 0
M  V30 9996 H 934.827 -5.41306 -1.8884 0
M  V30 9997 H 933.224 -5.87084 -1.24309 0
M  V30 9998 H 934.294 -4.84122 -0.274591 0
M  V30 9999 N 935.637 0.236453 -1.55816 0
M  V30 10000 C 936.585 1.31259 -1.92025 0
M  V30 10001 C 937.579 1.49292 -0.800518 0
M  V30 10002 O 938.785 1.50643 -0.985229 0
M  V30 10003 H 935.16 0.439751 -0.610019 0
M  V30 10004 H 937.131 0.979926 -2.81851 0
M  V30 10005 C 935.88 2.65892 -2.24046 0
M  V30 10006 H 935.203 2.5282 -3.09713 0
M  V30 10007 H 936.643 3.40039 -2.53277 0
M  V30 10008 C 935.102 3.19777 -1.0604 0
M  V30 10009 O 935.632 4.00473 -0.313786 0
M  V30 10010 N 933.838 2.77946 -0.848209 0
M  V30 10011 H 933.385 2.12433 -1.45706 0
M  V30 10012 H 933.343 3.14342 -0.0603424 0
M  V30 10013 N 937.115 1.49373 0.502552 0
M  V30 10014 C 938.361 1.59016 1.25864 0
M  V30 10015 C 938.694 0.27532 1.92238 0
M  V30 10016 O 937.969 -0.720988 1.80643 0
M  V30 10017 C 938.252 2.74828 2.32683 0
M  V30 10018 C 938.105 4.16102 1.7082 0
M  V30 10019 C 939.424 2.86288 3.34256 0
M  V30 10020 H 936.543 0.578798 0.456248 0
M  V30 10021 H 939.185 1.81651 0.557032 0
M  V30 10022 H 937.335 2.5566 2.92524 0
M  V30 10023 H 939.007 4.46782 1.14818 0
M  V30 10024 H 937.25 4.21822 1.01238 0
M  V30 10025 H 937.921 4.93006 2.48292 0
M  V30 10026 H 940.397 3.03733 2.84404 0
M  V30 10027 H 939.273 3.69001 4.06362 0
M  V30 10028 H 939.534 1.95576 3.96488 0
M  V30 10029 N 938.594 -0.753485 1.38421 0
M  V30 10030 C 939.842 -1.50962 1.34368 0
M  V30 10031 C 940.163 -1.94889 -0.0656895 0
M  V30 10032 O 939.433 -1.67652 -1.01339 0
M  V30 10033 H 938.013 -0.559967 0.494415 0
M  V30 10034 H 940.675 -0.895665 1.73101 0
M  V30 10035 H 939.771 -2.40048 1.99458 0
M  V30 10036 N 940.072 -1.23292 -0.981677 0
M  V30 10037 C 941.02 -1.0104 -2.09508 0
M  V30 10038 C 942.014 0.0501977 -1.69326 0
M  V30 10039 O 943.22 -0.103197 -1.79704 0
M  V30 10040 H 939.595 -0.309629 -0.685298 0
M  V30 10041 H 941.566 -1.95493 -2.25444 0
M  V30 10042 C 940.315 -0.616885 -3.42184 0
M  V30 10043 H 939.638 -1.4247 -3.73554 0
M  V30 10044 H 941.078 -0.500688 -4.21033 0
M  V30 10045 C 939.537 0.674721 -3.30074 0
M  V30 10046 O 940.067 1.72421 -3.62814 0
M  V30 10047 N 938.273 0.650151 -2.83234 0
M  V30 10048 H 937.82 -0.204225 -2.56789 0
M  V30 10049 H 937.778 1.51458 -2.75514 0
M  V30 10050 N 941.55 1.18024 -1.04442 0
M  V30 10051 C 942.46 2.25436 -0.649276 0
M  V30 10052 C 943.476 1.70915 0.326189 0
M  V30 10053 O 944.652 2.00592 0.180174 0
M  V30 10054 C 941.717 3.46693 -0.0222558 0
M  V30 10055 C 940.778 4.16332 -1.0472 0
M  V30 10056 C 940.011 5.31799 -0.450011 0
M  V30 10057 O 940.234 5.65544 0.742717 0
M  V30 10058 O 939.168 5.90209 -1.18056 0
M  V30 10059 H 942.994 2.61508 -1.54426 0
M  V30 10060 H 940.579 1.25178 -0.81552 0
M  V30 10061 H 942.461 4.20132 0.326597 0
M  V30 10062 H 941.136 3.12436 0.84649 0
M  V30 10063 H 940.043 3.44944 -1.44792 0
M  V30 10064 H 941.376 4.54598 -1.88684 0
M  V30 10065 N 943.028 0.824394 1.34319 0
M  V30 10066 C 944.256 0.426194 2.02463 0
M  V30 10067 C 944.671 -0.968298 1.62078 0
M  V30 10068 O 944.028 -1.62689 0.82696 0
M  V30 10069 C 944.079 0.520465 3.57734 0
M  V30 10070 O 943.8 1.86 3.96656 0
M  V30 10071 C 945.301 0.117353 4.43145 0
M  V30 10072 H 942.521 0.170864 0.648881 0
M  V30 10073 H 945.065 1.11296 1.71562 0
M  V30 10074 H 943.22 -0.118233 3.8722 0
M  V30 10075 H 943.634 1.83528 4.91343 0
M  V30 10076 H 945.108 0.234395 5.51502 0
M  V30 10077 H 945.585 -0.939271 4.29039 0
M  V30 10078 H 946.191 0.729908 4.1899 0
M  V30 10079 N 944.506 -1.46559 0.579492 0
M  V30 10080 C 945.469 -2.28739 -0.145371 0
M  V30 10081 C 946.469 -1.38211 -0.821854 0
M  V30 10082 O 947.659 -1.6062 -0.674302 0
M  V30 10083 C 944.791 -3.18507 -1.21515 0
M  V30 10084 H 945.984 -2.94301 0.576786 0
M  V30 10085 H 943.537 -1.52616 0.337327 0
M  V30 10086 H 944.272 -2.57685 -1.96899 0
M  V30 10087 H 944.057 -3.85157 -0.734616 0
M  V30 10088 H 945.547 -3.80369 -1.72363 0
M  V30 10089 N 945.984 -0.3171 -1.54377 0
M  V30 10090 C 946.931 0.551782 -2.24107 0
M  V30 10091 C 947.901 1.11681 -1.22949 0
M  V30 10092 O 949.086 1.15836 -1.51614 0
M  V30 10093 C 946.226 1.70997 -2.99756 0
M  V30 10094 C 945.339 1.17479 -4.15719 0
M  V30 10095 C 944.474 2.29815 -4.78914 0
M  V30 10096 C 943.513 1.73513 -5.86992 0
M  V30 10097 N 942.65 2.79485 -6.44075 0
M  V30 10098 H 947.49 -0.049431 -2.97959 0
M  V30 10099 H 945.027 -0.0361658 -1.47056 0
M  V30 10100 H 946.985 2.39141 -3.41859 0
M  V30 10101 H 945.615 2.28257 -2.28251 0
M  V30 10102 H 944.667 0.385109 -3.78446 0
M  V30 10103 H 945.979 0.72276 -4.93536 0
M  V30 10104 H 945.133 3.05875 -5.23952 0
M  V30 10105 H 943.872 2.78352 -4.00464 0
M  V30 10106 H 942.877 0.959475 -5.41363 0
M  V30 10107 H 944.102 1.2586 -6.67335 0
M  V30 10108 H 942.048 3.27325 -5.68502 0
M  V30 10109 H 941.965 2.38825 -7.17286 0
M  V30 10110 H 943.233 3.55394 -6.93769 0
M  V30 10111 N 947.462 1.57535 -0.0451378 0
M  V30 10112 C 948.372 2.14653 0.946646 0
M  V30 10113 C 949.388 1.10279 1.3459 0
M  V30 10114 O 950.564 1.42417 1.42405 0
M  V30 10115 C 947.629 2.67533 2.20515 0
M  V30 10116 C 946.69 3.86682 1.86481 0
M  V30 10117 C 945.923 4.37031 3.06332 0
M  V30 10118 O 946.146 3.86481 4.1951 0
M  V30 10119 O 945.08 5.28691 2.87697 0
M  V30 10120 H 948.906 2.99706 0.49091 0
M  V30 10121 H 946.491 1.48355 0.17641 0
M  V30 10122 H 948.373 3.01542 2.94365 0
M  V30 10123 H 947.048 1.85554 2.65238 0
M  V30 10124 H 945.955 3.57573 1.09966 0
M  V30 10125 H 947.288 4.69873 1.46562 0
M  V30 10126 N 948.94 -0.228186 1.55939 0
M  V30 10127 C 949.888 -1.30239 1.92719 0
M  V30 10128 C 950.882 -1.48865 0.808424 0
M  V30 10129 O 952.088 -1.50118 0.993204 0
M  V30 10130 H 948.463 -0.436509 0.612343 0
M  V30 10131 H 950.434 -0.964965 2.82367 0
M  V30 10132 C 949.183 -2.647 2.25453 0
M  V30 10133 H 948.506 -2.51173 3.1105 0
M  V30 10134 H 949.946 -3.38691 2.55077 0
M  V30 10135 C 948.405 -3.1921 1.07734 0
M  V30 10136 O 948.935 -4.00301 0.335019 0
M  V30 10137 N 947.141 -2.77492 0.862938 0
M  V30 10138 H 946.688 -2.11657 1.4683 0
M  V30 10139 H 946.646 -3.14306 0.0770119 0
M  V30 10140 N 950.418 -1.49637 -0.494624 0
M  V30 10141 C 951.665 -1.59445 -1.24834 0
M  V30 10142 C 951.993 -0.284028 -1.92415 0
M  V30 10143 O 951.248 0.728519 -1.81634 0
M  V30 10144 C 951.547 -2.70749 -2.33302 0
M  V30 10145 C 951.213 -4.12034 -1.83135 0
M  V30 10146 C 949.875 -4.50482 -1.69173 0
M  V30 10147 C 952.227 -5.00432 -1.4566 0
M  V30 10148 C 949.555 -5.75093 -1.16124 0
M  V30 10149 C 951.907 -6.25568 -0.940608 0
M  V30 10150 C 950.571 -6.62839 -0.787432 0
M  V30 10151 H 949.841 -0.583451 -0.456799 0
M  V30 10152 H 952.488 -1.8349 -0.548044 0
M  V30 10153 H 950.793 -2.407 -3.09145 0
M  V30 10154 H 952.49 -2.75546 -2.91334 0
M  V30 10155 H 949.08 -3.8169 -1.94964 0
M  V30 10156 H 953.264 -4.71379 -1.55291 0
M  V30 10157 H 948.52 -6.02665 -1.02982 0
M  V30 10158 H 952.694 -6.93439 -0.641467 0
M  V30 10159 H 950.321 -7.59279 -0.374191 0
M  V30 10160 N 951.896 0.746133 -1.38819 0
M  V30 10161 C 952.843 1.86001 -1.36647 0
M  V30 10162 C 953.813 1.6453 -0.227849 0
M  V30 10163 O 954.998 1.86092 -0.421241 0
M  V30 10164 C 952.138 3.23388 -1.20474 0
M  V30 10165 C 951.251 3.5664 -2.43786 0
M  V30 10166 C 950.386 4.8337 -2.20287 0
M  V30 10167 C 949.425 5.09431 -3.39332 0
M  V30 10168 N 948.562 6.2736 -3.1522 0
M  V30 10169 H 953.402 1.87192 -2.31869 0
M  V30 10170 H 950.939 0.914838 -1.15192 0
M  V30 10171 H 952.897 4.02679 -1.09112 0
M  V30 10172 H 951.527 3.21505 -0.288874 0
M  V30 10173 H 950.579 2.72135 -2.65794 0
M  V30 10174 H 951.891 3.71823 -3.3249 0
M  V30 10175 H 951.045 5.70619 -2.06103 0
M  V30 10176 H 949.784 4.70341 -1.28961 0
M  V30 10177 H 948.789 4.20648 -3.54027 0
M  V30 10178 H 950.014 5.24354 -4.31544 0
M  V30 10179 H 947.96 6.15639 -2.26549 0
M  V30 10180 H 947.877 6.43078 -3.97476 0
M  V30 10181 H 949.145 7.17477 -3.04707 0
M  V30 10182 N 953.375 1.23811 0.975125 0
M  V30 10183 C 954.323 1.02149 2.0897 0
M  V30 10184 C 955.317 -0.0412172 1.6935 0
M  V30 10185 O 956.523 0.112726 1.79647 0
M  V30 10186 H 952.898 0.313259 0.683647 0
M  V30 10187 H 954.869 1.96686 2.24404 0
M  V30 10188 C 953.618 0.635023 3.41852 0
M  V30 10189 H 952.941 1.44449 3.72793 0
M  V30 10190 H 954.381 0.52301 4.20762 0
M  V30 10191 C 952.84 -0.657207 3.30428 0
M  V30 10192 O 953.37 -1.70494 3.63723 0
M  V30 10193 N 951.576 -0.635122 2.83575 0
M  V30 10194 H 951.123 0.21784 2.56677 0
M  V30 10195 H 951.081 -1.49995 2.76313 0
M  V30 10196 N 954.853 -1.17469 1.05066 0
M  V30 10197 C 955.816 -2.19648 0.654793 0
M  V30 10198 C 956.816 -1.58107 -0.293063 0
M  V30 10199 O 958.006 -1.74029 -0.077106 0
M  V30 10200 C 955.138 -3.40878 -0.0384437 0
M  V30 10201 H 956.331 -2.56184 1.55915 0
M  V30 10202 H 953.884 -1.31528 0.844396 0
M  V30 10203 H 954.619 -3.09885 -0.956133 0
M  V30 10204 H 954.404 -3.86792 0.642961 0
M  V30 10205 H 955.894 -4.1651 -0.301568 0
M  V30 10206 N 956.331 -0.831506 -1.3388 0
M  V30 10207 C 957.578 -0.423674 -1.98018 0
M  V30 10208 C 957.906 1.01533 -1.65895 0
M  V30 10209 O 957.161 1.72342 -0.927183 0
M  V30 10210 C 957.46 -0.582733 -3.52617 0
M  V30 10211 C 957.126 -1.98874 -4.04673 0
M  V30 10212 C 955.788 -2.37334 -4.186 0
M  V30 10213 C 958.14 -2.90745 -4.3257 0
M  V30 10214 C 955.468 -3.66984 -4.57755 0
M  V30 10215 C 957.82 -4.19868 -4.73174 0
M  V30 10216 C 956.484 -4.58294 -4.85307 0
M  V30 10217 H 955.754 -0.155033 -0.7246 0
M  V30 10218 H 958.401 -1.05711 -1.59679 0
M  V30 10219 H 956.706 0.134052 -3.91571 0
M  V30 10220 H 958.403 -0.247576 -4.00235 0
M  V30 10221 H 954.993 -1.68001 -3.94301 0
M  V30 10222 H 959.177 -2.62272 -4.2134 0
M  V30 10223 H 954.433 -3.9657 -4.65341 0
M  V30 10224 H 958.607 -4.91138 -4.93717 0
M  V30 10225 H 956.234 -5.58805 -5.15404 0
M  V30 10226 N 957.809 1.4625 -0.587256 0
M  V30 10227 C 958.719 2.34147 0.145744 0
M  V30 10228 C 959.735 1.50026 0.881376 0
M  V30 10229 O 960.911 1.82884 0.843539 0
M  V30 10230 C 957.976 3.27294 1.14366 0
M  V30 10231 C 957.037 4.27317 0.412199 0
M  V30 10232 C 956.27 5.16013 1.36257 0
M  V30 10233 O 956.493 5.0773 2.59934 0
M  V30 10234 O 955.427 5.95569 0.870681 0
M  V30 10235 H 959.253 2.98187 -0.576055 0
M  V30 10236 H 956.838 1.45299 -0.347628 0
M  V30 10237 H 958.72 3.84747 1.71894 0
M  V30 10238 H 957.395 2.65845 1.84684 0
M  V30 10239 H 956.302 3.73538 -0.205036 0
M  V30 10240 H 957.635 4.91564 -0.250104 0
M  V30 10241 N 959.287 0.325282 1.54207 0
M  V30 10242 C 960.536 -0.27768 1.99779 0
M  V30 10243 C 960.849 -1.5311 1.21723 0
M  V30 10244 O 962.055 -2.21017 1.57682 0
M  V30 10245 C 960.511 -0.545329 3.55745 0
M  V30 10246 C 960.119 0.691143 4.42637 0
M  V30 10247 C 961.863 -1.10815 4.09781 0
M  V30 10248 C 959.77 0.395302 5.90077 0
M  V30 10249 H 958.7 -0.107536 0.746292 0
M  V30 10250 H 961.351 0.437773 1.78202 0
M  V30 10251 H 959.733 -1.32101 3.73317 0
M  V30 10252 H 960.907 1.46653 4.3684 0
M  V30 10253 H 959.222 1.1743 3.99499 0
M  V30 10254 H 961.819 -1.34414 5.1753 0
M  V30 10255 H 962.162 -2.05806 3.6187 0
M  V30 10256 H 962.695 -0.393608 3.95848 0
M  V30 10257 H 959.434 1.31443 6.42186 0
M  V30 10258 H 958.954 -0.34235 5.98822 0
M  V30 10259 H 960.633 0.00576877 6.47 0
M  V30 10260 N 960.765 -1.57509 0.0534917 0
M  V30 10261 C 962.013 -1.92402 -0.618548 0
M  V30 10262 C 962.334 -0.93273 -1.71246 0
M  V30 10263 O 961.604 0.0220495 -1.95888 0
M  V30 10264 H 960.184 -0.710233 -0.23147 0
M  V30 10265 H 962.846 -1.94606 0.10704 0
M  V30 10266 H 961.942 -2.93704 -1.05566 0
M  V30 10267 N 962.243 0.219913 -1.56058 0
M  V30 10268 C 963.491 0.942199 -1.78793 0
M  V30 10269 C 963.812 1.84804 -0.622284 0
M  V30 10270 O 963.082 1.9255 0.360735 0
M  V30 10271 H 961.662 0.350895 -0.659455 0
M  V30 10272 H 964.324 0.231376 -1.93522 0
M  V30 10273 H 963.42 1.54804 -2.71002 0
M  V30 10274 N 963.721 1.49897 0.486681 0
M  V30 10275 C 964.684 1.67086 1.56891 0
M  V30 10276 C 965.684 0.54209 1.51387 0
M  V30 10277 O 966.874 0.80883 1.54284 0
M  V30 10278 C 964.006 1.68159 2.96539 0
M  V30 10279 H 965.199 2.63626 1.42974 0
M  V30 10280 H 962.752 1.39143 0.711954 0
M  V30 10281 H 963.487 0.732562 3.15918 0
M  V30 10282 H 963.272 2.50147 3.01942 0
M  V30 10283 H 964.762 1.83466 3.7514 0
M  V30 10284 N 965.199 -0.738761 1.39212 0
M  V30 10285 C 966.162 -1.83441 1.37412 0
M  V30 10286 C 967.162 -1.58484 0.271908 0
M  V30 10287 O 968.352 -1.65954 0.529609 0
M  V30 10288 C 965.484 -3.21167 1.143 0
M  V30 10289 H 966.677 -1.86441 2.34904 0
M  V30 10290 H 964.23 -0.942023 1.24722 0
M  V30 10291 H 964.965 -3.23829 0.174756 0
M  V30 10292 H 964.75 -3.40678 1.94116 0
M  V30 10293 H 966.24 -4.01231 1.15773 0
M  V30 10294 N 966.677 -1.24326 -0.968545 0
M  V30 10295 C 967.926 -1.07647 -1.70572 0
M  V30 10296 C 968.239 0.384821 -1.91777 0
M  V30 10297 O 969.445 0.671782 -2.63058 0
M  V30 10298 C 967.901 -1.87799 -3.07017 0
M  V30 10299 C 967.509 -3.38333 -2.93658 0
M  V30 10300 C 969.253 -1.79647 -3.84613 0
M  V30 10301 C 967.16 -4.10831 -4.25407 0
M  V30 10302 H 966.09 -0.399216 -0.639642 0
M  V30 10303 H 968.741 -1.484 -1.07934 0
M  V30 10304 H 967.123 -1.3986 -3.7048 0
M  V30 10305 H 968.297 -3.93845 -2.39213 0
M  V30 10306 H 966.612 -3.47427 -2.29528 0
M  V30 10307 H 969.209 -2.31116 -4.82172 0
M  V30 10308 H 969.552 -0.761553 -4.09275 0
M  V30 10309 H 970.085 -2.25261 -3.27875 0
M  V30 10310 H 966.824 -5.14679 -4.05939 0
M  V30 10311 H 966.344 -3.60105 -4.79671 0
M  V30 10312 H 968.023 -4.17783 -4.94031 0
M  V30 10313 N 968.156 1.1691 -1.05688 0
M  V30 10314 C 969.086 2.23275 -0.683402 0
M  V30 10315 C 970.067 1.6704 0.321206 0
M  V30 10316 O 971.252 1.93191 0.197691 0
M  V30 10317 C 968.382 3.47244 -0.0626006 0
M  V30 10318 C 967.336 4.16333 -0.992513 0
M  V30 10319 C 966.662 5.34182 -0.23533 0
M  V30 10320 C 967.962 4.68002 -2.31886 0
M  V30 10321 H 969.656 2.54771 -1.57264 0
M  V30 10322 H 967.202 1.2246 -0.757606 0
M  V30 10323 H 969.155 4.20874 0.210503 0
M  V30 10324 H 967.879 3.1503 0.861616 0
M  V30 10325 H 966.538 3.44622 -1.25026 0
M  V30 10326 H 966.186 4.9822 0.69181 0
M  V30 10327 H 965.886 5.81346 -0.855002 0
M  V30 10328 H 967.41 6.10592 0.0303717 0
M  V30 10329 H 968.824 5.33244 -2.10531 0
M  V30 10330 H 967.221 5.25764 -2.89296 0
M  V30 10331 H 968.291 3.84541 -2.95391 0
M  V30 10332 N 969.634 0.838594 1.33437 0
M  V30 10333 C 970.567 0.216651 2.27169 0
M  V30 10334 C 971.545 -0.636065 1.49643 0
M  V30 10335 O 972.729 -0.596388 1.78817 0
M  V30 10336 C 969.856 -0.69584 3.31475 0
M  V30 10337 C 968.902 0.0813808 4.26422 0
M  V30 10338 S 969.735 1.43909 5.15801 0
M  V30 10339 C 970.891 0.531887 6.23636 0
M  V30 10340 H 971.124 1.01128 2.79572 0
M  V30 10341 H 968.657 0.635332 1.40723 0
M  V30 10342 H 970.615 -1.21671 3.92054 0
M  V30 10343 H 969.276 -1.46413 2.77888 0
M  V30 10344 H 968.469 -0.612944 5.00259 0
M  V30 10345 H 968.071 0.533304 3.70178 0
M  V30 10346 H 970.363 -0.270371 6.7696 0
M  V30 10347 H 971.306 1.24041 6.97151 0
M  V30 10348 H 971.714 0.113357 5.64386 0
M  V30 10349 N 971.112 -1.45937 0.595003 0
M  V30 10350 C 972.022 -2.34221 -0.133325 0
M  V30 10351 C 973.038 -1.50491 -0.873407 0
M  V30 10352 O 974.214 -1.83328 -0.833828 0
M  V30 10353 C 971.279 -3.27896 -1.12628 0
M  V30 10354 C 970.34 -4.27529 -0.389532 0
M  V30 10355 C 969.573 -5.16729 -1.33519 0
M  V30 10356 O 969.796 -5.09102 -2.57238 0
M  V30 10357 O 968.73 -5.96023 -0.839084 0
M  V30 10358 H 972.556 -2.97877 0.591861 0
M  V30 10359 H 970.141 -1.45113 0.355329 0
M  V30 10360 H 972.023 -3.85654 -1.69851 0
M  V30 10361 H 970.698 -2.6682 -1.83272 0
M  V30 10362 H 969.605 -3.73424 0.224843 0
M  V30 10363 H 970.938 -4.91425 0.276169 0
M  V30 10364 N 972.59 -0.333456 -1.54032 0
M  V30 10365 C 973.837 0.266133 -2.00744 0
M  V30 10366 C 974.165 1.51361 -1.22148 0
M  V30 10367 O 973.42 1.93473 -0.294368 0
M  V30 10368 C 973.719 0.63565 -3.51702 0
M  V30 10369 C 973.385 -0.513786 -4.47963 0
M  V30 10370 C 972.047 -0.829253 -4.74001 0
M  V30 10371 C 974.399 -1.2854 -5.05101 0
M  V30 10372 C 971.727 -1.91888 -5.54433 0
M  V30 10373 C 974.079 -2.3652 -5.86721 0
M  V30 10374 C 972.743 -2.68637 -6.11057 0
M  V30 10375 H 972.013 0.097385 -0.734573 0
M  V30 10376 H 974.66 -0.459282 -1.85911 0
M  V30 10377 H 972.965 1.44163 -3.64313 0
M  V30 10378 H 974.662 1.11129 -3.85294 0
M  V30 10379 H 971.252 -0.25784 -4.27824 0
M  V30 10380 H 975.436 -1.05494 -4.84958 0
M  V30 10381 H 970.692 -2.17208 -5.71516 0
M  V30 10382 H 974.866 -2.96747 -6.30011 0
M  V30 10383 H 972.493 -3.53197 -6.73169 0
M  V30 10384 N 974.068 1.57479 -0.061844 0
M  V30 10385 C 975.317 1.92285 0.609055 0
M  V30 10386 C 975.63 0.942983 1.71369 0
M  V30 10387 O 976.836 1.18349 2.44348 0
M  V30 10388 C 975.292 3.41545 1.13468 0
M  V30 10389 C 974.9 4.47958 0.0615926 0
M  V30 10390 C 976.644 3.85368 1.78022 0
M  V30 10391 C 974.551 5.88341 0.600705 0
M  V30 10392 H 973.481 0.717656 0.23127 0
M  V30 10393 H 976.132 1.83021 -0.132466 0
M  V30 10394 H 974.514 3.45848 1.92886 0
M  V30 10395 H 975.688 4.55258 -0.712527 0
M  V30 10396 H 974.003 4.13541 -0.487116 0
M  V30 10397 H 976.6 4.87627 2.19371 0
M  V30 10398 H 976.943 3.22193 2.63623 0
M  V30 10399 H 977.476 3.83626 1.05242 0
M  V30 10400 H 974.215 6.55138 -0.217922 0
M  V30 10401 H 973.735 5.84581 1.34257 0
M  V30 10402 H 975.414 6.37918 1.08025 0
M  V30 10403 N 975.546 -0.211634 1.56173 0
M  V30 10404 C 976.957 -0.777776 1.69728 0
M  V30 10405 C 977.308 -1.84566 0.66558 0
M  V30 10406 O 976.433 -2.15639 -0.181338 0
M  V30 10407 C 977.028 -1.41757 3.07718 0
M  V30 10408 C 975.587 -1.93098 3.23094 0
M  V30 10409 C 974.734 -0.794785 2.65666 0
M  V30 10410 H 977.685 0.0131839 1.58695 0
M  V30 10411 H 977.706 -2.28662 3.04128 0
M  V30 10412 H 977.218 -0.640114 3.82785 0
M  V30 10413 H 975.319 -2.73615 2.52914 0
M  V30 10414 H 975.432 -2.10414 4.30422 0
M  V30 10415 H 973.796 -1.20473 2.24407 0
M  V30 10416 H 974.579 -0.0298408 3.43287 0
M  V30 10417 N 977.024 -1.50153 -0.478725 0
M  V30 10418 C 977.934 -1.71232 -1.60364 0
M  V30 10419 C 978.95 -0.595269 -1.63501 0
M  V30 10420 O 980.126 -0.872683 -1.81511 0
M  V30 10421 C 977.191 -1.79487 -2.96623 0
M  V30 10422 C 976.252 -3.03185 -3.03937 0
M  V30 10423 C 975.485 -3.11036 -4.33696 0
M  V30 10424 O 975.708 -2.2588 -5.23769 0
M  V30 10425 O 974.642 -4.03698 -4.46443 0
M  V30 10426 H 978.468 -2.66575 -1.45505 0
M  V30 10427 H 976.053 -1.34158 -0.65741 0
M  V30 10428 H 977.935 -1.8714 -3.77567 0
M  V30 10429 H 976.61 -0.873264 -3.11698 0
M  V30 10430 H 975.517 -3.01036 -2.22099 0
M  V30 10431 H 976.85 -3.94898 -2.93796 0
M  V30 10432 N 978.502 0.731368 -1.39602 0
M  V30 10433 C 979.432 1.85855 -1.41351 0
M  V30 10434 C 980.413 1.67839 -0.2764 0
M  V30 10435 O 981.598 1.88104 -0.482747 0
M  V30 10436 C 978.728 3.23644 -1.25983 0
M  V30 10437 C 977.682 3.56304 -2.37132 0
M  V30 10438 C 977.008 4.93069 -2.0685 0
M  V30 10439 C 978.308 3.58906 -3.79452 0
M  V30 10440 H 980.002 1.84648 -2.3568 0
M  V30 10441 H 977.548 0.886955 -1.13442 0
M  V30 10442 H 979.501 4.02176 -1.25826 0
M  V30 10443 H 978.225 3.25387 -0.281234 0
M  V30 10444 H 976.884 2.80104 -2.36511 0
M  V30 10445 H 976.532 4.91396 -1.0742 0
M  V30 10446 H 976.232 5.15888 -2.81306 0
M  V30 10447 H 977.756 5.73953 -2.0835 0
M  V30 10448 H 979.17 4.27508 -3.81982 0
M  V30 10449 H 977.567 3.93246 -4.53297 0
M  V30 10450 H 978.637 2.58631 -4.10168 0
M  V30 10451 N 979.98 1.24838 0.961938 0
M  V30 10452 C 981.229 1.0855 1.69999 0
M  V30 10453 C 981.542 -0.374645 1.91979 0
M  V30 10454 O 982.748 -0.657822 2.6341 0
M  V30 10455 C 981.204 1.89424 3.06017 0
M  V30 10456 C 980.812 3.39885 2.9186 0
M  V30 10457 C 982.556 1.81684 3.83655 0
M  V30 10458 C 980.463 4.13082 4.23223 0
M  V30 10459 H 979.393 0.402603 0.637516 0
M  V30 10460 H 982.044 1.4897 1.07146 0
M  V30 10461 H 980.426 1.41823 3.69733 0
M  V30 10462 H 981.6 3.95108 2.37121 0
M  V30 10463 H 979.915 3.4864 2.27683 0
M  V30 10464 H 982.512 2.3367 4.80939 0
M  V30 10465 H 982.855 0.783247 4.08865 0
M  V30 10466 H 983.388 2.26997 3.26676 0
M  V30 10467 H 980.127 5.16824 4.03204 0
M  V30 10468 H 979.647 3.62644 4.77755 0
M  V30 10469 H 981.326 4.20397 4.91808 0
M  V30 10470 N 981.458 -1.16348 1.06306 0
M  V30 10471 C 982.704 -1.87158 0.781007 0
M  V30 10472 C 983.037 -1.81499 -0.690784 0
M  V30 10473 O 982.312 -1.23074 -1.50609 0
M  V30 10474 C 982.595 -3.3672 1.27639 0
M  V30 10475 C 982.448 -3.51069 2.81194 0
M  V30 10476 C 983.767 -4.31122 0.884388 0
M  V30 10477 H 980.886 -0.679586 0.285187 0
M  V30 10478 H 983.528 -1.36756 1.31901 0
M  V30 10479 H 981.678 -3.79775 0.818715 0
M  V30 10480 H 983.35 -3.16952 3.35171 0
M  V30 10481 H 981.593 -2.92976 3.19918 0
M  V30 10482 H 982.264 -4.56105 3.10921 0
M  V30 10483 H 984.74 -3.95969 1.27858 0
M  V30 10484 H 983.616 -5.34279 1.25847 0
M  V30 10485 H 983.877 -4.41598 -0.210673 0
M  V30 10486 N 982.937 -0.845659 -1.3299 0
M  V30 10487 C 984.348 -0.50048 -1.79867 0
M  V30 10488 C 984.699 0.981027 -1.69913 0
M  V30 10489 O 983.824 1.76477 -1.25239 0
M  V30 10490 C 984.419 -0.901679 -3.26581 0
M  V30 10491 C 982.978 -0.608536 -3.71448 0
M  V30 10492 C 982.125 -1.10632 -2.54275 0
M  V30 10493 H 985.076 -1.03372 -1.20416 0
M  V30 10494 H 985.097 -0.214433 -3.79895 0
M  V30 10495 H 984.609 -1.97998 -3.33794 0
M  V30 10496 H 982.71 0.459416 -3.69757 0
M  V30 10497 H 982.823 -1.16853 -4.64631 0
M  V30 10498 H 981.187 -0.526925 -2.4919 0
M  V30 10499 H 981.97 -2.19154 -2.64247 0
M  V30 10500 N 984.415 1.45619 -0.602734 0
M  V30 10501 C 985.664 2.01483 -0.0936395 0
M  V30 10502 C 985.977 1.47753 1.28173 0
M  V30 10503 O 987.183 1.95562 1.88329 0
M  V30 10504 C 985.639 3.59711 -0.116738 0
M  V30 10505 C 985.247 4.22437 -1.49166 0
M  V30 10506 C 986.991 4.23157 0.337368 0
M  V30 10507 C 984.898 5.72803 -1.47141 0
M  V30 10508 H 983.828 0.753353 -0.0312382 0
M  V30 10509 H 986.479 1.67142 -0.757347 0
M  V30 10510 H 984.861 3.91218 0.613529 0
M  V30 10511 H 986.035 4.02511 -2.24325 0
M  V30 10512 H 984.35 3.71166 -1.88746 0
M  V30 10513 H 986.947 5.33407 0.371628 0
M  V30 10514 H 987.29 3.93491 1.35906 0
M  V30 10515 H 987.823 3.96349 -0.339474 0
M  V30 10516 H 984.562 6.07161 -2.47055 0
M  V30 10517 H 984.082 5.94936 -0.762329 0
M  V30 10518 H 985.761 6.35907 -1.19294 0
M  V30 10519 N 985.893 0.34162 1.53853 0
M  V30 10520 C 987.139 -0.255862 2.01179 0
M  V30 10521 C 987.472 -1.50356 1.22909 0
M  V30 10522 O 986.747 -1.91913 0.316198 0
M  V30 10523 C 987.03 -0.571934 3.55529 0
M  V30 10524 C 986.883 0.687727 4.44511 0
M  V30 10525 C 988.202 -1.38233 4.17827 0
M  V30 10526 H 985.321 -0.091521 0.731295 0
M  V30 10527 H 987.963 0.461775 1.84303 0
M  V30 10528 H 986.113 -1.18331 3.70041 0
M  V30 10529 H 987.785 1.32572 4.4184 0
M  V30 10530 H 986.028 1.313 4.13452 0
M  V30 10531 H 986.699 0.421858 5.50386 0
M  V30 10532 H 989.175 -0.865374 4.07002 0
M  V30 10533 H 988.051 -1.57223 5.25901 0
M  V30 10534 H 988.312 -2.38386 3.72323 0
M  V30 10535 N 987.371 -1.57444 0.0701946 0
M  V30 10536 C 988.619 -1.93047 -0.598106 0
M  V30 10537 C 988.94 -0.950841 -1.70247 0
M  V30 10538 O 988.21 0.00127177 -1.959 0
M  V30 10539 H 986.79 -0.712648 -0.223924 0
M  V30 10540 H 989.452 -1.94481 0.127674 0
M  V30 10541 H 988.548 -2.94807 -1.02445 0
M  V30 10542 N 988.849 0.203349 -1.56283 0
M  V30 10543 C 990.096 0.92501 -1.80138 0
M  V30 10544 C 990.424 1.83598 -0.64204 0
M  V30 10545 O 989.679 1.92119 0.372658 0
M  V30 10546 C 989.978 1.78016 -3.09912 0
M  V30 10547 C 989.644 1.02088 -4.39191 0
M  V30 10548 C 988.306 0.811208 -4.74313 0
M  V30 10549 C 990.658 0.486037 -5.18929 0
M  V30 10550 C 987.986 0.0550856 -5.86674 0
M  V30 10551 C 990.338 -0.256833 -6.32078 0
M  V30 10552 C 989.002 -0.477594 -6.65789 0
M  V30 10553 H 988.272 0.338485 -0.659173 0
M  V30 10554 H 990.919 0.191923 -1.90536 0
M  V30 10555 H 989.224 2.58167 -2.94715 0
M  V30 10556 H 990.921 2.341 -3.25574 0
M  V30 10557 H 987.511 1.1943 -4.11624 0
M  V30 10558 H 991.695 0.635446 -4.92215 0
M  V30 10559 H 986.951 -0.126006 -6.1127 0
M  V30 10560 H 991.125 -0.678683 -6.93085 0
M  V30 10561 H 988.752 -1.0654 -7.52697 0
M  V30 10562 N 990.327 1.50405 0.470755 0
M  V30 10563 C 991.574 1.61411 1.22281 0
M  V30 10564 C 991.902 0.314603 1.91939 0
M  V30 10565 O 991.157 -0.699531 1.82771 0
M  V30 10566 C 991.456 2.74426 2.28965 0
M  V30 10567 C 991.122 4.14896 1.76557 0
M  V30 10568 C 989.784 4.53116 1.61985 0
M  V30 10569 C 992.136 5.02686 1.3768 0
M  V30 10570 C 989.464 5.76868 1.0696 0
M  V30 10571 C 991.816 6.26985 0.840967 0
M  V30 10572 C 990.48 6.64008 0.68188 0
M  V30 10573 H 989.75 0.590645 0.447459 0
M  V30 10574 H 992.397 1.84339 0.518783 0
M  V30 10575 H 990.702 2.45588 3.05277 0
M  V30 10576 H 992.399 2.80146 2.86914 0
M  V30 10577 H 988.989 3.84743 1.88867 0
M  V30 10578 H 993.173 4.7379 1.47772 0
M  V30 10579 H 988.429 6.04227 0.933808 0
M  V30 10580 H 992.603 6.94372 0.531066 0
M  V30 10581 H 990.23 7.59778 0.25335 0
M  V30 10582 N 991.805 -0.723954 1.39988 0
M  V30 10583 C 993.033 -1.51313 1.4111 0
M  V30 10584 C 993.448 -1.88798 0.00853333 0
M  V30 10585 O 992.805 -1.54868 -0.965516 0
M  V30 10586 C 992.856 -2.79375 2.29416 0
M  V30 10587 O 992.577 -2.43478 3.64211 0
M  V30 10588 C 994.078 -3.7333 2.3904 0
M  V30 10589 H 991.298 -0.46724 0.481589 0
M  V30 10590 H 993.842 -0.893694 1.83938 0
M  V30 10591 H 991.997 -3.37624 1.89971 0
M  V30 10592 H 992.411 -3.25821 4.11024 0
M  V30 10593 H 993.885 -4.60051 3.05053 0
M  V30 10594 H 994.362 -4.15854 1.41289 0
M  V30 10595 H 994.968 -3.20996 2.79001 0
M  V30 10596 N 993.283 -1.25346 -0.955304 0
M  V30 10597 C 994.213 -1.08152 -2.06943 0
M  V30 10598 C 995.194 0.00922598 -1.70097 0
M  V30 10599 O 996.379 -0.160181 -1.93538 0
M  V30 10600 C 993.509 -0.698745 -3.40198 0
M  V30 10601 C 992.463 -1.73965 -3.9105 0
M  V30 10602 C 991.789 -1.21158 -5.20792 0
M  V30 10603 C 993.089 -3.13829 -4.17503 0
M  V30 10604 H 994.783 -2.01345 -2.21586 0
M  V30 10605 H 992.329 -0.969459 -1.06478 0
M  V30 10606 H 994.282 -0.565394 -4.1759 0
M  V30 10607 H 993.006 0.268892 -3.25491 0
M  V30 10608 H 991.665 -1.86143 -3.15827 0
M  V30 10609 H 991.313 -0.234193 -5.02455 0
M  V30 10610 H 991.013 -1.90728 -5.55785 0
M  V30 10611 H 992.537 -1.09061 -6.00781 0
M  V30 10612 H 993.951 -3.04809 -4.85556 0
M  V30 10613 H 992.348 -3.80863 -4.63749 0
M  V30 10614 H 993.418 -3.6094 -3.23806 0
M  V30 10615 N 994.761 1.15782 -1.06922 0
M  V30 10616 C 995.671 2.24008 -0.696948 0
M  V30 10617 C 996.687 1.71569 0.289862 0
M  V30 10618 O 997.863 2.00929 0.137585 0
M  V30 10619 C 994.928 3.46568 -0.0957895 0
M  V30 10620 C 993.989 4.14017 -1.13528 0
M  V30 10621 C 993.222 5.30725 -0.562713 0
M  V30 10622 O 993.445 5.66992 0.62259 0
M  V30 10623 O 992.379 5.87572 -1.30549 0
M  V30 10624 H 996.205 2.58174 -1.59938 0
M  V30 10625 H 993.79 1.2342 -0.841889 0
M  V30 10626 H 995.672 4.20731 0.237407 0
M  V30 10627 H 994.347 3.14161 0.780027 0
M  V30 10628 H 993.254 3.41795 -1.52076 0
M  V30 10629 H 994.587 4.50493 -1.98285 0
M  V30 10630 N 996.239 0.8527 1.3254 0
M  V30 10631 C 997.464 0.468157 2.02047 0
M  V30 10632 C 997.889 -0.926967 1.63673 0
M  V30 10633 O 997.247 -1.60855 0.836378 0
M  V30 10634 C 997.295 0.612519 3.5536 0
M  V30 10635 O 996.399 -0.355506 4.10865 0
M  V30 10636 H 995.74 0.188401 0.636711 0
M  V30 10637 H 998.27 1.15135 1.6913 0
M  V30 10638 H 998.28 0.499315 4.04933 0
M  V30 10639 H 996.955 1.62988 3.82632 0
M  V30 10640 H 995.532 -0.198703 3.7237 0
M  V30 10641 N 997.718 -1.45297 0.610449 0
M  V30 10642 C 998.948 -2.0629 0.113047 0
M  V30 10643 C 999.356 -1.45527 -1.20907 0
M  V30 10644 O 998.699 -0.564837 -1.74801 0
M  V30 10645 C 998.761 -3.59366 -0.0979692 0
M  V30 10646 C 998.425 -4.42481 1.14279 0
M  V30 10647 C 999.422 -4.77277 2.06161 0
M  V30 10648 C 997.107 -4.83187 1.37241 0
M  V30 10649 C 999.101 -5.51639 3.19333 0
M  V30 10650 C 996.788 -5.57303 2.50713 0
M  V30 10651 C 997.786 -5.91445 3.41587 0
M  V30 10652 O 997.474 -6.64056 4.53083 0
M  V30 10653 H 997.206 -0.67264 0.0673159 0
M  V30 10654 H 999.76 -1.87486 0.838937 0
M  V30 10655 H 997.99 -3.76582 -0.878783 0
M  V30 10656 H 999.679 -4.02193 -0.547327 0
M  V30 10657 H 1000.44 -4.46384 1.89647 0
M  V30 10658 H 996.324 -4.56045 0.67407 0
M  V30 10659 H 999.868 -5.78207 3.90286 0
M  V30 10660 H 995.765 -5.8761 2.67179 0
M  V30 10661 H 996.533 -6.82509 4.51801 0
M  V30 10662 N 999.196 -0.349774 -1.5367 0
M  V30 10663 C 1000.44 0.245189 -2.01312 0
M  V30 10664 C 1000.77 1.49702 -1.23705 0
M  V30 10665 O 1000.05 1.91742 -0.326371 0
M  V30 10666 C 1000.33 0.553071 -3.55827 0
M  V30 10667 C 1000.19 -0.71129 -4.4414 0
M  V30 10668 C 1001.5 1.36015 -4.18555 0
M  V30 10669 H 998.624 0.0876415 -0.73177 0
M  V30 10670 H 1001.27 -0.471543 -1.84056 0
M  V30 10671 H 999.416 1.16367 -3.70663 0
M  V30 10672 H 1001.09 -1.34913 -4.41131 0
M  V30 10673 H 999.331 -1.33491 -4.1275 0
M  V30 10674 H 1000 -0.45104 -5.50154 0
M  V30 10675 H 1002.48 0.843778 -4.07455 0
M  V30 10676 H 1001.35 1.54432 -5.26728 0
M  V30 10677 H 1001.61 2.36408 -3.73582 0
M  V30 10678 N 1000.67 1.57404 -0.0785433 0
M  V30 10679 C 1001.92 1.93361 0.58786 0
M  V30 10680 C 1002.24 0.959856 1.6974 0
M  V30 10681 O 1001.51 0.0091173 1.95898 0
M  V30 10682 H 1000.09 0.713825 0.220141 0
M  V30 10683 H 1002.75 1.94411 -0.137986 0
M  V30 10684 H 1001.85 2.95346 1.00881 0
M  V30 10685 N 1002.15 -0.195058 1.56388 0
M  V30 10686 C 1003.1 -1.26122 1.95438 0
M  V30 10687 C 1004.09 -1.47117 0.839818 0
M  V30 10688 O 1005.3 -1.47978 1.02482 0
M  V30 10689 H 1001.67 -0.423422 0.621464 0
M  V30 10690 H 1003.65 -0.904854 2.8435 0
M  V30 10691 C 1002.39 -2.59858 2.31017 0
M  V30 10692 H 1001.72 -2.44519 3.16308 0
M  V30 10693 H 1003.16 -3.33205 2.62203 0
M  V30 10694 C 1001.62 -3.16853 1.14481 0
M  V30 10695 O 1002.15 -3.995 0.419853 0
M  V30 10696 N 1000.35 -2.75599 0.921604 0
M  V30 10697 H 999.9 -2.08495 1.51287 0
M  V30 10698 H 999.858 -3.14072 0.143663 0
M  V30 10699 N 1003.63 -1.50653 -0.462772 0
M  V30 10700 C 1004.58 -1.70122 -1.55971 0
M  V30 10701 C 1005.55 -0.542581 -1.56988 0
M  V30 10702 O 1006.73 -0.774114 -1.74391 0
M  V30 10703 C 1003.87 -1.80899 -2.93887 0
M  V30 10704 C 1002.98 -3.08318 -3.02595 0
M  V30 10705 C 1002.12 -3.09841 -4.31477 0
M  V30 10706 C 1001.16 -4.3168 -4.33957 0
M  V30 10707 N 1000.3 -4.30894 -5.54323 0
M  V30 10708 H 1005.14 -2.63768 -1.38674 0
M  V30 10709 H 1002.67 -1.30746 -0.674091 0
M  V30 10710 H 1004.63 -1.85128 -3.73876 0
M  V30 10711 H 1003.26 -0.906854 -3.098 0
M  V30 10712 H 1002.31 -3.13521 -2.15427 0
M  V30 10713 H 1003.62 -3.98282 -3.00288 0
M  V30 10714 H 1002.78 -3.12845 -5.1982 0
M  V30 10715 H 1001.52 -2.17722 -4.36404 0
M  V30 10716 H 1000.52 -4.28879 -3.4401 0
M  V30 10717 H 1001.75 -5.25035 -4.30715 0
M  V30 10718 H 999.694 -3.41633 -5.6002 0
M  V30 10719 H 999.611 -5.14636 -5.53792 0
M  V30 10720 H 1000.88 -4.38056 -6.44769 0
M  V30 10721 N 1005.11 0.71652 -1.4037 0
M  V30 10722 C 1006.36 1.47347 -1.38324 0
M  V30 10723 C 1006.68 1.94995 0.0139949 0
M  V30 10724 O 1005.95 1.7028 0.968585 0
M  V30 10725 H 1004.53 0.546662 -0.509087 0
M  V30 10726 H 1007.19 0.849455 -1.75415 0
M  V30 10727 H 1006.29 2.34675 -2.05752 0
M  V30 10728 N 1006.59 1.25851 0.948643 0
M  V30 10729 C 1007.54 1.03437 2.03187 0
M  V30 10730 C 1008.52 -0.0307632 1.60871 0
M  V30 10731 O 1009.71 0.185296 1.76027 0
M  V30 10732 C 1006.84 0.661426 3.36868 0
M  V30 10733 C 1005.93 1.76363 3.8569 0
M  V30 10734 N 1006.32 2.9998 4.07241 0
M  V30 10735 C 1004.62 1.64552 4.14534 0
M  V30 10736 C 1005.32 3.71564 4.47566 0
M  V30 10737 N 1004.29 2.99214 4.53841 0
M  V30 10738 H 1008.1 1.97277 2.17851 0
M  V30 10739 H 1005.61 1.16258 1.13392 0
M  V30 10740 H 1007.61 0.482021 4.14104 0
M  V30 10741 H 1006.27 -0.269582 3.23579 0
M  V30 10742 H 1007.28 3.35963 3.94143 0
M  V30 10743 H 1003.95 0.783891 4.10075 0
M  V30 10744 H 1005.34 4.77702 4.72494 0
M  V30 10745 N 1008.06 -1.15214 1.07534 0
M  V30 10746 C 1009.31 -1.85388 0.794617 0
M  V30 10747 C 1009.63 -1.83331 -0.681838 0
M  V30 10748 O 1010.83 -2.49207 -1.0774 0
M  V30 10749 C 1009.29 -3.32747 1.37141 0
M  V30 10750 C 1008.9 -3.43244 2.87902 0
M  V30 10751 C 1010.64 -4.08093 1.16879 0
M  V30 10752 C 1008.55 -4.84762 3.38763 0
M  V30 10753 H 1007.48 -0.694499 0.293577 0
M  V30 10754 H 1010.13 -1.29944 1.29564 0
M  V30 10755 H 1008.51 -3.87874 0.798121 0
M  V30 10756 H 1009.68 -2.98214 3.51291 0
M  V30 10757 H 1008 -2.81345 3.06975 0
M  V30 10758 H 1010.6 -5.12535 1.52353 0
M  V30 10759 H 1010.94 -4.1616 0.107958 0
M  V30 10760 H 1011.47 -3.59241 1.70854 0
M  V30 10761 H 1008.21 -4.81879 4.4438 0
M  V30 10762 H 1007.73 -5.30366 2.80128 0
M  V30 10763 H 1009.41 -5.53624 3.34827 0
M  V30 10764 N 1009.54 -0.859717 -1.32086 0
M  V30 10765 C 1010.79 -0.461779 -1.96343 0
M  V30 10766 C 1011.1 0.988837 -1.68764 0
M  V30 10767 O 1012.31 1.49244 -2.268 0
M  V30 10768 C 1010.77 -0.77484 -3.5146 0
M  V30 10769 C 1010.37 -2.24153 -3.87891 0
M  V30 10770 C 1012.12 -0.444873 -4.22162 0
M  V30 10771 C 1010.03 -2.49754 -5.36075 0
M  V30 10772 H 1008.96 -0.168951 -0.734828 0
M  V30 10773 H 1011.61 -1.0512 -1.50406 0
M  V30 10774 H 1009.99 -0.114792 -3.95834 0
M  V30 10775 H 1011.16 -2.94378 -3.54511 0
M  V30 10776 H 1009.48 -2.53651 -3.30227 0
M  V30 10777 H 1012.07 -0.613508 -5.31169 0
M  V30 10778 H 1012.42 0.61391 -4.11749 0
M  V30 10779 H 1012.95 -1.06103 -3.83389 0
M  V30 10780 H 1009.69 -3.54276 -5.51515 0
M  V30 10781 H 1009.21 -1.84112 -5.70844 0
M  V30 10782 H 1010.89 -2.3396 -6.03218 0
M  V30 10783 N 1011.02 1.44971 -0.618145 0
M  V30 10784 C 1011.95 2.27748 0.143561 0
M  V30 10785 C 1012.93 1.37768 0.863642 0
M  V30 10786 O 1014.12 1.67203 0.870373 0
M  V30 10787 C 1011.24 3.16394 1.20883 0
M  V30 10788 C 1010.29 4.22389 0.590724 0
M  V30 10789 S 1011.12 5.32021 -0.609406 0
M  V30 10790 C 1012.28 6.24235 0.456199 0
M  V30 10791 H 1012.51 2.92003 -0.558699 0
M  V30 10792 H 1010.04 1.48968 -0.40595 0
M  V30 10793 H 1012 3.6802 1.81855 0
M  V30 10794 H 1010.66 2.51384 1.88322 0
M  V30 10795 H 1009.86 4.84379 1.3926 0
M  V30 10796 H 1009.46 3.73958 0.055917 0
M  V30 10797 H 1011.75 6.64269 1.33238 0
M  V30 10798 H 1012.69 7.07985 -0.127794 0
M  V30 10799 H 1013.1 5.59137 0.776269 0
M  V30 10800 N 1012.5 0.357919 1.53482 0
M  V30 10801 C 1013.73 -0.23514 2.05559 0
M  V30 10802 C 1014.14 -1.43068 1.23195 0
M  V30 10803 O 1013.5 -1.80481 0.270741 0
M  V30 10804 C 1013.55 -0.636147 3.55859 0
M  V30 10805 O 1013.27 0.511864 4.35099 0
M  V30 10806 C 1014.77 -1.28841 4.24164 0
M  V30 10807 H 1011.99 -0.0428446 0.669631 0
M  V30 10808 H 1014.54 0.51407 1.97933 0
M  V30 10809 H 1012.69 -1.33528 3.63661 0
M  V30 10810 H 1013.1 0.189328 5.24158 0
M  V30 10811 H 1014.58 -1.51962 5.30671 0
M  V30 10812 H 1015.06 -2.24638 3.77405 0
M  V30 10813 H 1015.66 -0.630914 4.20594 0
M  V30 10814 N 1013.98 -1.5736 0.0868897 0
M  V30 10815 C 1015.23 -1.93229 -0.578387 0
M  V30 10816 C 1015.54 -0.970127 -1.69847 0
M  V30 10817 O 1016.74 -1.22222 -2.42434 0
M  V30 10818 C 1015.2 -3.43307 -1.0802 0
M  V30 10819 C 1014.81 -4.47999 0.00968135 0
M  V30 10820 C 1016.55 -3.88151 -1.71868 0
M  V30 10821 C 1014.46 -5.89223 -0.507029 0
M  V30 10822 H 1013.39 -0.721245 -0.219823 0
M  V30 10823 H 1016.04 -1.82787 0.161566 0
M  V30 10824 H 1014.42 -3.48873 -1.87359 0
M  V30 10825 H 1015.6 -4.54067 0.784865 0
M  V30 10826 H 1013.91 -4.12714 0.552845 0
M  V30 10827 H 1016.51 -4.91056 -2.11585 0
M  V30 10828 H 1016.85 -3.26347 -2.58464 0
M  V30 10829 H 1017.38 -3.85252 -0.991259 0
M  V30 10830 H 1014.12 -6.54708 0.322121 0
M  V30 10831 H 1013.64 -5.86643 -1.2494 0
M  V30 10832 H 1015.32 -6.39556 -0.978628 0
M  V30 10833 N 1015.45 0.186762 -1.56489 0
M  V30 10834 C 1016.68 0.925916 -1.85584 0
M  V30 10835 C 1017.1 1.75708 -0.671446 0
M  V30 10836 O 1016.46 1.7728 0.379687 0
M  V30 10837 C 1016.51 1.79107 -3.12975 0
M  V30 10838 O 1015.61 2.89088 -2.94112 0
M  V30 10839 H 1014.96 0.260275 -0.610863 0
M  V30 10840 H 1017.49 0.189561 -2.0372 0
M  V30 10841 H 1017.5 2.19408 -3.43983 0
M  V30 10842 H 1016.17 1.18044 -3.98796 0
M  V30 10843 H 1014.75 2.52482 -2.74422 0
M  V30 10844 N 1016.93 1.50896 0.454776 0
M  V30 10845 C 1017.88 1.71497 1.57136 0
M  V30 10846 C 1018.87 0.58098 1.59126 0
M  V30 10847 O 1020.08 0.761916 1.63079 0
M  V30 10848 H 1016.46 0.54158 0.521724 0
M  V30 10849 H 1018.43 2.65129 1.36928 0
M  V30 10850 C 1017.18 1.84125 2.94947 0
M  V30 10851 H 1016.5 2.7078 2.9414 0
M  V30 10852 H 1017.94 2.02558 3.72487 0
M  V30 10853 C 1016.4 0.596752 3.31573 0
M  V30 10854 O 1016.93 -0.256632 4.00879 0
M  V30 10855 N 1015.13 0.445958 2.87158 0
M  V30 10856 H 1014.68 1.14146 2.30929 0
M  V30 10857 H 1014.64 -0.385519 3.12027 0
M  V30 10858 N 1018.41 -0.709066 1.40748 0
M  V30 10859 C 1019.37 -1.80485 1.41272 0
M  V30 10860 C 1020.37 -1.57872 0.305463 0
M  V30 10861 O 1021.56 -1.64793 0.564691 0
M  V30 10862 C 1018.7 -3.1867 1.21087 0
M  V30 10863 H 1019.89 -1.81417 2.38805 0
M  V30 10864 H 1017.44 -0.915356 1.26692 0
M  V30 10865 H 1018.18 -3.23385 0.243406 0
M  V30 10866 H 1017.96 -3.36484 2.01299 0
M  V30 10867 H 1019.45 -3.98685 1.24257 0
M  V30 10868 N 1019.89 -1.26353 -0.941956 0
M  V30 10869 C 1020.82 -1.10341 -2.05784 0
M  V30 10870 C 1021.8 -0.00881565 -1.70098 0
M  V30 10871 O 1022.99 -0.180699 -1.93357 0
M  V30 10872 C 1020.12 -0.734788 -3.39438 0
M  V30 10873 C 1019.07 -1.78103 -3.89183 0
M  V30 10874 C 1018.4 -1.26675 -5.19478 0
M  V30 10875 C 1019.7 -3.1824 -4.14151 0
M  V30 10876 H 1021.39 -2.03684 -2.19438 0
M  V30 10877 H 1018.94 -0.980698 -1.05443 0
M  V30 10878 H 1020.89 -0.609653 -4.16967 0
M  V30 10879 H 1019.61 0.234354 -3.25758 0
M  V30 10880 H 1018.27 -1.89482 -3.13835 0
M  V30 10881 H 1017.92 -0.287472 -5.02178 0
M  V30 10882 H 1017.62 -1.96612 -5.53731 0
M  V30 10883 H 1019.14 -1.15427 -5.99591 0
M  V30 10884 H 1020.56 -3.09942 -4.82296 0
M  V30 10885 H 1018.95 -3.8576 -4.59684 0
M  V30 10886 H 1020.02 -3.64354 -3.19959 0
M  V30 10887 N 1021.37 1.14642 -1.08144 0
M  V30 10888 C 1022.31 2.1964 -0.708995 0
M  V30 10889 C 1023.28 1.63303 0.303512 0
M  V30 10890 O 1024.47 1.8987 0.18813 0
M  V30 10891 C 1021.61 3.44886 -0.121585 0
M  V30 10892 C 1020.72 4.15386 -1.18654 0
M  V30 10893 C 1019.86 5.28205 -0.56328 0
M  V30 10894 C 1018.9 5.90534 -1.61046 0
M  V30 10895 N 1018.03 6.94809 -1.00919 0
M  V30 10896 H 1022.87 2.50848 -1.6087 0
M  V30 10897 H 1020.41 1.23185 -0.803975 0
M  V30 10898 H 1022.37 4.16528 0.23668 0
M  V30 10899 H 1021 3.14169 0.741445 0
M  V30 10900 H 1020.05 3.42159 -1.66227 0
M  V30 10901 H 1021.36 4.57809 -1.9802 0
M  V30 10902 H 1020.52 6.06507 -0.153109 0
M  V30 10903 H 1019.26 4.86995 0.262066 0
M  V30 10904 H 1018.26 5.10938 -2.03033 0
M  V30 10905 H 1019.49 6.33819 -2.43824 0
M  V30 10906 H 1017.43 6.5568 -0.204894 0
M  V30 10907 H 1017.35 7.35704 -1.73999 0
M  V30 10908 H 1018.62 7.76992 -0.624792 0
M  V30 10909 N 1022.85 0.866709 1.31628 0
M  V30 10910 C 1023.79 0.318169 2.28596 0
M  V30 10911 C 1024.76 -0.581558 1.55586 0
M  V30 10912 O 1025.95 -0.513895 1.83749 0
M  V30 10913 C 1023.09 -0.477137 3.41786 0
M  V30 10914 C 1022.2 0.449739 4.29653 0
M  V30 10915 C 1021.34 -0.359373 5.29983 0
M  V30 10916 C 1020.37 0.564138 6.09495 0
M  V30 10917 N 1019.51 -0.208526 7.0179 0
M  V30 10918 H 1024.35 1.15029 2.74904 0
M  V30 10919 H 1021.89 0.578649 1.35241 0
M  V30 10920 H 1023.85 -0.953985 4.06146 0
M  V30 10921 H 1022.48 -1.27398 2.96597 0
M  V30 10922 H 1021.53 1.04502 3.65764 0
M  V30 10923 H 1022.84 1.158 4.85172 0
M  V30 10924 H 1021.99 -0.89887 6.00004 0
M  V30 10925 H 1020.73 -1.10094 4.75111 0
M  V30 10926 H 1019.74 1.11542 5.38366 0
M  V30 10927 H 1020.96 1.30451 6.66453 0
M  V30 10928 H 1018.91 -0.932969 6.49332 0
M  V30 10929 H 1018.83 0.440463 7.54716 0
M  V30 10930 H 1020.09 -0.72936 7.7608 0
M  V30 10931 N 1024.32 -1.44642 0.625825 0
M  V30 10932 C 1025.74 -1.56925 0.290992 0
M  V30 10933 C 1025.94 -1.61424 -1.20601 0
M  V30 10934 O 1025 -1.55439 -1.98985 0
M  V30 10935 C 1026.31 -2.84343 0.978242 0
M  V30 10936 C 1027.86 -2.98047 0.955882 0
M  V30 10937 C 1028.33 -4.2826 1.62349 0
M  V30 10938 N 1029.82 -4.35062 1.58983 0
M  V30 10939 C 1030.56 -5.34524 2.07538 0
M  V30 10940 N 1030.05 -6.4042 2.6426 0
M  V30 10941 N 1031.85 -5.25998 1.98198 0
M  V30 10942 H 1024 -1.39965 1.59761 0
M  V30 10943 H 1026.26 -0.670368 0.670306 0
M  V30 10944 H 1025.97 -2.86985 2.03304 0
M  V30 10945 H 1025.84 -3.73699 0.512726 0
M  V30 10946 H 1028.23 -2.94961 -0.0904292 0
M  V30 10947 H 1028.31 -2.10053 1.45984 0
M  V30 10948 H 1027.95 -4.32105 2.66923 0
M  V30 10949 H 1027.88 -5.15102 1.09441 0
M  V30 10950 H 1030.37 -3.59147 1.17565 0
M  V30 10951 H 1030.69 -7.1259 2.99056 0
M  V30 10952 H 1029.03 -6.41121 2.68308 0
M  V30 10953 H 1032.22 -4.42178 1.5361 0
M  V30 10954 H 1032.4 -6.03359 2.3635 0
M  V30 10955 N 1025.8 -0.366053 -1.5329 0
M  V30 10956 C 1027.08 0.279902 -1.93587 0
M  V30 10957 C 1027.46 1.66352 -1.29963 0
M  V30 10958 O 1026.81 2.23845 -0.458895 0
M  V30 10959 C 1027.02 0.329634 -3.4744 0
M  V30 10960 C 1028.36 0.569754 -4.2076 0
M  V30 10961 O 1029.39 0.410823 -3.53823 0
M  V30 10962 O 1028.25 0.879262 -5.3938 0
M  V30 10963 H 1025.34 0.16802 -0.809752 0
M  V30 10964 H 1027.89 -0.418871 -1.64449 0
M  V30 10965 H 1026.66 -0.640434 -3.86023 0
M  V30 10966 H 1026.28 1.07428 -3.82812 0
M  V30 10967 N 1027.28 1.57312 -0.0952337 0
M  V30 10968 C 1028.21 2.11059 0.893678 0
M  V30 10969 C 1029.22 1.04787 1.24594 0
M  V30 10970 O 1030.41 1.32233 1.19903 0
M  V30 10971 C 1027.51 2.57552 2.20272 0
M  V30 10972 C 1026.69 3.87661 2.02578 0
M  V30 10973 C 1025.75 4.2 3.16996 0
M  V30 10974 O 1024.77 4.89219 2.90953 0
M  V30 10975 N 1025.97 3.75414 4.42769 0
M  V30 10976 H 1028.74 2.96532 0.434632 0
M  V30 10977 H 1026.3 1.6165 0.0898661 0
M  V30 10978 H 1028.29 2.76232 2.95766 0
M  V30 10979 H 1026.86 1.7709 2.576 0
M  V30 10980 H 1026.08 3.78128 1.11413 0
M  V30 10981 H 1027.37 4.7278 1.88032 0
M  V30 10982 H 1026.77 3.1954 4.66809 0
M  V30 10983 H 1025.32 3.99249 5.15212 0
M  V30 10984 N 1028.76 -0.17846 1.56586 0
M  V30 10985 C 1029.7 -1.22104 1.95855 0
M  V30 10986 C 1030.67 -1.44366 0.821447 0
M  V30 10987 O 1031.86 -1.57224 1.08098 0
M  V30 10988 C 1029 -2.55701 2.31757 0
M  V30 10989 C 1028.11 -2.40879 3.5861 0
M  V30 10990 C 1027.25 -3.67293 3.83757 0
M  V30 10991 C 1026.29 -3.47373 5.03982 0
M  V30 10992 N 1025.42 -4.65839 5.25298 0
M  V30 10993 H 1030.26 -0.879168 2.84736 0
M  V30 10994 H 1027.8 -0.422721 1.40895 0
M  V30 10995 H 1029.76 -3.33556 2.50592 0
M  V30 10996 H 1028.39 -2.87898 1.45995 0
M  V30 10997 H 1027.44 -1.54236 3.47729 0
M  V30 10998 H 1028.75 -2.22102 4.46623 0
M  V30 10999 H 1027.91 -4.53584 4.02922 0
M  V30 11000 H 1026.65 -3.89041 2.94107 0
M  V30 11001 H 1025.65 -2.59467 4.84723 0
M  V30 11002 H 1026.88 -3.27055 5.95157 0
M  V30 11003 H 1024.82 -4.8782 4.38598 0
M  V30 11004 H 1024.74 -4.4995 6.0752 0
M  V30 11005 H 1026.01 -5.53435 5.48936 0
M  V30 11006 N 1030.24 -1.51135 -0.446768 0
M  V30 11007 C 1031.48 -1.64542 -1.19573 0
M  V30 11008 C 1031.84 -0.352728 -1.89139 0
M  V30 11009 O 1031.13 0.650917 -1.80204 0
M  V30 11010 C 1031.32 -2.78034 -2.2457 0
M  V30 11011 C 1031.15 -4.18214 -1.65308 0
M  V30 11012 C 1029.92 -4.84284 -1.44212 0
M  V30 11013 C 1032.12 -5.01631 -1.13451 0
M  V30 11014 N 1030.1 -6.08606 -0.804486 0
M  V30 11015 C 1031.47 -6.16876 -0.621577 0
M  V30 11016 C 1033.53 -4.87227 -1.02537 0
M  V30 11017 C 1032.23 -7.19299 -0.0102361 0
M  V30 11018 C 1034.26 -5.8985 -0.427936 0
M  V30 11019 C 1033.62 -7.04361 0.0745026 0
M  V30 11020 H 1029.72 -0.656068 -0.425556 0
M  V30 11021 H 1032.3 -1.88334 -0.493802 0
M  V30 11022 H 1030.47 -2.55922 -2.92162 0
M  V30 11023 H 1032.21 -2.8067 -2.91558 0
M  V30 11024 H 1028.96 -4.4199 -1.70123 0
M  V30 11025 H 1029.38 -6.75126 -0.503379 0
M  V30 11026 H 1034.03 -3.98959 -1.39971 0
M  V30 11027 H 1031.74 -8.07224 0.376252 0
M  V30 11028 H 1035.33 -5.80773 -0.34552 0
M  V30 11029 H 1034.21 -7.8241 0.529535 0
M  V30 11030 N 1031.71 0.701592 -1.41122 0
M  V30 11031 C 1032.94 1.49049 -1.43499 0
M  V30 11032 C 1033.36 1.88761 -0.0385684 0
M  V30 11033 O 1032.71 1.56384 0.940755 0
M  V30 11034 C 1032.76 2.7569 -2.33832 0
M  V30 11035 O 1032.49 2.37653 -3.68039 0
M  V30 11036 C 1033.99 3.69479 -2.44949 0
M  V30 11037 H 1031.21 0.459519 -0.488961 0
M  V30 11038 H 1033.75 0.864318 -1.85337 0
M  V30 11039 H 1031.91 3.34559 -1.95318 0
M  V30 11040 H 1032.32 3.19241 -4.16156 0
M  V30 11041 H 1033.79 4.55139 -3.12334 0
M  V30 11042 H 1034.27 4.13553 -1.47887 0
M  V30 11043 H 1034.88 3.16517 -2.84072 0
M  V30 11044 N 1033.19 1.2685 0.935242 0
M  V30 11045 C 1034.47 1.03483 1.65984 0
M  V30 11046 C 1034.85 -0.432859 2.06614 0
M  V30 11047 O 1034.2 -1.4145 1.79455 0
M  V30 11048 C 1034.41 1.98924 2.86758 0
M  V30 11049 C 1035.75 2.2787 3.58274 0
M  V30 11050 O 1036.78 1.96838 2.96873 0
M  V30 11051 O 1035.64 2.80734 4.68882 0
M  V30 11052 H 1032.73 0.393932 0.72715 0
M  V30 11053 H 1035.28 1.38085 0.986445 0
M  V30 11054 H 1034.05 2.9794 2.53668 0
M  V30 11055 H 1033.67 1.64839 3.6182 0
M  V30 11056 N 1034.67 -1.14067 1.0875 0
M  V30 11057 C 1035.6 -2.18306 0.664652 0
M  V30 11058 C 1036.58 -1.59312 -0.325359 0
M  V30 11059 O 1037.77 -1.87111 -0.228385 0
M  V30 11060 C 1034.89 -3.38693 -0.0218723 0
M  V30 11061 C 1033.94 -4.16263 0.928844 0
M  V30 11062 S 1034.77 -4.76817 2.43734 0
M  V30 11063 C 1035.93 -6.00557 1.76302 0
M  V30 11064 H 1036.16 -2.53837 1.54772 0
M  V30 11065 H 1033.69 -1.25254 0.902817 0
M  V30 11066 H 1035.65 -4.0843 -0.411686 0
M  V30 11067 H 1034.31 -3.01478 -0.881481 0
M  V30 11068 H 1033.51 -5.02446 0.395446 0
M  V30 11069 H 1033.11 -3.52146 1.25972 0
M  V30 11070 H 1035.4 -6.68788 1.08301 0
M  V30 11071 H 1036.34 -6.58492 2.60373 0
M  V30 11072 H 1036.75 -5.50827 1.23489 0
M  V30 11073 N 1036.15 -0.873678 -1.31166 0
M  V30 11074 C 1037.38 -0.500317 -2.0045 0
M  V30 11075 C 1037.79 0.912716 -1.65729 0
M  V30 11076 O 1037.13 1.61001 -0.884563 0
M  V30 11077 C 1037.19 -0.58197 -3.54758 0
M  V30 11078 C 1036.86 -1.95728 -4.12964 0
M  V30 11079 C 1037.85 -2.92526 -4.29796 0
M  V30 11080 C 1035.54 -2.2596 -4.48606 0
M  V30 11081 C 1037.53 -4.17697 -4.81464 0
M  V30 11082 C 1035.22 -3.5138 -4.99976 0
M  V30 11083 C 1036.22 -4.47064 -5.16356 0
M  V30 11084 O 1035.9 -5.70259 -5.66621 0
M  V30 11085 H 1035.64 -0.193044 -0.64785 0
M  V30 11086 H 1038.19 -1.17768 -1.68285 0
M  V30 11087 H 1036.42 0.152326 -3.864 0
M  V30 11088 H 1038.11 -0.221506 -4.05295 0
M  V30 11089 H 1038.88 -2.70479 -4.02574 0
M  V30 11090 H 1034.75 -1.52258 -4.3513 0
M  V30 11091 H 1038.3 -4.92389 -4.94165 0
M  V30 11092 H 1034.2 -3.73269 -5.26631 0
M  V30 11093 H 1034.96 -5.72483 -5.84983 0
M  V30 11094 N 1037.63 1.44308 -0.633487 0
M  V30 11095 C 1038.87 2.01624 -0.138643 0
M  V30 11096 C 1039.2 1.50101 1.24477 0
M  V30 11097 O 1038.47 0.705575 1.82752 0
M  V30 11098 H 1037.05 0.745439 -0.0482636 0
M  V30 11099 H 1039.71 1.76777 -0.820719 0
M  V30 11100 H 1038.8 3.11913 -0.108136 0
M  V30 11101 N 1039.1 0.374177 1.53094 0
M  V30 11102 C 1040.03 -0.459976 2.28925 0
M  V30 11103 C 1041.02 -1.07656 1.31698 0
M  V30 11104 O 1042.2 -1.09219 1.60577 0
M  V30 11105 C 1039.33 -1.5954 3.08487 0
M  V30 11106 C 1038.28 -1.10563 4.13473 0
M  V30 11107 C 1037.61 -2.33196 4.81169 0
M  V30 11108 C 1038.91 -0.184275 5.21975 0
M  V30 11109 H 1040.6 0.172692 2.98902 0
M  V30 11110 H 1038.15 0.0844956 1.43752 0
M  V30 11111 H 1040.1 -2.18565 3.60288 0
M  V30 11112 H 1038.83 -2.25543 2.36216 0
M  V30 11113 H 1037.49 -0.53801 3.62631 0
M  V30 11114 H 1037.13 -2.97675 4.05461 0
M  V30 11115 H 1036.83 -2.01094 5.52119 0
M  V30 11116 H 1038.36 -2.92892 5.35767 0
M  V30 11117 H 1039.77 -0.682262 5.69226 0
M  V30 11118 H 1038.17 0.0462746 6.00082 0
M  V30 11119 H 1039.24 0.771152 4.78729 0
M  V30 11120 N 1040.58 -1.57259 0.103575 0
M  V30 11121 C 1041.83 -1.93832 -0.55786 0
M  V30 11122 C 1042.14 -0.988087 -1.68808 0
M  V30 11123 O 1043.35 -1.24786 -2.41124 0
M  V30 11124 C 1041.81 -3.44433 -1.04373 0
M  V30 11125 C 1041.41 -4.47963 0.0571971 0
M  V30 11126 C 1043.16 -3.89953 -1.67742 0
M  V30 11127 C 1041.07 -5.89727 -0.444505 0
M  V30 11128 H 1040 -0.723536 -0.212161 0
M  V30 11129 H 1042.65 -1.82606 0.180944 0
M  V30 11130 H 1041.03 -3.50841 -1.83648 0
M  V30 11131 H 1042.2 -4.53209 0.83298 0
M  V30 11132 H 1040.52 -4.12104 0.596588 0
M  V30 11133 H 1043.11 -4.93272 -2.06365 0
M  V30 11134 H 1043.46 -3.2907 -2.54988 0
M  V30 11135 H 1043.99 -3.86281 -0.950342 0
M  V30 11136 H 1040.73 -6.5433 0.391543 0
M  V30 11137 H 1040.25 -5.87935 -1.18711 0
M  V30 11138 H 1041.93 -6.40558 -0.910739 0
M  V30 11139 N 1042.06 0.170153 -1.56679 0
M  V30 11140 C 1043.31 0.887906 -1.8233 0
M  V30 11141 C 1043.64 1.81845 -0.681608 0
M  V30 11142 O 1042.91 1.9191 0.316362 0
M  V30 11143 C 1043.2 1.68256 -3.18374 0
M  V30 11144 C 1043.05 0.775059 -4.43072 0
M  V30 11145 C 1044.37 2.65001 -3.51372 0
M  V30 11146 H 1041.49 0.32135 -0.663252 0
M  V30 11147 H 1044.13 0.154065 -1.89374 0
M  V30 11148 H 1042.28 2.30817 -3.12499 0
M  V30 11149 H 1043.95 0.162234 -4.61015 0
M  V30 11150 H 1042.2 0.0831809 -4.3372 0
M  V30 11151 H 1042.87 1.36661 -5.34816 0
M  V30 11152 H 1045.34 2.12566 -3.57708 0
M  V30 11153 H 1044.22 3.17667 -4.47637 0
M  V30 11154 H 1044.48 3.45255 -2.76136 0
M  V30 11155 N 1043.54 1.5137 0.438746 0
M  V30 11156 C 1044.76 1.68058 1.21537 0
M  V30 11157 C 1045.19 0.376787 1.84288 0
M  V30 11158 O 1044.55 -0.662911 1.68746 0
M  V30 11159 C 1044.59 2.79684 2.27616 0
M  V30 11160 O 1043.7 2.43189 3.33066 0
M  V30 11161 H 1043.04 0.560408 0.356144 0
M  V30 11162 H 1045.57 1.97926 0.518311 0
M  V30 11163 H 1045.58 3.03726 2.72423 0
M  V30 11164 H 1044.25 3.74293 1.81321 0
M  V30 11165 H 1042.83 2.29713 2.93746 0
M  V30 11166 N 1045.02 -0.694098 1.41492 0
M  V30 11167 C 1045.95 -1.81943 1.39389 0
M  V30 11168 C 1046.96 -1.6009 0.295836 0
M  V30 11169 O 1048.15 -1.69565 0.557658 0
M  V30 11170 C 1045.25 -3.18731 1.15167 0
M  V30 11171 C 1044.42 -3.67601 2.37041 0
M  V30 11172 C 1043.48 -4.83063 2.08654 0
M  V30 11173 O 1042.51 -4.94603 2.81704 0
M  V30 11174 N 1043.71 -5.70409 1.0777 0
M  V30 11175 H 1046.48 -1.84239 2.36381 0
M  V30 11176 H 1044.04 -0.876475 1.36123 0
M  V30 11177 H 1046.03 -3.93602 0.941264 0
M  V30 11178 H 1044.6 -3.11452 0.267673 0
M  V30 11179 H 1043.82 -2.83622 2.73774 0
M  V30 11180 H 1045.11 -3.96991 3.18239 0
M  V30 11181 H 1044.5 -5.63718 0.473123 0
M  V30 11182 H 1043.06 -6.45172 0.927177 0
M  V30 11183 N 1046.49 -1.27344 -0.928501 0
M  V30 11184 C 1047.74 -1.14813 -1.67897 0
M  V30 11185 C 1048.1 0.303129 -1.89997 0
M  V30 11186 O 1047.39 1.21844 -1.47867 0
M  V30 11187 C 1047.58 -1.86439 -3.04918 0
M  V30 11188 C 1047.41 -3.38381 -2.96189 0
M  V30 11189 C 1046.18 -4.07698 -2.98514 0
M  V30 11190 C 1048.38 -4.3437 -2.75367 0
M  V30 11191 N 1046.36 -5.46215 -2.80218 0
M  V30 11192 C 1047.73 -5.60149 -2.65768 0
M  V30 11193 C 1049.79 -4.2447 -2.60249 0
M  V30 11194 C 1048.49 -6.77157 -2.42593 0
M  V30 11195 C 1050.52 -5.41198 -2.3845 0
M  V30 11196 C 1049.88 -6.65933 -2.29593 0
M  V30 11197 H 1045.98 -0.47499 -0.621215 0
M  V30 11198 H 1048.56 -1.60802 -1.09776 0
M  V30 11199 H 1046.73 -1.42907 -3.61154 0
M  V30 11200 H 1048.46 -1.6642 -3.68899 0
M  V30 11201 H 1045.22 -3.59158 -3.08711 0
M  V30 11202 H 1045.64 -6.18985 -2.74203 0
M  V30 11203 H 1050.29 -3.28756 -2.65856 0
M  V30 11204 H 1048 -7.72955 -2.35725 0
M  V30 11205 H 1051.59 -5.35417 -2.27639 0
M  V30 11206 H 1050.47 -7.54732 -2.12952 0
M  V30 11207 N 1047.97 1.13488 -1.09353 0
M  V30 11208 C 1048.9 2.20988 -0.75409 0
M  V30 11209 C 1049.88 1.67977 0.267901 0
M  V30 11210 O 1051.07 1.93722 0.136128 0
M  V30 11211 C 1048.2 3.46869 -0.173042 0
M  V30 11212 C 1047.15 4.12965 -1.12446 0
M  V30 11213 C 1046.48 5.33163 -0.405157 0
M  V30 11214 C 1047.78 4.60388 -2.46658 0
M  V30 11215 H 1049.47 2.49639 -1.6529 0
M  V30 11216 H 1047.02 1.19987 -0.796182 0
M  V30 11217 H 1048.97 4.21331 0.0764988 0
M  V30 11218 H 1047.7 3.17611 0.760956 0
M  V30 11219 H 1046.35 3.40469 -1.35927 0
M  V30 11220 H 1046 5.00169 0.532955 0
M  V30 11221 H 1045.7 5.78332 -1.03952 0
M  V30 11222 H 1047.23 6.1038 -0.163899 0
M  V30 11223 H 1048.64 5.26276 -2.27389 0
M  V30 11224 H 1047.04 5.16294 -3.05876 0
M  V30 11225 H 1048.11 3.74949 -3.07476 0
M  V30 11226 N 1049.45 0.880621 1.30701 0
M  V30 11227 C 1050.68 0.510909 2.01009 0
M  V30 11228 C 1051.1 -0.892041 1.65603 0
M  V30 11229 O 1050.46 -1.59045 0.870309 0
M  V30 11230 C 1050.51 0.687759 3.53981 0
M  V30 11231 O 1049.61 -0.268275 4.11526 0
M  V30 11232 H 1048.95 0.201864 0.632572 0
M  V30 11233 H 1051.48 1.18697 1.6665 0
M  V30 11234 H 1051.49 0.585095 4.03783 0
M  V30 11235 H 1050.17 1.71068 3.79089 0
M  V30 11236 H 1048.74 -0.119673 3.72708 0
M  V30 11237 N 1050.93 -1.4397 0.641131 0
M  V30 11238 C 1052.16 -2.06303 0.157006 0
M  V30 11239 C 1052.57 -1.47981 -1.17248 0
M  V30 11240 O 1051.93 -0.606471 -1.72128 0
M  V30 11241 C 1051.98 -3.6147 0.0468425 0
M  V30 11242 O 1051.7 -4.17622 1.32376 0
M  V30 11243 C 1053.2 -4.40857 -0.464795 0
M  V30 11244 H 1050.42 -0.665684 0.0842946 0
M  V30 11245 H 1052.97 -1.84675 0.878363 0
M  V30 11246 H 1051.12 -3.82325 -0.625006 0
M  V30 11247 H 1051.54 -5.11167 1.17509 0
M  V30 11248 H 1053.01 -5.49813 -0.490862 0
M  V30 11249 H 1053.49 -4.13016 -1.4938 0
M  V30 11250 H 1054.09 -4.24943 0.174146 0
M  V30 11251 N 1052.41 -0.382291 -1.52893 0
M  V30 11252 C 1053.65 0.202433 -2.01787 0
M  V30 11253 C 1053.99 1.47044 -1.26853 0
M  V30 11254 O 1053.26 1.91007 -0.366969 0
M  V30 11255 C 1053.54 0.477471 -3.5692 0
M  V30 11256 C 1053.4 -0.805339 -4.42532 0
M  V30 11257 C 1054.72 1.27106 -4.21346 0
M  V30 11258 H 1051.84 0.0720998 -0.733465 0
M  V30 11259 H 1054.48 -0.510478 -1.83014 0
M  V30 11260 H 1052.63 1.08478 -3.73048 0
M  V30 11261 H 1054.3 -1.4424 -4.3817 0
M  V30 11262 H 1052.54 -1.42216 -4.09826 0
M  V30 11263 H 1053.21 -0.567635 -5.49074 0
M  V30 11264 H 1055.69 0.757161 -4.09153 0
M  V30 11265 H 1054.57 1.43225 -5.29885 0
M  V30 11266 H 1054.83 2.28431 -3.78513 0
M  V30 11267 N 1053.89 1.57202 -0.111913 0
M  V30 11268 C 1054.83 2.16186 0.858286 0
M  V30 11269 C 1055.83 1.10917 1.28039 0
M  V30 11270 O 1057.03 1.29233 1.25295 0
M  V30 11271 H 1053.41 0.691777 0.29487 0
M  V30 11272 H 1055.38 2.96499 0.336265 0
M  V30 11273 C 1054.13 2.77024 2.10127 0
M  V30 11274 H 1053.45 3.5772 1.78539 0
M  V30 11275 H 1054.89 3.21841 2.76033 0
M  V30 11276 C 1053.35 1.73752 2.88638 0
M  V30 11277 O 1053.88 1.18659 3.83774 0
M  V30 11278 N 1052.09 1.43855 2.52496 0
M  V30 11279 H 1051.63 1.88846 1.75199 0
M  V30 11280 H 1051.59 0.749985 3.05324 0
M  V30 11281 N 1055.36 -0.161842 1.56767 0
M  V30 11282 C 1056.59 -0.892247 1.86672 0
M  V30 11283 C 1057.01 -1.75407 0.69841 0
M  V30 11284 O 1056.36 -1.7945 -0.332251 0
M  V30 11285 C 1056.41 -1.7612 3.15696 0
M  V30 11286 O 1056.14 -0.934131 4.28025 0
M  V30 11287 C 1057.64 -2.60046 3.59014 0
M  V30 11288 H 1054.86 -0.258747 0.619105 0
M  V30 11289 H 1057.4 -0.159089 2.0388 0
M  V30 11290 H 1055.56 -2.44759 3.00286 0
M  V30 11291 H 1055.97 -1.52931 5.01709 0
M  V30 11292 H 1057.44 -3.16618 4.5217 0
M  V30 11293 H 1057.92 -3.35374 2.83586 0
M  V30 11294 H 1058.53 -1.96724 3.77067 0
M  V30 11295 N 1056.84 -1.516 -0.430713 0
M  V30 11296 C 1057.77 -1.69594 -1.54177 0
M  V30 11297 C 1058.79 -0.576518 -1.5225 0
M  V30 11298 O 1059.98 -0.85104 -1.56906 0
M  V30 11299 C 1057.08 -1.70148 -2.93092 0
M  V30 11300 C 1056.25 -2.98782 -3.1945 0
M  V30 11301 C 1055.31 -2.91435 -4.38123 0
M  V30 11302 O 1054.33 -3.65372 -4.36454 0
M  V30 11303 N 1055.54 -2.0774 -5.42056 0
M  V30 11304 H 1058.3 -2.65442 -1.39143 0
M  V30 11305 H 1055.86 -1.49569 -0.61974 0
M  V30 11306 H 1057.85 -1.62793 -3.70514 0
M  V30 11307 H 1056.42 -0.818667 -3.0169 0
M  V30 11308 H 1055.64 -3.19954 -2.30267 0
M  V30 11309 H 1056.93 -3.83919 -3.33892 0
M  V30 11310 H 1056.33 -1.47059 -5.46251 0
M  V30 11311 H 1054.89 -2.06259 -6.18305 0
M  V30 11312 N 1058.32 0.686584 -1.41858 0
M  V30 11313 C 1059.57 1.44665 -1.41698 0
M  V30 11314 C 1059.89 1.94478 -0.0292442 0
M  V30 11315 O 1059.15 1.70512 0.960421 0
M  V30 11316 C 1059.45 2.66793 -2.37816 0
M  V30 11317 C 1059.11 2.35587 -3.8446 0
M  V30 11318 C 1057.78 2.26788 -4.24406 0
M  V30 11319 C 1060.13 2.10028 -4.77009 0
M  V30 11320 C 1057.46 1.90538 -5.54898 0
M  V30 11321 C 1059.81 1.75285 -6.07831 0
M  V30 11322 C 1058.47 1.64987 -6.46789 0
M  V30 11323 H 1057.74 0.529367 -0.518509 0
M  V30 11324 H 1060.39 0.783938 -1.74719 0
M  V30 11325 H 1058.69 3.38041 -1.9808 0
M  V30 11326 H 1060.39 3.24953 -2.34961 0
M  V30 11327 H 1056.98 2.43334 -3.52826 0
M  V30 11328 H 1061.17 2.15766 -4.46944 0
M  V30 11329 H 1056.42 1.81125 -5.83955 0
M  V30 11330 H 1060.6 1.5453 -6.79039 0
M  V30 11331 H 1058.22 1.36667 -7.47814 0
M  V30 11332 N 1059.8 1.27835 0.921735 0
M  V30 11333 C 1061.03 1.17182 1.70153 0
M  V30 11334 C 1061.44 -0.273207 1.87217 0
M  V30 11335 O 1060.78 -1.19729 1.39322 0
M  V30 11336 C 1060.84 1.78969 3.11786 0
M  V30 11337 C 1060.5 3.28179 3.18037 0
M  V30 11338 C 1061.5 4.24729 2.99835 0
M  V30 11339 C 1059.19 3.68995 3.40805 0
M  V30 11340 C 1061.18 5.60071 3.04301 0
M  V30 11341 C 1058.87 5.04465 3.44904 0
M  V30 11342 C 1059.87 5.99813 3.2667 0
M  V30 11343 O 1059.55 7.32813 3.30515 0
M  V30 11344 H 1059.29 0.408079 0.538932 0
M  V30 11345 H 1061.84 1.69326 1.16266 0
M  V30 11346 H 1060.07 1.2131 3.6718 0
M  V30 11347 H 1061.76 1.62946 3.71757 0
M  V30 11348 H 1062.52 3.94533 2.8208 0
M  V30 11349 H 1058.4 2.9525 3.54045 0
M  V30 11350 H 1061.95 6.34471 2.89987 0
M  V30 11351 H 1057.84 5.34315 3.62185 0
M  V30 11352 H 1058.61 7.41338 3.4693 0
M  V30 11353 N 1061.28 -1.12907 1.09954 0
M  V30 11354 C 1062.5 -1.88138 0.860905 0
M  V30 11355 C 1062.92 -1.79402 -0.588256 0
M  V30 11356 O 1062.28 -1.16442 -1.40526 0
M  V30 11357 C 1062.33 -3.37537 1.29425 0
M  V30 11358 O 1062.05 -3.46056 2.68658 0
M  V30 11359 C 1063.55 -4.29721 1.08879 0
M  V30 11360 H 1060.77 -0.595437 0.309347 0
M  V30 11361 H 1063.31 -1.42894 1.46292 0
M  V30 11362 H 1061.47 -3.80344 0.736009 0
M  V30 11363 H 1061.88 -4.38969 2.87065 0
M  V30 11364 H 1063.36 -5.32854 1.4412 0
M  V30 11365 H 1063.83 -4.39192 0.0270053 0
M  V30 11366 H 1064.44 -3.9269 1.63325 0
M  V30 11367 N 1062.75 -0.88754 -1.30232 0
M  V30 11368 C 1064 -0.503322 -1.95319 0
M  V30 11369 C 1064.32 0.952817 -1.70824 0
M  V30 11370 O 1065.52 1.444 -2.29915 0
M  V30 11371 C 1063.98 -0.849216 -3.49738 0
M  V30 11372 C 1063.59 -2.3233 -3.83049 0
M  V30 11373 C 1065.33 -0.53432 -4.21124 0
M  V30 11374 C 1063.24 -2.61069 -5.30657 0
M  V30 11375 H 1062.17 -0.1845 -0.731078 0
M  V30 11376 H 1064.82 -1.08287 -1.48143 0
M  V30 11377 H 1063.2 -0.198729 -3.95501 0
M  V30 11378 H 1064.37 -3.01832 -3.48187 0
M  V30 11379 H 1062.69 -2.60599 -3.24773 0
M  V30 11380 H 1065.29 -0.726039 -5.29748 0
M  V30 11381 H 1065.63 0.526434 -4.12958 0
M  V30 11382 H 1066.16 -1.14211 -3.81052 0
M  V30 11383 H 1062.9 -3.65895 -5.43876 0
M  V30 11384 H 1062.42 -1.96179 -5.6681 0
M  V30 11385 H 1064.1 -2.46703 -5.98119 0
M  V30 11386 N 1064.23 1.43628 -0.648757 0
M  V30 11387 C 1065.18 2.30755 0.0455536 0
M  V30 11388 C 1066.15 1.44495 0.819168 0
M  V30 11389 O 1067.33 1.73372 0.79667 0
M  V30 11390 C 1064.47 3.30017 1.00908 0
M  V30 11391 C 1063.59 4.31376 0.232039 0
M  V30 11392 C 1062.72 5.17723 1.18897 0
M  V30 11393 C 1061.76 6.10778 0.402096 0
M  V30 11394 N 1060.9 6.89763 1.31038 0
M  V30 11395 H 1065.74 2.89581 -0.70332 0
M  V30 11396 H 1063.28 1.42662 -0.3586 0
M  V30 11397 H 1065.23 3.86072 1.58128 0
M  V30 11398 H 1063.86 2.72851 1.72488 0
M  V30 11399 H 1062.92 3.77652 -0.456373 0
M  V30 11400 H 1064.23 4.9735 -0.380023 0
M  V30 11401 H 1063.38 5.78381 1.83194 0
M  V30 11402 H 1062.12 4.51864 1.83494 0
M  V30 11403 H 1061.13 5.49212 -0.254255 0
M  V30 11404 H 1062.35 6.78678 -0.239411 0
M  V30 11405 H 1060.3 6.26557 1.94324 0
M  V30 11406 H 1060.21 7.52243 0.752774 0
M  V30 11407 H 1061.48 7.54931 1.94164 0
M  V30 11408 N 1065.71 0.390394 1.52688 0
M  V30 11409 C 1066.62 -0.451543 2.30213 0
M  V30 11410 C 1067.64 -1.07051 1.37172 0
M  V30 11411 O 1068.81 -1.07609 1.70242 0
M  V30 11412 C 1065.88 -1.56299 3.0947 0
M  V30 11413 C 1064.94 -0.969017 4.18221 0
M  V30 11414 C 1064.17 -2.0275 4.93688 0
M  V30 11415 O 1064.39 -3.24273 4.69258 0
M  V30 11416 O 1063.33 -1.64418 5.79008 0
M  V30 11417 H 1067.15 0.180042 3.03166 0
M  V30 11418 H 1064.74 0.154082 1.48603 0
M  V30 11419 H 1066.62 -2.20864 3.58883 0
M  V30 11420 H 1065.3 -2.17952 2.3933 0
M  V30 11421 H 1064.2 -0.286587 3.73001 0
M  V30 11422 H 1065.54 -0.396687 4.90599 0
M  V30 11423 N 1067.19 -1.57141 0.120249 0
M  V30 11424 C 1068.6 -1.5784 -0.236335 0
M  V30 11425 C 1068.8 -1.13304 -1.66626 0
M  V30 11426 O 1067.86 -0.821004 -2.3878 0
M  V30 11427 C 1069.17 -3.007 -0.00188211 0
M  V30 11428 C 1070.72 -3.12927 -0.0676838 0
M  V30 11429 C 1071.2 -4.57789 0.139092 0
M  V30 11430 N 1072.69 -4.63122 0.085104 0
M  V30 11431 C 1073.42 -5.72978 0.219983 0
M  V30 11432 N 1072.92 -6.91579 0.411102 0
M  V30 11433 N 1074.71 -5.61874 0.159469 0
M  V30 11434 H 1066.86 -1.84391 1.05422 0
M  V30 11435 H 1069.13 -0.852228 0.415225 0
M  V30 11436 H 1068.83 -3.37575 0.986718 0
M  V30 11437 H 1068.71 -3.70005 -0.733203 0
M  V30 11438 H 1071.09 -2.75909 -1.04681 0
M  V30 11439 H 1071.17 -2.46162 0.695538 0
M  V30 11440 H 1070.82 -4.95506 1.1152 0
M  V30 11441 H 1070.75 -5.22646 -0.644131 0
M  V30 11442 H 1073.24 -3.77854 -0.0590479 0
M  V30 11443 H 1073.55 -7.71149 0.504851 0
M  V30 11444 H 1071.9 -6.9356 0.447091 0
M  V30 11445 H 1075.09 -4.68099 0.0111131 0
M  V30 11446 H 1075.26 -6.47445 0.268028 0
M  V30 11447 N 1068.67 0.153526 -1.5685 0
M  V30 11448 C 1069.6 1.21906 -1.9291 0
M  V30 11449 C 1070.58 1.4189 -0.794098 0
M  V30 11450 O 1071.76 1.56609 -1.0491 0
M  V30 11451 C 1068.89 2.57908 -2.19548 0
M  V30 11452 C 1067.93 2.54557 -3.42203 0
M  V30 11453 S 1068.77 2.01891 -4.95984 0
M  V30 11454 C 1069.92 3.39635 -5.25737 0
M  V30 11455 H 1070.16 0.911382 -2.82986 0
M  V30 11456 H 1067.69 0.358863 -1.50172 0
M  V30 11457 H 1069.65 3.36177 -2.35575 0
M  V30 11458 H 1068.31 2.85868 -1.30147 0
M  V30 11459 H 1067.5 3.54657 -3.58098 0
M  V30 11460 H 1067.1 1.84393 -3.25385 0
M  V30 11461 H 1069.4 4.35716 -5.18804 0
M  V30 11462 H 1070.34 3.28599 -6.27239 0
M  V30 11463 H 1070.75 3.36469 -4.53265 0
M  V30 11464 N 1070.14 1.51827 0.422667 0
M  V30 11465 C 1071.37 1.68803 1.19117 0
M  V30 11466 C 1071.78 0.391228 1.85111 0
M  V30 11467 O 1071.13 -0.64148 1.72136 0
M  V30 11468 C 1071.19 2.75767 2.30636 0
M  V30 11469 C 1070.85 4.17929 1.8489 0
M  V30 11470 C 1071.85 5.02223 1.34416 0
M  V30 11471 C 1069.53 4.641 1.92136 0
M  V30 11472 C 1071.53 6.30756 0.917925 0
M  V30 11473 C 1069.21 5.92626 1.49123 0
M  V30 11474 C 1070.21 6.75782 0.990352 0
M  V30 11475 O 1069.9 8.01902 0.566386 0
M  V30 11476 H 1069.63 0.569303 0.364514 0
M  V30 11477 H 1072.19 1.9909 0.505208 0
M  V30 11478 H 1070.42 2.40827 3.02555 0
M  V30 11479 H 1072.11 2.81476 2.92448 0
M  V30 11480 H 1072.87 4.67749 1.28202 0
M  V30 11481 H 1068.75 3.99488 2.30066 0
M  V30 11482 H 1072.29 6.95612 0.52628 0
M  V30 11483 H 1068.19 6.26611 1.55012 0
M  V30 11484 H 1068.96 8.15579 0.690918 0
M  V30 11485 N 1071.62 -0.679052 1.4222 0
M  V30 11486 C 1072.57 -1.81398 1.45594 0
M  V30 11487 C 1073.56 -1.66112 0.332127 0
M  V30 11488 O 1074.77 -1.72772 0.504942 0
M  V30 11489 H 1071.15 -0.598045 0.455902 0
M  V30 11490 H 1073.12 -1.7567 2.41211 0
M  V30 11491 C 1071.87 -3.19525 1.37109 0
M  V30 11492 H 1071.19 -3.31912 2.22878 0
M  V30 11493 H 1072.63 -3.98967 1.43531 0
M  V30 11494 C 1071.09 -3.36792 0.0853593 0
M  V30 11495 O 1071.62 -3.92309 -0.863532 0
M  V30 11496 N 1069.82 -2.906 0.00389229 0
M  V30 11497 H 1069.37 -2.45607 0.776846 0
M  V30 11498 H 1069.33 -3.0253 -0.855742 0
M  V30 11499 N 1073.1 -1.28322 -0.914942 0
M  V30 11500 C 1074.06 -1.12169 -1.99877 0
M  V30 11501 C 1075.06 -0.0617252 -1.60681 0
M  V30 11502 O 1076.25 -0.307405 -1.71466 0
M  V30 11503 C 1073.39 -0.711959 -3.33383 0
M  V30 11504 H 1074.58 -2.08425 -2.15636 0
M  V30 11505 H 1072.13 -1.11291 -1.09745 0
M  V30 11506 H 1072.87 0.251418 -3.23324 0
M  V30 11507 H 1072.65 -1.47764 -3.63192 0
M  V30 11508 H 1074.14 -0.621558 -4.12948 0
M  V30 11509 N 1074.58 1.12322 -1.10551 0
M  V30 11510 C 1075.51 2.20176 -0.777486 0
M  V30 11511 C 1076.49 1.68252 0.250069 0
M  V30 11512 O 1077.67 1.93856 0.115574 0
M  V30 11513 C 1074.8 3.46666 -0.209822 0
M  V30 11514 C 1073.76 4.11749 -1.1682 0
M  V30 11515 C 1073.08 5.32703 -0.461684 0
M  V30 11516 C 1074.38 4.57746 -2.51527 0
M  V30 11517 H 1076.08 2.47872 -1.67928 0
M  V30 11518 H 1073.62 1.19136 -0.808863 0
M  V30 11519 H 1075.58 4.21388 0.0318068 0
M  V30 11520 H 1074.3 3.18401 0.727226 0
M  V30 11521 H 1072.96 3.39009 -1.3953 0
M  V30 11522 H 1072.61 5.00706 0.479875 0
M  V30 11523 H 1072.31 5.77197 -1.1008 0
M  V30 11524 H 1073.83 6.10172 -0.228629 0
M  V30 11525 H 1075.25 5.23835 -2.32958 0
M  V30 11526 H 1073.64 5.13021 -3.11335 0
M  V30 11527 H 1074.71 3.71667 -3.11435 0
M  V30 11528 N 1076.06 0.894434 1.2976 0
M  V30 11529 C 1077 0.357958 2.29829 0
M  V30 11530 C 1078 -0.540093 1.6056 0
M  V30 11531 O 1079.2 -0.423478 1.74948 0
M  V30 11532 H 1075.58 0.0971183 0.745702 0
M  V30 11533 H 1077.55 1.21542 2.72526 0
M  V30 11534 C 1076.3 -0.404126 3.45343 0
M  V30 11535 H 1075.62 0.277671 3.98835 0
M  V30 11536 H 1077.06 -0.744446 4.17413 0
M  V30 11537 C 1075.52 -1.6048 2.96222 0
M  V30 11538 O 1076.05 -2.70414 2.97051 0
M  V30 11539 N 1074.26 -1.44517 2.52117 0
M  V30 11540 H 1073.8 -0.55082 2.51642 0
M  V30 11541 H 1073.76 -2.24987 2.1961 0
M  V30 11542 N 1077.53 -1.43282 0.656365 0
M  V30 11543 C 1078.48 -2.32556 -0.0452037 0
M  V30 11544 C 1079.48 -1.48789 -0.80982 0
M  V30 11545 O 1080.68 -1.64979 -0.719865 0
M  V30 11546 H 1077.06 -0.751258 -0.0334043 0
M  V30 11547 H 1079.03 -2.89448 0.725423 0
M  V30 11548 C 1077.78 -3.33138 -0.995706 0
M  V30 11549 H 1077.1 -3.97622 -0.416774 0
M  V30 11550 H 1078.54 -3.98231 -1.45562 0
M  V30 11551 C 1077 -2.63978 -2.09325 0
M  V30 11552 O 1077.53 -2.45769 -3.17743 0
M  V30 11553 N 1075.74 -2.23301 -1.8597 0
M  V30 11554 H 1075.28 -2.38312 -0.97802 0
M  V30 11555 H 1075.24 -1.77358 -2.59599 0
M  V30 11556 N 1079.01 -0.398486 -1.52479 0
M  V30 11557 C 1079.95 0.467426 -2.24383 0
M  V30 11558 C 1080.96 1.01908 -1.26959 0
M  V30 11559 O 1082.15 0.919843 -1.52974 0
M  V30 11560 C 1079.25 1.66146 -2.95379 0
M  V30 11561 C 1078.42 1.23557 -4.19586 0
M  V30 11562 C 1077.48 2.29532 -4.73499 0
M  V30 11563 O 1076.51 1.90561 -5.36354 0
M  V30 11564 N 1077.71 3.61564 -4.5415 0
M  V30 11565 H 1080.47 -0.148653 -2.99331 0
M  V30 11566 H 1078.03 -0.225313 -1.60325 0
M  V30 11567 H 1080.03 2.36585 -3.28344 0
M  V30 11568 H 1078.6 2.18369 -2.23682 0
M  V30 11569 H 1077.82 0.359715 -3.92555 0
M  V30 11570 H 1079.1 0.927812 -5.00269 0
M  V30 11571 H 1078.5 3.95983 -4.03998 0
M  V30 11572 H 1077.06 4.2801 -4.9158 0
M  V30 11573 N 1080.49 1.57075 -0.12858 0
M  V30 11574 C 1081.72 2.00305 0.537839 0
M  V30 11575 C 1082.14 1.00787 1.58819 0
M  V30 11576 O 1081.5 -0.0190839 1.8129 0
M  V30 11577 C 1081.55 3.42371 1.13201 0
M  V30 11578 O 1080.65 3.45786 2.24735 0
M  V30 11579 H 1079.99 0.650456 0.133428 0
M  V30 11580 H 1082.52 2.03415 -0.219882 0
M  V30 11581 H 1082.53 3.80783 1.4652 0
M  V30 11582 H 1081.21 4.14315 0.362713 0
M  V30 11583 H 1079.78 3.19201 1.92783 0
M  V30 11584 N 1081.97 -0.145205 1.5693 0
M  V30 11585 C 1082.9 -1.20438 1.95006 0
M  V30 11586 C 1083.91 -1.39085 0.846114 0
M  V30 11587 O 1085.1 -1.38625 1.12452 0
M  V30 11588 C 1082.2 -2.56892 2.21043 0
M  V30 11589 C 1081.38 -2.59197 3.52329 0
M  V30 11590 C 1080.44 -3.77204 3.66884 0
M  V30 11591 O 1079.46 -3.61995 4.39259 0
M  V30 11592 N 1080.66 -4.9473 3.03682 0
M  V30 11593 H 1083.43 -0.880709 2.86467 0
M  V30 11594 H 1080.99 -0.334751 1.58401 0
M  V30 11595 H 1082.98 -3.34349 2.2802 0
M  V30 11596 H 1081.55 -2.81544 1.35838 0
M  V30 11597 H 1080.77 -1.67644 3.56776 0
M  V30 11598 H 1082.06 -2.57771 4.3867 0
M  V30 11599 H 1081.46 -5.09989 2.44801 0
M  V30 11600 H 1080.01 -5.69956 3.16218 0
M  V30 11601 N 1083.45 -1.52049 -0.414609 0
M  V30 11602 C 1084.41 -1.74382 -1.4874 0
M  V30 11603 C 1085.41 -0.613701 -1.48628 0
M  V30 11604 O 1086.6 -0.88152 -1.50249 0
M  V30 11605 C 1083.73 -1.82116 -2.88178 0
M  V30 11606 H 1084.93 -2.70147 -1.30233 0
M  V30 11607 H 1082.48 -1.42382 -0.644756 0
M  V30 11608 H 1083.21 -0.882457 -3.12063 0
M  V30 11609 H 1083 -2.64268 -2.89663 0
M  V30 11610 H 1084.49 -2.01155 -3.65959 0
M  V30 11611 N 1084.93 0.6715 -1.42579 0
M  V30 11612 C 1086.17 1.42731 -1.42516 0
M  V30 11613 C 1086.49 1.95545 -0.0462407 0
M  V30 11614 O 1087.69 2.71391 0.0769798 0
M  V30 11615 C 1086.15 2.58215 -2.50705 0
M  V30 11616 C 1085.76 2.12086 -3.94618 0
M  V30 11617 C 1087.5 3.35705 -2.59813 0
M  V30 11618 C 1085.41 3.24672 -4.9431 0
M  V30 11619 H 1084.34 0.536218 -0.530081 0
M  V30 11620 H 1086.99 0.726655 -1.68499 0
M  V30 11621 H 1085.37 3.30665 -2.17892 0
M  V30 11622 H 1086.55 1.46768 -4.36802 0
M  V30 11623 H 1084.86 1.47526 -3.89391 0
M  V30 11624 H 1087.46 4.1956 -3.31472 0
M  V30 11625 H 1087.8 3.82517 -1.64276 0
M  V30 11626 H 1088.33 2.70326 -2.91836 0
M  V30 11627 H 1085.07 2.82848 -5.91335 0
M  V30 11628 H 1084.59 3.88761 -4.56755 0
M  V30 11629 H 1086.27 3.90088 -5.16179 0
M  V30 11630 N 1086.4 1.28806 0.908124 0
M  V30 11631 C 1087.31 1.15079 2.04436 0
M  V30 11632 C 1088.33 0.076012 1.73834 0
M  V30 11633 O 1089.51 0.286421 1.99353 0
M  V30 11634 C 1086.57 0.819733 3.3687 0
M  V30 11635 C 1085.63 1.97746 3.81045 0
M  V30 11636 C 1084.86 1.66211 5.07158 0
M  V30 11637 O 1085.09 0.579092 5.67453 0
M  V30 11638 O 1084.02 2.5075 5.47182 0
M  V30 11639 H 1087.85 2.10477 2.18937 0
M  V30 11640 H 1085.43 1.08177 1.03044 0
M  V30 11641 H 1087.31 0.649304 4.16368 0
M  V30 11642 H 1085.99 -0.10454 3.23531 0
M  V30 11643 H 1084.9 2.20308 3.02349 0
M  V30 11644 H 1086.23 2.88264 3.98955 0
M  V30 11645 N 1087.88 -1.11734 1.11145 0
M  V30 11646 C 1088.83 -2.17683 0.766979 0
M  V30 11647 C 1089.8 -1.64051 -0.260108 0
M  V30 11648 O 1090.98 -1.90302 -0.137723 0
M  V30 11649 C 1088.12 -3.44442 0.212982 0
M  V30 11650 C 1087.24 -4.12094 1.29626 0
M  V30 11651 C 1086.37 -5.26526 0.703127 0
M  V30 11652 C 1085.41 -5.86057 1.76647 0
M  V30 11653 N 1084.55 -6.91889 1.19306 0
M  V30 11654 H 1089.39 -2.46495 1.67465 0
M  V30 11655 H 1086.92 -1.21011 0.836353 0
M  V30 11656 H 1088.88 -4.17009 -0.126162 0
M  V30 11657 H 1087.51 -3.16025 -0.657888 0
M  V30 11658 H 1086.56 -3.37631 1.75241 0
M  V30 11659 H 1087.88 -4.52398 2.10089 0
M  V30 11660 H 1087.03 -6.05888 0.313859 0
M  V30 11661 H 1085.77 -4.87519 -0.132856 0
M  V30 11662 H 1084.77 -5.05375 2.16508 0
M  V30 11663 H 1086 -6.27132 2.60543 0
M  V30 11664 H 1083.95 -6.54906 0.378664 0
M  V30 11665 H 1083.86 -7.30832 1.93443 0
M  V30 11666 H 1085.13 -7.75062 0.830578 0
M  V30 11667 N 1089.36 -0.901303 -1.29284 0
M  V30 11668 C 1090.61 -0.52401 -1.94774 0
M  V30 11669 C 1090.92 0.934645 -1.71825 0
M  V30 11670 O 1092.13 1.41953 -2.31434 0
M  V30 11671 C 1090.58 -0.886262 -3.48817 0
M  V30 11672 C 1090.19 -2.3638 -3.80564 0
M  V30 11673 C 1091.94 -0.578955 -4.20533 0
M  V30 11674 C 1089.84 -2.66682 -5.27858 0
M  V30 11675 H 1088.77 -0.192244 -0.72908 0
M  V30 11676 H 1091.42 -1.09852 -1.46986 0
M  V30 11677 H 1089.81 -0.240666 -3.95268 0
M  V30 11678 H 1090.98 -3.05508 -3.44966 0
M  V30 11679 H 1089.29 -2.64029 -3.2199 0
M  V30 11680 H 1091.89 -0.782185 -5.28948 0
M  V30 11681 H 1092.23 0.482605 -4.13493 0
M  V30 11682 H 1092.77 -1.18246 -3.79819 0
M  V30 11683 H 1089.51 -3.71643 -5.39965 0
M  V30 11684 H 1089.03 -2.02179 -5.64698 0
M  V30 11685 H 1090.71 -2.53033 -5.95469 0
M  V30 11686 N 1090.84 1.42931 -0.663954 0
M  V30 11687 C 1092.09 2.00904 -0.179011 0
M  V30 11688 C 1092.4 1.53056 1.21791 0
M  V30 11689 O 1093.61 2.03374 1.79865 0
M  V30 11690 C 1092.06 3.58892 -0.269198 0
M  V30 11691 C 1091.67 4.15731 -1.66949 0
M  V30 11692 C 1093.41 4.24207 0.157589 0
M  V30 11693 C 1091.32 5.66047 -1.71303 0
M  V30 11694 H 1090.25 0.75135 -0.0631623 0
M  V30 11695 H 1092.9 1.6378 -0.827556 0
M  V30 11696 H 1091.28 3.93469 0.447048 0
M  V30 11697 H 1092.46 3.92634 -2.41195 0
M  V30 11698 H 1090.77 3.62826 -2.04318 0
M  V30 11699 H 1093.37 5.34503 0.145057 0
M  V30 11700 H 1093.71 3.98901 1.19095 0
M  V30 11701 H 1094.25 3.94552 -0.507274 0
M  V30 11702 H 1090.98 5.96136 -2.72584 0
M  V30 11703 H 1090.5 5.91167 -1.01398 0
M  V30 11704 H 1092.18 6.30275 -1.46158 0
M  V30 11705 N 1092.32 0.406567 1.52266 0
M  V30 11706 C 1093.23 -0.4271 2.30679 0
M  V30 11707 C 1094.24 -1.0559 1.383 0
M  V30 11708 O 1095.42 -1.05797 1.71374 0
M  V30 11709 C 1092.48 -1.53008 3.1111 0
M  V30 11710 C 1091.54 -0.924604 4.19225 0
M  V30 11711 C 1090.78 -1.97502 4.95811 0
M  V30 11712 O 1091 -3.19277 4.72671 0
M  V30 11713 O 1089.93 -1.58268 5.80719 0
M  V30 11714 H 1093.76 0.212187 3.02958 0
M  V30 11715 H 1091.34 0.169835 1.48432 0
M  V30 11716 H 1093.23 -2.17046 3.61205 0
M  V30 11717 H 1091.9 -2.15401 2.41628 0
M  V30 11718 H 1090.81 -0.247009 3.73284 0
M  V30 11719 H 1092.14 -0.34463 4.90992 0
M  V30 11720 N 1093.79 -1.57004 0.136909 0
M  V30 11721 C 1095.07 -1.87375 -0.561233 0
M  V30 11722 C 1095.45 -1.04117 -1.83638 0
M  V30 11723 O 1094.8 -0.125103 -2.28157 0
M  V30 11724 C 1095.01 -3.38829 -0.836426 0
M  V30 11725 C 1096.36 -4.07826 -1.18164 0
M  V30 11726 O 1097.38 -3.4395 -0.92611 0
M  V30 11727 O 1096.24 -5.20614 -1.66204 0
M  V30 11728 H 1093.33 -0.776287 -0.285145 0
M  V30 11729 H 1095.88 -1.68818 0.172761 0
M  V30 11730 H 1094.65 -3.91244 0.066442 0
M  V30 11731 H 1094.28 -3.62879 -1.62496 0
M  V30 11732 N 1095.27 0.136881 -1.57004 0
M  V30 11733 C 1096.2 1.19402 -1.95642 0
M  V30 11734 C 1097.22 1.38635 -0.853478 0
M  V30 11735 O 1098.41 1.38027 -1.13185 0
M  V30 11736 C 1095.51 2.55716 -2.22402 0
M  V30 11737 C 1094.68 2.57325 -3.53698 0
M  V30 11738 C 1093.74 3.75253 -3.68879 0
M  V30 11739 O 1092.76 3.5966 -4.41173 0
M  V30 11740 N 1093.97 4.93112 -3.06302 0
M  V30 11741 H 1096.73 0.865504 -2.8693 0
M  V30 11742 H 1094.29 0.326346 -1.58577 0
M  V30 11743 H 1096.28 3.33135 -2.29789 0
M  V30 11744 H 1094.85 2.80819 -1.37329 0
M  V30 11745 H 1094.07 1.65749 -3.5766 0
M  V30 11746 H 1095.36 2.55441 -4.40031 0
M  V30 11747 H 1094.76 5.08684 -2.47502 0
M  V30 11748 H 1093.32 5.68271 -3.19236 0
M  V30 11749 N 1096.75 1.52266 0.40654 0
M  V30 11750 C 1097.98 1.70057 1.1732 0
M  V30 11751 C 1098.39 0.41084 1.84686 0
M  V30 11752 O 1097.73 -0.623187 1.72806 0
M  V30 11753 C 1097.79 2.78197 2.27698 0
M  V30 11754 C 1097.46 4.19866 1.80447 0
M  V30 11755 C 1098.45 5.03621 1.29082 0
M  V30 11756 C 1096.14 4.66112 1.87202 0
M  V30 11757 C 1098.13 6.31694 0.850973 0
M  V30 11758 C 1095.82 5.94174 1.42829 0
M  V30 11759 C 1096.82 6.76794 0.918621 0
M  V30 11760 O 1096.51 8.02458 0.481302 0
M  V30 11761 H 1096.24 0.573137 0.358455 0
M  V30 11762 H 1098.79 1.99615 0.484064 0
M  V30 11763 H 1097.02 2.44022 2.99983 0
M  V30 11764 H 1098.71 2.84562 2.89446 0
M  V30 11765 H 1099.48 4.69083 1.23234 0
M  V30 11766 H 1095.36 4.01905 2.25816 0
M  V30 11767 H 1098.9 6.96131 0.452471 0
M  V30 11768 H 1094.8 6.2822 1.48358 0
M  V30 11769 H 1095.57 8.16266 0.604376 0
M  V30 11770 N 1098.23 -0.663929 1.42933 0
M  V30 11771 C 1099.18 -1.79843 1.4751 0
M  V30 11772 C 1100.17 -1.65751 0.349727 0
M  V30 11773 O 1101.38 -1.72227 0.523239 0
M  V30 11774 H 1097.75 -0.593176 0.462219 0
M  V30 11775 H 1099.72 -1.73102 2.4306 0
M  V30 11776 C 1098.47 -3.18053 1.4049 0
M  V30 11777 H 1097.79 -3.29529 2.26386 0
M  V30 11778 H 1099.23 -3.97423 1.47754 0
M  V30 11779 C 1097.69 -3.36682 0.121076 0
M  V30 11780 O 1098.22 -3.93202 -0.821874 0
M  V30 11781 N 1096.43 -2.90579 0.0347141 0
M  V30 11782 H 1095.98 -2.44769 0.802852 0
M  V30 11783 H 1095.93 -3.03421 -0.823607 0
M  V30 11784 N 1099.71 -1.29285 -0.901281 0
M  V30 11785 C 1101.12 -1.07263 -1.18182 0
M  V30 11786 C 1101.32 0.177087 -2.0072 0
M  V30 11787 O 1100.38 0.875292 -2.36844 0
M  V30 11788 C 1101.69 -2.32717 -1.9043 0
M  V30 11789 C 1103.24 -2.3802 -2.03262 0
M  V30 11790 C 1103.71 -3.63273 -2.7892 0
M  V30 11791 N 1105.21 -3.63986 -2.86475 0
M  V30 11792 C 1105.94 -4.57585 -3.45549 0
M  V30 11793 N 1105.44 -5.61513 -4.05801 0
M  V30 11794 N 1107.23 -4.45157 -3.43208 0
M  V30 11795 H 1099.38 -2.09487 -0.350536 0
M  V30 11796 H 1101.64 -0.922647 -0.217778 0
M  V30 11797 H 1101.35 -3.23828 -1.37216 0
M  V30 11798 H 1101.22 -2.40102 -2.90913 0
M  V30 11799 H 1103.61 -1.47398 -2.55652 0
M  V30 11800 H 1103.69 -2.3462 -1.01916 0
M  V30 11801 H 1103.34 -4.54246 -2.27206 0
M  V30 11802 H 1103.27 -3.6393 -3.80608 0
M  V30 11803 H 1105.76 -2.8884 -2.43679 0
M  V30 11804 H 1106.07 -6.29058 -4.48894 0
M  V30 11805 H 1104.41 -5.65325 -4.04268 0
M  V30 11806 H 1107.61 -3.63158 -2.95354 0
M  V30 11807 H 1107.78 -5.18286 -3.88952 0
M  V30 11808 N 1101.18 1.11143 -1.11736 0
M  V30 11809 C 1102.41 1.86474 -0.889435 0
M  V30 11810 C 1102.82 1.80584 0.564438 0
M  V30 11811 O 1102.17 1.18743 1.40163 0
M  V30 11812 C 1102.23 3.36066 -1.27671 0
M  V30 11813 C 1101.89 3.65721 -2.74038 0
M  V30 11814 C 1102.89 3.62941 -3.7225 0
M  V30 11815 C 1100.57 3.94629 -3.10762 0
M  V30 11816 C 1102.57 3.88651 -5.05202 0
M  V30 11817 C 1100.25 4.19997 -4.43899 0
M  V30 11818 C 1101.25 4.16996 -5.40928 0
M  V30 11819 O 1100.94 4.41724 -6.71666 0
M  V30 11820 H 1100.67 0.596438 -0.318178 0
M  V30 11821 H 1103.23 1.41465 -1.48918 0
M  V30 11822 H 1101.46 3.81695 -0.620124 0
M  V30 11823 H 1103.15 3.92769 -1.02409 0
M  V30 11824 H 1103.91 3.40655 -3.45223 0
M  V30 11825 H 1099.79 3.96099 -2.35853 0
M  V30 11826 H 1103.33 3.86224 -5.80927 0
M  V30 11827 H 1099.23 4.4176 -4.70657 0
M  V30 11828 H 1100 4.59276 -6.77501 0
M  V30 11829 N 1102.66 0.908147 1.28804 0
M  V30 11830 C 1103.89 0.553431 1.9988 0
M  V30 11831 C 1104.31 -0.856714 1.67458 0
M  V30 11832 O 1103.67 -1.57163 0.903849 0
M  V30 11833 C 1103.72 0.762688 3.52442 0
M  V30 11834 O 1102.82 -0.180924 4.12003 0
M  V30 11835 H 1102.16 0.215237 0.628147 0
M  V30 11836 H 1104.69 1.22205 1.64095 0
M  V30 11837 H 1104.7 0.670612 4.02451 0
M  V30 11838 H 1103.38 1.79071 3.75375 0
M  V30 11839 H 1101.96 -0.0405897 3.72878 0
M  V30 11840 N 1104.14 -1.42577 0.671525 0
M  V30 11841 C 1105.05 -2.34598 -0.00898225 0
M  V30 11842 C 1106.07 -1.54909 -0.792407 0
M  V30 11843 O 1107.24 -1.87491 -0.735477 0
M  V30 11844 C 1104.31 -3.33405 -0.950888 0
M  V30 11845 C 1103.37 -4.28993 -0.16236 0
M  V30 11846 C 1102.6 -5.2308 -1.0594 0
M  V30 11847 O 1102.82 -5.22022 -2.2989 0
M  V30 11848 O 1101.76 -5.99632 -0.521966 0
M  V30 11849 H 1105.58 -2.94321 0.748927 0
M  V30 11850 H 1103.17 -1.43025 0.43175 0
M  V30 11851 H 1105.05 -3.94115 -1.49169 0
M  V30 11852 H 1103.73 -2.7616 -1.68871 0
M  V30 11853 H 1102.63 -3.71707 0.42247 0
M  V30 11854 H 1103.97 -4.8927 0.536274 0
M  V30 11855 N 1105.62 -0.414636 -1.52048 0
M  V30 11856 C 1106.53 0.414861 -2.30903 0
M  V30 11857 C 1107.54 1.04855 -1.38858 0
M  V30 11858 O 1108.72 1.04886 -1.71933 0
M  V30 11859 C 1105.79 1.51356 -3.11917 0
M  V30 11860 C 1104.85 0.902359 -4.19709 0
M  V30 11861 C 1104.08 1.9487 -4.96852 0
M  V30 11862 O 1104.3 3.16766 -4.74358 0
M  V30 11863 O 1103.24 1.55186 -5.8155 0
M  V30 11864 H 1107.06 -0.228251 -3.02841 0
M  V30 11865 H 1104.65 -0.177704 -1.48339 0
M  V30 11866 H 1106.53 2.15127 -3.62351 0
M  V30 11867 H 1105.2 2.14117 -2.42767 0
M  V30 11868 H 1104.11 0.22721 -3.73409 0
M  V30 11869 H 1105.44 0.318587 -4.91168 0
M  V30 11870 N 1107.1 1.56929 -0.145233 0
M  V30 11871 C 1108.37 1.8767 0.551288 0
M  V30 11872 C 1108.75 1.05089 1.83083 0
M  V30 11873 O 1108.1 0.137201 2.28088 0
M  V30 11874 C 1108.31 3.39268 0.818445 0
M  V30 11875 C 1109.66 4.08447 1.16 0
M  V30 11876 O 1110.68 3.44436 0.907857 0
M  V30 11877 O 1109.54 5.21488 1.63441 0
M  V30 11878 H 1106.64 0.777788 0.281024 0
M  V30 11879 H 1109.18 1.68724 -0.181712 0
M  V30 11880 H 1107.95 3.91203 -0.0871897 0
M  V30 11881 H 1107.58 3.63735 1.60569 0
M  V30 11882 N 1108.58 -0.128553 1.57075 0
M  V30 11883 C 1109.52 -1.15812 1.9964 0
M  V30 11884 C 1110.49 -1.41679 0.86696 0
M  V30 11885 O 1111.68 -1.53705 1.13046 0
M  V30 11886 C 1108.82 -2.48198 2.39774 0
M  V30 11887 C 1107.93 -2.29348 3.66092 0
M  V30 11888 C 1107.07 -3.54898 3.95248 0
M  V30 11889 C 1106.1 -3.31164 5.14779 0
M  V30 11890 N 1105.24 -4.48891 5.39853 0
M  V30 11891 H 1110.08 -0.788136 2.87389 0
M  V30 11892 H 1107.62 -0.377682 1.42169 0
M  V30 11893 H 1109.58 -3.25414 2.61077 0
M  V30 11894 H 1108.21 -2.83108 1.5508 0
M  V30 11895 H 1107.26 -1.43095 3.5246 0
M  V30 11896 H 1108.57 -2.07781 4.53463 0
M  V30 11897 H 1107.72 -4.40536 4.17148 0
M  V30 11898 H 1106.46 -3.79487 3.06335 0
M  V30 11899 H 1105.47 -2.43915 4.92733 0
M  V30 11900 H 1106.69 -3.07954 6.05261 0
M  V30 11901 H 1104.64 -4.73619 4.53895 0
M  V30 11902 H 1104.56 -4.30394 6.21528 0
M  V30 11903 H 1105.82 -5.35691 5.66265 0
M  V30 11904 N 1110.05 -1.5248 -0.398459 0
M  V30 11905 C 1110.99 -1.71321 -1.50746 0
M  V30 11906 C 1111.96 -0.5609 -1.52619 0
M  V30 11907 O 1113.15 -0.789557 -1.71167 0
M  V30 11908 C 1110.28 -1.76223 -2.89246 0
M  V30 11909 C 1109.32 -2.97878 -3.05239 0
M  V30 11910 S 1110.15 -4.58031 -2.77431 0
M  V30 11911 C 1111.31 -4.65735 -4.18141 0
M  V30 11912 H 1111.54 -2.65117 -1.34538 0
M  V30 11913 H 1109.08 -1.42653 -0.590727 0
M  V30 11914 H 1111.03 -1.79733 -3.69062 0
M  V30 11915 H 1109.7 -0.83536 -3.02788 0
M  V30 11916 H 1108.89 -2.97821 -4.06594 0
M  V30 11917 H 1108.49 -2.92311 -2.33304 0
M  V30 11918 H 1110.78 -4.43768 -5.11934 0
M  V30 11919 H 1111.73 -5.67709 -4.23217 0
M  V30 11920 H 1112.13 -3.94664 -4.03609 0
M  V30 11921 N 1111.53 0.65634 -1.43283 0
M  V30 11922 C 1112.48 1.79058 -1.48462 0
M  V30 11923 C 1113.47 1.65563 -0.358512 0
M  V30 11924 O 1114.68 1.71947 -0.532365 0
M  V30 11925 H 1111.05 0.590716 -0.465358 0
M  V30 11926 H 1113.03 1.7181 -2.43975 0
M  V30 11927 C 1111.77 3.17304 -1.42175 0
M  V30 11928 H 1111.1 3.28324 -2.2813 0
M  V30 11929 H 1112.54 3.96633 -1.4986 0
M  V30 11930 C 1111 3.36613 -0.138929 0
M  V30 11931 O 1111.53 3.93633 0.80101 0
M  V30 11932 N 1109.73 2.90557 -0.0501237 0
M  V30 11933 H 1109.28 2.4434 -0.815821 0
M  V30 11934 H 1109.24 3.03853 0.807504 0
M  V30 11935 N 1113.01 1.29761 0.894412 0
M  V30 11936 C 1114.26 1.17409 1.64006 0
M  V30 11937 C 1114.57 -0.272355 1.93695 0
M  V30 11938 O 1115.78 -0.517269 2.66527 0
M  V30 11939 C 1114.23 2.05379 2.95546 0
M  V30 11940 C 1113.84 3.54878 2.73433 0
M  V30 11941 C 1115.59 2.01765 3.73485 0
M  V30 11942 C 1113.49 4.34935 4.00731 0
M  V30 11943 H 1112.42 0.43583 0.615279 0
M  V30 11944 H 1115.07 1.5444 0.990983 0
M  V30 11945 H 1113.46 1.61222 3.61695 0
M  V30 11946 H 1114.63 4.07122 2.15844 0
M  V30 11947 H 1112.94 3.60218 2.08882 0
M  V30 11948 H 1115.54 2.58835 4.67877 0
M  V30 11949 H 1115.88 0.998876 4.04139 0
M  V30 11950 H 1116.42 2.43994 3.14184 0
M  V30 11951 H 1113.16 5.3747 3.75241 0
M  V30 11952 H 1112.68 3.87458 4.5786 0
M  V30 11953 H 1114.36 4.45875 4.68833 0
M  V30 11954 N 1114.49 -1.10549 1.12324 0
M  V30 11955 C 1115.44 -2.18944 0.785248 0
M  V30 11956 C 1116.43 -1.67867 -0.227389 0
M  V30 11957 O 1117.64 -1.79796 -0.0857162 0
M  V30 11958 H 1114.01 -0.713976 0.236098 0
M  V30 11959 H 1115.98 -2.44692 1.70788 0
M  V30 11960 C 1114.73 -3.46765 0.25485 0
M  V30 11961 H 1114.05 -3.86428 1.02534 0
M  V30 11962 H 1115.49 -4.23962 0.0566526 0
M  V30 11963 C 1113.95 -3.21185 -1.01695 0
M  V30 11964 O 1114.48 -3.42745 -2.09497 0
M  V30 11965 N 1112.69 -2.7486 -0.943423 0
M  V30 11966 H 1112.24 -2.57515 -0.0660366 0
M  V30 11967 H 1112.19 -2.58122 -1.795 0
M  V30 11968 N 1115.97 -0.914965 -1.28321 0
M  V30 11969 C 1117.21 -0.544639 -1.94208 0
M  V30 11970 C 1117.53 0.916368 -1.72806 0
M  V30 11971 O 1118.73 1.39491 -2.32926 0
M  V30 11972 C 1117.19 -0.923209 -3.47858 0
M  V30 11973 C 1116.8 -2.40403 -3.78035 0
M  V30 11974 C 1118.54 -0.623526 -4.19896 0
M  V30 11975 C 1116.45 -2.72266 -5.25 0
M  V30 11976 H 1115.38 -0.199966 -0.727 0
M  V30 11977 H 1118.03 -1.11405 -1.45812 0
M  V30 11978 H 1116.41 -0.282576 -3.94991 0
M  V30 11979 H 1117.59 -3.09149 -3.41706 0
M  V30 11980 H 1115.9 -2.67429 -3.19172 0
M  V30 11981 H 1118.5 -0.838243 -5.28089 0
M  V30 11982 H 1118.84 0.438721 -4.13982 0
M  V30 11983 H 1119.37 -1.22268 -3.78544 0
M  V30 11984 H 1116.11 -3.77349 -5.35993 0
M  V30 11985 H 1115.63 -2.08157 -5.62522 0
M  V30 11986 H 1117.31 -2.59334 -5.92752 0
M  V30 11987 N 1117.44 1.42219 -0.679077 0
M  V30 11988 C 1118.72 1.95155 -0.13188 0
M  V30 11989 C 1119.1 1.6193 1.35433 0
M  V30 11990 O 1118.45 0.917672 2.09263 0
M  V30 11991 C 1118.66 3.46635 -0.405578 0
M  V30 11992 C 1120.01 4.23359 -0.324394 0
M  V30 11993 O 1121.03 3.54578 -0.339564 0
M  V30 11994 O 1119.89 5.45831 -0.270268 0
M  V30 11995 H 1116.98 0.826983 -0.00535438 0
M  V30 11996 H 1119.53 1.52024 -0.754101 0
M  V30 11997 H 1118.3 3.6404 -1.43495 0
M  V30 11998 H 1117.92 3.96823 0.248439 0
M  V30 11999 N 1118.92 0.422693 1.51826 0
M  V30 12000 C 1120.17 -0.148641 2.01954 0
M  V30 12001 C 1120.5 -1.43982 1.30765 0
M  V30 12002 O 1119.75 -1.91428 0.406668 0
M  V30 12003 C 1120.05 -0.429516 3.5481 0
M  V30 12004 C 1119.72 0.774088 4.44206 0
M  V30 12005 C 1118.38 1.1042 4.6836 0
M  V30 12006 C 1120.73 1.5777 4.96747 0
M  V30 12007 C 1118.06 2.23887 5.42302 0
M  V30 12008 C 1120.41 2.70325 5.71933 0
M  V30 12009 C 1119.07 3.03807 5.94355 0
M  V30 12010 H 1118.34 -0.0543917 0.739001 0
M  V30 12011 H 1120.99 0.566892 1.82917 0
M  V30 12012 H 1119.3 -1.22678 3.72099 0
M  V30 12013 H 1120.99 -0.884761 3.91118 0
M  V30 12014 H 1117.58 0.506834 4.25593 0
M  V30 12015 H 1121.77 1.33589 4.77983 0
M  V30 12016 H 1117.02 2.50159 5.5788 0
M  V30 12017 H 1121.2 3.32974 6.11638 0
M  V30 12018 H 1118.82 3.91844 6.51431 0
M  V30 12019 N 1120.4 -1.5685 0.153553 0
M  V30 12020 C 1121.35 -2.18385 -0.800667 0
M  V30 12021 C 1122.34 -1.14272 -1.25053 0
M  V30 12022 O 1123.55 -1.32509 -1.21825 0
M  V30 12023 H 1119.92 -0.699352 -0.276425 0
M  V30 12024 H 1121.89 -2.97287 -0.257535 0
M  V30 12025 C 1120.64 -2.82497 -2.02708 0
M  V30 12026 H 1119.97 -3.62328 -1.68992 0
M  V30 12027 H 1121.41 -3.29047 -2.67403 0
M  V30 12028 C 1119.86 -1.81343 -2.8393 0
M  V30 12029 O 1120.39 -1.28793 -3.80493 0
M  V30 12030 N 1118.6 -1.50499 -2.48593 0
M  V30 12031 H 1118.15 -1.93425 -1.70131 0
M  V30 12032 H 1118.11 -0.830672 -3.03228 0
M  V30 12033 N 1121.88 0.120221 -1.57141 0
M  V30 12034 C 1123.15 0.858458 -1.75755 0
M  V30 12035 C 1123.53 1.98124 -0.728693 0
M  V30 12036 O 1122.88 2.27155 0.247573 0
M  V30 12037 C 1123.09 1.37627 -3.20718 0
M  V30 12038 C 1124.44 1.82909 -3.83183 0
M  V30 12039 O 1125.46 1.47309 -3.24312 0
M  V30 12040 O 1124.32 2.4865 -4.86657 0
M  V30 12041 H 1121.42 0.407583 -0.719587 0
M  V30 12042 H 1123.96 0.104057 -1.69381 0
M  V30 12043 H 1122.74 0.570651 -3.87117 0
M  V30 12044 H 1122.36 2.19341 -3.31625 0
M  V30 12045 N 1123.36 1.52689 0.390367 0
M  V30 12046 C 1124.61 1.6689 1.13272 0
M  V30 12047 C 1124.92 0.414433 1.91159 0
M  V30 12048 O 1126.12 0.436559 2.67967 0
M  V30 12049 C 1124.58 2.94929 2.06264 0
M  V30 12050 C 1124.19 4.27551 1.33805 0
M  V30 12051 C 1125.93 3.18497 2.80642 0
M  V30 12052 C 1123.84 5.46698 2.25554 0
M  V30 12053 H 1122.77 0.621749 0.426549 0
M  V30 12054 H 1125.42 1.79185 0.395615 0
M  V30 12055 H 1123.8 2.76378 2.83604 0
M  V30 12056 H 1124.98 4.56651 0.616997 0
M  V30 12057 H 1123.29 4.10234 0.713913 0
M  V30 12058 H 1125.89 4.04693 3.49467 0
M  V30 12059 H 1126.23 2.33511 3.44642 0
M  V30 12060 H 1126.76 3.37607 2.10395 0
M  V30 12061 H 1123.5 6.34088 1.66171 0
M  V30 12062 H 1123.02 5.21913 2.95579 0
M  V30 12063 H 1124.7 5.80519 2.85668 0
M  V30 12064 N 1124.83 -0.648732 1.43629 0
M  V30 12065 C 1126.11 -1.4062 1.35961 0
M  V30 12066 C 1126.49 -2.11098 0.00961023 0
M  V30 12067 O 1125.84 -2.05107 -1.00714 0
M  V30 12068 C 1126.05 -2.38719 2.54586 0
M  V30 12069 C 1127.4 -3.02584 2.97873 0
M  V30 12070 O 1128.42 -2.49046 2.54665 0
M  V30 12071 O 1127.28 -3.99662 3.72736 0
M  V30 12072 H 1124.37 -0.628483 0.53753 0
M  V30 12073 H 1126.92 -0.675263 1.55687 0
M  V30 12074 H 1125.69 -1.85619 3.44472 0
M  V30 12075 H 1125.32 -3.19257 2.36983 0
M  V30 12076 N 1126.31 -1.30234 -0.887518 0
M  V30 12077 C 1127.56 -1.1891 -1.6391 0
M  V30 12078 C 1127.89 0.256749 -1.92798 0
M  V30 12079 O 1127.14 1.20047 -1.54555 0
M  V30 12080 C 1127.44 -1.96046 -2.98832 0
M  V30 12081 C 1127.11 -3.45683 -2.89507 0
M  V30 12082 C 1125.77 -3.86489 -2.8667 0
M  V30 12083 C 1128.12 -4.40983 -2.7782 0
M  V30 12084 C 1125.45 -5.2089 -2.69982 0
M  V30 12085 C 1127.8 -5.75489 -2.6267 0
M  V30 12086 C 1126.47 -6.15537 -2.58207 0
M  V30 12087 H 1125.74 -0.435123 -0.599791 0
M  V30 12088 H 1128.38 -1.61308 -1.03209 0
M  V30 12089 H 1126.69 -1.46275 -3.6347 0
M  V30 12090 H 1128.38 -1.84678 -3.55942 0
M  V30 12091 H 1124.97 -3.13255 -2.92523 0
M  V30 12092 H 1129.16 -4.10401 -2.79079 0
M  V30 12093 H 1124.41 -5.51014 -2.6494 0
M  V30 12094 H 1128.59 -6.48973 -2.526 0
M  V30 12095 H 1126.22 -7.19627 -2.45034 0
M  V30 12096 N 1127.79 1.09952 -1.12909 0
M  V30 12097 C 1128.74 2.16436 -0.801514 0
M  V30 12098 C 1129.71 1.64444 0.233976 0
M  V30 12099 O 1130.89 1.90497 0.10743 0
M  V30 12100 C 1128.03 3.4406 -0.267753 0
M  V30 12101 C 1127.15 4.09979 -1.36165 0
M  V30 12102 C 1126.28 5.25341 -0.786803 0
M  V30 12103 C 1125.32 5.83172 -1.85948 0
M  V30 12104 N 1124.46 6.89904 -1.30298 0
M  V30 12105 H 1129.3 2.43799 -1.71365 0
M  V30 12106 H 1126.83 1.19665 -0.855499 0
M  V30 12107 H 1128.79 4.17157 0.0598031 0
M  V30 12108 H 1127.42 3.17031 0.607528 0
M  V30 12109 H 1126.47 3.34801 -1.8059 0
M  V30 12110 H 1127.79 4.48999 -2.17259 0
M  V30 12111 H 1126.94 6.05312 -0.410211 0
M  V30 12112 H 1125.68 4.87669 0.055279 0
M  V30 12113 H 1124.68 5.01867 -2.24521 0
M  V30 12114 H 1125.91 6.22907 -2.70487 0
M  V30 12115 H 1123.85 6.54221 -0.482806 0
M  V30 12116 H 1123.77 7.27662 -2.05046 0
M  V30 12117 H 1125.04 7.73643 -0.953779 0
M  V30 12118 N 1129.27 0.921757 1.27833 0
M  V30 12119 C 1130.2 0.433466 2.29441 0
M  V30 12120 C 1131.18 -0.503133 1.62489 0
M  V30 12121 O 1132.36 -0.409156 1.89841 0
M  V30 12122 C 1129.49 -0.320029 3.45822 0
M  V30 12123 C 1128.45 0.528178 4.24728 0
M  V30 12124 C 1127.77 -0.354132 5.33526 0
M  V30 12125 C 1129.07 1.78959 4.90684 0
M  V30 12126 H 1130.77 1.28263 2.70535 0
M  V30 12127 H 1128.31 0.618197 1.30055 0
M  V30 12128 H 1130.27 -0.672526 4.15999 0
M  V30 12129 H 1128.99 -1.20317 3.0363 0
M  V30 12130 H 1127.65 0.863302 3.5629 0
M  V30 12131 H 1127.3 -1.23605 4.87576 0
M  V30 12132 H 1127 0.209855 5.87225 0
M  V30 12133 H 1128.52 -0.702333 6.06547 0
M  V30 12134 H 1129.94 1.50552 5.53179 0
M  V30 12135 H 1128.33 2.29661 5.54415 0
M  V30 12136 H 1129.4 2.51265 4.14721 0
M  V30 12137 N 1130.75 -1.41857 0.686609 0
M  V30 12138 C 1131.69 -2.326 0.0041351 0
M  V30 12139 C 1132.69 -1.50474 -0.778077 0
M  V30 12140 O 1133.89 -1.66468 -0.684709 0
M  V30 12141 H 1130.27 -0.751797 -0.0174615 0
M  V30 12142 H 1132.24 -2.87844 0.786656 0
M  V30 12143 C 1130.99 -3.35175 -0.924819 0
M  V30 12144 H 1130.31 -3.98416 -0.332339 0
M  V30 12145 H 1131.75 -4.01229 -1.37082 0
M  V30 12146 C 1130.21 -2.68359 -2.03679 0
M  V30 12147 O 1130.74 -2.52453 -3.12459 0
M  V30 12148 N 1128.95 -2.27196 -1.81192 0
M  V30 12149 H 1128.49 -2.40333 -0.92725 0
M  V30 12150 H 1128.45 -1.82824 -2.55778 0
M  V30 12151 N 1132.22 -0.430739 -1.51599 0
M  V30 12152 C 1133.16 0.419726 -2.25324 0
M  V30 12153 C 1134.17 0.991925 -1.29092 0
M  V30 12154 O 1135.36 0.887188 -1.54891 0
M  V30 12155 C 1132.46 1.59844 -2.98836 0
M  V30 12156 C 1131.63 1.14629 -4.22112 0
M  V30 12157 C 1130.69 2.19437 -4.78261 0
M  V30 12158 O 1129.72 1.79141 -5.40275 0
M  V30 12159 N 1130.92 3.51849 -4.61717 0
M  V30 12160 H 1133.68 -0.212112 -2.98948 0
M  V30 12161 H 1131.24 -0.259269 -1.59811 0
M  V30 12162 H 1133.24 2.29567 -3.33288 0
M  V30 12163 H 1131.81 2.13575 -2.28264 0
M  V30 12164 H 1131.03 0.276367 -3.9323 0
M  V30 12165 H 1132.31 0.821488 -5.02124 0
M  V30 12166 H 1131.71 3.87324 -4.12306 0
M  V30 12167 H 1130.27 4.17486 -5.00548 0
M  V30 12168 N 1133.7 1.56767 -0.161869 0
M  V30 12169 C 1134.93 2.01401 0.49523 0
M  V30 12170 C 1135.35 1.04133 1.56646 0
M  V30 12171 O 1134.71 0.0193747 1.8129 0
M  V30 12172 C 1134.76 3.44695 1.05913 0
M  V30 12173 O 1133.86 3.50475 2.1735 0
M  V30 12174 H 1133.2 0.65314 0.1196 0
M  V30 12175 H 1135.73 2.02903 -0.26298 0
M  V30 12176 H 1135.74 3.83805 1.3841 0
M  V30 12177 H 1134.42 4.14991 0.274749 0
M  V30 12178 H 1133 3.23218 1.85969 0
M  V30 12179 N 1135.18 -0.111886 1.57202 0
M  V30 12180 C 1136.43 -0.817022 1.84412 0
M  V30 12181 C 1136.74 -1.80708 0.748608 0
M  V30 12182 O 1137.95 -2.55891 0.907319 0
M  V30 12183 C 1136.4 -1.50376 3.26979 0
M  V30 12184 C 1136.01 -0.554334 4.44557 0
M  V30 12185 C 1137.76 -2.19361 3.63429 0
M  V30 12186 C 1135.66 -1.24471 5.78153 0
M  V30 12187 H 1134.59 -0.308864 0.687836 0
M  V30 12188 H 1137.24 -0.0698109 1.83367 0
M  V30 12189 H 1135.63 -2.29785 3.22514 0
M  V30 12190 H 1136.8 0.207045 4.60335 0
M  V30 12191 H 1135.12 0.0289261 4.1639 0
M  V30 12192 H 1137.71 -2.71716 4.60515 0
M  V30 12193 H 1138.06 -2.97488 2.91215 0
M  V30 12194 H 1138.59 -1.46833 3.69709 0
M  V30 12195 H 1135.33 -0.504584 6.53555 0
M  V30 12196 H 1134.85 -1.97792 5.66249 0
M  V30 12197 H 1136.53 -1.77591 6.2215 0
M  V30 12198 N 1136.66 -1.52894 -0.382264 0
M  V30 12199 C 1137.61 -1.78799 -1.48774 0
M  V30 12200 C 1138.6 -0.65624 -1.56173 0
M  V30 12201 O 1139.81 -0.838856 -1.59258 0
M  V30 12202 H 1136.18 -0.565855 -0.49529 0
M  V30 12203 H 1138.15 -2.7136 -1.24122 0
M  V30 12204 C 1136.9 -1.97987 -2.85826 0
M  V30 12205 H 1136.22 -2.84505 -2.80886 0
M  V30 12206 H 1137.66 -2.20099 -3.62398 0
M  V30 12207 C 1136.12 -0.75427 -3.28348 0
M  V30 12208 O 1136.65 0.0650749 -4.01647 0
M  V30 12209 N 1134.86 -0.582457 -2.84703 0
M  V30 12210 H 1134.41 -1.25034 -2.2522 0
M  V30 12211 H 1134.36 0.236208 -3.13511 0
M  V30 12212 N 1138.14 0.641106 -1.43971 0
M  V30 12213 C 1139.07 1.76489 -1.52885 0
M  V30 12214 C 1140.05 1.65742 -0.38258 0
M  V30 12215 O 1141.23 1.84653 -0.601397 0
M  V30 12216 C 1138.36 3.14977 -1.4631 0
M  V30 12217 C 1137.32 3.40502 -2.59311 0
M  V30 12218 C 1136.64 4.78916 -2.37789 0
M  V30 12219 C 1137.94 3.34048 -4.01509 0
M  V30 12220 H 1139.64 1.69286 -2.46946 0
M  V30 12221 H 1137.18 0.813015 -1.18853 0
M  V30 12222 H 1139.14 3.9336 -1.51149 0
M  V30 12223 H 1137.86 3.2294 -0.487599 0
M  V30 12224 H 1136.52 2.64495 -2.53846 0
M  V30 12225 H 1136.17 4.8357 -1.38454 0
M  V30 12226 H 1135.87 4.96954 -3.13545 0
M  V30 12227 H 1137.39 5.59541 -2.4443 0
M  V30 12228 H 1138.81 4.0235 -4.08396 0
M  V30 12229 H 1137.2 3.63622 -4.77388 0
M  V30 12230 H 1138.27 2.32022 -4.25786 0
M  V30 12231 N 1139.62 1.30703 0.880598 0
M  V30 12232 C 1140.58 1.17429 1.96832 0
M  V30 12233 C 1141.58 0.104305 1.60461 0
M  V30 12234 O 1142.77 0.352758 1.70591 0
M  V30 12235 C 1139.9 0.800099 3.31378 0
M  V30 12236 H 1141.09 2.14069 2.10034 0
M  V30 12237 H 1138.65 1.14162 1.06755 0
M  V30 12238 H 1139.38 -0.165606 3.23877 0
M  V30 12239 H 1139.17 1.57341 3.59146 0
M  V30 12240 H 1140.66 0.730826 4.11155 0
M  V30 12241 N 1141.09 -1.09351 1.1349 0
M  V30 12242 C 1142.34 -1.80915 0.89177 0
M  V30 12243 C 1142.66 -1.86688 -0.5837 0
M  V30 12244 O 1143.86 -2.54568 -0.943788 0
M  V30 12245 C 1142.32 -3.25009 1.54587 0
M  V30 12246 C 1141.93 -3.27501 3.05691 0
M  V30 12247 C 1143.67 -4.01323 1.38346 0
M  V30 12248 C 1141.58 -4.66123 3.63983 0
M  V30 12249 H 1140.51 -0.677961 0.329978 0
M  V30 12250 H 1143.16 -1.22893 1.3627 0
M  V30 12251 H 1141.54 -3.83098 1.0026 0
M  V30 12252 H 1142.71 -2.79174 3.66604 0
M  V30 12253 H 1141.03 -2.64677 3.21457 0
M  V30 12254 H 1143.63 -5.03739 1.79307 0
M  V30 12255 H 1143.97 -4.15003 0.328404 0
M  V30 12256 H 1144.5 -3.49679 1.89656 0
M  V30 12257 H 1141.24 -4.57646 4.69298 0
M  V30 12258 H 1140.76 -5.14772 3.07848 0
M  V30 12259 H 1142.44 -5.35097 3.63703 0
M  V30 12260 N 1142.57 -0.928524 -1.27343 0
M  V30 12261 C 1143.52 -0.418768 -2.28799 0
M  V30 12262 C 1144.51 0.497334 -1.61935 0
M  V30 12263 O 1145.72 0.376945 -1.76009 0
M  V30 12264 H 1142.09 -0.116855 -0.742865 0
M  V30 12265 H 1144.07 -1.28725 -2.69207 0
M  V30 12266 C 1142.81 0.312422 -3.46294 0
M  V30 12267 H 1142.14 -0.383317 -3.97958 0
M  V30 12268 H 1143.58 0.633514 -4.19241 0
M  V30 12269 C 1142.04 1.5257 -3.00373 0
M  V30 12270 O 1142.57 2.62443 -3.04116 0
M  V30 12271 N 1140.77 1.37782 -2.5586 0
M  V30 12272 H 1140.32 0.483908 -2.53014 0
M  V30 12273 H 1140.28 2.19085 -2.25498 0
M  V30 12274 N 1144.05 1.41491 -0.694123 0
M  V30 12275 C 1145 2.32594 -0.0164704 0
M  V30 12276 C 1145.99 1.50884 0.770086 0
M  V30 12277 O 1147.2 1.66829 0.675871 0
M  V30 12278 H 1143.57 0.751879 0.0134743 0
M  V30 12279 H 1145.54 2.87423 -0.80191 0
M  V30 12280 C 1144.29 3.35661 0.90703 0
M  V30 12281 H 1143.62 3.98587 0.311205 0
M  V30 12282 H 1145.06 4.0195 1.34952 0
M  V30 12283 C 1143.51 2.69436 2.02253 0
M  V30 12284 O 1144.04 2.54107 3.11115 0
M  V30 12285 N 1142.25 2.28154 1.79984 0
M  V30 12286 H 1141.8 2.40821 0.914492 0
M  V30 12287 H 1141.76 1.84178 2.54805 0
M  V30 12288 N 1145.53 0.438773 1.51369 0
M  V30 12289 C 1146.78 -0.128723 2.01289 0
M  V30 12290 C 1147.09 -1.43659 1.32745 0
M  V30 12291 O 1148.3 -2.08712 1.73642 0
M  V30 12292 C 1146.75 -0.279945 3.5881 0
M  V30 12293 C 1146.36 1.01758 4.3629 0
M  V30 12294 C 1148.1 -0.801133 4.16872 0
M  V30 12295 C 1146.01 0.831918 5.85519 0
M  V30 12296 H 1144.94 -0.0518814 0.752213 0
M  V30 12297 H 1147.59 0.568753 1.74463 0
M  V30 12298 H 1145.97 -1.04046 3.82087 0
M  V30 12299 H 1147.15 1.78653 4.24758 0
M  V30 12300 H 1145.46 1.46741 3.89687 0
M  V30 12301 H 1148.06 -0.956548 5.26074 0
M  V30 12302 H 1148.4 -1.78396 3.76139 0
M  V30 12303 H 1148.94 -0.0988934 3.97677 0
M  V30 12304 H 1145.67 1.78716 6.30667 0
M  V30 12305 H 1145.19 0.102785 5.99712 0
M  V30 12306 H 1146.87 0.485681 6.45174 0
M  V30 12307 N 1147.01 -1.56678 0.170181 0
M  V30 12308 C 1148.28 -1.88524 -0.521362 0
M  V30 12309 C 1148.66 -1.07989 -1.81388 0
M  V30 12310 O 1148.01 -0.17347 -2.27841 0
M  V30 12311 C 1148.22 -3.40527 -0.764367 0
M  V30 12312 C 1149.57 -4.10241 -1.09487 0
M  V30 12313 O 1150.59 -3.45837 -0.852945 0
M  V30 12314 O 1149.45 -5.24022 -1.55124 0
M  V30 12315 H 1146.55 -0.782161 -0.268614 0
M  V30 12316 H 1149.09 -1.68414 0.208531 0
M  V30 12317 H 1147.86 -3.91015 0.149416 0
M  V30 12318 H 1147.49 -3.66244 -1.54762 0
M  V30 12319 N 1148.48 0.103547 -1.57259 0
M  V30 12320 C 1149.76 0.839768 -1.76656 0
M  V30 12321 C 1150.14 1.9734 -0.749666 0
M  V30 12322 O 1149.49 2.27405 0.223466 0
M  V30 12323 C 1149.7 1.34218 -3.22159 0
M  V30 12324 C 1151.05 1.78835 -3.85102 0
M  V30 12325 O 1152.07 1.43861 -3.25857 0
M  V30 12326 O 1150.93 2.43474 -4.89267 0
M  V30 12327 H 1148.02 0.399928 -0.723869 0
M  V30 12328 H 1150.57 0.0860857 -1.69482 0
M  V30 12329 H 1149.34 0.52956 -3.877 0
M  V30 12330 H 1148.96 2.15811 -3.33933 0
M  V30 12331 N 1149.96 1.53094 0.37415 0
M  V30 12332 C 1151.21 1.68861 1.11769 0
M  V30 12333 C 1151.54 0.436032 1.89549 0
M  V30 12334 O 1150.79 -0.581879 1.86849 0
M  V30 12335 C 1151.09 2.88432 2.11049 0
M  V30 12336 C 1150.76 4.25284 1.49814 0
M  V30 12337 C 1149.42 4.62501 1.32841 0
M  V30 12338 C 1151.77 5.10425 1.05433 0
M  V30 12339 C 1149.1 5.82502 0.700567 0
M  V30 12340 C 1151.45 6.31064 0.440525 0
M  V30 12341 C 1150.11 6.67 0.258216 0
M  V30 12342 H 1149.38 0.617906 0.40899 0
M  V30 12343 H 1152.03 1.87265 0.4005 0
M  V30 12344 H 1150.34 2.64505 2.8904 0
M  V30 12345 H 1152.03 2.97825 2.68517 0
M  V30 12346 H 1148.62 3.95976 1.64016 0
M  V30 12347 H 1152.81 4.82229 1.17342 0
M  V30 12348 H 1148.06 6.08942 0.547652 0
M  V30 12349 H 1152.24 6.96344 0.0883962 0
M  V30 12350 H 1149.86 7.59851 -0.230354 0
M  V30 12351 N 1151.44 -0.633461 1.44309 0
M  V30 12352 C 1152.69 -1.38902 1.4625 0
M  V30 12353 C 1153 -1.95354 0.0980699 0
M  V30 12354 O 1154.21 -2.715 -0.0049983 0
M  V30 12355 C 1152.66 -2.51477 2.57463 0
M  V30 12356 C 1152.27 -2.01549 4.00103 0
M  V30 12357 C 1154.02 -3.28698 2.68622 0
M  V30 12358 C 1151.92 -3.11452 5.02744 0
M  V30 12359 H 1150.85 -0.521976 0.544112 0
M  V30 12360 H 1153.5 -0.681725 1.70367 0
M  V30 12361 H 1151.89 -3.24771 2.26582 0
M  V30 12362 H 1153.06 -1.35135 4.4054 0
M  V30 12363 H 1151.37 -1.3715 3.93165 0
M  V30 12364 H 1153.97 -4.10624 3.42479 0
M  V30 12365 H 1154.31 -3.78027 1.7436 0
M  V30 12366 H 1154.85 -2.62494 2.98901 0
M  V30 12367 H 1151.59 -2.6707 5.98627 0
M  V30 12368 H 1151.11 -3.76514 4.66902 0
M  V30 12369 H 1152.79 -3.76265 5.2634 0
M  V30 12370 N 1152.92 -1.31168 -0.873655 0
M  V30 12371 C 1153.87 -1.18432 -2.00191 0
M  V30 12372 C 1154.86 -0.0934873 -1.69142 0
M  V30 12373 O 1156.07 -0.255126 -1.78183 0
M  V30 12374 H 1152.44 -0.366594 -0.656592 0
M  V30 12375 H 1154.41 -2.13896 -2.08065 0
M  V30 12376 C 1153.16 -0.904668 -3.35725 0
M  V30 12377 H 1152.48 -1.73617 -3.60135 0
M  V30 12378 H 1153.92 -0.855715 -4.15275 0
M  V30 12379 C 1152.38 0.392554 -3.34605 0
M  V30 12380 O 1152.91 1.41052 -3.76121 0
M  V30 12381 N 1151.12 0.40777 -2.87725 0
M  V30 12382 H 1150.67 -0.42112 -2.54134 0
M  V30 12383 H 1150.62 1.27564 -2.87358 0
M  V30 12384 N 1154.4 1.08748 -1.14068 0
M  V30 12385 C 1155.33 2.1544 -0.782199 0
M  V30 12386 C 1156.34 1.61575 0.199301 0
M  V30 12387 O 1157.53 1.78487 -0.0219044 0
M  V30 12388 C 1154.63 3.38611 -0.13983 0
M  V30 12389 C 1153.8 4.2187 -1.15518 0
M  V30 12390 C 1152.86 5.23451 -0.537216 0
M  V30 12391 O 1151.89 5.56424 -1.1992 0
M  V30 12392 N 1153.09 5.76413 0.6876 0
M  V30 12393 H 1155.86 2.46798 -1.70032 0
M  V30 12394 H 1153.42 1.24527 -1.03463 0
M  V30 12395 H 1155.41 4.03688 0.285999 0
M  V30 12396 H 1153.98 3.05084 0.681357 0
M  V30 12397 H 1153.2 3.52825 -1.75806 0
M  V30 12398 H 1154.49 4.74318 -1.84119 0
M  V30 12399 H 1153.88 5.51851 1.24406 0
M  V30 12400 H 1152.44 6.43189 1.05599 0
M  V30 12401 N 1155.87 0.935264 1.26849 0
M  V30 12402 C 1157.11 0.587087 1.95787 0
M  V30 12403 C 1157.48 -0.856974 1.71814 0
M  V30 12404 O 1158.68 -1.3138 2.34505 0
M  V30 12405 C 1156.95 0.91303 3.45541 0
M  V30 12406 S 1158.51 0.674506 4.33585 0
M  V30 12407 H 1155.33 0.216442 0.677255 0
M  V30 12408 H 1157.93 1.20532 1.53923 0
M  V30 12409 H 1156.63 1.96154 3.60488 0
M  V30 12410 H 1156.16 0.28429 3.92371 0
M  V30 12411 H 1158.18 -0.464121 4.94025 0
M  V30 12412 N 1157.35 -1.41121 0.701616 0
M  V30 12413 C 1158.58 -2.05973 0.242896 0
M  V30 12414 C 1159 -1.52474 -1.10151 0
M  V30 12415 O 1158.36 -0.654224 -1.69085 0
M  V30 12416 C 1158.41 -3.59943 0.217614 0
M  V30 12417 O 1157.51 -4.04454 -0.805629 0
M  V30 12418 H 1156.85 -0.653581 0.117166 0
M  V30 12419 H 1159.38 -1.80777 0.958175 0
M  V30 12420 H 1159.39 -4.07969 0.0505267 0
M  V30 12421 H 1158.07 -3.98249 1.19877 0
M  V30 12422 H 1156.65 -3.6792 -0.607404 0
M  V30 12423 N 1158.83 -0.446794 -1.51134 0
M  V30 12424 C 1160.08 0.118047 -2.01354 0
M  V30 12425 C 1160.39 1.42953 -1.33505 0
M  V30 12426 O 1161.6 2.07788 -1.74747 0
M  V30 12427 C 1160.05 0.260912 -3.58953 0
M  V30 12428 C 1159.66 -1.0407 -4.35745 0
M  V30 12429 C 1161.41 0.779014 -4.17291 0
M  V30 12430 C 1159.31 -0.862958 -5.8507 0
M  V30 12431 H 1158.24 0.0478915 -0.752478 0
M  V30 12432 H 1160.89 -0.577997 -1.74159 0
M  V30 12433 H 1159.28 1.02018 -3.82633 0
M  V30 12434 H 1160.45 -1.80903 -4.23805 0
M  V30 12435 H 1158.77 -1.48805 -3.88904 0
M  V30 12436 H 1161.36 0.928636 -5.26574 0
M  V30 12437 H 1161.71 1.76399 -3.7708 0
M  V30 12438 H 1162.24 0.0778022 -3.97724 0
M  V30 12439 H 1158.98 -1.82059 -6.2971 0
M  V30 12440 H 1158.5 -0.134588 -5.99649 0
M  V30 12441 H 1160.18 -0.51989 -6.44908 0
M  V30 12442 N 1160.31 1.56586 -0.178487 0
M  V30 12443 C 1161.53 2.01915 0.473841 0
M  V30 12444 C 1161.96 1.05789 1.55533 0
M  V30 12445 O 1161.32 0.0386018 1.81259 0
M  V30 12446 C 1161.36 3.45799 1.02251 0
M  V30 12447 O 1160.47 3.52761 2.1362 0
M  V30 12448 H 1159.81 0.654372 0.112666 0
M  V30 12449 H 1162.34 2.02613 -0.284486 0
M  V30 12450 H 1162.35 3.85252 1.34332 0
M  V30 12451 H 1161.02 4.1526 0.230719 0
M  V30 12452 H 1159.6 3.25172 1.8253 0
M  V30 12453 N 1161.79 -0.095206 1.57312 0
M  V30 12454 C 1163.02 -0.811092 1.90013 0
M  V30 12455 C 1163.42 -1.72807 0.770359 0
M  V30 12456 O 1162.77 -1.81755 -0.266615 0
M  V30 12457 C 1162.83 -1.67744 3.17966 0
M  V30 12458 C 1162.49 -0.932301 4.47389 0
M  V30 12459 C 1163.49 -0.262161 5.19239 0
M  V30 12460 C 1161.18 -0.906414 4.94054 0
M  V30 12461 C 1163.17 0.423898 6.35989 0
M  V30 12462 C 1160.86 -0.216569 6.10716 0
M  V30 12463 C 1161.85 0.447408 6.81533 0
M  V30 12464 O 1161.54 1.12619 7.95972 0
M  V30 12465 H 1161.27 -0.237154 0.633035 0
M  V30 12466 H 1163.83 -0.0768976 2.05256 0
M  V30 12467 H 1162.06 -2.45387 2.98868 0
M  V30 12468 H 1163.75 -2.26988 3.36498 0
M  V30 12469 H 1164.51 -0.273621 4.84228 0
M  V30 12470 H 1160.39 -1.41267 4.38822 0
M  V30 12471 H 1163.94 0.942727 6.91201 0
M  V30 12472 H 1159.83 -0.202955 6.45181 0
M  V30 12473 H 1160.6 1.03308 8.11954 0
M  V30 12474 N 1163.26 -1.53291 -0.366026 0
M  V30 12475 C 1164.19 -1.82675 -1.45437 0
M  V30 12476 C 1165.18 -0.680227 -1.55907 0
M  V30 12477 O 1166.36 -0.930032 -1.70482 0
M  V30 12478 C 1163.49 -2.01626 -2.8278 0
M  V30 12479 C 1162.44 -3.17391 -2.87135 0
M  V30 12480 C 1161.77 -3.21634 -4.27148 0
M  V30 12481 C 1163.07 -4.5599 -2.54697 0
M  V30 12482 H 1164.76 -2.73818 -1.21096 0
M  V30 12483 H 1162.31 -1.31754 -0.581108 0
M  V30 12484 H 1164.26 -2.20765 -3.58944 0
M  V30 12485 H 1162.99 -1.07193 -3.08508 0
M  V30 12486 H 1161.65 -2.98071 -2.13422 0
M  V30 12487 H 1161.29 -2.2484 -4.49951 0
M  V30 12488 H 1160.99 -3.99414 -4.30978 0
M  V30 12489 H 1162.52 -3.42957 -5.05186 0
M  V30 12490 H 1163.93 -4.75294 -3.20575 0
M  V30 12491 H 1162.33 -5.36008 -2.69844 0
M  V30 12492 H 1163.4 -4.61133 -1.49949 0
M  V30 12493 N 1164.74 0.6258 -1.44643 0
M  V30 12494 C 1165.68 1.75056 -1.46392 0
M  V30 12495 C 1166.65 1.59376 -0.322179 0
M  V30 12496 O 1167.84 1.81187 -0.519956 0
M  V30 12497 C 1164.96 3.12689 -1.30166 0
M  V30 12498 C 1164.01 3.47005 -2.47972 0
M  V30 12499 S 1164.84 3.43885 -4.10491 0
M  V30 12500 C 1166 4.84129 -3.96698 0
M  V30 12501 H 1166.23 1.73306 -2.41562 0
M  V30 12502 H 1163.77 0.800879 -1.32005 0
M  V30 12503 H 1165.72 3.9211 -1.21492 0
M  V30 12504 H 1164.38 3.11972 -0.364982 0
M  V30 12505 H 1163.58 4.47171 -2.32496 0
M  V30 12506 H 1163.18 2.75059 -2.53414 0
M  V30 12507 H 1165.47 5.73488 -3.60718 0
M  V30 12508 H 1166.41 5.0466 -4.96713 0
M  V30 12509 H 1166.82 4.58954 -3.28666 0
M  V30 12510 N 1166.22 1.31629 0.866686 0
M  V30 12511 C 1167.17 1.19492 1.99561 0
M  V30 12512 C 1168.16 0.102456 1.6909 0
M  V30 12513 O 1169.37 0.264571 1.78045 0
M  V30 12514 H 1165.74 0.370071 0.654638 0
M  V30 12515 H 1167.71 2.14996 2.06928 0
M  V30 12516 C 1166.46 0.92246 3.3524 0
M  V30 12517 H 1165.79 1.75524 3.59209 0
M  V30 12518 H 1167.23 0.877726 4.14816 0
M  V30 12519 C 1165.69 -0.374803 3.34809 0
M  V30 12520 O 1166.22 -1.39055 3.76864 0
M  V30 12521 N 1164.42 -0.392506 2.87937 0
M  V30 12522 H 1163.97 0.434591 2.53908 0
M  V30 12523 H 1163.93 -1.26038 2.88031 0
M  V30 12524 N 1167.7 -1.08142 1.14644 0
M  V30 12525 C 1169.12 -1.32656 0.887388 0
M  V30 12526 C 1169.32 -1.95942 -0.470012 0
M  V30 12527 O 1168.37 -2.21417 -1.21371 0
M  V30 12528 C 1169.68 -2.22549 2.02219 0
M  V30 12529 C 1171.23 -2.36021 2.0558 0
M  V30 12530 C 1171.71 -3.29257 3.18361 0
M  V30 12531 N 1173.2 -3.36835 3.17957 0
M  V30 12532 C 1173.93 -4.09017 4.01862 0
M  V30 12533 N 1173.43 -4.83882 4.95812 0
M  V30 12534 N 1175.22 -4.04875 3.89913 0
M  V30 12535 H 1167.37 -0.654457 2.02066 0
M  V30 12536 H 1169.64 -0.350947 0.880648 0
M  V30 12537 H 1169.34 -1.83296 3.00159 0
M  V30 12538 H 1169.22 -3.23027 1.94765 0
M  V30 12539 H 1171.6 -2.74531 1.08245 0
M  V30 12540 H 1171.68 -1.35275 2.17105 0
M  V30 12541 H 1171.33 -2.91468 4.15944 0
M  V30 12542 H 1171.26 -4.29938 3.04074 0
M  V30 12543 H 1173.75 -2.83465 2.49912 0
M  V30 12544 H 1174.06 -5.3643 5.56294 0
M  V30 12545 H 1172.41 -4.82926 4.99808 0
M  V30 12546 H 1175.6 -3.45496 3.15833 0
M  V30 12547 H 1175.77 -4.60866 4.55529 0
M  V30 12548 N 1169.18 -0.941978 -1.26351 0
M  V30 12549 C 1170.11 -0.396486 -2.24729 0
M  V30 12550 C 1171.09 0.51514 -1.54224 0
M  V30 12551 O 1172.27 0.452405 -1.82991 0
M  V30 12552 C 1169.4 0.430232 -3.35956 0
M  V30 12553 C 1168.45 -0.419981 -4.24427 0
M  V30 12554 S 1169.28 -1.84442 -5.02734 0
M  V30 12555 C 1170.43 -1.02578 -6.17437 0
M  V30 12556 H 1170.67 -1.23025 -2.70651 0
M  V30 12557 H 1168.2 -0.745148 -1.35229 0
M  V30 12558 H 1170.16 0.901315 -4.00483 0
M  V30 12559 H 1168.82 1.23868 -2.88644 0
M  V30 12560 H 1168.01 0.213475 -5.03548 0
M  V30 12561 H 1167.61 -0.82578 -3.6477 0
M  V30 12562 H 1169.91 -0.268431 -6.76968 0
M  V30 12563 H 1170.85 -1.79047 -6.85089 0
M  V30 12564 H 1171.26 -0.561488 -5.61701 0
M  V30 12565 N 1170.66 1.40747 -0.709091 0
M  V30 12566 C 1171.9 2.00233 -0.242836 0
M  V30 12567 C 1172.22 1.56853 1.1686 0
M  V30 12568 O 1173.42 2.08993 1.73304 0
M  V30 12569 C 1171.88 3.57854 -0.383241 0
M  V30 12570 C 1171.49 4.10209 -1.80091 0
M  V30 12571 C 1173.23 4.24494 0.0225511 0
M  V30 12572 C 1171.14 5.60311 -1.89225 0
M  V30 12573 H 1170.07 0.74896 -0.087034 0
M  V30 12574 H 1172.72 1.61064 -0.879243 0
M  V30 12575 H 1171.1 3.94692 0.321642 0
M  V30 12576 H 1172.28 3.84762 -2.53564 0
M  V30 12577 H 1170.59 3.56142 -2.15758 0
M  V30 12578 H 1173.19 5.34694 -0.0250644 0
M  V30 12579 H 1173.53 4.02488 1.06344 0
M  V30 12580 H 1174.06 3.92739 -0.632541 0
M  V30 12581 H 1170.8 5.87162 -2.91412 0
M  V30 12582 H 1170.32 5.87642 -1.20154 0
M  V30 12583 H 1172 6.25306 -1.66136 0
M  V30 12584 N 1172.13 0.454803 1.50895 0
M  V30 12585 C 1173.54 -0.00421212 1.867 0
M  V30 12586 C 1173.9 -1.4037 1.3708 0
M  V30 12587 O 1173.02 -2.03755 0.728884 0
M  V30 12588 C 1173.62 -0.0144196 3.38797 0
M  V30 12589 C 1172.17 -0.417905 3.74073 0
M  V30 12590 C 1171.32 0.37801 2.74711 0
M  V30 12591 H 1174.27 0.669849 1.4387 0
M  V30 12592 H 1174.29 -0.820172 3.71555 0
M  V30 12593 H 1173.81 1.00427 3.74881 0
M  V30 12594 H 1171.91 -1.44155 3.43584 0
M  V30 12595 H 1172.02 -0.130568 4.78922 0
M  V30 12596 H 1170.38 -0.166089 2.54158 0
M  V30 12597 H 1171.17 1.3959 3.13639 0
M  V30 12598 N 1173.61 -1.56489 0.186789 0
M  V30 12599 C 1174.54 -2.21705 -0.732739 0
M  V30 12600 C 1175.52 -1.17751 -1.22755 0
M  V30 12601 O 1176.71 -1.46231 -1.27789 0
M  V30 12602 C 1173.84 -2.86992 -1.95584 0
M  V30 12603 C 1172.79 -3.97118 -1.59628 0
M  V30 12604 C 1172.12 -4.49529 -2.89531 0
M  V30 12605 C 1173.42 -5.15941 -0.812518 0
M  V30 12606 H 1175.11 -2.98802 -0.189094 0
M  V30 12607 H 1172.66 -1.43722 -0.0895099 0
M  V30 12608 H 1174.61 -3.31295 -2.60426 0
M  V30 12609 H 1173.33 -2.07287 -2.52388 0
M  V30 12610 H 1171.99 -3.53494 -0.971475 0
M  V30 12611 H 1171.64 -3.66596 -3.44407 0
M  V30 12612 H 1171.34 -5.23832 -2.66221 0
M  V30 12613 H 1172.87 -4.96528 -3.55376 0
M  V30 12614 H 1174.28 -5.56841 -1.36386 0
M  V30 12615 H 1172.68 -5.96259 -0.677862 0
M  V30 12616 H 1173.75 -4.84535 0.188095 0
M  V30 12617 N 1175.09 0.086862 -1.5736 0
M  V30 12618 C 1176.05 1.08906 -2.01673 0
M  V30 12619 C 1177.05 1.32473 -0.911463 0
M  V30 12620 O 1178.24 1.28447 -1.17673 0
M  V30 12621 C 1175.37 2.43629 -2.38449 0
M  V30 12622 H 1176.57 0.707461 -2.91436 0
M  V30 12623 H 1174.12 0.332154 -1.5273 0
M  V30 12624 H 1174.86 2.8665 -1.51665 0
M  V30 12625 H 1174.64 2.2787 -3.19089 0
M  V30 12626 H 1176.13 3.15695 -2.73361 0
M  V30 12627 N 1176.57 1.53483 0.357892 0
M  V30 12628 C 1177.81 1.70289 1.10134 0
M  V30 12629 C 1178.15 0.457296 1.88739 0
M  V30 12630 O 1177.42 -0.545527 1.86693 0
M  V30 12631 C 1177.7 2.95755 2.05429 0
M  V30 12632 C 1177.56 4.30489 1.30382 0
M  V30 12633 C 1178.88 3.16844 3.05447 0
M  V30 12634 H 1176 0.61965 0.399003 0
M  V30 12635 H 1178.64 1.86133 0.381357 0
M  V30 12636 H 1176.79 2.82377 2.66825 0
M  V30 12637 H 1178.46 4.55692 0.71711 0
M  V30 12638 H 1176.7 4.2955 0.605712 0
M  V30 12639 H 1177.37 5.14427 2.00171 0
M  V30 12640 H 1179.85 3.29458 2.54159 0
M  V30 12641 H 1178.73 4.06053 3.69341 0
M  V30 12642 H 1178.99 2.32476 3.76041 0
M  V30 12643 N 1178.05 -0.61812 1.44973 0
M  V30 12644 C 1178.99 -1.72942 1.52838 0
M  V30 12645 C 1179.96 -1.6181 0.375056 0
M  V30 12646 O 1181.15 -1.81544 0.587075 0
M  V30 12647 C 1178.29 -3.11228 1.49101 0
M  V30 12648 C 1177.4 -3.33243 2.74906 0
M  V30 12649 C 1176.54 -4.61574 2.62912 0
M  V30 12650 C 1175.57 -4.76811 3.8382 0
M  V30 12651 N 1174.71 -5.96432 3.70424 0
M  V30 12652 H 1179.55 -1.65556 2.47781 0
M  V30 12653 H 1177.09 -0.807411 1.2296 0
M  V30 12654 H 1179.05 -3.9122 1.44923 0
M  V30 12655 H 1177.68 -3.17598 0.577163 0
M  V30 12656 H 1176.73 -2.471 2.89216 0
M  V30 12657 H 1178.04 -3.40377 3.64616 0
M  V30 12658 H 1177.19 -5.49746 2.56641 0
M  V30 12659 H 1175.93 -4.5682 1.70784 0
M  V30 12660 H 1174.94 -3.87066 3.90461 0
M  V30 12661 H 1176.16 -4.83371 4.77001 0
M  V30 12662 H 1174.11 -5.92742 2.81057 0
M  V30 12663 H 1174.03 -6.0468 4.5376 0
M  V30 12664 H 1175.29 -6.8713 3.68067 0
M  V30 12665 N 1179.52 -1.32087 -0.859693 0
M  V30 12666 C 1180.47 -1.20601 -1.96784 0
M  V30 12667 C 1181.44 -0.089355 -1.65859 0
M  V30 12668 O 1182.63 -0.264022 -1.88964 0
M  V30 12669 C 1179.77 -0.929872 -3.32336 0
M  V30 12670 C 1178.88 -2.13084 -3.75791 0
M  V30 12671 C 1178.01 -1.79061 -5.00111 0
M  V30 12672 C 1177.05 -2.95507 -5.36043 0
M  V30 12673 N 1176.19 -2.61611 -6.5154 0
M  V30 12674 H 1181.03 -2.1539 -2.0594 0
M  V30 12675 H 1178.57 -1.07131 -1.00803 0
M  V30 12676 H 1180.52 -0.750285 -4.10398 0
M  V30 12677 H 1179.15 -0.0187929 -3.22795 0
M  V30 12678 H 1178.21 -2.42086 -2.93425 0
M  V30 12679 H 1179.52 -3.00205 -3.98344 0
M  V30 12680 H 1178.67 -1.57625 -5.85866 0
M  V30 12681 H 1177.41 -0.891459 -4.79483 0
M  V30 12682 H 1176.42 -3.17581 -4.48801 0
M  V30 12683 H 1177.64 -3.86147 -5.5863 0
M  V30 12684 H 1175.59 -1.74231 -6.32439 0
M  V30 12685 H 1175.5 -3.42262 -6.74087 0
M  V30 12686 H 1176.77 -2.43592 -7.40461 0
M  V30 12687 N 1181 1.07532 -1.15215 0
M  V30 12688 C 1181.93 2.1668 -0.870171 0
M  V30 12689 C 1182.91 1.69161 0.178483 0
M  V30 12690 O 1184.1 1.94172 0.0332489 0
M  V30 12691 C 1181.23 3.45464 -0.356666 0
M  V30 12692 C 1180.18 4.06424 -1.34179 0
M  V30 12693 C 1179.51 5.30266 -0.687206 0
M  V30 12694 C 1180.81 4.46666 -2.70715 0
M  V30 12695 H 1182.5 2.40526 -1.7829 0
M  V30 12696 H 1180.05 1.15598 -0.858665 0
M  V30 12697 H 1182 4.21144 -0.146947 0
M  V30 12698 H 1180.72 3.21199 0.591527 0
M  V30 12699 H 1179.38 3.32786 -1.53783 0
M  V30 12700 H 1179.03 5.0229 0.267077 0
M  V30 12701 H 1178.73 5.72009 -1.34462 0
M  V30 12702 H 1180.26 6.08653 -0.487218 0
M  V30 12703 H 1181.67 5.13483 -2.54966 0
M  V30 12704 H 1180.07 4.99355 -3.32813 0
M  V30 12705 H 1181.14 3.58123 -3.26919 0
M  V30 12706 N 1182.48 0.948665 1.2585 0
M  V30 12707 C 1183.43 0.462904 2.2611 0
M  V30 12708 C 1184.4 -0.481433 1.5897 0
M  V30 12709 O 1185.58 -0.395997 1.86645 0
M  V30 12710 C 1182.72 -0.258808 3.44128 0
M  V30 12711 C 1181.84 0.722072 4.25923 0
M  V30 12712 C 1180.97 -0.0215958 5.31196 0
M  V30 12713 C 1180.01 0.950612 6.04673 0
M  V30 12714 N 1179.15 0.238209 7.01696 0
M  V30 12715 H 1183.99 1.32279 2.67032 0
M  V30 12716 H 1181.52 0.663485 1.31287 0
M  V30 12717 H 1183.48 -0.693759 4.11391 0
M  V30 12718 H 1182.11 -1.08278 3.04098 0
M  V30 12719 H 1181.16 1.27552 3.58378 0
M  V30 12720 H 1182.48 1.46421 4.76825 0
M  V30 12721 H 1181.63 -0.51547 6.04506 0
M  V30 12722 H 1180.37 -0.796563 4.81151 0
M  V30 12723 H 1179.37 1.45554 5.30183 0
M  V30 12724 H 1180.6 1.72571 6.56808 0
M  V30 12725 H 1178.54 -0.518129 6.53951 0
M  V30 12726 H 1178.46 0.919542 7.50387 0
M  V30 12727 H 1179.73 -0.234325 7.79148 0
M  V30 12728 N 1183.96 -1.40369 0.716545 0
M  V30 12729 C 1185.24 -1.94737 0.183576 0
M  V30 12730 C 1185.62 -1.65464 -1.31092 0
M  V30 12731 O 1184.96 -0.972832 -2.06756 0
M  V30 12732 C 1185.17 -3.45438 0.497339 0
M  V30 12733 C 1186.52 -4.2235 0.436526 0
M  V30 12734 O 1187.55 -3.53553 0.433454 0
M  V30 12735 O 1186.4 -5.44923 0.41489 0
M  V30 12736 H 1183.5 -0.82655 0.0272785 0
M  V30 12737 H 1186.04 -1.49972 0.794143 0
M  V30 12738 H 1184.82 -3.60107 1.53097 0
M  V30 12739 H 1184.44 -3.97342 -0.143141 0
M  V30 12740 N 1185.44 -0.462799 -1.50652 0
M  V30 12741 C 1186.68 0.0950445 -2.02277 0
M  V30 12742 C 1187.01 1.40465 -1.34536 0
M  V30 12743 O 1186.27 1.90283 -0.457279 0
M  V30 12744 C 1186.57 0.335294 -3.55824 0
M  V30 12745 C 1186.23 -0.891589 -4.41997 0
M  V30 12746 C 1184.89 -1.22799 -4.65268 0
M  V30 12747 C 1187.25 -1.70885 -4.9239 0
M  V30 12748 C 1184.57 -2.38186 -5.36175 0
M  V30 12749 C 1186.93 -2.85394 -5.64564 0
M  V30 12750 C 1185.59 -3.19458 -5.86091 0
M  V30 12751 H 1184.86 0.0347793 -0.740183 0
M  V30 12752 H 1187.51 -0.61519 -1.8135 0
M  V30 12753 H 1185.81 1.12769 -3.7522 0
M  V30 12754 H 1187.51 0.780752 -3.93326 0
M  V30 12755 H 1184.1 -0.619495 -4.24099 0
M  V30 12756 H 1188.28 -1.46215 -4.74273 0
M  V30 12757 H 1183.54 -2.64862 -5.51052 0
M  V30 12758 H 1187.71 -3.49073 -6.02595 0
M  V30 12759 H 1185.34 -4.08978 -6.40813 0
M  V30 12760 N 1186.91 1.56388 -0.195085 0
M  V30 12761 C 1188.19 1.89329 0.491303 0
M  V30 12762 C 1188.57 1.10861 1.79647 0
M  V30 12763 O 1187.92 0.209696 2.27536 0
M  V30 12764 C 1188.13 3.417 0.710096 0
M  V30 12765 C 1189.48 4.11931 1.02947 0
M  V30 12766 O 1190.5 3.4715 0.797817 0
M  V30 12767 O 1189.36 5.26423 1.46767 0
M  V30 12768 H 1186.45 0.786335 0.256137 0
M  V30 12769 H 1189 1.68061 -0.235298 0
M  V30 12770 H 1187.77 3.90727 -0.211604 0
M  V30 12771 H 1187.4 3.6866 1.48916 0
M  V30 12772 N 1188.39 -0.0785156 1.57404 0
M  V30 12773 C 1189.67 -0.811557 1.77969 0
M  V30 12774 C 1190.05 -1.96123 0.780966 0
M  V30 12775 O 1189.4 -2.27731 -0.18726 0
M  V30 12776 C 1189.61 -1.29075 3.24254 0
M  V30 12777 C 1190.96 -1.72685 3.87898 0
M  V30 12778 O 1191.98 -1.38658 3.28104 0
M  V30 12779 O 1190.84 -2.3566 4.93079 0
M  V30 12780 H 1187.93 -0.388361 0.73014 0
M  V30 12781 H 1190.48 -0.0591118 1.69597 0
M  V30 12782 H 1189.25 -0.467813 3.88494 0
M  V30 12783 H 1188.87 -2.10472 3.37324 0
M  V30 12784 N 1189.87 -1.5367 -0.349747 0
M  V30 12785 C 1190.82 -1.81914 -1.44948 0
M  V30 12786 C 1191.81 -0.689218 -1.54745 0
M  V30 12787 O 1193.02 -0.872448 -1.57443 0
M  V30 12788 H 1189.39 -0.576234 -0.483176 0
M  V30 12789 H 1191.36 -2.73932 -1.18338 0
M  V30 12790 C 1190.11 -2.04005 -2.81562 0
M  V30 12791 H 1189.44 -2.90399 -2.74788 0
M  V30 12792 H 1190.88 -2.27737 -3.57648 0
M  V30 12793 C 1189.34 -0.823748 -3.26674 0
M  V30 12794 O 1189.87 -0.0201351 -4.01695 0
M  V30 12795 N 1188.07 -0.642716 -2.83403 0
M  V30 12796 H 1187.62 -1.29783 -2.22517 0
M  V30 12797 H 1187.58 0.169654 -3.13942 0
M  V30 12798 N 1191.35 0.610423 -1.45298 0
M  V30 12799 C 1192.28 1.73207 -1.56594 0
M  V30 12800 C 1193.26 1.64893 -0.417651 0
M  V30 12801 O 1194.44 1.83336 -0.64043 0
M  V30 12802 C 1191.57 3.11803 -1.52959 0
M  V30 12803 C 1190.53 3.34925 -2.66475 0
M  V30 12804 C 1189.85 4.73764 -2.47894 0
M  V30 12805 C 1191.15 3.25456 -4.08504 0
M  V30 12806 H 1192.85 1.6401 -2.50482 0
M  V30 12807 H 1190.39 0.787621 -1.20551 0
M  V30 12808 H 1192.35 3.90065 -1.59458 0
M  V30 12809 H 1191.07 3.21833 -0.55599 0
M  V30 12810 H 1189.73 2.59051 -2.59399 0
M  V30 12811 H 1189.38 4.80524 -1.4868 0
M  V30 12812 H 1189.08 4.90191 -3.24016 0
M  V30 12813 H 1190.6 5.54231 -2.56243 0
M  V30 12814 H 1192.02 3.93597 -4.16839 0
M  V30 12815 H 1190.41 3.53414 -4.84994 0
M  V30 12816 H 1191.48 2.22939 -4.30612 0
M  V30 12817 N 1192.83 1.32541 0.852676 0
M  V30 12818 C 1193.77 1.21643 1.96142 0
M  V30 12819 C 1194.74 0.0981496 1.6581 0
M  V30 12820 O 1195.93 0.27404 1.88822 0
M  V30 12821 C 1193.07 0.947483 3.31838 0
M  V30 12822 C 1192.18 2.15074 3.74656 0
M  V30 12823 C 1191.32 1.81711 4.99154 0
M  V30 12824 C 1190.36 2.98346 5.34468 0
M  V30 12825 N 1189.49 2.65062 6.50143 0
M  V30 12826 H 1194.33 2.16479 2.04795 0
M  V30 12827 H 1191.87 1.07664 1.00234 0
M  V30 12828 H 1193.83 0.772038 4.09994 0
M  V30 12829 H 1192.46 0.0359112 3.2278 0
M  V30 12830 H 1191.51 2.43639 2.92137 0
M  V30 12831 H 1192.82 3.02314 3.96747 0
M  V30 12832 H 1191.98 1.60729 5.85022 0
M  V30 12833 H 1190.71 0.916875 4.79004 0
M  V30 12834 H 1189.72 3.19956 4.47111 0
M  V30 12835 H 1190.94 3.89104 5.56574 0
M  V30 12836 H 1188.89 1.77582 6.31507 0
M  V30 12837 H 1188.81 3.45832 6.72262 0
M  V30 12838 H 1190.08 2.47516 7.39159 0
M  V30 12839 N 1194.3 -1.0692 1.15784 0
M  V30 12840 C 1195.72 -1.31707 0.901408 0
M  V30 12841 C 1195.92 -1.96429 -0.449203 0
M  V30 12842 O 1194.98 -2.22692 -1.19015 0
M  V30 12843 C 1196.29 -2.20391 2.04568 0
M  V30 12844 C 1197.84 -2.33827 2.08072 0
M  V30 12845 C 1198.31 -3.25862 3.21835 0
M  V30 12846 N 1199.8 -3.33444 3.21511 0
M  V30 12847 C 1200.54 -4.04731 4.06177 0
M  V30 12848 N 1200.03 -4.78596 5.00917 0
M  V30 12849 N 1201.83 -4.00717 3.94185 0
M  V30 12850 H 1193.98 -0.632989 2.02749 0
M  V30 12851 H 1196.24 -0.341587 0.88432 0
M  V30 12852 H 1195.95 -1.80102 3.02087 0
M  V30 12853 H 1195.82 -3.20943 1.9818 0
M  V30 12854 H 1198.21 -2.73367 1.11151 0
M  V30 12855 H 1198.29 -1.32964 2.18527 0
M  V30 12856 H 1197.93 -2.8704 4.19012 0
M  V30 12857 H 1197.86 -4.26689 3.08617 0
M  V30 12858 H 1200.35 -2.80798 2.52905 0
M  V30 12859 H 1200.67 -5.30499 5.61952 0
M  V30 12860 H 1199.01 -4.77598 5.04902 0
M  V30 12861 H 1202.2 -3.42126 3.1948 0
M  V30 12862 H 1202.38 -4.56008 4.60392 0
M  V30 12863 N 1195.78 -0.955326 -1.25345 0
M  V30 12864 C 1197.06 -0.527828 -1.88344 0
M  V30 12865 C 1197.44 0.994911 -1.86185 0
M  V30 12866 O 1196.79 1.86099 -1.32587 0
M  V30 12867 C 1197 -1.10525 -3.31037 0
M  V30 12868 C 1198.35 -1.18253 -4.07801 0
M  V30 12869 O 1199.37 -1.05685 -3.4016 0
M  V30 12870 O 1198.23 -1.37978 -5.28795 0
M  V30 12871 H 1195.32 -0.174206 -0.808444 0
M  V30 12872 H 1197.87 -1.0488 -1.3341 0
M  V30 12873 H 1196.64 -2.14847 -3.27042 0
M  V30 12874 H 1196.26 -0.567568 -3.93528 0
M  V30 12875 N 1197.26 1.39987 -0.723979 0
M  V30 12876 C 1198.19 2.3332 -0.0917282 0
M  V30 12877 C 1199.17 1.53335 0.736361 0
M  V30 12878 O 1200.36 1.81771 0.683582 0
M  V30 12879 C 1197.49 3.3737 0.824549 0
M  V30 12880 C 1196.44 4.2788 0.101452 0
M  V30 12881 C 1195.77 5.22536 1.13401 0
M  V30 12882 C 1197.07 5.11649 -1.04939 0
M  V30 12883 H 1198.76 2.86441 -0.871318 0
M  V30 12884 H 1196.31 1.37725 -0.420448 0
M  V30 12885 H 1198.26 4.01607 1.27631 0
M  V30 12886 H 1196.98 2.82663 1.63613 0
M  V30 12887 H 1195.64 3.65107 -0.330569 0
M  V30 12888 H 1195.29 4.64131 1.93886 0
M  V30 12889 H 1194.99 5.83938 0.65502 0
M  V30 12890 H 1196.52 5.89651 1.58569 0
M  V30 12891 H 1197.93 5.69293 -0.6766 0
M  V30 12892 H 1196.33 5.82137 -1.45729 0
M  V30 12893 H 1197.4 4.47132 -1.8762 0
M  V30 12894 N 1198.74 0.470782 1.50404 0
M  V30 12895 C 1199.67 -0.313458 2.31386 0
M  V30 12896 C 1200.65 -0.990623 1.38278 0
M  V30 12897 O 1201.84 -0.987854 1.67198 0
M  V30 12898 C 1198.97 -1.39599 3.18009 0
M  V30 12899 C 1197.92 -0.840443 4.19667 0
M  V30 12900 C 1197.25 -2.02124 4.95025 0
M  V30 12901 C 1198.55 0.148055 5.2209 0
M  V30 12902 H 1200.24 0.362432 2.97198 0
M  V30 12903 H 1197.79 0.175745 1.42924 0
M  V30 12904 H 1199.74 -1.9521 3.73458 0
M  V30 12905 H 1198.46 -2.10064 2.50081 0
M  V30 12906 H 1197.12 -0.306302 3.65318 0
M  V30 12907 H 1196.77 -2.71286 4.23571 0
M  V30 12908 H 1196.47 -1.65574 5.6379 0
M  V30 12909 H 1197.99 -2.58226 5.5331 0
M  V30 12910 H 1199.41 -0.318874 5.72413 0
M  V30 12911 H 1197.8 0.427811 5.98573 0
M  V30 12912 H 1198.87 1.07404 4.72855 0
M  V30 12913 N 1200.22 -1.56282 0.203376 0
M  V30 12914 C 1201.13 -2.23086 -0.725922 0
M  V30 12915 C 1202.14 -1.23258 -1.22814 0
M  V30 12916 O 1203.32 -1.5602 -1.27357 0
M  V30 12917 C 1200.38 -2.88358 -1.92485 0
M  V30 12918 C 1199.45 -4.03479 -1.46639 0
M  V30 12919 C 1198.68 -4.65629 -2.60816 0
M  V30 12920 O 1198.9 -4.2672 -3.78506 0
M  V30 12921 O 1197.84 -5.54949 -2.33056 0
M  V30 12922 H 1201.66 -3.03124 -0.18694 0
M  V30 12923 H 1199.25 -1.49377 -0.0262829 0
M  V30 12924 H 1201.13 -3.29623 -2.62539 0
M  V30 12925 H 1199.8 -2.11294 -2.45228 0
M  V30 12926 H 1198.71 -3.66821 -0.734396 0
M  V30 12927 H 1200.04 -4.82232 -0.985535 0
M  V30 12928 N 1201.7 0.070167 -1.57444 0
M  V30 12929 C 1202.93 0.78076 -1.91279 0
M  V30 12930 C 1203.33 1.71559 -0.797754 0
M  V30 12931 O 1202.68 1.82156 0.237665 0
M  V30 12932 C 1202.74 1.62664 -3.20594 0
M  V30 12933 C 1202.4 0.861007 -4.48816 0
M  V30 12934 C 1203.4 0.179522 -5.1959 0
M  V30 12935 C 1201.08 0.8277 -4.95434 0
M  V30 12936 C 1203.08 -0.525024 -6.35234 0
M  V30 12937 C 1200.77 0.119382 -6.10983 0
M  V30 12938 C 1201.76 -0.555778 -6.80735 0
M  V30 12939 O 1201.45 -1.25268 -7.9408 0
M  V30 12940 H 1201.18 0.227053 -0.636728 0
M  V30 12941 H 1203.74 0.0442334 -2.05352 0
M  V30 12942 H 1201.97 2.40601 -3.02734 0
M  V30 12943 H 1203.66 2.21606 -3.40067 0
M  V30 12944 H 1204.42 0.19655 -4.84602 0
M  V30 12945 H 1200.3 1.34268 -4.41014 0
M  V30 12946 H 1203.85 -1.05257 -6.89613 0
M  V30 12947 H 1199.74 0.100287 -6.45422 0
M  V30 12948 H 1200.51 -1.16212 -8.10208 0
M  V30 12949 N 1203.17 1.53854 0.341593 0
M  V30 12950 C 1204.42 1.7041 1.07905 0
M  V30 12951 C 1204.74 0.475039 1.89744 0
M  V30 12952 O 1205.94 0.521589 2.66443 0
M  V30 12953 C 1204.4 3.01342 1.96776 0
M  V30 12954 C 1204.01 4.31592 1.20135 0
M  V30 12955 C 1205.75 3.27264 2.70367 0
M  V30 12956 C 1203.66 5.53598 2.08047 0
M  V30 12957 H 1202.59 0.635005 0.406553 0
M  V30 12958 H 1205.24 1.80353 0.338409 0
M  V30 12959 H 1203.62 2.85261 2.74667 0
M  V30 12960 H 1204.79 4.58382 0.471404 0
M  V30 12961 H 1203.11 4.12298 0.583039 0
M  V30 12962 H 1205.71 4.15607 3.36415 0
M  V30 12963 H 1206.05 2.44357 3.37039 0
M  V30 12964 H 1206.58 3.4413 1.99548 0
M  V30 12965 H 1203.32 6.39053 1.45914 0
M  V30 12966 H 1202.84 5.31052 2.78825 0
M  V30 12967 H 1204.52 5.89314 2.67055 0
M  V30 12968 N 1204.65 -0.602709 1.4562 0
M  V30 12969 C 1205.93 -1.36224 1.40366 0
M  V30 12970 C 1206.31 -2.1096 0.0767645 0
M  V30 12971 O 1205.66 -2.08207 -0.941378 0
M  V30 12972 C 1205.87 -2.30499 2.62052 0
M  V30 12973 C 1207.21 -2.92954 3.07348 0
M  V30 12974 O 1208.24 -2.40818 2.62459 0
M  V30 12975 O 1207.1 -3.87601 3.85263 0
M  V30 12976 H 1204.19 -0.611064 0.557253 0
M  V30 12977 H 1206.74 -0.625391 1.57756 0
M  V30 12978 H 1205.51 -1.74566 3.50203 0
M  V30 12979 H 1205.13 -3.11556 2.4702 0
M  V30 12980 N 1206.13 -1.32992 -0.845635 0
M  V30 12981 C 1207.36 -1.27087 -1.63268 0
M  V30 12982 C 1207.77 0.159481 -1.88125 0
M  V30 12983 O 1207.13 1.09948 -1.45663 0
M  V30 12984 C 1207.18 -2.03649 -2.98679 0
M  V30 12985 O 1206.9 -3.41104 -2.74918 0
M  V30 12986 C 1208.4 -2.04875 -3.93117 0
M  V30 12987 H 1205.62 -0.438107 -0.508236 0
M  V30 12988 H 1208.17 -1.75257 -1.05381 0
M  V30 12989 H 1206.32 -1.59178 -3.53187 0
M  V30 12990 H 1206.74 -3.80405 -3.61099 0
M  V30 12991 H 1208.21 -2.62911 -4.85368 0
M  V30 12992 H 1208.69 -1.03728 -4.26775 0
M  V30 12993 H 1209.29 -2.49334 -3.44547 0
M  V30 12994 N 1207.61 1.06304 -1.1635 0
M  V30 12995 C 1208.56 2.15879 -0.865967 0
M  V30 12996 C 1209.55 1.68595 0.164929 0
M  V30 12997 O 1210.76 1.7999 0.0189271 0
M  V30 12998 H 1207.13 0.704721 -0.262435 0
M  V30 12999 H 1209.1 2.38185 -1.79751 0
M  V30 13000 C 1207.85 3.4558 -0.383374 0
M  V30 13001 H 1207.17 3.82356 -1.16806 0
M  V30 13002 H 1208.61 4.2346 -0.213964 0
M  V30 13003 C 1207.07 3.24738 0.897044 0
M  V30 13004 O 1207.6 3.50284 1.96632 0
M  V30 13005 N 1205.81 2.78172 0.840761 0
M  V30 13006 H 1205.36 2.57583 -0.029584 0
M  V30 13007 H 1205.31 2.64606 1.69797 0
M  V30 13008 N 1209.09 0.96196 1.24836 0
M  V30 13009 C 1210 0.494876 2.29321 0
M  V30 13010 C 1211.01 -0.441363 1.68309 0
M  V30 13011 O 1212.19 -0.315814 1.98908 0
M  V30 13012 C 1209.25 -0.212944 3.46045 0
M  V30 13013 C 1208.31 0.762411 4.22476 0
M  V30 13014 C 1207.55 0.0882756 5.33627 0
M  V30 13015 O 1207.77 -1.12459 5.59204 0
M  V30 13016 O 1206.7 0.777529 5.96857 0
M  V30 13017 H 1210.53 1.36333 2.7138 0
M  V30 13018 H 1208.11 0.728738 1.30421 0
M  V30 13019 H 1210 -0.610805 4.1695 0
M  V30 13020 H 1208.67 -1.05645 3.05975 0
M  V30 13021 H 1207.58 1.21062 3.5397 0
M  V30 13022 H 1208.91 1.57416 4.66349 0
M  V30 13023 N 1210.56 -1.39601 0.731392 0
M  V30 13024 C 1211.49 -2.33268 0.1041 0
M  V30 13025 C 1212.47 -1.53724 -0.728219 0
M  V30 13026 O 1213.66 -1.82131 -0.673933 0
M  V30 13027 C 1210.79 -3.37802 -0.806646 0
M  V30 13028 C 1209.74 -4.27928 -0.0787588 0
M  V30 13029 C 1209.07 -5.23131 -1.10628 0
M  V30 13030 C 1210.37 -5.11086 1.07651 0
M  V30 13031 H 1212.06 -2.85975 0.886496 0
M  V30 13032 H 1209.61 -1.375 0.427746 0
M  V30 13033 H 1211.56 -4.02278 -1.25499 0
M  V30 13034 H 1210.29 -2.83527 -1.62112 0
M  V30 13035 H 1208.95 -3.64926 0.349926 0
M  V30 13036 H 1208.59 -4.65152 -1.91422 0
M  V30 13037 H 1208.29 -5.84277 -0.624043 0
M  V30 13038 H 1209.82 -5.90483 -1.5544 0
M  V30 13039 H 1211.23 -5.68927 0.706781 0
M  V30 13040 H 1209.63 -5.81356 1.48814 0
M  V30 13041 H 1210.7 -4.46131 1.89988 0
M  V30 13042 N 1212.04 -0.478751 -1.50152 0
M  V30 13043 C 1213.27 0.0709455 -2.06478 0
M  V30 13044 C 1213.68 1.33376 -1.34192 0
M  V30 13045 O 1213.02 1.79133 -0.40707 0
M  V30 13046 C 1213.09 0.417322 -3.5707 0
M  V30 13047 C 1212.75 -0.744563 -4.50894 0
M  V30 13048 C 1213.75 -1.62879 -4.93727 0
M  V30 13049 C 1211.43 -0.937062 -4.93482 0
M  V30 13050 C 1213.43 -2.68985 -5.77863 0
M  V30 13051 C 1211.11 -2.00134 -5.77399 0
M  V30 13052 C 1212.11 -2.87609 -6.19492 0
M  V30 13053 O 1211.8 -3.92203 -7.01735 0
M  V30 13054 H 1211.53 -0.00720177 -0.675962 0
M  V30 13055 H 1214.08 -0.668797 -1.94207 0
M  V30 13056 H 1212.31 1.21036 -3.6727 0
M  V30 13057 H 1214 0.903002 -3.95728 0
M  V30 13058 H 1214.77 -1.49179 -4.61488 0
M  V30 13059 H 1210.65 -0.265636 -4.60234 0
M  V30 13060 H 1214.19 -3.37293 -6.10639 0
M  V30 13061 H 1210.09 -2.13837 -6.09052 0
M  V30 13062 H 1210.86 -3.89284 -7.2 0
M  V30 13063 N 1213.52 1.56172 -0.211661 0
M  V30 13064 C 1214.45 2.22843 0.697375 0
M  V30 13065 C 1215.43 1.19689 1.20866 0
M  V30 13066 O 1216.62 1.48245 1.25447 0
M  V30 13067 C 1213.75 2.90067 1.90993 0
M  V30 13068 C 1212.7 3.99608 1.5329 0
M  V30 13069 C 1212.03 4.54078 2.82343 0
M  V30 13070 C 1213.33 5.17169 0.730333 0
M  V30 13071 H 1215.02 2.99065 0.141533 0
M  V30 13072 H 1212.57 1.43846 0.0666337 0
M  V30 13073 H 1214.52 3.35396 2.55123 0
M  V30 13074 H 1213.24 2.11276 2.49058 0
M  V30 13075 H 1211.9 3.54995 0.915115 0
M  V30 13076 H 1211.55 3.72029 3.38531 0
M  V30 13077 H 1211.25 5.28001 2.57853 0
M  V30 13078 H 1212.77 5.02119 3.47432 0
M  V30 13079 H 1214.19 5.5894 1.2751 0
M  V30 13080 H 1212.59 5.97262 0.582916 0
M  V30 13081 H 1213.66 4.84174 -0.265157 0
M  V30 13082 N 1215 -0.0618163 1.57479 0
M  V30 13083 C 1215.93 -1.07252 2.07411 0
M  V30 13084 C 1216.91 -1.39756 0.969649 0
M  V30 13085 O 1218.09 -1.4921 1.24298 0
M  V30 13086 C 1215.22 -2.38313 2.52635 0
M  V30 13087 C 1214.18 -2.20136 3.67048 0
M  V30 13088 C 1213.5 -3.56668 3.98361 0
M  V30 13089 C 1214.8 -1.61437 4.96725 0
M  V30 13090 H 1216.5 -0.656983 2.92103 0
M  V30 13091 H 1214.04 -0.314579 1.40522 0
M  V30 13092 H 1216 -3.09319 2.86181 0
M  V30 13093 H 1214.72 -2.81865 1.64984 0
M  V30 13094 H 1213.38 -1.51569 3.338 0
M  V30 13095 H 1213.03 -3.97809 3.07826 0
M  V30 13096 H 1212.73 -3.45342 4.75408 0
M  V30 13097 H 1214.25 -4.2909 4.34413 0
M  V30 13098 H 1215.67 -2.2232 5.28438 0
M  V30 13099 H 1214.06 -1.60779 5.78161 0
M  V30 13100 H 1215.13 -0.576795 4.81457 0
M  V30 13101 N 1216.48 -1.54033 -0.333429 0
M  V30 13102 C 1217.75 -1.62404 -1.09015 0
M  V30 13103 C 1218.13 -0.451653 -2.06212 0
M  V30 13104 O 1217.48 0.555086 -2.21655 0
M  V30 13105 C 1217.69 -2.98949 -1.80085 0
M  V30 13106 C 1219.04 -3.54655 -2.33464 0
M  V30 13107 O 1220.06 -3.0119 -1.90166 0
M  V30 13108 O 1218.92 -4.48195 -3.12703 0
M  V30 13109 H 1216.02 -0.65727 -0.501921 0
M  V30 13110 H 1218.56 -1.66378 -0.33411 0
M  V30 13111 H 1217.33 -3.75716 -1.09332 0
M  V30 13112 H 1216.96 -2.98609 -2.62523 0
M  V30 13113 N 1217.95 0.594978 -1.45938 0
M  V30 13114 C 1218.86 1.73296 -1.58132 0
M  V30 13115 C 1219.88 1.67665 -0.465245 0
M  V30 13116 O 1221.06 1.87794 -0.727684 0
M  V30 13117 C 1218.12 3.09783 -1.55677 0
M  V30 13118 C 1217.18 3.26772 -2.78422 0
M  V30 13119 C 1216.42 4.56748 -2.76075 0
M  V30 13120 O 1216.64 5.39867 -1.84119 0
M  V30 13121 O 1215.57 4.76721 -3.67452 0
M  V30 13122 H 1219.4 1.65957 -2.54346 0
M  V30 13123 H 1216.98 0.760572 -1.28591 0
M  V30 13124 H 1218.87 3.91077 -1.56961 0
M  V30 13125 H 1217.54 3.17585 -0.626191 0
M  V30 13126 H 1216.45 2.45018 -2.82696 0
M  V30 13127 H 1217.78 3.23853 -3.70648 0
M  V30 13128 N 1219.43 1.33438 0.838571 0
M  V30 13129 C 1220.68 1.25097 1.5962 0
M  V30 13130 C 1221.01 -0.182798 1.93338 0
M  V30 13131 O 1220.29 -1.1242 1.5872 0
M  V30 13132 C 1220.57 2.12655 2.90603 0
M  V30 13133 C 1220.42 3.64491 2.63565 0
M  V30 13134 C 1221.74 1.99994 3.92033 0
M  V30 13135 H 1218.86 0.455776 0.579169 0
M  V30 13136 H 1221.5 1.63542 0.967169 0
M  V30 13137 H 1219.65 1.79998 3.44286 0
M  V30 13138 H 1221.32 4.0744 2.16312 0
M  V30 13139 H 1219.57 3.86356 1.9726 0
M  V30 13140 H 1220.24 4.21101 3.569 0
M  V30 13141 H 1222.71 2.28635 3.47657 0
M  V30 13142 H 1221.59 2.63509 4.81512 0
M  V30 13143 H 1221.85 0.972263 4.31277 0
M  V30 13144 N 1220.91 -1.05686 1.16912 0
M  V30 13145 C 1221.86 -2.15417 0.877404 0
M  V30 13146 C 1222.85 -1.6868 -0.155986 0
M  V30 13147 O 1224.06 -1.79998 -0.00938156 0
M  V30 13148 H 1220.43 -0.70332 0.266168 0
M  V30 13149 H 1222.4 -2.37228 1.81012 0
M  V30 13150 C 1221.15 -3.45372 0.401696 0
M  V30 13151 H 1220.48 -3.81732 1.18832 0
M  V30 13152 H 1221.92 -4.2334 0.236418 0
M  V30 13153 C 1220.38 -3.25209 -0.87981 0
M  V30 13154 O 1220.91 -3.51322 -1.94771 0
M  V30 13155 N 1219.11 -2.78614 -0.825997 0
M  V30 13156 H 1218.66 -2.57564 0.0432439 0
M  V30 13157 H 1218.62 -2.65503 -1.68391 0
M  V30 13158 N 1222.39 -0.968567 -1.24324 0
M  V30 13159 C 1223.64 -0.626519 -1.91723 0
M  V30 13160 C 1223.95 0.84225 -1.76538 0
M  V30 13161 O 1225.16 1.29486 -2.38633 0
M  V30 13162 C 1223.61 -1.06992 -3.43629 0
M  V30 13163 C 1223.22 -2.5622 -3.67499 0
M  V30 13164 C 1224.96 -0.801057 -4.16873 0
M  V30 13165 C 1222.87 -2.94288 -5.1298 0
M  V30 13166 H 1221.8 -0.23062 -0.717865 0
M  V30 13167 H 1224.45 -1.17489 -1.40956 0
M  V30 13168 H 1222.83 -0.44985 -3.93437 0
M  V30 13169 H 1224.01 -3.23364 -3.28287 0
M  V30 13170 H 1222.32 -2.80726 -3.07542 0
M  V30 13171 H 1224.92 -1.06147 -5.24058 0
M  V30 13172 H 1225.26 0.262742 -4.1547 0
M  V30 13173 H 1225.8 -1.38213 -3.73017 0
M  V30 13174 H 1222.54 -3.99743 -5.19506 0
M  V30 13175 H 1222.06 -2.31829 -5.53187 0
M  V30 13176 H 1223.73 -2.84242 -5.81219 0
M  V30 13177 N 1223.87 1.39211 -0.738786 0
M  V30 13178 C 1224.8 2.33209 -0.11647 0
M  V30 13179 C 1225.78 1.54108 0.720056 0
M  V30 13180 O 1226.96 1.82486 0.664264 0
M  V30 13181 C 1224.09 3.38226 0.78872 0
M  V30 13182 C 1223.05 4.27963 0.0560636 0
M  V30 13183 C 1222.37 5.2371 1.07852 0
M  V30 13184 C 1223.67 5.10508 -1.1036 0
M  V30 13185 H 1225.37 2.85501 -0.901649 0
M  V30 13186 H 1222.91 1.37272 -0.435032 0
M  V30 13187 H 1224.87 4.02938 1.23364 0
M  V30 13188 H 1223.59 2.84382 1.60606 0
M  V30 13189 H 1222.25 3.64735 -0.369274 0
M  V30 13190 H 1221.9 4.66161 1.88953 0
M  V30 13191 H 1221.6 5.846 0.593048 0
M  V30 13192 H 1223.12 5.91299 1.52307 0
M  V30 13193 H 1224.53 5.68544 -0.736943 0
M  V30 13194 H 1222.93 5.80558 -1.51895 0
M  V30 13195 H 1224 4.45117 -1.92352 0
M  V30 13196 N 1225.34 0.486708 1.49896 0
M  V30 13197 C 1226.29 -0.299294 2.28851 0
M  V30 13198 C 1227.26 -0.973251 1.346 0
M  V30 13199 O 1228.45 -0.982678 1.63548 0
M  V30 13200 C 1225.59 -1.36624 3.16904 0
M  V30 13201 C 1224.7 -0.705492 4.262 0
M  V30 13202 C 1223.83 -1.75165 5.01488 0
M  V30 13203 C 1222.87 -1.072 6.0264 0
M  V30 13204 N 1222.01 -2.06172 6.71147 0
M  V30 13205 H 1226.85 0.380272 2.95564 0
M  V30 13206 H 1224.39 0.199377 1.45743 0
M  V30 13207 H 1226.35 -1.99666 3.66319 0
M  V30 13208 H 1224.98 -2.01476 2.52205 0
M  V30 13209 H 1224.03 0.0378757 3.80381 0
M  V30 13210 H 1225.34 -0.169774 4.98511 0
M  V30 13211 H 1224.49 -2.45749 5.547 0
M  V30 13212 H 1223.23 -2.3212 4.28919 0
M  V30 13213 H 1222.24 -0.351868 5.48673 0
M  V30 13214 H 1223.46 -0.509139 6.77189 0
M  V30 13215 H 1221.41 -2.62115 6.01358 0
M  V30 13216 H 1221.33 -1.57627 7.39385 0
M  V30 13217 H 1222.59 -2.76088 7.28969 0
M  V30 13218 N 1226.82 -1.56058 0.219941 0
M  V30 13219 C 1228.05 -2.031 -0.42014 0
M  V30 13220 C 1228.47 -1.09875 -1.52673 0
M  V30 13221 O 1227.83 -0.0866458 -1.81093 0
M  V30 13222 C 1227.88 -3.48389 -0.93047 0
M  V30 13223 O 1226.98 -3.583 -2.04192 0
M  V30 13224 H 1226.32 -0.657129 -0.0952772 0
M  V30 13225 H 1228.85 -2.01787 0.338105 0
M  V30 13226 H 1228.86 -3.88678 -1.2407 0
M  V30 13227 H 1227.54 -4.15725 -0.120539 0
M  V30 13228 H 1226.12 -3.29898 -1.73845 0
M  V30 13229 N 1228.3 0.053464 -1.57509 0
M  V30 13230 C 1229.25 1.06155 -2.04939 0
M  V30 13231 C 1230.22 1.37382 -0.93357 0
M  V30 13232 O 1231.4 1.48137 -1.2025 0
M  V30 13233 C 1228.54 2.36476 -2.51343 0
M  V30 13234 C 1227.66 2.1162 -3.76618 0
M  V30 13235 C 1226.79 3.35636 -4.11731 0
M  V30 13236 C 1225.83 3.06226 -5.29993 0
M  V30 13237 N 1224.97 4.22623 -5.60655 0
M  V30 13238 H 1229.81 0.650122 -2.90822 0
M  V30 13239 H 1227.34 0.309421 -1.43809 0
M  V30 13240 H 1229.3 3.12588 -2.76306 0
M  V30 13241 H 1227.93 2.75386 -1.68411 0
M  V30 13242 H 1226.98 1.26116 -3.58886 0
M  V30 13243 H 1228.3 1.85909 -4.6286 0
M  V30 13244 H 1227.45 4.20132 -4.37692 0
M  V30 13245 H 1226.19 3.64439 -3.24092 0
M  V30 13246 H 1225.19 2.20128 -5.03809 0
M  V30 13247 H 1226.42 2.78726 -6.19265 0
M  V30 13248 H 1224.37 4.51424 -4.75976 0
M  V30 13249 H 1224.28 4.0025 -6.41355 0
M  V30 13250 H 1225.55 5.08063 -5.91178 0
M  V30 13251 N 1229.78 1.54207 0.325255 0
M  V30 13252 C 1231.03 1.72587 1.06497 0
M  V30 13253 C 1231.36 0.497228 1.87727 0
M  V30 13254 O 1230.63 -0.505804 1.87808 0
M  V30 13255 C 1230.92 3.00046 1.99109 0
M  V30 13256 C 1230.77 4.33158 1.21221 0
M  V30 13257 C 1232.09 3.23251 2.98658 0
M  V30 13258 H 1229.21 0.627974 0.38577 0
M  V30 13259 H 1231.85 1.869 0.34179 0
M  V30 13260 H 1230 2.87973 2.60775 0
M  V30 13261 H 1231.67 4.57111 0.620289 0
M  V30 13262 H 1229.91 4.30739 0.514462 0
M  V30 13263 H 1230.59 5.18558 1.89214 0
M  V30 13264 H 1233.06 3.34774 2.47114 0
M  V30 13265 H 1231.94 4.13796 3.60645 0
M  V30 13266 H 1232.2 2.40401 3.71026 0
M  V30 13267 N 1231.26 -0.58723 1.46251 0
M  V30 13268 C 1232.21 -1.71771 1.56836 0
M  V30 13269 C 1233.2 -1.63664 0.437096 0
M  V30 13270 O 1234.41 -1.69212 0.613797 0
M  V30 13271 H 1230.78 -0.567841 0.493012 0
M  V30 13272 H 1232.75 -1.59974 2.51895 0
M  V30 13273 C 1231.5 -3.10159 1.57152 0
M  V30 13274 H 1230.82 -3.17066 2.43535 0
M  V30 13275 H 1232.26 -3.89032 1.68613 0
M  V30 13276 C 1230.72 -3.35567 0.299374 0
M  V30 13277 O 1231.25 -3.97006 -0.612291 0
M  V30 13278 N 1229.46 -2.89987 0.188695 0
M  V30 13279 H 1229.01 -2.4017 0.93147 0
M  V30 13280 H 1228.96 -3.0736 -0.661612 0
M  V30 13281 N 1232.74 -1.33881 -0.831482 0
M  V30 13282 C 1234.15 -1.13376 -1.1233 0
M  V30 13283 C 1234.35 0.0704402 -2.01377 0
M  V30 13284 O 1233.41 0.748516 -2.4115 0
M  V30 13285 C 1234.72 -2.42484 -1.77826 0
M  V30 13286 C 1236.27 -2.4846 -1.90359 0
M  V30 13287 C 1236.74 -3.77548 -2.59272 0
M  V30 13288 N 1238.23 -3.7866 -2.66778 0
M  V30 13289 C 1238.97 -4.75258 -3.20807 0
M  V30 13290 N 1238.47 -5.82234 -3.75466 0
M  V30 13291 N 1240.26 -4.62724 -3.19128 0
M  V30 13292 H 1232.41 -2.11051 -0.238998 0
M  V30 13293 H 1234.67 -0.932893 -0.168565 0
M  V30 13294 H 1234.38 -3.30647 -1.19857 0
M  V30 13295 H 1234.25 -2.55186 -2.77777 0
M  V30 13296 H 1236.64 -1.60742 -2.47479 0
M  V30 13297 H 1236.72 -2.39693 -0.893359 0
M  V30 13298 H 1236.36 -4.65651 -2.02808 0
M  V30 13299 H 1236.29 -3.83594 -3.60781 0
M  V30 13300 H 1238.79 -3.01351 -2.28026 0
M  V30 13301 H 1239.1 -6.51968 -4.14918 0
M  V30 13302 H 1237.44 -5.85959 -3.73733 0
M  V30 13303 H 1240.63 -3.78303 -2.75688 0
M  V30 13304 H 1240.81 -5.38175 -3.60932 0
M  V30 13305 N 1234.21 1.05064 -1.1747 0
M  V30 13306 C 1235.16 2.11131 -0.860692 0
M  V30 13307 C 1236.15 1.60049 0.165288 0
M  V30 13308 O 1237.34 1.76961 -0.0373288 0
M  V30 13309 C 1234.47 3.41222 -0.37718 0
M  V30 13310 C 1233.55 3.99097 -1.43466 0
M  V30 13311 N 1233.95 4.30918 -2.64846 0
M  V30 13312 C 1232.24 4.26851 -1.29282 0
M  V30 13313 C 1232.94 4.77092 -3.32804 0
M  V30 13314 N 1231.92 4.77291 -2.60182 0
M  V30 13315 H 1235.72 2.33597 -1.78353 0
M  V30 13316 H 1233.24 1.22724 -1.06361 0
M  V30 13317 H 1235.23 4.16685 -0.133766 0
M  V30 13318 H 1233.89 3.20188 0.53944 0
M  V30 13319 H 1234.9 4.20877 -3.01799 0
M  V30 13320 H 1231.58 4.15197 -0.437949 0
M  V30 13321 H 1232.97 5.10815 -4.36483 0
M  V30 13322 N 1235.69 0.975146 1.23809 0
M  V30 13323 C 1236.62 0.530389 2.27396 0
M  V30 13324 C 1237.6 -0.433763 1.64476 0
M  V30 13325 O 1238.79 -0.32827 1.91405 0
M  V30 13326 C 1235.92 -0.173066 3.46869 0
M  V30 13327 C 1234.87 0.707844 4.22106 0
M  V30 13328 C 1234.2 -0.127527 5.34548 0
M  V30 13329 C 1235.5 1.99609 4.82652 0
M  V30 13330 H 1237.19 1.39622 2.64851 0
M  V30 13331 H 1234.74 0.672802 1.27316 0
M  V30 13332 H 1236.69 -0.495481 4.18477 0
M  V30 13333 H 1235.41 -1.0733 3.0846 0
M  V30 13334 H 1234.07 1.01364 3.52308 0
M  V30 13335 H 1233.72 -1.02814 4.9238 0
M  V30 13336 H 1233.42 0.458728 5.85807 0
M  V30 13337 H 1234.95 -0.444443 6.0898 0
M  V30 13338 H 1236.36 1.73878 5.46296 0
M  V30 13339 H 1234.76 2.52969 5.44175 0
M  V30 13340 H 1235.83 2.68629 4.03691 0
M  V30 13341 N 1237.17 -1.38817 0.746158 0
M  V30 13342 C 1238.12 -2.30521 0.113517 0
M  V30 13343 C 1239.09 -1.49795 -0.717682 0
M  V30 13344 O 1240.27 -1.78448 -0.675345 0
M  V30 13345 C 1237.41 -3.36185 -0.779343 0
M  V30 13346 C 1236.52 -4.3195 0.0656784 0
M  V30 13347 C 1235.66 -5.24684 -0.829492 0
M  V30 13348 C 1234.7 -6.12097 0.0196112 0
M  V30 13349 N 1233.84 -6.97152 -0.832107 0
M  V30 13350 H 1238.68 -2.84048 0.901136 0
M  V30 13351 H 1236.21 -1.39853 0.456025 0
M  V30 13352 H 1238.17 -3.96048 -1.31156 0
M  V30 13353 H 1236.8 -2.84085 -1.53282 0
M  V30 13354 H 1235.85 -3.73611 0.715445 0
M  V30 13355 H 1237.16 -4.93551 0.721735 0
M  V30 13356 H 1236.32 -5.89627 -1.42915 0
M  V30 13357 H 1235.06 -4.63431 -1.5193 0
M  V30 13358 H 1234.06 -5.46156 0.631991 0
M  V30 13359 H 1235.29 -6.75416 0.706369 0
M  V30 13360 H 1233.23 -6.38456 -1.507 0
M  V30 13361 H 1233.15 -7.55642 -0.232782 0
M  V30 13362 H 1234.42 -7.66513 -1.41697 0
M  V30 13363 N 1238.65 -0.49465 -1.49636 0
M  V30 13364 C 1239.92 0.114829 -1.95263 0
M  V30 13365 C 1240.3 1.54739 -1.43593 0
M  V30 13366 O 1239.65 2.1915 -0.646953 0
M  V30 13367 C 1239.86 0.0339912 -3.48983 0
M  V30 13368 C 1241.21 0.211108 -4.24075 0
M  V30 13369 O 1242.23 0.109478 -3.56032 0
M  V30 13370 O 1241.09 0.418971 -5.44892 0
M  V30 13371 H 1238.19 0.0987883 -0.821078 0
M  V30 13372 H 1240.73 -0.556736 -1.60308 0
M  V30 13373 H 1239.51 -0.965287 -3.79207 0
M  V30 13374 H 1239.13 0.745982 -3.90539 0
M  V30 13375 N 1240.13 1.55939 -0.228214 0
M  V30 13376 C 1241.35 2.0332 0.409364 0
M  V30 13377 C 1241.78 1.10683 1.52088 0
M  V30 13378 O 1241.13 0.0962484 1.81044 0
M  V30 13379 C 1241.18 3.48877 0.911981 0
M  V30 13380 O 1240.29 3.59378 2.02289 0
M  V30 13381 H 1239.63 0.657625 0.0917909 0
M  V30 13382 H 1242.16 2.01605 -0.348802 0
M  V30 13383 H 1242.17 3.89331 1.22007 0
M  V30 13384 H 1240.84 4.15783 0.0984902 0
M  V30 13385 H 1239.42 3.30815 1.72093 0
M  V30 13386 N 1241.6 -0.0451101 1.57535 0
M  V30 13387 C 1242.85 -0.738072 1.87711 0
M  V30 13388 C 1243.17 -1.7737 0.824579 0
M  V30 13389 O 1244.37 -2.51812 1.01503 0
M  V30 13390 C 1242.83 -1.36373 3.33062 0
M  V30 13391 C 1242.44 -0.365283 4.46508 0
M  V30 13392 C 1244.18 -2.0375 3.72406 0
M  V30 13393 C 1242.09 -0.998371 5.82912 0
M  V30 13394 H 1241.02 -0.279413 0.700317 0
M  V30 13395 H 1243.67 0.00802425 1.83498 0
M  V30 13396 H 1242.05 -2.15899 3.31969 0
M  V30 13397 H 1243.22 0.402102 4.59042 0
M  V30 13398 H 1241.54 0.205505 4.15893 0
M  V30 13399 H 1244.14 -2.51939 4.71625 0
M  V30 13400 H 1244.48 -2.84869 3.03571 0
M  V30 13401 H 1245.01 -1.3102 3.75604 0
M  V30 13402 H 1241.75 -0.226935 6.55107 0
M  V30 13403 H 1241.27 -1.73598 5.74129 0
M  V30 13404 H 1242.95 -1.51044 6.29122 0
M  V30 13405 N 1243.08 -1.54377 -0.317073 0
M  V30 13406 C 1244.49 -1.64062 -0.891105 0
M  V30 13407 C 1244.84 -0.538863 -1.88655 0
M  V30 13408 O 1243.97 0.32718 -2.13912 0
M  V30 13409 C 1244.56 -2.97395 -1.62302 0
M  V30 13410 C 1243.12 -3.09253 -2.14568 0
M  V30 13411 C 1242.27 -2.59664 -0.973146 0
M  V30 13412 H 1245.22 -1.58418 -0.0944829 0
M  V30 13413 H 1245.24 -2.87918 -2.48764 0
M  V30 13414 H 1244.75 -3.77562 -0.898268 0
M  V30 13415 H 1242.86 -2.33774 -2.90139 0
M  V30 13416 H 1242.97 -4.15159 -2.39123 0
M  V30 13417 H 1241.33 -2.15719 -1.35416 0
M  V30 13418 H 1242.12 -3.42294 -0.262611 0
M  V30 13419 N 1244.56 0.579466 -1.4656 0
M  V30 13420 C 1245.81 1.33756 -1.52038 0
M  V30 13421 C 1246.14 1.93725 -0.173423 0
M  V30 13422 O 1245.39 1.77167 0.831293 0
M  V30 13423 C 1245.69 2.48417 -2.56951 0
M  V30 13424 C 1245.36 2.0642 -4.00876 0
M  V30 13425 C 1244.02 1.94682 -4.4006 0
M  V30 13426 C 1246.37 1.74066 -4.91274 0
M  V30 13427 C 1243.7 1.48852 -5.67503 0
M  V30 13428 C 1246.05 1.29714 -6.19158 0
M  V30 13429 C 1244.71 1.16555 -6.57245 0
M  V30 13430 H 1243.98 0.489447 -0.556347 0
M  V30 13431 H 1246.63 0.652176 -1.80053 0
M  V30 13432 H 1244.94 3.22416 -2.2261 0
M  V30 13433 H 1246.63 3.06629 -2.58418 0
M  V30 13434 H 1243.22 2.16492 -3.69904 0
M  V30 13435 H 1247.41 1.82019 -4.61717 0
M  V30 13436 H 1242.66 1.3731 -5.95782 0
M  V30 13437 H 1246.84 1.03734 -6.88631 0
M  V30 13438 H 1244.46 0.808193 -7.55892 0
M  V30 13439 N 1246.04 1.3432 0.824371 0
M  V30 13440 C 1247.32 1.17178 1.56616 0
M  V30 13441 C 1247.7 -0.256195 2.0954 0
M  V30 13442 O 1247.04 -1.25732 1.90798 0
M  V30 13443 C 1247.25 2.22511 2.68867 0
M  V30 13444 C 1248.6 2.57414 3.37673 0
M  V30 13445 O 1249.63 2.2129 2.79122 0
M  V30 13446 O 1248.48 3.19462 4.43403 0
M  V30 13447 H 1245.58 0.454141 0.691147 0
M  V30 13448 H 1248.12 1.45948 0.865869 0
M  V30 13449 H 1246.9 3.18366 2.27505 0
M  V30 13450 H 1246.52 1.9491 3.46548 0
M  V30 13451 N 1247.52 -1.0444 1.18026 0
M  V30 13452 C 1248.45 -2.14297 0.927314 0
M  V30 13453 C 1249.43 -1.69575 -0.13357 0
M  V30 13454 O 1250.61 -1.94191 0.0182439 0
M  V30 13455 C 1247.74 -3.44397 0.448134 0
M  V30 13456 C 1246.7 -4.02723 1.44907 0
M  V30 13457 C 1246.02 -5.28257 0.827555 0
M  V30 13458 C 1247.32 -4.39331 2.82463 0
M  V30 13459 H 1249.02 -2.35715 1.84605 0
M  V30 13460 H 1246.56 -1.13281 0.889012 0
M  V30 13461 H 1248.52 -4.20606 0.258554 0
M  V30 13462 H 1247.24 -3.22654 -0.506159 0
M  V30 13463 H 1245.9 -3.28591 1.62552 0
M  V30 13464 H 1245.55 -5.02822 -0.13381 0
M  V30 13465 H 1245.25 -5.68242 1.49581 0
M  V30 13466 H 1246.77 -6.07147 0.64842 0
M  V30 13467 H 1248.18 -5.06543 2.68491 0
M  V30 13468 H 1246.58 -4.90355 3.45936 0
M  V30 13469 H 1247.65 -3.4933 3.36299 0
M  V30 13470 N 1248.99 -0.981699 -1.2329 0
M  V30 13471 C 1250.22 -0.669025 -1.96313 0
M  V30 13472 C 1250.64 0.757624 -1.72168 0
M  V30 13473 O 1250 1.51626 -0.993942 0
M  V30 13474 C 1250.05 -0.966875 -3.47396 0
M  V30 13475 O 1249.15 -0.0595933 -4.12357 0
M  V30 13476 H 1248.5 -0.251493 -0.61453 0
M  V30 13477 H 1251.03 -1.31564 -1.56691 0
M  V30 13478 H 1251.04 -0.904112 -3.97857 0
M  V30 13479 H 1249.71 -2.00651 -3.64296 0
M  V30 13480 H 1248.29 -0.176878 -3.7248 0
M  V30 13481 N 1250.47 1.3842 -0.753509 0
M  V30 13482 C 1251.4 2.33073 -0.141198 0
M  V30 13483 C 1252.38 1.54863 0.70367 0
M  V30 13484 O 1253.57 1.8318 0.644872 0
M  V30 13485 C 1250.7 3.39043 0.752802 0
M  V30 13486 C 1249.65 4.27999 0.0106692 0
M  V30 13487 C 1248.98 5.24824 1.02291 0
M  V30 13488 C 1250.28 5.09308 -1.15768 0
M  V30 13489 H 1251.97 2.84528 -0.93188 0
M  V30 13490 H 1249.52 1.36802 -0.449567 0
M  V30 13491 H 1251.47 4.04224 1.19083 0
M  V30 13492 H 1250.2 2.8607 1.57581 0
M  V30 13493 H 1248.85 3.64323 -0.407939 0
M  V30 13494 H 1248.5 4.68139 1.83998 0
M  V30 13495 H 1248.2 5.85196 0.53101 0
M  V30 13496 H 1249.73 5.92882 1.46026 0
M  V30 13497 H 1251.14 5.6773 -0.797203 0
M  V30 13498 H 1249.54 5.78914 -1.58044 0
M  V30 13499 H 1250.61 4.43051 -1.97062 0
M  V30 13500 N 1251.95 0.502579 1.49372 0
M  V30 13501 C 1253.18 -0.0380876 2.06565 0
M  V30 13502 C 1253.59 -1.31224 1.36297 0
M  V30 13503 O 1252.93 -1.78463 0.435517 0
M  V30 13504 C 1252.99 -0.360462 3.57688 0
M  V30 13505 C 1252.66 0.816203 4.49652 0
M  V30 13506 C 1253.65 1.70713 4.91073 0
M  V30 13507 C 1251.34 1.01545 4.91929 0
M  V30 13508 C 1253.33 2.78144 5.73511 0
M  V30 13509 C 1251.02 2.09294 5.74142 0
M  V30 13510 C 1252.02 2.97428 6.14838 0
M  V30 13511 O 1251.71 4.03317 6.95407 0
M  V30 13512 H 1251.44 0.0179548 0.675762 0
M  V30 13513 H 1253.99 0.699609 1.93118 0
M  V30 13514 H 1252.22 -1.15177 3.69149 0
M  V30 13515 H 1253.91 -0.839931 3.97115 0
M  V30 13516 H 1254.68 1.56502 4.59056 0
M  V30 13517 H 1250.56 0.338822 4.59753 0
M  V30 13518 H 1254.1 3.46965 6.05195 0
M  V30 13519 H 1250 2.235 6.05572 0
M  V30 13520 H 1250.77 4.00689 7.13716 0
M  V30 13521 N 1253.43 -1.55816 0.23648 0
M  V30 13522 C 1254.66 -2.03083 -0.395584 0
M  V30 13523 C 1255.07 -1.11599 -1.52286 0
M  V30 13524 O 1254.43 -0.128403 -1.82048 0
M  V30 13525 C 1254.48 -3.49776 -0.913197 0
M  V30 13526 O 1254.2 -4.37773 0.169151 0
M  V30 13527 C 1255.7 -4.12756 -1.617 0
M  V30 13528 H 1252.92 -0.66421 -0.0952146 0
M  V30 13529 H 1255.47 -2.01354 0.357299 0
M  V30 13530 H 1253.62 -3.52072 -1.6163 0
M  V30 13531 H 1254.03 -5.24029 -0.222217 0
M  V30 13532 H 1255.51 -5.17123 -1.93101 0
M  V30 13533 H 1255.99 -3.58631 -2.53537 0
M  V30 13534 H 1256.59 -4.14353 -0.958736 0
M  V30 13535 N 1254.91 0.036755 -1.57557 0
M  V30 13536 C 1255.85 1.03975 -2.06053 0
M  V30 13537 C 1256.82 1.36384 -0.948089 0
M  V30 13538 O 1258.01 1.46853 -1.21815 0
M  V30 13539 C 1255.15 2.33796 -2.53837 0
M  V30 13540 C 1254.26 2.07614 -3.78841 0
M  V30 13541 C 1253.4 3.3125 -4.15267 0
M  V30 13542 C 1252.44 3.00587 -5.33211 0
M  V30 13543 N 1251.57 4.16653 -5.65106 0
M  V30 13544 H 1256.41 0.61924 -2.91495 0
M  V30 13545 H 1253.95 0.294151 -1.44129 0
M  V30 13546 H 1255.91 3.09639 -2.79606 0
M  V30 13547 H 1254.54 2.73584 -1.71323 0
M  V30 13548 H 1253.59 1.22302 -3.60203 0
M  V30 13549 H 1254.9 1.80989 -4.64806 0
M  V30 13550 H 1254.06 4.15466 -4.42123 0
M  V30 13551 H 1252.79 3.60981 -3.27939 0
M  V30 13552 H 1251.8 2.14772 -5.06115 0
M  V30 13553 H 1253.02 2.72142 -6.22186 0
M  V30 13554 H 1250.97 4.4635 -4.80737 0
M  V30 13555 H 1250.89 3.93425 -6.45564 0
M  V30 13556 H 1252.16 5.01764 -5.96534 0
M  V30 13557 N 1256.39 1.54543 0.308881 0
M  V30 13558 C 1257.66 1.64118 1.06418 0
M  V30 13559 C 1258.04 0.484402 2.05467 0
M  V30 13560 O 1257.39 -0.519752 2.2251 0
M  V30 13561 C 1257.6 3.01776 1.75306 0
M  V30 13562 C 1258.95 3.58324 2.27792 0
M  V30 13563 O 1259.97 3.04177 1.85351 0
M  V30 13564 O 1258.83 4.53113 3.05533 0
M  V30 13565 H 1255.93 0.665172 0.491401 0
M  V30 13566 H 1258.47 1.66889 0.307598 0
M  V30 13567 H 1257.24 3.77407 1.03341 0
M  V30 13568 H 1256.87 3.02748 2.57739 0
M  V30 13569 N 1257.86 -0.571685 1.46866 0
M  V30 13570 C 1259.09 -1.35524 1.56336 0
M  V30 13571 C 1259.51 -1.87647 0.208359 0
M  V30 13572 O 1258.86 -1.64219 -0.796136 0
M  V30 13573 C 1258.91 -2.53518 2.57703 0
M  V30 13574 O 1258.64 -2.03552 3.87941 0
M  V30 13575 C 1260.14 -3.45925 2.77219 0
M  V30 13576 H 1257.36 -0.41363 0.528348 0
M  V30 13577 H 1259.9 -0.693943 1.92366 0
M  V30 13578 H 1258.06 -3.15615 2.24647 0
M  V30 13579 H 1258.47 -2.80476 4.43208 0
M  V30 13580 H 1259.94 -4.2517 3.52043 0
M  V30 13581 H 1260.42 -3.98559 1.8452 0
M  V30 13582 H 1261.03 -2.89655 3.11416 0
M  V30 13583 N 1259.34 -1.34755 -0.817236 0
M  V30 13584 C 1260.59 -1.26771 -1.56882 0
M  V30 13585 C 1260.9 0.158962 -1.94953 0
M  V30 13586 O 1262.11 0.360996 -2.69089 0
M  V30 13587 C 1260.57 -2.22261 -2.83069 0
M  V30 13588 C 1260.17 -3.70216 -2.52277 0
M  V30 13589 C 1261.92 -2.23197 -3.61086 0
M  V30 13590 C 1259.82 -4.57559 -3.74691 0
M  V30 13591 H 1258.75 -0.470961 -0.588822 0
M  V30 13592 H 1261.41 -1.59955 -0.899254 0
M  V30 13593 H 1259.79 -1.82036 -3.5168 0
M  V30 13594 H 1260.96 -4.19014 -1.9174 0
M  V30 13595 H 1259.28 -3.71784 -1.87525 0
M  V30 13596 H 1261.87 -2.85673 -4.5199 0
M  V30 13597 H 1262.22 -1.2328 -3.97628 0
M  V30 13598 H 1262.75 -2.61897 -2.99424 0
M  V30 13599 H 1259.49 -5.58434 -3.43267 0
M  V30 13600 H 1259.01 -4.13494 -4.34491 0
M  V30 13601 H 1260.69 -4.72451 -4.42039 0
M  V30 13602 N 1260.82 1.03812 -1.18578 0
M  V30 13603 C 1261.75 2.13802 -0.938665 0
M  V30 13604 C 1262.73 1.69643 0.124575 0
M  V30 13605 O 1263.92 1.94179 -0.0285421 0
M  V30 13606 C 1261.05 3.44154 -0.466392 0
M  V30 13607 C 1260 4.01949 -1.47041 0
M  V30 13608 C 1259.33 5.27811 -0.855558 0
M  V30 13609 C 1260.63 4.37827 -2.84789 0
M  V30 13610 H 1262.32 2.34732 -1.85852 0
M  V30 13611 H 1259.87 1.12808 -0.895007 0
M  V30 13612 H 1261.82 4.20463 -0.280856 0
M  V30 13613 H 1260.54 3.22918 0.489041 0
M  V30 13614 H 1259.2 3.27725 -1.64293 0
M  V30 13615 H 1258.85 5.02886 0.107142 0
M  V30 13616 H 1258.55 5.67441 -1.52592 0
M  V30 13617 H 1260.07 6.06795 -0.680609 0
M  V30 13618 H 1261.49 5.05112 -2.71173 0
M  V30 13619 H 1259.88 4.88514 -3.48532 0
M  V30 13620 H 1260.95 3.47541 -3.38147 0
M  V30 13621 N 1262.3 0.988223 1.22768 0
M  V30 13622 C 1263.55 0.656941 1.90702 0
M  V30 13623 C 1263.86 -0.814058 1.77855 0
M  V30 13624 O 1265.07 -1.25673 2.40663 0
M  V30 13625 C 1263.52 1.12445 3.41883 0
M  V30 13626 C 1263.13 2.62034 3.63376 0
M  V30 13627 C 1264.87 0.867277 4.15546 0
M  V30 13628 C 1262.78 3.02412 5.08233 0
M  V30 13629 H 1261.71 0.242012 0.714105 0
M  V30 13630 H 1264.36 1.19716 1.39069 0
M  V30 13631 H 1262.74 0.512386 3.92671 0
M  V30 13632 H 1263.92 3.28546 3.23101 0
M  V30 13633 H 1262.23 2.85583 3.03037 0
M  V30 13634 H 1264.83 1.14471 5.22303 0
M  V30 13635 H 1265.17 -0.196611 4.15835 0
M  V30 13636 H 1265.71 1.4413 3.70771 0
M  V30 13637 H 1262.44 4.07957 5.1308 0
M  V30 13638 H 1261.96 2.406 5.49429 0
M  V30 13639 H 1263.64 2.93452 5.76624 0
M  V30 13640 N 1263.78 -1.38018 0.760839 0
M  V30 13641 C 1264.71 -2.2899 0.0980916 0
M  V30 13642 C 1265.72 -1.48102 -0.675985 0
M  V30 13643 O 1266.91 -1.70883 -0.515878 0
M  V30 13644 C 1264.01 -3.27142 -0.884959 0
M  V30 13645 C 1263.18 -4.37081 -0.167 0
M  V30 13646 C 1262.24 -5.15375 -1.06184 0
M  V30 13647 O 1261.27 -5.6673 -0.529667 0
M  V30 13648 N 1262.47 -5.29052 -2.38924 0
M  V30 13649 H 1265.23 -2.86508 0.879403 0
M  V30 13650 H 1262.8 -1.49877 0.612245 0
M  V30 13651 H 1264.79 -3.764 -1.48678 0
M  V30 13652 H 1263.36 -2.70471 -1.5673 0
M  V30 13653 H 1262.58 -3.89363 0.615617 0
M  V30 13654 H 1263.87 -5.07732 0.329525 0
M  V30 13655 H 1263.26 -4.88892 -2.84607 0
M  V30 13656 H 1261.82 -5.81658 -2.94139 0
M  V30 13657 N 1265.25 -0.510493 -1.49103 0
M  V30 13658 C 1266.5 0.030689 -2.02777 0
M  V30 13659 C 1266.83 1.35765 -1.38858 0
M  V30 13660 O 1266.11 1.87209 -0.527528 0
M  V30 13661 C 1266.39 0.173261 -3.59683 0
M  V30 13662 C 1266.24 -1.17749 -4.34114 0
M  V30 13663 C 1267.56 0.909395 -4.30602 0
M  V30 13664 H 1264.68 0.0096789 -0.736936 0
M  V30 13665 H 1267.32 -0.663746 -1.78029 0
M  V30 13666 H 1265.47 0.764721 -3.80899 0
M  V30 13667 H 1267.15 -1.80856 -4.24369 0
M  V30 13668 H 1265.39 -1.76438 -3.96298 0
M  V30 13669 H 1266.06 -1.03094 -5.42287 0
M  V30 13670 H 1268.54 0.407677 -4.14098 0
M  V30 13671 H 1267.41 0.978012 -5.40117 0
M  V30 13672 H 1267.67 1.9553 -3.96511 0
M  V30 13673 N 1266.73 1.55688 -0.24474 0
M  V30 13674 C 1267.98 1.98891 0.380603 0
M  V30 13675 C 1268.31 1.13283 1.58105 0
M  V30 13676 O 1267.56 0.183141 1.94841 0
M  V30 13677 C 1267.86 3.47487 0.835923 0
M  V30 13678 C 1267.53 4.5017 -0.256528 0
M  V30 13679 C 1266.19 4.7797 -0.556573 0
M  V30 13680 C 1268.54 5.1163 -0.994174 0
M  V30 13681 C 1265.87 5.64508 -1.59838 0
M  V30 13682 C 1268.22 5.99297 -2.02548 0
M  V30 13683 C 1266.88 6.25432 -2.3322 0
M  V30 13684 H 1266.15 0.727794 0.139273 0
M  V30 13685 H 1268.8 1.88235 -0.352113 0
M  V30 13686 H 1267.11 3.55464 1.64781 0
M  V30 13687 H 1268.8 3.78301 1.33001 0
M  V30 13688 H 1265.39 4.28598 -0.0125284 0
M  V30 13689 H 1269.58 4.90202 -0.775617 0
M  V30 13690 H 1264.83 5.83012 -1.84138 0
M  V30 13691 H 1269.01 6.45964 -2.60198 0
M  V30 13692 H 1266.63 6.92282 -3.14085 0
M  V30 13693 N 1268.21 -0.0283989 1.57574 0
M  V30 13694 C 1269.16 -1.04723 2.07692 0
M  V30 13695 C 1270.15 -1.37399 0.990847 0
M  V30 13696 O 1271.36 -1.36297 1.17572 0
M  V30 13697 H 1267.73 -0.355251 0.662798 0
M  V30 13698 H 1269.7 -0.598737 2.92331 0
M  V30 13699 C 1268.45 -2.33941 2.57229 0
M  V30 13700 H 1267.78 -2.09659 3.40416 0
M  V30 13701 H 1269.22 -3.03574 2.96005 0
M  V30 13702 C 1267.67 -3.02953 1.47381 0
M  V30 13703 O 1268.2 -3.9281 0.840431 0
M  V30 13704 N 1266.41 -2.64294 1.20819 0
M  V30 13705 H 1265.96 -1.91307 1.72509 0
M  V30 13706 H 1265.92 -3.10786 0.475353 0
M  V30 13707 N 1269.69 -1.54705 -0.300681 0
M  V30 13708 C 1270.64 -1.86433 -1.39087 0
M  V30 13709 C 1271.63 -0.738101 -1.52474 0
M  V30 13710 O 1272.84 -0.922096 -1.54588 0
M  V30 13711 H 1269.21 -0.591314 -0.464599 0
M  V30 13712 H 1271.18 -2.77558 -1.09563 0
M  V30 13713 C 1269.93 -2.1286 -2.74929 0
M  V30 13714 H 1269.25 -2.98994 -2.6541 0
M  V30 13715 H 1270.69 -2.39 -3.50222 0
M  V30 13716 C 1269.15 -0.92726 -3.23888 0
M  V30 13717 O 1269.68 -0.147921 -4.01428 0
M  V30 13718 N 1267.89 -0.732553 -2.81215 0
M  V30 13719 H 1267.44 -1.36797 -2.18276 0
M  V30 13720 H 1267.39 0.0696902 -3.14323 0
M  V30 13721 N 1271.17 0.563888 -1.47167 0
M  V30 13722 C 1272.4 1.34498 -1.56825 0
M  V30 13723 C 1272.8 1.87974 -0.215011 0
M  V30 13724 O 1272.15 1.65323 0.80087 0
M  V30 13725 C 1272.21 2.55602 -2.528 0
M  V30 13726 C 1271.87 2.23459 -3.98642 0
M  V30 13727 C 1272.87 1.81155 -4.87318 0
M  V30 13728 C 1270.56 2.35024 -4.43925 0
M  V30 13729 C 1272.55 1.50835 -6.19296 0
M  V30 13730 C 1270.24 2.04317 -5.75932 0
M  V30 13731 C 1271.23 1.6229 -6.63439 0
M  V30 13732 O 1270.92 1.31969 -7.92994 0
M  V30 13733 H 1270.65 0.416551 -0.532411 0
M  V30 13734 H 1273.21 0.690611 -1.93442 0
M  V30 13735 H 1271.44 3.23907 -2.11237 0
M  V30 13736 H 1273.13 3.17677 -2.52659 0
M  V30 13737 H 1273.89 1.71719 -4.53583 0
M  V30 13738 H 1269.77 2.66696 -3.76024 0
M  V30 13739 H 1273.32 1.17958 -6.87555 0
M  V30 13740 H 1269.21 2.13383 -6.09211 0
M  V30 13741 H 1269.98 1.45656 -8.05436 0
M  V30 13742 N 1272.64 1.35187 0.810078 0
M  V30 13743 C 1273.89 1.27602 1.56207 0
M  V30 13744 C 1274.21 -0.148621 1.95035 0
M  V30 13745 O 1275.41 -0.346721 2.69277 0
M  V30 13746 C 1273.87 2.23759 2.81886 0
M  V30 13747 C 1273.48 3.71549 2.5031 0
M  V30 13748 C 1275.22 2.25109 3.59898 0
M  V30 13749 C 1273.13 4.5954 3.7226 0
M  V30 13750 H 1272.06 0.474078 0.586316 0
M  V30 13751 H 1274.71 1.6043 0.890759 0
M  V30 13752 H 1273.09 1.83898 3.5071 0
M  V30 13753 H 1274.26 4.20025 1.89515 0
M  V30 13754 H 1272.58 3.72773 1.85551 0
M  V30 13755 H 1275.18 2.88066 4.50469 0
M  V30 13756 H 1275.52 1.25387 3.96968 0
M  V30 13757 H 1276.05 2.63481 2.98031 0
M  V30 13758 H 1272.79 5.60246 3.403 0
M  V30 13759 H 1272.31 4.15792 4.32293 0
M  V30 13760 H 1273.99 4.74789 4.39528 0
M  V30 13761 N 1274.12 -1.03182 1.19127 0
M  V30 13762 C 1275.35 -1.80703 1.01791 0
M  V30 13763 C 1275.77 -1.83147 -0.428824 0
M  V30 13764 O 1275.13 -1.2553 -1.30812 0
M  V30 13765 C 1275.18 -3.23754 1.58794 0
M  V30 13766 O 1274.28 -4.04261 0.815274 0
M  V30 13767 H 1273.62 -0.557944 0.359992 0
M  V30 13768 H 1276.15 -1.29887 1.58084 0
M  V30 13769 H 1276.16 -3.7451 1.61884 0
M  V30 13770 H 1274.84 -3.2129 2.64094 0
M  V30 13771 H 1273.42 -3.62909 0.857392 0
M  V30 13772 N 1275.6 -0.99472 -1.22242 0
M  V30 13773 C 1276.55 -0.53946 -2.26258 0
M  V30 13774 C 1277.54 0.410796 -1.64344 0
M  V30 13775 O 1278.75 0.283116 -1.7776 0
M  V30 13776 H 1275.12 -0.156069 -0.735627 0
M  V30 13777 H 1277.09 -1.42814 -2.62005 0
M  V30 13778 C 1275.84 0.12842 -3.47463 0
M  V30 13779 H 1275.17 -0.593727 -3.95367 0
M  V30 13780 H 1276.61 0.410393 -4.22009 0
M  V30 13781 C 1275.07 1.36433 -3.08038 0
M  V30 13782 O 1275.6 2.45953 -3.176 0
M  V30 13783 N 1273.8 1.24026 -2.62804 0
M  V30 13784 H 1273.35 0.349111 -2.55223 0
M  V30 13785 H 1273.31 2.06824 -2.36794 0
M  V30 13786 N 1277.08 1.37613 -0.768148 0
M  V30 13787 C 1278.33 1.99023 -0.327543 0
M  V30 13788 C 1278.64 1.61669 1.10103 0
M  V30 13789 O 1279.85 2.16155 1.64284 0
M  V30 13790 C 1278.3 3.55906 -0.534674 0
M  V30 13791 C 1277.91 4.02201 -1.97327 0
M  V30 13792 C 1279.65 4.24208 -0.157512 0
M  V30 13793 C 1277.56 5.51781 -2.12819 0
M  V30 13794 H 1276.49 0.744595 -0.118722 0
M  V30 13795 H 1279.14 1.5719 -0.946764 0
M  V30 13796 H 1277.52 3.95701 0.153951 0
M  V30 13797 H 1278.7 3.73661 -2.69655 0
M  V30 13798 H 1277.01 3.46671 -2.30669 0
M  V30 13799 H 1279.61 5.34107 -0.251824 0
M  V30 13800 H 1279.95 4.06636 0.89177 0
M  V30 13801 H 1280.49 3.89703 -0.798546 0
M  V30 13802 H 1277.23 5.74274 -3.16053 0
M  V30 13803 H 1276.75 5.82017 -1.4497 0
M  V30 13804 H 1278.42 6.17697 -1.92508 0
M  V30 13805 N 1278.56 0.518393 1.4883 0
M  V30 13806 C 1279.78 -0.0183131 2.07392 0
M  V30 13807 C 1280.21 -1.28468 1.37396 0
M  V30 13808 O 1279.56 -1.75975 0.436177 0
M  V30 13809 C 1279.61 -0.237211 3.59819 0
M  V30 13810 O 1278.72 -1.30835 3.91096 0
M  V30 13811 H 1278.06 0.0339621 0.663131 0
M  V30 13812 H 1280.59 0.722993 1.914 0
M  V30 13813 H 1280.6 -0.463424 4.0536 0
M  V30 13814 H 1279.27 0.687925 4.10171 0
M  V30 13815 H 1277.85 -1.06571 3.57347 0
M  V30 13816 N 1280.03 -1.55556 0.252993 0
M  V30 13817 C 1281.26 -2.03945 -0.376965 0
M  V30 13818 C 1281.68 -1.13089 -1.50308 0
M  V30 13819 O 1281.04 -0.125039 -1.80868 0
M  V30 13820 C 1281.09 -3.50284 -0.856363 0
M  V30 13821 O 1280.19 -3.62551 -1.96546 0
M  V30 13822 H 1279.54 -0.659002 -0.081317 0
M  V30 13823 H 1282.07 -2.01024 0.380831 0
M  V30 13824 H 1282.08 -3.91222 -1.15798 0
M  V30 13825 H 1280.75 -4.15887 -0.0323302 0
M  V30 13826 H 1279.33 -3.33511 -1.66808 0
M  V30 13827 N 1281.51 0.0200419 -1.57587 0
M  V30 13828 C 1282.46 1.0362 -2.08244 0
M  V30 13829 C 1283.45 1.36872 -0.998119 0
M  V30 13830 O 1284.66 1.35671 -1.18293 0
M  V30 13831 H 1281.04 0.351731 -0.664673 0
M  V30 13832 H 1283.01 0.583226 -2.92645 0
M  V30 13833 C 1281.76 2.32574 -2.58466 0
M  V30 13834 H 1281.08 2.0785 -3.41523 0
M  V30 13835 H 1282.52 3.02 -2.97611 0
M  V30 13836 C 1280.98 3.02167 -1.48986 0
M  V30 13837 O 1281.51 3.92359 -0.861251 0
M  V30 13838 N 1279.71 2.63649 -1.22219 0
M  V30 13839 H 1279.26 1.90389 -1.73521 0
M  V30 13840 H 1279.22 3.10529 -0.491828 0
M  V30 13841 N 1282.99 1.54862 0.292472 0
M  V30 13842 C 1283.95 1.8565 1.34413 0
M  V30 13843 C 1284.95 0.729868 1.43281 0
M  V30 13844 O 1286.14 0.998128 1.42769 0
M  V30 13845 C 1283.28 2.0444 2.72795 0
M  V30 13846 H 1284.47 2.79642 1.08354 0
M  V30 13847 H 1282.02 1.47055 0.529574 0
M  V30 13848 H 1282.76 1.12765 3.04063 0
M  V30 13849 H 1282.54 2.86451 2.67747 0
M  V30 13850 H 1284.03 2.296 3.48817 0
M  V30 13851 N 1284.47 -0.556076 1.47464 0
M  V30 13852 C 1285.72 -1.30955 1.53407 0
M  V30 13853 C 1286.03 -1.94559 0.201485 0
M  V30 13854 O 1287.24 -2.71144 0.138925 0
M  V30 13855 C 1285.69 -2.37476 2.70431 0
M  V30 13856 C 1285.3 -1.80057 4.10224 0
M  V30 13857 C 1287.04 -3.13997 2.85668 0
M  V30 13858 C 1284.95 -2.84365 5.18547 0
M  V30 13859 H 1283.88 -0.4924 0.571015 0
M  V30 13860 H 1286.53 -0.590459 1.73741 0
M  V30 13861 H 1284.91 -3.12304 2.43479 0
M  V30 13862 H 1286.09 -1.11593 4.47083 0
M  V30 13863 H 1284.4 -1.16116 3.99882 0
M  V30 13864 H 1287 -3.91892 3.63764 0
M  V30 13865 H 1287.34 -3.68253 1.94153 0
M  V30 13866 H 1287.88 -2.46281 3.12395 0
M  V30 13867 H 1284.62 -2.34963 6.11942 0
M  V30 13868 H 1284.14 -3.51235 4.86203 0
M  V30 13869 H 1285.81 -3.47836 5.45545 0
M  V30 13870 N 1285.95 -1.35615 -0.802897 0
M  V30 13871 C 1286.88 -1.31506 -1.92947 0
M  V30 13872 C 1287.86 -0.188843 -1.69048 0
M  V30 13873 O 1289.04 -0.384384 -1.90358 0
M  V30 13874 C 1286.17 -1.09001 -3.29752 0
M  V30 13875 C 1285.13 -2.18303 -3.68141 0
M  V30 13876 C 1284.45 -1.80959 -5.03148 0
M  V30 13877 C 1285.75 -3.60296 -3.78132 0
M  V30 13878 H 1287.45 -2.25771 -1.96642 0
M  V30 13879 H 1284.99 -1.08682 -0.944685 0
M  V30 13880 H 1286.95 -1.04766 -4.08169 0
M  V30 13881 H 1285.67 -0.111832 -3.26408 0
M  V30 13882 H 1284.33 -2.21642 -2.92011 0
M  V30 13883 H 1283.98 -0.817495 -4.96312 0
M  V30 13884 H 1283.68 -2.54129 -5.29804 0
M  V30 13885 H 1285.2 -1.78255 -5.84001 0
M  V30 13886 H 1286.62 -3.59259 -4.46773 0
M  V30 13887 H 1285.01 -4.32258 -4.16261 0
M  V30 13888 H 1286.08 -3.9618 -2.79588 0
M  V30 13889 N 1287.43 1.02549 -1.19673 0
M  V30 13890 C 1288.65 1.8016 -1.02748 0
M  V30 13891 C 1289.08 1.83372 0.419105 0
M  V30 13892 O 1288.43 1.26222 1.30144 0
M  V30 13893 C 1288.48 3.22907 -1.60509 0
M  V30 13894 O 1287.59 4.03823 -0.836702 0
M  V30 13895 H 1286.93 0.556027 -0.362946 0
M  V30 13896 H 1289.46 1.29047 -1.5877 0
M  V30 13897 H 1289.47 3.73646 -1.63868 0
M  V30 13898 H 1288.14 3.19885 -2.65794 0
M  V30 13899 H 1286.72 3.6245 -0.876626 0
M  V30 13900 N 1288.9 1.00119 1.21713 0
M  V30 13901 C 1289.83 0.578504 2.2622 0
M  V30 13902 C 1290.81 -0.398777 1.6536 0
M  V30 13903 O 1292 -0.287596 1.92059 0
M  V30 13904 C 1289.13 -0.0994508 3.47158 0
M  V30 13905 C 1288.08 0.79722 4.2051 0
M  V30 13906 C 1287.41 -0.0141125 5.34698 0
M  V30 13907 C 1288.71 2.09802 4.7831 0
M  V30 13908 H 1290.4 1.45208 2.6183 0
M  V30 13909 H 1287.95 0.699656 1.2586 0
M  V30 13910 H 1289.9 -0.406605 4.19434 0
M  V30 13911 H 1288.63 -1.00763 3.10667 0
M  V30 13912 H 1287.29 1.08814 3.50079 0
M  V30 13913 H 1286.93 -0.923468 4.9445 0
M  V30 13914 H 1286.63 0.582883 5.84702 0
M  V30 13915 H 1288.16 -0.31517 6.09786 0
M  V30 13916 H 1289.57 1.85427 5.42485 0
M  V30 13917 H 1287.97 2.64455 5.38687 0
M  V30 13918 H 1289.04 2.77132 3.97902 0
M  V30 13919 N 1290.38 -1.37203 0.775435 0
M  V30 13920 C 1291.61 -2.04396 0.351737 0
M  V30 13921 C 1292.03 -1.58099 -1.01913 0
M  V30 13922 O 1291.39 -0.742932 -1.65379 0
M  V30 13923 C 1291.44 -3.58283 0.408105 0
M  V30 13924 O 1290.54 -4.08156 -0.590104 0
M  V30 13925 H 1289.88 -0.646451 0.151647 0
M  V30 13926 H 1292.41 -1.75443 1.05265 0
M  V30 13927 H 1292.42 -4.07127 0.266711 0
M  V30 13928 H 1291.1 -3.91335 1.40819 0
M  V30 13929 H 1289.67 -3.70622 -0.411524 0
M  V30 13930 N 1291.86 -0.526279 -1.48553 0
M  V30 13931 C 1293.09 0.00522012 -2.06599 0
M  V30 13932 C 1293.5 1.29039 -1.38368 0
M  V30 13933 O 1292.84 1.77747 -0.463854 0
M  V30 13934 C 1292.9 0.303512 -3.58216 0
M  V30 13935 C 1292.57 -0.887635 -4.48297 0
M  V30 13936 C 1293.56 -1.78504 -4.88295 0
M  V30 13937 C 1291.25 -1.09359 -4.90251 0
M  V30 13938 C 1293.24 -2.87233 -5.69013 0
M  V30 13939 C 1290.93 -2.18402 -5.7074 0
M  V30 13940 C 1291.93 -3.07172 -6.10028 0
M  V30 13941 O 1291.62 -4.14329 -6.88902 0
M  V30 13942 H 1291.35 -0.0287033 -0.67539 0
M  V30 13943 H 1293.9 -0.730244 -1.91981 0
M  V30 13944 H 1292.13 1.0929 -3.70935 0
M  V30 13945 H 1293.82 0.776647 -3.98401 0
M  V30 13946 H 1294.59 -1.63785 -4.56508 0
M  V30 13947 H 1290.47 -0.411922 -4.59156 0
M  V30 13948 H 1294.01 -3.56549 -5.99599 0
M  V30 13949 H 1289.91 -2.33106 -6.0194 0
M  V30 13950 H 1290.67 -4.11993 -7.07251 0
M  V30 13951 N 1293.34 1.5542 -0.261239 0
M  V30 13952 C 1294.75 1.59327 0.0932655 0
M  V30 13953 C 1294.95 1.27846 1.55748 0
M  V30 13954 O 1294.01 1.03265 2.30418 0
M  V30 13955 C 1295.32 2.99496 -0.268856 0
M  V30 13956 C 1296.87 3.12265 -0.21433 0
M  V30 13957 C 1297.35 4.54677 -0.55069 0
M  V30 13958 N 1298.84 4.60475 -0.501723 0
M  V30 13959 C 1299.57 5.6867 -0.734961 0
M  V30 13960 N 1299.07 6.85069 -1.03209 0
M  V30 13961 N 1300.86 5.58156 -0.664696 0
M  V30 13962 H 1293.01 1.7415 -1.21595 0
M  V30 13963 H 1295.27 0.811382 -0.490268 0
M  V30 13964 H 1294.98 3.2732 -1.28664 0
M  V30 13965 H 1294.85 3.75104 0.397097 0
M  V30 13966 H 1297.24 2.84213 0.794148 0
M  V30 13967 H 1297.32 2.389 -0.914342 0
M  V30 13968 H 1296.97 4.83453 -1.55679 0
M  V30 13969 H 1296.9 5.26322 0.170959 0
M  V30 13970 H 1299.39 3.76851 -0.281387 0
M  V30 13971 H 1299.7 7.63472 -1.19709 0
M  V30 13972 H 1298.05 6.86718 -1.06971 0
M  V30 13973 H 1301.24 4.66098 -0.432513 0
M  V30 13974 H 1301.41 6.42403 -0.849857 0
M  V30 13975 N 1294.82 -0.0116844 1.57596 0
M  V30 13976 C 1296.06 -0.697577 1.89679 0
M  V30 13977 C 1296.38 -1.74956 0.861122 0
M  V30 13978 O 1295.65 -1.95629 -0.103031 0
M  V30 13979 H 1294.23 -0.26064 0.700054 0
M  V30 13980 H 1296.9 0.0264782 1.94882 0
M  V30 13981 H 1295.99 -1.17621 2.89088 0
M  V30 13982 N 1296.29 -1.55015 -0.284256 0
M  V30 13983 C 1297.54 -1.74744 -1.01532 0
M  V30 13984 C 1297.86 -0.545334 -1.87219 0
M  V30 13985 O 1297.13 0.440046 -1.90894 0
M  V30 13986 H 1295.71 -0.644382 -0.377864 0
M  V30 13987 H 1298.37 -1.92399 -0.311199 0
M  V30 13988 H 1297.47 -2.64369 -1.65878 0
M  V30 13989 N 1297.77 0.548248 -1.47757 0
M  V30 13990 C 1299.19 0.875048 -1.33473 0
M  V30 13991 C 1299.39 1.98747 -0.331952 0
M  V30 13992 O 1298.44 2.51226 0.253348 0
M  V30 13993 C 1299.76 1.25982 -2.73037 0
M  V30 13994 C 1301.3 1.37074 -2.81389 0
M  V30 13995 C 1301.78 1.78902 -4.21613 0
M  V30 13996 N 1303.27 1.86037 -4.24198 0
M  V30 13997 C 1304.01 2.1975 -5.2962 0
M  V30 13998 N 1303.5 2.52013 -6.45338 0
M  V30 13999 N 1305.29 2.206 -5.17003 0
M  V30 14000 H 1297.45 -0.186033 -2.11584 0
M  V30 14001 H 1299.71 -0.0205687 -0.947777 0
M  V30 14002 H 1299.41 0.516188 -3.47891 0
M  V30 14003 H 1299.29 2.21402 -3.05387 0
M  V30 14004 H 1301.68 2.10517 -2.06801 0
M  V30 14005 H 1301.76 0.398193 -2.52682 0
M  V30 14006 H 1301.4 1.06026 -4.9671 0
M  V30 14007 H 1301.33 2.77176 -4.47751 0
M  V30 14008 H 1303.82 1.63455 -3.40721 0
M  V30 14009 H 1304.13 2.7679 -7.21531 0
M  V30 14010 H 1302.48 2.49573 -6.48643 0
M  V30 14011 H 1305.67 1.9484 -4.25623 0
M  V30 14012 H 1305.84 2.46543 -5.99267 0
M  V30 14013 N 1299.25 1.36039 0.795694 0
M  V30 14014 C 1300.18 1.32528 1.92246 0
M  V30 14015 C 1301.16 0.197805 1.68946 0
M  V30 14016 O 1302.35 0.394474 1.90151 0
M  V30 14017 C 1299.48 1.10748 3.29169 0
M  V30 14018 C 1298.43 2.20253 3.66978 0
M  V30 14019 C 1297.76 1.83624 5.02181 0
M  V30 14020 C 1299.06 3.62296 3.76216 0
M  V30 14021 H 1300.75 2.2681 1.95442 0
M  V30 14022 H 1298.3 1.09181 0.938908 0
M  V30 14023 H 1300.25 1.06929 4.07608 0
M  V30 14024 H 1298.97 0.129141 3.26345 0
M  V30 14025 H 1297.63 2.23187 2.90832 0
M  V30 14026 H 1297.28 0.843804 4.95872 0
M  V30 14027 H 1296.98 2.56935 5.28449 0
M  V30 14028 H 1298.5 1.81349 5.83048 0
M  V30 14029 H 1299.92 3.61623 4.44861 0
M  V30 14030 H 1298.31 4.34459 4.13963 0
M  V30 14031 H 1299.38 3.97657 2.77483 0
M  V30 14032 N 1300.73 -1.01913 1.20215 0
M  V30 14033 C 1301.98 -1.74878 1.00502 0
M  V30 14034 C 1302.29 -1.90022 -0.463792 0
M  V30 14035 O 1303.5 -2.60055 -0.779982 0
M  V30 14036 C 1301.95 -3.1452 1.74943 0
M  V30 14037 C 1301.56 -3.07397 3.259 0
M  V30 14038 C 1303.3 -3.91713 1.63589 0
M  V30 14039 C 1301.21 -4.42032 3.92889 0
M  V30 14040 H 1300.14 -0.655603 0.372426 0
M  V30 14041 H 1302.79 -1.13978 1.4381 0
M  V30 14042 H 1301.17 -3.75946 1.24421 0
M  V30 14043 H 1302.35 -2.55294 3.83617 0
M  V30 14044 H 1300.66 -2.43698 3.37639 0
M  V30 14045 H 1303.26 -4.91316 2.1098 0
M  V30 14046 H 1303.6 -4.12074 0.591665 0
M  V30 14047 H 1304.14 -3.3691 2.11511 0
M  V30 14048 H 1300.88 -4.26874 4.97453 0
M  V30 14049 H 1300.4 -4.94151 3.39962 0
M  V30 14050 H 1302.07 -5.10884 3.96997 0
M  V30 14051 N 1302.21 -1.00763 -1.2118 0
M  V30 14052 C 1303.48 -0.607236 -1.85935 0
M  V30 14053 C 1303.86 0.915048 -1.90237 0
M  V30 14054 O 1303.21 1.80308 -1.40361 0
M  V30 14055 C 1303.42 -1.24466 -3.26051 0
M  V30 14056 C 1304.77 -1.35443 -4.02418 0
M  V30 14057 O 1305.79 -1.20018 -3.35372 0
M  V30 14058 O 1304.65 -1.60282 -5.22467 0
M  V30 14059 H 1301.75 -0.208338 -0.800328 0
M  V30 14060 H 1304.29 -1.10444 -1.28842 0
M  V30 14061 H 1303.06 -2.28524 -3.17635 0
M  V30 14062 H 1302.69 -0.733966 -3.90767 0
M  V30 14063 N 1303.68 1.3679 -0.7827 0
M  V30 14064 C 1304.91 2.04206 -0.362571 0
M  V30 14065 C 1305.33 1.58637 1.01074 0
M  V30 14066 O 1304.69 0.751692 1.64983 0
M  V30 14067 C 1304.74 3.58062 -0.4271 0
M  V30 14068 O 1303.84 4.08463 0.56845 0
M  V30 14069 H 1303.19 0.645638 -0.155073 0
M  V30 14070 H 1305.72 1.74883 -1.06194 0
M  V30 14071 H 1305.73 4.0698 -0.288298 0
M  V30 14072 H 1304.4 3.90582 -1.42893 0
M  V30 14073 H 1302.98 3.70835 0.391863 0
M  V30 14074 N 1305.16 0.53415 1.48272 0
M  V30 14075 C 1306.39 0.00368464 2.074 0
M  V30 14076 C 1306.81 -1.27003 1.38751 0
M  V30 14077 O 1306.17 -1.75502 0.454817 0
M  V30 14078 C 1306.22 -0.199034 3.6005 0
M  V30 14079 O 1305.32 -1.26679 3.92462 0
M  V30 14080 H 1304.66 0.0409936 0.662733 0
M  V30 14081 H 1307.19 0.743253 1.90622 0
M  V30 14082 H 1307.2 -0.420404 4.05828 0
M  V30 14083 H 1305.88 0.731391 4.09418 0
M  V30 14084 H 1304.46 -1.02775 3.58457 0
M  V30 14085 N 1306.64 -1.55279 0.269478 0
M  V30 14086 C 1307.89 -1.99077 -0.348224 0
M  V30 14087 C 1308.21 -1.15925 -1.568 0
M  V30 14088 O 1307.48 -0.247404 -1.94331 0
M  V30 14089 H 1306.06 -0.735307 -0.131653 0
M  V30 14090 H 1308.72 -1.91288 0.373506 0
M  V30 14091 H 1307.82 -3.05427 -0.641953 0
M  V30 14092 N 1308.12 0.00332656 -1.576 0
M  V30 14093 C 1309.35 0.69893 -1.94418 0
M  V30 14094 C 1309.76 1.68021 -0.8698 0
M  V30 14095 O 1309.1 1.83 0.160193 0
M  V30 14096 C 1309.16 1.4892 -3.27205 0
M  V30 14097 C 1308.83 0.669874 -4.52064 0
M  V30 14098 C 1309.82 -0.0410157 -5.19884 0
M  V30 14099 C 1307.51 0.616824 -4.98498 0
M  V30 14100 C 1309.5 -0.793976 -6.32436 0
M  V30 14101 C 1307.19 -0.139864 -6.1094 0
M  V30 14102 C 1308.19 -0.844001 -6.77765 0
M  V30 14103 O 1307.87 -1.58835 -7.88052 0
M  V30 14104 H 1307.61 0.199843 -0.645785 0
M  V30 14105 H 1310.16 -0.0429034 -2.05355 0
M  V30 14106 H 1308.39 2.27544 -3.12667 0
M  V30 14107 H 1310.08 2.06983 -3.4916 0
M  V30 14108 H 1310.85 -0.00916281 -4.84999 0
M  V30 14109 H 1306.72 1.15442 -4.46312 0
M  V30 14110 H 1310.27 -1.34411 -6.84529 0
M  V30 14111 H 1306.17 -0.173549 -6.45267 0
M  V30 14112 H 1306.93 -1.50471 -8.0455 0
M  V30 14113 N 1309.6 1.55164 0.276031 0
M  V30 14114 C 1310.84 1.7528 1.00604 0
M  V30 14115 C 1311.17 0.555256 1.86928 0
M  V30 14116 O 1310.44 -0.429917 1.91124 0
M  V30 14117 H 1309.02 0.646377 0.374441 0
M  V30 14118 H 1311.68 1.92562 0.300992 0
M  V30 14119 H 1310.77 2.65245 1.64473 0
M  V30 14120 N 1311.07 -0.540404 1.48045 0
M  V30 14121 C 1312.04 -1.62813 1.61322 0
M  V30 14122 C 1313.04 -1.53243 0.487161 0
M  V30 14123 O 1314.23 -1.571 0.752684 0
M  V30 14124 C 1311.36 -3.02408 1.5736 0
M  V30 14125 H 1312.55 -1.52385 2.583 0
M  V30 14126 H 1310.11 -0.761654 1.36486 0
M  V30 14127 H 1310.84 -3.18353 0.618195 0
M  V30 14128 H 1310.63 -3.10763 2.39099 0
M  V30 14129 H 1312.12 -3.8151 1.69822 0
M  V30 14130 N 1312.55 -1.36459 -0.788468 0
M  V30 14131 C 1313.78 -1.33898 -1.57731 0
M  V30 14132 C 1314.2 0.0795471 -1.88632 0
M  V30 14133 O 1313.55 1.03671 -1.50195 0
M  V30 14134 C 1313.6 -2.16134 -2.89773 0
M  V30 14135 O 1313.32 -3.52457 -2.60203 0
M  V30 14136 C 1314.83 -2.21364 -3.84074 0
M  V30 14137 H 1312.05 -0.459269 -0.489197 0
M  V30 14138 H 1314.59 -1.79569 -0.978526 0
M  V30 14139 H 1312.74 -1.74015 -3.46118 0
M  V30 14140 H 1313.16 -3.95378 -3.4464 0
M  V30 14141 H 1314.63 -2.83261 -4.7378 0
M  V30 14142 H 1315.11 -1.21736 -4.21992 0
M  V30 14143 H 1315.72 -2.63723 -3.33662 0
M  V30 14144 N 1314.03 1.01274 -1.20754 0
M  V30 14145 C 1314.96 2.09567 -0.903157 0
M  V30 14146 C 1315.94 1.61941 0.146287 0
M  V30 14147 O 1317.13 1.8849 0.0190177 0
M  V30 14148 C 1314.25 3.36838 -0.354682 0
M  V30 14149 C 1313.3 4.03361 -1.38572 0
M  V30 14150 S 1314.13 4.46775 -2.95216 0
M  V30 14151 C 1315.29 5.77242 -2.41955 0
M  V30 14152 H 1315.52 2.35063 -1.82024 0
M  V30 14153 H 1313.05 1.14444 -1.03643 0
M  V30 14154 H 1315.01 4.10476 -0.0447882 0
M  V30 14155 H 1313.67 3.09407 0.540962 0
M  V30 14156 H 1312.87 4.94939 -0.951408 0
M  V30 14157 H 1312.47 3.35964 -1.64329 0
M  V30 14158 H 1314.76 6.52608 -1.81958 0
M  V30 14159 H 1315.7 6.25475 -3.31944 0
M  V30 14160 H 1316.11 5.3369 -1.83942 0
M  V30 14161 N 1315.51 1.01404 1.20644 0
M  V30 14162 C 1316.46 0.575388 2.25371 0
M  V30 14163 C 1317.45 -0.384598 1.64976 0
M  V30 14164 O 1318.66 -0.2548 1.78187 0
M  V30 14165 H 1315.03 0.167752 0.733051 0
M  V30 14166 H 1317 1.46964 2.597 0
M  V30 14167 C 1315.75 -0.0731257 3.47623 0
M  V30 14168 H 1315.08 0.656551 3.94372 0
M  V30 14169 H 1316.52 -0.343203 4.22609 0
M  V30 14170 C 1314.97 -1.31515 3.1017 0
M  V30 14171 O 1315.5 -2.40869 3.21473 0
M  V30 14172 N 1313.71 -1.19829 2.64744 0
M  V30 14173 H 1313.26 -0.308463 2.55746 0
M  V30 14174 H 1313.22 -2.0303 2.40054 0
M  V30 14175 N 1316.99 -1.36373 0.789944 0
M  V30 14176 C 1318.23 -1.99523 0.363119 0
M  V30 14177 C 1318.57 -1.6255 -1.0626 0
M  V30 14178 O 1317.84 -0.880551 -1.73426 0
M  V30 14179 C 1318.12 -3.56215 0.527526 0
M  V30 14180 C 1317.98 -4.0304 1.99697 0
M  V30 14181 C 1319.3 -4.40063 -0.0571079 0
M  V30 14182 H 1316.42 -0.724824 0.133412 0
M  V30 14183 H 1319.06 -1.61778 0.996381 0
M  V30 14184 H 1317.21 -3.88498 -0.0115636 0
M  V30 14185 H 1318.88 -3.81241 2.59717 0
M  V30 14186 H 1317.12 -3.54561 2.49939 0
M  V30 14187 H 1317.79 -5.12001 2.06297 0
M  V30 14188 H 1320.27 -4.14143 0.403082 0
M  V30 14189 H 1319.15 -5.4883 0.0879494 0
M  V30 14190 H 1319.41 -4.26901 -1.14926 0
M  V30 14191 N 1318.47 -0.542005 -1.47987 0
M  V30 14192 C 1319.71 -0.0122873 -2.02096 0
M  V30 14193 C 1320.03 1.3362 -1.42024 0
M  V30 14194 O 1319.3 1.86807 -0.589911 0
M  V30 14195 H 1317.88 -0.00155365 -0.746998 0
M  V30 14196 H 1320.55 -0.708566 -1.81564 0
M  V30 14197 H 1319.64 0.0871275 -3.11978 0
M  V30 14198 N 1319.94 1.55134 -0.277709 0
M  V30 14199 C 1321.17 2.04519 0.344472 0
M  V30 14200 C 1321.59 1.15466 1.4849 0
M  V30 14201 O 1320.95 0.153798 1.80646 0
M  V30 14202 C 1321 3.51602 0.800527 0
M  V30 14203 O 1320.1 3.65632 1.90754 0
M  V30 14204 H 1319.44 0.660212 0.0708226 0
M  V30 14205 H 1321.97 2.00393 -0.412764 0
M  V30 14206 H 1321.98 3.93015 1.09559 0
M  V30 14207 H 1320.66 4.15886 -0.033838 0
M  V30 14208 H 1319.24 3.36122 1.61481 0
M  V30 14209 N 1321.42 0.00503138 1.57599 0
M  V30 14210 C 1322.7 -0.716079 1.82021 0
M  V30 14211 C 1323.08 -1.91707 0.883829 0
M  V30 14212 O 1322.43 -2.28404 -0.0662812 0
M  V30 14213 C 1322.64 -1.11706 3.3064 0
M  V30 14214 C 1323.98 -1.51881 3.96506 0
M  V30 14215 O 1325.01 -1.21071 3.34993 0
M  V30 14216 O 1323.87 -2.09191 5.04877 0
M  V30 14217 H 1320.96 -0.349112 0.7497 0
M  V30 14218 H 1323.51 0.030871 1.69672 0
M  V30 14219 H 1322.28 -0.261223 3.90427 0
M  V30 14220 H 1321.9 -1.92295 3.48006 0
M  V30 14221 N 1322.9 -1.55308 -0.267798 0
M  V30 14222 C 1324.15 -1.7642 -1.00019 0
M  V30 14223 C 1324.48 -0.566559 -1.85752 0
M  V30 14224 O 1323.75 0.435752 -1.89556 0
M  V30 14225 C 1324.04 -3.07229 -1.87836 0
M  V30 14226 C 1323.89 -4.37358 -1.05061 0
M  V30 14227 C 1325.21 -3.34113 -2.86455 0
M  V30 14228 H 1322.33 -0.641859 -0.362197 0
M  V30 14229 H 1324.97 -1.8804 -0.272188 0
M  V30 14230 H 1323.12 -2.97454 -2.49907 0
M  V30 14231 H 1324.79 -4.59098 -0.450208 0
M  V30 14232 H 1323.03 -4.32351 -0.354242 0
M  V30 14233 H 1323.71 -5.25223 -1.69838 0
M  V30 14234 H 1326.18 -3.43715 -2.34519 0
M  V30 14235 H 1325.06 -4.26896 -3.45038 0
M  V30 14236 H 1325.32 -2.54005 -3.61848 0
M  V30 14237 N 1324.38 0.532545 -1.4833 0
M  V30 14238 C 1325.63 1.28498 -1.55471 0
M  V30 14239 C 1325.94 1.94214 -0.232412 0
M  V30 14240 O 1327.15 2.70889 -0.182044 0
M  V30 14241 C 1325.6 2.33144 -2.74175 0
M  V30 14242 C 1325.21 1.73508 -4.13036 0
M  V30 14243 C 1326.95 3.09413 -2.90627 0
M  V30 14244 C 1324.86 2.76079 -5.23005 0
M  V30 14245 H 1323.79 0.483253 -0.578777 0
M  V30 14246 H 1326.44 0.562744 -1.74658 0
M  V30 14247 H 1324.82 3.08391 -2.48417 0
M  V30 14248 H 1326 1.04466 -4.48802 0
M  V30 14249 H 1324.31 1.0974 -4.01679 0
M  V30 14250 H 1326.91 3.86056 -3.69953 0
M  V30 14251 H 1327.25 3.65118 -1.99987 0
M  V30 14252 H 1327.79 2.4128 -3.16274 0
M  V30 14253 H 1324.52 2.25197 -6.15602 0
M  V30 14254 H 1324.04 3.43456 -4.9173 0
M  V30 14255 H 1325.72 3.39113 -5.51009 0
M  V30 14256 N 1325.86 1.36875 0.78122 0
M  V30 14257 C 1327.1 1.31559 1.53943 0
M  V30 14258 C 1327.43 -0.10273 1.94229 0
M  V30 14259 O 1326.69 -1.07386 1.63605 0
M  V30 14260 C 1326.98 2.19173 2.82309 0
M  V30 14261 C 1326.65 3.67595 2.61121 0
M  V30 14262 C 1325.31 4.08047 2.55051 0
M  V30 14263 C 1327.66 4.61665 2.41898 0
M  V30 14264 C 1324.99 5.40697 2.27736 0
M  V30 14265 C 1327.34 5.94542 2.16108 0
M  V30 14266 C 1326.01 6.34109 2.08476 0
M  V30 14267 H 1325.28 0.48141 0.563317 0
M  V30 14268 H 1327.93 1.68999 0.900638 0
M  V30 14269 H 1326.23 1.74696 3.50697 0
M  V30 14270 H 1327.93 2.12379 3.40141 0
M  V30 14271 H 1324.52 3.35509 2.66705 0
M  V30 14272 H 1328.7 4.3128 2.45584 0
M  V30 14273 H 1323.96 5.70325 2.20315 0
M  V30 14274 H 1328.13 6.66994 2.0023 0
M  V30 14275 H 1325.76 7.36823 1.87073 0
M  V30 14276 N 1327.33 -1.00632 1.21289 0
M  V30 14277 C 1328.28 -2.11502 0.96798 0
M  V30 14278 C 1329.28 -1.6919 -0.0843024 0
M  V30 14279 O 1330.48 -1.79875 0.06697 0
M  V30 14280 H 1326.86 -0.691398 0.295759 0
M  V30 14281 H 1328.83 -2.29337 1.90911 0
M  V30 14282 C 1327.58 -3.43357 0.547818 0
M  V30 14283 H 1326.9 -3.76348 1.34915 0
M  V30 14284 H 1328.34 -4.21957 0.415759 0
M  V30 14285 C 1326.8 -3.28648 -0.741086 0
M  V30 14286 O 1327.33 -3.59267 -1.79695 0
M  V30 14287 N 1325.53 -2.81866 -0.707084 0
M  V30 14288 H 1325.08 -2.57149 0.152447 0
M  V30 14289 H 1325.04 -2.72406 -1.56979 0
M  V30 14290 N 1328.81 -1.02043 -1.20104 0
M  V30 14291 C 1330.09 -0.626922 -1.85281 0
M  V30 14292 C 1330.47 0.894819 -1.91197 0
M  V30 14293 O 1329.82 1.7881 -1.42265 0
M  V30 14294 C 1330.03 -1.27917 -3.24713 0
M  V30 14295 C 1331.37 -1.39704 -4.00959 0
M  V30 14296 O 1332.4 -1.23568 -3.3408 0
M  V30 14297 O 1331.26 -1.65814 -5.20738 0
M  V30 14298 H 1328.35 -0.216815 -0.798073 0
M  V30 14299 H 1330.9 -1.11804 -1.27663 0
M  V30 14300 H 1329.67 -2.3188 -3.15194 0
M  V30 14301 H 1329.29 -0.775371 -3.89966 0
M  V30 14302 N 1330.29 1.35952 -0.797165 0
M  V30 14303 C 1331.54 1.98283 -0.369685 0
M  V30 14304 C 1331.85 1.63968 1.06649 0
M  V30 14305 O 1333.06 2.19591 1.59662 0
M  V30 14306 C 1331.51 3.54692 -0.610046 0
M  V30 14307 C 1331.12 3.97925 -2.05814 0
M  V30 14308 C 1332.87 4.23778 -0.247457 0
M  V30 14309 C 1330.77 5.47142 -2.24475 0
M  V30 14310 H 1329.7 0.741909 -0.134489 0
M  V30 14311 H 1332.35 1.55146 -0.979893 0
M  V30 14312 H 1330.74 3.95938 0.0699822 0
M  V30 14313 H 1331.91 3.67857 -2.77521 0
M  V30 14314 H 1330.23 3.417 -2.37971 0
M  V30 14315 H 1332.82 5.33452 -0.365059 0
M  V30 14316 H 1333.17 4.08436 0.805315 0
M  V30 14317 H 1333.7 3.87921 -0.881028 0
M  V30 14318 H 1330.44 5.67441 -3.28163 0
M  V30 14319 H 1329.96 5.78811 -1.57282 0
M  V30 14320 H 1331.64 6.13475 -2.05567 0
M  V30 14321 N 1331.77 0.549846 1.47697 0
M  V30 14322 C 1333.02 0.0230048 2.02087 0
M  V30 14323 C 1333.34 -1.32865 1.4273 0
M  V30 14324 O 1332.61 -1.86492 0.59981 0
M  V30 14325 H 1331.19 0.00551514 0.74698 0
M  V30 14326 H 1333.85 0.718185 1.81185 0
M  V30 14327 H 1332.95 -0.0705813 3.1202 0
M  V30 14328 N 1333.25 -1.54984 0.285932 0
M  V30 14329 C 1334.19 -2.24385 -0.612703 0
M  V30 14330 C 1335.19 -1.24459 -1.14918 0
M  V30 14331 O 1336.39 -1.42357 -1.10156 0
M  V30 14332 H 1332.77 -0.720263 -0.21616 0
M  V30 14333 H 1334.74 -2.984 -0.00465668 0
M  V30 14334 C 1333.49 -2.98661 -1.78037 0
M  V30 14335 H 1332.81 -3.75347 -1.37676 0
M  V30 14336 H 1334.25 -3.50525 -2.38554 0
M  V30 14337 C 1332.71 -2.04754 -2.67539 0
M  V30 14338 O 1333.24 -1.60577 -3.68209 0
M  V30 14339 N 1331.45 -1.71026 -2.34944 0
M  V30 14340 H 1330.99 -2.07148 -1.53126 0
M  V30 14341 H 1330.95 -1.08467 -2.95097 0
M  V30 14342 N 1334.72 -0.0133892 -1.57594 0
M  V30 14343 C 1335.97 0.667313 -1.90765 0
M  V30 14344 C 1336.29 1.73564 -0.888847 0
M  V30 14345 O 1335.56 1.95768 0.0718946 0
M  V30 14346 H 1334.14 0.24947 -0.704112 0
M  V30 14347 H 1336.81 -0.0574789 -1.94815 0
M  V30 14348 H 1335.9 1.13007 -2.90922 0
M  V30 14349 N 1336.2 1.55448 0.259558 0
M  V30 14350 C 1337.13 1.85678 1.34373 0
M  V30 14351 C 1338.15 0.742155 1.449 0
M  V30 14352 O 1339.34 1.02015 1.46476 0
M  V30 14353 C 1336.44 2.01668 2.72366 0
M  V30 14354 C 1335.61 3.32434 2.84265 0
M  V30 14355 C 1334.67 3.38322 4.03019 0
M  V30 14356 O 1333.69 4.11616 3.93143 0
M  V30 14357 N 1334.9 2.66697 5.1561 0
M  V30 14358 H 1337.66 2.79261 1.08781 0
M  V30 14359 H 1335.22 1.5553 0.449672 0
M  V30 14360 H 1337.21 2.02963 3.50126 0
M  V30 14361 H 1335.78 1.14889 2.90722 0
M  V30 14362 H 1335 3.43564 1.93281 0
M  V30 14363 H 1336.29 4.18649 2.89155 0
M  V30 14364 H 1335.69 2.06857 5.26523 0
M  V30 14365 H 1334.25 2.73699 5.91551 0
M  V30 14366 N 1337.68 -0.524672 1.4861 0
M  V30 14367 C 1338.93 -1.28021 1.56898 0
M  V30 14368 C 1339.26 -1.92948 0.245203 0
M  V30 14369 O 1338.51 -1.8013 -0.764966 0
M  V30 14370 C 1338.81 -2.3871 2.65993 0
M  V30 14371 C 1338.48 -1.914 4.08261 0
M  V30 14372 C 1337.14 -1.78215 4.46982 0
M  V30 14373 C 1339.49 -1.55713 4.97396 0
M  V30 14374 C 1336.82 -1.27687 5.72637 0
M  V30 14375 C 1339.17 -1.06645 6.23546 0
M  V30 14376 C 1337.83 -0.920818 6.61118 0
M  V30 14377 H 1337.1 -0.468461 0.57413 0
M  V30 14378 H 1339.75 -0.584901 1.82349 0
M  V30 14379 H 1338.06 -3.13932 2.34422 0
M  V30 14380 H 1339.75 -2.96827 2.6962 0
M  V30 14381 H 1336.34 -2.02614 3.77684 0
M  V30 14382 H 1340.53 -1.64757 4.68155 0
M  V30 14383 H 1335.78 -1.15103 6.00468 0
M  V30 14384 H 1339.96 -0.781048 6.92006 0
M  V30 14385 H 1337.58 -0.527091 7.5837 0
M  V30 14386 N 1339.16 -1.37287 -0.77395 0
M  V30 14387 C 1340.11 -1.32872 -1.88716 0
M  V30 14388 C 1341.08 -0.194655 -1.64955 0
M  V30 14389 O 1342.26 -0.383662 -1.86903 0
M  V30 14390 C 1339.4 -1.13934 -3.2575 0
M  V30 14391 C 1338.51 -2.36552 -3.61479 0
M  V30 14392 C 1337.65 -2.10504 -4.87711 0
M  V30 14393 C 1336.69 -3.28999 -5.16165 0
M  V30 14394 N 1335.82 -3.02517 -6.33584 0
M  V30 14395 H 1340.66 -2.28051 -1.91825 0
M  V30 14396 H 1338.2 -1.13325 -0.93786 0
M  V30 14397 H 1340.16 -1.00976 -4.04796 0
M  V30 14398 H 1338.79 -0.22404 -3.22022 0
M  V30 14399 H 1337.84 -2.60257 -2.77435 0
M  V30 14400 H 1339.15 -3.24931 -3.78446 0
M  V30 14401 H 1338.31 -1.94564 -5.74656 0
M  V30 14402 H 1337.05 -1.19459 -4.72843 0
M  V30 14403 H 1336.05 -3.4548 -4.27696 0
M  V30 14404 H 1337.28 -4.20892 -5.32942 0
M  V30 14405 H 1335.22 -2.14099 -6.20079 0
M  V30 14406 H 1335.14 -3.84439 -6.50955 0
M  V30 14407 H 1336.41 -2.9019 -7.23471 0
M  V30 14408 N 1340.64 0.999871 -1.21821 0
M  V30 14409 C 1341.57 2.10708 -1.00621 0
M  V30 14410 C 1342.55 1.69954 0.0705417 0
M  V30 14411 O 1343.73 1.9399 -0.0903042 0
M  V30 14412 C 1340.86 3.42496 -0.575646 0
M  V30 14413 C 1339.82 3.97068 -1.59754 0
M  V30 14414 C 1339.14 5.24822 -1.02304 0
M  V30 14415 C 1340.44 4.28545 -2.98574 0
M  V30 14416 H 1342.14 2.28701 -1.93226 0
M  V30 14417 H 1339.68 1.09903 -0.930443 0
M  V30 14418 H 1341.64 4.19357 -0.414481 0
M  V30 14419 H 1340.36 3.2431 0.386059 0
M  V30 14420 H 1339.02 3.22332 -1.74636 0
M  V30 14421 H 1338.67 5.02972 -0.0529016 0
M  V30 14422 H 1338.37 5.62299 -1.70567 0
M  V30 14423 H 1339.89 6.04322 -0.873312 0
M  V30 14424 H 1341.3 4.96229 -2.87106 0
M  V30 14425 H 1339.7 4.77178 -3.63897 0
M  V30 14426 H 1340.77 3.36607 -3.49032 0
M  V30 14427 N 1342.11 1.02678 1.19562 0
M  V30 14428 C 1343.06 0.599259 2.24748 0
M  V30 14429 C 1344.06 -0.367079 1.65375 0
M  V30 14430 O 1345.26 -0.235887 1.78448 0
M  V30 14431 H 1341.64 0.175517 0.73123 0
M  V30 14432 H 1343.61 1.4971 2.58127 0
M  V30 14433 C 1342.36 -0.0362515 3.47681 0
M  V30 14434 H 1341.68 0.698343 3.93654 0
M  V30 14435 H 1343.12 -0.298361 4.22949 0
M  V30 14436 C 1341.58 -1.28218 3.11547 0
M  V30 14437 O 1342.11 -2.37446 3.24009 0
M  V30 14438 N 1340.32 -1.17014 2.66 0
M  V30 14439 H 1339.86 -0.28132 2.56059 0
M  V30 14440 H 1339.82 -2.00473 2.42194 0
M  V30 14441 N 1343.59 -1.35528 0.804364 0
M  V30 14442 C 1344.54 -2.31728 0.20125 0
M  V30 14443 C 1345.53 -1.56527 -0.647751 0
M  V30 14444 O 1346.74 -1.71672 -0.541163 0
M  V30 14445 H 1343.12 -0.750572 0.0463165 0
M  V30 14446 H 1345.09 -2.80142 1.02777 0
M  V30 14447 C 1343.84 -3.41807 -0.637429 0
M  V30 14448 H 1343.16 -3.99799 0.00651699 0
M  V30 14449 H 1344.6 -4.11403 -1.02585 0
M  V30 14450 C 1343.06 -2.84655 -1.80202 0
M  V30 14451 O 1343.59 -2.78026 -2.89939 0
M  V30 14452 N 1341.79 -2.41735 -1.61285 0
M  V30 14453 H 1341.34 -2.47327 -0.720231 0
M  V30 14454 H 1341.3 -2.03844 -2.39364 0
M  V30 14455 N 1345.07 -0.557671 -1.47404 0
M  V30 14456 C 1346.3 -0.0366797 -2.07368 0
M  V30 14457 C 1346.72 1.2478 -1.40754 0
M  V30 14458 O 1346.08 1.74757 -0.48268 0
M  V30 14459 C 1346.13 0.141728 -3.60321 0
M  V30 14460 O 1345.23 1.20419 -3.94427 0
M  V30 14461 H 1344.57 -0.0515319 -0.661997 0
M  V30 14462 H 1347.1 -0.773485 -1.89416 0
M  V30 14463 H 1347.11 0.355787 -4.06446 0
M  V30 14464 H 1345.79 -0.796433 -4.08203 0
M  V30 14465 H 1344.36 0.970589 -3.60047 0
M  V30 14466 N 1346.55 1.54831 -0.294147 0
M  V30 14467 C 1347.46 2.26939 0.594621 0
M  V30 14468 C 1348.48 1.30209 1.15419 0
M  V30 14469 O 1349.65 1.6318 1.18044 0
M  V30 14470 C 1346.72 2.9909 1.75345 0
M  V30 14471 C 1345.78 4.11342 1.22865 0
M  V30 14472 C 1345.01 4.80043 2.33225 0
M  V30 14473 O 1345.23 4.48062 3.52983 0
M  V30 14474 O 1344.17 5.67593 2.00304 0
M  V30 14475 H 1347.99 3.03698 0.00989235 0
M  V30 14476 H 1345.58 1.49276 -0.0608528 0
M  V30 14477 H 1347.46 3.44369 2.42875 0
M  V30 14478 H 1346.14 2.25232 2.32492 0
M  V30 14479 H 1345.04 3.70478 0.519279 0
M  V30 14480 H 1346.38 4.87158 0.702703 0
M  V30 14481 N 1348.03 0.0217466 1.57585 0
M  V30 14482 C 1348.98 -0.980624 2.10918 0
M  V30 14483 C 1349.97 -1.34178 1.03406 0
M  V30 14484 O 1351.18 -1.32487 1.21849 0
M  V30 14485 H 1347.55 -0.333984 0.673764 0
M  V30 14486 H 1349.52 -0.505431 2.94088 0
M  V30 14487 C 1348.27 -2.25639 2.64542 0
M  V30 14488 H 1347.59 -1.98722 3.46914 0
M  V30 14489 H 1349.03 -2.94003 3.05513 0
M  V30 14490 C 1347.49 -2.98111 1.56945 0
M  V30 14491 O 1348.02 -3.89937 0.964975 0
M  V30 14492 N 1346.23 -2.60316 1.29166 0
M  V30 14493 H 1345.78 -1.85722 1.78508 0
M  V30 14494 H 1345.73 -3.09116 0.573987 0
M  V30 14495 N 1349.51 -1.55583 -0.251311 0
M  V30 14496 C 1350.73 -1.81597 -1.00186 0
M  V30 14497 C 1351.16 -0.598216 -1.78334 0
M  V30 14498 O 1350.51 0.452667 -1.75558 0
M  V30 14499 C 1350.56 -3.05301 -1.91895 0
M  V30 14500 O 1349.67 -2.81907 -3.01002 0
M  V30 14501 H 1349.01 -0.599578 -0.285311 0
M  V30 14502 H 1351.54 -2.02762 -0.273638 0
M  V30 14503 H 1351.55 -3.34616 -2.33444 0
M  V30 14504 H 1350.22 -3.93574 -1.34433 0
M  V30 14505 H 1348.8 -2.63747 -2.63613 0
M  V30 14506 N 1350.98 0.516783 -1.48886 0
M  V30 14507 C 1351.93 1.64093 -1.64853 0
M  V30 14508 C 1352.93 1.61392 -0.514685 0
M  V30 14509 O 1354.13 1.6609 -0.693831 0
M  V30 14510 H 1350.51 0.543672 -0.519543 0
M  V30 14511 H 1352.48 1.47774 -2.5924 0
M  V30 14512 C 1351.23 3.02308 -1.71771 0
M  V30 14513 H 1350.55 3.05085 -2.58385 0
M  V30 14514 H 1351.99 3.80544 -1.86982 0
M  V30 14515 C 1350.45 3.33757 -0.459136 0
M  V30 14516 O 1350.98 3.99475 0.422177 0
M  V30 14517 N 1349.18 2.88756 -0.326837 0
M  V30 14518 H 1348.73 2.35452 -1.045 0
M  V30 14519 H 1348.69 3.10166 0.514213 0
M  V30 14520 N 1352.46 1.37696 0.766659 0
M  V30 14521 C 1353.71 1.32507 1.52069 0
M  V30 14522 C 1354.02 -0.0864967 1.95409 0
M  V30 14523 O 1355.23 -0.260877 2.70244 0
M  V30 14524 C 1353.69 2.32614 2.74625 0
M  V30 14525 C 1353.29 3.79325 2.38363 0
M  V30 14526 C 1355.04 2.36445 3.52554 0
M  V30 14527 C 1352.94 4.7115 3.57451 0
M  V30 14528 H 1351.87 0.492491 0.570937 0
M  V30 14529 H 1354.53 1.63183 0.839268 0
M  V30 14530 H 1352.91 1.94963 3.44682 0
M  V30 14531 H 1354.08 4.25841 1.76056 0
M  V30 14532 H 1352.4 3.78488 1.73597 0
M  V30 14533 H 1354.99 3.02252 4.41076 0
M  V30 14534 H 1355.34 1.37953 3.92778 0
M  V30 14535 H 1355.87 2.72829 2.89498 0
M  V30 14536 H 1352.61 5.70789 3.22304 0
M  V30 14537 H 1352.13 4.29335 4.18846 0
M  V30 14538 H 1353.81 4.88532 4.242 0
M  V30 14539 N 1353.94 -0.993397 1.22349 0
M  V30 14540 C 1355.17 -1.76838 1.07406 0
M  V30 14541 C 1355.58 -1.8503 -0.37542 0
M  V30 14542 O 1354.94 -1.32008 -1.26016 0
M  V30 14543 C 1354.99 -3.20177 1.67837 0
M  V30 14544 O 1354.71 -3.12429 3.07115 0
M  V30 14545 C 1356.21 -4.14125 1.58161 0
M  V30 14546 H 1353.43 -0.555379 0.376557 0
M  V30 14547 H 1355.98 -1.24893 1.61932 0
M  V30 14548 H 1354.13 -3.69191 1.17375 0
M  V30 14549 H 1354.55 -4.02568 3.36213 0
M  V30 14550 H 1356.02 -5.12455 2.05169 0
M  V30 14551 H 1356.5 -4.35892 0.538073 0
M  V30 14552 H 1357.1 -3.71008 2.07926 0
M  V30 14553 N 1355.42 -1.03311 -1.19015 0
M  V30 14554 C 1356.38 -0.622114 -2.20596 0
M  V30 14555 C 1357.38 0.316502 -1.57654 0
M  V30 14556 O 1358.57 0.102932 -1.73896 0
M  V30 14557 C 1355.7 0.0890432 -3.40784 0
M  V30 14558 H 1356.9 -1.52095 -2.58471 0
M  V30 14559 H 1354.45 -0.824777 -1.32767 0
M  V30 14560 H 1355.18 1.00203 -3.08431 0
M  V30 14561 H 1354.97 -0.58547 -3.87704 0
M  V30 14562 H 1356.46 0.363366 -4.16016 0
M  V30 14563 N 1356.9 1.35099 -0.81154 0
M  V30 14564 C 1357.85 2.27139 -0.197958 0
M  V30 14565 C 1358.83 1.48006 0.631116 0
M  V30 14566 O 1360.02 1.70152 0.487562 0
M  V30 14567 C 1357.15 3.37118 0.648577 0
M  V30 14568 C 1356.24 4.23672 -0.190498 0
M  V30 14569 N 1356.63 4.89959 -1.25594 0
M  V30 14570 C 1354.93 4.45992 0.0270572 0
M  V30 14571 C 1355.63 5.54161 -1.76862 0
M  V30 14572 N 1354.6 5.32879 -1.07428 0
M  V30 14573 H 1358.4 2.75886 -1.01311 0
M  V30 14574 H 1355.92 1.48685 -0.653195 0
M  V30 14575 H 1357.92 4.0201 1.10423 0
M  V30 14576 H 1356.58 2.89922 1.46202 0
M  V30 14577 H 1357.59 4.91293 -1.63864 0
M  V30 14578 H 1354.26 4.09582 0.809248 0
M  V30 14579 H 1355.65 6.17032 -2.65935 0
M  V30 14580 N 1358.37 0.56548 1.47106 0
M  V30 14581 C 1359.31 -0.215154 2.28188 0
M  V30 14582 C 1360.32 -0.871671 1.37498 0
M  V30 14583 O 1361.51 -0.744131 1.6225 0
M  V30 14584 C 1358.61 -1.32289 3.12014 0
M  V30 14585 C 1357.78 -0.761594 4.30719 0
M  V30 14586 C 1356.84 -1.75486 4.96076 0
M  V30 14587 O 1355.87 -1.29771 5.5421 0
M  V30 14588 N 1357.07 -3.0885 4.9152 0
M  V30 14589 H 1359.83 0.480405 2.95825 0
M  V30 14590 H 1357.39 0.402099 1.56827 0
M  V30 14591 H 1359.39 -1.98628 3.52603 0
M  V30 14592 H 1357.96 -1.92156 2.46566 0
M  V30 14593 H 1357.18 0.078794 3.94121 0
M  V30 14594 H 1358.46 -0.366072 5.07481 0
M  V30 14595 H 1357.86 -3.4863 4.45504 0
M  V30 14596 H 1356.42 -3.70725 5.36103 0
M  V30 14597 N 1359.85 -1.54672 0.302354 0
M  V30 14598 C 1361.08 -2.05041 -0.311891 0
M  V30 14599 C 1361.5 -1.17814 -1.46634 0
M  V30 14600 O 1360.86 -0.182517 -1.80379 0
M  V30 14601 C 1360.91 -3.52831 -0.744489 0
M  V30 14602 O 1360.01 -3.68621 -1.84913 0
M  V30 14603 H 1359.35 -0.661255 -0.0603102 0
M  V30 14604 H 1361.88 -1.99711 0.444593 0
M  V30 14605 H 1361.89 -3.94708 -1.03293 0
M  V30 14606 H 1360.57 -4.1578 0.0999976 0
M  V30 14607 H 1359.15 -3.38649 -1.56113 0
M  V30 14608 N 1361.33 -0.0301034 -1.57571 0
M  V30 14609 C 1362.28 0.951421 -2.10277 0
M  V30 14610 C 1363.25 1.3224 -1.00508 0
M  V30 14611 O 1364.43 1.41554 -1.27934 0
M  V30 14612 C 1361.57 2.2282 -2.63525 0
M  V30 14613 C 1360.69 1.91359 -3.87306 0
M  V30 14614 C 1359.82 3.13339 -4.28943 0
M  V30 14615 C 1358.86 2.77701 -5.4548 0
M  V30 14616 N 1358 3.9231 -5.82269 0
M  V30 14617 H 1362.84 0.495049 -2.93859 0
M  V30 14618 H 1360.37 0.232756 -1.45247 0
M  V30 14619 H 1362.33 2.97502 -2.92487 0
M  V30 14620 H 1360.96 2.66072 -1.82772 0
M  V30 14621 H 1360.01 1.06915 -3.65066 0
M  V30 14622 H 1361.33 1.61112 -4.72064 0
M  V30 14623 H 1360.48 3.9634 -4.59347 0
M  V30 14624 H 1359.22 3.46747 -3.42954 0
M  V30 14625 H 1358.22 1.93113 -5.14769 0
M  V30 14626 H 1359.45 2.45508 -6.33169 0
M  V30 14627 H 1357.39 4.25559 -4.99235 0
M  V30 14628 H 1357.31 3.65691 -6.61669 0
M  V30 14629 H 1358.58 4.76012 -6.17279 0
M  V30 14630 N 1362.81 1.55714 0.243056 0
M  V30 14631 C 1364.06 1.77726 0.970555 0
M  V30 14632 C 1364.38 0.595108 1.85172 0
M  V30 14633 O 1363.64 -0.42143 1.91108 0
M  V30 14634 C 1363.94 3.05281 1.85845 0
M  V30 14635 C 1363.6 4.36451 1.13232 0
M  V30 14636 C 1362.27 4.72095 0.931656 0
M  V30 14637 C 1364.62 5.17524 0.617944 0
M  V30 14638 C 1361.95 5.86344 0.204373 0
M  V30 14639 C 1364.3 6.32527 -0.0958899 0
M  V30 14640 C 1362.96 6.66789 -0.308 0
M  V30 14641 H 1362.23 0.650345 0.355151 0
M  V30 14642 H 1364.88 1.89986 0.240351 0
M  V30 14643 H 1363.18 2.8805 2.65584 0
M  V30 14644 H 1364.88 3.19511 2.4231 0
M  V30 14645 H 1361.47 4.08451 1.29867 0
M  V30 14646 H 1365.65 4.90439 0.760507 0
M  V30 14647 H 1360.91 6.11393 0.0296 0
M  V30 14648 H 1365.08 6.94588 -0.502077 0
M  V30 14649 H 1362.71 7.55165 -0.873502 0
M  V30 14650 N 1364.29 -0.50888 1.49158 0
M  V30 14651 C 1365.53 -1.26537 1.58481 0
M  V30 14652 C 1365.87 -1.92353 0.267168 0
M  V30 14653 O 1365.14 -1.80336 -0.728639 0
M  V30 14654 C 1365.42 -2.33846 2.73839 0
M  V30 14655 C 1365.28 -1.72582 4.15374 0
M  V30 14656 C 1366.6 -3.35467 2.84868 0
M  V30 14657 H 1363.71 -0.458697 0.576859 0
M  V30 14658 H 1366.36 -0.564728 1.81413 0
M  V30 14659 H 1364.51 -2.93605 2.54417 0
M  V30 14660 H 1366.18 -1.16711 4.46292 0
M  V30 14661 H 1364.42 -1.03025 4.21389 0
M  V30 14662 H 1365.09 -2.5038 4.91949 0
M  V30 14663 H 1367.57 -2.85689 3.02524 0
M  V30 14664 H 1366.44 -4.07922 3.67275 0
M  V30 14665 H 1366.71 -3.97313 1.93894 0
M  V30 14666 N 1365.76 -1.381 -0.759346 0
M  V30 14667 C 1367.01 -1.3419 -1.52055 0
M  V30 14668 C 1367.34 0.0697657 -1.94075 0
M  V30 14669 O 1366.62 1.02975 -1.65004 0
M  V30 14670 C 1366.9 -2.29236 -2.7771 0
M  V30 14671 C 1366.75 -3.79237 -2.41866 0
M  V30 14672 C 1368.07 -2.22511 -3.79706 0
M  V30 14673 H 1365.19 -0.488768 -0.551611 0
M  V30 14674 H 1367.83 -1.68902 -0.870174 0
M  V30 14675 H 1365.98 -1.99764 -3.33206 0
M  V30 14676 H 1367.66 -4.19358 -1.92189 0
M  V30 14677 H 1365.9 -3.97199 -1.74399 0
M  V30 14678 H 1366.57 -4.41193 -3.31742 0
M  V30 14679 H 1369.05 -2.48516 -3.33735 0
M  V30 14680 H 1367.92 -2.91134 -4.6533 0
M  V30 14681 H 1368.18 -1.22206 -4.24874 0
M  V30 14682 N 1367.24 0.986894 -1.22875 0
M  V30 14683 C 1368.47 1.7601 -1.08185 0
M  V30 14684 C 1368.88 1.85545 0.370088 0
M  V30 14685 O 1368.22 1.32915 1.26804 0
M  V30 14686 C 1368.29 3.20661 -1.62532 0
M  V30 14687 C 1367.95 3.34655 -3.11216 0
M  V30 14688 C 1368.95 3.21493 -4.08581 0
M  V30 14689 C 1366.63 3.59512 -3.50794 0
M  V30 14690 C 1368.63 3.32983 -5.43508 0
M  V30 14691 C 1366.31 3.70642 -4.85868 0
M  V30 14692 C 1367.31 3.57387 -5.82034 0
M  V30 14693 O 1367 3.68135 -7.14655 0
M  V30 14694 H 1366.73 0.559402 -0.379533 0
M  V30 14695 H 1369.28 1.24905 -1.63058 0
M  V30 14696 H 1367.51 3.72985 -1.02073 0
M  V30 14697 H 1369.2 3.7972 -1.43415 0
M  V30 14698 H 1369.97 3.02193 -3.79347 0
M  V30 14699 H 1365.85 3.68904 -2.76461 0
M  V30 14700 H 1369.39 3.22553 -6.18551 0
M  V30 14701 H 1365.29 3.89451 -5.1478 0
M  V30 14702 H 1366.06 3.84971 -7.22316 0
M  V30 14703 N 1368.72 1.0394 1.18466 0
M  V30 14704 C 1370 0.65632 1.8426 0
M  V30 14705 C 1370.38 -0.864288 1.92596 0
M  V30 14706 O 1369.73 -1.76524 1.45092 0
M  V30 14707 C 1369.94 1.33067 3.22636 0
M  V30 14708 C 1371.28 1.46065 3.98686 0
M  V30 14709 O 1372.31 1.28867 3.32072 0
M  V30 14710 O 1371.17 1.74078 5.18034 0
M  V30 14711 H 1368.26 0.229484 0.794523 0
M  V30 14712 H 1370.81 1.13821 1.25868 0
M  V30 14713 H 1369.58 2.36866 3.11465 0
M  V30 14714 H 1369.2 0.837313 3.88683 0
M  V30 14715 N 1370.2 -1.34667 0.818693 0
M  V30 14716 C 1371.42 -2.03173 0.416585 0
M  V30 14717 C 1371.85 -1.61261 -0.968321 0
M  V30 14718 O 1371.21 -0.79517 -1.62932 0
M  V30 14719 C 1371.25 -3.56803 0.521884 0
M  V30 14720 O 1370.36 -4.09827 -0.459953 0
M  V30 14721 H 1369.7 -0.6413 0.172136 0
M  V30 14722 H 1372.23 -1.72006 1.10794 0
M  V30 14723 H 1372.24 -4.06073 0.3961 0
M  V30 14724 H 1370.91 -3.86656 1.53198 0
M  V30 14725 H 1369.49 -3.71744 -0.293405 0
M  V30 14726 N 1371.68 -0.573274 -1.46804 0
M  V30 14727 C 1372.61 0.213527 -2.27199 0
M  V30 14728 C 1373.59 0.905598 -1.35047 0
M  V30 14729 O 1374.77 0.921377 -1.64447 0
M  V30 14730 C 1371.9 1.30556 -3.12527 0
M  V30 14731 C 1370.94 0.720331 -4.20373 0
M  V30 14732 S 1371.78 -0.445518 -5.33644 0
M  V30 14733 C 1372.93 0.64794 -6.22537 0
M  V30 14734 H 1373.17 -0.468642 -2.93583 0
M  V30 14735 H 1370.7 -0.359949 -1.50146 0
M  V30 14736 H 1372.66 1.93086 -3.62254 0
M  V30 14737 H 1371.32 1.95963 -2.45474 0
M  V30 14738 H 1370.51 1.54089 -4.79867 0
M  V30 14739 H 1370.11 0.170885 -3.73609 0
M  V30 14740 H 1372.41 1.53602 -6.59858 0
M  V30 14741 H 1373.35 0.0899764 -7.08043 0
M  V30 14742 H 1373.76 0.94784 -5.56486 0
M  V30 14743 N 1373.15 1.5451 -0.310553 0
M  V30 14744 C 1374.4 2.00326 0.295904 0
M  V30 14745 C 1374.73 1.19887 1.53158 0
M  V30 14746 O 1373.98 0.265615 1.93889 0
M  V30 14747 C 1374.28 3.5072 0.68779 0
M  V30 14748 C 1373.95 4.48677 -0.447229 0
M  V30 14749 C 1372.61 4.7518 -0.758796 0
M  V30 14750 C 1374.96 5.06953 -1.21028 0
M  V30 14751 C 1372.29 5.5722 -1.83637 0
M  V30 14752 C 1374.64 5.90167 -2.27784 0
M  V30 14753 C 1373.31 6.14977 -2.59537 0
M  V30 14754 H 1372.58 0.733046 0.108279 0
M  V30 14755 H 1375.22 1.86572 -0.431633 0
M  V30 14756 H 1373.53 3.62133 1.49556 0
M  V30 14757 H 1375.23 3.83602 1.16836 0
M  V30 14758 H 1371.82 4.28159 -0.1943 0
M  V30 14759 H 1376 4.86471 -0.98283 0
M  V30 14760 H 1371.26 5.74678 -2.08699 0
M  V30 14761 H 1375.43 6.34347 -2.87362 0
M  V30 14762 H 1373.06 6.78338 -3.43165 0
M  V30 14763 N 1374.63 0.0384594 1.57553 0
M  V30 14764 C 1375.91 -0.677308 1.83499 0
M  V30 14765 C 1376.29 -1.89789 0.924294 0
M  V30 14766 O 1375.64 -2.28493 -0.0178185 0
M  V30 14767 C 1375.85 -1.04667 3.32935 0
M  V30 14768 C 1377.2 -1.43436 3.99639 0
M  V30 14769 O 1378.22 -1.13938 3.37486 0
M  V30 14770 O 1377.08 -1.98435 5.09201 0
M  V30 14771 H 1374.17 -0.333131 0.756936 0
M  V30 14772 H 1376.72 0.066854 1.69568 0
M  V30 14773 H 1375.49 -0.178349 3.90893 0
M  V30 14774 H 1375.11 -1.8487 3.52007 0
M  V30 14775 N 1376.11 -1.55841 -0.234795 0
M  V30 14776 C 1377.06 -1.92165 -1.31055 0
M  V30 14777 C 1378.05 -0.802106 -1.49207 0
M  V30 14778 O 1379.26 -0.986832 -1.50538 0
M  V30 14779 H 1375.63 -0.610487 -0.439101 0
M  V30 14780 H 1377.61 -2.81955 -0.976926 0
M  V30 14781 C 1376.35 -2.24329 -2.65654 0
M  V30 14782 H 1375.68 -3.09982 -2.5249 0
M  V30 14783 H 1377.12 -2.53639 -3.3977 0
M  V30 14784 C 1375.58 -1.0638 -3.19664 0
M  V30 14785 O 1376.11 -0.318047 -4.00439 0
M  V30 14786 N 1374.31 -0.851167 -2.77855 0
M  V30 14787 H 1373.86 -1.45932 -2.12277 0
M  V30 14788 H 1373.82 -0.0636875 -3.14335 0
M  V30 14789 N 1377.59 0.500963 -1.49426 0
M  V30 14790 C 1378.84 1.25509 -1.58915 0
M  V30 14791 C 1379.16 1.92534 -0.275868 0
M  V30 14792 O 1378.42 1.81324 0.736212 0
M  V30 14793 C 1378.72 2.34448 -2.69757 0
M  V30 14794 C 1378.38 1.8488 -4.11254 0
M  V30 14795 C 1377.05 1.71081 -4.49761 0
M  V30 14796 C 1379.4 1.4778 -4.9981 0
M  V30 14797 C 1376.73 1.18561 -5.74596 0
M  V30 14798 C 1379.08 0.967118 -6.25164 0
M  V30 14799 C 1377.74 0.815523 -6.62499 0
M  V30 14800 H 1377.01 0.459268 -0.58151 0
M  V30 14801 H 1379.66 0.555817 -1.83256 0
M  V30 14802 H 1377.96 3.10163 -2.39387 0
M  V30 14803 H 1379.66 2.925 -2.74308 0
M  V30 14804 H 1376.25 1.9658 -3.8086 0
M  V30 14805 H 1380.44 1.57288 -4.70717 0
M  V30 14806 H 1375.69 1.05536 -6.02223 0
M  V30 14807 H 1379.87 0.670857 -6.93161 0
M  V30 14808 H 1377.49 0.406375 -7.59113 0
M  V30 14809 N 1379.07 1.38501 0.752011 0
M  V30 14810 C 1380.29 1.38212 1.54636 0
M  V30 14811 C 1380.72 -0.0256356 1.88083 0
M  V30 14812 O 1380.08 -1.00812 1.50687 0
M  V30 14813 C 1380.12 2.24597 2.82114 0
M  V30 14814 O 1379.23 1.66415 3.77332 0
M  V30 14815 H 1378.57 0.47138 0.46765 0
M  V30 14816 H 1381.1 1.82283 0.929205 0
M  V30 14817 H 1381.11 2.38511 3.31023 0
M  V30 14818 H 1379.78 3.26913 2.57101 0
M  V30 14819 H 1378.36 1.61651 3.36041 0
M  V30 14820 N 1380.55 -0.980364 1.23396 0
M  V30 14821 C 1381.79 -1.71592 1.06015 0
M  V30 14822 C 1382.11 -1.91401 -0.403103 0
M  V30 14823 O 1383.31 -2.62405 -0.696853 0
M  V30 14824 C 1381.77 -3.08795 1.84861 0
M  V30 14825 C 1381.38 -2.96873 3.35515 0
M  V30 14826 C 1383.12 -3.8631 1.75968 0
M  V30 14827 C 1381.03 -4.29308 4.06753 0
M  V30 14828 H 1379.96 -0.643423 0.393095 0
M  V30 14829 H 1382.61 -1.09345 1.47363 0
M  V30 14830 H 1380.99 -3.71797 1.36318 0
M  V30 14831 H 1382.17 -2.4296 3.91544 0
M  V30 14832 H 1380.48 -2.32833 3.45221 0
M  V30 14833 H 1383.08 -4.84355 2.26504 0
M  V30 14834 H 1383.42 -4.09983 0.722464 0
M  V30 14835 H 1383.95 -3.3001 2.22122 0
M  V30 14836 H 1380.69 -4.10831 5.10782 0
M  V30 14837 H 1380.21 -4.83086 3.55511 0
M  V30 14838 H 1381.89 -4.97995 4.1305 0
M  V30 14839 N 1382.02 -1.04567 -1.17913 0
M  V30 14840 C 1382.97 -0.634939 -2.23766 0
M  V30 14841 C 1383.97 0.340723 -1.65938 0
M  V30 14842 O 1385.17 0.207467 -1.788 0
M  V30 14843 H 1381.55 -0.187129 -0.728345 0
M  V30 14844 H 1383.52 -1.53798 -2.55712 0
M  V30 14845 C 1382.27 -0.0190662 -3.47695 0
M  V30 14846 H 1381.59 -0.760881 -3.92493 0
M  V30 14847 H 1383.03 0.231035 -4.2337 0
M  V30 14848 C 1381.49 1.23246 -3.13548 0
M  V30 14849 O 1382.02 2.32262 -3.27746 0
M  V30 14850 N 1380.22 1.12768 -2.67828 0
M  V30 14851 H 1379.77 0.240547 -2.56474 0
M  V30 14852 H 1379.73 1.96594 -2.45353 0
M  V30 14853 N 1383.5 1.34231 -0.825823 0
M  V30 14854 C 1384.75 1.98196 -0.415276 0
M  V30 14855 C 1385.08 1.65463 1.02236 0
M  V30 14856 O 1384.33 0.919868 1.72734 0
M  V30 14857 C 1384.63 3.52861 -0.56778 0
M  V30 14858 C 1384.3 4.05512 -1.97157 0
M  V30 14859 C 1382.96 4.19602 -2.35557 0
M  V30 14860 C 1385.31 4.33798 -2.88909 0
M  V30 14861 C 1382.64 4.59307 -3.6504 0
M  V30 14862 C 1384.99 4.74949 -4.17859 0
M  V30 14863 C 1383.65 4.87245 -4.56233 0
M  V30 14864 H 1382.92 0.725251 -0.15196 0
M  V30 14865 H 1385.57 1.60126 -1.05033 0
M  V30 14866 H 1383.88 3.9151 0.15065 0
M  V30 14867 H 1385.57 4.00336 -0.230608 0
M  V30 14868 H 1382.16 3.9501 -1.66328 0
M  V30 14869 H 1386.35 4.22448 -2.60483 0
M  V30 14870 H 1381.6 4.67017 -3.94594 0
M  V30 14871 H 1385.78 4.95795 -4.8904 0
M  V30 14872 H 1383.4 5.17768 -5.56615 0
M  V30 14873 N 1384.98 0.581051 1.46498 0
M  V30 14874 C 1386.23 0.07442 2.03264 0
M  V30 14875 C 1386.58 -1.27069 1.44469 0
M  V30 14876 O 1385.87 -1.8197 0.599785 0
M  V30 14877 C 1386.07 -0.0514774 3.57363 0
M  V30 14878 C 1385.9 1.27988 4.31102 0
M  V30 14879 C 1384.67 1.85358 4.70075 0
M  V30 14880 C 1386.86 2.20268 4.64743 0
M  V30 14881 N 1384.85 3.1225 5.28558 0
M  V30 14882 C 1386.22 3.31746 5.23779 0
M  V30 14883 C 1388.27 2.19969 4.46675 0
M  V30 14884 C 1386.98 4.43056 5.66652 0
M  V30 14885 C 1389 3.30307 4.90562 0
M  V30 14886 C 1388.36 4.40505 5.49667 0
M  V30 14887 H 1384.46 0.0699705 0.778863 0
M  V30 14888 H 1387.05 0.773585 1.78672 0
M  V30 14889 H 1385.22 -0.719807 3.81672 0
M  V30 14890 H 1386.95 -0.562342 4.00774 0
M  V30 14891 H 1383.7 1.3887 4.52782 0
M  V30 14892 H 1384.13 3.76992 5.62322 0
M  V30 14893 H 1388.77 1.36044 4.00315 0
M  V30 14894 H 1386.49 5.27724 6.11991 0
M  V30 14895 H 1390.07 3.31191 4.78334 0
M  V30 14896 H 1388.95 5.24475 5.83006 0
M  V30 14897 N 1386.46 -1.54343 0.318742 0
M  V30 14898 C 1387.7 -2.00777 -0.285699 0
M  V30 14899 C 1388.04 -1.20664 -1.52164 0
M  V30 14900 O 1387.31 -0.287674 -1.92361 0
M  V30 14901 C 1387.59 -3.54641 -0.624649 0
M  V30 14902 C 1387.45 -4.45483 0.621663 0
M  V30 14903 C 1388.77 -4.15729 -1.4442 0
M  V30 14904 H 1385.89 -0.729856 -0.102367 0
M  V30 14905 H 1388.53 -1.84968 0.434364 0
M  V30 14906 H 1386.68 -3.68243 -1.23811 0
M  V30 14907 H 1388.35 -4.43759 1.25998 0
M  V30 14908 H 1386.59 -4.15356 1.25148 0
M  V30 14909 H 1387.26 -5.50951 0.340106 0
M  V30 14910 H 1389.74 -4.05672 -0.925699 0
M  V30 14911 H 1388.62 -5.23509 -1.65013 0
M  V30 14912 H 1388.88 -3.68743 -2.43887 0
M  V30 14913 N 1387.94 -0.0468143 -1.5753 0
M  V30 14914 C 1389.35 0.309707 -1.56566 0
M  V30 14915 C 1389.55 1.7173 -1.05408 0
M  V30 14916 O 1388.61 2.4235 -0.708723 0
M  V30 14917 C 1389.92 0.142151 -3.00364 0
M  V30 14918 C 1391.47 0.213585 -3.1227 0
M  V30 14919 C 1391.94 0.0746102 -4.57939 0
M  V30 14920 N 1393.43 0.131027 -4.63015 0
M  V30 14921 C 1394.17 0.0475409 -5.7338 0
M  V30 14922 N 1393.67 -0.0880445 -6.92744 0
M  V30 14923 N 1395.46 0.102809 -5.62006 0
M  V30 14924 H 1387.61 -0.967057 -1.89108 0
M  V30 14925 H 1389.87 -0.375018 -0.870669 0
M  V30 14926 H 1389.58 -0.828171 -3.4181 0
M  V30 14927 H 1389.45 0.905006 -3.66182 0
M  V30 14928 H 1391.84 1.17438 -2.70726 0
M  V30 14929 H 1391.92 -0.57995 -2.49139 0
M  V30 14930 H 1391.56 -0.882839 -5.00168 0
M  V30 14931 H 1391.49 0.887235 -5.19072 0
M  V30 14932 H 1393.99 0.235246 -3.77167 0
M  V30 14933 H 1394.3 -0.144574 -7.72665 0
M  V30 14934 H 1392.64 -0.12307 -6.94891 0
M  V30 14935 H 1395.83 0.207259 -4.67641 0
M  V30 14936 H 1396.01 0.0342865 -6.47991 0
M  V30 14937 N 1389.41 1.55964 0.226527 0
M  V30 14938 C 1390.64 1.82823 0.968673 0
M  V30 14939 C 1391.06 0.625281 1.78145 0
M  V30 14940 O 1390.41 -0.40617 1.77923 0
M  V30 14941 C 1390.47 3.08143 1.89024 0
M  V30 14942 O 1390.19 4.23797 1.11032 0
M  V30 14943 C 1391.69 3.47954 2.74669 0
M  V30 14944 H 1388.91 0.607876 0.284126 0
M  V30 14945 H 1391.45 2.03048 0.243258 0
M  V30 14946 H 1389.61 2.89908 2.56967 0
M  V30 14947 H 1390.02 4.94957 1.73546 0
M  V30 14948 H 1391.49 4.38691 3.35044 0
M  V30 14949 H 1391.97 2.69476 3.46813 0
M  V30 14950 H 1392.58 3.6861 2.12147 0
M  V30 14951 N 1390.89 -0.493031 1.4969 0
M  V30 14952 C 1392.3 -1.0744 1.52688 0
M  V30 14953 C 1392.65 -1.93612 0.317652 0
M  V30 14954 O 1391.78 -2.0871 -0.571745 0
M  V30 14955 C 1392.37 -1.95523 2.76688 0
M  V30 14956 C 1390.93 -2.48808 2.82438 0
M  V30 14957 C 1390.08 -1.26617 2.46705 0
M  V30 14958 H 1393.03 -0.276589 1.56271 0
M  V30 14959 H 1393.05 -2.80315 2.57301 0
M  V30 14960 H 1392.56 -1.32779 3.6468 0
M  V30 14961 H 1390.67 -3.15168 1.98746 0
M  V30 14962 H 1390.78 -2.85416 3.84805 0
M  V30 14963 H 1389.14 -1.59396 1.98658 0
M  V30 14964 H 1389.93 -0.655695 3.3698 0
M  V30 14965 N 1392.37 -1.38898 -0.744656 0
M  V30 14966 C 1393.32 -1.36845 -1.85855 0
M  V30 14967 C 1394.29 -0.2296 -1.64505 0
M  V30 14968 O 1395.47 -0.423221 -1.86047 0
M  V30 14969 C 1392.61 -1.20818 -3.2326 0
M  V30 14970 C 1391.73 -2.44166 -3.5638 0
M  V30 14971 C 1390.86 -2.20801 -4.83136 0
M  V30 14972 C 1389.9 -3.39874 -5.0907 0
M  V30 14973 N 1389.04 -3.15888 -6.27024 0
M  V30 14974 H 1393.88 -2.32068 -1.86945 0
M  V30 14975 H 1391.41 -1.15289 -0.913611 0
M  V30 14976 H 1393.37 -1.0954 -4.02563 0
M  V30 14977 H 1392 -0.292295 -3.21474 0
M  V30 14978 H 1391.05 -2.66083 -2.71852 0
M  V30 14979 H 1392.37 -3.32885 -3.71469 0
M  V30 14980 H 1391.52 -2.0671 -5.704 0
M  V30 14981 H 1390.26 -1.29462 -4.70203 0
M  V30 14982 H 1389.26 -3.54474 -4.20271 0
M  V30 14983 H 1390.49 -4.32102 -5.23894 0
M  V30 14984 H 1388.43 -2.27204 -6.15398 0
M  V30 14985 H 1388.35 -3.9816 -6.42655 0
M  V30 14986 H 1389.62 -3.0547 -7.17153 0
M  V30 14987 N 1393.85 0.973806 -1.23914 0
M  V30 14988 C 1395.08 1.74853 -1.10046 0
M  V30 14989 C 1395.49 1.85927 0.350388 0
M  V30 14990 O 1394.83 1.34252 1.25388 0
M  V30 14991 C 1394.89 3.18919 -1.65924 0
M  V30 14992 C 1394.56 3.31335 -3.14748 0
M  V30 14993 C 1395.55 3.17141 -4.11968 0
M  V30 14994 C 1393.24 3.55772 -3.54587 0
M  V30 14995 C 1395.23 3.27199 -5.47009 0
M  V30 14996 C 1392.92 3.65468 -4.89771 0
M  V30 14997 C 1393.92 3.51193 -5.85792 0
M  V30 14998 O 1393.6 3.60534 -7.18519 0
M  V30 14999 H 1393.34 0.555345 -0.385445 0
M  V30 15000 H 1395.89 1.23168 -1.64374 0
M  V30 15001 H 1394.12 3.71882 -1.06023 0
M  V30 15002 H 1395.81 3.78177 -1.47434 0
M  V30 15003 H 1396.58 2.98153 -3.82531 0
M  V30 15004 H 1392.45 3.65951 -2.80358 0
M  V30 15005 H 1396 3.15974 -6.21937 0
M  V30 15006 H 1391.9 3.83969 -5.18882 0
M  V30 15007 H 1392.66 3.77288 -7.26358 0
M  V30 15008 N 1395.33 1.05191 1.17357 0
M  V30 15009 C 1396.27 0.646796 2.23426 0
M  V30 15010 C 1397.27 -0.331918 1.66116 0
M  V30 15011 O 1398.47 -0.197982 1.78908 0
M  V30 15012 H 1394.85 0.190988 0.727343 0
M  V30 15013 H 1396.82 1.55152 2.54893 0
M  V30 15014 C 1395.57 0.037505 3.4768 0
M  V30 15015 H 1394.89 0.781686 3.92084 0
M  V30 15016 H 1396.33 -0.20858 4.23487 0
M  V30 15017 C 1394.79 -1.21581 3.14197 0
M  V30 15018 O 1395.32 -2.3052 3.28973 0
M  V30 15019 N 1393.53 -1.11346 2.68422 0
M  V30 15020 H 1393.07 -0.226943 2.56598 0
M  V30 15021 H 1393.03 -1.95291 2.46392 0
M  V30 15022 N 1396.8 -1.33791 0.83293 0
M  V30 15023 C 1397.75 -2.31249 0.250357 0
M  V30 15024 C 1398.75 -1.57865 -0.614403 0
M  V30 15025 O 1399.95 -1.72782 -0.504627 0
M  V30 15026 H 1396.33 -0.749421 0.0622268 0
M  V30 15027 H 1398.3 -2.77899 1.08697 0
M  V30 15028 C 1397.05 -3.43082 -0.564783 0
M  V30 15029 H 1396.37 -3.99696 0.0913189 0
M  V30 15030 H 1397.81 -4.13486 -0.938351 0
M  V30 15031 C 1396.27 -2.88414 -1.74124 0
M  V30 15032 O 1396.8 -2.84113 -2.83976 0
M  V30 15033 N 1395.01 -2.45101 -1.56121 0
M  V30 15034 H 1394.55 -2.48799 -0.667607 0
M  V30 15035 H 1394.51 -2.08875 -2.34986 0
M  V30 15036 N 1398.28 -0.588812 -1.46187 0
M  V30 15037 C 1399.23 0.153638 -2.32092 0
M  V30 15038 C 1400.22 0.878346 -1.4485 0
M  V30 15039 O 1401.43 0.796042 -1.61441 0
M  V30 15040 H 1397.81 0.0684129 -0.748882 0
M  V30 15041 H 1399.78 -0.58961 -2.92517 0
M  V30 15042 C 1398.53 1.15003 -3.28131 0
M  V30 15043 H 1397.85 0.601804 -3.95245 0
M  V30 15044 H 1399.29 1.6398 -3.91007 0
M  V30 15045 C 1397.75 2.21411 -2.53926 0
M  V30 15046 O 1398.28 3.28862 -2.30679 0
M  V30 15047 N 1396.48 1.96184 -2.14383 0
M  V30 15048 H 1396.03 1.08812 -2.3349 0
M  V30 15049 H 1395.99 2.6759 -1.65055 0
M  V30 15050 N 1399.76 1.54172 -0.326923 0
M  V30 15051 C 1401.04 1.92812 0.329078 0
M  V30 15052 C 1401.42 1.25687 1.69605 0
M  V30 15053 O 1400.77 0.401779 2.2494 0
M  V30 15054 C 1400.98 3.46488 0.417949 0
M  V30 15055 C 1402.32 4.19174 0.67665 0
M  V30 15056 O 1403.35 3.52663 0.500735 0
M  V30 15057 O 1402.21 5.36968 1.01625 0
M  V30 15058 H 1399.3 0.805214 0.188573 0
M  V30 15059 H 1401.85 1.65462 -0.376884 0
M  V30 15060 H 1400.62 3.87528 -0.541986 0
M  V30 15061 H 1400.24 3.79954 1.17136 0
M  V30 15062 N 1401.24 0.0551678 1.57503 0
M  V30 15063 C 1402.49 -0.617201 1.92025 0
M  V30 15064 C 1402.8 -1.71767 0.93571 0
M  V30 15065 O 1404.01 -2.44847 1.17312 0
M  V30 15066 C 1402.46 -1.14915 3.41061 0
M  V30 15067 C 1402.07 -0.0805814 4.47928 0
M  V30 15068 C 1403.81 -1.79654 3.8461 0
M  V30 15069 C 1401.72 -0.625639 5.88081 0
M  V30 15070 H 1400.65 -0.23431 0.716669 0
M  V30 15071 H 1403.3 0.124706 1.83076 0
M  V30 15072 H 1401.68 -1.9435 3.45028 0
M  V30 15073 H 1402.86 0.693222 4.55556 0
M  V30 15074 H 1401.17 0.469581 4.13744 0
M  V30 15075 H 1403.77 -2.21436 4.86693 0
M  V30 15076 H 1404.11 -2.64987 3.21073 0
M  V30 15077 H 1404.65 -1.06868 3.83176 0
M  V30 15078 H 1401.39 0.190148 6.55224 0
M  V30 15079 H 1400.91 -1.36734 5.84007 0
M  V30 15080 H 1402.58 -1.10728 6.37454 0
M  V30 15081 N 1402.72 -1.56081 -0.218252 0
M  V30 15082 C 1403.65 -1.89176 -1.29403 0
M  V30 15083 C 1404.66 -0.780312 -1.42881 0
M  V30 15084 O 1405.85 -1.05863 -1.4372 0
M  V30 15085 C 1402.95 -2.08818 -2.66923 0
M  V30 15086 C 1402.12 -3.39854 -2.75351 0
M  V30 15087 C 1401.18 -3.48889 -3.93908 0
M  V30 15088 O 1400.21 -4.21894 -3.82091 0
M  V30 15089 N 1401.41 -2.80273 -5.08357 0
M  V30 15090 H 1404.18 -2.82047 -1.01338 0
M  V30 15091 H 1401.74 -1.56667 -0.408278 0
M  V30 15092 H 1403.73 -2.12175 -3.44622 0
M  V30 15093 H 1402.3 -1.22557 -2.87574 0
M  V30 15094 H 1401.52 -3.48568 -1.84104 0
M  V30 15095 H 1402.81 -4.26168 -2.77954 0
M  V30 15096 H 1402.2 -2.20744 -5.20854 0
M  V30 15097 H 1400.76 -2.89286 -5.84086 0
M  V30 15098 N 1404.2 0.485086 -1.49949 0
M  V30 15099 C 1405.42 1.26179 -1.63971 0
M  V30 15100 C 1405.84 1.86113 -0.317408 0
M  V30 15101 O 1405.2 1.68581 0.699038 0
M  V30 15102 C 1405.25 2.38062 -2.72046 0
M  V30 15103 O 1404.97 1.80588 -3.99149 0
M  V30 15104 C 1406.47 3.29174 -2.96916 0
M  V30 15105 H 1403.69 0.382122 -0.551565 0
M  V30 15106 H 1406.23 0.580607 -1.96085 0
M  V30 15107 H 1404.39 3.0198 -2.42666 0
M  V30 15108 H 1404.8 2.54159 -4.58807 0
M  V30 15109 H 1406.28 4.03922 -3.76233 0
M  V30 15110 H 1406.75 3.87123 -2.07443 0
M  V30 15111 H 1407.36 2.71006 -3.27774 0
M  V30 15112 N 1405.67 1.39291 0.737279 0
M  V30 15113 C 1406.9 1.39457 1.52431 0
M  V30 15114 C 1407.31 -0.0132866 1.89195 0
M  V30 15115 O 1406.65 -0.99443 1.54456 0
M  V30 15116 C 1406.72 2.20125 2.84227 0
M  V30 15117 C 1406.38 3.68778 2.6991 0
M  V30 15118 C 1407.38 4.6191 2.38611 0
M  V30 15119 C 1405.06 4.12336 2.86853 0
M  V30 15120 C 1407.06 5.96581 2.24432 0
M  V30 15121 C 1404.74 5.47083 2.72292 0
M  V30 15122 C 1405.74 6.3902 2.41127 0
M  V30 15123 O 1405.43 7.71287 2.26654 0
M  V30 15124 H 1405.16 0.478281 0.477727 0
M  V30 15125 H 1407.72 1.837 0.918891 0
M  V30 15126 H 1405.95 1.70627 3.47021 0
M  V30 15127 H 1407.63 2.12497 3.45832 0
M  V30 15128 H 1408.4 4.29559 2.25175 0
M  V30 15129 H 1404.28 3.41111 3.10103 0
M  V30 15130 H 1407.82 6.68307 2.00028 0
M  V30 15131 H 1403.72 5.79026 2.85306 0
M  V30 15132 H 1404.49 7.81987 2.41742 0
M  V30 15133 N 1407.15 -0.967221 1.24429 0
M  V30 15134 C 1408.08 -2.07966 1.06172 0
M  V30 15135 C 1409.06 -1.70081 -0.0254566 0
M  V30 15136 O 1410.25 -1.93682 0.141705 0
M  V30 15137 C 1407.38 -3.4085 0.666251 0
M  V30 15138 C 1406.33 -3.92692 1.70225 0
M  V30 15139 C 1405.66 -5.21925 1.16183 0
M  V30 15140 C 1406.96 -4.20478 3.09831 0
M  V30 15141 H 1408.65 -2.23497 1.99222 0
M  V30 15142 H 1406.2 -1.07398 0.959255 0
M  V30 15143 H 1408.15 -4.1811 0.52552 0
M  V30 15144 H 1406.87 -3.2522 -0.299939 0
M  V30 15145 H 1405.53 -3.17588 1.83121 0
M  V30 15146 H 1405.18 -5.02655 0.186237 0
M  V30 15147 H 1404.88 -5.57579 1.85416 0
M  V30 15148 H 1406.41 -6.01795 1.03323 0
M  V30 15149 H 1407.82 -4.88442 3.00162 0
M  V30 15150 H 1406.22 -4.67362 3.7642 0
M  V30 15151 H 1407.29 -3.27235 3.57834 0
M  V30 15152 N 1408.63 -1.05812 -1.16797 0
M  V30 15153 C 1409.56 -0.622584 -2.20582 0
M  V30 15154 C 1410.57 0.316905 -1.59686 0
M  V30 15155 O 1411.76 0.108657 -1.78169 0
M  V30 15156 C 1408.86 0.108124 -3.38727 0
M  V30 15157 C 1408.04 -0.84363 -4.29187 0
M  V30 15158 C 1407.1 -0.15305 -5.25977 0
M  V30 15159 O 1406.12 -0.78915 -5.63703 0
M  V30 15160 N 1407.32 1.10721 -5.69843 0
M  V30 15161 H 1410.09 -1.51532 -2.5857 0
M  V30 15162 H 1407.65 -0.940815 -1.31758 0
M  V30 15163 H 1409.64 0.580395 -4.00517 0
M  V30 15164 H 1408.21 0.902599 -2.99286 0
M  V30 15165 H 1407.43 -1.49538 -3.64735 0
M  V30 15166 H 1408.72 -1.48946 -4.86511 0
M  V30 15167 H 1408.12 1.64423 -5.41278 0
M  V30 15168 H 1406.67 1.52344 -6.33746 0
M  V30 15169 N 1410.11 1.33347 -0.840014 0
M  V30 15170 C 1411.06 2.31113 -0.262617 0
M  V30 15171 C 1412.05 1.58189 0.606023 0
M  V30 15172 O 1413.26 1.73047 0.495457 0
M  V30 15173 H 1409.63 0.74908 -0.0662003 0
M  V30 15174 H 1411.6 2.77318 -1.10169 0
M  V30 15175 C 1410.35 3.43377 0.54658 0
M  V30 15176 H 1409.67 3.99642 -0.112514 0
M  V30 15177 H 1411.11 4.13978 0.91641 0
M  V30 15178 C 1409.57 2.89333 1.72592 0
M  V30 15179 O 1410.1 2.85615 2.82466 0
M  V30 15180 N 1408.31 2.45926 1.54819 0
M  V30 15181 H 1407.86 2.49149 0.654404 0
M  V30 15182 H 1407.81 2.10119 2.33875 0
M  V30 15183 N 1411.59 0.596556 1.45873 0
M  V30 15184 C 1412.5 -0.130832 2.34235 0
M  V30 15185 C 1413.51 -0.871805 1.50584 0
M  V30 15186 O 1414.69 -0.831877 1.83417 0
M  V30 15187 C 1411.75 -1.12279 3.28016 0
M  V30 15188 C 1410.81 -0.384982 4.2757 0
M  V30 15189 C 1410.05 -1.32969 5.1687 0
M  V30 15190 O 1410.27 -2.56696 5.09375 0
M  V30 15191 O 1409.2 -0.832741 5.96112 0
M  V30 15192 H 1413.03 0.59503 2.97814 0
M  V30 15193 H 1410.61 0.356873 1.45075 0
M  V30 15194 H 1412.5 -1.6944 3.85834 0
M  V30 15195 H 1411.17 -1.82988 2.67015 0
M  V30 15196 H 1410.08 0.228816 3.734 0
M  V30 15197 H 1411.41 0.281398 4.91395 0
M  V30 15198 N 1413.06 -1.53996 0.335095 0
M  V30 15199 C 1414.29 -2.0489 -0.265245 0
M  V30 15200 C 1414.7 -1.21024 -1.4543 0
M  V30 15201 O 1414.04 -0.236417 -1.82172 0
M  V30 15202 C 1414.11 -3.51546 -0.752018 0
M  V30 15203 C 1413.77 -4.55904 0.316261 0
M  V30 15204 C 1414.77 -5.06881 1.15617 0
M  V30 15205 C 1412.45 -5.00117 0.467762 0
M  V30 15206 C 1414.45 -6.00644 2.13321 0
M  V30 15207 C 1412.13 -5.93692 1.4482 0
M  V30 15208 C 1413.13 -6.43842 2.27938 0
M  V30 15209 O 1412.82 -7.35578 3.24315 0
M  V30 15210 H 1412.55 -0.673631 -0.0565427 0
M  V30 15211 H 1415.11 -1.99646 0.482771 0
M  V30 15212 H 1413.34 -3.54227 -1.55114 0
M  V30 15213 H 1415.02 -3.85455 -1.27197 0
M  V30 15214 H 1415.79 -4.73494 1.05017 0
M  V30 15215 H 1411.67 -4.60689 -0.169338 0
M  V30 15216 H 1415.21 -6.39711 2.78236 0
M  V30 15217 H 1411.11 -6.26495 1.5548 0
M  V30 15218 H 1411.88 -7.53487 3.19688 0
M  V30 15219 N 1414.54 -0.0635198 -1.57472 0
M  V30 15220 C 1415.77 0.616735 -1.97494 0
M  V30 15221 C 1416.18 1.63646 -0.941568 0
M  V30 15222 O 1415.54 1.82355 0.0727768 0
M  V30 15223 C 1415.59 1.29268 -3.37597 0
M  V30 15224 O 1415.31 0.313781 -4.36975 0
M  V30 15225 C 1416.81 2.06154 -3.92448 0
M  V30 15226 H 1414.03 0.167753 -0.649692 0
M  V30 15227 H 1416.58 -0.133475 -2.04064 0
M  V30 15228 H 1414.73 1.99404 -3.3214 0
M  V30 15229 H 1415.15 0.797723 -5.18398 0
M  V30 15230 H 1416.62 2.48853 -4.92723 0
M  V30 15231 H 1417.1 2.91474 -3.28541 0
M  V30 15232 H 1417.7 1.40903 -4.01281 0
M  V30 15233 N 1416.02 1.56195 0.209972 0
M  V30 15234 C 1417.27 1.78941 0.930744 0
M  V30 15235 C 1417.58 0.634139 1.85035 0
M  V30 15236 O 1418.79 0.745524 2.61064 0
M  V30 15237 C 1417.24 3.16935 1.70529 0
M  V30 15238 C 1416.85 4.40221 0.83125 0
M  V30 15239 C 1418.6 3.49 2.41659 0
M  V30 15240 C 1416.5 5.69238 1.60381 0
M  V30 15241 H 1415.43 0.667176 0.351273 0
M  V30 15242 H 1418.08 1.82572 0.184341 0
M  V30 15243 H 1416.47 3.07513 2.49503 0
M  V30 15244 H 1417.64 4.60728 0.081227 0
M  V30 15245 H 1415.95 4.15756 0.231517 0
M  V30 15246 H 1418.55 4.42623 2.99982 0
M  V30 15247 H 1418.89 2.72042 3.15117 0
M  V30 15248 H 1419.43 3.59804 1.69665 0
M  V30 15249 H 1416.17 6.49121 0.912292 0
M  V30 15250 H 1415.69 5.52772 2.32815 0
M  V30 15251 H 1417.37 6.09827 2.16149 0
M  V30 15252 N 1417.5 -0.477127 1.50204 0
M  V30 15253 C 1418.75 -1.22639 1.60133 0
M  V30 15254 C 1419.06 -1.93218 0.304333 0
M  V30 15255 O 1420.27 -2.70027 0.282457 0
M  V30 15256 C 1418.72 -2.22807 2.82639 0
M  V30 15257 C 1418.33 -1.58059 4.19191 0
M  V30 15258 C 1420.07 -2.98413 3.01911 0
M  V30 15259 C 1417.98 -2.56478 5.32891 0
M  V30 15260 H 1416.91 -0.461439 0.596314 0
M  V30 15261 H 1419.56 -0.497533 1.76626 0
M  V30 15262 H 1417.94 -2.98959 2.59692 0
M  V30 15263 H 1419.12 -0.877374 4.5237 0
M  V30 15264 H 1417.43 -0.947563 4.05475 0
M  V30 15265 H 1420.03 -3.72059 3.84026 0
M  V30 15266 H 1420.37 -3.57444 2.134 0
M  V30 15267 H 1420.91 -2.29375 3.25011 0
M  V30 15268 H 1417.64 -2.02194 6.23536 0
M  V30 15269 H 1417.16 -3.24969 5.04138 0
M  V30 15270 H 1418.84 -3.18429 5.63216 0
M  V30 15271 N 1418.98 -1.3968 -0.729882 0
M  V30 15272 C 1420.2 -1.40654 -1.52418 0
M  V30 15273 C 1420.63 -0.00428997 -1.881 0
M  V30 15274 O 1419.98 0.984023 -1.52272 0
M  V30 15275 C 1420.03 -2.29057 -2.78506 0
M  V30 15276 O 1419.14 -1.72397 -3.74637 0
M  V30 15277 H 1418.48 -0.478761 -0.460091 0
M  V30 15278 H 1421.01 -1.83738 -0.900087 0
M  V30 15279 H 1421.02 -2.43748 -3.27187 0
M  V30 15280 H 1419.69 -3.30961 -2.51868 0
M  V30 15281 H 1418.27 -1.66977 -3.33426 0
M  V30 15282 N 1420.45 0.960609 -1.2494 0
M  V30 15283 C 1421.69 1.71937 -1.10531 0
M  V30 15284 C 1422.06 1.88806 0.348766 0
M  V30 15285 O 1423.26 2.61681 0.614539 0
M  V30 15286 C 1421.53 3.0685 -1.83242 0
M  V30 15287 S 1423.09 3.98057 -1.84651 0
M  V30 15288 H 1419.91 0.591061 -0.395181 0
M  V30 15289 H 1422.51 1.14618 -1.58376 0
M  V30 15290 H 1421.21 2.92238 -2.8814 0
M  V30 15291 H 1420.74 3.69233 -1.35759 0
M  V30 15292 H 1422.76 4.8761 -0.919263 0
M  V30 15293 N 1421.93 1.0643 1.16234 0
M  V30 15294 C 1423.18 0.77689 1.86138 0
M  V30 15295 C 1423.49 -0.699301 1.82672 0
M  V30 15296 O 1424.7 -1.10113 2.48168 0
M  V30 15297 C 1423.16 1.3396 3.3404 0
M  V30 15298 C 1422.76 2.84613 3.45976 0
M  V30 15299 C 1424.51 1.12979 4.09189 0
M  V30 15300 C 1422.42 3.34122 4.87972 0
M  V30 15301 H 1421.35 0.286936 0.697269 0
M  V30 15302 H 1424 1.28318 1.31174 0
M  V30 15303 H 1422.38 0.761073 3.88618 0
M  V30 15304 H 1423.55 3.48429 3.01552 0
M  V30 15305 H 1421.87 3.04277 2.84262 0
M  V30 15306 H 1424.46 1.47456 5.13966 0
M  V30 15307 H 1424.81 0.0682424 4.16244 0
M  V30 15308 H 1425.34 1.67418 3.60855 0
M  V30 15309 H 1422.08 4.39761 4.86097 0
M  V30 15310 H 1421.6 2.75055 5.33015 0
M  V30 15311 H 1423.28 3.29529 5.56794 0
M  V30 15312 N 1423.41 -1.329 0.847073 0
M  V30 15313 C 1424.36 -2.29044 0.284199 0
M  V30 15314 C 1425.33 -1.54706 -0.604591 0
M  V30 15315 O 1426.51 -1.82966 -0.541116 0
M  V30 15316 C 1423.65 -3.4104 -0.527822 0
M  V30 15317 C 1422.77 -4.30273 0.385907 0
M  V30 15318 C 1421.9 -5.29391 -0.438009 0
M  V30 15319 C 1420.94 -6.10265 0.473596 0
M  V30 15320 N 1420.08 -7.01403 -0.312684 0
M  V30 15321 H 1424.92 -2.76582 1.10935 0
M  V30 15322 H 1422.45 -1.36085 0.558508 0
M  V30 15323 H 1424.41 -4.04686 -1.01417 0
M  V30 15324 H 1423.04 -2.94673 -1.31787 0
M  V30 15325 H 1422.09 -3.67275 0.99061 0
M  V30 15326 H 1423.41 -4.86837 1.08585 0
M  V30 15327 H 1422.56 -5.98604 -0.987842 0
M  V30 15328 H 1421.3 -4.73424 -1.17135 0
M  V30 15329 H 1420.3 -5.39963 1.03537 0
M  V30 15330 H 1421.53 -6.68316 1.20543 0
M  V30 15331 H 1419.47 -6.47875 -1.02926 0
M  V30 15332 H 1419.39 -7.55286 0.328376 0
M  V30 15333 H 1420.66 -7.74912 -0.844489 0
M  V30 15334 N 1424.89 -0.604284 -1.45555 0
M  V30 15335 C 1425.84 0.129013 -2.32242 0
M  V30 15336 C 1426.83 0.862933 -1.45773 0
M  V30 15337 O 1428.04 0.778874 -1.62276 0
M  V30 15338 H 1424.41 0.0604661 -0.749565 0
M  V30 15339 H 1426.38 -0.620603 -2.91875 0
M  V30 15340 C 1425.13 1.11516 -3.29332 0
M  V30 15341 H 1424.45 0.559849 -3.95861 0
M  V30 15342 H 1425.89 1.59824 -3.92724 0
M  V30 15343 C 1424.35 2.18706 -2.5626 0
M  V30 15344 O 1424.88 3.26397 -2.34154 0
M  V30 15345 N 1423.09 1.93899 -2.16452 0
M  V30 15346 H 1422.64 1.0633 -2.34631 0
M  V30 15347 H 1422.59 2.65824 -1.67884 0
M  V30 15348 N 1426.37 1.53816 -0.343257 0
M  V30 15349 C 1427.64 1.9315 0.308609 0
M  V30 15350 C 1428.02 1.27479 1.68263 0
M  V30 15351 O 1427.37 0.425614 2.24501 0
M  V30 15352 C 1427.58 3.46912 0.381176 0
M  V30 15353 C 1428.93 4.19868 0.632153 0
M  V30 15354 O 1429.95 3.53174 0.463303 0
M  V30 15355 O 1428.81 5.38016 0.959237 0
M  V30 15356 H 1425.91 0.807169 0.180022 0
M  V30 15357 H 1428.45 1.65053 -0.394412 0
M  V30 15358 H 1427.22 3.86932 -0.583058 0
M  V30 15359 H 1426.85 3.81175 1.13099 0
M  V30 15360 N 1427.84 0.0718701 1.57436 0
M  V30 15361 C 1429.07 -0.609701 1.98236 0
M  V30 15362 C 1429.49 -1.6235 0.949959 0
M  V30 15363 O 1428.85 -1.81103 -0.0844281 0
M  V30 15364 C 1428.9 -1.2547 3.38068 0
M  V30 15365 O 1428 -2.37055 3.37459 0
M  V30 15366 H 1427.35 -0.15679 0.645223 0
M  V30 15367 H 1429.88 0.146407 2.04076 0
M  V30 15368 H 1429.89 -1.60152 3.75254 0
M  V30 15369 H 1428.56 -0.511842 4.12738 0
M  V30 15370 H 1427.14 -2.04165 3.12043 0
M  V30 15371 N 1429.32 -1.56304 -0.201686 0
M  V30 15372 C 1430.57 -1.79881 -0.921269 0
M  V30 15373 C 1430.89 -0.643809 -1.84065 0
M  V30 15374 O 1430.16 0.338239 -1.92958 0
M  V30 15375 H 1428.74 -0.663506 -0.343175 0
M  V30 15376 H 1431.4 -1.93779 -0.208775 0
M  V30 15377 H 1430.5 -2.7279 -1.51631 0
M  V30 15378 N 1430.8 0.469154 -1.50455 0
M  V30 15379 C 1432.05 1.22002 -1.62748 0
M  V30 15380 C 1432.4 1.89642 -0.324611 0
M  V30 15381 O 1431.69 1.79218 0.677597 0
M  V30 15382 C 1431.89 2.28673 -2.7467 0
M  V30 15383 C 1431.72 1.71498 -4.15714 0
M  V30 15384 C 1430.49 1.51386 -4.8209 0
M  V30 15385 C 1432.69 1.20886 -4.99891 0
M  V30 15386 N 1430.67 0.894745 -6.07345 0
M  V30 15387 C 1432.04 0.713084 -6.15886 0
M  V30 15388 C 1434.09 1.09759 -4.85652 0
M  V30 15389 C 1432.8 0.117016 -7.19205 0
M  V30 15390 C 1434.82 0.515452 -5.89149 0
M  V30 15391 C 1434.18 0.0300686 -7.04394 0
M  V30 15392 H 1430.28 0.435249 -0.649679 0
M  V30 15393 H 1432.87 0.521706 -1.8758 0
M  V30 15394 H 1431.04 2.95929 -2.51557 0
M  V30 15395 H 1432.77 2.95693 -2.76311 0
M  V30 15396 H 1429.53 1.76665 -4.39416 0
M  V30 15397 H 1429.95 0.603547 -6.74304 0
M  V30 15398 H 1434.59 1.45878 -3.96837 0
M  V30 15399 H 1432.31 -0.256378 -8.07693 0
M  V30 15400 H 1435.9 0.431698 -5.80196 0
M  V30 15401 H 1434.78 -0.413327 -7.8311 0
M  V30 15402 N 1432.28 1.40065 0.722464 0
M  V30 15403 C 1433.23 1.39784 1.83655 0
M  V30 15404 C 1434.2 0.255743 1.64119 0
M  V30 15405 O 1435.38 0.452766 1.8535 0
M  V30 15406 C 1432.52 1.25946 3.21297 0
M  V30 15407 C 1431.63 2.49805 3.52451 0
M  V30 15408 C 1430.77 2.2846 4.79562 0
M  V30 15409 C 1429.81 3.4793 5.03598 0
M  V30 15410 N 1428.94 3.25823 6.21919 0
M  V30 15411 H 1433.78 2.35013 1.83229 0
M  V30 15412 H 1431.32 1.16728 0.895154 0
M  V30 15413 H 1433.28 1.15931 4.00769 0
M  V30 15414 H 1431.91 0.343402 3.20968 0
M  V30 15415 H 1430.96 2.70375 2.67585 0
M  V30 15416 H 1432.27 3.38753 3.66126 0
M  V30 15417 H 1431.43 2.15758 5.67039 0
M  V30 15418 H 1430.17 1.36926 4.68084 0
M  V30 15419 H 1429.17 3.61116 4.14579 0
M  V30 15420 H 1430.4 4.40382 5.16953 0
M  V30 15421 H 1428.34 2.36965 6.11705 0
M  V30 15422 H 1428.26 4.08333 6.36239 0
M  V30 15423 H 1429.53 3.16841 7.12202 0
M  V30 15424 N 1433.76 -0.95397 1.25448 0
M  V30 15425 C 1435 -1.70118 1.10399 0
M  V30 15426 C 1435.34 -1.90945 -0.354093 0
M  V30 15427 O 1434.61 -1.48088 -1.26096 0
M  V30 15428 C 1434.89 -3.08371 1.85955 0
M  V30 15429 C 1434.75 -2.9495 3.39595 0
M  V30 15430 C 1436.07 -4.08273 1.64321 0
M  V30 15431 H 1433.19 -0.617424 0.402438 0
M  V30 15432 H 1435.83 -1.10884 1.54288 0
M  V30 15433 H 1433.98 -3.58936 1.48651 0
M  V30 15434 H 1435.65 -2.51705 3.86578 0
M  V30 15435 H 1433.89 -2.30853 3.67273 0
M  V30 15436 H 1434.56 -3.92952 3.87676 0
M  V30 15437 H 1437.04 -3.6662 1.96796 0
M  V30 15438 H 1435.92 -5.03048 2.19622 0
M  V30 15439 H 1436.18 -4.38217 0.584685 0
M  V30 15440 N 1435.24 -1.07045 -1.15668 0
M  V30 15441 C 1436.46 -0.812802 -1.9081 0
M  V30 15442 C 1436.89 0.627827 -1.77313 0
M  V30 15443 O 1436.24 1.43836 -1.10368 0
M  V30 15444 C 1436.29 -1.2219 -3.39267 0
M  V30 15445 O 1435.4 -0.365305 -4.10779 0
M  V30 15446 H 1434.74 -0.296385 -0.594182 0
M  V30 15447 H 1437.27 -1.42825 -1.465 0
M  V30 15448 H 1437.28 -1.19674 -3.90054 0
M  V30 15449 H 1435.95 -2.27121 -3.48409 0
M  V30 15450 H 1434.53 -0.452687 -3.70142 0
M  V30 15451 N 1436.71 1.32449 -0.85411 0
M  V30 15452 C 1437.96 1.96537 -0.453451 0
M  V30 15453 C 1438.28 1.68344 0.995982 0
M  V30 15454 O 1439.48 2.26166 1.50204 0
M  V30 15455 C 1437.94 3.51785 -0.759934 0
M  V30 15456 C 1437.55 3.88838 -2.22506 0
M  V30 15457 C 1439.29 4.22347 -0.426973 0
M  V30 15458 C 1437.2 5.37129 -2.47479 0
M  V30 15459 H 1436.13 0.735537 -0.165835 0
M  V30 15460 H 1438.78 1.50851 -1.04481 0
M  V30 15461 H 1437.16 3.95879 -0.0980116 0
M  V30 15462 H 1438.33 3.55756 -2.92873 0
M  V30 15463 H 1436.65 3.31299 -2.52249 0
M  V30 15464 H 1439.25 5.31424 -0.590986 0
M  V30 15465 H 1439.59 4.11485 0.631359 0
M  V30 15466 H 1440.12 3.83835 -1.04477 0
M  V30 15467 H 1436.86 5.53012 -3.51935 0
M  V30 15468 H 1436.38 5.71619 -1.8169 0
M  V30 15469 H 1438.06 6.04204 -2.31401 0
M  V30 15470 N 1438.19 0.611994 1.45232 0
M  V30 15471 C 1439.14 -0.104265 2.30564 0
M  V30 15472 C 1440.11 -0.855676 1.42364 0
M  V30 15473 O 1441.29 -0.840534 1.71288 0
M  V30 15474 C 1438.43 -1.09274 3.27343 0
M  V30 15475 C 1437.55 -0.341747 4.30646 0
M  V30 15476 C 1436.68 -1.32034 5.14529 0
M  V30 15477 C 1435.72 -0.557405 6.09557 0
M  V30 15478 N 1434.86 -1.4855 6.86205 0
M  V30 15479 H 1439.7 0.629396 2.91278 0
M  V30 15480 H 1437.23 0.322177 1.43528 0
M  V30 15481 H 1439.19 -1.67902 3.81923 0
M  V30 15482 H 1437.82 -1.79376 2.68373 0
M  V30 15483 H 1436.87 0.360114 3.78692 0
M  V30 15484 H 1438.19 0.253328 4.98156 0
M  V30 15485 H 1437.34 -1.97854 5.73532 0
M  V30 15486 H 1436.08 -1.94934 4.47048 0
M  V30 15487 H 1435.08 0.114401 5.49681 0
M  V30 15488 H 1436.31 0.0666137 6.79067 0
M  V30 15489 H 1434.26 -2.10207 6.21409 0
M  V30 15490 H 1434.17 -0.943972 7.50083 0
M  V30 15491 H 1435.44 -2.13314 7.49745 0
M  V30 15492 N 1439.67 -1.53632 0.351409 0
M  V30 15493 C 1440.92 -2.00643 -0.242208 0
M  V30 15494 C 1441.24 -1.24074 -1.50435 0
M  V30 15495 O 1440.51 -0.350067 -1.92747 0
M  V30 15496 H 1439.09 -0.741252 -0.0924904 0
M  V30 15497 H 1441.75 -1.89039 0.474379 0
M  V30 15498 H 1440.85 -3.084 -0.479151 0
M  V30 15499 N 1441.15 -0.0802183 -1.57396 0
M  V30 15500 C 1442.1 0.901668 -2.14412 0
M  V30 15501 C 1443.09 1.30247 -1.08314 0
M  V30 15502 O 1444.3 1.27873 -1.26682 0
M  V30 15503 H 1440.67 0.308748 -0.685696 0
M  V30 15504 H 1442.64 0.395934 -2.95762 0
M  V30 15505 C 1441.39 2.15665 -2.72734 0
M  V30 15506 H 1440.71 1.8571 -3.54051 0
M  V30 15507 H 1442.15 2.82461 -3.16214 0
M  V30 15508 C 1440.61 2.9208 -1.67901 0
M  V30 15509 O 1441.14 3.86087 -1.10903 0
M  V30 15510 N 1439.35 2.55343 -1.38739 0
M  V30 15511 H 1438.9 1.78969 -1.85278 0
M  V30 15512 H 1438.85 3.06773 -0.688317 0
M  V30 15513 N 1442.63 1.56409 0.193394 0
M  V30 15514 C 1444.04 1.50032 0.544298 0
M  V30 15515 C 1444.24 0.780546 1.85768 0
M  V30 15516 O 1443.3 0.331769 2.50311 0
M  V30 15517 C 1444.61 2.94705 0.597463 0
M  V30 15518 C 1446.16 3.05386 0.686179 0
M  V30 15519 C 1446.63 4.51473 0.770439 0
M  V30 15520 N 1448.12 4.55631 0.833921 0
M  V30 15521 C 1448.86 5.65982 0.919314 0
M  V30 15522 N 1448.36 6.8602 0.966904 0
M  V30 15523 N 1450.15 5.539 0.956634 0
M  V30 15524 H 1442.3 2.01619 -0.668096 0
M  V30 15525 H 1444.56 0.917589 -0.238191 0
M  V30 15526 H 1444.27 3.50431 -0.298509 0
M  V30 15527 H 1444.14 3.48151 1.45157 0
M  V30 15528 H 1446.53 2.49708 1.57258 0
M  V30 15529 H 1446.61 2.55062 -0.194165 0
M  V30 15530 H 1446.25 5.07777 -0.111619 0
M  V30 15531 H 1446.18 4.99531 1.66661 0
M  V30 15532 H 1448.68 3.69198 0.80632 0
M  V30 15533 H 1448.99 7.6587 1.03262 0
M  V30 15534 H 1447.33 6.88674 0.935552 0
M  V30 15535 H 1450.52 4.59044 0.916304 0
M  V30 15536 H 1450.7 6.39926 1.01972 0
M  V30 15537 N 1444.1 -0.461169 1.50702 0
M  V30 15538 C 1445.35 -1.20934 1.61425 0
M  V30 15539 C 1445.67 -1.92884 0.32481 0
M  V30 15540 O 1446.87 -2.69712 0.311081 0
M  V30 15541 C 1445.33 -2.19797 2.84987 0
M  V30 15542 C 1444.94 -1.53604 4.20844 0
M  V30 15543 C 1446.68 -2.95194 3.05059 0
M  V30 15544 C 1444.59 -2.50811 5.35582 0
M  V30 15545 H 1443.52 -0.455088 0.601174 0
M  V30 15546 H 1446.17 -0.478771 1.77144 0
M  V30 15547 H 1444.55 -2.96187 2.62848 0
M  V30 15548 H 1445.72 -0.829345 4.53275 0
M  V30 15549 H 1444.04 -0.904504 4.06457 0
M  V30 15550 H 1446.64 -3.67965 3.87951 0
M  V30 15551 H 1446.98 -3.5516 2.1718 0
M  V30 15552 H 1447.51 -2.25915 3.27425 0
M  V30 15553 H 1444.25 -1.9557 6.25646 0
M  V30 15554 H 1443.77 -3.19604 5.07556 0
M  V30 15555 H 1445.45 -3.12437 5.66561 0
M  V30 15556 N 1445.58 -1.40446 -0.715026 0
M  V30 15557 C 1446.83 -1.38059 -1.47046 0
M  V30 15558 C 1447.14 0.0139125 -1.95595 0
M  V30 15559 O 1448.35 0.160398 -2.71026 0
M  V30 15560 C 1446.81 -2.42646 -2.65802 0
M  V30 15561 C 1446.41 -3.8791 -2.2412 0
M  V30 15562 C 1448.16 -2.49367 -3.43535 0
M  V30 15563 C 1446.06 -4.84092 -3.39719 0
M  V30 15564 H 1444.99 -0.513341 -0.552265 0
M  V30 15565 H 1447.65 -1.66185 -0.778126 0
M  V30 15566 H 1446.03 -2.07621 -3.37208 0
M  V30 15567 H 1447.2 -4.32082 -1.6013 0
M  V30 15568 H 1445.52 -3.8467 -1.5943 0
M  V30 15569 H 1448.11 -3.18414 -4.29554 0
M  V30 15570 H 1448.46 -1.52436 -3.87388 0
M  V30 15571 H 1448.99 -2.83386 -2.79173 0
M  V30 15572 H 1445.73 -5.82358 -3.00898 0
M  V30 15573 H 1445.25 -4.44584 -4.02623 0
M  V30 15574 H 1446.93 -5.03939 -4.05776 0
M  V30 15575 N 1447.06 0.947303 -1.25952 0
M  V30 15576 C 1448.31 1.69583 -1.12308 0
M  V30 15577 C 1448.66 1.89526 0.331301 0
M  V30 15578 O 1447.95 1.46042 1.24026 0
M  V30 15579 C 1448.15 3.07652 -1.81892 0
M  V30 15580 C 1447.98 3.0118 -3.33947 0
M  V30 15581 C 1446.75 3.04533 -4.03222 0
M  V30 15582 C 1448.94 2.81785 -4.30234 0
M  V30 15583 N 1446.93 2.88296 -5.41995 0
M  V30 15584 C 1448.3 2.74054 -5.56142 0
M  V30 15585 C 1450.35 2.66522 -4.2056 0
M  V30 15586 C 1449.06 2.52618 -6.73481 0
M  V30 15587 C 1451.08 2.46458 -5.37599 0
M  V30 15588 C 1450.44 2.39454 -6.62451 0
M  V30 15589 H 1446.54 0.628198 -0.465716 0
M  V30 15590 H 1449.13 1.12151 -1.59155 0
M  V30 15591 H 1447.3 3.63236 -1.3753 0
M  V30 15592 H 1449.03 3.71329 -1.60925 0
M  V30 15593 H 1445.78 3.14009 -3.54536 0
M  V30 15594 H 1446.21 2.83361 -6.14846 0
M  V30 15595 H 1450.85 2.70707 -3.24773 0
M  V30 15596 H 1448.57 2.47174 -7.6937 0
M  V30 15597 H 1452.15 2.35562 -5.31979 0
M  V30 15598 H 1451.03 2.24133 -7.51488 0
M  V30 15599 N 1448.54 1.07657 1.15099 0
M  V30 15600 C 1449.77 0.822825 1.89835 0
M  V30 15601 C 1450.18 -0.624281 1.7818 0
M  V30 15602 O 1449.54 -1.42844 1.13587 0
M  V30 15603 C 1449.59 1.22598 3.40076 0
M  V30 15604 O 1449.31 2.61631 3.51398 0
M  V30 15605 C 1450.81 1.00199 4.31828 0
M  V30 15606 H 1448.03 0.297288 0.601549 0
M  V30 15607 H 1450.58 1.43384 1.45813 0
M  V30 15608 H 1448.73 0.65923 3.8175 0
M  V30 15609 H 1449.14 2.78163 4.44664 0
M  V30 15610 H 1450.62 1.33355 5.35649 0
M  V30 15611 H 1451.1 -0.0614865 4.39157 0
M  V30 15612 H 1451.7 1.5538 3.959 0
M  V30 15613 N 1450.02 -1.31994 0.861122 0
M  V30 15614 C 1450.95 -2.31214 0.325963 0
M  V30 15615 C 1451.93 -1.59965 -0.578383 0
M  V30 15616 O 1453.11 -1.87726 -0.497268 0
M  V30 15617 C 1450.24 -3.43953 -0.481001 0
M  V30 15618 C 1449.2 -4.2673 0.329474 0
M  V30 15619 C 1448.52 -5.31293 -0.602627 0
M  V30 15620 C 1449.82 -4.98498 1.55874 0
M  V30 15621 H 1451.52 -2.76223 1.15503 0
M  V30 15622 H 1449.06 -1.32797 0.556856 0
M  V30 15623 H 1451.02 -4.12409 -0.86585 0
M  V30 15624 H 1449.74 -2.97687 -1.3435 0
M  V30 15625 H 1448.4 -3.59929 0.696159 0
M  V30 15626 H 1448.05 -4.8128 -1.46215 0
M  V30 15627 H 1447.75 -5.87565 -0.0643044 0
M  V30 15628 H 1449.27 -6.02611 -0.984512 0
M  V30 15629 H 1450.68 -5.596 1.24583 0
M  V30 15630 H 1449.08 -5.64525 2.03548 0
M  V30 15631 H 1450.15 -4.25991 2.31646 0
M  V30 15632 N 1451.49 -0.619688 -1.44906 0
M  V30 15633 C 1452.74 -0.117147 -2.0136 0
M  V30 15634 C 1453.06 1.2644 -1.49239 0
M  V30 15635 O 1454.26 1.86034 -1.97747 0
M  V30 15636 C 1452.72 -0.15871 -3.5955 0
M  V30 15637 C 1452.33 -1.54086 -4.20668 0
M  V30 15638 C 1454.07 0.287961 -4.23522 0
M  V30 15639 C 1451.98 -1.53816 -5.71047 0
M  V30 15640 H 1450.91 -0.040028 -0.752937 0
M  V30 15641 H 1453.56 -0.776802 -1.66247 0
M  V30 15642 H 1451.94 0.56783 -3.91908 0
M  V30 15643 H 1453.11 -2.29007 -3.99865 0
M  V30 15644 H 1451.43 -1.93065 -3.68938 0
M  V30 15645 H 1454.03 0.309351 -5.33804 0
M  V30 15646 H 1454.37 1.31305 -3.9505 0
M  V30 15647 H 1454.9 -0.385707 -3.95926 0
M  V30 15648 H 1451.64 -2.54124 -6.04236 0
M  V30 15649 H 1451.16 -0.831708 -5.94006 0
M  V30 15650 H 1452.84 -1.26708 -6.34472 0
M  V30 15651 N 1452.97 1.53444 -0.359552 0
M  V30 15652 C 1454.25 1.93467 0.288106 0
M  V30 15653 C 1454.63 1.29256 1.66901 0
M  V30 15654 O 1453.98 0.449402 2.24037 0
M  V30 15655 C 1454.19 3.47297 0.344359 0
M  V30 15656 C 1455.54 4.20515 0.587585 0
M  V30 15657 O 1456.56 3.53646 0.425818 0
M  V30 15658 O 1455.42 5.39003 0.902119 0
M  V30 15659 H 1452.51 0.809033 0.171451 0
M  V30 15660 H 1455.06 1.64625 -0.411896 0
M  V30 15661 H 1453.83 3.86292 -0.624064 0
M  V30 15662 H 1453.45 3.82353 1.0905 0
M  V30 15663 N 1454.45 0.0885642 1.57351 0
M  V30 15664 C 1455.7 -0.57753 1.94403 0
M  V30 15665 C 1456.03 -1.68238 0.970029 0
M  V30 15666 O 1455.3 -1.945 0.00198684 0
M  V30 15667 C 1455.59 -1.13882 3.41618 0
M  V30 15668 C 1455.44 -0.0394686 4.49783 0
M  V30 15669 C 1456.76 -2.03922 3.90005 0
M  V30 15670 H 1453.88 -0.208468 0.706902 0
M  V30 15671 H 1456.52 0.157945 1.89342 0
M  V30 15672 H 1454.67 -1.76561 3.46061 0
M  V30 15673 H 1456.34 0.594458 4.57454 0
M  V30 15674 H 1454.59 0.627775 4.29234 0
M  V30 15675 H 1455.26 -0.472897 5.49971 0
M  V30 15676 H 1457.73 -1.51156 3.87674 0
M  V30 15677 H 1456.61 -2.40123 4.93591 0
M  V30 15678 H 1456.87 -2.95407 3.28918 0
M  V30 15679 N 1455.93 -1.56509 -0.185096 0
M  V30 15680 C 1456.88 -1.96237 -1.24875 0
M  V30 15681 C 1457.87 -0.849169 -1.46579 0
M  V30 15682 O 1459.08 -1.03422 -1.47322 0
M  V30 15683 H 1455.45 -0.624147 -0.419457 0
M  V30 15684 H 1457.42 -2.8492 -0.88673 0
M  V30 15685 C 1456.17 -2.32667 -2.58382 0
M  V30 15686 H 1455.49 -3.17858 -2.425 0
M  V30 15687 H 1456.93 -2.6432 -3.31528 0
M  V30 15688 C 1455.39 -1.16496 -3.16118 0
M  V30 15689 O 1455.92 -0.445283 -3.99224 0
M  V30 15690 N 1454.13 -0.939133 -2.75007 0
M  V30 15691 H 1453.68 -1.52611 -2.07527 0
M  V30 15692 H 1453.63 -0.163659 -3.13974 0
M  V30 15693 N 1457.41 0.45317 -1.50944 0
M  V30 15694 C 1458.37 1.5313 -1.7054 0
M  V30 15695 C 1459.37 1.50142 -0.575678 0
M  V30 15696 O 1460.56 1.52444 -0.842997 0
M  V30 15697 C 1457.69 2.92719 -1.74723 0
M  V30 15698 H 1458.88 1.37066 -2.66745 0
M  V30 15699 H 1456.44 0.680783 -1.40695 0
M  V30 15700 H 1457.17 3.14208 -0.802753 0
M  V30 15701 H 1456.96 2.96295 -2.56811 0
M  V30 15702 H 1458.45 3.7096 -1.91777 0
M  V30 15703 N 1458.88 1.40823 0.707568 0
M  V30 15704 C 1459.83 1.41724 1.82162 0
M  V30 15705 C 1460.8 0.273135 1.63839 0
M  V30 15706 O 1461.99 0.472399 1.84859 0
M  V30 15707 C 1459.13 1.29347 3.19943 0
M  V30 15708 C 1458.24 2.53529 3.49782 0
M  V30 15709 C 1457.37 2.33533 4.77112 0
M  V30 15710 C 1456.41 3.53252 4.9988 0
M  V30 15711 N 1455.55 3.32401 6.18429 0
M  V30 15712 H 1460.39 2.36943 1.80726 0
M  V30 15713 H 1457.93 1.17671 0.882723 0
M  V30 15714 H 1459.89 1.20175 3.99517 0
M  V30 15715 H 1458.52 0.377426 3.20586 0
M  V30 15716 H 1457.57 2.73198 2.64702 0
M  V30 15717 H 1458.88 3.42617 3.62512 0
M  V30 15718 H 1458.03 2.2176 5.64719 0
M  V30 15719 H 1456.77 1.41883 4.66605 0
M  V30 15720 H 1455.78 3.65492 4.10725 0
M  V30 15721 H 1457 4.4584 5.12253 0
M  V30 15722 H 1454.95 2.4344 6.09158 0
M  V30 15723 H 1454.87 4.15059 6.31872 0
M  V30 15724 H 1456.13 3.24377 7.08802 0
M  V30 15725 N 1460.36 -0.94061 1.26453 0
M  V30 15726 C 1461.59 -1.72654 1.14914 0
M  V30 15727 C 1462.01 -1.85823 -0.291789 0
M  V30 15728 O 1461.37 -1.34888 -1.2114 0
M  V30 15729 C 1461.42 -3.11083 1.82372 0
M  V30 15730 O 1460.52 -3.971 1.1129 0
M  V30 15731 H 1459.86 -0.529704 0.400387 0
M  V30 15732 H 1462.39 -1.17803 1.67283 0
M  V30 15733 H 1462.4 -3.6147 1.89219 0
M  V30 15734 H 1461.08 -3.00815 2.87199 0
M  V30 15735 H 1459.66 -3.5555 1.12423 0
M  V30 15736 N 1461.84 -1.08266 -1.14527 0
M  V30 15737 C 1462.79 -0.711332 -2.19565 0
M  V30 15738 C 1463.76 0.301774 -1.63336 0
M  V30 15739 O 1464.94 0.186109 -1.8989 0
M  V30 15740 C 1462.08 -0.125255 -3.44873 0
M  V30 15741 C 1461.2 -1.19096 -4.15259 0
M  V30 15742 C 1460.33 -0.568901 -5.28145 0
M  V30 15743 C 1459.37 -1.61675 -5.90362 0
M  V30 15744 N 1458.51 -1.01659 -6.94701 0
M  V30 15745 H 1463.35 -1.61137 -2.50677 0
M  V30 15746 H 1460.88 -0.805286 -1.231 0
M  V30 15747 H 1462.84 0.232247 -4.16553 0
M  V30 15748 H 1461.47 0.738101 -3.14248 0
M  V30 15749 H 1460.52 -1.66591 -3.41982 0
M  V30 15750 H 1461.84 -1.98508 -4.57598 0
M  V30 15751 H 1460.99 -0.159563 -6.0649 0
M  V30 15752 H 1459.73 0.256884 -4.87023 0
M  V30 15753 H 1458.73 -2.03576 -5.10722 0
M  V30 15754 H 1459.96 -2.44498 -6.33559 0
M  V30 15755 H 1457.9 -0.211872 -6.55658 0
M  V30 15756 H 1457.82 -1.74781 -7.35518 0
M  V30 15757 H 1459.09 -0.63306 -7.76925 0
M  V30 15758 N 1463.32 1.31536 -0.86811 0
M  V30 15759 C 1464.54 2.01487 -0.491705 0
M  V30 15760 C 1464.97 1.64744 0.907803 0
M  V30 15761 O 1464.33 0.855093 1.59868 0
M  V30 15762 C 1464.38 3.54621 -0.65395 0
M  V30 15763 O 1463.48 4.11252 0.307532 0
M  V30 15764 H 1462.82 0.634469 -0.195819 0
M  V30 15765 H 1465.35 1.67775 -1.17101 0
M  V30 15766 H 1465.36 4.04323 -0.546539 0
M  V30 15767 H 1464.04 3.80704 -1.67443 0
M  V30 15768 H 1462.61 3.72577 0.155233 0
M  V30 15769 N 1464.8 0.627364 1.44575 0
M  V30 15770 C 1466.05 0.127824 2.01295 0
M  V30 15771 C 1466.36 -1.25647 1.49907 0
M  V30 15772 O 1467.57 -1.84982 1.9873 0
M  V30 15773 C 1466.02 0.177775 3.59461 0
M  V30 15774 C 1465.63 1.56315 4.19845 0
M  V30 15775 C 1467.37 -0.265497 4.23669 0
M  V30 15776 C 1465.28 1.56842 5.70223 0
M  V30 15777 H 1464.21 0.0440205 0.752714 0
M  V30 15778 H 1466.86 0.785607 1.65833 0
M  V30 15779 H 1465.24 -0.547038 3.92203 0
M  V30 15780 H 1466.42 2.31125 3.98645 0
M  V30 15781 H 1464.73 1.95019 3.67909 0
M  V30 15782 H 1467.33 -0.281038 5.33961 0
M  V30 15783 H 1467.67 -1.29208 3.95741 0
M  V30 15784 H 1468.21 0.406698 3.95716 0
M  V30 15785 H 1464.94 2.57325 6.0288 0
M  V30 15786 H 1464.46 0.863198 5.93556 0
M  V30 15787 H 1466.14 1.30071 6.33791 0
M  V30 15788 N 1466.28 -1.53251 0.367684 0
M  V30 15789 C 1467.52 -2.01287 -0.221351 0
M  V30 15790 C 1467.85 -1.25489 -1.48603 0
M  V30 15791 O 1467.11 -0.337392 -1.9277 0
M  V30 15792 C 1467.4 -3.53031 -0.557149 0
M  V30 15793 C 1467.07 -4.46708 0.613444 0
M  V30 15794 C 1465.73 -4.72036 0.934633 0
M  V30 15795 C 1468.08 -5.02112 1.3976 0
M  V30 15796 C 1465.41 -5.50021 2.04191 0
M  V30 15797 C 1467.76 -5.81306 2.49531 0
M  V30 15798 C 1466.43 -6.04921 2.82182 0
M  V30 15799 H 1465.7 -0.73656 -0.080998 0
M  V30 15800 H 1468.35 -1.84842 0.500581 0
M  V30 15801 H 1466.65 -3.67434 -1.36012 0
M  V30 15802 H 1468.35 -3.87674 -1.02519 0
M  V30 15803 H 1464.94 -4.27143 0.353075 0
M  V30 15804 H 1469.12 -4.82488 1.1627 0
M  V30 15805 H 1464.38 -5.66536 2.29884 0
M  V30 15806 H 1468.55 -6.23245 3.10707 0
M  V30 15807 H 1466.18 -6.65134 3.68104 0
M  V30 15808 N 1467.75 -0.0969077 -1.57302 0
M  V30 15809 C 1469 0.566373 -1.94418 0
M  V30 15810 C 1469.33 1.68078 -0.978769 0
M  V30 15811 O 1468.58 1.957 0.0013214 0
M  V30 15812 C 1468.88 1.15972 -3.38061 0
M  V30 15813 C 1468.55 0.16892 -4.50583 0
M  V30 15814 C 1467.21 -0.103587 -4.81088 0
M  V30 15815 C 1469.56 -0.507513 -5.18723 0
M  V30 15816 C 1466.89 -1.05919 -5.7706 0
M  V30 15817 C 1469.24 -1.4516 -6.1572 0
M  V30 15818 C 1467.91 -1.73232 -6.44629 0
M  V30 15819 H 1467.18 0.207251 -0.711427 0
M  V30 15820 H 1469.82 -0.173125 -1.90716 0
M  V30 15821 H 1468.13 1.97551 -3.3835 0
M  V30 15822 H 1469.83 1.68066 -3.64081 0
M  V30 15823 H 1466.42 0.391501 -4.26808 0
M  V30 15824 H 1470.6 -0.310127 -4.9533 0
M  V30 15825 H 1465.86 -1.28366 -5.97773 0
M  V30 15826 H 1470.03 -1.98155 -6.67613 0
M  V30 15827 H 1467.66 -2.47436 -7.18804 0
M  V30 15828 N 1469.23 1.56605 0.176793 0
M  V30 15829 C 1470.14 1.99211 1.23903 0
M  V30 15830 C 1471.16 0.902614 1.48758 0
M  V30 15831 O 1472.33 1.20982 1.61014 0
M  V30 15832 C 1469.4 2.33873 2.55938 0
M  V30 15833 C 1468.46 3.56624 2.38994 0
M  V30 15834 C 1467.69 3.89623 3.64733 0
M  V30 15835 O 1467.92 3.23662 4.6968 0
M  V30 15836 O 1466.85 4.82992 3.5917 0
M  V30 15837 H 1470.68 2.89827 0.907398 0
M  V30 15838 H 1468.26 1.44401 0.383234 0
M  V30 15839 H 1470.14 2.57161 3.33836 0
M  V30 15840 H 1468.82 1.46421 2.88691 0
M  V30 15841 H 1467.72 3.38561 1.59146 0
M  V30 15842 H 1469.06 4.446 2.11167 0
M  V30 15843 N 1470.71 -0.445159 1.51182 0
M  V30 15844 C 1471.94 -1.2161 1.67016 0
M  V30 15845 C 1472.35 -1.85671 0.363705 0
M  V30 15846 O 1471.69 -1.71165 -0.666963 0
M  V30 15847 C 1471.75 -2.34705 2.72312 0
M  V30 15848 C 1471.42 -1.91074 4.15138 0
M  V30 15849 C 1472.41 -1.41857 5.00173 0
M  V30 15850 C 1470.1 -1.99004 4.61197 0
M  V30 15851 C 1472.09 -1.01146 6.29324 0
M  V30 15852 C 1469.78 -1.57904 5.90347 0
M  V30 15853 C 1470.78 -1.09056 6.74237 0
M  V30 15854 O 1470.47 -0.685367 8.00973 0
M  V30 15855 H 1470.2 -0.372925 0.563829 0
M  V30 15856 H 1472.75 -0.534708 1.98318 0
M  V30 15857 H 1470.98 -3.06097 2.36309 0
M  V30 15858 H 1472.67 -2.96594 2.77104 0
M  V30 15859 H 1473.44 -1.35132 4.65794 0
M  V30 15860 H 1469.32 -2.35972 3.96028 0
M  V30 15861 H 1472.86 -0.629486 6.94754 0
M  V30 15862 H 1468.76 -1.64297 6.24241 0
M  V30 15863 H 1469.52 -0.811915 8.14463 0
M  V30 15864 N 1472.19 -1.41197 -0.700089 0
M  V30 15865 C 1473.41 -1.43856 -1.494 0
M  V30 15866 C 1473.84 -0.0441877 -1.88048 0
M  V30 15867 O 1473.2 0.951503 -1.54325 0
M  V30 15868 C 1473.24 -2.34913 -2.73584 0
M  V30 15869 O 1472.35 -1.80305 -3.70896 0
M  V30 15870 H 1471.69 -0.488412 -0.449833 0
M  V30 15871 H 1474.22 -1.85606 -0.860911 0
M  V30 15872 H 1474.23 -2.50633 -3.21943 0
M  V30 15873 H 1472.9 -3.36229 -2.44791 0
M  V30 15874 H 1471.48 -1.74012 -3.29809 0
M  V30 15875 N 1473.67 0.933891 -1.2695 0
M  V30 15876 C 1474.91 1.67539 -1.1231 0
M  V30 15877 C 1475.23 1.92765 0.331788 0
M  V30 15878 O 1476.43 2.6481 0.598983 0
M  V30 15879 C 1474.89 3.01722 -1.96194 0
M  V30 15880 C 1474.5 2.84216 -3.46302 0
M  V30 15881 C 1476.24 3.79513 -1.90185 0
M  V30 15882 C 1474.15 4.13916 -4.22407 0
M  V30 15883 H 1473.08 0.62839 -0.416704 0
M  V30 15884 H 1475.73 1.03801 -1.5132 0
M  V30 15885 H 1474.11 3.66482 -1.50023 0
M  V30 15886 H 1475.29 2.28261 -4.00292 0
M  V30 15887 H 1473.6 2.1986 -3.53625 0
M  V30 15888 H 1476.2 4.75615 -2.44325 0
M  V30 15889 H 1476.54 4.07019 -0.874129 0
M  V30 15890 H 1477.07 3.21539 -2.34217 0
M  V30 15891 H 1473.81 3.91591 -5.25677 0
M  V30 15892 H 1473.33 4.69558 -3.73196 0
M  V30 15893 H 1475.01 4.82322 -4.31248 0
M  V30 15894 N 1475.14 1.08871 1.13951 0
M  V30 15895 C 1476.09 0.722966 2.19184 0
M  V30 15896 C 1477.06 -0.293108 1.63493 0
M  V30 15897 O 1478.25 -0.176036 1.89986 0
M  V30 15898 C 1475.39 0.143542 3.44801 0
M  V30 15899 C 1474.5 1.21297 4.14622 0
M  V30 15900 C 1473.63 0.596902 5.27836 0
M  V30 15901 C 1472.67 1.64803 5.89497 0
M  V30 15902 N 1471.81 1.05341 6.94152 0
M  V30 15903 H 1476.65 1.62464 2.49819 0
M  V30 15904 H 1474.19 0.811803 1.22671 0
M  V30 15905 H 1476.14 -0.210153 4.1667 0
M  V30 15906 H 1474.77 -0.721426 3.14635 0
M  V30 15907 H 1473.83 1.68403 3.41093 0
M  V30 15908 H 1475.14 2.00931 4.56539 0
M  V30 15909 H 1474.29 0.191724 6.06397 0
M  V30 15910 H 1473.03 -0.231052 4.87152 0
M  V30 15911 H 1472.04 2.06282 5.09635 0
M  V30 15912 H 1473.26 2.47855 6.32254 0
M  V30 15913 H 1471.21 0.24664 6.55536 0
M  V30 15914 H 1471.12 1.7868 7.34581 0
M  V30 15915 H 1472.39 0.674253 7.76578 0
M  V30 15916 N 1476.62 -1.31073 0.875073 0
M  V30 15917 C 1477.9 -1.91276 0.409015 0
M  V30 15918 C 1478.28 -1.79599 -1.10939 0
M  V30 15919 O 1477.63 -1.2069 -1.94026 0
M  V30 15920 C 1477.84 -3.373 0.896074 0
M  V30 15921 C 1479.18 -4.14397 0.925205 0
M  V30 15922 O 1480.21 -3.46104 0.842069 0
M  V30 15923 O 1479.07 -5.36389 1.0464 0
M  V30 15924 H 1476.16 -0.817755 0.12331 0
M  V30 15925 H 1478.71 -1.39708 0.963322 0
M  V30 15926 H 1477.48 -3.39837 1.93975 0
M  V30 15927 H 1477.1 -3.96307 0.320367 0
M  V30 15928 N 1478.1 -0.635022 -1.4424 0
M  V30 15929 C 1479.05 0.0797218 -2.32463 0
M  V30 15930 C 1480.04 0.831818 -1.47571 0
M  V30 15931 O 1481.25 0.744277 -1.63892 0
M  V30 15932 H 1477.62 0.0445532 -0.750679 0
M  V30 15933 H 1479.59 -0.682374 -2.90493 0
M  V30 15934 C 1478.34 1.04505 -3.31623 0
M  V30 15935 H 1477.67 0.475755 -3.96959 0
M  V30 15936 H 1479.11 1.51458 -3.96026 0
M  V30 15937 C 1477.57 2.13221 -2.60842 0
M  V30 15938 O 1478.1 3.21357 -2.41025 0
M  V30 15939 N 1476.3 1.89264 -2.20516 0
M  V30 15940 H 1475.85 1.01329 -2.36834 0
M  V30 15941 H 1475.81 2.62203 -1.73484 0
M  V30 15942 N 1479.58 1.53054 -0.375806 0
M  V30 15943 C 1480.83 2.00584 0.211847 0
M  V30 15944 C 1481.14 1.26692 1.49025 0
M  V30 15945 O 1482.35 1.64863 2.15713 0
M  V30 15946 C 1480.8 3.57345 0.428074 0
M  V30 15947 C 1480.41 4.40125 -0.836299 0
M  V30 15948 C 1482.15 4.13203 0.972825 0
M  V30 15949 C 1480.06 5.88459 -0.589093 0
M  V30 15950 H 1478.99 0.749424 0.0829412 0
M  V30 15951 H 1481.64 1.76666 -0.496126 0
M  V30 15952 H 1480.02 3.77458 1.19756 0
M  V30 15953 H 1481.2 4.31782 -1.60936 0
M  V30 15954 H 1479.51 3.95422 -1.30501 0
M  V30 15955 H 1482.11 5.21669 1.17326 0
M  V30 15956 H 1482.45 3.68441 1.93797 0
M  V30 15957 H 1482.99 3.96928 0.263249 0
M  V30 15958 H 1479.73 6.37517 -1.52485 0
M  V30 15959 H 1479.25 5.99624 0.145285 0
M  V30 15960 H 1480.92 6.46631 -0.218485 0
M  V30 15961 N 1481.06 0.105248 1.57248 0
M  V30 15962 C 1482.28 -0.567515 1.99484 0
M  V30 15963 C 1482.71 -1.60298 0.984182 0
M  V30 15964 O 1482.06 -1.81242 -0.0459944 0
M  V30 15965 C 1482.11 -1.18271 3.40653 0
M  V30 15966 O 1481.22 -2.29843 3.42412 0
M  V30 15967 H 1480.56 -0.143069 0.648404 0
M  V30 15968 H 1483.09 0.189661 2.03719 0
M  V30 15969 H 1483.1 -1.52157 3.78566 0
M  V30 15970 H 1481.77 -0.424179 4.13731 0
M  V30 15971 H 1480.35 -1.975 3.16304 0
M  V30 15972 N 1482.53 -1.56697 -0.168486 0
M  V30 15973 C 1483.81 -1.73032 -0.912097 0
M  V30 15974 C 1484.19 -0.667424 -2.00271 0
M  V30 15975 O 1483.54 0.317307 -2.26286 0
M  V30 15976 C 1483.75 -3.16334 -1.47424 0
M  V30 15977 C 1485.1 -3.77378 -1.94606 0
M  V30 15978 O 1486.12 -3.19629 -1.57212 0
M  V30 15979 O 1484.98 -4.78781 -2.63497 0
M  V30 15980 H 1482.07 -0.706713 -0.429518 0
M  V30 15981 H 1484.62 -1.68981 -0.156093 0
M  V30 15982 H 1483.39 -3.85179 -0.689421 0
M  V30 15983 H 1483.02 -3.24723 -2.29435 0
M  V30 15984 N 1484.01 0.437135 -1.51416 0
M  V30 15985 C 1485.24 1.20723 -1.67659 0
M  V30 15986 C 1485.65 1.85476 -0.373547 0
M  V30 15987 O 1484.99 1.71516 0.657876 0
M  V30 15988 C 1485.06 2.33257 -2.73553 0
M  V30 15989 C 1484.72 1.8887 -4.16146 0
M  V30 15990 C 1485.72 1.39203 -5.00918 0
M  V30 15991 C 1483.4 1.96555 -4.62246 0
M  V30 15992 C 1485.4 0.978071 -6.29851 0
M  V30 15993 C 1483.08 1.54771 -5.91176 0
M  V30 15994 C 1484.08 1.05479 -6.74806 0
M  V30 15995 O 1483.77 0.64288 -8.01325 0
M  V30 15996 H 1483.5 0.36993 -0.565798 0
M  V30 15997 H 1486.05 0.524183 -1.98599 0
M  V30 15998 H 1484.28 3.04839 -2.37929 0
M  V30 15999 H 1485.97 2.95121 -2.78673 0
M  V30 16000 H 1486.74 1.3266 -4.66505 0
M  V30 16001 H 1482.62 2.33868 -3.97274 0
M  V30 16002 H 1486.16 0.592633 -6.95078 0
M  V30 16003 H 1482.06 1.60985 -6.25103 0
M  V30 16004 H 1482.83 0.768711 -8.14882 0
M  V30 16005 N 1485.49 1.41566 0.692592 0
M  V30 16006 C 1486.74 1.40381 1.44831 0
M  V30 16007 C 1487.05 0.0172068 1.95592 0
M  V30 16008 O 1488.26 -0.11726 2.71247 0
M  V30 16009 C 1486.71 2.46844 2.61908 0
M  V30 16010 C 1486.32 3.91426 2.17921 0
M  V30 16011 C 1488.07 2.548 3.39525 0
M  V30 16012 C 1485.97 4.89436 3.31974 0
M  V30 16013 H 1484.9 0.522062 0.544028 0
M  V30 16014 H 1487.55 1.67402 0.751589 0
M  V30 16015 H 1485.94 2.12959 3.33863 0
M  V30 16016 H 1487.11 4.34575 1.53236 0
M  V30 16017 H 1485.43 3.87158 1.5329 0
M  V30 16018 H 1488.02 3.25207 4.24434 0
M  V30 16019 H 1488.37 1.58579 3.84913 0
M  V30 16020 H 1488.9 2.87791 2.74629 0
M  V30 16021 H 1485.64 5.87071 2.91595 0
M  V30 16022 H 1485.16 4.50933 3.95499 0
M  V30 16023 H 1486.84 5.10331 3.97708 0
M  V30 16024 N 1486.97 -0.927146 1.27443 0
M  V30 16025 C 1487.92 -2.04917 1.10053 0
M  V30 16026 C 1488.91 -1.69384 0.0234668 0
M  V30 16027 O 1490.12 -1.79085 0.181228 0
M  V30 16028 H 1486.49 -0.671189 0.33913 0
M  V30 16029 H 1488.46 -2.16732 2.05109 0
M  V30 16030 C 1487.21 -3.39178 0.765072 0
M  V30 16031 H 1486.53 -3.67006 1.58577 0
M  V30 16032 H 1487.97 -4.18458 0.683266 0
M  V30 16033 C 1486.43 -3.32696 -0.530578 0
M  V30 16034 O 1486.96 -3.69967 -1.56484 0
M  V30 16035 N 1485.17 -2.85793 -0.526396 0
M  V30 16036 H 1484.72 -2.55658 0.315675 0
M  V30 16037 H 1484.67 -2.81838 -1.39337 0
M  V30 16038 N 1488.45 -1.09474 -1.13372 0
M  V30 16039 C 1489.39 -0.73458 -2.18798 0
M  V30 16040 C 1490.36 0.284433 -1.63647 0
M  V30 16041 O 1491.55 0.165958 -1.90077 0
M  V30 16042 C 1488.69 -0.161826 -3.4472 0
M  V30 16043 C 1487.8 -1.23494 -4.13973 0
M  V30 16044 C 1486.94 -0.624886 -5.27512 0
M  V30 16045 C 1485.98 -1.67927 -5.88614 0
M  V30 16046 N 1485.11 -1.09021 -6.93584 0
M  V30 16047 H 1489.95 -1.63787 -2.48954 0
M  V30 16048 H 1487.49 -0.818297 -1.22239 0
M  V30 16049 H 1489.45 0.188053 -4.16776 0
M  V30 16050 H 1488.08 0.70473 -3.15013 0
M  V30 16051 H 1487.13 -1.70209 -3.40196 0
M  V30 16052 H 1488.44 -2.0335 -4.55467 0
M  V30 16053 H 1487.6 -0.22388 -6.06287 0
M  V30 16054 H 1486.33 0.205214 -4.87268 0
M  V30 16055 H 1485.34 -2.08982 -5.08534 0
M  V30 16056 H 1486.56 -2.51204 -6.3093 0
M  V30 16057 H 1484.51 -0.281401 -6.55396 0
M  V30 16058 H 1484.43 -1.82573 -7.33623 0
M  V30 16059 H 1485.7 -0.715428 -7.7621 0
M  V30 16060 N 1489.92 1.30607 -0.882012 0
M  V30 16061 C 1491.17 1.96927 -0.509063 0
M  V30 16062 C 1491.53 1.6838 0.930903 0
M  V30 16063 O 1490.82 0.976464 1.64851 0
M  V30 16064 C 1491.01 3.50136 -0.716929 0
M  V30 16065 C 1490.84 3.93573 -2.17555 0
M  V30 16066 C 1489.61 4.19321 -2.81954 0
M  V30 16067 C 1491.81 4.06619 -3.14906 0
M  V30 16068 N 1489.79 4.49198 -4.18443 0
M  V30 16069 C 1491.16 4.40345 -4.36459 0
M  V30 16070 C 1493.22 3.89035 -3.10734 0
M  V30 16071 C 1491.92 4.58322 -5.54377 0
M  V30 16072 C 1493.95 4.08212 -4.27922 0
M  V30 16073 C 1493.31 4.42281 -5.4824 0
M  V30 16074 H 1489.41 0.745681 -0.23555 0
M  V30 16075 H 1491.99 1.57898 -1.13913 0
M  V30 16076 H 1490.16 3.88226 -0.116371 0
M  V30 16077 H 1491.89 4.03502 -0.311174 0
M  V30 16078 H 1488.65 4.12412 -2.32838 0
M  V30 16079 H 1489.07 4.68276 -4.88924 0
M  V30 16080 H 1493.72 3.61774 -2.18813 0
M  V30 16081 H 1491.43 4.84426 -6.46805 0
M  V30 16082 H 1495.02 3.96079 -4.2616 0
M  V30 16083 H 1493.9 4.56815 -6.37408 0
M  V30 16084 N 1491.4 0.642663 1.43901 0
M  V30 16085 C 1492.65 0.151778 2.0193 0
M  V30 16086 C 1492.98 -1.23052 1.50627 0
M  V30 16087 O 1492.23 -1.83305 0.685404 0
M  V30 16088 C 1492.53 0.100139 3.5726 0
M  V30 16089 C 1492.2 1.42276 4.27865 0
M  V30 16090 C 1490.86 1.78497 4.46869 0
M  V30 16091 C 1493.21 2.29526 4.67939 0
M  V30 16092 C 1490.54 3.01655 5.03211 0
M  V30 16093 C 1492.89 3.51966 5.25645 0
M  V30 16094 C 1491.56 3.88396 5.42867 0
M  V30 16095 H 1490.83 0.0555394 0.738916 0
M  V30 16096 H 1493.47 0.831273 1.72517 0
M  V30 16097 H 1491.78 -0.66277 3.86154 0
M  V30 16098 H 1493.47 -0.29638 3.99903 0
M  V30 16099 H 1490.06 1.13091 4.13411 0
M  V30 16100 H 1494.25 2.02835 4.52959 0
M  V30 16101 H 1489.5 3.29943 5.14731 0
M  V30 16102 H 1493.68 4.19799 5.55645 0
M  V30 16103 H 1491.31 4.83909 5.8629 0
M  V30 16104 N 1492.88 -1.52852 0.383918 0
M  V30 16105 C 1494.11 -2.06406 -0.202764 0
M  V30 16106 C 1494.53 -1.25421 -1.40183 0
M  V30 16107 O 1493.89 -0.277876 -1.79158 0
M  V30 16108 C 1493.94 -3.56281 -0.556414 0
M  V30 16109 O 1493.04 -3.77904 -1.65113 0
M  V30 16110 H 1492.38 -0.663523 -0.0251737 0
M  V30 16111 H 1494.91 -1.97074 0.54983 0
M  V30 16112 H 1494.92 -3.99629 -0.822249 0
M  V30 16113 H 1493.6 -4.14665 0.320253 0
M  V30 16114 H 1492.17 -3.46448 -1.37943 0
M  V30 16115 N 1494.36 -0.113586 -1.5719 0
M  V30 16116 C 1495.61 0.545507 -1.94183 0
M  V30 16117 C 1495.92 1.68176 -0.998816 0
M  V30 16118 O 1497.13 2.40324 -1.26319 0
M  V30 16119 C 1495.58 1.02178 -3.45091 0
M  V30 16120 C 1495.19 -0.0857195 -4.47918 0
M  V30 16121 C 1496.94 1.65255 -3.91013 0
M  V30 16122 C 1494.84 0.406946 -5.89998 0
M  V30 16123 H 1493.77 0.20755 -0.724872 0
M  V30 16124 H 1496.42 -0.192567 -1.82487 0
M  V30 16125 H 1494.81 1.81411 -3.52003 0
M  V30 16126 H 1495.98 -0.861821 -4.52669 0
M  V30 16127 H 1494.29 -0.622816 -4.11716 0
M  V30 16128 H 1496.89 2.0322 -4.94576 0
M  V30 16129 H 1497.23 2.52888 -3.30687 0
M  V30 16130 H 1497.77 0.925727 -3.86879 0
M  V30 16131 H 1494.51 -0.433199 -6.54067 0
M  V30 16132 H 1494.03 1.14965 -5.88679 0
M  V30 16133 H 1495.71 0.869934 -6.41125 0
M  V30 16134 N 1495.84 1.56784 0.160173 0
M  V30 16135 C 1497.07 1.86767 0.89026 0
M  V30 16136 C 1497.48 0.700276 1.75333 0
M  V30 16137 O 1496.84 -0.330342 1.79485 0
M  V30 16138 C 1496.89 3.15883 1.75784 0
M  V30 16139 O 1496.61 4.28124 0.929575 0
M  V30 16140 C 1498.11 3.5929 2.59664 0
M  V30 16141 H 1495.33 0.61938 0.258088 0
M  V30 16142 H 1497.87 2.03897 0.156919 0
M  V30 16143 H 1496.03 3.00546 2.4444 0
M  V30 16144 H 1496.44 5.01872 1.52397 0
M  V30 16145 H 1497.92 4.52506 3.16136 0
M  V30 16146 H 1498.39 2.83943 3.35072 0
M  V30 16147 H 1499 3.77277 1.96323 0
M  V30 16148 N 1497.32 -0.429099 1.51646 0
M  V30 16149 C 1498.56 -1.17482 1.63954 0
M  V30 16150 C 1498.88 -1.92152 0.36565 0
M  V30 16151 O 1500.08 -2.68991 0.368221 0
M  V30 16152 C 1498.54 -2.13703 2.89585 0
M  V30 16153 C 1498.15 -1.44642 4.24008 0
M  V30 16154 C 1499.89 -2.88657 3.11252 0
M  V30 16155 C 1497.8 -2.39395 5.40781 0
M  V30 16156 H 1496.73 -0.442234 0.610692 0
M  V30 16157 H 1499.38 -0.441088 1.7812 0
M  V30 16158 H 1497.76 -2.90545 2.69071 0
M  V30 16159 H 1498.94 -0.733012 4.54932 0
M  V30 16160 H 1497.25 -0.818084 4.08285 0
M  V30 16161 H 1499.85 -3.59653 3.95669 0
M  V30 16162 H 1500.19 -3.50473 2.24664 0
M  V30 16163 H 1500.72 -2.18919 3.32144 0
M  V30 16164 H 1497.46 -1.82255 6.29653 0
M  V30 16165 H 1496.98 -3.08766 5.14222 0
M  V30 16166 H 1498.66 -3.0035 5.73061 0
M  V30 16167 N 1498.79 -1.41931 -0.685074 0
M  V30 16168 C 1500.02 -1.45229 -1.47364 0
M  V30 16169 C 1500.44 -0.060595 -1.88703 0
M  V30 16170 O 1499.79 0.92244 -1.57472 0
M  V30 16171 C 1499.84 -2.37033 -2.72942 0
M  V30 16172 O 1499.57 -3.70787 -2.33342 0
M  V30 16173 C 1501.07 -2.49244 -3.66596 0
M  V30 16174 H 1498.29 -0.494291 -0.453781 0
M  V30 16175 H 1500.83 -1.86333 -0.84263 0
M  V30 16176 H 1498.99 -1.9921 -3.32256 0
M  V30 16177 H 1499.4 -4.19853 -3.14362 0
M  V30 16178 H 1500.87 -3.17624 -4.51463 0
M  V30 16179 H 1501.35 -1.52703 -4.11799 0
M  V30 16180 H 1501.96 -2.87747 -3.1318 0
M  V30 16181 N 1500.27 0.920374 -1.27933 0
M  V30 16182 C 1501.22 2.04331 -1.11138 0
M  V30 16183 C 1502.21 1.69369 -0.0324493 0
M  V30 16184 O 1503.42 1.78987 -0.190723 0
M  V30 16185 H 1499.79 0.669381 -0.342685 0
M  V30 16186 H 1501.77 2.15641 -2.06256 0
M  V30 16187 C 1500.51 3.38768 -0.783049 0
M  V30 16188 H 1499.84 3.6616 -1.60521 0
M  V30 16189 H 1501.28 4.1809 -0.705448 0
M  V30 16190 C 1499.74 3.32972 0.512927 0
M  V30 16191 O 1500.27 3.70792 1.54519 0
M  V30 16192 N 1498.47 2.86068 0.511232 0
M  V30 16193 H 1498.02 2.55487 -0.329229 0
M  V30 16194 H 1497.98 2.82573 1.3784 0
M  V30 16195 N 1501.75 1.10074 1.1279 0
M  V30 16196 C 1503.03 0.753069 1.80522 0
M  V30 16197 C 1503.41 -0.760982 1.96907 0
M  V30 16198 O 1502.75 -1.68584 1.54245 0
M  V30 16199 C 1502.96 1.49982 3.15129 0
M  V30 16200 C 1504.31 1.66993 3.90382 0
M  V30 16201 O 1505.34 1.46289 3.24774 0
M  V30 16202 O 1504.2 2.01293 5.08078 0
M  V30 16203 H 1501.29 0.271277 0.781241 0
M  V30 16204 H 1503.84 1.20333 1.19658 0
M  V30 16205 H 1502.61 2.53043 2.98471 0
M  V30 16206 H 1502.23 1.04217 3.83699 0
M  V30 16207 N 1503.23 -1.30138 0.888926 0
M  V30 16208 C 1504.64 -1.48552 0.583486 0
M  V30 16209 C 1504.84 -1.81376 -0.877781 0
M  V30 16210 O 1503.9 -1.90374 -1.65873 0
M  V30 16211 C 1505.21 -2.60613 1.50004 0
M  V30 16212 C 1506.76 -2.74493 1.50409 0
M  V30 16213 C 1507.24 -3.89672 2.40666 0
M  V30 16214 N 1508.73 -3.96988 2.38652 0
M  V30 16215 C 1509.46 -4.85429 3.05199 0
M  V30 16216 N 1508.96 -5.78638 3.80985 0
M  V30 16217 N 1510.75 -4.78831 2.9441 0
M  V30 16218 H 1502.9 -1.07105 1.83418 0
M  V30 16219 H 1505.16 -0.530991 0.785336 0
M  V30 16220 H 1504.87 -2.43191 2.54069 0
M  V30 16221 H 1504.74 -3.5718 1.21254 0
M  V30 16222 H 1507.13 -2.91318 0.470933 0
M  V30 16223 H 1507.21 -1.78535 1.83191 0
M  V30 16224 H 1506.86 -3.73603 3.44069 0
M  V30 16225 H 1506.79 -4.84975 2.05198 0
M  V30 16226 H 1509.28 -3.30313 1.83581 0
M  V30 16227 H 1509.59 -6.42894 4.28844 0
M  V30 16228 H 1507.94 -5.78558 3.85092 0
M  V30 16229 H 1511.13 -4.04995 2.34727 0
M  V30 16230 H 1511.3 -5.47547 3.46549 0
M  V30 16231 N 1504.71 -0.650285 -1.43559 0
M  V30 16232 C 1505.64 0.0295939 -2.33481 0
M  V30 16233 C 1506.62 0.815017 -1.49303 0
M  V30 16234 O 1507.8 0.77708 -1.77975 0
M  V30 16235 C 1504.93 0.998683 -3.32631 0
M  V30 16236 C 1503.89 0.323577 -4.26775 0
M  V30 16237 C 1503.21 1.40391 -5.1594 0
M  V30 16238 C 1504.51 -0.782197 -5.1641 0
M  V30 16239 H 1506.21 -0.721349 -2.9058 0
M  V30 16240 H 1503.75 -0.348339 -1.39723 0
M  V30 16241 H 1505.7 1.4832 -3.94435 0
M  V30 16242 H 1504.43 1.78075 -2.73782 0
M  V30 16243 H 1503.09 -0.140467 -3.66331 0
M  V30 16244 H 1502.74 2.17734 -4.53432 0
M  V30 16245 H 1502.44 0.957462 -5.79747 0
M  V30 16246 H 1503.96 1.88985 -5.80618 0
M  V30 16247 H 1505.37 -0.379966 -5.72039 0
M  V30 16248 H 1503.77 -1.15293 -5.88921 0
M  V30 16249 H 1504.84 -1.6414 -4.56274 0
M  V30 16250 N 1506.18 1.52647 -0.392018 0
M  V30 16251 C 1507.43 2.01215 0.188926 0
M  V30 16252 C 1507.75 1.28019 1.47092 0
M  V30 16253 O 1507.02 0.401048 1.91751 0
M  V30 16254 H 1505.6 0.743444 0.0728049 0
M  V30 16255 H 1508.26 1.87715 -0.524332 0
M  V30 16256 H 1507.36 3.09562 0.397216 0
M  V30 16257 N 1507.66 0.121921 1.57128 0
M  V30 16258 C 1508.61 -0.844503 2.16728 0
M  V30 16259 C 1509.6 -1.2733 1.1173 0
M  V30 16260 O 1510.81 -1.2447 1.30028 0
M  V30 16261 H 1507.19 -0.290459 0.693641 0
M  V30 16262 H 1509.16 -0.317379 2.96707 0
M  V30 16263 C 1507.91 -2.08359 2.78356 0
M  V30 16264 H 1507.23 -1.76258 3.5885 0
M  V30 16265 H 1508.67 -2.73978 3.23592 0
M  V30 16266 C 1507.13 -2.87526 1.75586 0
M  V30 16267 O 1507.66 -3.83011 1.21101 0
M  V30 16268 N 1505.86 -2.51575 1.4546 0
M  V30 16269 H 1505.41 -1.73993 1.89958 0
M  V30 16270 H 1505.37 -3.0484 0.769411 0
M  V30 16271 N 1509.14 -1.56867 -0.151857 0
M  V30 16272 C 1510.1 -1.96997 -1.17152 0
M  V30 16273 C 1511.1 -0.855905 -1.36128 0
M  V30 16274 O 1512.29 -1.12261 -1.33203 0
M  V30 16275 C 1509.43 -2.28171 -2.5328 0
M  V30 16276 H 1510.62 -2.88261 -0.827365 0
M  V30 16277 H 1508.17 -1.51226 -0.395024 0
M  V30 16278 H 1508.91 -1.39683 -2.92676 0
M  V30 16279 H 1508.69 -3.09394 -2.40869 0
M  V30 16280 H 1510.18 -2.60073 -3.26729 0
M  V30 16281 N 1510.62 0.421051 -1.51871 0
M  V30 16282 C 1511.57 1.53277 -1.74954 0
M  V30 16283 C 1512.56 1.57792 -0.616282 0
M  V30 16284 O 1513.77 1.61342 -0.798054 0
M  V30 16285 H 1510.14 0.50953 -0.553067 0
M  V30 16286 H 1512.11 1.30988 -2.68113 0
M  V30 16287 C 1510.86 2.90772 -1.90649 0
M  V30 16288 H 1510.18 2.88035 -2.77265 0
M  V30 16289 H 1511.62 3.67882 -2.10805 0
M  V30 16290 C 1510.08 3.30161 -0.670463 0
M  V30 16291 O 1510.61 4.01352 0.167271 0
M  V30 16292 N 1508.82 2.86093 -0.509813 0
M  V30 16293 H 1508.37 2.28329 -1.19262 0
M  V30 16294 H 1508.32 3.12809 0.315918 0
M  V30 16295 N 1512.1 1.42293 0.677538 0
M  V30 16296 C 1513.35 1.41909 1.43334 0
M  V30 16297 C 1513.66 0.037951 1.95563 0
M  V30 16298 O 1514.86 -0.0884836 2.71356 0
M  V30 16299 C 1513.32 2.49608 2.59275 0
M  V30 16300 C 1512.93 3.93716 2.13757 0
M  V30 16301 C 1514.67 2.58387 3.36803 0
M  V30 16302 C 1512.58 4.92929 3.26764 0
M  V30 16303 H 1511.51 0.527803 0.538461 0
M  V30 16304 H 1514.16 1.6819 0.733791 0
M  V30 16305 H 1512.54 2.16488 3.31585 0
M  V30 16306 H 1513.72 4.36176 1.48618 0
M  V30 16307 H 1512.03 3.88762 1.49175 0
M  V30 16308 H 1514.63 3.29691 4.20961 0
M  V30 16309 H 1514.97 1.62653 3.8321 0
M  V30 16310 H 1515.5 2.90688 2.71561 0
M  V30 16311 H 1512.24 5.90131 2.85352 0
M  V30 16312 H 1511.76 4.55103 3.90694 0
M  V30 16313 H 1513.44 5.1452 3.92273 0
M  V30 16314 N 1513.57 -0.913576 1.28419 0
M  V30 16315 C 1514.8 -1.69403 1.18263 0
M  V30 16316 C 1515.21 -1.87387 -0.26128 0
M  V30 16317 O 1514.56 -1.40082 -1.18839 0
M  V30 16318 C 1514.62 -3.1064 1.80951 0
M  V30 16319 C 1514.28 -3.15941 3.30198 0
M  V30 16320 C 1515.28 -2.97124 4.2663 0
M  V30 16321 C 1512.96 -3.38449 3.71157 0
M  V30 16322 C 1514.96 -3.00728 5.61998 0
M  V30 16323 C 1512.64 -3.41685 5.06651 0
M  V30 16324 C 1513.64 -3.22845 6.01881 0
M  V30 16325 O 1513.33 -3.25842 7.34903 0
M  V30 16326 H 1513.06 -0.536323 0.411502 0
M  V30 16327 H 1515.62 -1.15186 1.70063 0
M  V30 16328 H 1513.85 -3.664 1.23645 0
M  V30 16329 H 1515.54 -3.70712 1.6531 0
M  V30 16330 H 1516.3 -2.79562 3.96321 0
M  V30 16331 H 1512.18 -3.52158 2.97499 0
M  V30 16332 H 1515.72 -2.85941 6.36304 0
M  V30 16333 H 1511.62 -3.58775 5.3661 0
M  V30 16334 H 1512.39 -3.42203 7.43532 0
M  V30 16335 N 1515.05 -1.1067 -1.12204 0
M  V30 16336 C 1516.3 -0.845439 -1.83126 0
M  V30 16337 C 1516.61 0.631022 -1.85142 0
M  V30 16338 O 1517.82 1.00827 -2.52084 0
M  V30 16339 C 1516.28 -1.46265 -3.28838 0
M  V30 16340 C 1515.88 -2.97258 -3.35174 0
M  V30 16341 C 1517.63 -1.28088 -4.04714 0
M  V30 16342 C 1515.54 -3.52002 -4.75235 0
M  V30 16343 H 1514.47 -0.312617 -0.686139 0
M  V30 16344 H 1517.12 -1.33098 -1.26321 0
M  V30 16345 H 1515.5 -0.904781 -3.85525 0
M  V30 16346 H 1516.67 -3.59381 -2.88413 0
M  V30 16347 H 1514.99 -3.14617 -2.72773 0
M  V30 16348 H 1517.58 -1.6643 -5.08139 0
M  V30 16349 H 1517.93 -0.222682 -4.15704 0
M  V30 16350 H 1518.46 -1.80696 -3.54392 0
M  V30 16351 H 1515.2 -4.57499 -4.69441 0
M  V30 16352 H 1514.72 -2.94648 -5.22439 0
M  V30 16353 H 1516.4 -3.49967 -5.4418 0
M  V30 16354 N 1516.53 1.29665 -0.895815 0
M  V30 16355 C 1517.48 2.29791 -0.360404 0
M  V30 16356 C 1518.47 1.60617 0.538384 0
M  V30 16357 O 1519.68 1.74993 0.421616 0
M  V30 16358 H 1516.05 0.745599 -0.0979118 0
M  V30 16359 H 1518.02 2.72396 -1.21832 0
M  V30 16360 C 1516.77 3.45386 0.400451 0
M  V30 16361 H 1516.1 3.98805 -0.281915 0
M  V30 16362 H 1517.54 4.17492 0.740003 0
M  V30 16363 C 1516 2.96393 1.60165 0
M  V30 16364 O 1516.53 2.97339 2.70097 0
M  V30 16365 N 1514.73 2.52271 1.44249 0
M  V30 16366 H 1514.28 2.51701 0.548142 0
M  V30 16367 H 1514.24 2.19849 2.24753 0
M  V30 16368 N 1518.01 0.657889 1.43212 0
M  V30 16369 C 1519.26 0.172845 2.0136 0
M  V30 16370 C 1519.58 -1.21911 1.52193 0
M  V30 16371 O 1518.85 -1.81529 0.736492 0
M  V30 16372 H 1517.43 0.0609091 0.744513 0
M  V30 16373 H 1520.09 0.850605 1.75359 0
M  V30 16374 H 1519.19 0.161062 3.11684 0
M  V30 16375 N 1519.49 -1.52437 0.400108 0
M  V30 16376 C 1520.71 -2.0661 -0.180861 0
M  V30 16377 C 1521.14 -1.269 -1.38845 0
M  V30 16378 O 1520.49 -0.296862 -1.78853 0
M  V30 16379 C 1520.54 -3.56851 -0.518595 0
M  V30 16380 O 1519.65 -3.79634 -1.61095 0
M  V30 16381 H 1518.99 -0.663752 -0.0181348 0
M  V30 16382 H 1521.52 -1.96479 0.570702 0
M  V30 16383 H 1521.53 -4.00478 -0.779817 0
M  V30 16384 H 1520.2 -4.14302 0.364216 0
M  V30 16385 H 1518.78 -3.47892 -1.3426 0
M  V30 16386 N 1520.96 -0.130252 -1.57061 0
M  V30 16387 C 1521.89 0.812189 -2.18919 0
M  V30 16388 C 1522.88 1.2692 -1.13249 0
M  V30 16389 O 1524.06 1.32978 -1.41529 0
M  V30 16390 C 1521.19 2.05803 -2.79754 0
M  V30 16391 C 1520.14 1.73841 -3.91105 0
M  V30 16392 C 1519.47 3.05549 -4.38799 0
M  V30 16393 C 1520.77 0.997991 -5.12677 0
M  V30 16394 H 1522.46 0.296692 -2.97926 0
M  V30 16395 H 1520.01 0.141265 -1.43305 0
M  V30 16396 H 1521.96 2.72201 -3.21691 0
M  V30 16397 H 1520.69 2.59697 -1.98053 0
M  V30 16398 H 1519.35 1.09828 -3.49762 0
M  V30 16399 H 1518.99 3.57399 -3.53942 0
M  V30 16400 H 1518.69 2.84932 -5.13894 0
M  V30 16401 H 1520.22 3.73045 -4.83394 0
M  V30 16402 H 1521.63 1.56372 -5.51562 0
M  V30 16403 H 1520.03 0.892378 -5.93428 0
M  V30 16404 H 1521.1 -0.0132936 -4.84898 0
M  V30 16405 N 1522.44 1.56945 0.143535 0
M  V30 16406 C 1523.39 1.98526 1.17711 0
M  V30 16407 C 1524.36 0.853402 1.425 0
M  V30 16408 O 1525.55 1.11574 1.54777 0
M  V30 16409 C 1522.69 2.37395 2.50475 0
M  V30 16410 C 1521.8 3.63887 2.32831 0
M  V30 16411 C 1520.93 3.91844 3.58653 0
M  V30 16412 C 1519.97 5.11595 3.36061 0
M  V30 16413 N 1519.11 5.35545 4.54022 0
M  V30 16414 H 1523.95 2.86624 0.815524 0
M  V30 16415 H 1521.49 1.41802 0.391231 0
M  V30 16416 H 1523.44 2.5796 3.27891 0
M  V30 16417 H 1522.07 1.52372 2.84575 0
M  V30 16418 H 1521.13 3.51078 1.46452 0
M  V30 16419 H 1522.44 4.51459 2.12098 0
M  V30 16420 H 1521.59 4.12926 4.44497 0
M  V30 16421 H 1520.33 3.027 3.82393 0
M  V30 16422 H 1519.34 4.90383 2.48606 0
M  V30 16423 H 1520.56 6.02295 3.13716 0
M  V30 16424 H 1518.51 4.49355 4.77929 0
M  V30 16425 H 1518.42 6.17393 4.36305 0
M  V30 16426 H 1519.69 5.61127 5.4107 0
M  V30 16427 N 1523.92 -0.412991 1.52093 0
M  V30 16428 C 1524.87 -1.50294 1.75158 0
M  V30 16429 C 1525.84 -1.55119 0.593902 0
M  V30 16430 O 1527.02 -1.71751 0.831032 0
M  V30 16431 C 1524.16 -2.87781 1.90463 0
M  V30 16432 C 1523.28 -2.92295 3.181 0
M  V30 16433 C 1522.41 -4.21056 3.23859 0
M  V30 16434 C 1521.45 -4.1953 4.45714 0
M  V30 16435 N 1520.59 -5.39857 4.48886 0
M  V30 16436 H 1525.43 -1.29927 2.68185 0
M  V30 16437 H 1522.96 -0.630741 1.32891 0
M  V30 16438 H 1524.92 -3.67588 1.9732 0
M  V30 16439 H 1523.55 -3.06651 1.00822 0
M  V30 16440 H 1522.6 -2.05002 3.20434 0
M  V30 16441 H 1523.92 -2.87031 4.0794 0
M  V30 16442 H 1523.07 -5.09253 3.29767 0
M  V30 16443 H 1521.81 -4.2901 2.31952 0
M  V30 16444 H 1520.81 -3.29724 4.39957 0
M  V30 16445 H 1522.04 -4.1322 5.38912 0
M  V30 16446 H 1519.99 -5.48486 3.59861 0
M  V30 16447 H 1519.9 -5.36572 5.32566 0
M  V30 16448 H 1521.17 -6.30018 4.59018 0
M  V30 16449 N 1525.4 -1.4265 -0.669982 0
M  V30 16450 C 1526.62 -1.46992 -1.46315 0
M  V30 16451 C 1527.05 -0.0840655 -1.87912 0
M  V30 16452 O 1526.41 0.918554 -1.56308 0
M  V30 16453 C 1526.46 -2.40663 -2.6854 0
M  V30 16454 O 1525.56 -1.88132 -3.66988 0
M  V30 16455 H 1524.9 -0.497844 -0.439372 0
M  V30 16456 H 1527.43 -1.8739 -0.821348 0
M  V30 16457 H 1527.44 -2.57405 -3.16554 0
M  V30 16458 H 1526.12 -3.41346 -2.37604 0
M  V30 16459 H 1524.69 -1.80969 -3.26044 0
M  V30 16460 N 1526.88 0.906753 -1.28902 0
M  V30 16461 C 1527.79 2.04313 -1.15296 0
M  V30 16462 C 1528.8 1.73826 -0.0778619 0
M  V30 16463 O 1529.98 1.99322 -0.288543 0
M  V30 16464 C 1527.04 3.36782 -0.823317 0
M  V30 16465 C 1526.11 3.80834 -1.98152 0
M  V30 16466 C 1525.34 5.06981 -1.66751 0
M  V30 16467 O 1525.56 5.67391 -0.58513 0
M  V30 16468 O 1524.5 5.46915 -2.51332 0
M  V30 16469 H 1528.32 2.18713 -2.10709 0
M  V30 16470 H 1525.91 1.02928 -1.08287 0
M  V30 16471 H 1527.79 4.16298 -0.653735 0
M  V30 16472 H 1526.46 3.23542 0.101097 0
M  V30 16473 H 1525.37 3.02115 -2.2063 0
M  V30 16474 H 1526.7 3.98648 -2.88688 0
M  V30 16475 N 1528.36 1.11264 1.11616 0
M  V30 16476 C 1529.3 0.769295 2.17602 0
M  V30 16477 C 1530.27 -0.258362 1.64078 0
M  V30 16478 O 1531.46 -0.135698 1.90317 0
M  V30 16479 C 1528.6 0.216647 3.44419 0
M  V30 16480 C 1527.71 1.30064 4.11955 0
M  V30 16481 C 1526.85 0.708729 5.26451 0
M  V30 16482 C 1525.88 1.7727 5.85868 0
M  V30 16483 N 1525.02 1.20042 6.91762 0
M  V30 16484 H 1529.86 1.67727 2.46316 0
M  V30 16485 H 1527.4 0.83764 1.20921 0
M  V30 16486 H 1529.36 -0.121724 4.17022 0
M  V30 16487 H 1527.99 -0.654525 3.16095 0
M  V30 16488 H 1527.04 1.756 3.37445 0
M  V30 16489 H 1528.35 2.1057 4.52174 0
M  V30 16490 H 1527.5 0.320307 6.05854 0
M  V30 16491 H 1526.24 -0.127668 4.87533 0
M  V30 16492 H 1525.25 2.17046 5.05145 0
M  V30 16493 H 1526.47 2.6121 6.26854 0
M  V30 16494 H 1524.42 0.385633 6.54866 0
M  V30 16495 H 1524.34 1.94221 7.30626 0
M  V30 16496 H 1525.6 0.838825 7.74974 0
M  V30 16497 N 1529.83 -1.29188 0.902679 0
M  V30 16498 C 1531.08 -1.94718 0.526082 0
M  V30 16499 C 1531.4 -1.71924 -0.932816 0
M  V30 16500 O 1532.6 -2.31585 -1.41707 0
M  V30 16501 C 1531.06 -3.48723 0.889974 0
M  V30 16502 C 1530.67 -3.80312 2.36784 0
M  V30 16503 C 1532.41 -4.20472 0.58343 0
M  V30 16504 C 1530.32 -5.27574 2.67244 0
M  V30 16505 H 1529.25 -0.728875 0.193019 0
M  V30 16506 H 1531.9 -1.46869 1.10008 0
M  V30 16507 H 1530.28 -3.95242 0.244872 0
M  V30 16508 H 1531.45 -3.44641 3.05875 0
M  V30 16509 H 1529.77 -3.21709 2.64371 0
M  V30 16510 H 1532.37 -5.28864 0.787813 0
M  V30 16511 H 1532.71 -4.13544 -0.478204 0
M  V30 16512 H 1533.24 -3.79693 1.1865 0
M  V30 16513 H 1529.98 -5.39569 3.72217 0
M  V30 16514 H 1529.5 -5.64482 2.0278 0
M  V30 16515 H 1531.18 -5.95199 2.53666 0
M  V30 16516 N 1531.31 -0.665475 -1.42861 0
M  V30 16517 C 1532.24 0.00482845 -2.335 0
M  V30 16518 C 1533.22 0.799135 -1.50159 0
M  V30 16519 O 1534.41 0.75816 -1.78789 0
M  V30 16520 C 1531.54 0.963347 -3.33672 0
M  V30 16521 C 1530.49 0.278294 -4.27094 0
M  V30 16522 C 1529.82 1.34911 -5.174 0
M  V30 16523 C 1531.12 -0.836925 -5.15551 0
M  V30 16524 H 1532.81 -0.752129 -2.89799 0
M  V30 16525 H 1530.36 -0.363139 -1.39346 0
M  V30 16526 H 1532.31 1.44128 -3.95986 0
M  V30 16527 H 1531.03 1.75161 -2.75656 0
M  V30 16528 H 1529.69 -0.179314 -3.66161 0
M  V30 16529 H 1529.34 2.12912 -4.55716 0
M  V30 16530 H 1529.04 0.895919 -5.8073 0
M  V30 16531 H 1530.57 1.82816 -5.8259 0
M  V30 16532 H 1531.98 -0.440617 -5.71604 0
M  V30 16533 H 1530.38 -1.21533 -5.87665 0
M  V30 16534 H 1531.45 -1.6897 -4.54507 0
M  V30 16535 N 1532.79 1.52222 -0.408187 0
M  V30 16536 C 1533.74 2.28544 0.432458 0
M  V30 16537 C 1534.73 1.33198 1.04665 0
M  V30 16538 O 1535.94 1.50661 0.984954 0
M  V30 16539 H 1532.31 0.735162 0.158241 0
M  V30 16540 H 1534.28 2.97493 -0.232482 0
M  V30 16541 C 1533.03 3.11864 1.53741 0
M  V30 16542 H 1532.36 3.851 1.07414 0
M  V30 16543 H 1533.8 3.68374 2.09945 0
M  V30 16544 C 1532.25 2.25367 2.50423 0
M  V30 16545 O 1532.78 1.89329 3.54285 0
M  V30 16546 N 1530.99 1.89155 2.2061 0
M  V30 16547 H 1530.54 2.18661 1.36181 0
M  V30 16548 H 1530.5 1.31574 2.85544 0
M  V30 16549 N 1534.27 0.138579 1.5699 0
M  V30 16550 C 1535.2 -0.800568 2.19347 0
M  V30 16551 C 1536.18 -1.26318 1.13921 0
M  V30 16552 O 1537.36 -1.32226 1.42232 0
M  V30 16553 C 1534.49 -2.04317 2.80842 0
M  V30 16554 C 1533.45 -1.71764 3.92022 0
M  V30 16555 C 1532.77 -3.03217 4.40413 0
M  V30 16556 C 1534.07 -0.970789 5.13199 0
M  V30 16557 H 1535.77 -0.280888 2.98079 0
M  V30 16558 H 1533.31 -0.133663 1.43378 0
M  V30 16559 H 1535.27 -2.70491 3.2313 0
M  V30 16560 H 1533.99 -2.58643 1.99428 0
M  V30 16561 H 1532.65 -1.07972 3.50339 0
M  V30 16562 H 1532.3 -3.55517 3.55832 0
M  V30 16563 H 1532 -2.82203 5.15398 0
M  V30 16564 H 1533.52 -3.70477 4.85365 0
M  V30 16565 H 1534.94 -1.53445 5.52384 0
M  V30 16566 H 1533.33 -0.860895 5.93893 0
M  V30 16567 H 1534.4 0.0390088 4.84884 0
M  V30 16568 N 1535.75 -1.57019 -0.13521 0
M  V30 16569 C 1537.02 -1.74928 -0.875189 0
M  V30 16570 C 1537.4 -0.709755 -1.98811 0
M  V30 16571 O 1536.75 0.269237 -2.26908 0
M  V30 16572 C 1536.96 -3.1939 -1.40681 0
M  V30 16573 C 1538.31 -3.8142 -1.86557 0
M  V30 16574 O 1539.33 -3.22892 -1.50397 0
M  V30 16575 O 1538.19 -4.84263 -2.53282 0
M  V30 16576 H 1535.29 -0.715665 -0.414431 0
M  V30 16577 H 1537.83 -1.69274 -0.120215 0
M  V30 16578 H 1536.6 -3.86554 -0.607564 0
M  V30 16579 H 1536.23 -3.29517 -2.22496 0
M  V30 16580 N 1537.22 0.404919 -1.52309 0
M  V30 16581 C 1538.64 0.743846 -1.41206 0
M  V30 16582 C 1538.84 1.94678 -0.519874 0
M  V30 16583 O 1537.9 2.52497 0.0127417 0
M  V30 16584 C 1539.21 0.99384 -2.83802 0
M  V30 16585 C 1540.76 1.0963 -2.93173 0
M  V30 16586 C 1541.23 1.37902 -4.36746 0
M  V30 16587 N 1542.72 1.44758 -4.39999 0
M  V30 16588 C 1543.46 1.68269 -5.48154 0
M  V30 16589 N 1542.95 1.89356 -6.6642 0
M  V30 16590 N 1544.75 1.70318 -5.35675 0
M  V30 16591 H 1536.9 -0.386855 -2.08847 0
M  V30 16592 H 1539.16 -0.110811 -0.941501 0
M  V30 16593 H 1538.87 0.182249 -3.51227 0
M  V30 16594 H 1538.74 1.91287 -3.25099 0
M  V30 16595 H 1541.13 1.89847 -2.25925 0
M  V30 16596 H 1541.21 0.155539 -2.55327 0
M  V30 16597 H 1540.85 0.582004 -5.04554 0
M  V30 16598 H 1540.78 2.33237 -4.72132 0
M  V30 16599 H 1543.27 1.30235 -3.5475 0
M  V30 16600 H 1543.59 2.06758 -7.44628 0
M  V30 16601 H 1541.93 1.86612 -6.69478 0
M  V30 16602 H 1545.12 1.53385 -4.42256 0
M  V30 16603 H 1545.3 1.88302 -6.20037 0
M  V30 16604 N 1538.7 1.43003 0.662408 0
M  V30 16605 C 1539.95 1.43422 1.41821 0
M  V30 16606 C 1540.26 0.0586909 1.95512 0
M  V30 16607 O 1541.47 -0.0596978 2.71434 0
M  V30 16608 C 1539.93 2.52344 2.56613 0
M  V30 16609 C 1539.53 3.95961 2.09569 0
M  V30 16610 C 1541.28 2.61945 3.34044 0
M  V30 16611 C 1539.19 4.96367 3.21518 0
M  V30 16612 H 1538.12 0.533485 0.532832 0
M  V30 16613 H 1540.77 1.68958 0.715911 0
M  V30 16614 H 1539.15 2.19993 3.2927 0
M  V30 16615 H 1540.32 4.37728 1.43984 0
M  V30 16616 H 1538.64 3.90322 1.45044 0
M  V30 16617 H 1541.23 3.34137 4.17441 0
M  V30 16618 H 1541.58 1.66708 3.81463 0
M  V30 16619 H 1542.11 2.93552 2.68463 0
M  V30 16620 H 1538.85 5.93124 2.79077 0
M  V30 16621 H 1538.37 4.59221 3.85845 0
M  V30 16622 H 1540.05 5.18652 3.86793 0
M  V30 16623 N 1540.18 -0.899904 1.29381 0
M  V30 16624 C 1541.13 -2.02537 1.14375 0
M  V30 16625 C 1542.12 -1.69296 0.0593904 0
M  V30 16626 O 1543.33 -1.78661 0.219174 0
M  V30 16627 H 1539.7 -0.663844 0.353291 0
M  V30 16628 H 1541.67 -2.12332 2.0966 0
M  V30 16629 C 1540.42 -3.37479 0.836845 0
M  V30 16630 H 1539.75 -3.6356 1.66326 0
M  V30 16631 H 1541.19 -4.16915 0.771873 0
M  V30 16632 C 1539.65 -3.33746 -0.459889 0
M  V30 16633 O 1540.18 -3.73203 -1.48601 0
M  V30 16634 N 1538.38 -2.86845 -0.465657 0
M  V30 16635 H 1537.93 -2.54931 0.369833 0
M  V30 16636 H 1537.89 -2.8473 -1.33327 0
M  V30 16637 N 1541.66 -1.11854 -1.11024 0
M  V30 16638 C 1542.88 -0.892999 -1.8719 0
M  V30 16639 C 1543.31 0.552058 -1.79816 0
M  V30 16640 O 1542.67 1.39025 -1.16369 0
M  V30 16641 C 1542.71 -1.3647 -3.33779 0
M  V30 16642 O 1541.82 -0.539202 -4.0886 0
M  V30 16643 H 1541.16 -0.321319 -0.581076 0
M  V30 16644 H 1543.69 -1.4891 -1.4031 0
M  V30 16645 H 1543.7 -1.3611 -3.84627 0
M  V30 16646 H 1542.37 -2.41694 -3.38462 0
M  V30 16647 H 1540.95 -0.60927 -3.67889 0
M  V30 16648 N 1543.14 1.28707 -0.909517 0
M  V30 16649 C 1544.36 1.99821 -0.555557 0
M  V30 16650 C 1544.79 1.67549 0.854931 0
M  V30 16651 O 1544.14 0.905521 1.57067 0
M  V30 16652 C 1544.19 3.52361 -0.766438 0
M  V30 16653 O 1543.3 4.12022 0.17654 0
M  V30 16654 H 1542.64 0.627918 -0.215905 0
M  V30 16655 H 1545.17 1.63965 -1.2238 0
M  V30 16656 H 1545.18 4.02379 -0.674894 0
M  V30 16657 H 1543.85 3.75184 -1.7947 0
M  V30 16658 H 1542.43 3.72882 0.0366216 0
M  V30 16659 N 1544.61 0.673042 1.42506 0
M  V30 16660 C 1545.56 -0.0180603 2.32593 0
M  V30 16661 C 1546.56 -0.7924 1.49724 0
M  V30 16662 O 1547.76 -0.700563 1.65807 0
M  V30 16663 H 1544.14 -0.0246346 0.751596 0
M  V30 16664 H 1546.11 0.759153 2.88582 0
M  V30 16665 C 1544.86 -0.95676 3.34277 0
M  V30 16666 H 1544.18 -0.370341 3.98081 0
M  V30 16667 H 1545.62 -1.40905 3.99902 0
M  V30 16668 C 1544.08 -2.0623 2.66403 0
M  V30 16669 O 1544.61 -3.14853 2.4946 0
M  V30 16670 N 1542.82 -1.83351 2.25457 0
M  V30 16671 H 1542.36 -0.950141 2.39437 0
M  V30 16672 H 1542.32 -2.57511 1.80375 0
M  V30 16673 N 1546.09 -1.52004 0.416254 0
M  V30 16674 C 1547.37 -1.94403 -0.216103 0
M  V30 16675 C 1547.75 -1.35362 -1.61989 0
M  V30 16676 O 1547.1 -0.532242 -2.22215 0
M  V30 16677 C 1547.31 -3.48336 -0.215225 0
M  V30 16678 C 1548.66 -4.22406 -0.431109 0
M  V30 16679 O 1549.68 -3.54982 -0.294271 0
M  V30 16680 O 1548.54 -5.4198 -0.70145 0
M  V30 16681 H 1545.63 -0.814838 -0.141306 0
M  V30 16682 H 1548.18 -1.62983 0.472712 0
M  V30 16683 H 1546.95 -3.83709 0.767004 0
M  V30 16684 H 1546.57 -3.86137 -0.947841 0
M  V30 16685 N 1547.57 -0.146903 -1.56914 0
M  V30 16686 C 1548.82 0.504195 -1.95297 0
M  V30 16687 C 1549.13 1.66019 -1.03426 0
M  V30 16688 O 1550.34 2.37591 -1.31388 0
M  V30 16689 C 1548.79 0.948348 -3.47181 0
M  V30 16690 C 1548.4 -0.18071 -4.47635 0
M  V30 16691 C 1550.15 1.56924 -3.9443 0
M  V30 16692 C 1548.05 0.281707 -5.90729 0
M  V30 16693 H 1546.98 0.192127 -0.729111 0
M  V30 16694 H 1549.63 -0.231232 -1.82037 0
M  V30 16695 H 1548.02 1.73903 -3.55772 0
M  V30 16696 H 1549.19 -0.957645 -4.50739 0
M  V30 16697 H 1547.51 -0.710007 -4.10302 0
M  V30 16698 H 1550.1 1.92684 -4.98776 0
M  V30 16699 H 1550.45 2.45816 -3.35976 0
M  V30 16700 H 1550.98 0.843456 -3.88755 0
M  V30 16701 H 1547.72 -0.571839 -6.53001 0
M  V30 16702 H 1547.24 1.02452 -5.90985 0
M  V30 16703 H 1548.92 0.733746 -6.42826 0
M  V30 16704 N 1549.05 1.57088 0.126881 0
M  V30 16705 C 1550.33 1.7539 0.8659 0
M  V30 16706 C 1550.71 0.720288 1.98432 0
M  V30 16707 O 1550.05 -0.2572 2.27048 0
M  V30 16708 C 1550.26 3.20131 1.38985 0
M  V30 16709 C 1551.61 3.82404 1.84532 0
M  V30 16710 O 1552.64 3.23685 1.48682 0
M  V30 16711 O 1551.49 4.85599 2.50711 0
M  V30 16712 H 1548.59 0.717853 0.41063 0
M  V30 16713 H 1551.13 1.69335 0.111236 0
M  V30 16714 H 1549.91 3.86871 0.587056 0
M  V30 16715 H 1549.53 3.30692 2.20745 0
M  V30 16716 N 1550.53 -0.396836 1.52522 0
M  V30 16717 C 1551.77 -1.14263 1.67183 0
M  V30 16718 C 1552.1 -1.90176 0.407845 0
M  V30 16719 O 1551.36 -1.85965 -0.609553 0
M  V30 16720 C 1551.66 -2.15308 2.85267 0
M  V30 16721 C 1551.32 -1.56111 4.23013 0
M  V30 16722 C 1549.98 -1.39692 4.60478 0
M  V30 16723 C 1552.34 -1.12998 5.08803 0
M  V30 16724 C 1549.66 -0.786963 5.81398 0
M  V30 16725 C 1552.02 -0.534159 6.30341 0
M  V30 16726 C 1550.68 -0.357204 6.66544 0
M  V30 16727 H 1549.95 -0.418118 0.611766 0
M  V30 16728 H 1552.6 -0.428255 1.8665 0
M  V30 16729 H 1550.9 -2.92935 2.60185 0
M  V30 16730 H 1552.6 -2.72908 2.93806 0
M  V30 16731 H 1549.19 -1.69876 3.93497 0
M  V30 16732 H 1553.37 -1.24488 4.80434 0
M  V30 16733 H 1548.63 -0.63799 6.08062 0
M  V30 16734 H 1552.8 -0.191759 6.96136 0
M  V30 16735 H 1550.43 0.117528 7.60109 0
M  V30 16736 N 1552.01 -1.43353 -0.654814 0
M  V30 16737 C 1552.95 -1.48387 -1.76776 0
M  V30 16738 C 1553.92 -0.333755 -1.62712 0
M  V30 16739 O 1555.11 -0.540683 -1.82979 0
M  V30 16740 C 1552.25 -1.41132 -3.14922 0
M  V30 16741 C 1551.36 -2.66336 -3.40131 0
M  V30 16742 C 1550.5 -2.5108 -4.68116 0
M  V30 16743 C 1549.53 -3.71561 -4.86425 0
M  V30 16744 N 1548.67 -3.55125 -6.05666 0
M  V30 16745 H 1553.51 -2.43487 -1.71808 0
M  V30 16746 H 1551.05 -1.20866 -0.838442 0
M  V30 16747 H 1553.01 -1.3492 -3.94782 0
M  V30 16748 H 1551.64 -0.496149 -3.18964 0
M  V30 16749 H 1550.69 -2.82834 -2.5438 0
M  V30 16750 H 1552 -3.55835 -3.49546 0
M  V30 16751 H 1551.15 -2.42567 -5.56099 0
M  V30 16752 H 1549.89 -1.59103 -4.61018 0
M  V30 16753 H 1548.9 -3.80484 -3.96877 0
M  V30 16754 H 1550.12 -4.64545 -4.95353 0
M  V30 16755 H 1548.07 -2.65881 -5.99703 0
M  V30 16756 H 1547.99 -4.38224 -6.16032 0
M  V30 16757 H 1549.25 -3.5046 -6.96274 0
M  V30 16758 N 1553.48 0.89303 -1.29857 0
M  V30 16759 C 1554.41 2.01422 -1.18117 0
M  V30 16760 C 1555.39 1.6994 -0.0737487 0
M  V30 16761 O 1556.58 1.92527 -0.254387 0
M  V30 16762 C 1553.71 3.36385 -0.863842 0
M  V30 16763 C 1552.66 3.821 -1.92831 0
M  V30 16764 C 1551.99 5.14263 -1.46415 0
M  V30 16765 C 1553.29 4.01699 -3.33819 0
M  V30 16766 H 1554.98 2.11502 -2.11913 0
M  V30 16767 H 1552.53 1.01622 -1.02024 0
M  V30 16768 H 1554.48 4.14335 -0.768397 0
M  V30 16769 H 1553.21 3.26415 0.109816 0
M  V30 16770 H 1551.87 3.06372 -2.01325 0
M  V30 16771 H 1551.51 5.00714 -0.478983 0
M  V30 16772 H 1551.21 5.45821 -2.17609 0
M  V30 16773 H 1552.74 5.94747 -1.38234 0
M  V30 16774 H 1554.15 4.70111 -3.28129 0
M  V30 16775 H 1552.55 4.44621 -4.03029 0
M  V30 16776 H 1553.62 3.05816 -3.76304 0
M  V30 16777 N 1554.96 1.12442 1.10429 0
M  V30 16778 C 1556.21 0.874466 1.81758 0
M  V30 16779 C 1556.52 -0.601487 1.86122 0
M  V30 16780 O 1557.73 -0.968037 2.53656 0
M  V30 16781 C 1556.19 1.51478 3.2647 0
M  V30 16782 C 1555.79 3.02552 3.30403 0
M  V30 16783 C 1557.54 1.34511 4.02625 0
M  V30 16784 C 1555.44 3.59518 4.69575 0
M  V30 16785 H 1554.37 0.323494 0.681078 0
M  V30 16786 H 1557.03 1.35091 1.24188 0
M  V30 16787 H 1555.41 0.966 3.84037 0
M  V30 16788 H 1556.58 3.63924 2.82659 0
M  V30 16789 H 1554.9 3.18917 2.67733 0
M  V30 16790 H 1557.49 1.74492 5.05427 0
M  V30 16791 H 1557.84 0.288788 4.15297 0
M  V30 16792 H 1558.37 1.86311 3.51473 0
M  V30 16793 H 1555.11 4.6491 4.62103 0
M  V30 16794 H 1554.63 3.02922 5.17686 0
M  V30 16795 H 1556.31 3.58581 5.38543 0
M  V30 16796 N 1556.44 -1.28223 0.91633 0
M  V30 16797 C 1557.39 -2.29188 0.396916 0
M  V30 16798 C 1558.38 -1.61453 -0.512763 0
M  V30 16799 O 1559.59 -1.75641 -0.393723 0
M  V30 16800 H 1555.96 -0.743947 0.109761 0
M  V30 16801 H 1557.93 -2.70423 1.2615 0
M  V30 16802 C 1556.68 -3.4598 -0.345452 0
M  V30 16803 H 1556.01 -3.98306 0.345326 0
M  V30 16804 H 1557.45 -4.18617 -0.67349 0
M  V30 16805 C 1555.9 -2.98904 -1.55429 0
M  V30 16806 O 1556.43 -3.01598 -2.65333 0
M  V30 16807 N 1554.64 -2.54534 -1.40217 0
M  V30 16808 H 1554.19 -2.52541 -0.508029 0
M  V30 16809 H 1554.15 -2.23397 -2.21227 0
M  V30 16810 N 1557.92 -0.68059 -1.42147 0
M  V30 16811 C 1559.16 -0.209222 -2.03326 0
M  V30 16812 C 1559.52 1.16419 -1.52678 0
M  V30 16813 O 1560.72 1.73055 -2.05683 0
M  V30 16814 C 1558.99 -0.248331 -3.56536 0
M  V30 16815 S 1560.55 0.151186 -4.38539 0
M  V30 16816 H 1557.37 -0.0854956 -0.705841 0
M  V30 16817 H 1559.97 -0.895033 -1.73809 0
M  V30 16818 H 1558.68 -1.25016 -3.90895 0
M  V30 16819 H 1558.21 0.457124 -3.90735 0
M  V30 16820 H 1560.22 1.38301 -4.76537 0
M  V30 16821 N 1559.4 1.51781 -0.424309 0
M  V30 16822 C 1560.62 2.06387 0.145548 0
M  V30 16823 C 1561.04 1.29299 1.37576 0
M  V30 16824 O 1560.4 0.348952 1.79133 0
M  V30 16825 C 1560.45 3.58288 0.48083 0
M  V30 16826 O 1560.17 4.32463 -0.700546 0
M  V30 16827 C 1561.67 4.29364 1.10278 0
M  V30 16828 H 1558.89 0.67086 0.0136908 0
M  V30 16829 H 1561.43 1.95511 -0.599639 0
M  V30 16830 H 1559.59 3.69122 1.17591 0
M  V30 16831 H 1560 5.22839 -0.417035 0
M  V30 16832 H 1561.48 5.36776 1.28747 0
M  V30 16833 H 1561.95 3.86815 2.08017 0
M  V30 16834 H 1562.56 4.2294 0.447458 0
M  V30 16835 N 1560.87 0.155222 1.56834 0
M  V30 16836 C 1562.15 -0.539327 1.88018 0
M  V30 16837 C 1562.53 -1.8241 1.06253 0
M  V30 16838 O 1561.88 -2.27996 0.151721 0
M  V30 16839 C 1562.09 -0.796826 3.39782 0
M  V30 16840 C 1563.44 -1.13397 4.09178 0
M  V30 16841 O 1564.46 -0.885907 3.45007 0
M  V30 16842 O 1563.32 -1.60117 5.22518 0
M  V30 16843 H 1560.41 -0.276066 0.779562 0
M  V30 16844 H 1562.96 0.192451 1.68605 0
M  V30 16845 H 1561.73 0.112097 3.91139 0
M  V30 16846 H 1561.35 -1.5825 3.6475 0
M  V30 16847 N 1562.35 -1.57153 -0.118549 0
M  V30 16848 C 1563.58 -1.89062 -0.840429 0
M  V30 16849 C 1563.99 -0.746516 -1.73414 0
M  V30 16850 O 1563.35 0.282638 -1.80298 0
M  V30 16851 C 1563.4 -3.20433 -1.67347 0
M  V30 16852 O 1563.12 -4.30439 -0.815739 0
M  V30 16853 C 1564.62 -3.66048 -2.50047 0
M  V30 16854 H 1561.84 -0.626005 -0.241575 0
M  V30 16855 H 1564.39 -2.04241 -0.102804 0
M  V30 16856 H 1562.54 -3.06922 -2.36385 0
M  V30 16857 H 1562.96 -5.05736 -1.39037 0
M  V30 16858 H 1564.43 -4.60729 -3.04028 0
M  V30 16859 H 1564.91 -2.92727 -3.27426 0
M  V30 16860 H 1565.51 -3.82349 -1.86251 0
M  V30 16861 N 1563.83 0.388742 -1.5273 0
M  V30 16862 C 1565.06 1.15495 -1.71664 0
M  V30 16863 C 1565.47 1.83717 -0.435127 0
M  V30 16864 O 1564.83 1.72686 0.590411 0
M  V30 16865 C 1564.88 2.20279 -2.86635 0
M  V30 16866 O 1564.6 1.54838 -4.09825 0
M  V30 16867 C 1566.1 3.09625 -3.1725 0
M  V30 16868 H 1563.32 0.346271 -0.57475 0
M  V30 16869 H 1565.87 0.454729 -1.9938 0
M  V30 16870 H 1564.02 2.85936 -2.61379 0
M  V30 16871 H 1564.44 2.24466 -4.74042 0
M  V30 16872 H 1565.91 3.79177 -4.01159 0
M  V30 16873 H 1566.39 3.73147 -2.31643 0
M  V30 16874 H 1566.99 2.49612 -3.44345 0
M  V30 16875 N 1565.31 1.43698 0.647203 0
M  V30 16876 C 1566.25 1.49323 1.75987 0
M  V30 16877 C 1567.22 0.342379 1.62533 0
M  V30 16878 O 1568.41 0.550379 1.8269 0
M  V30 16879 C 1565.55 1.428 3.14169 0
M  V30 16880 C 1564.66 2.68136 3.38714 0
M  V30 16881 C 1563.8 2.53559 4.66778 0
M  V30 16882 C 1562.84 3.74135 4.84447 0
M  V30 16883 N 1561.97 3.58332 6.03774 0
M  V30 16884 H 1566.81 2.44395 1.70514 0
M  V30 16885 H 1564.35 1.21309 0.832021 0
M  V30 16886 H 1566.31 1.37011 3.94061 0
M  V30 16887 H 1564.94 0.513057 3.18697 0
M  V30 16888 H 1563.99 2.84179 2.52877 0
M  V30 16889 H 1565.3 3.57684 3.47654 0
M  V30 16890 H 1564.46 2.45513 5.54805 0
M  V30 16891 H 1563.2 1.61545 4.60168 0
M  V30 16892 H 1562.2 3.82584 3.94854 0
M  V30 16893 H 1563.43 4.67165 4.92883 0
M  V30 16894 H 1561.37 2.69057 5.98284 0
M  V30 16895 H 1561.29 4.41485 6.13699 0
M  V30 16896 H 1562.56 3.54148 6.94406 0
M  V30 16897 N 1566.79 -0.886131 1.30328 0
M  V30 16898 C 1568.03 -1.63784 1.19085 0
M  V30 16899 C 1568.36 -1.92825 -0.254697 0
M  V30 16900 O 1567.62 -1.54682 -1.19883 0
M  V30 16901 C 1567.92 -2.98624 1.96364 0
M  V30 16902 C 1567.58 -2.89139 3.45991 0
M  V30 16903 C 1566.24 -2.86259 3.86794 0
M  V30 16904 C 1568.6 -2.7735 4.41278 0
M  V30 16905 C 1565.92 -2.69428 5.21177 0
M  V30 16906 C 1568.28 -2.62057 5.75768 0
M  V30 16907 C 1566.94 -2.57551 6.15811 0
M  V30 16908 H 1566.21 -0.599327 0.435761 0
M  V30 16909 H 1568.86 -1.03037 1.61418 0
M  V30 16910 H 1567.16 -3.63315 1.46662 0
M  V30 16911 H 1568.86 -3.55746 1.85057 0
M  V30 16912 H 1565.45 -2.92189 3.13566 0
M  V30 16913 H 1569.63 -2.78642 4.10697 0
M  V30 16914 H 1564.89 -2.64353 5.51296 0
M  V30 16915 H 1569.06 -2.51909 6.49242 0
M  V30 16916 H 1566.69 -2.44268 7.19887 0
M  V30 16917 N 1568.26 -1.13026 -1.09832 0
M  V30 16918 C 1569.51 -0.890736 -1.82191 0
M  V30 16919 C 1569.84 0.581818 -1.8528 0
M  V30 16920 O 1569.12 1.43037 -1.31798 0
M  V30 16921 C 1569.4 -1.47403 -3.28549 0
M  V30 16922 C 1569.25 -3.0154 -3.33757 0
M  V30 16923 C 1570.57 -1.13876 -4.25112 0
M  V30 16924 H 1567.69 -0.325028 -0.661457 0
M  V30 16925 H 1570.33 -1.39787 -1.28684 0
M  V30 16926 H 1568.48 -1.04272 -3.74245 0
M  V30 16927 H 1570.16 -3.53395 -2.96495 0
M  V30 16928 H 1568.4 -3.36746 -2.73467 0
M  V30 16929 H 1569.07 -3.37449 -4.36843 0
M  V30 16930 H 1571.55 -1.51139 -3.87681 0
M  V30 16931 H 1570.42 -1.57343 -5.25865 0
M  V30 16932 H 1570.68 -0.051854 -4.4207 0
M  V30 16933 N 1569.74 1.27735 -0.923117 0
M  V30 16934 C 1570.99 1.95207 -0.571456 0
M  V30 16935 C 1571.34 1.71257 0.876863 0
M  V30 16936 O 1570.64 1.02842 1.61661 0
M  V30 16937 C 1570.83 3.47677 -0.827959 0
M  V30 16938 C 1570.66 3.86453 -2.29966 0
M  V30 16939 C 1569.43 4.10138 -2.95152 0
M  V30 16940 C 1571.63 3.96395 -3.27683 0
M  V30 16941 N 1569.61 4.35658 -4.32522 0
M  V30 16942 C 1570.98 4.26236 -4.50247 0
M  V30 16943 C 1573.04 3.78953 -3.22954 0
M  V30 16944 C 1571.74 4.40453 -5.68677 0
M  V30 16945 C 1573.76 3.94391 -4.40692 0
M  V30 16946 C 1573.13 4.24615 -5.62033 0
M  V30 16947 H 1569.23 0.73781 -0.259154 0
M  V30 16948 H 1571.81 1.54194 -1.18879 0
M  V30 16949 H 1569.98 3.87659 -0.239823 0
M  V30 16950 H 1571.71 4.02308 -0.439388 0
M  V30 16951 H 1568.47 4.04795 -2.45841 0
M  V30 16952 H 1568.89 4.52484 -5.03574 0
M  V30 16953 H 1573.53 3.5463 -2.30212 0
M  V30 16954 H 1571.25 4.63603 -6.61889 0
M  V30 16955 H 1574.84 3.82321 -4.38545 0
M  V30 16956 H 1573.72 4.36305 -6.51619 0
M  V30 16957 N 1571.22 0.688118 1.41784 0
M  V30 16958 C 1572.47 0.213085 2.00571 0
M  V30 16959 C 1572.78 -1.19176 1.55101 0
M  V30 16960 O 1573.99 -1.76387 2.06397 0
M  V30 16961 C 1572.44 0.330075 3.58383 0
M  V30 16962 C 1572.05 1.73981 4.12837 0
M  V30 16963 C 1573.8 -0.0855651 4.24414 0
M  V30 16964 C 1571.7 1.80886 5.63058 0
M  V30 16965 H 1570.63 0.075906 0.750169 0
M  V30 16966 H 1573.28 0.855236 1.62351 0
M  V30 16967 H 1571.67 -0.380199 3.94171 0
M  V30 16968 H 1572.84 2.47825 3.88484 0
M  V30 16969 H 1571.16 2.10447 3.59306 0
M  V30 16970 H 1573.75 -0.0543142 5.34672 0
M  V30 16971 H 1574.1 -1.12307 4.00865 0
M  V30 16972 H 1574.63 0.574169 3.93635 0
M  V30 16973 H 1571.37 2.82663 5.91424 0
M  V30 16974 H 1570.89 1.11417 5.89361 0
M  V30 16975 H 1572.57 1.56835 6.27704 0
M  V30 16976 N 1572.7 -1.51554 0.432352 0
M  V30 16977 C 1573.65 -2.27623 -0.381602 0
M  V30 16978 C 1574.62 -1.31003 -1.02114 0
M  V30 16979 O 1575.8 -1.59899 -1.041 0
M  V30 16980 C 1572.94 -3.11772 -1.47959 0
M  V30 16981 C 1572.05 -4.2338 -0.858682 0
M  V30 16982 C 1571.19 -4.94847 -1.93131 0
M  V30 16983 C 1570.23 -5.98383 -1.28856 0
M  V30 16984 N 1569.36 -6.63278 -2.30233 0
M  V30 16985 H 1574.2 -2.96743 0.273472 0
M  V30 16986 H 1571.74 -1.46367 0.146706 0
M  V30 16987 H 1573.7 -3.58882 -2.12742 0
M  V30 16988 H 1572.33 -2.44778 -2.10437 0
M  V30 16989 H 1571.38 -3.8027 -0.0992797 0
M  V30 16990 H 1572.69 -4.97575 -0.349381 0
M  V30 16991 H 1571.85 -5.4548 -2.65587 0
M  V30 16992 H 1570.59 -4.20272 -2.47432 0
M  V30 16993 H 1569.59 -5.47048 -0.549441 0
M  V30 16994 H 1570.82 -6.74913 -0.752941 0
M  V30 16995 H 1568.76 -5.91518 -2.83624 0
M  V30 16996 H 1568.68 -7.33221 -1.84181 0
M  V30 16997 H 1569.95 -7.18542 -3.02188 0
M  V30 16998 N 1574.18 -0.163538 -1.56749 0
M  V30 16999 C 1575.45 0.529349 -1.88301 0
M  V30 17000 C 1575.83 1.81844 -1.07219 0
M  V30 17001 O 1575.18 2.27912 -0.16381 0
M  V30 17002 C 1575.39 0.778796 -3.402 0
M  V30 17003 C 1576.74 1.11225 -4.09773 0
M  V30 17004 O 1577.76 0.867598 -3.45472 0
M  V30 17005 O 1576.62 1.57344 -5.2336 0
M  V30 17006 H 1573.72 0.271928 -0.781015 0
M  V30 17007 H 1576.26 -0.20139 -1.68501 0
M  V30 17008 H 1575.03 -0.132839 -3.91074 0
M  V30 17009 H 1574.66 1.56313 -3.65584 0
M  V30 17010 N 1575.65 1.57214 0.110213 0
M  V30 17011 C 1576.9 1.85312 0.816439 0
M  V30 17012 C 1577.23 0.749901 1.79462 0
M  V30 17013 O 1576.48 -0.257948 1.93993 0
M  V30 17014 C 1576.78 3.19933 1.59304 0
M  V30 17015 C 1576.45 4.44477 0.75835 0
M  V30 17016 C 1575.11 4.78292 0.528201 0
M  V30 17017 C 1577.46 5.20899 0.177117 0
M  V30 17018 C 1574.79 5.85966 -0.293292 0
M  V30 17019 C 1577.14 6.29439 -0.631615 0
M  V30 17020 C 1575.81 6.6178 -0.871998 0
M  V30 17021 H 1575.08 0.678104 0.298756 0
M  V30 17022 H 1577.72 1.91339 0.0784721 0
M  V30 17023 H 1576.03 3.09522 2.40216 0
M  V30 17024 H 1577.73 3.38897 2.14359 0
M  V30 17025 H 1574.32 4.17988 0.94783 0
M  V30 17026 H 1578.5 4.95119 0.342121 0
M  V30 17027 H 1573.76 6.09444 -0.488665 0
M  V30 17028 H 1577.93 6.87834 -1.08894 0
M  V30 17029 H 1575.56 7.45045 -1.51037 0
M  V30 17030 N 1577.13 -0.380637 1.52934 0
M  V30 17031 C 1578.08 -1.48584 1.78957 0
M  V30 17032 C 1579.07 -1.56103 0.657901 0
M  V30 17033 O 1580.28 -1.59169 0.84055 0
M  V30 17034 H 1576.66 -0.494687 0.566382 0
M  V30 17035 H 1578.63 -1.23833 2.71492 0
M  V30 17036 C 1577.38 -2.85615 1.98291 0
M  V30 17037 H 1576.7 -2.80583 2.84804 0
M  V30 17038 H 1578.14 -3.62164 2.20485 0
M  V30 17039 C 1576.6 -3.28267 0.757764 0
M  V30 17040 O 1577.13 -4.01654 -0.0608007 0
M  V30 17041 N 1575.33 -2.84641 0.585486 0
M  V30 17042 H 1574.88 -2.25087 1.25274 0
M  V30 17043 H 1574.84 -3.13536 -0.232871 0
M  V30 17044 N 1578.61 -1.44039 -0.639573 0
M  V30 17045 C 1579.86 -1.4566 -1.39521 0
M  V30 17046 C 1580.17 -0.0897878 -1.95394 0
M  V30 17047 O 1581.38 0.0165074 -2.71495 0
M  V30 17048 C 1579.83 -2.56395 -2.52566 0
M  V30 17049 C 1579.44 -3.99245 -2.03243 0
M  V30 17050 C 1581.19 -2.67226 -3.29834 0
M  V30 17051 C 1579.09 -5.01419 -3.1358 0
M  V30 17052 H 1578.02 -0.541894 -0.524277 0
M  V30 17053 H 1580.67 -1.70076 -0.688941 0
M  V30 17054 H 1579.06 -2.25204 -3.25729 0
M  V30 17055 H 1580.23 -4.39963 -1.37002 0
M  V30 17056 H 1578.55 -3.9258 -1.38816 0
M  V30 17057 H 1581.14 -3.40736 -4.12072 0
M  V30 17058 H 1581.49 -1.72756 -3.78763 0
M  V30 17059 H 1582.02 -2.97786 -2.63758 0
M  V30 17060 H 1578.76 -5.97489 -2.69605 0
M  V30 17061 H 1578.28 -4.65301 -3.7849 0
M  V30 17062 H 1579.96 -5.2474 -3.78493 0
M  V30 17063 N 1580.09 0.879207 -1.30796 0
M  V30 17064 C 1581.34 1.6315 -1.19951 0
M  V30 17065 C 1581.66 1.92958 0.244468 0
M  V30 17066 O 1580.92 1.55316 1.19061 0
M  V30 17067 C 1581.22 2.97578 -1.97945 0
M  V30 17068 C 1580.88 2.873 -3.47519 0
M  V30 17069 C 1579.55 2.84204 -3.88306 0
M  V30 17070 C 1581.9 2.75006 -4.42743 0
M  V30 17071 C 1579.23 2.6666 -5.22599 0
M  V30 17072 C 1581.58 2.59 -5.7715 0
M  V30 17073 C 1580.24 2.54282 -6.17168 0
M  V30 17074 H 1579.51 0.597008 -0.438934 0
M  V30 17075 H 1582.16 1.02179 -1.61962 0
M  V30 17076 H 1580.46 3.62532 -1.48587 0
M  V30 17077 H 1582.16 3.54759 -1.86941 0
M  V30 17078 H 1578.75 2.90522 -3.15111 0
M  V30 17079 H 1582.93 2.7646 -4.12169 0
M  V30 17080 H 1578.19 2.61426 -5.5269 0
M  V30 17081 H 1582.36 2.48462 -6.50568 0
M  V30 17082 H 1579.99 2.40446 -7.21172 0
M  V30 17083 N 1581.57 1.13606 1.09231 0
M  V30 17084 C 1582.82 0.897278 1.81089 0
M  V30 17085 C 1583.14 -0.578066 1.86235 0
M  V30 17086 O 1582.41 -1.42018 1.34935 0
M  V30 17087 H 1580.99 0.328971 0.670662 0
M  V30 17088 H 1583.65 1.433 1.32103 0
M  V30 17089 H 1582.74 1.28979 2.84202 0
M  V30 17090 N 1583.05 -1.27244 0.929878 0
M  V30 17091 C 1584.46 -1.4662 0.630451 0
M  V30 17092 C 1584.66 -1.84077 -0.819633 0
M  V30 17093 O 1583.72 -1.95555 -1.59733 0
M  V30 17094 C 1585.03 -2.55709 1.58219 0
M  V30 17095 C 1586.58 -2.69569 1.59065 0
M  V30 17096 C 1587.05 -3.81818 2.52941 0
M  V30 17097 N 1588.54 -3.89195 2.51161 0
M  V30 17098 C 1589.28 -4.75474 3.20488 0
M  V30 17099 N 1588.78 -5.66225 3.99201 0
M  V30 17100 N 1590.57 -4.69222 3.09495 0
M  V30 17101 H 1582.72 -1.01216 1.86733 0
M  V30 17102 H 1584.98 -0.505737 0.801832 0
M  V30 17103 H 1584.69 -2.34985 2.61677 0
M  V30 17104 H 1584.56 -3.53141 1.32556 0
M  V30 17105 H 1586.95 -2.89672 0.563375 0
M  V30 17106 H 1587.03 -1.72616 1.88778 0
M  V30 17107 H 1586.67 -3.62467 3.55781 0
M  V30 17108 H 1586.6 -4.78202 2.20524 0
M  V30 17109 H 1589.1 -3.24305 1.93997 0
M  V30 17110 H 1589.41 -6.28925 4.4908 0
M  V30 17111 H 1587.75 -5.66013 4.03304 0
M  V30 17112 H 1590.94 -3.97322 2.47493 0
M  V30 17113 H 1591.12 -5.36244 3.63794 0
M  V30 17114 N 1584.52 -0.695628 -1.41417 0
M  V30 17115 C 1585.43 -0.0308378 -2.3458 0
M  V30 17116 C 1586.45 0.766 -1.56232 0
M  V30 17117 O 1587.63 0.703548 -1.88712 0
M  V30 17118 C 1584.69 0.894162 -3.34971 0
M  V30 17119 C 1583.75 0.0895231 -4.29207 0
M  V30 17120 C 1582.98 0.970467 -5.24802 0
M  V30 17121 O 1583.21 2.20997 -5.25848 0
M  V30 17122 O 1582.14 0.420114 -6.00432 0
M  V30 17123 H 1585.97 -0.798775 -2.93007 0
M  V30 17124 H 1583.55 -0.455964 -1.42272 0
M  V30 17125 H 1585.43 1.42458 -3.9659 0
M  V30 17126 H 1584.11 1.64159 -2.78987 0
M  V30 17127 H 1583.02 -0.4855 -3.70936 0
M  V30 17128 H 1584.35 -0.619241 -4.88289 0
M  V30 17129 N 1586 1.51322 -0.440383 0
M  V30 17130 C 1586.93 2.30708 0.360013 0
M  V30 17131 C 1587.91 1.36254 1.01828 0
M  V30 17132 O 1589.1 1.65174 1.02134 0
M  V30 17133 C 1586.23 3.15132 1.45977 0
M  V30 17134 C 1585.18 4.17889 0.924825 0
M  V30 17135 C 1584.51 4.90853 2.12056 0
M  V30 17136 C 1585.81 5.22282 -0.0428362 0
M  V30 17137 H 1587.5 2.97868 -0.30248 0
M  V30 17138 H 1585.05 1.43249 -0.146914 0
M  V30 17139 H 1587 3.69449 2.02695 0
M  V30 17140 H 1585.72 2.45798 2.1506 0
M  V30 17141 H 1584.38 3.64627 0.379842 0
M  V30 17142 H 1584.03 4.1802 2.79765 0
M  V30 17143 H 1583.73 5.60339 1.769 0
M  V30 17144 H 1585.26 5.47995 2.69322 0
M  V30 17145 H 1586.67 5.71654 0.434137 0
M  V30 17146 H 1585.07 5.99314 -0.307126 0
M  V30 17147 H 1586.14 4.74923 -0.978557 0
M  V30 17148 N 1587.48 0.171848 1.5666 0
M  V30 17149 C 1588.43 -0.775125 2.19305 0
M  V30 17150 C 1589.42 -1.23711 1.15724 0
M  V30 17151 O 1590.63 -1.2027 1.33922 0
M  V30 17152 H 1587 -0.268245 0.70253 0
M  V30 17153 H 1588.97 -0.222823 2.97567 0
M  V30 17154 C 1587.72 -1.99397 2.84844 0
M  V30 17155 H 1587.05 -1.64752 3.64276 0
M  V30 17156 H 1588.49 -2.63545 3.32145 0
M  V30 17157 C 1586.94 -2.81794 1.84645 0
M  V30 17158 O 1587.47 -3.78964 1.33225 0
M  V30 17159 N 1585.68 -2.4682 1.5339 0
M  V30 17160 H 1585.23 -1.67862 1.95397 0
M  V30 17161 H 1585.19 -3.02238 0.866004 0
M  V30 17162 N 1588.96 -1.5727 -0.101874 0
M  V30 17163 C 1589.92 -2.00625 -1.10826 0
M  V30 17164 C 1590.92 -0.89878 -1.33336 0
M  V30 17165 O 1592.11 -1.16442 -1.29564 0
M  V30 17166 C 1589.24 -2.36113 -2.45893 0
M  V30 17167 H 1590.44 -2.90748 -0.735238 0
M  V30 17168 H 1587.99 -1.52406 -0.346713 0
M  V30 17169 H 1588.72 -1.48923 -2.88084 0
M  V30 17170 H 1588.51 -3.169 -2.30904 0
M  V30 17171 H 1590 -2.70336 -3.1829 0
M  V30 17172 N 1590.44 0.372521 -1.53134 0
M  V30 17173 C 1591.66 1.13668 -1.72879 0
M  V30 17174 C 1592.08 1.83246 -0.454588 0
M  V30 17175 O 1591.44 1.73302 0.572062 0
M  V30 17176 C 1591.49 2.17226 -2.88955 0
M  V30 17177 O 1591.21 1.50483 -4.11445 0
M  V30 17178 C 1592.71 3.06243 -3.20516 0
M  V30 17179 H 1589.93 0.340156 -0.57839 0
M  V30 17180 H 1592.47 0.433557 -1.99851 0
M  V30 17181 H 1590.63 2.83148 -2.64397 0
M  V30 17182 H 1591.04 2.19425 -4.76396 0
M  V30 17183 H 1592.52 3.74901 -4.05158 0
M  V30 17184 H 1592.99 3.70669 -2.35587 0
M  V30 17185 H 1593.6 2.45946 -3.46973 0
M  V30 17186 N 1591.91 1.44376 0.631925 0
M  V30 17187 C 1592.82 1.5367 1.77264 0
M  V30 17188 C 1593.84 0.422425 1.68794 0
M  V30 17189 O 1595.02 0.679656 1.89585 0
M  V30 17190 C 1592.08 1.47743 3.13644 0
M  V30 17191 C 1591.14 2.70015 3.33752 0
M  V30 17192 C 1590.37 2.64362 4.63626 0
M  V30 17193 O 1590.6 1.7032 5.44378 0
M  V30 17194 O 1589.53 3.55201 4.85918 0
M  V30 17195 H 1593.36 2.5004 1.72376 0
M  V30 17196 H 1590.94 1.26614 0.793052 0
M  V30 17197 H 1592.82 1.46958 3.94945 0
M  V30 17198 H 1591.5 0.545165 3.19076 0
M  V30 17199 H 1590.41 2.76369 2.52133 0
M  V30 17200 H 1591.74 3.62286 3.33181 0
M  V30 17201 N 1593.39 -0.872258 1.31261 0
M  V30 17202 C 1594.64 -1.62752 1.20994 0
M  V30 17203 C 1594.97 -1.9281 -0.231942 0
M  V30 17204 O 1594.25 -1.55808 -1.16423 0
M  V30 17205 C 1594.53 -2.95921 2.0519 0
M  V30 17206 C 1594.38 -2.72756 3.57665 0
M  V30 17207 C 1595.7 -3.96996 1.89953 0
M  V30 17208 H 1592.82 -0.590581 0.440889 0
M  V30 17209 H 1595.46 -1.00848 1.61027 0
M  V30 17210 H 1593.61 -3.48756 1.71177 0
M  V30 17211 H 1595.28 -2.26611 4.01803 0
M  V30 17212 H 1593.53 -2.07029 3.81211 0
M  V30 17213 H 1594.2 -3.67502 4.11882 0
M  V30 17214 H 1596.67 -3.53363 2.19713 0
M  V30 17215 H 1595.55 -4.88063 2.51169 0
M  V30 17216 H 1595.81 -4.33611 0.862191 0
M  V30 17217 N 1594.87 -1.14184 -1.08627 0
M  V30 17218 C 1596.09 -0.932504 -1.85254 0
M  V30 17219 C 1596.52 0.513792 -1.80947 0
M  V30 17220 O 1595.88 1.36525 -1.19292 0
M  V30 17221 C 1595.93 -1.43519 -3.30809 0
M  V30 17222 O 1595.03 -0.625806 -4.07624 0
M  V30 17223 H 1594.37 -0.333573 -0.57413 0
M  V30 17224 H 1596.9 -1.51853 -1.3712 0
M  V30 17225 H 1596.91 -1.44238 -3.81654 0
M  V30 17226 H 1595.59 -2.48819 -3.3326 0
M  V30 17227 H 1594.16 -0.687168 -3.66514 0
M  V30 17228 N 1596.35 1.26749 -0.936613 0
M  V30 17229 C 1597.57 1.98597 -0.597817 0
M  V30 17230 C 1598 1.69324 0.8192 0
M  V30 17231 O 1597.36 0.938634 1.55111 0
M  V30 17232 C 1597.4 3.50656 -0.841007 0
M  V30 17233 O 1596.51 4.12304 0.0891038 0
M  V30 17234 H 1595.85 0.623197 -0.229176 0
M  V30 17235 H 1598.38 1.61332 -1.2583 0
M  V30 17236 H 1598.39 4.00857 -0.760093 0
M  V30 17237 H 1597.06 3.71293 -1.87388 0
M  V30 17238 H 1595.64 3.72876 -0.0424804 0
M  V30 17239 N 1597.83 0.703118 1.41046 0
M  V30 17240 C 1598.76 0.0570815 2.3343 0
M  V30 17241 C 1599.74 -0.759042 1.52225 0
M  V30 17242 O 1600.92 -0.710491 1.80736 0
M  V30 17243 C 1598.05 -0.874541 3.36109 0
M  V30 17244 C 1597.01 -0.16496 4.27682 0
M  V30 17245 C 1596.33 -1.21145 5.20795 0
M  V30 17246 C 1597.63 0.97332 5.13151 0
M  V30 17247 H 1599.33 0.828699 2.87703 0
M  V30 17248 H 1596.87 0.399956 1.38334 0
M  V30 17249 H 1598.83 -1.33579 3.99668 0
M  V30 17250 H 1597.55 -1.67791 2.80203 0
M  V30 17251 H 1596.21 0.276332 3.65557 0
M  V30 17252 H 1595.86 -2.00755 4.61201 0
M  V30 17253 H 1595.56 -0.741633 5.82901 0
M  V30 17254 H 1597.08 -1.67305 5.87232 0
M  V30 17255 H 1598.49 0.592013 5.70235 0
M  V30 17256 H 1596.89 1.37071 5.84236 0
M  V30 17257 H 1597.96 1.80961 4.49868 0
M  V30 17258 N 1599.3 -1.51086 0.448402 0
M  V30 17259 C 1600.53 -2.06293 -0.112531 0
M  V30 17260 C 1600.94 -1.31478 -1.36052 0
M  V30 17261 O 1600.29 -0.370897 -1.79917 0
M  V30 17262 C 1600.35 -3.56156 -0.489178 0
M  V30 17263 C 1600.01 -4.52302 0.653568 0
M  V30 17264 C 1601.01 -4.96909 1.52898 0
M  V30 17265 C 1598.69 -4.9527 0.837448 0
M  V30 17266 C 1600.69 -5.83165 2.57288 0
M  V30 17267 C 1598.37 -5.81314 1.8846 0
M  V30 17268 C 1599.37 -6.25161 2.75069 0
M  V30 17269 O 1599.06 -7.09495 3.77985 0
M  V30 17270 H 1598.79 -0.67597 -0.00641865 0
M  V30 17271 H 1601.35 -1.95515 0.629533 0
M  V30 17272 H 1599.58 -3.64757 -1.28411 0
M  V30 17273 H 1601.27 -3.93828 -0.982548 0
M  V30 17274 H 1602.03 -4.64399 1.3985 0
M  V30 17275 H 1597.91 -4.60676 0.172857 0
M  V30 17276 H 1601.45 -6.1731 3.24921 0
M  V30 17277 H 1597.35 -6.13236 2.01523 0
M  V30 17278 H 1598.12 -7.27697 3.74699 0
M  V30 17279 N 1600.78 -0.180154 -1.56567 0
M  V30 17280 C 1602.03 0.456651 -1.98208 0
M  V30 17281 C 1602.38 1.60262 -1.06461 0
M  V30 17282 O 1601.68 1.91307 -0.106011 0
M  V30 17283 C 1601.87 0.978895 -3.43733 0
M  V30 17284 C 1601.7 -0.114936 -4.49553 0
M  V30 17285 C 1600.47 -0.567571 -5.02102 0
M  V30 17286 C 1602.67 -0.918528 -5.06031 0
M  V30 17287 N 1600.65 -1.64078 -5.91567 0
M  V30 17288 C 1602.02 -1.84147 -5.92022 0
M  V30 17289 C 1604.08 -0.96262 -4.88506 0
M  V30 17290 C 1602.78 -2.8048 -6.62362 0
M  V30 17291 C 1604.8 -1.91393 -5.59573 0
M  V30 17292 C 1604.17 -2.82434 -6.45299 0
M  V30 17293 H 1600.27 0.13495 -0.770268 0
M  V30 17294 H 1602.85 -0.282408 -1.92641 0
M  V30 17295 H 1601.02 1.68744 -3.49828 0
M  V30 17296 H 1602.75 1.58506 -3.72368 0
M  V30 17297 H 1599.51 -0.163649 -4.73317 0
M  V30 17298 H 1599.93 -2.17814 -6.41004 0
M  V30 17299 H 1604.57 -0.272775 -4.21919 0
M  V30 17300 H 1602.29 -3.50448 -7.28156 0
M  V30 17301 H 1605.88 -1.95427 -5.47996 0
M  V30 17302 H 1604.76 -3.54847 -6.99324 0
M  V30 17303 N 1602.26 1.57322 0.0935319 0
M  V30 17304 C 1603.51 1.85353 0.795445 0
M  V30 17305 C 1603.82 0.769647 1.79822 0
M  V30 17306 O 1605.03 0.937121 2.54814 0
M  V30 17307 C 1603.48 3.28711 1.4655 0
M  V30 17308 C 1603.09 4.45174 0.502415 0
M  V30 17309 C 1604.84 3.65965 2.15105 0
M  V30 17310 C 1602.74 5.79566 1.17715 0
M  V30 17311 H 1601.67 0.691394 0.300816 0
M  V30 17312 H 1604.32 1.83436 0.0484063 0
M  V30 17313 H 1602.71 3.25173 2.26005 0
M  V30 17314 H 1603.88 4.60062 -0.260754 0
M  V30 17315 H 1602.2 4.16328 -0.0775186 0
M  V30 17316 H 1604.79 4.63655 2.66323 0
M  V30 17317 H 1605.14 2.94667 2.94069 0
M  V30 17318 H 1605.67 3.71398 1.42508 0
M  V30 17319 H 1602.41 6.54099 0.428277 0
M  V30 17320 H 1601.93 5.68519 1.9117 0
M  V30 17321 H 1603.61 6.2418 1.70318 0
M  V30 17322 N 1603.74 -0.364395 1.53329 0
M  V30 17323 C 1604.67 -1.46658 1.76137 0
M  V30 17324 C 1605.68 -1.496 0.642166 0
M  V30 17325 O 1606.87 -1.53058 0.918452 0
M  V30 17326 C 1603.97 -2.85417 1.8273 0
M  V30 17327 C 1603.15 -3.06158 3.12388 0
M  V30 17328 C 1602.2 -4.25038 3.10208 0
M  V30 17329 O 1601.23 -4.20156 3.84002 0
M  V30 17330 N 1602.43 -5.32511 2.31111 0
M  V30 17331 H 1605.2 -1.27471 2.7124 0
M  V30 17332 H 1602.76 -0.554127 1.52122 0
M  V30 17333 H 1604.75 -3.63086 1.78748 0
M  V30 17334 H 1603.32 -2.97845 0.949058 0
M  V30 17335 H 1602.54 -2.16139 3.29663 0
M  V30 17336 H 1603.83 -3.16885 3.98072 0
M  V30 17337 H 1603.23 -5.39341 1.70669 0
M  V30 17338 H 1601.78 -6.08752 2.32946 0
M  V30 17339 N 1605.22 -1.44709 -0.62426 0
M  V30 17340 C 1606.44 -1.51573 -1.41564 0
M  V30 17341 C 1606.87 -0.143806 -1.87549 0
M  V30 17342 O 1606.22 0.868361 -1.59151 0
M  V30 17343 C 1606.27 -2.49085 -2.60747 0
M  V30 17344 O 1605.38 -1.99712 -3.60817 0
M  V30 17345 H 1604.72 -0.51157 -0.423311 0
M  V30 17346 H 1607.25 -1.89908 -0.761316 0
M  V30 17347 H 1607.26 -2.67346 -3.08205 0
M  V30 17348 H 1605.93 -3.48733 -2.26624 0
M  V30 17349 H 1604.51 -1.9125 -3.20122 0
M  V30 17350 N 1606.69 0.865285 -1.31722 0
M  V30 17351 C 1607.92 1.65661 -1.24785 0
M  V30 17352 C 1608.34 1.87208 0.182952 0
M  V30 17353 O 1607.7 1.41721 1.1307 0
M  V30 17354 C 1607.75 2.99921 -2.00199 0
M  V30 17355 O 1606.85 3.89936 -1.34253 0
M  V30 17356 H 1606.2 0.505459 -0.430589 0
M  V30 17357 H 1608.73 1.0785 -1.73867 0
M  V30 17358 H 1608.74 3.49823 -2.09971 0
M  V30 17359 H 1607.41 2.83559 -3.04249 0
M  V30 17360 H 1605.99 3.4839 -1.32961 0
M  V30 17361 N 1608.17 1.14759 1.0802 0
M  V30 17362 C 1609.4 0.941887 1.84218 0
M  V30 17363 C 1609.82 -0.509702 1.8179 0
M  V30 17364 O 1609.17 -1.35331 1.22441 0
M  V30 17365 C 1609.22 1.43978 3.31591 0
M  V30 17366 O 1608.94 2.83449 3.34048 0
M  V30 17367 C 1610.45 1.27459 4.24581 0
M  V30 17368 H 1607.67 0.334942 0.581425 0
M  V30 17369 H 1610.21 1.52367 1.36399 0
M  V30 17370 H 1608.36 0.900674 3.76785 0
M  V30 17371 H 1608.78 3.05878 4.26073 0
M  V30 17372 H 1610.25 1.67151 5.26084 0
M  V30 17373 H 1610.73 0.217925 4.38659 0
M  V30 17374 H 1611.34 1.80243 3.85217 0
M  V30 17375 N 1609.65 -1.26251 0.943322 0
M  V30 17376 C 1610.6 -2.28295 0.445441 0
M  V30 17377 C 1611.59 -1.62504 -0.478401 0
M  V30 17378 O 1612.8 -1.76437 -0.356378 0
M  V30 17379 H 1609.17 -0.741451 0.125517 0
M  V30 17380 H 1611.14 -2.67687 1.31858 0
M  V30 17381 C 1609.89 -3.46635 -0.271987 0
M  V30 17382 H 1609.22 -3.97484 0.429734 0
M  V30 17383 H 1610.66 -4.19951 -0.584544 0
M  V30 17384 C 1609.12 -3.02133 -1.49054 0
M  V30 17385 O 1609.65 -3.07158 -2.58876 0
M  V30 17386 N 1607.85 -2.57451 -1.34787 0
M  V30 17387 H 1607.4 -2.53562 -0.454347 0
M  V30 17388 H 1607.36 -2.28039 -2.16438 0
M  V30 17389 N 1611.13 -0.710588 -1.40671 0
M  V30 17390 C 1612.36 -0.257442 -2.05292 0
M  V30 17391 C 1612.77 1.09891 -1.53523 0
M  V30 17392 O 1612.13 1.68966 -0.689703 0
M  V30 17393 C 1612.18 -0.223091 -3.60811 0
M  V30 17394 O 1611.9 -1.52588 -4.10668 0
M  V30 17395 C 1613.4 0.249217 -4.42599 0
M  V30 17396 H 1610.62 -0.116663 -0.66078 0
M  V30 17397 H 1613.17 -0.967391 -1.80172 0
M  V30 17398 H 1611.32 0.437787 -3.84918 0
M  V30 17399 H 1611.74 -1.42301 -5.04827 0
M  V30 17400 H 1613.21 0.22211 -5.51553 0
M  V30 17401 H 1613.69 1.29057 -4.19811 0
M  V30 17402 H 1614.29 -0.381202 -4.23588 0
M  V30 17403 N 1612.61 1.50847 -0.456408 0
M  V30 17404 C 1613.54 2.31077 0.335523 0
M  V30 17405 C 1614.52 1.37326 1.00377 0
M  V30 17406 O 1615.7 1.66247 1.00376 0
M  V30 17407 C 1612.83 3.16662 1.42627 0
M  V30 17408 C 1611.79 4.18846 0.88045 0
M  V30 17409 C 1611.11 4.93074 2.06838 0
M  V30 17410 C 1612.41 5.22208 -0.0982288 0
M  V30 17411 H 1614.11 2.97531 -0.334056 0
M  V30 17412 H 1611.65 1.43085 -0.162099 0
M  V30 17413 H 1613.61 3.71578 1.98765 0
M  V30 17414 H 1612.33 2.48066 2.12441 0
M  V30 17415 H 1610.99 3.65009 0.341147 0
M  V30 17416 H 1610.64 4.20963 2.75316 0
M  V30 17417 H 1610.34 5.62184 1.70947 0
M  V30 17418 H 1611.86 5.5082 2.63494 0
M  V30 17419 H 1613.28 5.72082 0.373481 0
M  V30 17420 H 1611.67 5.98954 -0.370674 0
M  V30 17421 H 1612.74 4.73859 -1.02887 0
M  V30 17422 N 1614.09 0.188454 1.56469 0
M  V30 17423 C 1615.03 -0.735074 2.18781 0
M  V30 17424 C 1616 -1.21459 1.133 0
M  V30 17425 O 1617.19 -1.27967 1.41524 0
M  V30 17426 C 1614.33 -1.95181 2.84602 0
M  V30 17427 C 1613.44 -1.51428 4.0459 0
M  V30 17428 C 1612.58 -2.68601 4.58287 0
M  V30 17429 C 1611.61 -2.21422 5.70648 0
M  V30 17430 N 1610.75 -3.31749 6.18779 0
M  V30 17431 H 1615.59 -0.19694 2.97349 0
M  V30 17432 H 1613.13 -0.0854693 1.46851 0
M  V30 17433 H 1615.09 -2.66571 3.2093 0
M  V30 17434 H 1613.72 -2.46337 2.0861 0
M  V30 17435 H 1612.77 -0.6965 3.73969 0
M  V30 17436 H 1614.08 -1.1281 4.85876 0
M  V30 17437 H 1613.23 -3.48123 4.96885 0
M  V30 17438 H 1611.97 -3.1049 3.76095 0
M  V30 17439 H 1610.98 -1.40352 5.31584 0
M  V30 17440 H 1612.2 -1.80572 6.54653 0
M  V30 17441 H 1610.15 -3.73181 5.39511 0
M  V30 17442 H 1610.07 -2.97277 6.95099 0
M  V30 17443 H 1611.33 -4.11504 6.62031 0
M  V30 17444 N 1615.56 -1.5737 -0.0851874 0
M  V30 17445 C 1616.84 -1.77624 -0.819094 0
M  V30 17446 C 1617.22 -0.772645 -1.96452 0
M  V30 17447 O 1616.57 0.196912 -2.2765 0
M  V30 17448 C 1616.78 -3.23704 -1.30449 0
M  V30 17449 C 1618.13 -3.87163 -1.74328 0
M  V30 17450 O 1619.15 -3.27513 -1.40048 0
M  V30 17451 O 1618.01 -4.92075 -2.37748 0
M  V30 17452 H 1615.1 -0.728487 -0.391453 0
M  V30 17453 H 1617.65 -1.6957 -0.0663006 0
M  V30 17454 H 1616.42 -3.88292 -0.484277 0
M  V30 17455 H 1616.04 -3.36429 -2.119 0
M  V30 17456 N 1617.04 0.356258 -1.53521 0
M  V30 17457 C 1618.29 1.0979 -1.70154 0
M  V30 17458 C 1618.62 1.89028 -0.458124 0
M  V30 17459 O 1617.87 1.87516 0.560033 0
M  V30 17460 C 1618.17 2.07669 -2.90875 0
M  V30 17461 C 1617.84 1.4484 -4.27004 0
M  V30 17462 C 1616.5 1.27434 -4.64019 0
M  V30 17463 C 1618.85 0.994684 -5.1162 0
M  V30 17464 C 1616.18 0.632539 -5.8328 0
M  V30 17465 C 1618.53 0.366847 -6.31535 0
M  V30 17466 C 1617.19 0.180356 -6.67256 0
M  V30 17467 H 1616.46 0.401751 -0.622637 0
M  V30 17468 H 1619.11 0.378618 -1.8772 0
M  V30 17469 H 1617.42 2.85934 -2.6786 0
M  V30 17470 H 1619.11 2.65023 -3.00939 0
M  V30 17471 H 1615.7 1.59384 -3.97863 0
M  V30 17472 H 1619.89 1.11706 -4.83565 0
M  V30 17473 H 1615.14 0.476548 -6.0954 0
M  V30 17474 H 1619.32 0.00712378 -6.964 0
M  V30 17475 H 1616.94 -0.319016 -7.5953 0
M  V30 17476 N 1618.52 1.45038 0.616577 0
M  V30 17477 C 1619.77 1.49797 1.37595 0
M  V30 17478 C 1620.12 0.134243 1.91931 0
M  V30 17479 O 1619.41 -0.852613 1.71584 0
M  V30 17480 C 1619.61 2.50545 2.54876 0
M  V30 17481 C 1619.44 3.9658 2.12024 0
M  V30 17482 C 1618.21 4.64628 1.98618 0
M  V30 17483 C 1620.4 4.85377 1.70041 0
M  V30 17484 N 1618.39 5.95423 1.49481 0
M  V30 17485 C 1619.76 6.0573 1.32255 0
M  V30 17486 C 1621.81 4.72315 1.57552 0
M  V30 17487 C 1620.52 7.14469 0.832279 0
M  V30 17488 C 1622.54 5.81093 1.09929 0
M  V30 17489 C 1621.9 7.00596 0.731022 0
M  V30 17490 H 1618 0.603131 0.497752 0
M  V30 17491 H 1620.59 1.81456 0.70582 0
M  V30 17492 H 1618.76 2.20853 3.19497 0
M  V30 17493 H 1620.49 2.45508 3.21726 0
M  V30 17494 H 1617.24 4.1965 2.19524 0
M  V30 17495 H 1617.67 6.64949 1.2717 0
M  V30 17496 H 1622.31 3.80347 1.84652 0
M  V30 17497 H 1620.03 8.06234 0.548815 0
M  V30 17498 H 1623.61 5.73018 1.00704 0
M  V30 17499 H 1622.49 7.83335 0.368177 0
M  V30 17500 N 1620 -0.858287 1.32179 0
M  V30 17501 C 1621.25 -1.60902 1.2229 0
M  V30 17502 C 1621.57 -1.93797 -0.216227 0
M  V30 17503 O 1620.84 -1.59312 -1.14002 0
M  V30 17504 H 1619.42 -0.596529 0.449624 0
M  V30 17505 H 1622.08 -1.02686 1.65655 0
M  V30 17506 H 1621.17 -2.54755 1.80295 0
M  V30 17507 N 1621.48 -1.1533 -1.07409 0
M  V30 17508 C 1622.42 -0.845328 -2.16696 0
M  V30 17509 C 1623.42 0.181009 -1.6843 0
M  V30 17510 O 1624.62 0.0361013 -1.79964 0
M  V30 17511 H 1621 -0.255698 -0.707193 0
M  V30 17512 H 1622.97 -1.7747 -2.39889 0
M  V30 17513 C 1621.72 -0.350381 -3.4593 0
M  V30 17514 H 1621.04 -1.13152 -3.83454 0
M  V30 17515 H 1622.48 -0.173547 -4.23645 0
M  V30 17516 C 1620.94 0.927991 -3.23867 0
M  V30 17517 O 1621.47 1.99965 -3.48392 0
M  V30 17518 N 1619.68 0.867266 -2.77357 0
M  V30 17519 H 1619.22 -0.00500352 -2.576 0
M  V30 17520 H 1619.18 1.72314 -2.62974 0
M  V30 17521 N 1622.95 1.25748 -0.950004 0
M  V30 17522 C 1624.36 1.75253 -0.643694 0
M  V30 17523 C 1624.72 1.77261 0.841017 0
M  V30 17524 O 1623.84 1.39043 1.65819 0
M  V30 17525 C 1624.44 3.1826 -1.16173 0
M  V30 17526 C 1622.99 3.65342 -0.905672 0
M  V30 17527 C 1622.14 2.4454 -1.30749 0
M  V30 17528 H 1625.09 1.117 -1.12733 0
M  V30 17529 H 1625.11 3.76935 -0.519651 0
M  V30 17530 H 1624.63 3.16766 -2.24234 0
M  V30 17531 H 1622.73 3.72256 0.160174 0
M  V30 17532 H 1622.84 4.53713 -1.53888 0
M  V30 17533 H 1621.2 2.44138 -0.725876 0
M  V30 17534 H 1621.99 2.45741 -2.39721 0
M  V30 17535 N 1624.43 0.718038 1.40292 0
M  V30 17536 C 1625.36 0.0818367 2.33357 0
M  V30 17537 C 1626.34 -0.742854 1.53022 0
M  V30 17538 O 1627.53 -0.691281 1.8148 0
M  V30 17539 C 1624.66 -0.838843 3.37017 0
M  V30 17540 C 1623.61 -0.119589 4.27833 0
M  V30 17541 C 1622.94 -1.15615 5.22051 0
M  V30 17542 C 1624.24 1.02769 5.1209 0
M  V30 17543 H 1625.93 0.859167 2.86808 0
M  V30 17544 H 1623.48 0.414606 1.37902 0
M  V30 17545 H 1625.43 -1.29332 4.01063 0
M  V30 17546 H 1624.15 -1.6481 2.81967 0
M  V30 17547 H 1622.81 0.315088 3.65243 0
M  V30 17548 H 1622.46 -1.95852 4.63304 0
M  V30 17549 H 1622.16 -0.679767 5.83655 0
M  V30 17550 H 1623.69 -1.61068 5.88973 0
M  V30 17551 H 1625.1 0.652461 5.69575 0
M  V30 17552 H 1623.5 1.4326 5.82749 0
M  V30 17553 H 1624.57 1.85723 4.47923 0
M  V30 17554 N 1625.91 -1.50602 0.464402 0
M  V30 17555 C 1627.33 -1.59162 0.118173 0
M  V30 17556 C 1627.53 -1.47313 -1.37481 0
M  V30 17557 O 1626.58 -1.32819 -2.14745 0
M  V30 17558 C 1627.9 -2.93313 0.662411 0
M  V30 17559 C 1629.44 -3.06692 0.625244 0
M  V30 17560 C 1629.92 -4.43407 1.14691 0
M  V30 17561 N 1631.41 -4.49801 1.10604 0
M  V30 17562 C 1632.14 -5.53964 1.48026 0
M  V30 17563 N 1631.64 -6.65413 1.92865 0
M  V30 17564 N 1633.43 -5.44471 1.39671 0
M  V30 17565 H 1625.58 -1.56548 1.4355 0
M  V30 17566 H 1627.85 -0.739451 0.593225 0
M  V30 17567 H 1627.55 -3.07439 1.70805 0
M  V30 17568 H 1627.43 -3.77061 0.102251 0
M  V30 17569 H 1629.81 -2.92217 -0.411466 0
M  V30 17570 H 1629.9 -2.24717 1.22213 0
M  V30 17571 H 1629.54 -4.5863 2.18222 0
M  V30 17572 H 1629.47 -5.23963 0.526306 0
M  V30 17573 H 1631.96 -3.69824 0.77709 0
M  V30 17574 H 1632.27 -7.40947 2.19585 0
M  V30 17575 H 1630.62 -6.66551 1.96812 0
M  V30 17576 H 1633.81 -4.56289 1.04487 0
M  V30 17577 H 1633.98 -6.25531 1.69161 0
M  V30 17578 N 1627.39 -0.19675 -1.56367 0
M  V30 17579 C 1628.62 0.446491 -2.01718 0
M  V30 17580 C 1629.03 1.55621 -1.07604 0
M  V30 17581 O 1628.37 1.83553 -0.0733943 0
M  V30 17582 C 1628.43 1.06182 -3.43461 0
M  V30 17583 C 1628.1 0.0906278 -4.5691 0
M  V30 17584 C 1629.09 -0.700599 -5.15158 0
M  V30 17585 C 1626.78 -0.0209341 -5.02296 0
M  V30 17586 C 1628.77 -1.59034 -6.17241 0
M  V30 17587 C 1626.46 -0.91423 -6.04223 0
M  V30 17588 C 1627.46 -1.6975 -6.61569 0
M  V30 17589 O 1627.14 -2.57582 -7.61516 0
M  V30 17590 H 1626.88 0.116254 -0.665929 0
M  V30 17591 H 1629.43 -0.303224 -2.03149 0
M  V30 17592 H 1627.66 1.86015 -3.39021 0
M  V30 17593 H 1629.35 1.60988 -3.72609 0
M  V30 17594 H 1630.12 -0.624723 -4.8096 0
M  V30 17595 H 1625.99 0.578557 -4.57355 0
M  V30 17596 H 1629.54 -2.20215 -6.6193 0
M  V30 17597 H 1625.44 -0.991215 -6.37844 0
M  V30 17598 H 1626.2 -2.5138 -7.78942 0
M  V30 17599 N 1628.87 1.57413 0.0768405 0
M  V30 17600 C 1630.14 1.78056 0.809663 0
M  V30 17601 C 1630.52 0.783053 1.9604 0
M  V30 17602 O 1629.87 -0.184836 2.27751 0
M  V30 17603 C 1630.08 3.24391 1.2873 0
M  V30 17604 C 1631.43 3.88082 1.72272 0
M  V30 17605 O 1632.45 3.28251 1.38309 0
M  V30 17606 O 1631.31 4.93329 2.35135 0
M  V30 17607 H 1628.41 0.730553 0.387584 0
M  V30 17608 H 1630.95 1.69603 0.057307 0
M  V30 17609 H 1629.72 3.88543 0.463678 0
M  V30 17610 H 1629.35 3.37548 2.10112 0
M  V30 17611 N 1630.34 -0.348112 1.53707 0
M  V30 17612 C 1631.57 -1.10903 1.74666 0
M  V30 17613 C 1631.99 -1.82499 0.483683 0
M  V30 17614 O 1631.34 -1.74191 -0.544419 0
M  V30 17615 C 1631.4 -2.12602 2.92374 0
M  V30 17616 O 1631.12 -1.43918 4.13787 0
M  V30 17617 C 1632.62 -3.01105 3.25347 0
M  V30 17618 H 1629.84 -0.330911 0.583728 0
M  V30 17619 H 1632.38 -0.401707 2.00516 0
M  V30 17620 H 1630.54 -2.78906 2.68869 0
M  V30 17621 H 1630.95 -2.11818 4.79826 0
M  V30 17622 H 1632.42 -3.68408 4.11071 0
M  V30 17623 H 1632.9 -3.66874 2.41455 0
M  V30 17624 H 1633.51 -2.40395 3.50842 0
M  V30 17625 N 1631.82 -1.45363 -0.608876 0
M  V30 17626 C 1632.75 -1.49944 -1.73348 0
M  V30 17627 C 1633.77 -0.390352 -1.58051 0
M  V30 17628 O 1634.96 -0.657338 -1.65956 0
M  V30 17629 C 1632.06 -1.33886 -3.11332 0
M  V30 17630 C 1631.23 -2.58445 -3.52881 0
M  V30 17631 C 1630.29 -2.36963 -4.69825 0
M  V30 17632 O 1629.31 -3.10569 -4.77007 0
M  V30 17633 N 1630.52 -1.41442 -5.63005 0
M  V30 17634 H 1633.28 -2.46902 -1.69882 0
M  V30 17635 H 1630.84 -1.41086 -0.794119 0
M  V30 17636 H 1632.83 -1.17327 -3.8732 0
M  V30 17637 H 1631.4 -0.452095 -3.09314 0
M  V30 17638 H 1630.62 -2.90129 -2.66869 0
M  V30 17639 H 1631.91 -3.41245 -3.77398 0
M  V30 17640 H 1631.31 -0.806941 -5.59915 0
M  V30 17641 H 1629.87 -1.30855 -6.3853 0
M  V30 17642 N 1633.3 0.851265 -1.32632 0
M  V30 17643 C 1634.53 1.63568 -1.26211 0
M  V30 17644 C 1634.94 1.8842 0.171578 0
M  V30 17645 O 1634.28 1.45592 1.12021 0
M  V30 17646 C 1634.34 3.01653 -1.95566 0
M  V30 17647 C 1634.01 2.99827 -3.44896 0
M  V30 17648 C 1635 2.76431 -4.4032 0
M  V30 17649 C 1632.69 3.20355 -3.86883 0
M  V30 17650 C 1634.68 2.73572 -5.75706 0
M  V30 17651 C 1632.37 3.17122 -5.22376 0
M  V30 17652 C 1633.37 2.9376 -6.16599 0
M  V30 17653 O 1633.06 2.90408 -7.49612 0
M  V30 17654 H 1632.79 0.516079 -0.436622 0
M  V30 17655 H 1635.34 1.06941 -1.75365 0
M  V30 17656 H 1633.57 3.60083 -1.40986 0
M  V30 17657 H 1635.26 3.62403 -1.82809 0
M  V30 17658 H 1636.03 2.60335 -4.09208 0
M  V30 17659 H 1631.91 3.37563 -3.13962 0
M  V30 17660 H 1635.45 2.55257 -6.49222 0
M  V30 17661 H 1631.35 3.32764 -5.53117 0
M  V30 17662 H 1632.12 3.06338 -7.59012 0
M  V30 17663 N 1634.78 1.15898 1.06796 0
M  V30 17664 C 1636.01 0.959978 1.82943 0
M  V30 17665 C 1636.42 -0.495084 1.82608 0
M  V30 17666 O 1635.76 -1.35528 1.24008 0
M  V30 17667 C 1635.82 1.40408 3.30947 0
M  V30 17668 C 1635.49 2.87801 3.54993 0
M  V30 17669 C 1636.48 3.85834 3.48465 0
M  V30 17670 C 1634.17 3.25601 3.82478 0
M  V30 17671 C 1636.16 5.19672 3.6908 0
M  V30 17672 C 1633.85 4.59609 4.02744 0
M  V30 17673 C 1634.85 5.56454 3.96041 0
M  V30 17674 O 1634.53 6.8804 4.1576 0
M  V30 17675 H 1634.27 0.340717 0.583856 0
M  V30 17676 H 1636.82 1.54211 1.35677 0
M  V30 17677 H 1635.05 0.765395 3.7905 0
M  V30 17678 H 1636.74 1.1733 3.88572 0
M  V30 17679 H 1637.51 3.57977 3.27227 0
M  V30 17680 H 1633.38 2.50803 3.86806 0
M  V30 17681 H 1636.93 5.95249 3.63764 0
M  V30 17682 H 1632.83 4.8718 4.23469 0
M  V30 17683 H 1633.59 6.94541 4.33076 0
M  V30 17684 N 1636.26 -1.25243 0.956659 0
M  V30 17685 C 1637.19 -2.28159 0.496574 0
M  V30 17686 C 1638.17 -1.63814 -0.458132 0
M  V30 17687 O 1639.35 -1.90897 -0.356648 0
M  V30 17688 C 1636.48 -3.46573 -0.22454 0
M  V30 17689 C 1635.44 -4.2311 0.645104 0
M  V30 17690 C 1634.76 -5.343 -0.206867 0
M  V30 17691 C 1636.06 -4.85562 1.92422 0
M  V30 17692 H 1637.76 -2.66895 1.35675 0
M  V30 17693 H 1635.3 -1.28301 0.653827 0
M  V30 17694 H 1637.26 -4.17695 -0.55755 0
M  V30 17695 H 1635.98 -3.06833 -1.11898 0
M  V30 17696 H 1634.64 -3.53774 0.961228 0
M  V30 17697 H 1634.29 -4.908 -1.10112 0
M  V30 17698 H 1633.99 -5.86423 0.371714 0
M  V30 17699 H 1635.51 -6.08253 -0.534798 0
M  V30 17700 H 1636.92 -5.48817 1.65749 0
M  V30 17701 H 1635.32 -5.47871 2.44862 0
M  V30 17702 H 1636.39 -4.07634 2.62607 0
M  V30 17703 N 1637.73 -0.725468 -1.3991 0
M  V30 17704 C 1638.98 -0.269251 -2.00702 0
M  V30 17705 C 1639.31 1.1406 -1.57545 0
M  V30 17706 O 1638.56 1.78997 -0.79111 0
M  V30 17707 C 1638.86 -0.308261 -3.56068 0
M  V30 17708 C 1638.53 -1.66979 -4.18842 0
M  V30 17709 C 1637.19 -2.04247 -4.35702 0
M  V30 17710 C 1639.54 -2.56418 -4.53761 0
M  V30 17711 C 1636.87 -3.3048 -4.84768 0
M  V30 17712 C 1639.22 -3.82014 -5.0423 0
M  V30 17713 C 1637.89 -4.19386 -5.19299 0
M  V30 17714 H 1637.16 -0.0985258 -0.734421 0
M  V30 17715 H 1639.8 -0.930441 -1.67377 0
M  V30 17716 H 1638.11 0.436504 -3.89361 0
M  V30 17717 H 1639.81 0.0627207 -4.00951 0
M  V30 17718 H 1636.4 -1.37001 -4.06114 0
M  V30 17719 H 1640.58 -2.28898 -4.40363 0
M  V30 17720 H 1635.84 -3.59392 -4.94619 0
M  V30 17721 H 1640.01 -4.51481 -5.30225 0
M  V30 17722 H 1637.64 -5.17268 -5.5708 0
M  V30 17723 N 1639.21 1.50354 -0.472382 0
M  V30 17724 C 1640.16 2.30173 0.335135 0
M  V30 17725 C 1641.15 1.37517 0.98921 0
M  V30 17726 O 1642.36 1.54703 0.920168 0
M  V30 17727 H 1638.74 0.741212 0.126918 0
M  V30 17728 H 1640.71 2.96239 -0.358449 0
M  V30 17729 C 1639.46 3.18104 1.40375 0
M  V30 17730 H 1638.78 3.8931 0.90984 0
M  V30 17731 H 1640.22 3.76947 1.94132 0
M  V30 17732 C 1638.68 2.35785 2.40639 0
M  V30 17733 O 1639.21 2.04185 3.45936 0
M  V30 17734 N 1637.41 1.98342 2.12389 0
M  V30 17735 H 1636.96 2.2424 1.26784 0
M  V30 17736 H 1636.92 1.43567 2.79707 0
M  V30 17737 N 1640.69 0.205039 1.56261 0
M  V30 17738 C 1641.62 -0.743854 2.16794 0
M  V30 17739 C 1642.64 -1.16959 1.13245 0
M  V30 17740 O 1643.83 -1.1036 1.40296 0
M  V30 17741 C 1640.93 -2.01717 2.7233 0
M  V30 17742 C 1640.1 -1.74965 4.00882 0
M  V30 17743 C 1639.16 -2.86841 4.41145 0
M  V30 17744 O 1638.18 -2.5602 5.08372 0
M  V30 17745 N 1639.39 -4.15425 4.05466 0
M  V30 17746 H 1642.15 -0.226145 2.98846 0
M  V30 17747 H 1639.71 0.0234276 1.61883 0
M  V30 17748 H 1641.7 -2.7572 2.96244 0
M  V30 17749 H 1640.27 -2.44582 1.94675 0
M  V30 17750 H 1639.49 -0.846903 3.84995 0
M  V30 17751 H 1640.78 -1.54501 4.84775 0
M  V30 17752 H 1640.18 -4.43314 3.5141 0
M  V30 17753 H 1638.74 -4.86023 4.3431 0
M  V30 17754 N 1642.17 -1.57451 -0.0684915 0
M  V30 17755 C 1643.42 -1.87041 -0.765505 0
M  V30 17756 C 1643.74 -0.797489 -1.77947 0
M  V30 17757 O 1643.01 0.17349 -1.9513 0
M  V30 17758 H 1641.59 -0.690203 -0.285708 0
M  V30 17759 H 1644.25 -1.94851 -0.0437957 0
M  V30 17760 H 1643.35 -2.8466 -1.27966 0
M  V30 17761 N 1643.65 0.339955 -1.5389 0
M  V30 17762 C 1644.58 1.44096 -1.76951 0
M  V30 17763 C 1645.56 1.50367 -0.618758 0
M  V30 17764 O 1646.74 1.68028 -0.854329 0
M  V30 17765 C 1643.87 2.82307 -1.87137 0
M  V30 17766 C 1642.92 2.93645 -3.09314 0
M  V30 17767 S 1643.75 2.59742 -4.68288 0
M  V30 17768 C 1644.9 4.00055 -4.81359 0
M  V30 17769 H 1645.14 1.24318 -2.7006 0
M  V30 17770 H 1642.67 0.535835 -1.44804 0
M  V30 17771 H 1644.63 3.61931 -1.93692 0
M  V30 17772 H 1643.29 2.99378 -0.950349 0
M  V30 17773 H 1642.48 3.94927 -3.13127 0
M  V30 17774 H 1642.08 2.21974 -3.01004 0
M  V30 17775 H 1644.38 4.94619 -4.62989 0
M  V30 17776 H 1645.32 4.01234 -5.83452 0
M  V30 17777 H 1645.73 3.88248 -4.09785 0
M  V30 17778 N 1645.13 1.45684 0.601159 0
M  V30 17779 C 1646.06 1.50861 1.7255 0
M  V30 17780 C 1647.07 0.398728 1.57842 0
M  V30 17781 O 1648.26 0.66613 1.65605 0
M  V30 17782 C 1645.36 1.35535 3.10618 0
M  V30 17783 C 1644.53 2.60313 3.51505 0
M  V30 17784 C 1643.59 2.39451 4.68561 0
M  V30 17785 O 1642.62 3.13094 4.75353 0
M  V30 17786 N 1643.82 1.44426 5.62247 0
M  V30 17787 H 1646.58 2.47799 1.6857 0
M  V30 17788 H 1644.15 1.41505 0.786626 0
M  V30 17789 H 1646.14 1.19379 3.86692 0
M  V30 17790 H 1644.71 0.468492 3.09069 0
M  V30 17791 H 1643.93 2.9154 2.65327 0
M  V30 17792 H 1645.22 3.43242 3.75583 0
M  V30 17793 H 1644.61 0.836624 5.59479 0
M  V30 17794 H 1643.17 1.34239 6.37827 0
M  V30 17795 N 1646.6 -0.84422 1.33082 0
M  V30 17796 C 1647.55 -1.97504 1.22862 0
M  V30 17797 C 1648.55 -1.68892 0.131141 0
M  V30 17798 O 1649.75 -1.7757 0.294753 0
M  V30 17799 H 1646.13 -0.648263 0.381129 0
M  V30 17800 H 1648.1 -2.03249 2.18478 0
M  V30 17801 C 1646.85 -3.33626 0.979228 0
M  V30 17802 H 1646.17 -3.56178 1.81596 0
M  V30 17803 H 1647.61 -4.13266 0.948007 0
M  V30 17804 C 1646.07 -3.35397 -0.317922 0
M  V30 17805 O 1646.6 -3.7917 -1.32638 0
M  V30 17806 N 1644.8 -2.88562 -0.343577 0
M  V30 17807 H 1644.35 -2.53133 0.477625 0
M  V30 17808 H 1644.31 -2.90129 -1.21131 0
M  V30 17809 N 1648.08 -1.16463 -1.0618 0
M  V30 17810 C 1649.33 -0.941322 -1.78387 0
M  V30 17811 C 1649.64 0.531995 -1.88226 0
M  V30 17812 O 1650.85 0.873227 -2.57074 0
M  V30 17813 C 1649.31 -1.63491 -3.20623 0
M  V30 17814 C 1648.91 -3.14607 -3.18946 0
M  V30 17815 C 1650.66 -1.49361 -3.97356 0
M  V30 17816 C 1648.56 -3.76698 -4.55908 0
M  V30 17817 H 1647.49 -0.348549 -0.668603 0
M  V30 17818 H 1650.15 -1.39607 -1.19088 0
M  V30 17819 H 1648.53 -1.10787 -3.80187 0
M  V30 17820 H 1649.7 -3.74164 -2.68957 0
M  V30 17821 H 1648.02 -3.28634 -2.55712 0
M  V30 17822 H 1650.61 -1.93131 -4.98603 0
M  V30 17823 H 1650.96 -0.442724 -4.13939 0
M  V30 17824 H 1651.49 -1.99227 -3.44316 0
M  V30 17825 H 1648.23 -4.8174 -4.4453 0
M  V30 17826 H 1647.75 -3.21927 -5.06086 0
M  V30 17827 H 1649.43 -3.78321 -5.24864 0
M  V30 17828 N 1649.56 1.24734 -0.963288 0
M  V30 17829 C 1650.79 1.9646 -0.639305 0
M  V30 17830 C 1651.2 1.71708 0.794553 0
M  V30 17831 O 1650.54 0.995015 1.54419 0
M  V30 17832 C 1650.6 3.49818 -0.828696 0
M  V30 17833 C 1650.27 3.98262 -2.24135 0
M  V30 17834 C 1651.26 4.08281 -3.21874 0
M  V30 17835 C 1648.95 4.31701 -2.56786 0
M  V30 17836 C 1650.94 4.51067 -4.50352 0
M  V30 17837 C 1648.63 4.74172 -3.85492 0
M  V30 17838 C 1649.63 4.83819 -4.82087 0
M  V30 17839 O 1649.32 5.25344 -6.08497 0
M  V30 17840 H 1649.05 0.63276 -0.237888 0
M  V30 17841 H 1651.6 1.59635 -1.29251 0
M  V30 17842 H 1649.83 3.86519 -0.118332 0
M  V30 17843 H 1651.52 4.02753 -0.504465 0
M  V30 17844 H 1652.29 3.82668 -2.97976 0
M  V30 17845 H 1648.17 4.23414 -1.82323 0
M  V30 17846 H 1651.71 4.58512 -5.2575 0
M  V30 17847 H 1647.61 4.99231 -4.09192 0
M  V30 17848 H 1648.37 5.43506 -6.12 0
M  V30 17849 N 1651.04 0.732878 1.39523 0
M  V30 17850 C 1652.29 0.276787 1.99792 0
M  V30 17851 C 1652.6 -1.14181 1.58814 0
M  V30 17852 O 1653.81 -1.69731 2.11905 0
M  V30 17853 C 1652.26 0.443924 3.57152 0
M  V30 17854 C 1651.87 1.87027 4.07093 0
M  V30 17855 C 1653.61 0.0495022 4.24471 0
M  V30 17856 C 1651.52 1.98708 5.57018 0
M  V30 17857 H 1650.45 0.0997337 0.747375 0
M  V30 17858 H 1653.1 0.906454 1.59548 0
M  V30 17859 H 1651.48 -0.254605 3.95181 0
M  V30 17860 H 1652.66 2.60059 3.80403 0
M  V30 17861 H 1650.97 2.21772 3.52429 0
M  V30 17862 H 1653.57 0.115815 5.34575 0
M  V30 17863 H 1653.91 -0.994967 4.04235 0
M  V30 17864 H 1654.45 0.69911 3.91609 0
M  V30 17865 H 1651.18 3.01336 5.82131 0
M  V30 17866 H 1650.7 1.30111 5.85518 0
M  V30 17867 H 1652.38 1.76725 6.22396 0
M  V30 17868 N 1652.52 -1.50101 0.480349 0
M  V30 17869 C 1653.46 -2.28722 -0.308993 0
M  V30 17870 C 1654.43 -1.34186 -0.978948 0
M  V30 17871 O 1655.62 -1.6313 -0.989602 0
M  V30 17872 C 1652.76 -3.16322 -1.37966 0
M  V30 17873 C 1651.87 -4.25898 -0.723552 0
M  V30 17874 C 1651.01 -5.00741 -1.7729 0
M  V30 17875 C 1650.04 -6.0218 -1.09754 0
M  V30 17876 N 1649.18 -6.70266 -2.09015 0
M  V30 17877 H 1654.02 -2.95722 0.367739 0
M  V30 17878 H 1651.56 -1.45826 0.193197 0
M  V30 17879 H 1653.52 -3.65469 -2.01217 0
M  V30 17880 H 1652.15 -2.51349 -2.02543 0
M  V30 17881 H 1651.2 -3.80394 0.0217507 0
M  V30 17882 H 1652.51 -4.98435 -0.190905 0
M  V30 17883 H 1651.66 -5.53653 -2.48098 0
M  V30 17884 H 1650.4 -4.27931 -2.33937 0
M  V30 17885 H 1649.41 -5.48519 -0.375123 0
M  V30 17886 H 1650.63 -6.76967 -0.537841 0
M  V30 17887 H 1648.58 -6.00242 -2.64662 0
M  V30 17888 H 1648.5 -7.3871 -1.6076 0
M  V30 17889 H 1649.76 -7.27792 -2.79175 0
M  V30 17890 N 1653.99 -0.213323 -1.5615 0
M  V30 17891 C 1655.22 0.425071 -2.0218 0
M  V30 17892 C 1655.63 1.54471 -1.09249 0
M  V30 17893 O 1654.97 1.83465 -0.0928585 0
M  V30 17894 C 1655.04 1.02533 -3.44568 0
M  V30 17895 C 1654.7 0.0421613 -4.56981 0
M  V30 17896 C 1655.7 -0.755199 -5.14386 0
M  V30 17897 C 1653.38 -0.0742081 -5.02245 0
M  V30 17898 C 1655.38 -1.65571 -6.1552 0
M  V30 17899 C 1653.06 -0.978264 -6.03219 0
M  V30 17900 C 1654.06 -1.76757 -6.59732 0
M  V30 17901 O 1653.75 -2.65644 -7.58741 0
M  V30 17902 H 1653.48 0.109184 -0.667124 0
M  V30 17903 H 1656.04 -0.324754 -2.02816 0
M  V30 17904 H 1654.27 1.82409 -3.40975 0
M  V30 17905 H 1655.95 1.57027 -3.74296 0
M  V30 17906 H 1656.72 -0.6757 -4.8027 0
M  V30 17907 H 1652.6 0.530016 -4.57943 0
M  V30 17908 H 1656.14 -2.27223 -6.59557 0
M  V30 17909 H 1652.04 -1.05881 -6.36757 0
M  V30 17910 H 1652.81 -2.59627 -7.76232 0
M  V30 17911 N 1655.47 1.57485 0.0601405 0
M  V30 17912 C 1656.72 1.87816 0.75707 0
M  V30 17913 C 1657.05 0.806616 1.76986 0
M  V30 17914 O 1656.3 -0.196101 1.94715 0
M  V30 17915 C 1656.6 3.24839 1.49045 0
M  V30 17916 C 1656.27 4.46665 0.616559 0
M  V30 17917 C 1654.93 4.79731 0.375769 0
M  V30 17918 C 1657.28 5.21199 0.0113073 0
M  V30 17919 C 1654.61 5.84737 -0.479564 0
M  V30 17920 C 1656.96 6.27111 -0.831546 0
M  V30 17921 C 1655.63 6.58671 -1.0821 0
M  V30 17922 H 1654.9 0.687266 0.277032 0
M  V30 17923 H 1657.54 1.91492 0.0175593 0
M  V30 17924 H 1655.85 3.17007 2.30247 0
M  V30 17925 H 1657.54 3.45545 2.03469 0
M  V30 17926 H 1654.13 4.20792 0.814371 0
M  V30 17927 H 1658.32 4.95957 0.18443 0
M  V30 17928 H 1653.57 6.07581 -0.682308 0
M  V30 17929 H 1657.75 6.84021 -1.30721 0
M  V30 17930 H 1655.38 7.39863 -1.74663 0
M  V30 17931 N 1656.95 -0.331789 1.54068 0
M  V30 17932 C 1658.18 -1.09484 1.76148 0
M  V30 17933 C 1658.6 -1.81201 0.504772 0
M  V30 17934 O 1657.96 -1.7297 -0.54325 0
M  V30 17935 C 1658.01 -2.07495 2.94921 0
M  V30 17936 O 1657.11 -3.15239 2.65891 0
M  V30 17937 H 1656.45 -0.316071 0.583948 0
M  V30 17938 H 1658.98 -0.378593 2.01067 0
M  V30 17939 H 1658.99 -2.5051 3.22038 0
M  V30 17940 H 1657.67 -1.54696 3.8606 0
M  V30 17941 H 1656.24 -2.76958 2.49697 0
M  V30 17942 N 1658.43 -1.46001 -0.593424 0
M  V30 17943 C 1659.38 -1.55752 -1.70323 0
M  V30 17944 C 1660.35 -0.402466 -1.6115 0
M  V30 17945 O 1661.53 -0.617804 -1.80521 0
M  V30 17946 C 1658.67 -1.54362 -3.08653 0
M  V30 17947 C 1657.78 -2.80523 -3.28529 0
M  V30 17948 C 1656.92 -2.70709 -4.57045 0
M  V30 17949 C 1655.96 -3.91857 -4.70228 0
M  V30 17950 N 1655.09 -3.80494 -5.90059 0
M  V30 17951 H 1659.93 -2.50555 -1.61326 0
M  V30 17952 H 1657.47 -1.24313 -0.786425 0
M  V30 17953 H 1659.43 -1.51542 -3.88704 0
M  V30 17954 H 1658.06 -0.630986 -3.16573 0
M  V30 17955 H 1657.11 -2.93368 -2.42155 0
M  V30 17956 H 1658.42 -3.70341 -3.3414 0
M  V30 17957 H 1657.58 -2.65935 -5.45311 0
M  V30 17958 H 1656.32 -1.78513 -4.53855 0
M  V30 17959 H 1655.32 -3.96975 -3.80383 0
M  V30 17960 H 1656.55 -4.85136 -4.75205 0
M  V30 17961 H 1654.49 -2.91077 -5.87886 0
M  V30 17962 H 1654.41 -4.63958 -5.96891 0
M  V30 17963 H 1655.68 -3.79676 -6.80783 0
M  V30 17964 N 1659.91 0.83715 -1.33527 0
M  V30 17965 C 1660.87 1.92865 -1.23837 0
M  V30 17966 C 1661.87 1.60032 -0.157005 0
M  V30 17967 O 1663.06 1.69339 -0.408654 0
M  V30 17968 C 1660.19 3.28568 -0.908617 0
M  V30 17969 H 1661.38 2.02883 -2.20859 0
M  V30 17970 H 1658.94 1.02944 -1.1761 0
M  V30 17971 H 1659.67 3.24246 0.0590328 0
M  V30 17972 H 1659.46 3.53779 -1.69064 0
M  V30 17973 H 1660.95 4.0853 -0.86561 0
M  V30 17974 N 1661.38 1.17024 1.05561 0
M  V30 17975 C 1662.61 0.981293 1.82717 0
M  V30 17976 C 1663.03 -0.465636 1.82246 0
M  V30 17977 O 1662.39 -1.33315 1.22869 0
M  V30 17978 C 1662.44 1.52239 3.26888 0
M  V30 17979 O 1661.54 0.73366 4.05822 0
M  V30 17980 H 1660.89 0.348677 0.565084 0
M  V30 17981 H 1663.42 1.55435 1.33046 0
M  V30 17982 H 1663.43 1.54306 3.77695 0
M  V30 17983 H 1662.1 2.57567 3.26545 0
M  V30 17984 H 1660.68 0.784101 3.64563 0
M  V30 17985 N 1662.86 -1.24221 0.969889 0
M  V30 17986 C 1663.8 -2.2379 0.446447 0
M  V30 17987 C 1664.77 -1.55333 -0.480658 0
M  V30 17988 O 1665.96 -1.83953 -0.411531 0
M  V30 17989 C 1663.08 -3.36831 -0.35529 0
M  V30 17990 C 1662.13 -4.23386 0.514419 0
M  V30 17991 S 1662.96 -4.98501 1.95595 0
M  V30 17992 C 1664.12 -6.14999 1.16306 0
M  V30 17993 H 1664.35 -2.67844 1.29023 0
M  V30 17994 H 1661.89 -1.33536 0.775086 0
M  V30 17995 H 1663.84 -4.02391 -0.811882 0
M  V30 17996 H 1662.5 -2.91332 -1.17407 0
M  V30 17997 H 1661.7 -5.03898 -0.101254 0
M  V30 17998 H 1661.3 -3.6284 0.906829 0
M  V30 17999 H 1663.59 -6.76202 0.419162 0
M  V30 18000 H 1664.53 -6.80931 1.94264 0
M  V30 18001 H 1664.94 -5.6031 0.68647 0
M  V30 18002 N 1664.34 -0.740267 -1.39132 0
M  V30 18003 C 1665.59 -0.289949 -2.00009 0
M  V30 18004 C 1665.91 1.12831 -1.59042 0
M  V30 18005 O 1665.18 1.76926 -0.841076 0
M  V30 18006 H 1663.76 -0.104213 -0.739695 0
M  V30 18007 H 1666.42 -0.951398 -1.70101 0
M  V30 18008 H 1665.52 -0.342509 -3.10215 0
M  V30 18009 N 1665.82 1.49844 -0.488302 0
M  V30 18010 C 1666.73 2.32651 0.301746 0
M  V30 18011 C 1667.74 1.43807 0.979573 0
M  V30 18012 O 1668.92 1.76844 0.963758 0
M  V30 18013 C 1665.99 3.18928 1.35962 0
M  V30 18014 C 1665.05 4.23611 0.696575 0
M  V30 18015 C 1664.28 5.05765 1.70404 0
M  V30 18016 O 1664.5 4.89243 2.93253 0
M  V30 18017 O 1663.44 5.88427 1.26637 0
M  V30 18018 H 1667.26 3.01367 -0.375687 0
M  V30 18019 H 1664.85 1.47296 -0.249844 0
M  V30 18020 H 1666.73 3.72413 1.97198 0
M  V30 18021 H 1665.4 2.52921 2.02021 0
M  V30 18022 H 1664.31 3.74073 0.0448118 0
M  V30 18023 H 1665.64 4.92137 0.0786446 0
M  V30 18024 N 1667.3 0.221601 1.56034 0
M  V30 18025 C 1668.52 -0.414945 2.02696 0
M  V30 18026 C 1668.94 -1.53344 1.10141 0
M  V30 18027 O 1668.3 -1.82162 0.111026 0
M  V30 18028 C 1668.35 -0.946532 3.48888 0
M  V30 18029 O 1668.07 0.12737 4.37915 0
M  V30 18030 C 1669.57 -1.65631 4.11195 0
M  V30 18031 H 1666.79 -0.101548 0.663271 0
M  V30 18032 H 1669.33 0.338069 2.01686 0
M  V30 18033 H 1667.49 -1.64982 3.50514 0
M  V30 18034 H 1667.9 -0.272211 5.23793 0
M  V30 18035 H 1669.38 -1.98027 5.15257 0
M  V30 18036 H 1669.85 -2.56947 3.56195 0
M  V30 18037 H 1670.46 -0.998231 4.13419 0
M  V30 18038 N 1668.77 -1.57515 -0.0517878 0
M  V30 18039 C 1669.74 -2.04049 -1.04387 0
M  V30 18040 C 1670.74 -0.940745 -1.30409 0
M  V30 18041 O 1671.93 -1.20505 -1.25794 0
M  V30 18042 C 1669.06 -2.43816 -2.38257 0
M  V30 18043 H 1670.25 -2.9294 -0.642367 0
M  V30 18044 H 1667.81 -1.53432 -0.29805 0
M  V30 18045 H 1668.54 -1.58013 -2.832 0
M  V30 18046 H 1668.33 -3.24086 -2.20705 0
M  V30 18047 H 1669.82 -2.80325 -3.09528 0
M  V30 18048 N 1670.25 0.323614 -1.54242 0
M  V30 18049 C 1671.66 0.898051 -1.63682 0
M  V30 18050 C 1672.02 1.88882 -0.530861 0
M  V30 18051 O 1671.14 2.13772 0.336245 0
M  V30 18052 C 1671.74 1.63561 -2.96704 0
M  V30 18053 C 1670.29 2.15877 -3.08341 0
M  V30 18054 C 1669.44 0.984145 -2.59249 0
M  V30 18055 H 1672.39 0.101198 -1.58377 0
M  V30 18056 H 1672.41 2.49982 -2.86861 0
M  V30 18057 H 1671.93 0.914265 -3.77177 0
M  V30 18058 H 1670.03 2.91127 -2.32542 0
M  V30 18059 H 1670.14 2.40881 -4.14141 0
M  V30 18060 H 1668.5 1.3633 -2.15143 0
M  V30 18061 H 1669.29 0.277118 -3.4218 0
M  V30 18062 N 1671.73 1.46313 0.585673 0
M  V30 18063 C 1673.15 1.31203 0.908733 0
M  V30 18064 C 1673.35 0.281265 1.99527 0
M  V30 18065 O 1672.4 -0.317202 2.505 0
M  V30 18066 C 1673.72 2.69742 1.3289 0
M  V30 18067 C 1675.26 2.77809 1.44191 0
M  V30 18068 C 1675.74 4.16924 1.89574 0
M  V30 18069 N 1677.23 4.19327 1.96773 0
M  V30 18070 C 1677.97 5.23856 2.33157 0
M  V30 18071 N 1677.46 6.38716 2.68355 0
M  V30 18072 N 1679.25 5.11221 2.33686 0
M  V30 18073 H 1671.41 2.11989 -0.132126 0
M  V30 18074 H 1673.67 0.947993 0.00355835 0
M  V30 18075 H 1673.37 3.46465 0.604557 0
M  V30 18076 H 1673.25 2.99653 2.29102 0
M  V30 18077 H 1675.64 2.01377 2.15712 0
M  V30 18078 H 1675.72 2.51587 0.46237 0
M  V30 18079 H 1675.36 4.93851 1.18633 0
M  V30 18080 H 1675.29 4.40552 2.88481 0
M  V30 18081 H 1677.78 3.36451 1.72073 0
M  V30 18082 H 1678.09 7.14253 2.95063 0
M  V30 18083 H 1676.44 6.42082 2.66 0
M  V30 18084 H 1679.63 4.20527 2.05609 0
M  V30 18085 H 1679.8 5.92798 2.61714 0
M  V30 18086 N 1673.21 -0.830057 1.33969 0
M  V30 18087 C 1674.44 -1.61774 1.28984 0
M  V30 18088 C 1674.85 -1.88299 -0.137515 0
M  V30 18089 O 1674.21 -1.46936 -1.0824 0
M  V30 18090 C 1674.26 -2.96282 2.07121 0
M  V30 18091 O 1673.98 -2.70918 3.44289 0
M  V30 18092 C 1675.48 -3.90699 2.09449 0
M  V30 18093 H 1672.7 -0.503088 0.444008 0
M  V30 18094 H 1675.25 -1.03328 1.76475 0
M  V30 18095 H 1673.4 -3.51305 1.63289 0
M  V30 18096 H 1673.82 -3.56635 3.84593 0
M  V30 18097 H 1675.29 -4.82266 2.68558 0
M  V30 18098 H 1675.77 -4.25536 1.08702 0
M  V30 18099 H 1676.37 -3.41614 2.53338 0
M  V30 18100 N 1674.69 -1.17582 -1.04939 0
M  V30 18101 C 1675.64 -0.891102 -2.14854 0
M  V30 18102 C 1676.63 0.145242 -1.68776 0
M  V30 18103 O 1677.84 -0.00207978 -1.8 0
M  V30 18104 H 1674.21 -0.270641 -0.701611 0
M  V30 18105 H 1676.18 -1.82519 -2.36071 0
M  V30 18106 C 1674.93 -0.423679 -3.45109 0
M  V30 18107 H 1674.25 -1.2126 -3.80967 0
M  V30 18108 H 1675.69 -0.263369 -4.23181 0
M  V30 18109 C 1674.15 0.859085 -3.25763 0
M  V30 18110 O 1674.68 1.9253 -3.52555 0
M  V30 18111 N 1672.89 0.80824 -2.79134 0
M  V30 18112 H 1672.44 -0.0596431 -2.57531 0
M  V30 18113 H 1672.39 1.66697 -2.6657 0
M  V30 18114 N 1676.17 1.23705 -0.976463 0
M  V30 18115 C 1677.41 1.92015 -0.643168 0
M  V30 18116 C 1677.74 1.76239 0.822796 0
M  V30 18117 O 1677 1.11469 1.60851 0
M  V30 18118 C 1677.29 3.43853 -0.974676 0
M  V30 18119 C 1676.96 3.79805 -2.43021 0
M  V30 18120 C 1675.62 3.89329 -2.82801 0
M  V30 18121 C 1677.97 3.97218 -3.37442 0
M  V30 18122 C 1675.3 4.13691 -4.16025 0
M  V30 18123 C 1677.65 4.23079 -4.70305 0
M  V30 18124 C 1676.32 4.30824 -5.0985 0
M  V30 18125 H 1675.59 0.702631 -0.235352 0
M  V30 18126 H 1678.24 1.46811 -1.22959 0
M  V30 18127 H 1676.54 3.90602 -0.306121 0
M  V30 18128 H 1678.24 3.9493 -0.695061 0
M  V30 18129 H 1674.83 3.72963 -2.11179 0
M  V30 18130 H 1679.01 3.89254 -3.07889 0
M  V30 18131 H 1674.27 4.17909 -4.46276 0
M  V30 18132 H 1678.44 4.35496 -5.4343 0
M  V30 18133 H 1676.07 4.49454 -6.13103 0
M  V30 18134 N 1677.64 0.747635 1.38738 0
M  V30 18135 C 1678.59 0.105258 2.32362 0
M  V30 18136 C 1679.59 -0.711921 1.53714 0
M  V30 18137 O 1680.79 -0.611687 1.69288 0
M  V30 18138 H 1677.17 0.0152406 0.751846 0
M  V30 18139 H 1679.14 0.911057 2.84152 0
M  V30 18140 C 1677.89 -0.778221 3.38879 0
M  V30 18141 H 1677.21 -0.158806 3.99484 0
M  V30 18142 H 1678.65 -1.19509 4.06809 0
M  V30 18143 C 1677.11 -1.91819 2.76961 0
M  V30 18144 O 1677.64 -3.01187 2.65799 0
M  V30 18145 N 1675.84 -1.71143 2.34859 0
M  V30 18146 H 1675.39 -0.821885 2.44137 0
M  V30 18147 H 1675.35 -2.47588 1.93772 0
M  V30 18148 N 1679.12 -1.49583 0.496242 0
M  V30 18149 C 1680.07 -2.30677 -0.298474 0
M  V30 18150 C 1681.06 -1.39074 -0.967207 0
M  V30 18151 O 1682.27 -1.56147 -0.895439 0
M  V30 18152 H 1678.64 -0.743138 -0.11511 0
M  V30 18153 H 1680.62 -2.95632 0.405533 0
M  V30 18154 C 1679.36 -3.20297 -1.35297 0
M  V30 18155 H 1678.69 -3.90708 -0.847789 0
M  V30 18156 H 1680.13 -3.79987 -1.88111 0
M  V30 18157 C 1678.59 -2.39584 -2.36857 0
M  V30 18158 O 1679.12 -2.09662 -3.42644 0
M  V30 18159 N 1677.32 -2.01695 -2.09206 0
M  V30 18160 H 1676.87 -2.26229 -1.23201 0
M  V30 18161 H 1676.83 -1.47998 -2.77388 0
M  V30 18162 N 1680.6 -0.229873 -1.55915 0
M  V30 18163 C 1681.56 0.663347 -2.19391 0
M  V30 18164 C 1682.56 1.11548 -1.15818 0
M  V30 18165 O 1683.75 1.02294 -1.41002 0
M  V30 18166 C 1680.88 1.9097 -2.82389 0
M  V30 18167 H 1682.08 0.109797 -2.99699 0
M  V30 18168 H 1679.63 0.0197234 -1.56288 0
M  V30 18169 H 1680.37 2.50491 -2.05973 0
M  V30 18170 H 1680.15 1.59388 -3.58243 0
M  V30 18171 H 1681.64 2.5459 -3.31019 0
M  V30 18172 N 1682.08 1.5754 0.0434337 0
M  V30 18173 C 1683.04 2.046 1.03303 0
M  V30 18174 C 1684.04 0.947648 1.29909 0
M  V30 18175 O 1685.23 1.21171 1.25153 0
M  V30 18176 C 1682.36 2.45077 2.36961 0
M  V30 18177 H 1683.56 2.93276 0.626822 0
M  V30 18178 H 1681.11 1.53588 0.289909 0
M  V30 18179 H 1681.84 1.59513 2.82358 0
M  V30 18180 H 1681.63 3.25252 2.18983 0
M  V30 18181 H 1683.12 2.81963 3.08037 0
M  V30 18182 N 1683.56 -0.31543 1.54411 0
M  V30 18183 C 1684.8 -1.04997 1.72217 0
M  V30 18184 C 1685.12 -1.8891 0.507176 0
M  V30 18185 O 1686.32 -2.65519 0.566738 0
M  V30 18186 C 1684.78 -1.91633 3.04639 0
M  V30 18187 C 1684.39 -1.12792 4.33569 0
M  V30 18188 C 1686.13 -2.64774 3.31806 0
M  V30 18189 C 1684.04 -1.98621 5.57049 0
M  V30 18190 H 1682.97 -0.395716 0.641814 0
M  V30 18191 H 1685.62 -0.307748 1.80901 0
M  V30 18192 H 1684 -2.69786 2.89882 0
M  V30 18193 H 1685.18 -0.393534 4.59116 0
M  V30 18194 H 1683.49 -0.512975 4.13228 0
M  V30 18195 H 1686.09 -3.29313 4.21257 0
M  V30 18196 H 1686.43 -3.32843 2.50043 0
M  V30 18197 H 1686.96 -1.93678 3.47467 0
M  V30 18198 H 1683.7 -1.35047 6.41438 0
M  V30 18199 H 1683.22 -2.69771 5.35708 0
M  V30 18200 H 1684.9 -2.57014 5.93762 0
M  V30 18201 N 1685.03 -1.46622 -0.577906 0
M  V30 18202 C 1685.98 -1.57926 -1.70769 0
M  V30 18203 C 1686.98 -0.447509 -1.63382 0
M  V30 18204 O 1688.18 -0.624559 -1.68817 0
M  V30 18205 H 1684.56 -0.496618 -0.56469 0
M  V30 18206 H 1686.53 -2.52908 -1.58367 0
M  V30 18207 C 1685.28 -1.59124 -3.09152 0
M  V30 18208 H 1684.6 -2.45549 -3.15509 0
M  V30 18209 H 1686.04 -1.71087 -3.8795 0
M  V30 18210 C 1684.5 -0.320734 -3.3537 0
M  V30 18211 O 1685.03 0.586999 -3.97388 0
M  V30 18212 N 1683.24 -0.207156 -2.89861 0
M  V30 18213 H 1682.78 -0.946744 -2.39572 0
M  V30 18214 H 1682.74 0.642028 -3.07775 0
M  V30 18215 N 1686.51 0.822941 -1.34408 0
M  V30 18216 C 1687.74 1.60854 -1.29652 0
M  V30 18217 C 1688.15 1.88742 0.131572 0
M  V30 18218 O 1687.49 1.47936 1.08907 0
M  V30 18219 C 1687.56 2.97437 -2.0192 0
M  V30 18220 C 1687.22 2.92443 -3.51178 0
M  V30 18221 C 1688.22 2.67029 -4.46085 0
M  V30 18222 C 1685.9 3.12076 -3.93591 0
M  V30 18223 C 1687.9 2.61299 -5.81379 0
M  V30 18224 C 1685.58 3.05971 -5.28985 0
M  V30 18225 C 1686.58 2.80615 -6.22691 0
M  V30 18226 O 1686.27 2.74442 -7.55603 0
M  V30 18227 H 1686 0.506701 -0.447471 0
M  V30 18228 H 1688.55 1.03197 -1.77594 0
M  V30 18229 H 1686.78 3.57012 -1.48592 0
M  V30 18230 H 1688.47 3.58444 -1.90455 0
M  V30 18231 H 1689.24 2.51596 -4.14638 0
M  V30 18232 H 1685.12 3.30828 -3.21051 0
M  V30 18233 H 1688.66 2.41428 -6.54491 0
M  V30 18234 H 1684.56 3.20957 -5.60051 0
M  V30 18235 H 1685.33 2.90169 -7.65339 0
M  V30 18236 N 1687.99 1.18137 1.04314 0
M  V30 18237 C 1688.92 0.863879 2.12296 0
M  V30 18238 C 1689.94 -0.137469 1.62219 0
M  V30 18239 O 1691.12 0.0900306 1.78273 0
M  V30 18240 C 1688.22 0.269002 3.37831 0
M  V30 18241 C 1687.4 1.3154 4.17152 0
M  V30 18242 C 1686.46 0.736666 5.21018 0
M  V30 18243 O 1685.48 1.41075 5.5144 0
M  V30 18244 N 1686.68 -0.467037 5.78618 0
M  V30 18245 H 1689.45 1.7933 2.40127 0
M  V30 18246 H 1687.01 1.08142 1.20486 0
M  V30 18247 H 1689 -0.131671 4.04486 0
M  V30 18248 H 1687.57 -0.564386 3.07463 0
M  V30 18249 H 1686.79 1.89148 3.45856 0
M  V30 18250 H 1688.08 2.02093 4.66943 0
M  V30 18251 H 1687.48 -1.03247 5.56198 0
M  V30 18252 H 1686.04 -0.809663 6.46752 0
M  V30 18253 N 1689.47 -1.23186 0.98301 0
M  V30 18254 C 1690.42 -2.26762 0.517846 0
M  V30 18255 C 1691.41 -1.63944 -0.426459 0
M  V30 18256 O 1692.62 -1.77481 -0.300065 0
M  V30 18257 H 1688.99 -0.737082 0.149042 0
M  V30 18258 H 1690.96 -2.63356 1.40307 0
M  V30 18259 C 1689.71 -3.47324 -0.16157 0
M  V30 18260 H 1689.03 -3.95915 0.555973 0
M  V30 18261 H 1690.47 -4.21598 -0.450644 0
M  V30 18262 C 1688.93 -3.06722 -1.39366 0
M  V30 18263 O 1689.46 -3.15239 -2.48973 0
M  V30 18264 N 1687.67 -2.61609 -1.26528 0
M  V30 18265 H 1687.22 -2.54879 -0.373449 0
M  V30 18266 H 1687.17 -2.34809 -2.09074 0
M  V30 18267 N 1690.95 -0.754982 -1.38339 0
M  V30 18268 C 1691.88 -0.143678 -2.33058 0
M  V30 18269 C 1692.86 0.702022 -1.54938 0
M  V30 18270 O 1694.04 0.642922 -1.83249 0
M  V30 18271 C 1691.17 0.749194 -3.39123 0
M  V30 18272 C 1690.13 0.00611459 -4.28 0
M  V30 18273 C 1689.45 1.01733 -5.24933 0
M  V30 18274 C 1690.75 -1.1631 -5.09185 0
M  V30 18275 H 1692.45 -0.934907 -2.84429 0
M  V30 18276 H 1689.99 -0.451023 -1.36754 0
M  V30 18277 H 1691.95 1.18653 -4.04351 0
M  V30 18278 H 1690.67 1.57276 -2.86237 0
M  V30 18279 H 1689.33 -0.411816 -3.6428 0
M  V30 18280 H 1688.98 1.83499 -4.68334 0
M  V30 18281 H 1688.68 0.524783 -5.85252 0
M  V30 18282 H 1690.2 1.45395 -5.93037 0
M  V30 18283 H 1691.61 -0.803244 -5.67645 0
M  V30 18284 H 1690.01 -1.5866 -5.78746 0
M  V30 18285 H 1691.08 -1.97533 -4.42842 0
M  V30 18286 N 1692.42 1.49318 -0.504168 0
M  V30 18287 C 1693.65 2.06569 0.0358894 0
M  V30 18288 C 1694.06 1.36437 1.31079 0
M  V30 18289 O 1693.41 0.437416 1.78416 0
M  V30 18290 C 1693.47 3.57726 0.356656 0
M  V30 18291 C 1693.13 4.49565 -0.820987 0
M  V30 18292 C 1694.13 4.90892 -1.71235 0
M  V30 18293 C 1691.81 4.9182 -1.02069 0
M  V30 18294 C 1693.81 5.73214 -2.78754 0
M  V30 18295 C 1691.49 5.73919 -2.09905 0
M  V30 18296 C 1692.49 6.14521 -2.98082 0
M  V30 18297 O 1692.18 6.94977 -4.04057 0
M  V30 18298 H 1691.91 0.675742 -0.0186739 0
M  V30 18299 H 1694.47 1.93044 -0.701664 0
M  V30 18300 H 1692.7 3.69271 1.14785 0
M  V30 18301 H 1694.39 3.97204 0.835704 0
M  V30 18302 H 1695.15 4.58889 -1.5699 0
M  V30 18303 H 1691.03 4.59717 -0.343714 0
M  V30 18304 H 1694.57 6.04826 -3.47609 0
M  V30 18305 H 1690.47 6.05334 -2.24144 0
M  V30 18306 H 1691.24 7.13289 -4.01449 0
M  V30 18307 N 1693.9 0.238138 1.5579 0
M  V30 18308 C 1694.83 -0.659451 2.23994 0
M  V30 18309 C 1695.81 -1.18817 1.21723 0
M  V30 18310 O 1697 -1.22913 1.50353 0
M  V30 18311 C 1694.13 -1.86043 2.93267 0
M  V30 18312 C 1693.08 -1.46485 4.02152 0
M  V30 18313 C 1692.41 -2.74595 4.58805 0
M  V30 18314 C 1693.71 -0.642448 5.18334 0
M  V30 18315 H 1695.4 -0.0907522 2.99262 0
M  V30 18316 H 1692.95 -0.042209 1.43938 0
M  V30 18317 H 1694.9 -2.49393 3.39678 0
M  V30 18318 H 1693.63 -2.45436 2.15473 0
M  V30 18319 H 1692.28 -0.854729 3.56497 0
M  V30 18320 H 1691.93 -3.32168 3.77721 0
M  V30 18321 H 1691.63 -2.48854 5.32302 0
M  V30 18322 H 1693.16 -3.38859 5.07944 0
M  V30 18323 H 1694.57 -1.18005 5.61024 0
M  V30 18324 H 1692.97 -0.481458 5.98166 0
M  V30 18325 H 1694.04 0.347298 4.83655 0
M  V30 18326 N 1695.38 -1.57561 -0.0350783 0
M  V30 18327 C 1696.63 -1.88623 -0.725659 0
M  V30 18328 C 1696.95 -0.835055 -1.76215 0
M  V30 18329 O 1696.22 0.13206 -1.95454 0
M  V30 18330 H 1694.8 -0.696108 -0.271004 0
M  V30 18331 H 1697.46 -1.949 -0.00245508 0
M  V30 18332 H 1696.56 -2.8731 -1.21899 0
M  V30 18333 N 1696.86 0.307236 -1.54576 0
M  V30 18334 C 1697.79 1.38357 -1.88095 0
M  V30 18335 C 1698.77 1.53196 -0.739253 0
M  V30 18336 O 1699.95 1.66807 -0.99444 0
M  V30 18337 C 1697.08 2.74876 -2.12274 0
M  V30 18338 C 1696.04 2.74809 -3.28122 0
M  V30 18339 C 1695.36 4.14557 -3.37707 0
M  V30 18340 C 1696.66 2.37103 -4.65381 0
M  V30 18341 H 1698.36 1.10554 -2.78241 0
M  V30 18342 H 1695.9 0.530383 -1.33877 0
M  V30 18343 H 1697.86 3.50254 -2.34308 0
M  V30 18344 H 1696.58 3.04191 -1.18893 0
M  V30 18345 H 1695.24 2.01887 -3.06002 0
M  V30 18346 H 1694.89 4.41039 -2.41854 0
M  V30 18347 H 1694.59 4.15415 -4.15577 0
M  V30 18348 H 1696.11 4.91724 -3.61994 0
M  V30 18349 H 1697.53 3.02196 -4.87186 0
M  V30 18350 H 1695.92 2.49184 -5.45919 0
M  V30 18351 H 1696.99 1.32235 -4.66521 0
M  V30 18352 N 1698.34 1.46926 0.570122 0
M  V30 18353 C 1699.75 1.32159 0.894766 0
M  V30 18354 C 1699.95 0.302411 1.99218 0
M  V30 18355 O 1699.01 -0.290615 2.50822 0
M  V30 18356 C 1700.32 2.71136 1.30021 0
M  V30 18357 C 1701.87 2.79323 1.41236 0
M  V30 18358 C 1702.34 4.18911 1.85142 0
M  V30 18359 N 1703.84 4.2139 1.92314 0
M  V30 18360 C 1704.57 5.263 2.27588 0
M  V30 18361 N 1704.07 6.41526 2.61565 0
M  V30 18362 N 1705.86 5.13671 2.28251 0
M  V30 18363 H 1698.01 2.11837 -0.154603 0
M  V30 18364 H 1700.27 0.947978 -0.00649658 0
M  V30 18365 H 1699.98 3.47087 0.567775 0
M  V30 18366 H 1699.85 3.02066 2.25911 0
M  V30 18367 H 1702.24 2.03653 2.13564 0
M  V30 18368 H 1702.32 2.52063 0.43566 0
M  V30 18369 H 1701.97 4.95081 1.13389 0
M  V30 18370 H 1701.9 4.43587 2.83792 0
M  V30 18371 H 1704.39 3.38257 1.68495 0
M  V30 18372 H 1704.7 7.17343 2.8747 0
M  V30 18373 H 1703.04 6.44867 2.59175 0
M  V30 18374 H 1706.24 4.22684 2.01137 0
M  V30 18375 H 1706.41 5.95541 2.55412 0
M  V30 18376 N 1699.82 -0.815801 1.34842 0
M  V30 18377 C 1701.06 -1.57241 1.27599 0
M  V30 18378 C 1701.39 -1.93904 -0.152127 0
M  V30 18379 O 1700.65 -1.60819 -1.11515 0
M  V30 18380 C 1700.94 -2.87795 2.11917 0
M  V30 18381 C 1700.61 -2.70392 3.60831 0
M  V30 18382 C 1699.27 -2.65353 4.01424 0
M  V30 18383 C 1701.62 -2.53569 4.55359 0
M  V30 18384 C 1698.95 -2.41422 5.34726 0
M  V30 18385 C 1701.3 -2.31169 5.8885 0
M  V30 18386 C 1699.97 -2.24546 6.28598 0
M  V30 18387 H 1699.24 -0.575386 0.466918 0
M  V30 18388 H 1701.89 -0.943355 1.66653 0
M  V30 18389 H 1700.19 -3.5503 1.65714 0
M  V30 18390 H 1701.89 -3.45436 2.03654 0
M  V30 18391 H 1698.48 -2.75157 3.28613 0
M  V30 18392 H 1702.66 -2.5648 4.2489 0
M  V30 18393 H 1697.92 -2.34758 5.64534 0
M  V30 18394 H 1702.09 -2.1714 6.61682 0
M  V30 18395 H 1699.72 -2.05765 7.31823 0
M  V30 18396 N 1701.29 -1.18689 -1.03686 0
M  V30 18397 C 1702.54 -0.978948 -1.7635 0
M  V30 18398 C 1702.86 0.49195 -1.89312 0
M  V30 18399 O 1704.06 0.818501 -2.58868 0
M  V30 18400 C 1702.52 -1.70255 -3.17083 0
M  V30 18401 C 1702.13 -3.21301 -3.12201 0
M  V30 18402 C 1703.87 -1.57756 -3.94098 0
M  V30 18403 C 1701.78 -3.86284 -4.47815 0
M  V30 18404 H 1700.71 -0.362652 -0.661059 0
M  V30 18405 H 1703.36 -1.42102 -1.161 0
M  V30 18406 H 1701.74 -1.18826 -3.77752 0
M  V30 18407 H 1702.91 -3.79785 -2.6096 0
M  V30 18408 H 1701.23 -3.33984 -2.48684 0
M  V30 18409 H 1703.83 -2.03664 -4.94394 0
M  V30 18410 H 1704.17 -0.530427 -4.12907 0
M  V30 18411 H 1704.7 -2.06486 -3.40012 0
M  V30 18412 H 1701.44 -4.91061 -4.34211 0
M  V30 18413 H 1700.96 -3.32589 -4.99144 0
M  V30 18414 H 1702.64 -3.89369 -5.16721 0
M  V30 18415 N 1702.77 1.22662 -0.989529 0
M  V30 18416 C 1704.02 1.90632 -0.65897 0
M  V30 18417 C 1704.33 1.77942 0.812165 0
M  V30 18418 O 1705.54 2.40796 1.25417 0
M  V30 18419 C 1704 3.41763 -1.12809 0
M  V30 18420 C 1703.6 3.63097 -2.62421 0
M  V30 18421 C 1705.35 4.15454 -0.871698 0
M  V30 18422 C 1703.25 5.07911 -3.02953 0
M  V30 18423 H 1702.18 0.713847 -0.242772 0
M  V30 18424 H 1704.84 1.38942 -1.19864 0
M  V30 18425 H 1703.22 3.92616 -0.516564 0
M  V30 18426 H 1704.39 3.22751 -3.2889 0
M  V30 18427 H 1702.71 3.02733 -2.85905 0
M  V30 18428 H 1705.3 5.22181 -1.15027 0
M  V30 18429 H 1705.65 4.15856 0.192186 0
M  V30 18430 H 1706.18 3.70618 -1.44525 0
M  V30 18431 H 1702.92 5.12646 -4.08503 0
M  V30 18432 H 1702.44 5.49172 -2.41185 0
M  V30 18433 H 1704.12 5.76311 -2.94066 0
M  V30 18434 N 1704.25 0.762308 1.37937 0
M  V30 18435 C 1705.2 0.140412 2.30372 0
M  V30 18436 C 1706.17 -0.700152 1.50622 0
M  V30 18437 O 1707.35 -0.654474 1.79224 0
M  V30 18438 C 1704.49 -0.740056 3.37071 0
M  V30 18439 C 1703.6 0.116084 4.31844 0
M  V30 18440 C 1702.74 -0.768203 5.25616 0
M  V30 18441 C 1701.78 0.0910442 6.12032 0
M  V30 18442 N 1700.92 -0.75069 6.98075 0
M  V30 18443 H 1705.76 0.934224 2.82977 0
M  V30 18444 H 1703.29 0.472316 1.39311 0
M  V30 18445 H 1705.25 -1.26525 3.97551 0
M  V30 18446 H 1703.88 -1.49956 2.85855 0
M  V30 18447 H 1702.93 0.758999 3.72751 0
M  V30 18448 H 1704.24 0.779285 4.92675 0
M  V30 18449 H 1703.4 -1.36024 5.91255 0
M  V30 18450 H 1702.14 -1.46511 4.65173 0
M  V30 18451 H 1701.14 0.695687 5.45381 0
M  V30 18452 H 1702.37 0.785145 6.74546 0
M  V30 18453 H 1700.31 -1.43239 6.40171 0
M  V30 18454 H 1700.23 -0.144579 7.55862 0
M  V30 18455 H 1701.5 -1.32742 7.68114 0
M  V30 18456 N 1705.73 -1.49049 0.51208 0
M  V30 18457 C 1706.67 -2.29326 -0.260408 0
M  V30 18458 C 1707.64 -1.36232 -0.950265 0
M  V30 18459 O 1708.83 -1.65193 -0.954777 0
M  V30 18460 C 1705.97 -3.19177 -1.31225 0
M  V30 18461 C 1705.08 -4.27336 -0.63305 0
M  V30 18462 C 1704.22 -5.04389 -1.66628 0
M  V30 18463 C 1703.26 -6.04372 -0.969561 0
M  V30 18464 N 1702.39 -6.74549 -1.94751 0
M  V30 18465 H 1707.23 -2.94876 0.430384 0
M  V30 18466 H 1704.77 -1.45383 0.224086 0
M  V30 18467 H 1706.73 -3.69655 -1.9342 0
M  V30 18468 H 1705.36 -2.55588 -1.97166 0
M  V30 18469 H 1704.41 -3.80262 0.102433 0
M  V30 18470 H 1705.72 -4.98727 -0.0851363 0
M  V30 18471 H 1704.88 -5.58791 -2.36299 0
M  V30 18472 H 1703.62 -4.32797 -2.24807 0
M  V30 18473 H 1702.62 -5.49191 -0.25869 0
M  V30 18474 H 1703.85 -6.77955 -0.394125 0
M  V30 18475 H 1701.79 -6.0572 -2.5187 0
M  V30 18476 H 1701.71 -7.41954 -1.45055 0
M  V30 18477 H 1702.98 -7.3355 -2.63675 0
M  V30 18478 N 1707.21 -0.246397 -1.55662 0
M  V30 18479 C 1708.17 0.640041 -2.20082 0
M  V30 18480 C 1709.17 1.10313 -1.16994 0
M  V30 18481 O 1710.36 1.00792 -1.42079 0
M  V30 18482 C 1707.49 1.87964 -2.84398 0
M  V30 18483 H 1708.68 0.0780034 -2.99799 0
M  V30 18484 H 1706.24 0.00314588 -1.563 0
M  V30 18485 H 1706.97 2.48292 -2.08618 0
M  V30 18486 H 1706.76 1.5558 -3.59913 0
M  V30 18487 H 1708.25 2.51065 -3.33701 0
M  V30 18488 N 1708.68 1.57577 0.026722 0
M  V30 18489 C 1709.91 1.94035 0.732473 0
M  V30 18490 C 1710.33 0.846575 1.67972 0
M  V30 18491 O 1709.69 -0.197514 1.80221 0
M  V30 18492 C 1709.74 3.2956 1.46365 0
M  V30 18493 O 1708.84 3.21975 2.57694 0
M  V30 18494 H 1708.18 0.634155 0.196832 0
M  V30 18495 H 1710.71 2.04592 -0.018503 0
M  V30 18496 H 1710.72 3.64504 1.83305 0
M  V30 18497 H 1709.4 4.0873 0.768943 0
M  V30 18498 H 1707.98 2.98665 2.23279 0
M  V30 18499 N 1710.16 -0.299034 1.54737 0
M  V30 18500 C 1711.11 -1.38889 1.86581 0
M  V30 18501 C 1712.1 -1.52396 0.739723 0
M  V30 18502 O 1713.31 -1.5449 0.92374 0
M  V30 18503 H 1709.68 -0.463969 0.591808 0
M  V30 18504 H 1711.66 -1.09268 2.77674 0
M  V30 18505 C 1710.4 -2.74702 2.13152 0
M  V30 18506 H 1709.73 -2.65092 2.99277 0
M  V30 18507 H 1711.17 -3.49967 2.39372 0
M  V30 18508 C 1709.63 -3.23789 0.930706 0
M  V30 18509 O 1710.16 -4.01412 0.152193 0
M  V30 18510 N 1708.36 -2.81137 0.735545 0
M  V30 18511 H 1707.91 -2.1813 1.37029 0
M  V30 18512 H 1707.87 -3.1433 -0.0663452 0
M  V30 18513 N 1711.64 -1.47227 -0.562322 0
M  V30 18514 C 1712.86 -1.5744 -1.35008 0
M  V30 18515 C 1713.29 -0.223223 -1.86771 0
M  V30 18516 O 1712.65 0.800078 -1.62691 0
M  V30 18517 C 1712.7 -2.5992 -2.49948 0
M  V30 18518 O 1711.8 -2.14836 -3.52022 0
M  V30 18519 H 1711.14 -0.529064 -0.401232 0
M  V30 18520 H 1713.67 -1.92966 -0.680084 0
M  V30 18521 H 1713.68 -2.80177 -2.96588 0
M  V30 18522 H 1712.36 -3.58031 -2.11629 0
M  V30 18523 H 1710.93 -2.04655 -3.11722 0
M  V30 18524 N 1713.12 0.808639 -1.35273 0
M  V30 18525 C 1714.53 1.10389 -1.15267 0
M  V30 18526 C 1714.73 2.01467 0.0362501 0
M  V30 18527 O 1713.79 2.42386 0.707477 0
M  V30 18528 C 1715.1 1.73685 -2.45467 0
M  V30 18529 C 1716.65 1.86115 -2.51655 0
M  V30 18530 C 1717.13 2.52826 -3.81894 0
M  V30 18531 N 1718.62 2.60313 -3.83134 0
M  V30 18532 C 1719.35 3.12694 -4.80635 0
M  V30 18533 N 1718.85 3.6553 -5.88523 0
M  V30 18534 N 1720.64 3.11228 -4.68074 0
M  V30 18535 H 1712.79 0.203141 -2.11426 0
M  V30 18536 H 1715.05 0.152706 -0.93562 0
M  V30 18537 H 1714.76 1.14228 -3.32633 0
M  V30 18538 H 1714.63 2.73406 -2.59864 0
M  V30 18539 H 1717.02 2.44715 -1.64919 0
M  V30 18540 H 1717.1 0.852547 -2.41175 0
M  V30 18541 H 1716.75 1.94875 -4.69027 0
M  V30 18542 H 1716.68 3.54219 -3.89662 0
M  V30 18543 H 1719.17 2.22878 -3.05178 0
M  V30 18544 H 1719.48 4.03793 -6.58917 0
M  V30 18545 H 1717.83 3.63734 -5.92218 0
M  V30 18546 H 1721.02 2.69228 -3.82928 0
M  V30 18547 H 1721.19 3.51745 -5.44224 0
M  V30 18548 N 1714.6 1.19237 1.03055 0
M  V30 18549 C 1715.54 0.925171 2.13409 0
M  V30 18550 C 1716.54 -0.118373 1.68986 0
M  V30 18551 O 1717.74 0.0307159 1.79974 0
M  V30 18552 H 1714.12 0.281769 0.697216 0
M  V30 18553 H 1716.09 1.86252 2.33137 0
M  V30 18554 C 1714.84 0.478529 3.44391 0
M  V30 18555 H 1714.16 1.27305 3.7899 0
M  V30 18556 H 1715.6 0.330661 4.22709 0
M  V30 18557 C 1714.06 -0.80715 3.27088 0
M  V30 18558 O 1714.59 -1.86897 3.55573 0
M  V30 18559 N 1712.8 -0.76373 2.80385 0
M  V30 18560 H 1712.34 0.100606 2.57403 0
M  V30 18561 H 1712.3 -1.62435 2.69188 0
M  V30 18562 N 1716.07 -1.22136 0.99602 0
M  V30 18563 C 1717.32 -1.9028 0.66907 0
M  V30 18564 C 1717.64 -1.7837 -0.802717 0
M  V30 18565 O 1718.84 -2.41458 -1.24138 0
M  V30 18566 C 1717.3 -3.4116 1.1462 0
M  V30 18567 C 1716.91 -3.617 2.64343 0
M  V30 18568 C 1718.65 -4.14985 0.893718 0
M  V30 18569 C 1716.56 -5.06297 3.05642 0
M  V30 18570 H 1715.49 -0.71255 0.246554 0
M  V30 18571 H 1718.14 -1.38304 1.20599 0
M  V30 18572 H 1716.52 -3.92337 0.537378 0
M  V30 18573 H 1717.69 -3.21002 3.30597 0
M  V30 18574 H 1716.01 -3.01212 2.87507 0
M  V30 18575 H 1718.61 -5.21564 1.17794 0
M  V30 18576 H 1718.95 -4.15952 -0.17013 0
M  V30 18577 H 1719.48 -3.69846 1.46488 0
M  V30 18578 H 1716.22 -5.10472 4.11216 0
M  V30 18579 H 1715.74 -5.47885 2.44094 0
M  V30 18580 H 1717.42 -5.74743 2.97118 0
M  V30 18581 N 1717.55 -0.769612 -1.37531 0
M  V30 18582 C 1718.5 -0.142211 -2.32165 0
M  V30 18583 C 1719.49 0.687376 -1.54827 0
M  V30 18584 O 1720.7 0.584677 -1.7024 0
M  V30 18585 H 1717.08 -0.0271998 -0.751508 0
M  V30 18586 H 1719.05 -0.956148 -2.82667 0
M  V30 18587 C 1717.8 0.72421 -3.40074 0
M  V30 18588 H 1717.12 0.0952318 -3.99687 0
M  V30 18589 H 1718.56 1.13021 -4.08659 0
M  V30 18590 C 1717.02 1.87388 -2.79977 0
M  V30 18591 O 1717.55 2.96921 -2.70557 0
M  V30 18592 N 1715.75 1.67384 -2.37552 0
M  V30 18593 H 1715.3 0.782941 -2.45414 0
M  V30 18594 H 1715.26 2.44474 -1.97686 0
M  V30 18595 N 1719.03 1.48775 -0.519977 0
M  V30 18596 C 1719.98 2.31123 0.261738 0
M  V30 18597 C 1720.97 1.40595 0.94496 0
M  V30 18598 O 1722.18 1.57552 0.870484 0
M  V30 18599 H 1718.55 0.744875 0.103272 0
M  V30 18600 H 1720.52 2.94949 -0.452514 0
M  V30 18601 C 1719.27 3.22409 1.30184 0
M  V30 18602 H 1718.6 3.92007 0.785524 0
M  V30 18603 H 1720.04 3.82932 1.82042 0
M  V30 18604 C 1718.5 2.43321 2.33016 0
M  V30 18605 O 1719.03 2.15087 3.39265 0
M  V30 18606 N 1717.23 2.04998 2.05971 0
M  V30 18607 H 1716.78 2.2816 1.19586 0
M  V30 18608 H 1716.74 1.52393 2.74998 0
M  V30 18609 N 1720.51 0.254649 1.55529 0
M  V30 18610 C 1721.79 -0.418663 1.91067 0
M  V30 18611 C 1722.17 -1.75284 1.17638 0
M  V30 18612 O 1721.51 -2.26569 0.296411 0
M  V30 18613 C 1721.72 -0.579125 3.44162 0
M  V30 18614 C 1723.07 -0.871451 4.15561 0
M  V30 18615 O 1724.1 -0.664702 3.49943 0
M  V30 18616 O 1722.95 -1.26563 5.31643 0
M  V30 18617 H 1720.05 -0.22593 0.795541 0
M  V30 18618 H 1722.59 0.299288 1.6704 0
M  V30 18619 H 1721.37 0.36062 3.89635 0
M  V30 18620 H 1720.99 -1.34732 3.74076 0
M  V30 18621 N 1721.99 -1.57589 -0.0183649 0
M  V30 18622 C 1722.93 -2.08354 -1.03398 0
M  V30 18623 C 1723.93 -0.999575 -1.36766 0
M  V30 18624 O 1725.13 -1.18438 -1.35545 0
M  V30 18625 H 1721.51 -0.665046 -0.351023 0
M  V30 18626 H 1723.48 -2.92707 -0.580111 0
M  V30 18627 C 1722.23 -2.58713 -2.32299 0
M  V30 18628 H 1721.55 -3.41744 -2.07487 0
M  V30 18629 H 1722.99 -2.97932 -3.01683 0
M  V30 18630 C 1721.45 -1.49307 -3.02008 0
M  V30 18631 O 1721.98 -0.865426 -3.92267 0
M  V30 18632 N 1720.19 -1.225 -2.63519 0
M  V30 18633 H 1719.73 -1.73724 -1.90205 0
M  V30 18634 H 1719.69 -0.495132 -3.10477 0
M  V30 18635 N 1723.46 0.290824 -1.54893 0
M  V30 18636 C 1724.71 1.02244 -1.73865 0
M  V30 18637 C 1725.03 1.88079 -0.537166 0
M  V30 18638 O 1726.23 2.64584 -0.608908 0
M  V30 18639 C 1724.69 1.86762 -3.07649 0
M  V30 18640 C 1724.3 1.0588 -4.35308 0
M  V30 18641 C 1726.04 2.59461 -3.35976 0
M  V30 18642 C 1723.95 1.89734 -5.60138 0
M  V30 18643 H 1722.88 0.385455 -0.648028 0
M  V30 18644 H 1725.53 0.27893 -1.81368 0
M  V30 18645 H 1723.91 2.6514 -2.94137 0
M  V30 18646 H 1725.08 0.320443 -4.59684 0
M  V30 18647 H 1723.4 0.447169 -4.13992 0
M  V30 18648 H 1726 3.22569 -4.26442 0
M  V30 18649 H 1726.34 3.28823 -2.55306 0
M  V30 18650 H 1726.87 1.88126 -3.50505 0
M  V30 18651 H 1723.61 1.24825 -6.43505 0
M  V30 18652 H 1723.13 2.61215 -5.39932 0
M  V30 18653 H 1724.81 2.47535 -5.97775 0
M  V30 18654 N 1724.94 1.47523 0.554506 0
M  V30 18655 C 1726.19 1.54515 1.3135 0
M  V30 18656 C 1726.52 0.207892 1.93084 0
M  V30 18657 O 1725.8 -0.783749 1.7801 0
M  V30 18658 C 1726.08 2.66519 2.42156 0
M  V30 18659 C 1725.93 4.0987 1.85274 0
M  V30 18660 C 1727.25 2.74418 3.44068 0
M  V30 18661 H 1724.37 0.562481 0.476219 0
M  V30 18662 H 1727.01 1.79591 0.620246 0
M  V30 18663 H 1725.16 2.45268 3.0129 0
M  V30 18664 H 1726.83 4.42492 1.3038 0
M  V30 18665 H 1725.08 4.18021 1.15934 0
M  V30 18666 H 1725.75 4.84017 2.65389 0
M  V30 18667 H 1728.22 2.93596 2.94857 0
M  V30 18668 H 1727.1 3.54557 4.19023 0
M  V30 18669 H 1727.36 1.81584 4.03088 0
M  V30 18670 N 1726.42 -0.801453 1.357 0
M  V30 18671 C 1727.84 -1.09776 1.1585 0
M  V30 18672 C 1728.04 -2.01484 -0.0255653 0
M  V30 18673 O 1727.09 -2.42758 -0.694613 0
M  V30 18674 C 1728.41 -1.72381 2.46385 0
M  V30 18675 C 1729.95 -1.84777 2.52639 0
M  V30 18676 C 1730.43 -2.50797 3.83229 0
M  V30 18677 N 1731.92 -2.58277 3.84509 0
M  V30 18678 C 1732.65 -3.10141 4.82286 0
M  V30 18679 N 1732.15 -3.62404 5.90454 0
M  V30 18680 N 1733.94 -3.08742 4.69718 0
M  V30 18681 H 1726.09 -0.191926 2.11531 0
M  V30 18682 H 1728.36 -0.147742 0.936417 0
M  V30 18683 H 1728.06 -1.12462 3.33234 0
M  V30 18684 H 1727.94 -2.72024 2.6131 0
M  V30 18685 H 1730.32 -2.43837 1.66215 0
M  V30 18686 H 1730.41 -0.839745 2.41624 0
M  V30 18687 H 1730.05 -1.92385 4.70053 0
M  V30 18688 H 1729.98 -3.52147 3.91535 0
M  V30 18689 H 1732.47 -2.21257 3.06356 0
M  V30 18690 H 1732.78 -4.00293 6.61049 0
M  V30 18691 H 1731.13 -3.60588 5.94139 0
M  V30 18692 H 1734.32 -2.67193 3.84351 0
M  V30 18693 H 1734.49 -3.48854 5.46081 0
M  V30 18694 N 1727.9 -1.19782 -1.02421 0
M  V30 18695 C 1728.81 -0.955253 -2.14271 0
M  V30 18696 C 1729.82 0.0863233 -1.73786 0
M  V30 18697 O 1731 -0.0993878 -2.01155 0
M  V30 18698 C 1728.07 -0.502219 -3.43043 0
M  V30 18699 C 1727.13 -1.61374 -3.97815 0
M  V30 18700 C 1726.36 -1.18223 -5.20441 0
M  V30 18701 O 1726.58 -0.0477334 -5.7038 0
M  V30 18702 O 1725.52 -1.98664 -5.68169 0
M  V30 18703 H 1729.34 -1.89157 -2.37599 0
M  V30 18704 H 1726.93 -0.981035 -1.12677 0
M  V30 18705 H 1728.81 -0.258445 -4.20607 0
M  V30 18706 H 1727.48 0.4056 -3.21149 0
M  V30 18707 H 1726.39 -1.91172 -3.21565 0
M  V30 18708 H 1727.72 -2.49829 -4.24083 0
M  V30 18709 N 1729.38 1.21606 -1.00248 0
M  V30 18710 C 1730.63 1.90231 -0.682401 0
M  V30 18711 C 1730.95 1.78324 0.78903 0
M  V30 18712 O 1730.22 1.17653 1.56635 0
M  V30 18713 H 1728.8 0.704132 -0.249414 0
M  V30 18714 H 1731.46 1.47751 -1.27105 0
M  V30 18715 H 1730.55 2.97183 -0.953351 0
M  V30 18716 N 1730.86 0.776895 1.37121 0
M  V30 18717 C 1732.13 0.268067 1.93754 0
M  V30 18718 C 1732.51 -1.23774 1.71007 0
M  V30 18719 O 1731.86 -2.02331 1.0618 0
M  V30 18720 C 1732.07 0.647054 3.42949 0
M  V30 18721 C 1733.42 0.619737 4.20053 0
M  V30 18722 O 1734.44 0.586757 3.51334 0
M  V30 18723 O 1733.3 0.651412 5.42604 0
M  V30 18724 H 1730.4 0.0631883 0.824582 0
M  V30 18725 H 1732.94 0.858594 1.46377 0
M  V30 18726 H 1731.71 1.68608 3.5311 0
M  V30 18727 H 1731.34 0.0297448 3.97589 0
M  V30 18728 N 1732.33 -1.48497 0.527859 0
M  V30 18729 C 1733.56 -2.066 -0.00302155 0
M  V30 18730 C 1733.97 -1.38505 -1.28892 0
M  V30 18731 O 1733.31 -0.465745 -1.77698 0
M  V30 18732 C 1733.38 -3.58249 -0.2997 0
M  V30 18733 C 1733.04 -4.48202 0.892405 0
M  V30 18734 C 1734.04 -4.88105 1.79023 0
M  V30 18735 C 1731.72 -4.90134 1.0988 0
M  V30 18736 C 1733.72 -5.68707 2.87838 0
M  V30 18737 C 1731.4 -5.70507 2.19009 0
M  V30 18738 C 1732.4 -6.09701 3.07821 0
M  V30 18739 O 1732.09 -6.88461 4.15062 0
M  V30 18740 H 1731.82 -0.675359 0.029422 0
M  V30 18741 H 1734.38 -1.91903 0.732286 0
M  V30 18742 H 1732.61 -3.71051 -1.08895 0
M  V30 18743 H 1734.29 -3.98483 -0.772407 0
M  V30 18744 H 1735.06 -4.56333 1.64271 0
M  V30 18745 H 1730.94 -4.59112 0.416808 0
M  V30 18746 H 1734.48 -5.99219 3.57187 0
M  V30 18747 H 1730.38 -6.01692 2.33746 0
M  V30 18748 H 1731.15 -7.06812 4.12746 0
M  V30 18749 N 1733.81 -0.262893 -1.55392 0
M  V30 18750 C 1735.06 0.357939 -1.98499 0
M  V30 18751 C 1735.37 1.5789 -1.15456 0
M  V30 18752 O 1736.58 2.2719 -1.4865 0
M  V30 18753 C 1735.04 0.688205 -3.53259 0
M  V30 18754 C 1734.64 -0.512257 -4.45062 0
M  V30 18755 C 1736.39 1.27234 -4.04984 0
M  V30 18756 C 1734.29 -0.157257 -5.91191 0
M  V30 18757 H 1733.22 0.137514 -0.741354 0
M  V30 18758 H 1735.88 -0.365626 -1.79821 0
M  V30 18759 H 1734.26 1.47034 -3.67692 0
M  V30 18760 H 1735.43 -1.28935 -4.42394 0
M  V30 18761 H 1733.75 -1.0124 -4.03905 0
M  V30 18762 H 1736.34 1.55155 -5.11694 0
M  V30 18763 H 1736.69 2.20217 -3.53285 0
M  V30 18764 H 1737.22 0.552763 -3.93941 0
M  V30 18765 H 1733.96 -1.05464 -6.4696 0
M  V30 18766 H 1733.48 0.583319 -5.96957 0
M  V30 18767 H 1735.16 0.254892 -6.46498 0
M  V30 18768 N 1735.29 1.57597 0.0100073 0
M  V30 18769 C 1736.52 1.9412 0.707165 0
M  V30 18770 C 1736.93 0.862669 1.68388 0
M  V30 18771 O 1736.27 -0.167949 1.82931 0
M  V30 18772 C 1736.33 3.26571 1.50306 0
M  V30 18773 C 1736 4.51776 0.689031 0
M  V30 18774 C 1736.99 5.19897 -0.018977 0
M  V30 18775 C 1734.68 4.98232 0.637951 0
M  V30 18776 C 1736.67 6.32766 -0.76716 0
M  V30 18777 C 1734.36 6.10994 -0.113964 0
M  V30 18778 C 1735.36 6.78117 -0.815262 0
M  V30 18779 O 1735.05 7.88719 -1.55493 0
M  V30 18780 H 1734.78 0.644932 0.202579 0
M  V30 18781 H 1737.33 2.05372 -0.0341978 0
M  V30 18782 H 1735.56 3.11699 2.28868 0
M  V30 18783 H 1737.25 3.4828 2.08461 0
M  V30 18784 H 1738.02 4.84999 0.0113968 0
M  V30 18785 H 1733.9 4.45818 1.17333 0
M  V30 18786 H 1737.44 6.85092 -1.31508 0
M  V30 18787 H 1733.34 6.45334 -0.146194 0
M  V30 18788 H 1734.1 8.05181 -1.47059 0
M  V30 18789 N 1736.77 -0.282606 1.55045 0
M  V30 18790 C 1737.7 -1.35347 1.90272 0
M  V30 18791 C 1738.68 -1.52001 0.763532 0
M  V30 18792 O 1739.86 -1.65204 1.02085 0
M  V30 18793 C 1736.99 -2.71464 2.16621 0
M  V30 18794 C 1735.95 -2.69554 3.32453 0
M  V30 18795 C 1735.27 -4.09132 3.4426 0
M  V30 18796 C 1736.57 -2.29669 4.69094 0
M  V30 18797 H 1738.27 -1.06113 2.79965 0
M  V30 18798 H 1735.81 -0.509018 1.34703 0
M  V30 18799 H 1737.77 -3.46482 2.39851 0
M  V30 18800 H 1736.49 -3.02261 1.23717 0
M  V30 18801 H 1735.15 -1.96993 3.09175 0
M  V30 18802 H 1734.8 -4.37136 2.4884 0
M  V30 18803 H 1734.5 -4.08751 4.22133 0
M  V30 18804 H 1736.02 -4.85903 3.69771 0
M  V30 18805 H 1737.44 -2.94407 4.91932 0
M  V30 18806 H 1735.83 -2.40467 5.49814 0
M  V30 18807 H 1736.9 -1.24796 4.68566 0
M  V30 18808 N 1738.25 -1.47815 -0.546675 0
M  V30 18809 C 1739.19 -1.61513 -1.67381 0
M  V30 18810 C 1740.19 -0.482064 -1.62396 0
M  V30 18811 O 1741.39 -0.660227 -1.67454 0
M  V30 18812 H 1737.77 -0.508484 -0.554029 0
M  V30 18813 H 1739.74 -2.5621 -1.52967 0
M  V30 18814 C 1738.49 -1.65645 -3.05707 0
M  V30 18815 H 1737.81 -2.52186 -3.10229 0
M  V30 18816 H 1739.25 -1.79277 -3.84234 0
M  V30 18817 C 1737.71 -0.391799 -3.34614 0
M  V30 18818 O 1738.24 0.502576 -3.98544 0
M  V30 18819 N 1736.45 -0.268593 -2.89356 0
M  V30 18820 H 1735.99 -0.997347 -2.37509 0
M  V30 18821 H 1735.95 0.5766 -3.09067 0
M  V30 18822 N 1739.72 0.794246 -1.36123 0
M  V30 18823 C 1740.97 1.54708 -1.29416 0
M  V30 18824 C 1741.29 1.95195 0.125849 0
M  V30 18825 O 1742.49 2.69663 0.315271 0
M  V30 18826 C 1740.95 2.79256 -2.27034 0
M  V30 18827 C 1740.56 2.45957 -3.74445 0
M  V30 18828 C 1742.3 3.57246 -2.29294 0
M  V30 18829 C 1740.21 3.66871 -4.63853 0
M  V30 18830 H 1739.14 0.580743 -0.480888 0
M  V30 18831 H 1741.79 0.871975 -1.61458 0
M  V30 18832 H 1740.17 3.4854 -1.87979 0
M  V30 18833 H 1741.34 1.846 -4.22208 0
M  V30 18834 H 1739.66 1.81187 -3.74913 0
M  V30 18835 H 1742.26 4.47076 -2.93304 0
M  V30 18836 H 1742.6 3.95478 -1.30011 0
M  V30 18837 H 1743.13 2.94936 -2.66941 0
M  V30 18838 H 1739.87 3.33739 -5.6418 0
M  V30 18839 H 1739.39 4.27411 -4.20809 0
M  V30 18840 H 1741.07 4.33957 -4.79886 0
M  V30 18841 N 1741.2 1.20323 1.01785 0
M  V30 18842 C 1742.48 0.921703 1.72522 0
M  V30 18843 C 1742.86 -0.569838 2.03264 0
M  V30 18844 O 1742.21 -1.53115 1.69611 0
M  V30 18845 C 1742.42 1.79335 2.99399 0
M  V30 18846 C 1743.76 2.03442 3.72688 0
M  V30 18847 O 1744.79 1.76578 3.09352 0
M  V30 18848 O 1743.65 2.48803 4.86579 0
M  V30 18849 H 1740.74 0.344505 0.751828 0
M  V30 18850 H 1743.29 1.31191 1.07644 0
M  V30 18851 H 1742.06 2.80339 2.72994 0
M  V30 18852 H 1741.68 1.40314 3.72018 0
M  V30 18853 N 1742.68 -1.21073 1.00892 0
M  V30 18854 C 1743.63 -2.25613 0.565829 0
M  V30 18855 C 1744.62 -1.64812 -0.391588 0
M  V30 18856 O 1745.83 -1.78078 -0.262352 0
M  V30 18857 H 1742.2 -0.733755 0.164643 0
M  V30 18858 H 1744.17 -2.60321 1.45862 0
M  V30 18859 C 1742.92 -3.47589 -0.087861 0
M  V30 18860 H 1742.25 -3.94647 0.639828 0
M  V30 18861 H 1743.69 -4.22459 -0.361115 0
M  V30 18862 C 1742.14 -3.09609 -1.32829 0
M  V30 18863 O 1742.67 -3.20449 -2.4223 0
M  V30 18864 N 1740.88 -2.64234 -1.2095 0
M  V30 18865 H 1740.43 -2.55613 -0.319301 0
M  V30 18866 H 1740.39 -2.39191 -2.04046 0
M  V30 18867 N 1744.16 -0.784156 -1.36707 0
M  V30 18868 C 1745.41 -0.350748 -1.98627 0
M  V30 18869 C 1745.72 1.08208 -1.62943 0
M  V30 18870 O 1746.93 1.6175 -2.18058 0
M  V30 18871 C 1745.38 -0.576173 -3.55258 0
M  V30 18872 C 1744.99 -2.02008 -3.99871 0
M  V30 18873 C 1746.73 -0.207008 -4.23995 0
M  V30 18874 C 1744.64 -2.19244 -5.4926 0
M  V30 18875 H 1743.57 -0.127403 -0.743158 0
M  V30 18876 H 1746.22 -0.965044 -1.56074 0
M  V30 18877 H 1744.6 0.10776 -3.95853 0
M  V30 18878 H 1745.78 -2.73998 -3.70489 0
M  V30 18879 H 1744.09 -2.34699 -3.43955 0
M  V30 18880 H 1746.69 -0.314139 -5.33776 0
M  V30 18881 H 1747.03 0.844253 -4.07649 0
M  V30 18882 H 1747.57 -0.843971 -3.88744 0
M  V30 18883 H 1744.31 -3.22734 -5.70546 0
M  V30 18884 H 1743.83 -1.51752 -5.80286 0
M  V30 18885 H 1745.5 -1.99703 -6.15408 0
M  V30 18886 N 1745.64 1.48215 -0.535727 0
M  V30 18887 C 1746.86 2.07399 -0.00589172 0
M  V30 18888 C 1747.29 1.38886 1.26856 0
M  V30 18889 O 1746.64 0.456684 1.75454 0
M  V30 18890 C 1746.69 3.60071 0.195203 0
M  V30 18891 O 1745.8 3.92596 1.26261 0
M  V30 18892 H 1745.14 0.662689 -0.0416988 0
M  V30 18893 H 1747.67 1.90543 -0.745281 0
M  V30 18894 H 1747.68 4.05873 0.416085 0
M  V30 18895 H 1746.35 4.0934 -0.735747 0
M  V30 18896 H 1744.93 3.58567 1.02393 0
M  V30 18897 N 1747.11 0.27113 1.5525 0
M  V30 18898 C 1748.39 -0.398374 1.915 0
M  V30 18899 C 1748.77 -1.74026 1.19491 0
M  V30 18900 O 1748.12 -2.26242 0.320425 0
M  V30 18901 C 1748.33 -0.542589 3.44756 0
M  V30 18902 C 1749.68 -0.827326 4.16462 0
M  V30 18903 O 1750.7 -0.627548 3.50628 0
M  V30 18904 O 1749.56 -1.20917 5.32955 0
M  V30 18905 H 1746.65 -0.217479 0.797892 0
M  V30 18906 H 1749.2 0.316988 1.66713 0
M  V30 18907 H 1747.97 0.401926 3.8923 0
M  V30 18908 H 1747.6 -1.30757 3.75484 0
M  V30 18909 N 1748.59 -1.576 -0.00164943 0
M  V30 18910 C 1749.5 -2.11748 -1.00995 0
M  V30 18911 C 1750.52 -1.06235 -1.37805 0
M  V30 18912 O 1751.69 -1.38127 -1.4657 0
M  V30 18913 C 1748.76 -2.60869 -2.2836 0
M  V30 18914 C 1747.82 -3.80976 -1.97879 0
M  V30 18915 C 1747.05 -4.27745 -3.19171 0
M  V30 18916 O 1747.28 -3.73856 -4.30799 0
M  V30 18917 O 1746.21 -5.19917 -3.03265 0
M  V30 18918 H 1750.04 -2.98117 -0.579667 0
M  V30 18919 H 1747.62 -1.47766 -0.220375 0
M  V30 18920 H 1749.5 -2.9267 -3.03187 0
M  V30 18921 H 1748.18 -1.77598 -2.7063 0
M  V30 18922 H 1747.09 -3.54151 -1.20533 0
M  V30 18923 H 1748.42 -4.65315 -1.60447 0
M  V30 18924 N 1750.07 0.274379 -1.55193 0
M  V30 18925 C 1751.3 1.02871 -1.8009 0
M  V30 18926 C 1751.72 1.79202 -0.571676 0
M  V30 18927 O 1751.08 1.74867 0.478679 0
M  V30 18928 C 1751.13 1.96406 -3.02418 0
M  V30 18929 O 1750.23 3.05154 -2.77408 0
M  V30 18930 H 1749.57 0.294181 -0.595276 0
M  V30 18931 H 1752.1 0.303708 -2.02333 0
M  V30 18932 H 1752.11 2.38385 -3.31114 0
M  V30 18933 H 1750.79 1.40261 -3.91535 0
M  V30 18934 H 1749.36 2.675 -2.59805 0
M  V30 18935 N 1751.55 1.48103 0.538828 0
M  V30 18936 C 1752.78 1.59085 1.31816 0
M  V30 18937 C 1753.19 0.246886 1.87582 0
M  V30 18938 O 1752.53 -0.772694 1.66659 0
M  V30 18939 C 1752.59 2.57102 2.51274 0
M  V30 18940 C 1752.26 4.02377 2.16661 0
M  V30 18941 C 1753.25 4.90323 1.72857 0
M  V30 18942 C 1750.94 4.4785 2.27455 0
M  V30 18943 C 1752.93 6.21767 1.40302 0
M  V30 18944 C 1750.62 5.79317 1.94512 0
M  V30 18945 C 1751.62 6.66098 1.51006 0
M  V30 18946 O 1751.3 7.9512 1.18491 0
M  V30 18947 H 1751.04 0.539404 0.407454 0
M  V30 18948 H 1753.59 1.94586 0.657678 0
M  V30 18949 H 1751.82 2.16705 3.20275 0
M  V30 18950 H 1753.51 2.58014 3.13342 0
M  V30 18951 H 1754.28 4.56432 1.63995 0
M  V30 18952 H 1750.15 3.80497 2.60275 0
M  V30 18953 H 1753.7 6.89458 1.06271 0
M  V30 18954 H 1749.6 6.12745 2.03012 0
M  V30 18955 H 1750.36 8.07792 1.31964 0
M  V30 18956 N 1753.03 -0.787016 1.36542 0
M  V30 18957 C 1754.44 -1.08541 1.17008 0
M  V30 18958 C 1754.64 -2.015 -0.00419378 0
M  V30 18959 O 1753.7 -2.43481 -0.668826 0
M  V30 18960 C 1755.01 -1.69758 2.48199 0
M  V30 18961 C 1756.56 -1.82088 2.54584 0
M  V30 18962 C 1757.03 -2.46719 3.85868 0
M  V30 18963 N 1758.53 -2.54185 3.87227 0
M  V30 18964 C 1759.26 -3.05008 4.85549 0
M  V30 18965 N 1758.76 -3.56121 5.94264 0
M  V30 18966 N 1760.55 -3.03742 4.72966 0
M  V30 18967 H 1752.7 -0.16948 2.11723 0
M  V30 18968 H 1754.96 -0.137802 0.937931 0
M  V30 18969 H 1754.67 -1.08922 3.34408 0
M  V30 18970 H 1754.54 -2.69237 2.6418 0
M  V30 18971 H 1756.93 -2.42061 1.68792 0
M  V30 18972 H 1757.01 -0.814071 2.42501 0
M  V30 18973 H 1756.66 -1.87389 4.72068 0
M  V30 18974 H 1756.59 -3.47975 3.95248 0
M  V30 18975 H 1759.08 -2.17995 3.08685 0
M  V30 18976 H 1759.39 -3.93259 6.65257 0
M  V30 18977 H 1757.73 -3.54266 5.9793 0
M  V30 18978 H 1760.93 -2.63102 3.87163 0
M  V30 18979 H 1761.1 -3.43043 5.49751 0
M  V30 18980 N 1754.5 -1.20861 -1.01145 0
M  V30 18981 C 1755.75 -1.02343 -1.75082 0
M  V30 18982 C 1756.08 0.44278 -1.89085 0
M  V30 18983 O 1755.36 1.32867 -1.42045 0
M  V30 18984 C 1755.64 -1.71368 -3.1671 0
M  V30 18985 C 1755.49 -3.25466 -3.1047 0
M  V30 18986 C 1756.81 -1.45097 -4.15494 0
M  V30 18987 H 1753.93 -0.373198 -0.635525 0
M  V30 18988 H 1756.57 -1.48947 -1.17961 0
M  V30 18989 H 1754.72 -1.31746 -3.6548 0
M  V30 18990 H 1756.4 -3.74415 -2.69464 0
M  V30 18991 H 1754.64 -3.56104 -2.47735 0
M  V30 18992 H 1755.31 -3.68924 -4.10608 0
M  V30 18993 H 1757.79 -1.7948 -3.75401 0
M  V30 18994 H 1756.66 -1.95917 -5.12745 0
M  V30 18995 H 1756.92 -0.379628 -4.40467 0
M  V30 18996 N 1755.98 1.20536 -1.01532 0
M  V30 18997 C 1757.21 1.93571 -0.722055 0
M  V30 18998 C 1757.62 1.74923 0.721011 0
M  V30 18999 O 1756.96 1.05961 1.5006 0
M  V30 19000 C 1757.03 3.45989 -0.97632 0
M  V30 19001 C 1756.69 3.88397 -2.40825 0
M  V30 19002 C 1757.69 3.94262 -3.38901 0
M  V30 19003 C 1755.37 4.20422 -2.74865 0
M  V30 19004 C 1757.37 4.3156 -4.69078 0
M  V30 19005 C 1755.05 4.57395 -4.05256 0
M  V30 19006 C 1756.05 4.62937 -5.02174 0
M  V30 19007 O 1755.74 4.99063 -6.30232 0
M  V30 19008 H 1755.47 0.622101 -0.264511 0
M  V30 19009 H 1758.02 1.5401 -1.35905 0
M  V30 19010 H 1756.25 3.85669 -0.282161 0
M  V30 19011 H 1757.94 4.00251 -0.674832 0
M  V30 19012 H 1758.71 3.69686 -3.13938 0
M  V30 19013 H 1754.59 4.153 -2.00117 0
M  V30 19014 H 1758.13 4.358 -5.44724 0
M  V30 19015 H 1754.03 4.81427 -4.29998 0
M  V30 19016 H 1754.8 5.1706 -6.34501 0
M  V30 19017 N 1757.46 0.791395 1.36289 0
M  V30 19018 C 1758.71 0.365242 1.99484 0
M  V30 19019 C 1759.04 -1.06087 1.62663 0
M  V30 19020 O 1758.31 -1.73332 0.882396 0
M  V30 19021 C 1758.6 0.531317 3.56159 0
M  V30 19022 C 1758.45 2.00126 4.02827 0
M  V30 19023 C 1759.77 -0.0524248 4.40069 0
M  V30 19024 H 1756.89 0.134183 0.724682 0
M  V30 19025 H 1759.53 0.998102 1.61672 0
M  V30 19026 H 1757.68 -0.0074293 3.88499 0
M  V30 19027 H 1759.35 2.60122 3.80965 0
M  V30 19028 H 1757.6 2.50316 3.54294 0
M  V30 19029 H 1758.27 2.06842 5.11782 0
M  V30 19030 H 1760.74 0.407489 4.141 0
M  V30 19031 H 1759.62 0.0937898 5.4882 0
M  V30 19032 H 1759.88 -1.14472 4.27023 0
M  V30 19033 N 1758.94 -1.47929 0.54358 0
M  V30 19034 C 1759.87 -2.3264 -0.200228 0
M  V30 19035 C 1760.85 -1.42945 -0.922 0
M  V30 19036 O 1762.04 -1.71817 -0.905129 0
M  V30 19037 C 1759.17 -3.24439 -1.23922 0
M  V30 19038 C 1758.12 -4.23267 -0.634753 0
M  V30 19039 C 1757.45 -5.04295 -1.77739 0
M  V30 19040 C 1758.75 -5.20747 0.402524 0
M  V30 19041 H 1760.44 -2.95077 0.506957 0
M  V30 19042 H 1757.99 -1.41896 0.245246 0
M  V30 19043 H 1759.94 -3.82535 -1.76763 0
M  V30 19044 H 1758.66 -2.60029 -1.97616 0
M  V30 19045 H 1757.32 -3.66377 -0.127756 0
M  V30 19046 H 1756.97 -4.36299 -2.50304 0
M  V30 19047 H 1756.67 -5.71195 -1.37879 0
M  V30 19048 H 1758.19 -5.65246 -2.30932 0
M  V30 19049 H 1759.61 -5.73287 -0.039305 0
M  V30 19050 H 1758 -5.95774 0.719251 0
M  V30 19051 H 1759.07 -4.67054 1.3034 0
M  V30 19052 N 1760.42 -0.27936 -1.55104 0
M  V30 19053 C 1761.66 0.336703 -1.99985 0
M  V30 19054 C 1762 1.55186 -1.16752 0
M  V30 19055 O 1761.27 1.93031 -0.238626 0
M  V30 19056 C 1761.55 0.714701 -3.52936 0
M  V30 19057 C 1761.41 -0.508088 -4.46921 0
M  V30 19058 C 1762.73 1.54953 -4.11919 0
M  V30 19059 H 1759.85 0.120908 -0.727015 0
M  V30 19060 H 1762.49 -0.38715 -1.86014 0
M  V30 19061 H 1760.64 1.33143 -3.64973 0
M  V30 19062 H 1762.31 -1.14664 -4.46822 0
M  V30 19063 H 1760.55 -1.14537 -4.18406 0
M  V30 19064 H 1761.22 -0.199782 -5.51638 0
M  V30 19065 H 1763.7 1.02864 -4.03185 0
M  V30 19066 H 1762.58 1.78282 -5.1914 0
M  V30 19067 H 1762.84 2.53192 -3.62417 0
M  V30 19068 N 1761.9 1.57599 -0.0067085 0
M  V30 19069 C 1762.84 2.09973 1.00071 0
M  V30 19070 C 1763.84 1.02121 1.35158 0
M  V30 19071 O 1765.04 1.20579 1.33644 0
M  V30 19072 H 1761.42 0.670547 0.340398 0
M  V30 19073 H 1763.39 2.93593 0.533471 0
M  V30 19074 C 1762.14 2.62376 2.28153 0
M  V30 19075 H 1761.46 3.45002 2.02024 0
M  V30 19076 H 1762.9 3.02694 2.96905 0
M  V30 19077 C 1761.36 1.54093 2.99595 0
M  V30 19078 O 1761.89 0.927722 3.9084 0
M  V30 19079 N 1760.1 1.26676 2.61537 0
M  V30 19080 H 1759.64 1.76728 1.87417 0
M  V30 19081 H 1759.6 0.544464 3.0965 0
M  V30 19082 N 1763.37 -0.266145 1.55336 0
M  V30 19083 C 1764.6 -1.01915 1.80633 0
M  V30 19084 C 1765.02 -1.78897 0.581172 0
M  V30 19085 O 1764.38 -1.75118 -0.469399 0
M  V30 19086 C 1764.43 -1.948 3.03456 0
M  V30 19087 O 1763.53 -3.03678 2.79022 0
M  V30 19088 H 1762.87 -0.29102 0.596828 0
M  V30 19089 H 1765.4 -0.292973 2.02492 0
M  V30 19090 H 1765.41 -2.36626 3.32373 0
M  V30 19091 H 1764.09 -1.38182 3.92273 0
M  V30 19092 H 1762.67 -2.66118 2.61219 0
M  V30 19093 N 1764.85 -1.48386 -0.530967 0
M  V30 19094 C 1765.8 -1.62835 -1.63564 0
M  V30 19095 C 1766.77 -0.470453 -1.59298 0
M  V30 19096 O 1767.95 -0.693813 -1.77738 0
M  V30 19097 C 1765.09 -1.67314 -3.01828 0
M  V30 19098 C 1764.21 -2.94204 -3.16335 0
M  V30 19099 C 1763.34 -2.8985 -4.45152 0
M  V30 19100 C 1762.38 -4.11449 -4.53185 0
M  V30 19101 N 1761.52 -4.05178 -5.7339 0
M  V30 19102 H 1766.36 -2.57172 -1.50554 0
M  V30 19103 H 1763.89 -1.27537 -0.732991 0
M  V30 19104 H 1765.85 -1.67892 -3.81927 0
M  V30 19105 H 1764.48 -0.764688 -3.13612 0
M  V30 19106 H 1763.53 -3.03375 -2.29495 0
M  V30 19107 H 1764.85 -3.84179 -3.18132 0
M  V30 19108 H 1764 -2.88824 -5.33541 0
M  V30 19109 H 1762.74 -1.97602 -4.45875 0
M  V30 19110 H 1761.74 -4.12751 -3.63203 0
M  V30 19111 H 1762.97 -5.04855 -4.54201 0
M  V30 19112 H 1760.92 -3.15749 -5.75012 0
M  V30 19113 H 1760.83 -4.88857 -5.76676 0
M  V30 19114 H 1762.1 -4.08209 -6.64067 0
M  V30 19115 N 1766.33 0.779763 -1.36958 0
M  V30 19116 C 1767.24 1.92394 -1.34245 0
M  V30 19117 C 1768.26 1.72292 -0.243187 0
M  V30 19118 O 1769.43 1.95665 -0.477211 0
M  V30 19119 C 1766.5 3.27402 -1.14057 0
M  V30 19120 C 1765.56 3.60213 -2.33548 0
M  V30 19121 C 1764.79 4.88779 -2.14314 0
M  V30 19122 O 1765.01 5.59231 -1.12327 0
M  V30 19123 O 1763.95 5.20469 -3.02316 0
M  V30 19124 H 1767.77 1.97633 -2.30596 0
M  V30 19125 H 1765.36 0.921386 -1.17605 0
M  V30 19126 H 1767.24 4.08172 -1.04755 0
M  V30 19127 H 1765.92 3.23033 -0.207744 0
M  V30 19128 H 1764.82 2.7971 -2.48421 0
M  V30 19129 H 1766.16 3.69317 -3.25371 0
M  V30 19130 N 1767.81 1.21396 1.00503 0
M  V30 19131 C 1769.06 1.02536 1.73693 0
M  V30 19132 C 1769.37 -0.441584 1.9055 0
M  V30 19133 O 1770.58 -0.749579 2.60947 0
M  V30 19134 C 1769.03 1.78602 3.12457 0
M  V30 19135 C 1768.64 3.29466 3.03573 0
M  V30 19136 C 1770.38 1.68149 3.89777 0
M  V30 19137 C 1768.29 3.98021 4.37416 0
M  V30 19138 H 1767.22 0.380052 0.651212 0
M  V30 19139 H 1769.87 1.4513 1.12292 0
M  V30 19140 H 1768.25 1.288 3.74468 0
M  V30 19141 H 1769.43 3.8657 2.50799 0
M  V30 19142 H 1767.74 3.4046 2.39741 0
M  V30 19143 H 1770.34 2.167 4.8882 0
M  V30 19144 H 1770.68 0.639716 4.11355 0
M  V30 19145 H 1771.22 2.15428 3.34418 0
M  V30 19146 H 1767.95 5.02401 4.21039 0
M  V30 19147 H 1767.47 3.45706 4.9015 0
M  V30 19148 H 1769.15 4.02932 5.06216 0
M  V30 19149 N 1769.29 -1.19996 1.0217 0
M  V30 19150 C 1770.22 -2.22392 0.55446 0
M  V30 19151 C 1771.23 -1.58636 -0.36586 0
M  V30 19152 O 1772.42 -1.77751 -0.163394 0
M  V30 19153 C 1769.52 -3.38235 -0.212234 0
M  V30 19154 C 1768.69 -4.31578 0.711253 0
M  V30 19155 C 1767.75 -5.26199 -0.00876314 0
M  V30 19156 O 1766.78 -5.65863 0.615435 0
M  V30 19157 N 1767.98 -5.66169 -1.28192 0
M  V30 19158 H 1770.74 -2.63107 1.43509 0
M  V30 19159 H 1768.31 -1.34589 0.899853 0
M  V30 19160 H 1770.3 -3.98542 -0.703282 0
M  V30 19161 H 1768.87 -2.96369 -0.994205 0
M  V30 19162 H 1768.09 -3.69161 1.38252 0
M  V30 19163 H 1769.38 -4.90861 1.33915 0
M  V30 19164 H 1768.77 -5.35966 -1.8099 0
M  V30 19165 H 1767.33 -6.28762 -1.7176 0
M  V30 19166 N 1770.76 -0.798611 -1.35867 0
M  V30 19167 C 1771.99 -0.387479 -2.03239 0
M  V30 19168 C 1772.41 0.999052 -1.60201 0
M  V30 19169 O 1771.76 1.64237 -0.795763 0
M  V30 19170 C 1771.81 -0.452101 -3.58662 0
M  V30 19171 O 1771.54 -1.78396 -4.00133 0
M  V30 19172 C 1773.04 -0.0327638 -4.43288 0
M  V30 19173 H 1770.26 -0.15845 -0.652024 0
M  V30 19174 H 1772.8 -1.08002 -1.73655 0
M  V30 19175 H 1770.96 0.192107 -3.86923 0
M  V30 19176 H 1771.37 -1.74118 -4.94756 0
M  V30 19177 H 1772.84 -0.129106 -5.51849 0
M  V30 19178 H 1773.32 1.02098 -4.27168 0
M  V30 19179 H 1773.93 -0.649817 -4.20306 0
M  V30 19180 N 1772.24 1.47639 -0.551417 0
M  V30 19181 C 1773.17 2.27972 0.236919 0
M  V30 19182 C 1774.19 1.3666 0.884752 0
M  V30 19183 O 1775.38 1.61532 0.75958 0
M  V30 19184 C 1772.48 3.10738 1.3526 0
M  V30 19185 C 1771.65 4.29972 0.802659 0
M  V30 19186 C 1770.71 4.94379 1.80212 0
M  V30 19187 O 1769.73 5.52946 1.35053 0
M  V30 19188 N 1770.94 4.8855 3.13526 0
M  V30 19189 H 1773.7 2.9627 -0.452154 0
M  V30 19190 H 1771.26 1.57204 -0.387116 0
M  V30 19191 H 1773.25 3.50692 2.01983 0
M  V30 19192 H 1771.82 2.44721 1.945 0
M  V30 19193 H 1771.04 3.94178 -0.0411825 0
M  V30 19194 H 1772.33 5.07109 0.41448 0
M  V30 19195 H 1771.73 4.42157 3.52865 0
M  V30 19196 H 1770.29 5.32541 3.75823 0
M  V30 19197 N 1773.72 0.287581 1.54954 0
M  V30 19198 C 1774.65 -0.587855 2.25979 0
M  V30 19199 C 1775.63 -1.14884 1.25442 0
M  V30 19200 O 1776.82 -1.18067 1.54188 0
M  V30 19201 C 1773.95 -1.76618 2.99037 0
M  V30 19202 C 1772.9 -1.33617 4.06609 0
M  V30 19203 C 1772.23 -2.59859 4.67309 0
M  V30 19204 C 1773.53 -0.477219 5.20115 0
M  V30 19205 H 1775.22 0.00450183 2.994 0
M  V30 19206 H 1772.77 0.00360521 1.44 0
M  V30 19207 H 1774.72 -2.38461 3.4744 0
M  V30 19208 H 1773.44 -2.38457 2.23172 0
M  V30 19209 H 1772.1 -0.74088 3.59036 0
M  V30 19210 H 1771.75 -3.19983 3.88098 0
M  V30 19211 H 1771.45 -2.31793 5.3995 0
M  V30 19212 H 1772.97 -3.22528 5.18467 0
M  V30 19213 H 1774.39 -1.00096 5.64494 0
M  V30 19214 H 1772.79 -0.290913 5.99394 0
M  V30 19215 H 1773.86 0.500993 4.82305 0
M  V30 19216 N 1775.2 -1.57593 0.0150662 0
M  V30 19217 C 1776.45 -1.91214 -0.666599 0
M  V30 19218 C 1776.77 -0.890139 -1.72936 0
M  V30 19219 O 1776.03 0.102976 -1.95429 0
M  V30 19220 C 1776.33 -3.3158 -1.33376 0
M  V30 19221 C 1775.99 -4.49098 -0.402748 0
M  V30 19222 C 1774.66 -4.80977 -0.146455 0
M  V30 19223 C 1777.01 -5.20659 0.237376 0
M  V30 19224 C 1774.34 -5.81783 0.758003 0
M  V30 19225 C 1776.69 -6.22429 1.1298 0
M  V30 19226 C 1775.35 -6.52758 1.39513 0
M  V30 19227 H 1774.62 -0.699701 -0.243926 0
M  V30 19228 H 1777.27 -1.91358 0.073824 0
M  V30 19229 H 1775.57 -3.27632 -2.1486 0
M  V30 19230 H 1777.27 -3.54859 -1.86751 0
M  V30 19231 H 1773.86 -4.24198 -0.612678 0
M  V30 19232 H 1778.04 -4.96272 0.052408 0
M  V30 19233 H 1773.3 -6.03634 0.971415 0
M  V30 19234 H 1777.47 -6.77005 1.63208 0
M  V30 19235 H 1775.1 -7.30687 2.09764 0
M  V30 19236 N 1776.68 0.257904 -1.55475 0
M  V30 19237 C 1777.61 1.32303 -1.92401 0
M  V30 19238 C 1778.59 1.50767 -0.787617 0
M  V30 19239 O 1779.77 1.63559 -1.047 0
M  V30 19240 C 1776.9 2.67984 -2.20912 0
M  V30 19241 C 1775.86 2.64231 -3.36699 0
M  V30 19242 C 1775.18 4.03604 -3.50725 0
M  V30 19243 C 1776.48 2.22177 -4.72689 0
M  V30 19244 H 1778.18 1.01646 -2.81618 0
M  V30 19245 H 1775.72 0.487523 -1.35496 0
M  V30 19246 H 1777.68 3.42622 -2.45332 0
M  V30 19247 H 1776.4 3.00254 -1.2851 0
M  V30 19248 H 1775.06 1.92049 -3.1227 0
M  V30 19249 H 1774.71 4.33122 -2.55763 0
M  V30 19250 H 1774.41 4.01983 -4.28583 0
M  V30 19251 H 1775.93 4.79959 -3.77455 0
M  V30 19252 H 1777.34 2.86543 -4.96554 0
M  V30 19253 H 1775.74 2.3169 -5.5357 0
M  V30 19254 H 1776.81 1.17326 -4.70492 0
M  V30 19255 N 1778.15 1.48666 0.52309 0
M  V30 19256 C 1779.12 1.63211 1.60919 0
M  V30 19257 C 1780.12 0.505012 1.52664 0
M  V30 19258 O 1781.31 0.770967 1.56211 0
M  V30 19259 C 1778.44 1.60878 3.00551 0
M  V30 19260 H 1779.63 2.60061 1.4936 0
M  V30 19261 H 1777.19 1.37366 0.745674 0
M  V30 19262 H 1777.92 0.655306 3.1761 0
M  V30 19263 H 1777.71 2.4271 3.07952 0
M  V30 19264 H 1779.2 1.74263 3.79502 0
M  V30 19265 N 1779.63 -0.772489 1.37369 0
M  V30 19266 C 1781.04 -1.34873 1.29098 0
M  V30 19267 C 1781.39 -1.96103 -0.0617433 0
M  V30 19268 O 1780.52 -1.93764 -0.963562 0
M  V30 19269 C 1781.11 -2.45218 2.33781 0
M  V30 19270 C 1779.67 -2.98612 2.29146 0
M  V30 19271 C 1778.82 -1.71823 2.17651 0
M  V30 19272 H 1781.77 -0.572805 1.48002 0
M  V30 19273 H 1781.79 -3.24679 1.98404 0
M  V30 19274 H 1781.3 -2.00624 3.32222 0
M  V30 19275 H 1779.41 -3.47583 1.34225 0
M  V30 19276 H 1779.52 -3.54276 3.22529 0
M  V30 19277 H 1777.88 -1.94719 1.64185 0
M  V30 19278 H 1778.67 -1.29334 3.18006 0
M  V30 19279 N 1781.11 -1.21927 -0.998575 0
M  V30 19280 C 1782.36 -1.03456 -1.73147 0
M  V30 19281 C 1782.67 0.431472 -1.90782 0
M  V30 19282 O 1783.88 0.73573 -2.61341 0
M  V30 19283 C 1782.33 -1.80256 -3.11506 0
M  V30 19284 C 1781.94 -3.31071 -3.01821 0
M  V30 19285 C 1783.69 -1.70214 -3.8888 0
M  V30 19286 C 1781.59 -4.00335 -4.35299 0
M  V30 19287 H 1780.52 -0.3835 -0.649187 0
M  V30 19288 H 1783.17 -1.45724 -1.11521 0
M  V30 19289 H 1781.56 -1.30784 -3.7378 0
M  V30 19290 H 1782.73 -3.87895 -2.48746 0
M  V30 19291 H 1781.05 -3.41727 -2.37932 0
M  V30 19292 H 1783.64 -2.19289 -4.87664 0
M  V30 19293 H 1783.99 -0.661522 -4.1101 0
M  V30 19294 H 1784.52 -2.17199 -3.33271 0
M  V30 19295 H 1781.26 -5.04626 -4.18369 0
M  V30 19296 H 1780.78 -3.48301 -4.8831 0
M  V30 19297 H 1782.46 -4.05611 -5.04072 0
M  V30 19298 N 1782.59 1.19452 -1.02805 0
M  V30 19299 C 1783.54 2.24684 -0.60165 0
M  V30 19300 C 1784.53 1.65414 0.365319 0
M  V30 19301 O 1785.74 1.78473 0.233988 0
M  V30 19302 H 1782.11 0.731043 -0.176296 0
M  V30 19303 H 1784.08 2.57967 -1.49985 0
M  V30 19304 C 1782.83 3.47685 0.0325515 0
M  V30 19305 H 1782.15 3.93579 -0.702532 0
M  V30 19306 H 1783.59 4.2298 0.29386 0
M  V30 19307 C 1782.05 3.11684 1.27887 0
M  V30 19308 O 1782.58 3.24262 2.37101 0
M  V30 19309 N 1780.79 2.66124 1.16731 0
M  V30 19310 H 1780.34 2.56089 0.278595 0
M  V30 19311 H 1780.29 2.42407 2.00215 0
M  V30 19312 N 1784.07 0.805805 1.35442 0
M  V30 19313 C 1785.34 0.309105 1.93142 0
M  V30 19314 C 1785.72 -1.20119 1.73593 0
M  V30 19315 O 1785.07 -2.00034 1.10448 0
M  V30 19316 C 1785.28 0.719653 3.415 0
M  V30 19317 C 1786.63 0.708697 4.18644 0
M  V30 19318 O 1787.65 0.661148 3.5001 0
M  V30 19319 O 1786.51 0.76636 5.411 0
M  V30 19320 H 1783.61 0.0806647 0.823057 0
M  V30 19321 H 1786.15 0.88945 1.44523 0
M  V30 19322 H 1784.92 1.7606 3.49455 0
M  V30 19323 H 1784.55 0.114073 3.97436 0
M  V30 19324 N 1785.54 -1.47344 0.559239 0
M  V30 19325 C 1786.82 -1.95577 -0.0298268 0
M  V30 19326 C 1787.2 -1.50185 -1.4835 0
M  V30 19327 O 1786.55 -0.74162 -2.1613 0
M  V30 19328 C 1786.76 -3.48801 0.117767 0
M  V30 19329 C 1788.11 -4.24592 -0.026535 0
M  V30 19330 O 1789.13 -3.56171 0.0454163 0
M  V30 19331 O 1787.99 -5.46198 -0.181675 0
M  V30 19332 H 1785.08 -0.824597 -0.0629972 0
M  V30 19333 H 1787.63 -1.57736 0.625905 0
M  V30 19334 H 1786.4 -3.74652 1.12924 0
M  V30 19335 H 1786.03 -3.93413 -0.575483 0
M  V30 19336 N 1787.02 -0.295795 -1.54799 0
M  V30 19337 C 1788.43 0.19789 -1.85648 0
M  V30 19338 C 1788.78 1.53834 -1.21776 0
M  V30 19339 O 1787.91 2.10218 -0.513554 0
M  V30 19340 C 1788.5 0.365844 -3.36819 0
M  V30 19341 C 1787.06 0.80375 -3.67718 0
M  V30 19342 C 1786.21 -0.0909572 -2.77151 0
M  V30 19343 H 1789.16 -0.516968 -1.50044 0
M  V30 19344 H 1789.18 1.20123 -3.61041 0
M  V30 19345 H 1788.69 -0.60991 -3.83278 0
M  V30 19346 H 1786.8 1.79024 -3.26774 0
M  V30 19347 H 1786.91 0.626745 -4.74983 0
M  V30 19348 H 1785.27 0.428882 -2.51063 0
M  V30 19349 H 1786.06 -1.06297 -3.26429 0
M  V30 19350 N 1788.5 1.57583 -0.0234236 0
M  V30 19351 C 1789.73 1.95861 0.666797 0
M  V30 19352 C 1790.14 0.899616 1.65989 0
M  V30 19353 O 1789.5 -0.119162 1.82111 0
M  V30 19354 C 1789.55 3.34198 1.37818 0
M  V30 19355 O 1789.27 4.36035 0.424887 0
M  V30 19356 C 1790.77 3.87074 2.16075 0
M  V30 19357 H 1787.99 0.645213 0.184233 0
M  V30 19358 H 1790.54 2.04338 -0.0814987 0
M  V30 19359 H 1788.69 3.26958 2.07792 0
M  V30 19360 H 1789.11 5.162 0.929394 0
M  V30 19361 H 1790.58 4.8623 2.61312 0
M  V30 19362 H 1791.06 3.21017 2.99741 0
M  V30 19363 H 1791.66 3.97565 1.5107 0
M  V30 19364 N 1789.98 -0.249655 1.5561 0
M  V30 19365 C 1791.23 -0.97808 1.77313 0
M  V30 19366 C 1791.55 -1.85423 0.587253 0
M  V30 19367 O 1790.81 -1.90928 -0.429527 0
M  V30 19368 C 1791.11 -1.87138 3.0449 0
M  V30 19369 C 1790.77 -1.15081 4.35967 0
M  V30 19370 C 1789.44 -0.95166 4.71696 0
M  V30 19371 C 1791.79 -0.639877 5.17257 0
M  V30 19372 C 1789.12 -0.229227 5.86252 0
M  V30 19373 C 1791.47 0.0690756 6.32562 0
M  V30 19374 C 1790.13 0.279731 6.66914 0
M  V30 19375 H 1789.4 -0.357905 0.648834 0
M  V30 19376 H 1792.05 -0.248402 1.89882 0
M  V30 19377 H 1790.35 -2.66802 2.86921 0
M  V30 19378 H 1792.05 -2.43662 3.18481 0
M  V30 19379 H 1788.64 -1.31597 4.07897 0
M  V30 19380 H 1792.83 -0.78129 4.90112 0
M  V30 19381 H 1788.08 -0.0555172 6.11375 0
M  V30 19382 H 1792.26 0.472628 6.94794 0
M  V30 19383 H 1789.88 0.841482 7.55528 0
M  V30 19384 N 1791.46 -1.48941 -0.515198 0
M  V30 19385 C 1792.69 -1.61162 -1.29269 0
M  V30 19386 C 1793.1 -0.276697 -1.87166 0
M  V30 19387 O 1792.44 0.746082 -1.67867 0
M  V30 19388 C 1792.5 -2.61067 -2.47152 0
M  V30 19389 C 1792.16 -4.05773 -2.10232 0
M  V30 19390 C 1793.16 -4.93011 -1.65035 0
M  V30 19391 C 1790.85 -4.51412 -2.20302 0
M  V30 19392 C 1792.84 -6.2392 -1.30393 0
M  V30 19393 C 1790.53 -5.82338 -1.85271 0
M  V30 19394 C 1791.53 -6.68416 -1.4039 0
M  V30 19395 O 1791.21 -7.96904 -1.05826 0
M  V30 19396 H 1790.95 -0.545818 -0.398821 0
M  V30 19397 H 1793.5 -1.95608 -0.626638 0
M  V30 19398 H 1791.73 -2.21773 -3.16787 0
M  V30 19399 H 1793.42 -2.62967 -3.09198 0
M  V30 19400 H 1794.18 -4.58984 -1.56713 0
M  V30 19401 H 1790.06 -3.8459 -2.54189 0
M  V30 19402 H 1793.61 -6.91061 -0.952892 0
M  V30 19403 H 1789.5 -6.15897 -1.93238 0
M  V30 19404 H 1790.27 -8.09789 -1.19096 0
M  V30 19405 N 1792.94 0.765193 -1.37777 0
M  V30 19406 C 1794.21 1.51374 -1.23876 0
M  V30 19407 C 1794.59 2.10455 0.164852 0
M  V30 19408 O 1793.94 1.96084 1.17318 0
M  V30 19409 C 1794.15 2.58939 -2.33991 0
M  V30 19410 C 1795.5 3.26162 -2.71852 0
M  V30 19411 O 1796.52 2.69238 -2.33216 0
M  V30 19412 O 1795.38 4.29094 -3.38438 0
M  V30 19413 H 1792.48 0.670749 -0.48376 0
M  V30 19414 H 1795.02 0.801597 -1.49574 0
M  V30 19415 H 1793.79 2.13448 -3.27957 0
M  V30 19416 H 1793.42 3.37747 -2.09793 0
M  V30 19417 N 1794.41 1.22455 0.992094 0
M  V30 19418 C 1795.66 1.05115 1.73432 0
M  V30 19419 C 1795.99 -0.412642 1.89765 0
M  V30 19420 O 1795.27 -1.3059 1.44141 0
M  V30 19421 C 1795.55 1.76385 3.13943 0
M  V30 19422 C 1795.4 3.30364 3.05253 0
M  V30 19423 C 1796.72 1.51688 4.13133 0
M  V30 19424 H 1793.84 0.383261 0.629508 0
M  V30 19425 H 1796.48 1.50805 1.15576 0
M  V30 19426 H 1794.63 1.37544 3.63337 0
M  V30 19427 H 1796.31 3.78655 2.63474 0
M  V30 19428 H 1794.55 3.6 2.42038 0
M  V30 19429 H 1795.22 3.75409 4.04687 0
M  V30 19430 H 1797.7 1.85429 3.72499 0
M  V30 19431 H 1796.57 2.04049 5.09564 0
M  V30 19432 H 1796.83 0.449654 4.39807 0
M  V30 19433 N 1795.89 -1.18905 1.03437 0
M  V30 19434 C 1796.82 -2.24539 0.640669 0
M  V30 19435 C 1797.8 -1.66396 -0.353024 0
M  V30 19436 O 1798.99 -1.92779 -0.234522 0
M  V30 19437 C 1796.12 -3.473 -0.00367731 0
M  V30 19438 C 1795.07 -4.18151 0.912881 0
M  V30 19439 C 1794.4 -5.34534 0.133347 0
M  V30 19440 C 1795.7 -4.72342 2.22913 0
M  V30 19441 H 1797.39 -2.57726 1.52374 0
M  V30 19442 H 1794.94 -1.23883 0.734098 0
M  V30 19443 H 1796.89 -4.20396 -0.290783 0
M  V30 19444 H 1795.61 -3.13328 -0.921578 0
M  V30 19445 H 1794.27 -3.46945 1.18427 0
M  V30 19446 H 1793.92 -4.96809 -0.786762 0
M  V30 19447 H 1793.62 -5.82872 0.743905 0
M  V30 19448 H 1795.15 -6.10423 -0.146889 0
M  V30 19449 H 1796.56 -5.37165 2.00317 0
M  V30 19450 H 1794.96 -5.31189 2.79209 0
M  V30 19451 H 1796.03 -3.90108 2.87999 0
M  V30 19452 N 1797.37 -0.812977 -1.35013 0
M  V30 19453 C 1798.3 -0.185443 -2.28449 0
M  V30 19454 C 1799.31 0.618951 -1.50575 0
M  V30 19455 O 1800.5 0.450262 -1.72728 0
M  V30 19456 C 1797.6 0.759419 -3.30282 0
M  V30 19457 C 1796.78 1.09356e-05 -4.374 0
M  V30 19458 C 1795.84 0.864309 -5.19053 0
M  V30 19459 O 1794.86 0.312916 -5.68339 0
M  V30 19460 N 1796.06 2.18551 -5.37788 0
M  V30 19461 H 1798.83 -0.988144 -2.82941 0
M  V30 19462 H 1796.39 -0.669018 -1.47431 0
M  V30 19463 H 1798.38 1.342 -3.81802 0
M  V30 19464 H 1796.95 1.4629 -2.76257 0
M  V30 19465 H 1796.17 -0.763818 -3.86729 0
M  V30 19466 H 1797.46 -0.523125 -5.06104 0
M  V30 19467 H 1796.86 2.65735 -4.99401 0
M  V30 19468 H 1795.41 2.71718 -5.92463 0
M  V30 19469 N 1798.85 1.47045 -0.567045 0
M  V30 19470 C 1800.1 2.01651 -0.044479 0
M  V30 19471 C 1800.41 1.44583 1.31738 0
M  V30 19472 O 1801.62 1.90911 1.93042 0
M  V30 19473 C 1800.07 3.59888 -0.0289854 0
M  V30 19474 C 1799.68 4.25949 -1.38821 0
M  V30 19475 C 1801.42 4.22209 0.440457 0
M  V30 19476 C 1799.33 5.76221 -1.33129 0
M  V30 19477 H 1798.26 0.75389 -0.012858 0
M  V30 19478 H 1800.91 1.68939 -0.716363 0
M  V30 19479 H 1799.29 3.89606 0.708747 0
M  V30 19480 H 1800.47 4.07861 -2.14443 0
M  V30 19481 H 1798.78 3.75658 -1.79639 0
M  V30 19482 H 1801.38 5.32342 0.501592 0
M  V30 19483 H 1801.72 3.9006 1.45461 0
M  V30 19484 H 1802.26 3.97059 -0.242721 0
M  V30 19485 H 1798.99 6.13005 -2.32175 0
M  V30 19486 H 1798.51 5.96618 -0.617023 0
M  V30 19487 H 1800.19 6.38627 -1.03752 0
M  V30 19488 N 1800.33 0.304 1.5464 0
M  V30 19489 C 1801.27 -0.570762 2.23631 0
M  V30 19490 C 1802.24 -1.1272 1.21998 0
M  V30 19491 O 1803.43 -1.17117 1.50626 0
M  V30 19492 C 1800.57 -1.73533 2.98296 0
M  V30 19493 C 1799.68 -1.21 4.14708 0
M  V30 19494 C 1798.82 -2.33867 4.76948 0
M  V30 19495 C 1797.85 -1.78483 5.855 0
M  V30 19496 N 1796.99 -2.84935 6.41682 0
M  V30 19497 H 1801.83 0.024168 2.9799 0
M  V30 19498 H 1799.37 0.023697 1.47081 0
M  V30 19499 H 1801.33 -2.42031 3.39819 0
M  V30 19500 H 1799.96 -2.30184 2.26308 0
M  V30 19501 H 1799.01 -0.41718 3.78105 0
M  V30 19502 H 1800.32 -0.764576 4.92905 0
M  V30 19503 H 1799.47 -3.10306 5.21339 0
M  V30 19504 H 1798.21 -2.81737 3.9809 0
M  V30 19505 H 1797.22 -1.00534 5.4053 0
M  V30 19506 H 1798.44 -1.31513 6.66244 0
M  V30 19507 H 1796.39 -3.32133 5.65706 0
M  V30 19508 H 1796.31 -2.44898 7.15235 0
M  V30 19509 H 1797.57 -3.61263 6.90731 0
M  V30 19510 N 1801.8 -1.57568 0.0317802 0
M  V30 19511 C 1802.75 -2.10379 -0.949183 0
M  V30 19512 C 1803.72 -1.00649 -1.32133 0
M  V30 19513 O 1804.91 -1.28084 -1.41418 0
M  V30 19514 C 1802.05 -2.63762 -2.22539 0
M  V30 19515 C 1801.16 -3.87509 -1.90946 0
M  V30 19516 C 1800.29 -4.29276 -3.12882 0
M  V30 19517 C 1799.33 -5.45775 -2.77121 0
M  V30 19518 N 1798.47 -5.82686 -3.9169 0
M  V30 19519 H 1803.31 -2.93912 -0.491922 0
M  V30 19520 H 1800.85 -1.45272 -0.23121 0
M  V30 19521 H 1802.8 -2.92803 -2.9719 0
M  V30 19522 H 1801.43 -1.83055 -2.65877 0
M  V30 19523 H 1800.49 -3.6518 -1.06526 0
M  V30 19524 H 1801.8 -4.72235 -1.6061 0
M  V30 19525 H 1800.95 -4.59768 -3.95851 0
M  V30 19526 H 1799.69 -3.43323 -3.46382 0
M  V30 19527 H 1798.7 -5.14974 -1.92565 0
M  V30 19528 H 1799.92 -6.3343 -2.44834 0
M  V30 19529 H 1797.87 -4.99688 -4.25027 0
M  V30 19530 H 1797.78 -6.62058 -3.64986 0
M  V30 19531 H 1799.05 -6.17785 -4.75355 0
M  V30 19532 N 1803.28 0.241399 -1.5574 0
M  V30 19533 C 1804.51 0.984645 -1.81627 0
M  V30 19534 C 1804.92 1.79234 -0.605959 0
M  V30 19535 O 1804.26 1.78479 0.434841 0
M  V30 19536 C 1804.33 1.96647 -3.00949 0
M  V30 19537 C 1803.99 1.34519 -4.36754 0
M  V30 19538 C 1804.99 0.744925 -5.14536 0
M  V30 19539 C 1802.67 1.3629 -4.83457 0
M  V30 19540 C 1804.67 0.170657 -6.37171 0
M  V30 19541 C 1802.35 0.784784 -6.0604 0
M  V30 19542 C 1803.35 0.189694 -6.82737 0
M  V30 19543 O 1803.04 -0.379483 -8.03004 0
M  V30 19544 H 1802.77 0.295118 -0.608179 0
M  V30 19545 H 1805.32 0.267851 -2.03646 0
M  V30 19546 H 1803.55 2.72172 -2.74699 0
M  V30 19547 H 1805.24 2.5736 -3.1388 0
M  V30 19548 H 1806.01 0.723706 -4.7957 0
M  V30 19549 H 1801.89 1.81548 -4.23747 0
M  V30 19550 H 1805.43 -0.294459 -6.96978 0
M  V30 19551 H 1801.33 0.803348 -6.40482 0
M  V30 19552 H 1802.1 -0.271879 -8.18048 0
M  V30 19553 N 1804.76 1.49212 0.507292 0
M  V30 19554 C 1805.99 1.61845 1.28412 0
M  V30 19555 C 1806.4 0.286619 1.87016 0
M  V30 19556 O 1805.74 -0.737169 1.6826 0
M  V30 19557 C 1805.8 2.62374 2.45764 0
M  V30 19558 C 1805.47 4.06882 2.08077 0
M  V30 19559 C 1806.46 4.93879 1.62418 0
M  V30 19560 C 1804.15 4.52574 2.17904 0
M  V30 19561 C 1806.14 6.24603 1.27082 0
M  V30 19562 C 1803.83 5.83313 1.8218 0
M  V30 19563 C 1804.83 6.69151 1.36843 0
M  V30 19564 O 1804.52 7.97454 1.01598 0
M  V30 19565 H 1804.25 0.547926 0.395921 0
M  V30 19566 H 1806.8 1.95937 0.616255 0
M  V30 19567 H 1805.03 2.23449 3.15606 0
M  V30 19568 H 1806.72 2.64603 3.07799 0
M  V30 19569 H 1807.49 4.59808 1.54277 0
M  V30 19570 H 1803.37 3.85932 2.52146 0
M  V30 19571 H 1806.91 6.91557 0.91623 0
M  V30 19572 H 1802.81 6.16913 1.89969 0
M  V30 19573 H 1803.58 8.10409 1.148 0
M  V30 19574 N 1806.24 -0.757876 1.38181 0
M  V30 19575 C 1807.15 -1.90234 1.37289 0
M  V30 19576 C 1808.16 -1.71883 0.270567 0
M  V30 19577 O 1809.34 -1.94881 0.508279 0
M  V30 19578 C 1806.41 -3.25546 1.19251 0
M  V30 19579 C 1805.47 -3.56452 2.39249 0
M  V30 19580 C 1804.7 -4.85308 2.22063 0
M  V30 19581 O 1804.92 -5.57373 1.2121 0
M  V30 19582 O 1803.86 -5.15594 3.10558 0
M  V30 19583 H 1807.68 -1.9394 2.33711 0
M  V30 19584 H 1805.27 -0.902559 1.19056 0
M  V30 19585 H 1807.15 -4.06454 1.11235 0
M  V30 19586 H 1805.82 -3.22661 0.259109 0
M  V30 19587 H 1804.73 -2.75723 2.52839 0
M  V30 19588 H 1806.06 -3.64094 3.31205 0
M  V30 19589 N 1807.72 -1.22979 -0.985586 0
M  V30 19590 C 1808.66 -1.00637 -2.07704 0
M  V30 19591 C 1809.63 0.0744076 -1.65933 0
M  V30 19592 O 1810.82 -0.0766583 -1.90646 0
M  V30 19593 C 1807.96 -0.598088 -3.39878 0
M  V30 19594 C 1807.07 -1.75043 -3.94948 0
M  V30 19595 C 1806.21 -1.28943 -5.15313 0
M  V30 19596 C 1805.25 -2.41285 -5.62537 0
M  V30 19597 N 1804.38 -1.9618 -6.74135 0
M  V30 19598 H 1809.22 -1.94063 -2.26149 0
M  V30 19599 H 1806.76 -0.966841 -1.10863 0
M  V30 19600 H 1808.72 -0.342503 -4.15792 0
M  V30 19601 H 1807.35 0.299167 -3.21411 0
M  V30 19602 H 1806.4 -2.12015 -3.15838 0
M  V30 19603 H 1807.71 -2.5952 -4.25971 0
M  V30 19604 H 1806.87 -0.99166 -5.98541 0
M  V30 19605 H 1805.6 -0.41496 -4.85931 0
M  V30 19606 H 1804.61 -2.71842 -4.77893 0
M  V30 19607 H 1805.83 -3.2926 -5.9394 0
M  V30 19608 H 1803.78 -1.11105 -6.46523 0
M  V30 19609 H 1803.7 -2.74219 -7.04514 0
M  V30 19610 H 1804.97 -1.69492 -7.6085 0
M  V30 19611 N 1809.19 1.18355 -1.04066 0
M  V30 19612 C 1810.42 1.92275 -0.76406 0
M  V30 19613 C 1810.84 1.76176 0.678777 0
M  V30 19614 O 1810.19 1.0914 1.46269 0
M  V30 19615 C 1810.25 3.43686 -1.12083 0
M  V30 19616 O 1809.97 3.59277 -2.50702 0
M  V30 19617 C 1811.47 4.34705 -0.868726 0
M  V30 19618 H 1808.69 0.610406 -0.278649 0
M  V30 19619 H 1811.23 1.50153 -1.38832 0
M  V30 19620 H 1809.39 3.83596 -0.541528 0
M  V30 19621 H 1809.8 4.53007 -2.64357 0
M  V30 19622 H 1811.27 5.39497 -1.16821 0
M  V30 19623 H 1811.75 4.3876 0.196501 0
M  V30 19624 H 1812.36 4.00491 -1.43132 0
M  V30 19625 N 1810.67 0.820125 1.3458 0
M  V30 19626 C 1811.9 0.419764 2.02597 0
M  V30 19627 C 1812.32 -0.973439 1.6177 0
M  V30 19628 O 1811.67 -1.6295 0.821791 0
M  V30 19629 C 1811.72 0.509104 3.57897 0
M  V30 19630 O 1811.44 1.84739 3.97244 0
M  V30 19631 C 1812.95 0.103283 4.4318 0
M  V30 19632 H 1810.17 0.168803 0.64942 0
M  V30 19633 H 1812.71 1.10751 1.71914 0
M  V30 19634 H 1810.86 -0.130526 3.8718 0
M  V30 19635 H 1811.28 1.81967 4.91923 0
M  V30 19636 H 1812.75 0.216884 5.51574 0
M  V30 19637 H 1813.23 -0.952888 4.28738 0
M  V30 19638 H 1813.84 0.716601 4.19219 0
M  V30 19639 N 1812.15 -1.46743 0.574835 0
M  V30 19640 C 1813.38 -2.06505 0.0627081 0
M  V30 19641 C 1813.79 -1.42535 -1.2442 0
M  V30 19642 O 1813.13 -0.522043 -1.76126 0
M  V30 19643 C 1813.19 -3.59021 -0.185574 0
M  V30 19644 C 1812.86 -4.45136 1.03455 0
M  V30 19645 C 1813.85 -4.82163 1.94461 0
M  V30 19646 C 1811.54 -4.8639 1.25418 0
M  V30 19647 C 1813.53 -5.59262 3.05786 0
M  V30 19648 C 1811.22 -5.63251 2.37049 0
M  V30 19649 C 1812.22 -5.99599 3.27062 0
M  V30 19650 O 1811.91 -6.74908 4.36755 0
M  V30 19651 H 1811.64 -0.674082 0.0508932 0
M  V30 19652 H 1814.19 -1.89476 0.792968 0
M  V30 19653 H 1812.42 -3.74327 -0.970354 0
M  V30 19654 H 1814.11 -4.00739 -0.645242 0
M  V30 19655 H 1814.88 -4.50876 1.78705 0
M  V30 19656 H 1810.76 -4.57553 0.56266 0
M  V30 19657 H 1814.3 -5.87552 3.7607 0
M  V30 19658 H 1810.2 -5.93951 2.5277 0
M  V30 19659 H 1810.97 -6.93323 4.35024 0
M  V30 19660 N 1813.63 -0.312197 -1.54477 0
M  V30 19661 C 1814.58 0.57453 -2.25393 0
M  V30 19662 C 1815.57 1.12789 -1.26392 0
M  V30 19663 O 1816.78 1.07724 -1.44207 0
M  V30 19664 H 1813.15 0.203904 -0.723828 0
M  V30 19665 H 1815.12 -0.0459918 -2.98365 0
M  V30 19666 C 1813.87 1.72942 -3.01639 0
M  V30 19667 H 1813.19 1.31286 -3.7763 0
M  V30 19668 H 1814.63 2.3257 -3.54524 0
M  V30 19669 C 1813.09 2.64026 -2.09266 0
M  V30 19670 O 1813.62 3.65431 -1.66803 0
M  V30 19671 N 1811.83 2.32007 -1.74989 0
M  V30 19672 H 1811.38 1.49588 -2.09717 0
M  V30 19673 H 1811.33 2.93213 -1.1346 0
M  V30 19674 N 1815.11 1.57549 -0.040136 0
M  V30 19675 C 1816.35 1.94118 0.640122 0
M  V30 19676 C 1816.71 0.917574 1.68655 0
M  V30 19677 O 1817.91 1.16983 2.42009 0
M  V30 19678 C 1816.18 3.35544 1.23065 0
M  V30 19679 S 1817.74 3.94055 1.93045 0
M  V30 19680 H 1814.56 0.679133 0.210475 0
M  V30 19681 H 1817.16 1.9521 -0.106436 0
M  V30 19682 H 1815.87 4.0785 0.456772 0
M  V30 19683 H 1815.4 3.37921 2.01427 0
M  V30 19684 H 1817.41 3.78384 3.20999 0
M  V30 19685 N 1816.58 -0.233136 1.55866 0
M  V30 19686 C 1817.52 -1.31202 1.87932 0
M  V30 19687 C 1818.53 -1.43619 0.766642 0
M  V30 19688 O 1819.72 -1.44723 1.04487 0
M  V30 19689 C 1816.82 -2.68904 2.06262 0
M  V30 19690 C 1815.99 -2.78581 3.37211 0
M  V30 19691 C 1815.05 -3.97219 3.45114 0
M  V30 19692 O 1814.08 -3.861 4.18229 0
M  V30 19693 N 1815.28 -5.11009 2.7541 0
M  V30 19694 H 1818.04 -1.04025 2.81067 0
M  V30 19695 H 1815.6 -0.423209 1.56271 0
M  V30 19696 H 1817.6 -3.46631 2.08876 0
M  V30 19697 H 1816.17 -2.8873 1.19807 0
M  V30 19698 H 1815.39 -1.87422 3.46795 0
M  V30 19699 H 1816.67 -2.82008 4.23496 0
M  V30 19700 H 1816.07 -5.22936 2.15764 0
M  V30 19701 H 1814.63 -5.8682 2.837 0
M  V30 19702 N 1818.06 -1.49479 -0.499372 0
M  V30 19703 C 1819.31 -1.58295 -1.25003 0
M  V30 19704 C 1819.63 -0.275616 -1.93648 0
M  V30 19705 O 1820.83 -0.24234 -2.70416 0
M  V30 19706 C 1819.29 -2.793 -2.26979 0
M  V30 19707 C 1818.9 -4.16799 -1.64264 0
M  V30 19708 C 1820.64 -2.97447 -3.02862 0
M  V30 19709 C 1818.55 -5.29025 -2.6436 0
M  V30 19710 H 1817.48 -0.589398 -0.470241 0
M  V30 19711 H 1820.13 -1.75868 -0.523698 0
M  V30 19712 H 1818.51 -2.55225 -3.02781 0
M  V30 19713 H 1819.68 -4.51018 -0.944432 0
M  V30 19714 H 1818 -4.04024 -1.00765 0
M  V30 19715 H 1820.6 -3.78461 -3.77719 0
M  V30 19716 H 1820.94 -2.08071 -3.60572 0
M  V30 19717 H 1821.47 -3.2157 -2.34175 0
M  V30 19718 H 1818.21 -6.20466 -2.11429 0
M  V30 19719 H 1817.73 -4.99258 -3.32417 0
M  V30 19720 H 1819.41 -5.58427 -3.26755 0
M  V30 19721 N 1819.54 0.750537 -1.38581 0
M  V30 19722 C 1820.47 1.87785 -1.38777 0
M  V30 19723 C 1821.45 1.68204 -0.253244 0
M  V30 19724 O 1822.64 1.88752 -0.456779 0
M  V30 19725 C 1819.77 3.2535 -1.21511 0
M  V30 19726 C 1818.72 3.59538 -2.32199 0
M  V30 19727 C 1818.05 4.95873 -2.00036 0
M  V30 19728 C 1819.35 3.64102 -3.74469 0
M  V30 19729 H 1821.04 1.87879 -2.33113 0
M  V30 19730 H 1818.59 0.902504 -1.12209 0
M  V30 19731 H 1820.54 4.03872 -1.20272 0
M  V30 19732 H 1819.26 3.25744 -0.236366 0
M  V30 19733 H 1817.92 2.83336 -2.32629 0
M  V30 19734 H 1817.57 4.9283 -1.00638 0
M  V30 19735 H 1817.27 5.19716 -2.7417 0
M  V30 19736 H 1818.8 5.7677 -2.00421 0
M  V30 19737 H 1820.21 4.32731 -3.76054 0
M  V30 19738 H 1818.61 3.99455 -4.47834 0
M  V30 19739 H 1819.68 2.64259 -4.06565 0
M  V30 19740 N 1821.02 1.235 0.979051 0
M  V30 19741 C 1822.26 1.07966 1.73559 0
M  V30 19742 C 1822.62 -0.376756 1.88267 0
M  V30 19743 O 1823.82 -0.653318 2.6074 0
M  V30 19744 C 1822.1 1.78667 3.09537 0
M  V30 19745 S 1823.65 1.78721 4.00754 0
M  V30 19746 H 1820.47 0.386363 0.596862 0
M  V30 19747 H 1823.07 1.56657 1.16956 0
M  V30 19748 H 1821.78 2.8377 2.96484 0
M  V30 19749 H 1821.31 1.30263 3.71208 0
M  V30 19750 H 1823.32 0.846775 4.88921 0
M  V30 19751 N 1822.5 -1.17802 1.04693 0
M  V30 19752 C 1823.41 -2.25298 0.654072 0
M  V30 19753 C 1824.42 -1.70984 -0.32255 0
M  V30 19754 O 1825.6 -2.0063 -0.175904 0
M  V30 19755 C 1822.66 -3.46687 0.0296345 0
M  V30 19756 C 1821.73 -4.16108 1.05606 0
M  V30 19757 C 1820.96 -5.31702 0.461329 0
M  V30 19758 O 1821.18 -5.65701 -0.730679 0
M  V30 19759 O 1820.12 -5.89956 1.19312 0
M  V30 19760 H 1823.94 -2.61179 1.54982 0
M  V30 19761 H 1821.53 -1.25005 0.818182 0
M  V30 19762 H 1823.41 -4.20201 -0.317654 0
M  V30 19763 H 1822.08 -3.12615 -0.839839 0
M  V30 19764 H 1820.99 -3.44635 1.45526 0
M  V30 19765 H 1822.32 -4.54195 1.89651 0
M  V30 19766 N 1823.98 -0.827251 -1.34143 0
M  V30 19767 C 1824.92 -0.250166 -2.2944 0
M  V30 19768 C 1825.89 0.62749 -1.53791 0
M  V30 19769 O 1827.08 0.568218 -1.82143 0
M  V30 19770 C 1824.22 0.578392 -3.40219 0
M  V30 19771 C 1823.33 -0.321991 -4.30798 0
M  V30 19772 C 1822.47 0.51655 -5.28683 0
M  V30 19773 C 1821.5 -0.382949 -6.10901 0
M  V30 19774 N 1820.64 0.416774 -7.00862 0
M  V30 19775 H 1825.48 -1.06817 -2.78198 0
M  V30 19776 H 1823.02 -0.538245 -1.36899 0
M  V30 19777 H 1824.98 1.07414 -4.03135 0
M  V30 19778 H 1823.61 1.36147 -2.92684 0
M  V30 19779 H 1822.66 -0.935979 -3.68705 0
M  V30 19780 H 1823.97 -1.01346 -4.88396 0
M  V30 19781 H 1823.12 1.0766 -5.97071 0
M  V30 19782 H 1821.86 1.2415 -4.71633 0
M  V30 19783 H 1820.87 -0.955103 -5.41441 0
M  V30 19784 H 1822.09 -1.10609 -6.70032 0
M  V30 19785 H 1820.04 1.12532 -6.46276 0
M  V30 19786 H 1819.96 -0.216217 -7.55691 0
M  V30 19787 H 1821.22 0.959432 -7.73573 0
M  V30 19788 N 1825.45 1.46436 -0.582609 0
M  V30 19789 C 1826.73 1.956 -0.00129167 0
M  V30 19790 C 1827.11 1.52526 1.45942 0
M  V30 19791 O 1826.46 0.775911 2.14923 0
M  V30 19792 C 1826.67 3.4857 -0.173243 0
M  V30 19793 C 1828.02 4.2458 -0.0410173 0
M  V30 19794 O 1829.04 3.56054 -0.102074 0
M  V30 19795 O 1827.9 5.46418 0.0947564 0
M  V30 19796 H 1824.99 0.825495 0.0498706 0
M  V30 19797 H 1827.54 1.5672 -0.650921 0
M  V30 19798 H 1826.31 3.72808 -1.1887 0
M  V30 19799 H 1825.93 3.94279 0.512822 0
M  V30 19800 N 1826.93 0.320385 1.54309 0
M  V30 19801 C 1828.16 -0.285197 2.04925 0
M  V30 19802 C 1828.57 -1.46029 1.1967 0
M  V30 19803 O 1827.93 -1.81087 0.22665 0
M  V30 19804 C 1827.98 -0.722736 3.54202 0
M  V30 19805 O 1827.7 0.40561 4.36218 0
M  V30 19806 C 1829.2 -1.39146 4.20896 0
M  V30 19807 H 1826.42 -0.0591612 0.668387 0
M  V30 19808 H 1828.97 0.46565 1.99128 0
M  V30 19809 H 1827.12 -1.42356 3.60296 0
M  V30 19810 H 1827.54 0.0614526 5.24464 0
M  V30 19811 H 1829.01 -1.64858 5.26807 0
M  V30 19812 H 1829.49 -2.33774 3.71815 0
M  V30 19813 H 1830.09 -0.733291 4.18931 0
M  V30 19814 N 1828.41 -1.57525 0.0484906 0
M  V30 19815 C 1829.36 -2.11374 -0.926816 0
M  V30 19816 C 1830.33 -1.02045 -1.31058 0
M  V30 19817 O 1831.51 -1.29577 -1.40052 0
M  V30 19818 C 1828.65 -2.66107 -2.19729 0
M  V30 19819 C 1827.76 -3.89513 -1.86826 0
M  V30 19820 C 1826.9 -4.32571 -3.08312 0
M  V30 19821 C 1825.94 -5.48684 -2.71317 0
M  V30 19822 N 1825.08 -5.86808 -3.85488 0
M  V30 19823 H 1829.92 -2.94417 -0.460721 0
M  V30 19824 H 1827.45 -1.45509 -0.215789 0
M  V30 19825 H 1829.41 -2.95939 -2.94068 0
M  V30 19826 H 1828.04 -1.85865 -2.63921 0
M  V30 19827 H 1827.09 -3.66289 -1.02647 0
M  V30 19828 H 1828.4 -4.73912 -1.55592 0
M  V30 19829 H 1827.56 -4.63941 -3.90952 0
M  V30 19830 H 1826.3 -3.46978 -3.42721 0
M  V30 19831 H 1825.3 -5.16988 -1.87092 0
M  V30 19832 H 1826.53 -6.35991 -2.38102 0
M  V30 19833 H 1824.47 -5.04168 -4.19703 0
M  V30 19834 H 1824.39 -6.65892 -3.57944 0
M  V30 19835 H 1825.66 -6.22792 -4.68776 0
M  V30 19836 N 1829.89 0.224867 -1.55988 0
M  V30 19837 C 1831.12 0.966727 -1.82926 0
M  V30 19838 C 1831.53 1.78078 -0.627177 0
M  V30 19839 O 1830.89 1.77966 0.404277 0
M  V30 19840 C 1830.94 1.88696 -3.08344 0
M  V30 19841 O 1830.66 1.10581 -4.23914 0
M  V30 19842 C 1832.16 2.74299 -3.48246 0
M  V30 19843 H 1829.38 0.283479 -0.608178 0
M  V30 19844 H 1831.92 0.241097 -2.03074 0
M  V30 19845 H 1830.08 2.56658 -2.90182 0
M  V30 19846 H 1830.49 1.73019 -4.95141 0
M  V30 19847 H 1831.97 3.34577 -4.39047 0
M  V30 19848 H 1832.44 3.46526 -2.69845 0
M  V30 19849 H 1833.05 2.11755 -3.68836 0
M  V30 19850 N 1831.37 1.49742 0.491438 0
M  V30 19851 C 1832.61 1.59711 1.24494 0
M  V30 19852 C 1832.94 0.288122 1.92354 0
M  V30 19853 O 1832.2 -0.724652 1.81789 0
M  V30 19854 C 1832.49 2.71245 2.32725 0
M  V30 19855 C 1832.16 4.12423 1.82258 0
M  V30 19856 C 1830.82 4.50841 1.68214 0
M  V30 19857 C 1833.17 5.00741 1.44595 0
M  V30 19858 C 1830.5 5.75339 1.149 0
M  V30 19859 C 1832.85 6.25767 0.927292 0
M  V30 19860 C 1831.52 6.63005 0.773323 0
M  V30 19861 H 1830.79 0.584422 0.455556 0
M  V30 19862 H 1833.44 1.83607 0.544137 0
M  V30 19863 H 1831.74 2.41357 3.08632 0
M  V30 19864 H 1833.44 2.76165 2.90747 0
M  V30 19865 H 1830.03 3.82104 1.94151 0
M  V30 19866 H 1834.21 4.71709 1.54288 0
M  V30 19867 H 1829.47 6.02883 1.01699 0
M  V30 19868 H 1833.64 6.93574 0.626707 0
M  V30 19869 H 1831.27 7.59356 0.358031 0
M  V30 19870 N 1832.84 -0.743177 1.38977 0
M  V30 19871 C 1834.09 -1.49959 1.35486 0
M  V30 19872 C 1834.41 -1.94933 -0.0512044 0
M  V30 19873 O 1833.68 -1.684 -1.0009 0
M  V30 19874 H 1832.26 -0.556277 0.498562 0
M  V30 19875 H 1834.93 -0.882776 1.73762 0
M  V30 19876 H 1834.02 -2.38559 2.01237 0
M  V30 19877 N 1834.32 -1.24018 -0.972487 0
M  V30 19878 C 1835.25 -1.0529 -2.08414 0
M  V30 19879 C 1836.23 0.0326663 -1.70069 0
M  V30 19880 O 1837.42 -0.133494 -1.93741 0
M  V30 19881 C 1834.55 -0.651796 -3.41129 0
M  V30 19882 C 1833.5 -1.68559 -3.9341 0
M  V30 19883 C 1832.83 -1.1397 -5.22413 0
M  V30 19884 C 1834.13 -3.08046 -4.21788 0
M  V30 19885 H 1835.82 -1.98272 -2.2434 0
M  V30 19886 H 1833.37 -0.954694 -1.07804 0
M  V30 19887 H 1835.32 -0.507792 -4.18329 0
M  V30 19888 H 1834.05 0.313722 -3.2509 0
M  V30 19889 H 1832.7 -1.81773 -3.18362 0
M  V30 19890 H 1832.35 -0.164928 -5.0273 0
M  V30 19891 H 1832.05 -1.83051 -5.5836 0
M  V30 19892 H 1833.58 -1.00771 -6.02227 0
M  V30 19893 H 1834.99 -2.98088 -4.8971 0
M  V30 19894 H 1833.39 -3.74436 -4.68954 0
M  V30 19895 H 1834.46 -3.56444 -3.28749 0
M  V30 19896 N 1835.8 1.17245 -1.05316 0
M  V30 19897 C 1837.05 1.87536 -0.76398 0
M  V30 19898 C 1837.38 1.81115 0.709049 0
M  V30 19899 O 1836.63 1.21473 1.53437 0
M  V30 19900 C 1836.93 3.36958 -1.19138 0
M  V30 19901 C 1836.6 3.63581 -2.66683 0
M  V30 19902 C 1835.26 3.70556 -3.06988 0
M  V30 19903 C 1837.61 3.74954 -3.62021 0
M  V30 19904 C 1834.94 3.86396 -4.41492 0
M  V30 19905 C 1837.29 3.92313 -4.9626 0
M  V30 19906 C 1835.95 3.97527 -5.36217 0
M  V30 19907 H 1835.22 0.686241 -0.27956 0
M  V30 19908 H 1837.87 1.38694 -1.32047 0
M  V30 19909 H 1836.18 3.87865 -0.55391 0
M  V30 19910 H 1837.87 3.8971 -0.944815 0
M  V30 19911 H 1834.46 3.58778 -2.34471 0
M  V30 19912 H 1838.65 3.68885 -3.3202 0
M  V30 19913 H 1833.9 3.88681 -4.7195 0
M  V30 19914 H 1838.08 4.00055 -5.70026 0
M  V30 19915 H 1835.7 4.09553 -6.40445 0
M  V30 19916 N 1837.28 0.834353 1.33702 0
M  V30 19917 C 1838.53 0.427042 1.97537 0
M  V30 19918 C 1838.85 -1.01607 1.66436 0
M  V30 19919 O 1838.12 -1.70711 0.960958 0
M  V30 19920 H 1836.7 0.154921 0.730759 0
M  V30 19921 H 1839.36 1.06632 1.63143 0
M  V30 19922 H 1838.46 0.555396 3.07118 0
M  V30 19923 N 1838.76 -1.46125 0.590367 0
M  V30 19924 C 1840.01 -2.01555 0.0765543 0
M  V30 19925 C 1840.32 -1.46661 -1.29422 0
M  V30 19926 O 1841.52 -1.93958 -1.8998 0
M  V30 19927 C 1839.98 -3.59797 0.0862369 0
M  V30 19928 C 1839.59 -4.23687 1.4558 0
M  V30 19929 C 1841.33 -4.22856 -0.373232 0
M  V30 19930 C 1839.24 -5.7403 1.42279 0
M  V30 19931 H 1838.17 -0.75359 0.0248501 0
M  V30 19932 H 1840.82 -1.67778 0.743149 0
M  V30 19933 H 1839.2 -3.90684 -0.646675 0
M  V30 19934 H 1840.38 -4.04398 2.20905 0
M  V30 19935 H 1838.69 -3.72753 1.85592 0
M  V30 19936 H 1841.29 -5.33073 -0.416837 0
M  V30 19937 H 1841.63 -3.92325 -1.39237 0
M  V30 19938 H 1842.16 -3.96622 0.305859 0
M  V30 19939 H 1838.9 -6.09234 2.41898 0
M  V30 19940 H 1838.42 -5.95561 0.711862 0
M  V30 19941 H 1840.1 -6.36896 1.13899 0
M  V30 19942 N 1840.23 -0.328564 -1.54137 0
M  V30 19943 C 1841.48 0.271967 -2.00262 0
M  V30 19944 C 1841.8 1.5226 -1.21827 0
M  V30 19945 O 1841.07 1.93245 -0.321415 0
M  V30 19946 H 1839.65 0.103484 -0.739797 0
M  V30 19947 H 1842.32 -0.446264 -1.89722 0
M  V30 19948 H 1841.41 0.52488 -3.07655 0
M  V30 19949 N 1841.71 1.57497 -0.0568439 0
M  V30 19950 C 1842.66 2.11862 0.915593 0
M  V30 19951 C 1843.63 1.02738 1.30515 0
M  V30 19952 O 1844.81 1.30318 1.39362 0
M  V30 19953 C 1841.95 2.67269 2.18315 0
M  V30 19954 C 1841.07 3.90498 1.84757 0
M  V30 19955 C 1840.2 4.342 3.06013 0
M  V30 19956 C 1839.24 5.50115 2.68403 0
M  V30 19957 N 1838.38 5.88844 3.8237 0
M  V30 19958 H 1843.22 2.94657 0.445101 0
M  V30 19959 H 1840.76 1.45621 0.20807 0
M  V30 19960 H 1842.71 2.97494 2.92494 0
M  V30 19961 H 1841.34 1.87262 2.62931 0
M  V30 19962 H 1840.4 3.66828 1.00703 0
M  V30 19963 H 1841.71 4.7473 1.53077 0
M  V30 19964 H 1840.86 4.66008 3.88486 0
M  V30 19965 H 1839.6 3.4879 3.40876 0
M  V30 19966 H 1838.61 5.17973 1.84348 0
M  V30 19967 H 1839.83 6.37244 2.34726 0
M  V30 19968 H 1837.78 5.06387 4.17024 0
M  V30 19969 H 1837.69 6.67781 3.54407 0
M  V30 19970 H 1838.96 6.25269 4.65466 0
M  V30 19971 N 1843.19 -0.216591 1.56105 0
M  V30 19972 C 1844.44 -0.940249 1.79348 0
M  V30 19973 C 1844.77 -1.84135 0.626451 0
M  V30 19974 O 1844.02 -1.91796 -0.388932 0
M  V30 19975 C 1844.32 -1.80637 3.08391 0
M  V30 19976 C 1843.99 -1.05808 4.3831 0
M  V30 19977 C 1842.65 -0.851392 4.73608 0
M  V30 19978 C 1845 -0.530015 5.18498 0
M  V30 19979 C 1842.33 -0.104822 5.86606 0
M  V30 19980 C 1844.68 0.203236 6.32273 0
M  V30 19981 C 1843.34 0.42113 6.6617 0
M  V30 19982 H 1842.61 -0.344062 0.656279 0
M  V30 19983 H 1845.26 -0.208069 1.90366 0
M  V30 19984 H 1843.57 -2.60656 2.92516 0
M  V30 19985 H 1845.26 -2.36852 3.23577 0
M  V30 19986 H 1841.85 -1.22915 4.10597 0
M  V30 19987 H 1846.04 -0.677154 4.91659 0
M  V30 19988 H 1841.29 0.074177 6.11355 0
M  V30 19989 H 1845.47 0.619898 6.93636 0
M  V30 19990 H 1843.09 1.00155 7.53573 0
M  V30 19991 N 1844.67 -1.5 -0.48349 0
M  V30 19992 C 1845.91 -1.60606 -1.23829 0
M  V30 19993 C 1846.25 -0.299778 -1.91872 0
M  V30 19994 O 1845.52 0.697925 -1.81547 0
M  V30 19995 C 1845.81 -2.77769 -2.29165 0
M  V30 19996 C 1845.66 -4.18243 -1.65507 0
M  V30 19997 C 1846.98 -2.90521 -3.30584 0
M  V30 19998 H 1844.1 -0.584561 -0.44884 0
M  V30 19999 H 1846.74 -1.82346 -0.533855 0
M  V30 20000 H 1844.89 -2.59364 -2.89245 0
M  V30 20001 H 1846.56 -4.48208 -1.09119 0
M  V30 20002 H 1844.8 -4.23077 -0.958577 0
M  V30 20003 H 1845.47 -4.96128 -2.41994 0
M  V30 20004 H 1847.95 -3.0733 -2.80513 0
M  V30 20005 H 1846.83 -3.74146 -4.0163 0
M  V30 20006 H 1847.09 -2.00609 -3.93965 0
M  V30 20007 N 1846.15 0.735796 -1.39369 0
M  V30 20008 C 1847.09 1.8498 -1.38025 0
M  V30 20009 C 1848.06 1.64356 -0.24007 0
M  V30 20010 O 1849.25 1.85774 -0.435058 0
M  V30 20011 C 1846.39 3.22484 -1.22874 0
M  V30 20012 C 1845.5 3.54819 -2.4643 0
M  V30 20013 C 1844.64 4.8172 -2.23873 0
M  V30 20014 C 1843.68 5.06895 -3.43108 0
M  V30 20015 N 1842.81 6.25 -3.19874 0
M  V30 20016 H 1847.65 1.85463 -2.33254 0
M  V30 20017 H 1845.19 0.906252 -1.15868 0
M  V30 20018 H 1847.15 4.01857 -1.12101 0
M  V30 20019 H 1845.78 3.21281 -0.312759 0
M  V30 20020 H 1844.83 2.70153 -2.67809 0
M  V30 20021 H 1846.14 3.69342 -3.35244 0
M  V30 20022 H 1845.3 5.69072 -2.10338 0
M  V30 20023 H 1844.03 4.69369 -1.32453 0
M  V30 20024 H 1843.04 4.18006 -3.57143 0
M  V30 20025 H 1844.26 5.21132 -4.35429 0
M  V30 20026 H 1842.21 6.13939 -2.31117 0
M  V30 20027 H 1842.13 6.40106 -4.02244 0
M  V30 20028 H 1843.4 7.15193 -3.10031 0
M  V30 20029 N 1847.63 1.24532 0.965897 0
M  V30 20030 C 1848.9 0.994047 1.68458 0
M  V30 20031 C 1849.28 -0.483115 2.05497 0
M  V30 20032 O 1848.63 -1.45784 1.75953 0
M  V30 20033 C 1848.84 1.91872 2.91524 0
M  V30 20034 C 1850.19 2.19066 3.63724 0
M  V30 20035 O 1851.21 1.8954 3.01584 0
M  V30 20036 O 1850.07 2.69217 4.75589 0
M  V30 20037 H 1847.17 0.376083 0.73654 0
M  V30 20038 H 1849.71 1.35638 1.01982 0
M  V30 20039 H 1848.48 2.91665 2.60858 0
M  V30 20040 H 1848.11 1.55966 3.65732 0
M  V30 20041 N 1849.1 -1.16685 1.05936 0
M  V30 20042 C 1850.33 -1.90758 0.793401 0
M  V30 20043 C 1850.74 -1.77479 -0.655593 0
M  V30 20044 O 1850.08 -1.11458 -1.46023 0
M  V30 20045 C 1850.15 -3.42127 1.10406 0
M  V30 20046 C 1849.81 -3.79191 2.55074 0
M  V30 20047 C 1850.81 -3.81412 3.533 0
M  V30 20048 C 1848.49 -4.09931 2.9028 0
M  V30 20049 C 1850.49 -4.13853 4.84772 0
M  V30 20050 C 1848.17 -4.42039 4.21953 0
M  V30 20051 C 1849.17 -4.4398 5.19009 0
M  V30 20052 O 1848.86 -4.75328 6.4832 0
M  V30 20053 H 1848.59 -0.611855 0.287418 0
M  V30 20054 H 1851.15 -1.48859 1.41527 0
M  V30 20055 H 1849.38 -3.84356 0.425106 0
M  V30 20056 H 1851.06 -3.97471 0.822918 0
M  V30 20057 H 1851.83 -3.5778 3.27443 0
M  V30 20058 H 1847.71 -4.07587 2.15393 0
M  V30 20059 H 1851.25 -4.15283 5.60523 0
M  V30 20060 H 1847.15 -4.65136 4.4757 0
M  V30 20061 H 1847.92 -4.93154 6.53254 0
M  V30 20062 N 1850.58 -0.841432 -1.33258 0
M  V30 20063 C 1851.83 -0.437512 -1.97307 0
M  V30 20064 C 1852.15 1.00723 -1.66973 0
M  V30 20065 O 1851.42 1.70199 -0.969998 0
M  V30 20066 H 1850 -0.158794 -0.729927 0
M  V30 20067 H 1852.66 -1.07495 -1.62575 0
M  V30 20068 H 1851.76 -0.571675 -3.0682 0
M  V30 20069 N 1852.06 1.4581 -0.598108 0
M  V30 20070 C 1853.29 2.06379 -0.0955533 0
M  V30 20071 C 1853.7 1.44497 1.22137 0
M  V30 20072 O 1853.04 0.549997 1.75273 0
M  V30 20073 C 1853.1 3.59271 0.128433 0
M  V30 20074 C 1852.77 4.43434 -1.10523 0
M  V30 20075 C 1853.76 4.79008 -2.02107 0
M  V30 20076 C 1851.45 4.84334 -1.3314 0
M  V30 20077 C 1853.44 5.54326 -3.14644 0
M  V30 20078 C 1851.13 5.59408 -2.45979 0
M  V30 20079 C 1852.13 5.9432 -3.3656 0
M  V30 20080 O 1851.82 6.67874 -4.47437 0
M  V30 20081 H 1851.55 0.673187 -0.0616108 0
M  V30 20082 H 1854.1 1.88191 -0.823012 0
M  V30 20083 H 1852.33 3.75824 0.910679 0
M  V30 20084 H 1854.02 4.01714 0.581406 0
M  V30 20085 H 1854.79 4.47976 -1.85856 0
M  V30 20086 H 1850.67 4.566 -0.635381 0
M  V30 20087 H 1854.21 5.81495 -3.8537 0
M  V30 20088 H 1850.11 5.89854 -2.62187 0
M  V30 20089 H 1850.87 6.86314 -4.45999 0
M  V30 20090 N 1853.54 0.336733 1.53961 0
M  V30 20091 C 1854.78 -0.262248 2.01097 0
M  V30 20092 C 1855.12 -1.50745 1.22431 0
M  V30 20093 O 1854.39 -1.92012 0.310103 0
M  V30 20094 C 1854.67 -0.583219 3.55346 0
M  V30 20095 C 1854.53 0.67361 4.44727 0
M  V30 20096 C 1855.85 -1.39558 4.17386 0
M  V30 20097 H 1852.97 -0.0938423 0.731001 0
M  V30 20098 H 1855.61 0.455921 1.84449 0
M  V30 20099 H 1853.76 -1.19505 3.69663 0
M  V30 20100 H 1855.43 1.31168 4.42258 0
M  V30 20101 H 1853.67 1.29987 4.13867 0
M  V30 20102 H 1854.34 0.404382 5.50517 0
M  V30 20103 H 1856.82 -0.878292 4.06725 0
M  V30 20104 H 1855.7 -1.58892 5.25399 0
M  V30 20105 H 1855.96 -2.39567 3.71564 0
M  V30 20106 N 1855.02 -1.57465 0.0651956 0
M  V30 20107 C 1856.26 -1.94338 -0.600351 0
M  V30 20108 C 1856.62 -0.944581 -1.67617 0
M  V30 20109 O 1855.91 0.0341492 -1.9157 0
M  V30 20110 C 1856.1 -3.35656 -1.2276 0
M  V30 20111 C 1855.93 -4.4919 -0.214068 0
M  V30 20112 C 1854.7 -5.04908 0.198933 0
M  V30 20113 C 1856.9 -5.11393 0.546079 0
M  V30 20114 N 1854.88 -6.0198 1.20386 0
M  V30 20115 C 1856.25 -6.03901 1.40368 0
M  V30 20116 C 1858.31 -4.94237 0.602866 0
M  V30 20117 C 1857.01 -6.81097 2.313 0
M  V30 20118 C 1859.04 -5.7207 1.49967 0
M  V30 20119 C 1858.4 -6.64222 2.34496 0
M  V30 20120 H 1854.5 -0.758339 -0.190908 0
M  V30 20121 H 1857.08 -1.9419 0.1408 0
M  V30 20122 H 1855.25 -3.36554 -1.93871 0
M  V30 20123 H 1856.99 -3.59782 -1.85308 0
M  V30 20124 H 1853.74 -4.73247 -0.182861 0
M  V30 20125 H 1854.16 -6.55214 1.70364 0
M  V30 20126 H 1858.81 -4.22784 -0.0364468 0
M  V30 20127 H 1856.52 -7.51831 2.9627 0
M  V30 20128 H 1860.11 -5.60818 1.54836 0
M  V30 20129 H 1858.99 -7.23397 3.02765 0
M  V30 20130 N 1856.49 0.20831 -1.56217 0
M  V30 20131 C 1857.77 0.955838 -1.70655 0
M  V30 20132 C 1858.15 2.01905 -0.61624 0
M  V30 20133 O 1857.5 2.25405 0.374793 0
M  V30 20134 C 1857.71 1.55427 -3.1248 0
M  V30 20135 C 1859.06 2.04147 -3.72303 0
M  V30 20136 O 1860.08 1.65295 -3.15525 0
M  V30 20137 O 1858.94 2.75597 -4.7192 0
M  V30 20138 H 1856.03 0.447364 -0.695553 0
M  V30 20139 H 1858.58 0.199047 -1.68529 0
M  V30 20140 H 1857.35 0.787224 -3.83299 0
M  V30 20141 H 1856.97 2.37625 -3.18779 0
M  V30 20142 N 1857.97 1.50255 0.475528 0
M  V30 20143 C 1859.2 1.64771 1.25132 0
M  V30 20144 C 1859.61 0.329253 1.85907 0
M  V30 20145 O 1858.97 -0.688289 1.69023 0
M  V30 20146 C 1859.02 2.73556 2.36325 0
M  V30 20147 O 1858.74 4.0029 1.78043 0
M  V30 20148 C 1860.24 2.99006 3.27277 0
M  V30 20149 H 1857.46 0.553987 0.378602 0
M  V30 20150 H 1860.01 1.9645 0.56811 0
M  V30 20151 H 1858.16 2.44584 3.00429 0
M  V30 20152 H 1858.58 4.60416 2.51232 0
M  V30 20153 H 1860.05 3.78797 4.01518 0
M  V30 20154 H 1860.53 2.09904 3.85794 0
M  V30 20155 H 1861.13 3.29493 2.68914 0
M  V30 20156 N 1859.45 -0.728395 1.39758 0
M  V30 20157 C 1860.68 -1.5154 1.40425 0
M  V30 20158 C 1861.09 -1.892 -0.00123953 0
M  V30 20159 O 1860.43 -1.55086 -0.984575 0
M  V30 20160 C 1860.49 -2.8282 2.2193 0
M  V30 20161 C 1860.16 -2.67557 3.70489 0
M  V30 20162 C 1861.15 -2.35665 4.6342 0
M  V30 20163 C 1858.84 -2.84221 4.14154 0
M  V30 20164 C 1860.83 -2.20628 5.97998 0
M  V30 20165 C 1858.52 -2.68803 5.48806 0
M  V30 20166 C 1859.52 -2.37053 6.40543 0
M  V30 20167 O 1859.21 -2.21738 7.72714 0
M  V30 20168 H 1858.94 -0.474672 0.481313 0
M  V30 20169 H 1861.49 -0.907176 1.84281 0
M  V30 20170 H 1859.72 -3.45927 1.72833 0
M  V30 20171 H 1861.41 -3.44472 2.14695 0
M  V30 20172 H 1862.18 -2.22435 4.30985 0
M  V30 20173 H 1858.06 -3.07925 3.43079 0
M  V30 20174 H 1861.6 -1.95768 6.69567 0
M  V30 20175 H 1857.5 -2.81614 5.8083 0
M  V30 20176 H 1858.26 -2.36758 7.8351 0
M  V30 20177 N 1860.93 -1.25042 -0.959279 0
M  V30 20178 C 1862.2 -1.00297 -1.67928 0
M  V30 20179 C 1862.58 0.47221 -2.05751 0
M  V30 20180 O 1861.93 1.44849 -1.76723 0
M  V30 20181 C 1862.14 -1.93416 -2.90502 0
M  V30 20182 C 1863.49 -2.20992 -3.62557 0
M  V30 20183 O 1864.51 -1.91136 -3.00575 0
M  V30 20184 O 1863.37 -2.71735 -4.74154 0
M  V30 20185 H 1860.47 -0.379984 -0.734535 0
M  V30 20186 H 1863.01 -1.36177 -1.01262 0
M  V30 20187 H 1861.79 -2.93045 -2.59308 0
M  V30 20188 H 1861.41 -1.57904 -3.649 0
M  V30 20189 N 1862.41 1.16121 -1.06553 0
M  V30 20190 C 1863.35 2.22656 -0.672827 0
M  V30 20191 C 1864.35 1.66492 0.312509 0
M  V30 20192 O 1865.55 1.79127 0.17709 0
M  V30 20193 H 1861.93 0.725064 -0.199464 0
M  V30 20194 H 1863.9 2.53065 -1.58116 0
M  V30 20195 C 1862.65 3.47612 -0.0780782 0
M  V30 20196 H 1861.97 3.91145 -0.82739 0
M  V30 20197 H 1863.41 4.23701 0.159143 0
M  V30 20198 C 1861.87 3.15594 1.17906 0
M  V30 20199 O 1862.4 3.31641 2.26665 0
M  V30 20200 N 1860.61 2.69703 1.08206 0
M  V30 20201 H 1860.15 2.56846 0.196981 0
M  V30 20202 H 1860.11 2.48654 1.92402 0
M  V30 20203 N 1863.88 0.848487 1.3281 0
M  V30 20204 C 1865.11 0.461973 2.01369 0
M  V30 20205 C 1865.52 -0.944176 1.63957 0
M  V30 20206 O 1864.87 -1.62659 0.853677 0
M  V30 20207 C 1864.93 0.514163 3.55804 0
M  V30 20208 C 1864.59 1.87812 4.16624 0
M  V30 20209 C 1865.59 2.84271 4.353 0
M  V30 20210 C 1863.27 2.17358 4.52836 0
M  V30 20211 C 1865.27 4.08433 4.89348 0
M  V30 20212 C 1862.95 3.41774 5.0659 0
M  V30 20213 C 1863.95 4.37128 5.24793 0
M  V30 20214 O 1863.64 5.59342 5.774 0
M  V30 20215 H 1863.37 0.180645 0.651416 0
M  V30 20216 H 1865.93 1.14535 1.70502 0
M  V30 20217 H 1864.16 -0.226037 3.86039 0
M  V30 20218 H 1865.85 0.14412 4.05644 0
M  V30 20219 H 1866.61 2.62747 4.07663 0
M  V30 20220 H 1862.49 1.43927 4.37957 0
M  V30 20221 H 1866.03 4.82869 5.03471 0
M  V30 20222 H 1861.93 3.63151 5.33659 0
M  V30 20223 H 1862.7 5.61215 5.95802 0
M  V30 20224 N 1865.36 -1.4549 0.605832 0
M  V30 20225 C 1866.61 -2.02251 0.100338 0
M  V30 20226 C 1866.94 -1.47447 -1.26845 0
M  V30 20227 O 1866.19 -0.638532 -1.8499 0
M  V30 20228 C 1866.49 -3.57399 0.00918576 0
M  V30 20229 C 1866.16 -4.31347 1.31341 0
M  V30 20230 C 1864.82 -4.51267 1.67067 0
M  V30 20231 C 1867.17 -4.73629 2.17543 0
M  V30 20232 C 1864.5 -5.10725 2.88751 0
M  V30 20233 C 1866.85 -5.34432 3.38474 0
M  V30 20234 C 1865.52 -5.52576 3.74455 0
M  V30 20235 H 1864.79 -0.74009 0.0367165 0
M  V30 20236 H 1867.43 -1.74577 0.787099 0
M  V30 20237 H 1865.74 -3.84342 -0.760829 0
M  V30 20238 H 1867.43 -3.99019 -0.398057 0
M  V30 20239 H 1864.02 -4.16155 1.02533 0
M  V30 20240 H 1868.21 -4.57974 1.91241 0
M  V30 20241 H 1863.46 -5.22961 3.16736 0
M  V30 20242 H 1867.64 -5.66149 4.05522 0
M  V30 20243 H 1865.27 -5.98416 4.68831 0
M  V30 20244 N 1866.84 -0.344893 -1.5378 0
M  V30 20245 C 1868.08 0.251536 -2.02846 0
M  V30 20246 C 1868.44 1.4766 -1.22721 0
M  V30 20247 O 1869.65 2.1473 -1.61693 0
M  V30 20248 C 1867.92 0.556604 -3.53039 0
M  V30 20249 S 1869.48 1.12965 -4.2401 0
M  V30 20250 H 1866.29 0.074782 -0.707056 0
M  V30 20251 H 1868.9 -0.482967 -1.8944 0
M  V30 20252 H 1867.6 -0.342803 -4.08966 0
M  V30 20253 H 1867.13 1.32074 -3.70567 0
M  V30 20254 H 1869.15 2.41529 -4.33449 0
M  V30 20255 N 1868.32 1.57428 -0.0735454 0
M  V30 20256 C 1869.57 1.92732 0.594748 0
M  V30 20257 C 1869.88 0.955693 1.70663 0
M  V30 20258 O 1871.09 1.20162 2.43461 0
M  V30 20259 C 1869.54 3.42379 1.10927 0
M  V30 20260 C 1869.15 4.47991 0.0283008 0
M  V30 20261 C 1870.89 3.8668 1.75153 0
M  V30 20262 C 1868.8 5.88771 0.556965 0
M  V30 20263 H 1867.73 0.719355 0.22593 0
M  V30 20264 H 1870.38 1.82918 -0.146063 0
M  V30 20265 H 1868.76 3.47272 1.9031 0
M  V30 20266 H 1869.94 4.54716 -0.74634 0
M  V30 20267 H 1868.25 4.13168 -0.517835 0
M  V30 20268 H 1870.85 4.89244 2.15741 0
M  V30 20269 H 1871.19 3.24144 2.61221 0
M  V30 20270 H 1871.73 3.84397 1.02389 0
M  V30 20271 H 1868.47 6.54958 -0.266602 0
M  V30 20272 H 1867.99 5.85563 1.29909 0
M  V30 20273 H 1869.66 6.38703 1.03281 0
M  V30 20274 N 1869.8 -0.200022 1.56326 0
M  V30 20275 C 1871.02 -0.941617 1.84793 0
M  V30 20276 C 1871.45 -1.76271 0.656525 0
M  V30 20277 O 1870.8 -1.76951 -0.394703 0
M  V30 20278 C 1870.85 -1.81754 3.11445 0
M  V30 20279 O 1869.96 -2.91571 2.91651 0
M  V30 20280 H 1869.3 -0.265444 0.608634 0
M  V30 20281 H 1871.83 -0.206826 2.03552 0
M  V30 20282 H 1871.84 -2.22316 3.4211 0
M  V30 20283 H 1870.51 -1.2142 3.97781 0
M  V30 20284 H 1869.09 -2.54799 2.72271 0
M  V30 20285 N 1871.27 -1.50505 -0.467553 0
M  V30 20286 C 1872.21 -1.65784 -1.58267 0
M  V30 20287 C 1873.22 -0.539219 -1.53611 0
M  V30 20288 O 1874.41 -0.812524 -1.58935 0
M  V30 20289 C 1871.51 -1.62951 -2.97154 0
M  V30 20290 C 1870.68 -2.90903 -3.26641 0
M  V30 20291 C 1869.74 -2.80665 -4.451 0
M  V30 20292 O 1868.77 -3.5462 -4.45234 0
M  V30 20293 N 1869.97 -1.9446 -5.4696 0
M  V30 20294 H 1872.73 -2.6197 -1.45575 0
M  V30 20295 H 1870.29 -1.48013 -0.656029 0
M  V30 20296 H 1872.29 -1.53709 -3.74373 0
M  V30 20297 H 1870.86 -0.744855 -3.03596 0
M  V30 20298 H 1870.08 -3.14244 -2.38001 0
M  V30 20299 H 1871.36 -3.75663 -3.43155 0
M  V30 20300 H 1870.76 -1.33694 -5.49675 0
M  V30 20301 H 1869.32 -1.9112 -6.2315 0
M  V30 20302 N 1872.75 0.720973 -1.40142 0
M  V30 20303 C 1874 1.48179 -1.39336 0
M  V30 20304 C 1874.35 1.92399 0.00644899 0
M  V30 20305 O 1873.65 1.64891 0.975787 0
M  V30 20306 C 1873.84 2.72513 -2.31239 0
M  V30 20307 C 1873.67 2.40453 -3.80016 0
M  V30 20308 C 1872.44 2.32058 -4.48862 0
M  V30 20309 C 1874.64 2.05075 -4.71645 0
M  V30 20310 N 1872.62 1.92616 -5.829 0
M  V30 20311 C 1873.99 1.7619 -5.94438 0
M  V30 20312 C 1876.05 1.91664 -4.59532 0
M  V30 20313 C 1874.75 1.35244 -7.06471 0
M  V30 20314 C 1876.77 1.52122 -5.715 0
M  V30 20315 C 1876.14 1.24132 -6.93376 0
M  V30 20316 H 1872.24 0.540518 -0.565123 0
M  V30 20317 H 1874.82 0.836604 -1.7581 0
M  V30 20318 H 1872.99 3.3479 -1.96901 0
M  V30 20319 H 1874.72 3.38816 -2.21327 0
M  V30 20320 H 1871.48 2.4962 -4.02476 0
M  V30 20321 H 1871.9 1.75449 -6.53871 0
M  V30 20322 H 1876.54 2.11967 -3.65828 0
M  V30 20323 H 1874.26 1.13683 -8.00064 0
M  V30 20324 H 1877.85 1.42331 -5.64121 0
M  V30 20325 H 1876.73 0.939937 -7.78547 0
M  V30 20326 N 1874.23 1.25549 0.952634 0
M  V30 20327 C 1875.46 1.12998 1.7296 0
M  V30 20328 C 1875.87 -0.318779 1.86495 0
M  V30 20329 O 1875.21 -1.23091 1.36361 0
M  V30 20330 C 1875.27 1.71313 3.16057 0
M  V30 20331 C 1874.94 3.20326 3.25945 0
M  V30 20332 C 1875.93 4.17291 3.10103 0
M  V30 20333 C 1873.62 3.60574 3.49702 0
M  V30 20334 C 1875.61 5.52484 3.17868 0
M  V30 20335 C 1873.3 4.95904 3.57103 0
M  V30 20336 C 1874.3 5.91668 3.412 0
M  V30 20337 O 1873.99 7.24535 3.48287 0
M  V30 20338 H 1873.72 0.394815 0.548723 0
M  V30 20339 H 1876.27 1.66441 1.20361 0
M  V30 20340 H 1874.5 1.1232 3.70029 0
M  V30 20341 H 1876.19 1.53832 3.7562 0
M  V30 20342 H 1876.96 3.87537 2.91617 0
M  V30 20343 H 1872.84 2.86529 3.6114 0
M  V30 20344 H 1876.38 6.27211 3.05373 0
M  V30 20345 H 1872.28 5.25324 3.75106 0
M  V30 20346 H 1873.05 7.32657 3.64905 0
M  V30 20347 N 1875.71 -1.15554 1.07168 0
M  V30 20348 C 1876.64 -2.22387 0.71178 0
M  V30 20349 C 1877.62 -1.67435 -0.299908 0
M  V30 20350 O 1878.8 -1.93427 -0.173073 0
M  V30 20351 C 1875.93 -3.47136 0.106815 0
M  V30 20352 C 1874.89 -4.15035 1.04545 0
M  V30 20353 C 1874.21 -5.33839 0.303337 0
M  V30 20354 C 1875.51 -4.65011 2.37827 0
M  V30 20355 H 1877.21 -2.52748 1.60496 0
M  V30 20356 H 1874.75 -1.21485 0.773139 0
M  V30 20357 H 1876.71 -4.21108 -0.15689 0
M  V30 20358 H 1875.43 -3.16101 -0.821429 0
M  V30 20359 H 1874.09 -3.43001 1.29405 0
M  V30 20360 H 1873.74 -4.9906 -0.628308 0
M  V30 20361 H 1873.44 -5.8021 0.928964 0
M  V30 20362 H 1874.96 -6.10582 0.0473869 0
M  V30 20363 H 1876.38 -5.3052 2.17305 0
M  V30 20364 H 1874.77 -5.22038 2.95967 0
M  V30 20365 H 1875.84 -3.80748 3.00264 0
M  V30 20366 N 1877.19 -0.855519 -1.32358 0
M  V30 20367 C 1878.6 -0.545491 -1.49989 0
M  V30 20368 C 1878.8 0.923656 -1.79083 0
M  V30 20369 O 1877.86 1.70664 -1.86091 0
M  V30 20370 C 1879.17 -1.43323 -2.64347 0
M  V30 20371 C 1880.72 -1.43374 -2.78232 0
M  V30 20372 C 1881.2 -2.30671 -3.9567 0
M  V30 20373 N 1882.69 -2.28471 -4.02933 0
M  V30 20374 C 1883.42 -2.92746 -4.93039 0
M  V30 20375 N 1882.92 -3.66136 -5.88147 0
M  V30 20376 N 1884.71 -2.82129 -4.86168 0
M  V30 20377 H 1876.86 -1.80633 -1.11738 0
M  V30 20378 H 1879.12 -0.771568 -0.550805 0
M  V30 20379 H 1878.83 -2.47797 -2.49578 0
M  V30 20380 H 1878.7 -1.12125 -3.6015 0
M  V30 20381 H 1881.09 -0.396641 -2.92422 0
M  V30 20382 H 1881.17 -1.78588 -1.83139 0
M  V30 20383 H 1880.82 -3.3445 -3.82238 0
M  V30 20384 H 1880.75 -1.92789 -4.90041 0
M  V30 20385 H 1883.24 -1.75115 -3.34878 0
M  V30 20386 H 1883.55 -4.12344 -6.536 0
M  V30 20387 H 1881.9 -3.70244 -5.88171 0
M  V30 20388 H 1885.09 -2.24344 -4.10837 0
M  V30 20389 H 1885.26 -3.32502 -5.56189 0
M  V30 20390 N 1878.67 1.45167 -0.61354 0
M  V30 20391 C 1880.08 1.57166 -0.277678 0
M  V30 20392 C 1880.28 1.60395 1.21965 0
M  V30 20393 O 1879.34 1.53747 2.00295 0
M  V30 20394 C 1880.65 2.85162 -0.9541 0
M  V30 20395 C 1882.2 2.98847 -0.930579 0
M  V30 20396 C 1882.67 4.29621 -1.58712 0
M  V30 20397 N 1884.16 4.36394 -1.55289 0
M  V30 20398 C 1884.9 5.36264 -2.02999 0
M  V30 20399 N 1884.4 6.42638 -2.58821 0
M  V30 20400 N 1886.19 5.27659 -1.93732 0
M  V30 20401 H 1878.34 1.41314 -1.58569 0
M  V30 20402 H 1880.6 0.676027 -0.664598 0
M  V30 20403 H 1880.31 2.88698 -2.00864 0
M  V30 20404 H 1880.18 3.7412 -0.481025 0
M  V30 20405 H 1882.57 2.94874 0.115433 0
M  V30 20406 H 1882.65 2.11283 -1.44198 0
M  V30 20407 H 1882.29 4.34352 -2.6325 0
M  V30 20408 H 1882.22 5.16011 -1.0507 0
M  V30 20409 H 1884.72 3.60131 -1.14516 0
M  V30 20410 H 1885.03 7.151 -2.93004 0
M  V30 20411 H 1883.37 6.43372 -2.62863 0
M  V30 20412 H 1886.56 4.43465 -1.49856 0
M  V30 20413 H 1886.74 6.05341 -2.31227 0
M  V30 20414 N 1880.14 0.353044 1.53595 0
M  V30 20415 C 1881.39 -0.2416 2.00248 0
M  V30 20416 C 1881.71 -1.5089 1.24465 0
M  V30 20417 O 1882.91 -2.18137 1.61643 0
M  V30 20418 C 1881.37 -0.481075 3.5667 0
M  V30 20419 C 1880.98 0.77087 4.41318 0
M  V30 20420 C 1882.72 -1.03406 4.11713 0
M  V30 20421 C 1880.63 0.501671 5.89268 0
M  V30 20422 H 1879.56 -0.0940573 0.74811 0
M  V30 20423 H 1882.21 0.469845 1.77383 0
M  V30 20424 H 1880.59 -1.25346 3.75639 0
M  V30 20425 H 1881.76 1.54509 4.34124 0
M  V30 20426 H 1880.08 1.24617 3.97315 0
M  V30 20427 H 1882.68 -1.25058 5.1987 0
M  V30 20428 H 1883.02 -1.99245 3.65523 0
M  V30 20429 H 1883.55 -0.322144 3.96493 0
M  V30 20430 H 1880.29 1.43005 6.39711 0
M  V30 20431 H 1879.81 -0.234284 5.99342 0
M  V30 20432 H 1881.49 0.122468 6.46884 0
M  V30 20433 N 1881.62 -1.57387 0.0818932 0
M  V30 20434 C 1882.85 -1.9862 -0.597066 0
M  V30 20435 C 1883.27 -0.960277 -1.61741 0
M  V30 20436 O 1882.63 0.0728948 -1.81153 0
M  V30 20437 C 1882.68 -3.3886 -1.23315 0
M  V30 20438 O 1881.78 -3.38962 -2.34901 0
M  V30 20439 H 1881.12 -0.646208 -0.152679 0
M  V30 20440 H 1883.65 -2.03978 0.159398 0
M  V30 20441 H 1883.66 -3.76266 -1.5776 0
M  V30 20442 H 1882.34 -4.13056 -0.485551 0
M  V30 20443 H 1880.91 -3.13337 -2.02174 0
M  V30 20444 N 1883.1 0.191729 -1.56429 0
M  V30 20445 C 1884.01 1.25798 -1.9802 0
M  V30 20446 C 1885.03 1.49612 -0.888379 0
M  V30 20447 O 1886.2 1.62161 -1.1944 0
M  V30 20448 C 1883.27 2.58158 -2.3142 0
M  V30 20449 C 1882.33 2.42386 -3.54327 0
M  V30 20450 C 1881.56 3.68434 -3.86124 0
M  V30 20451 O 1881.78 4.72747 -3.19165 0
M  V30 20452 O 1880.72 3.63762 -4.79542 0
M  V30 20453 H 1884.54 0.935013 -2.88948 0
M  V30 20454 H 1882.13 0.396996 -1.44029 0
M  V30 20455 H 1884.01 3.36274 -2.53964 0
M  V30 20456 H 1882.69 2.90075 -1.43659 0
M  V30 20457 H 1881.59 1.62369 -3.37027 0
M  V30 20458 H 1882.93 2.154 -4.42565 0
M  V30 20459 N 1884.58 1.50751 0.459565 0
M  V30 20460 C 1885.53 1.70997 1.57679 0
M  V30 20461 C 1886.52 0.575925 1.59309 0
M  V30 20462 O 1887.73 0.756735 1.6332 0
M  V30 20463 H 1884.1 0.539921 0.52344 0
M  V30 20464 H 1886.07 2.64693 1.37769 0
M  V30 20465 C 1884.82 1.83187 2.9553 0
M  V30 20466 H 1884.14 2.69844 2.94998 0
M  V30 20467 H 1885.58 2.01374 3.73128 0
M  V30 20468 C 1884.04 0.586222 3.31761 0
M  V30 20469 O 1884.57 -0.269358 4.00796 0
M  V30 20470 N 1882.78 0.436839 2.87298 0
M  V30 20471 H 1882.33 1.13413 2.31291 0
M  V30 20472 H 1882.28 -0.395424 3.11903 0
M  V30 20473 N 1886.06 -0.713531 1.40522 0
M  V30 20474 C 1887.3 -1.46899 1.38216 0
M  V30 20475 C 1887.62 -1.95596 -0.011831 0
M  V30 20476 O 1888.82 -2.71043 -0.157513 0
M  V30 20477 C 1887.28 -2.65544 2.42929 0
M  V30 20478 C 1886.89 -2.23707 3.88148 0
M  V30 20479 C 1888.63 -3.4327 2.49732 0
M  V30 20480 C 1886.54 -3.39203 4.84453 0
M  V30 20481 H 1885.47 -0.551718 0.513929 0
M  V30 20482 H 1888.12 -0.776357 1.66268 0
M  V30 20483 H 1886.5 -3.36987 2.0798 0
M  V30 20484 H 1887.68 -1.5967 4.32252 0
M  V30 20485 H 1885.99 -1.59021 3.84839 0
M  V30 20486 H 1888.59 -4.29215 3.18871 0
M  V30 20487 H 1888.93 -3.87225 1.52848 0
M  V30 20488 H 1889.46 -2.78871 2.83683 0
M  V30 20489 H 1886.2 -3.00278 5.82678 0
M  V30 20490 H 1885.72 -4.02149 4.45012 0
M  V30 20491 H 1887.4 -4.0524 5.04371 0
M  V30 20492 N 1887.53 -1.26053 -0.945962 0
M  V30 20493 C 1888.48 -1.06999 -2.06529 0
M  V30 20494 C 1889.48 0.00168092 -1.694 0
M  V30 20495 O 1890.68 -0.154623 -1.79335 0
M  V30 20496 H 1887.06 -0.329129 -0.676149 0
M  V30 20497 H 1889.03 -2.01869 -2.19753 0
M  V30 20498 C 1887.78 -0.714636 -3.40277 0
M  V30 20499 H 1887.1 -1.53111 -3.6932 0
M  V30 20500 H 1888.54 -0.62107 -4.19427 0
M  V30 20501 C 1887 0.579908 -3.31871 0
M  V30 20502 O 1887.53 1.61959 -3.67603 0
M  V30 20503 N 1885.73 0.568764 -2.8498 0
M  V30 20504 H 1885.28 -0.277687 -2.56099 0
M  V30 20505 H 1885.24 1.43505 -2.79738 0
M  V30 20506 N 1889.01 1.14984 -1.07779 0
M  V30 20507 C 1889.96 2.19864 -0.702018 0
M  V30 20508 C 1890.93 1.63206 0.308695 0
M  V30 20509 O 1892.11 1.8981 0.194157 0
M  V30 20510 C 1889.25 3.44923 -0.110634 0
M  V30 20511 C 1888.37 4.1576 -1.17335 0
M  V30 20512 C 1887.5 5.28381 -0.546508 0
M  V30 20513 C 1886.54 5.91042 -1.59171 0
M  V30 20514 N 1885.68 6.95126 -0.987129 0
M  V30 20515 H 1890.52 2.51358 -1.60073 0
M  V30 20516 H 1888.05 1.2344 -0.80006 0
M  V30 20517 H 1890.01 4.16451 0.249903 0
M  V30 20518 H 1888.64 3.13932 0.751416 0
M  V30 20519 H 1887.69 3.42685 -1.6514 0
M  V30 20520 H 1889.01 4.58436 -1.96566 0
M  V30 20521 H 1888.16 6.06552 -0.133852 0
M  V30 20522 H 1886.9 4.8691 0.277527 0
M  V30 20523 H 1885.9 5.1158 -2.01409 0
M  V30 20524 H 1887.13 6.3459 -2.4181 0
M  V30 20525 H 1885.08 6.55742 -0.184076 0
M  V30 20526 H 1884.99 7.36253 -1.71662 0
M  V30 20527 H 1886.26 7.77186 -0.60012 0
M  V30 20528 N 1890.49 0.862526 1.31902 0
M  V30 20529 C 1891.42 0.328423 2.31179 0
M  V30 20530 C 1892.4 -0.57668 1.60026 0
M  V30 20531 O 1893.59 -0.49527 1.87778 0
M  V30 20532 C 1890.72 -0.47734 3.44004 0
M  V30 20533 C 1889.67 0.334015 4.26695 0
M  V30 20534 C 1889 -0.596973 5.31357 0
M  V30 20535 C 1890.3 1.56405 4.98332 0
M  V30 20536 H 1891.99 1.15797 2.761 0
M  V30 20537 H 1889.54 0.558268 1.32738 0
M  V30 20538 H 1891.49 -0.861461 4.12501 0
M  V30 20539 H 1890.21 -1.34033 2.9783 0
M  V30 20540 H 1888.87 0.699989 3.59855 0
M  V30 20541 H 1888.52 -1.45703 4.81435 0
M  V30 20542 H 1888.22 -0.0580517 5.87571 0
M  V30 20543 H 1889.74 -0.978099 6.02715 0
M  V30 20544 H 1891.16 1.25178 5.59467 0
M  V30 20545 H 1889.55 2.04149 5.64308 0
M  V30 20546 H 1890.62 2.32099 4.25744 0
M  V30 20547 N 1891.97 -1.4484 0.62123 0
M  V30 20548 C 1893.38 -1.57016 0.286009 0
M  V30 20549 C 1893.58 -1.6104 -1.21113 0
M  V30 20550 O 1892.64 -1.54807 -1.99477 0
M  V30 20551 C 1893.95 -2.84652 0.969209 0
M  V30 20552 C 1895.5 -2.98349 0.946414 0
M  V30 20553 C 1895.98 -4.28773 1.60989 0
M  V30 20554 N 1897.47 -4.35564 1.57601 0
M  V30 20555 C 1898.2 -5.3518 2.0584 0
M  V30 20556 N 1897.7 -6.41256 2.62226 0
M  V30 20557 N 1899.49 -5.26625 1.96527 0
M  V30 20558 H 1891.64 -1.40471 1.59316 0
M  V30 20559 H 1893.91 -0.672493 0.668174 0
M  V30 20560 H 1893.61 -2.87629 2.02392 0
M  V30 20561 H 1893.49 -3.7386 0.500859 0
M  V30 20562 H 1895.87 -2.94931 -0.0997935 0
M  V30 20563 H 1895.95 -2.10516 1.45316 0
M  V30 20564 H 1895.6 -4.3295 2.65549 0
M  V30 20565 H 1895.53 -5.15447 1.07805 0
M  V30 20566 H 1898.02 -3.59519 1.16424 0
M  V30 20567 H 1898.33 -7.13536 2.96792 0
M  V30 20568 H 1896.68 -6.41969 2.66272 0
M  V30 20569 H 1899.87 -4.42664 1.52206 0
M  V30 20570 H 1900.04 -6.04107 2.34434 0
M  V30 20571 N 1893.45 -0.361184 -1.53405 0
M  V30 20572 C 1894.38 0.479368 -2.28526 0
M  V30 20573 C 1895.36 1.08768 -1.3078 0
M  V30 20574 O 1896.54 1.10576 -1.59645 0
M  V30 20575 C 1893.67 1.6215 -3.07123 0
M  V30 20576 C 1892.63 1.14065 -4.12521 0
M  V30 20577 C 1891.95 2.37267 -4.79175 0
M  V30 20578 C 1893.25 0.228522 -5.218 0
M  V30 20579 H 1894.95 -0.147344 -2.99037 0
M  V30 20580 H 1892.49 -0.0723051 -1.43818 0
M  V30 20581 H 1894.45 2.21612 -3.58422 0
M  V30 20582 H 1893.17 2.27538 -2.34295 0
M  V30 20583 H 1891.83 0.568735 -3.62162 0
M  V30 20584 H 1891.48 3.01102 -4.02923 0
M  V30 20585 H 1891.18 2.05768 -5.50394 0
M  V30 20586 H 1892.7 2.97424 -5.33265 0
M  V30 20587 H 1894.11 0.730497 -5.68627 0
M  V30 20588 H 1892.51 0.00460259 -6.001 0
M  V30 20589 H 1893.58 -0.730537 -4.79365 0
M  V30 20590 N 1894.92 1.57341 -0.0902386 0
M  V30 20591 C 1896.17 1.93793 0.573474 0
M  V30 20592 C 1896.49 0.972444 1.69022 0
M  V30 20593 O 1895.76 0.0236753 1.95886 0
M  V30 20594 H 1894.34 0.715442 0.21483 0
M  V30 20595 H 1897.01 1.94303 -0.15243 0
M  V30 20596 H 1896.1 2.96088 0.986829 0
M  V30 20597 N 1896.4 -0.183431 1.56529 0
M  V30 20598 C 1897.64 -0.908628 1.83094 0
M  V30 20599 C 1898.01 -1.79952 0.669429 0
M  V30 20600 O 1899.21 -2.56139 0.81524 0
M  V30 20601 C 1897.48 -1.69353 3.14729 0
M  V30 20602 S 1899.04 -2.46915 3.62737 0
M  V30 20603 H 1895.86 -0.304549 0.642472 0
M  V30 20604 H 1898.46 -0.171145 1.94749 0
M  V30 20605 H 1897.16 -1.02987 3.97268 0
M  V30 20606 H 1896.69 -2.47261 3.05983 0
M  V30 20607 H 1898.71 -3.71359 3.29101 0
M  V30 20608 N 1897.88 -1.50992 -0.451564 0
M  V30 20609 C 1898.83 -1.71831 -1.5677 0
M  V30 20610 C 1899.82 -0.584366 -1.59002 0
M  V30 20611 O 1901.03 -0.765385 -1.62917 0
M  V30 20612 H 1897.4 -0.542689 -0.52057 0
M  V30 20613 H 1899.37 -2.6542 -1.36363 0
M  V30 20614 C 1898.12 -1.84752 -2.94554 0
M  V30 20615 H 1897.45 -2.71405 -2.93563 0
M  V30 20616 H 1898.89 -2.0335 -3.72055 0
M  V30 20617 C 1897.35 -0.603808 -3.31445 0
M  V30 20618 O 1897.88 0.248099 -4.00933 0
M  V30 20619 N 1896.08 -0.452069 -2.87062 0
M  V30 20620 H 1895.63 -1.14638 -2.30686 0
M  V30 20621 H 1895.59 0.378877 -3.12109 0
M  V30 20622 N 1899.36 0.706069 -1.40899 0
M  V30 20623 C 1900.6 1.46693 -1.40899 0
M  V30 20624 C 1900.96 1.92395 -0.0139578 0
M  V30 20625 O 1900.25 1.65916 0.958243 0
M  V30 20626 C 1900.45 2.70045 -2.34116 0
M  V30 20627 C 1900.28 2.36409 -3.82545 0
M  V30 20628 C 1899.05 2.27284 -4.51298 0
M  V30 20629 C 1901.24 2.00061 -4.73793 0
M  V30 20630 N 1899.23 1.86423 -5.8491 0
M  V30 20631 C 1900.6 1.69875 -5.96274 0
M  V30 20632 C 1902.65 1.86779 -4.61539 0
M  V30 20633 C 1901.35 1.27744 -7.07866 0
M  V30 20634 C 1903.38 1.46052 -5.73082 0
M  V30 20635 C 1902.74 1.1677 -6.94654 0
M  V30 20636 H 1898.84 0.534494 -0.570824 0
M  V30 20637 H 1901.43 0.81791 -1.76687 0
M  V30 20638 H 1899.6 3.32683 -2.00441 0
M  V30 20639 H 1901.33 3.36449 -2.24909 0
M  V30 20640 H 1898.08 2.45337 -4.05101 0
M  V30 20641 H 1898.51 1.68504 -6.55695 0
M  V30 20642 H 1903.15 2.08075 -3.68055 0
M  V30 20643 H 1900.87 1.05191 -8.01224 0
M  V30 20644 H 1904.45 1.3634 -5.65599 0
M  V30 20645 H 1903.33 0.857309 -7.795 0
M  V30 20646 N 1900.84 1.26553 0.939264 0
M  V30 20647 C 1901.77 1.04069 2.04211 0
M  V30 20648 C 1902.78 0.000506291 1.628 0
M  V30 20649 O 1903.97 0.240794 1.76868 0
M  V30 20650 C 1901.07 0.554348 3.34335 0
M  V30 20651 C 1900.24 1.6642 4.04503 0
M  V30 20652 C 1899.3 1.17558 5.129 0
M  V30 20653 O 1898.33 1.87303 5.375 0
M  V30 20654 N 1899.53 0.0250252 5.80495 0
M  V30 20655 H 1902.3 1.99036 2.24065 0
M  V30 20656 H 1899.86 1.17964 1.10888 0
M  V30 20657 H 1901.85 0.211606 4.04146 0
M  V30 20658 H 1900.42 -0.301779 3.1114 0
M  V30 20659 H 1899.64 2.17779 3.28582 0
M  V30 20660 H 1900.93 2.4094 4.48136 0
M  V30 20661 H 1900.32 -0.557378 5.62947 0
M  V30 20662 H 1898.88 -0.258625 6.51287 0
M  V30 20663 N 1902.31 -1.14411 1.08387 0
M  V30 20664 C 1903.56 -1.85444 0.813433 0
M  V30 20665 C 1903.89 -1.82932 -0.66078 0
M  V30 20666 O 1903.14 -1.25498 -1.50162 0
M  V30 20667 C 1903.44 -3.33681 1.2803 0
M  V30 20668 C 1903.11 -3.56382 2.76229 0
M  V30 20669 C 1901.77 -3.62286 3.16705 0
M  V30 20670 C 1904.12 -3.65224 3.71835 0
M  V30 20671 C 1901.45 -3.74554 4.51582 0
M  V30 20672 C 1903.8 -3.79017 5.06487 0
M  V30 20673 C 1902.47 -3.8317 5.46568 0
M  V30 20674 H 1901.74 -0.678588 0.297656 0
M  V30 20675 H 1904.38 -1.35144 1.35677 0
M  V30 20676 H 1902.69 -3.8626 0.656551 0
M  V30 20677 H 1904.39 -3.87068 1.04781 0
M  V30 20678 H 1900.98 -3.52435 2.43901 0
M  V30 20679 H 1905.16 -3.59952 3.41684 0
M  V30 20680 H 1900.42 -3.76032 4.82089 0
M  V30 20681 H 1904.59 -3.84801 5.80432 0
M  V30 20682 H 1902.22 -3.92429 6.51079 0
M  V30 20683 N 1903.79 -0.869509 -1.31443 0
M  V30 20684 C 1905.04 -0.476357 -1.95994 0
M  V30 20685 C 1905.35 0.976268 -1.69494 0
M  V30 20686 O 1906.56 1.47555 -2.27903 0
M  V30 20687 C 1905.02 -0.800938 -3.50875 0
M  V30 20688 C 1904.62 -2.27029 -3.86215 0
M  V30 20689 C 1906.37 -0.476234 -4.2182 0
M  V30 20690 C 1904.28 -2.53731 -5.34205 0
M  V30 20691 H 1903.21 -0.174407 -0.733552 0
M  V30 20692 H 1905.86 -1.06235 -1.49621 0
M  V30 20693 H 1904.24 -0.144206 -3.95737 0
M  V30 20694 H 1905.41 -2.97005 -3.52313 0
M  V30 20695 H 1903.73 -2.56098 -3.28333 0
M  V30 20696 H 1906.32 -0.652965 -5.30698 0
M  V30 20697 H 1906.67 0.583294 -4.12193 0
M  V30 20698 H 1907.2 -1.08949 -3.8259 0
M  V30 20699 H 1903.94 -3.58365 -5.48867 0
M  V30 20700 H 1903.46 -1.88349 -5.6946 0
M  V30 20701 H 1905.14 -2.38437 -6.01462 0
M  V30 20702 N 1905.27 1.44508 -0.628902 0
M  V30 20703 C 1906.68 1.85457 -0.215122 0
M  V30 20704 C 1907.03 1.52619 1.23296 0
M  V30 20705 O 1906.16 0.963178 1.93783 0
M  V30 20706 C 1906.75 3.36621 -0.383645 0
M  V30 20707 C 1905.31 3.76392 -0.0243904 0
M  V30 20708 C 1904.46 2.68369 -0.698081 0
M  V30 20709 H 1907.41 1.35006 -0.834208 0
M  V30 20710 H 1907.43 3.78617 0.378049 0
M  V30 20711 H 1906.94 3.6049 -1.43767 0
M  V30 20712 H 1905.04 3.58139 1.02798 0
M  V30 20713 H 1905.16 4.7714 -0.432898 0
M  V30 20714 H 1903.52 2.54349 -0.133605 0
M  V30 20715 H 1904.3 2.95071 -1.75465 0
M  V30 20716 N 1906.75 0.369315 1.53212 0
M  V30 20717 C 1908 -0.219533 2.01608 0
M  V30 20718 C 1908.33 -1.48115 1.25601 0
M  V30 20719 O 1907.6 -1.91311 0.350762 0
M  V30 20720 C 1907.89 -0.507713 3.56503 0
M  V30 20721 C 1907.74 0.767792 4.43199 0
M  V30 20722 C 1909.06 -1.30674 4.20253 0
M  V30 20723 H 1906.18 -0.0783156 0.732827 0
M  V30 20724 H 1908.82 0.494943 1.8344 0
M  V30 20725 H 1906.97 -1.11637 3.72115 0
M  V30 20726 H 1908.64 1.4052 4.39377 0
M  V30 20727 H 1906.88 1.38737 4.11017 0
M  V30 20728 H 1907.56 0.521063 5.49535 0
M  V30 20729 H 1910.03 -0.791822 4.08497 0
M  V30 20730 H 1908.91 -1.47712 5.28652 0
M  V30 20731 H 1909.17 -2.31631 3.76562 0
M  V30 20732 N 1908.23 -1.57291 0.0985816 0
M  V30 20733 C 1909.5 -1.85951 -0.606759 0
M  V30 20734 C 1909.88 -0.996077 -1.86122 0
M  V30 20735 O 1909.23 -0.0694281 -2.28394 0
M  V30 20736 C 1909.44 -3.36688 -0.918803 0
M  V30 20737 C 1910.79 -4.04824 -1.28074 0
M  V30 20738 O 1911.81 -3.41589 -1.00971 0
M  V30 20739 O 1910.67 -5.16406 -1.7885 0
M  V30 20740 H 1907.77 -0.769103 -0.30399 0
M  V30 20741 H 1910.31 -1.69189 0.131543 0
M  V30 20742 H 1909.09 -3.91289 -0.0289848 0
M  V30 20743 H 1908.71 -3.58808 -1.71296 0
M  V30 20744 N 1909.71 0.175127 -1.56624 0
M  V30 20745 C 1910.62 1.23691 -1.99343 0
M  V30 20746 C 1911.63 1.48662 -0.904197 0
M  V30 20747 O 1912.81 1.60885 -1.21153 0
M  V30 20748 C 1909.87 2.55689 -2.34145 0
M  V30 20749 C 1908.93 2.38614 -3.56878 0
M  V30 20750 C 1908.17 3.64318 -3.9001 0
M  V30 20751 O 1908.39 4.69335 -3.24162 0
M  V30 20752 O 1907.32 3.58655 -4.83373 0
M  V30 20753 H 1911.15 0.904314 -2.89924 0
M  V30 20754 H 1908.73 0.381697 -1.44442 0
M  V30 20755 H 1910.62 3.33562 -2.57516 0
M  V30 20756 H 1909.29 2.88535 -1.46728 0
M  V30 20757 H 1908.2 1.58786 -3.3873 0
M  V30 20758 H 1909.53 2.10694 -4.44825 0
M  V30 20759 N 1911.18 1.5123 0.44355 0
M  V30 20760 C 1912.43 1.63267 1.19114 0
M  V30 20761 C 1912.75 0.348151 1.91867 0
M  V30 20762 O 1912.02 -0.635724 1.85298 0
M  V30 20763 H 1910.6 0.601701 0.442679 0
M  V30 20764 H 1913.26 1.88132 0.509134 0
M  V30 20765 H 1912.36 2.45732 1.92411 0
M  V30 20766 N 1912.66 -0.698586 1.41271 0
M  V30 20767 C 1913.91 -1.45944 1.41675 0
M  V30 20768 C 1914.26 -1.92385 0.0241608 0
M  V30 20769 O 1913.56 -1.66422 -0.949431 0
M  V30 20770 C 1913.75 -2.688 2.35545 0
M  V30 20771 C 1913.58 -2.34377 3.83794 0
M  V30 20772 C 1912.35 -2.24888 4.52497 0
M  V30 20773 C 1914.55 -1.97545 4.74848 0
M  V30 20774 N 1912.53 -1.83318 5.8589 0
M  V30 20775 C 1913.9 -1.66711 5.97166 0
M  V30 20776 C 1915.95 -1.84329 4.62523 0
M  V30 20777 C 1914.66 -1.23988 7.08533 0
M  V30 20778 C 1916.68 -1.43011 5.73848 0
M  V30 20779 C 1916.05 -1.13085 6.95263 0
M  V30 20780 H 1912.14 -0.531459 0.573651 0
M  V30 20781 H 1914.73 -0.808529 1.77118 0
M  V30 20782 H 1912.9 -3.31615 2.02202 0
M  V30 20783 H 1914.63 -3.35252 2.2669 0
M  V30 20784 H 1911.39 -2.43185 4.06396 0
M  V30 20785 H 1911.81 -1.65024 6.56579 0
M  V30 20786 H 1916.45 -2.0612 3.69153 0
M  V30 20787 H 1914.17 -1.00941 8.01771 0
M  V30 20788 H 1917.76 -1.33339 5.66314 0
M  V30 20789 H 1916.64 -0.815958 7.79943 0
M  V30 20790 N 1914.14 -1.27049 -0.93254 0
M  V30 20791 C 1915.37 -1.15903 -1.71389 0
M  V30 20792 C 1915.78 0.284726 -1.86641 0
M  V30 20793 O 1915.14 1.19428 -1.37997 0
M  V30 20794 C 1915.19 -1.83254 -3.11609 0
M  V30 20795 O 1914.91 -3.21988 -2.97078 0
M  V30 20796 C 1916.41 -1.78172 -4.05918 0
M  V30 20797 H 1913.63 -0.403197 -0.536352 0
M  V30 20798 H 1916.18 -1.67831 -1.16846 0
M  V30 20799 H 1914.33 -1.35243 -3.63026 0
M  V30 20800 H 1914.75 -3.55447 -3.85691 0
M  V30 20801 H 1916.22 -2.29919 -5.01838 0
M  V30 20802 H 1916.7 -0.750036 -4.32748 0
M  V30 20803 H 1917.3 -2.25774 -3.60425 0
M  V30 20804 N 1915.62 1.13835 -1.08993 0
M  V30 20805 C 1916.53 2.22715 -0.73724 0
M  V30 20806 C 1917.54 1.72064 0.258869 0
M  V30 20807 O 1918.72 2.01145 0.101321 0
M  V30 20808 C 1915.78 3.46338 -0.158285 0
M  V30 20809 C 1914.85 4.11902 -1.20977 0
M  V30 20810 C 1914.08 5.29624 -0.658349 0
M  V30 20811 O 1914.3 5.68023 0.520219 0
M  V30 20812 O 1913.24 5.85121 -1.41126 0
M  V30 20813 H 1917.06 2.55247 -1.64568 0
M  V30 20814 H 1914.65 1.21882 -0.864013 0
M  V30 20815 H 1916.53 4.2109 0.161481 0
M  V30 20816 H 1915.2 3.15517 0.723235 0
M  V30 20817 H 1914.11 3.38996 -1.58216 0
M  V30 20818 H 1915.44 4.46843 -2.06378 0
M  V30 20819 O 1917.13 1.0098 1.26037 0
M  V30 20820 H 1917.83 0.666861 1.81859 0
M  V30 END ATOM
M  V30 BEGIN BOND
M  V30 END BOND
M  V30 END CTAB
M  END
$$$$
