drugbank_target|Q66282 Genome polyprotein (DB08231)
 OpenBabel12092120483D

  0  0  0     0  0            999 V3000
M  V30 BEGIN CTAB
M  V30 COUNTS 34009 34430 0 0 0
M  V30 BEGIN ATOM
M  V30 1 H -0.908 1.98254 -0.117106 0
M  V30 2 N 0 1.576 0 0
M  V30 3 C 0.933 2.03868 1.02534 0
M  V30 4 C 1.911 0.928543 1.3348 0
M  V30 5 O 3.095 1.19667 1.45644 0
M  V30 6 C 0.222 2.43627 2.35294 0
M  V30 7 C -0.732 3.65373 2.2001 0
M  V30 8 S 0.101 5.13292 1.52614 0
M  V30 9 C 1.257 5.56322 2.86805 0
M  V30 10 H 1.49 2.90518 0.631377 0
M  V30 11 H -0.977 1.52953 0.210867 0
M  V30 12 H 0.981 2.67203 3.11629 0
M  V30 13 H -0.358 1.57376 2.7183 0
M  V30 14 H -1.165 3.90944 3.18086 0
M  V30 15 H -1.563 3.418 1.51819 0
M  V30 16 H 0.729 5.58782 3.83104 0
M  V30 17 H 1.672 6.56266 2.65933 0
M  V30 18 H 2.08 4.83886 2.90714 0
M  V30 19 N 1.4781 -0.272755 1.55222 0
M  V30 20 C 2.7261 -1.00234 1.75492 0
M  V30 21 C 3.0471 -1.8681 0.5592 0
M  V30 22 O 2.3171 -1.91215 -0.425882 0
M  V30 23 H 0.8971 -0.373076 0.647166 0
M  V30 24 H 3.5591 -0.296926 1.92625 0
M  V30 25 H 2.6551 -1.63913 2.65592 0
M  V30 26 N 2.9562 -1.48159 -0.537278 0
M  V30 27 C 3.9192 -1.61665 -1.62472 0
M  V30 28 C 4.9192 -0.490395 -1.5314 0
M  V30 29 O 6.1092 -0.755998 -1.5694 0
M  V30 30 C 3.2412 -1.57997 -3.02076 0
M  V30 31 H 4.4342 -2.58621 -1.51839 0
M  V30 32 H 1.9872 -1.36647 -0.758771 0
M  V30 33 H 2.7222 -0.624913 -3.18222 0
M  V30 34 H 2.5072 -2.39755 -3.10258 0
M  V30 35 H 3.9972 -1.70627 -3.81151 0
M  V30 36 N 4.4343 0.785586 -1.36625 0
M  V30 37 C 5.3663 1.90711 -1.2713 0
M  V30 38 C 6.3793 1.61688 -0.189986 0
M  V30 39 O 7.5683 1.72864 -0.445014 0
M  V30 40 C 4.6683 3.25611 -0.939713 0
M  V30 41 C 3.8413 3.82385 -2.12369 0
M  V30 42 C 2.9003 4.95732 -1.76456 0
M  V30 43 O 1.9263 5.12047 -2.48589 0
M  V30 44 N 3.1283 5.76258 -0.700492 0
M  V30 45 H 5.8933 1.99376 -2.23762 0
M  V30 46 H 3.4543 0.964041 -1.30069 0
M  V30 47 H 5.4463 3.98937 -0.680554 0
M  V30 48 H 4.0163 3.12538 -0.0624074 0
M  V30 49 H 3.2363 3.01001 -2.54543 0
M  V30 50 H 4.5243 4.17047 -2.9146 0
M  V30 51 H 3.9223 5.65609 -0.101624 0
M  V30 52 H 2.4793 6.4987 -0.501165 0
M  V30 53 N 5.9124 1.20967 1.01018 0
M  V30 54 C 7.1584 1.02526 1.74975 0
M  V30 55 C 7.4914 -0.4408 1.89131 0
M  V30 56 O 6.7664 -1.32718 1.42184 0
M  V30 57 C 7.0494 1.71699 3.1653 0
M  V30 58 C 6.9024 3.25791 3.10129 0
M  V30 59 C 8.2214 1.45531 4.15342 0
M  V30 60 H 5.3404 0.373863 0.635134 0
M  V30 61 H 7.9824 1.49071 1.17805 0
M  V30 62 H 6.1324 1.32128 3.65341 0
M  V30 63 H 7.8044 3.74697 2.69072 0
M  V30 64 H 6.0474 3.56363 2.47362 0
M  V30 65 H 6.7184 3.69353 4.10222 0
M  V30 66 H 9.1944 1.79872 3.75213 0
M  V30 67 H 8.0704 1.96453 5.1254 0
M  V30 68 H 8.3314 0.384237 4.40427 0
M  V30 69 N 7.3905 -1.2043 1.01659 0
M  V30 70 C 8.6155 -1.94318 0.724942 0
M  V30 71 C 9.0405 -1.74266 -0.708034 0
M  V30 72 O 8.3985 -1.03694 -1.48719 0
M  V30 73 C 8.4465 -3.44486 1.06591 0
M  V30 74 O 7.5505 -4.12017 0.177599 0
M  V30 75 H 6.8915 -0.60708 0.26898 0
M  V30 76 H 9.4215 -1.52861 1.35995 0
M  V30 77 H 9.4315 -3.95106 1.01762 0
M  V30 78 H 8.1065 -3.58404 2.10997 0
M  V30 79 H 6.6835 -3.71821 0.283421 0
M  V30 80 N 8.8686 -0.792821 -1.36206 0
M  V30 81 C 10.0966 -0.378825 -2.03402 0
M  V30 82 C 10.5116 1.00586 -1.59774 0
M  V30 83 O 9.8686 1.64574 -0.788764 0
M  V30 84 C 9.9196 -0.43683 -3.58851 0
M  V30 85 O 9.6406 -1.76691 -4.00889 0
M  V30 86 C 11.1416 -0.0138943 -4.43298 0
M  V30 87 H 8.3616 -0.155673 -0.652692 0
M  V30 88 H 10.9056 -1.07261 -1.74113 0
M  V30 89 H 9.0606 0.208575 -3.86838 0
M  V30 90 H 9.4746 -1.72011 -4.95492 0
M  V30 91 H 10.9486 -0.105615 -5.51899 0
M  V30 92 H 11.4256 1.03915 -4.2673 0
M  V30 93 H 12.0316 -0.63192 -4.20579 0
M  V30 94 N 10.3467 1.47872 -0.545128 0
M  V30 95 C 11.2787 2.27869 0.246621 0
M  V30 96 C 12.2917 1.36282 0.890561 0
M  V30 97 O 13.4807 1.61207 0.766449 0
M  V30 98 C 10.5807 3.10159 1.36582 0
M  V30 99 C 9.7537 4.29627 0.820954 0
M  V30 100 C 8.8127 4.93607 1.82314 0
M  V30 101 O 7.8387 5.52366 1.37406 0
M  V30 102 N 9.0407 4.87211 3.15603 0
M  V30 103 H 11.8057 2.96459 -0.439539 0
M  V30 104 H 9.3667 1.57367 -0.380421 0
M  V30 105 H 11.3587 3.49829 2.03474 0
M  V30 106 H 9.9287 2.43891 1.9554 0
M  V30 107 H 9.1487 3.94192 -0.0244032 0
M  V30 108 H 10.4367 5.06928 0.436063 0
M  V30 109 H 9.8347 4.40651 3.54744 0
M  V30 110 H 8.3917 5.30937 3.78087 0
M  V30 111 N 11.8248 0.280983 1.55075 0
M  V30 112 C 12.7718 -0.603937 2.22758 0
M  V30 113 C 13.7418 -1.1452 1.20309 0
M  V30 114 O 14.9268 -1.19343 1.48869 0
M  V30 115 C 12.0668 -1.77947 2.95684 0
M  V30 116 C 11.1798 -1.2715 4.12864 0
M  V30 117 C 10.3148 -2.4093 4.7342 0
M  V30 118 C 9.3538 -1.87165 5.82783 0
M  V30 119 N 8.4908 -2.94441 6.37377 0
M  V30 120 H 13.3308 -0.020124 2.97993 0
M  V30 121 H 10.8678 0.00183425 1.471 0
M  V30 122 H 12.8258 -2.47055 3.36184 0
M  V30 123 H 11.4558 -2.33522 2.22861 0
M  V30 124 H 10.5078 -0.473331 3.77444 0
M  V30 125 H 11.8198 -0.837751 4.91715 0
M  V30 126 H 10.9738 -3.18021 5.1667 0
M  V30 127 H 9.7128 -2.87623 3.93859 0
M  V30 128 H 8.7178 -1.08556 5.38976 0
M  V30 129 H 9.9428 -1.41401 6.64216 0
M  V30 130 H 7.8888 -3.40505 5.60707 0
M  V30 131 H 7.8058 -2.55501 7.11516 0
M  V30 132 H 9.0738 -3.71489 6.85285 0
M  V30 133 N 13.3029 -1.57598 0.00835791 0
M  V30 134 C 14.5309 -1.95214 -0.68549 0
M  V30 135 C 14.9459 -0.883706 -1.66841 0
M  V30 136 O 14.3029 0.136565 -1.81988 0
M  V30 137 C 14.3539 -3.32865 -1.41007 0
M  V30 138 O 14.0749 -4.35609 -0.466552 0
M  V30 139 C 15.5759 -3.84991 -2.19765 0
M  V30 140 H 12.7959 -0.643422 -0.190392 0
M  V30 141 H 15.3399 -2.04406 0.0619607 0
M  V30 142 H 13.4949 -3.24956 -2.10908 0
M  V30 143 H 13.9089 -5.15288 -0.978699 0
M  V30 144 H 15.3829 -4.8371 -2.65948 0
M  V30 145 H 15.8599 -3.18137 -3.02796 0
M  V30 146 H 16.4659 -3.96103 -1.54864 0
M  V30 147 N 14.781 0.264519 -1.55364 0
M  V30 148 C 16.029 0.993021 -1.76021 0
M  V30 149 C 16.35 1.86511 -0.569099 0
M  V30 150 O 15.62 1.91438 0.415735 0
M  V30 151 H 14.2 0.369639 -0.649135 0
M  V30 152 H 16.862 0.286707 -1.9278 0
M  V30 153 H 15.958 1.62502 -2.66457 0
M  V30 154 N 16.2591 1.48442 0.529413 0
M  V30 155 C 17.2221 1.62524 1.61612 0
M  V30 156 C 18.2221 0.498509 1.52877 0
M  V30 157 O 19.4121 0.76431 1.56537 0
M  V30 158 C 16.5441 1.59597 3.01233 0
M  V30 159 H 17.7371 2.59423 1.50465 0
M  V30 160 H 15.2901 1.37047 0.751514 0
M  V30 161 H 16.0251 0.641781 3.17886 0
M  V30 162 H 15.8101 2.41397 3.08982 0
M  V30 163 H 17.3001 1.72646 3.80241 0
M  V30 164 N 17.7372 -0.778329 1.37039 0
M  V30 165 C 18.6872 -1.88142 1.28789 0
M  V30 166 C 19.6712 -1.59923 0.177063 0
M  V30 167 O 20.8632 -1.72165 0.410873 0
M  V30 168 C 17.9922 -3.25518 1.09055 0
M  V30 169 C 17.0782 -3.5971 2.24654 0
M  V30 170 N 17.4692 -3.65131 3.50018 0
M  V30 171 C 15.7672 -3.89837 2.16663 0
M  V30 172 C 16.4682 -3.95882 4.26207 0
M  V30 173 N 15.4442 -4.11441 3.55271 0
M  V30 174 H 19.2462 -1.90575 2.23737 0
M  V30 175 H 16.7602 -0.974435 1.29917 0
M  V30 176 H 18.7572 -4.04423 1.0123 0
M  V30 177 H 17.4172 -3.24353 0.15018 0
M  V30 178 H 18.4282 -3.475 3.84011 0
M  V30 179 H 15.1052 -3.96533 1.30645 0
M  V30 180 H 16.4952 -4.06907 5.34674 0
M  V30 181 N 19.2153 -1.21501 -1.00376 0
M  V30 182 C 20.1253 -0.991447 -2.12621 0
M  V30 183 C 21.1413 0.0568446 -1.73907 0
M  V30 184 O 22.3173 -0.13348 -2.00957 0
M  V30 185 C 19.3823 -0.560312 -3.42142 0
M  V30 186 C 18.4433 -1.68096 -3.95022 0
M  V30 187 C 17.6763 -1.2703 -5.18362 0
M  V30 188 O 17.8993 -0.144438 -5.70217 0
M  V30 189 O 16.8333 -2.08269 -5.64719 0
M  V30 190 H 20.6593 -1.93158 -2.34358 0
M  V30 191 H 18.2443 -0.999999 -1.10997 0
M  V30 192 H 20.1263 -0.329724 -4.20108 0
M  V30 193 H 18.8013 0.351089 -3.2179 0
M  V30 194 H 17.7083 -1.96597 -3.18278 0
M  V30 195 H 19.0413 -2.56983 -4.19786 0
M  V30 196 N 20.6934 1.19889 -1.02296 0
M  V30 197 C 21.9214 1.9339 -0.735399 0
M  V30 198 C 22.3364 1.75148 0.704887 0
M  V30 199 O 21.6934 1.06954 1.47875 0
M  V30 200 C 21.7444 3.45313 -1.06962 0
M  V30 201 O 21.4654 3.62964 -2.45334 0
M  V30 202 C 22.9664 4.35948 -0.804021 0
M  V30 203 H 20.1864 0.61448 -0.269546 0
M  V30 204 H 22.7304 1.522 -1.36585 0
M  V30 205 H 20.8854 3.84359 -0.484455 0
M  V30 206 H 21.2994 4.56886 -2.57595 0
M  V30 207 H 22.7734 5.41174 -1.0879 0
M  V30 208 H 23.2504 4.3842 0.261691 0
M  V30 209 H 23.8564 4.02574 -1.37164 0
M  V30 210 N 22.1715 0.800033 1.35784 0
M  V30 211 C 23.4195 0.376597 1.9856 0
M  V30 212 C 23.7405 -1.05812 1.63795 0
M  V30 213 O 23.0105 -1.73103 0.917171 0
M  V30 214 H 21.5905 0.136261 0.734467 0
M  V30 215 H 24.2525 1.02442 1.65806 0
M  V30 216 H 23.3485 0.477002 3.08433 0
M  V30 217 N 23.6496 -1.47581 0.552962 0
M  V30 218 C 24.5796 -2.32762 -0.185451 0
M  V30 219 C 25.5606 -1.43527 -0.912905 0
M  V30 220 O 26.7456 -1.72388 -0.894201 0
M  V30 221 C 23.8756 -3.25219 -1.21859 0
M  V30 222 C 22.8296 -4.23661 -0.607864 0
M  V30 223 C 22.1556 -5.05413 -1.74533 0
M  V30 224 C 23.4556 -5.20481 0.435582 0
M  V30 225 H 25.1496 -2.94749 0.525684 0
M  V30 226 H 22.6956 -1.41738 0.254251 0
M  V30 227 H 24.6486 -3.8365 -1.7433 0
M  V30 228 H 23.3726 -2.61279 -1.95961 0
M  V30 229 H 22.0316 -3.66451 -0.104489 0
M  V30 230 H 21.6796 -4.3788 -2.47529 0
M  V30 231 H 21.3796 -5.72059 -1.34249 0
M  V30 232 H 22.9036 -5.66701 -2.27338 0
M  V30 233 H 24.3176 -5.733 -0.00290157 0
M  V30 234 H 22.7146 -5.95305 0.757067 0
M  V30 235 H 23.7846 -4.66217 1.33303 0
M  V30 236 N 25.1277 -0.289203 -1.54924 0
M  V30 237 C 26.0757 0.607966 -2.24514 0
M  V30 238 C 27.0697 1.14655 -1.24702 0
M  V30 239 O 28.2757 1.09856 -1.4259 0
M  V30 240 H 24.6507 0.21464 -0.720718 0
M  V30 241 H 26.6217 -0.00164182 -2.984 0
M  V30 242 C 25.3707 1.77406 -2.99036 0
M  V30 243 H 24.6937 1.36884 -3.75637 0
M  V30 244 H 26.1337 2.37814 -3.51028 0
M  V30 245 C 24.5927 2.67107 -2.05318 0
M  V30 246 O 25.1227 3.6787 -1.61353 0
M  V30 247 N 23.3287 2.34582 -1.71521 0
M  V30 248 H 22.8757 1.52688 -2.07471 0
M  V30 249 H 22.8337 2.94867 -1.0909 0
M  V30 250 N 26.6058 1.57591 -0.0167156 0
M  V30 251 C 27.5688 2.08393 0.954204 0
M  V30 252 C 28.5688 0.996531 1.26198 0
M  V30 253 O 29.7588 1.25858 1.20438 0
M  V30 254 C 26.8908 2.5394 2.27436 0
M  V30 255 H 28.0838 2.95455 0.514451 0
M  V30 256 H 25.6368 1.54582 0.231089 0
M  V30 257 H 26.3718 1.70171 2.76066 0
M  V30 258 H 26.1568 3.33371 2.06412 0
M  V30 259 H 27.6468 2.93512 2.97053 0
M  V30 260 N 28.0839 -0.256276 1.55502 0
M  V30 261 C 29.3089 -1.00766 1.81276 0
M  V30 262 C 29.7339 -1.78524 0.59252 0
M  V30 263 O 29.0919 -1.75413 -0.45827 0
M  V30 264 C 29.1399 -1.92869 3.04687 0
M  V30 265 O 28.2439 -3.019 2.80945 0
M  V30 266 H 27.5849 -0.287224 0.598664 0
M  V30 267 H 30.1149 -0.280109 2.02674 0
M  V30 268 H 30.1249 -2.34511 3.33869 0
M  V30 269 H 28.7999 -1.35689 3.93143 0
M  V30 270 H 27.3769 -2.64454 2.62904 0
M  V30 271 N 29.562 -1.4872 -0.521534 0
M  V30 272 C 30.81 -1.56857 -1.27437 0
M  V30 273 C 31.131 -0.247982 -1.93417 0
M  V30 274 O 30.401 0.731151 -1.81744 0
M  V30 275 H 28.981 -0.577885 -0.473347 0
M  V30 276 H 31.643 -1.85233 -0.606205 0
M  V30 277 H 30.739 -2.35402 -2.0492 0
M  V30 278 N 31.0401 0.771051 -1.3745 0
M  V30 279 C 31.9881 1.90574 -1.33358 0
M  V30 280 C 32.9821 1.67936 -0.22224 0
M  V30 281 O 34.1881 1.75717 -0.390304 0
M  V30 282 H 30.5631 0.626714 -0.415612 0
M  V30 283 H 32.5341 1.91142 -2.29144 0
M  V30 284 C 31.2831 3.27845 -1.15813 0
M  V30 285 H 30.6061 3.45842 -2.00583 0
M  V30 286 H 32.0461 4.07538 -1.17 0
M  V30 287 C 30.5051 3.36625 0.136165 0
M  V30 288 O 31.0351 3.85785 1.11949 0
M  V30 289 N 29.2411 2.89997 0.187099 0
M  V30 290 H 28.7881 2.50182 -0.613753 0
M  V30 291 H 28.7461 2.96252 1.05272 0
M  V30 292 N 32.5182 1.22032 0.997298 0
M  V30 293 C 33.7432 1.06921 1.77715 0
M  V30 294 C 34.1682 -0.376226 1.84299 0
M  V30 295 O 33.5262 -1.27165 1.29223 0
M  V30 296 C 33.5742 1.67996 3.19076 0
M  V30 297 O 32.6782 0.930653 4.01762 0
M  V30 298 H 32.0192 0.375814 0.547412 0
M  V30 299 H 34.5492 1.61737 1.25309 0
M  V30 300 H 34.5592 1.72538 3.69723 0
M  V30 301 H 33.2342 2.73182 3.13599 0
M  V30 302 H 31.8112 0.960917 3.60307 0
M  V30 303 N 33.9963 -1.19345 1.0293 0
M  V30 304 C 35.2453 -1.88363 0.721256 0
M  V30 305 C 35.5583 -1.80514 -0.753254 0
M  V30 306 O 36.7643 -2.44788 -1.17436 0
M  V30 307 C 35.2203 -3.37872 1.23978 0
M  V30 308 C 34.8283 -3.54278 2.74211 0
M  V30 309 C 36.5723 -4.12365 1.00775 0
M  V30 310 C 34.4793 -4.97682 3.19479 0
M  V30 311 H 33.4093 -0.705484 0.266098 0
M  V30 312 H 36.0603 -1.34928 1.24365 0
M  V30 313 H 34.4423 -3.90707 0.6453 0
M  V30 314 H 35.6163 -3.11769 3.39318 0
M  V30 315 H 33.9313 -2.93174 2.95699 0
M  V30 316 H 36.5283 -5.18119 1.32123 0
M  V30 317 H 36.8713 -4.16263 -0.0554308 0
M  V30 318 H 37.4043 -3.65668 1.56625 0
M  V30 319 H 34.1433 -4.98945 4.25128 0
M  V30 320 H 33.6633 -5.4095 2.591 0
M  V30 321 H 35.3423 -5.66337 3.12845 0
M  V30 322 N 35.4744 -0.807222 -1.35358 0
M  V30 323 C 36.7234 -0.384376 -1.98004 0
M  V30 324 C 37.0364 1.0543 -1.64754 0
M  V30 325 O 38.2424 1.58029 -2.20769 0
M  V30 326 C 36.6984 -0.636326 -3.5423 0
M  V30 327 C 36.3064 -2.08759 -3.96388 0
M  V30 328 C 38.0504 -0.278869 -4.23583 0
M  V30 329 C 35.9574 -2.28525 -5.45463 0
M  V30 330 H 34.8874 -0.139986 -0.740891 0
M  V30 331 H 37.5384 -0.991369 -1.54415 0
M  V30 332 H 35.9204 0.0406256 -3.95979 0
M  V30 333 H 37.0944 -2.8024 -3.6579 0
M  V30 334 H 35.4094 -2.40497 -3.39926 0
M  V30 335 H 38.0064 -0.404599 -5.33167 0
M  V30 336 H 38.3494 0.775012 -4.09022 0
M  V30 337 H 38.8824 -0.909764 -3.87257 0
M  V30 338 H 35.6214 -3.32361 -5.64992 0
M  V30 339 H 35.1414 -1.61569 -5.77629 0
M  V30 340 H 36.8204 -2.10109 -6.11934 0
M  V30 341 N 36.9525 1.47285 -0.560781 0
M  V30 342 C 37.9025 2.27073 0.205384 0
M  V30 343 C 38.8865 1.34569 0.882044 0
M  V30 344 O 40.0785 1.58899 0.77976 0
M  V30 345 C 37.2075 3.20414 1.23247 0
M  V30 346 C 36.2935 4.20399 0.559041 0
M  V30 347 N 36.6845 5.04423 -0.372927 0
M  V30 348 C 34.9825 4.38536 0.812522 0
M  V30 349 C 35.6835 5.76655 -0.764446 0
M  V30 350 N 34.6595 5.43471 -0.11848 0
M  V30 351 H 38.4615 2.89422 -0.511117 0
M  V30 352 H 35.9755 1.57868 -0.380975 0
M  V30 353 H 37.9725 3.76262 1.79534 0
M  V30 354 H 36.6325 2.59623 1.95002 0
M  V30 355 H 37.6435 5.1248 -0.747287 0
M  V30 356 H 34.3205 3.88913 1.51832 0
M  V30 357 H 35.7105 6.54238 -1.53045 0
M  V30 358 N 38.4306 0.297415 1.54768 0
M  V30 359 C 39.6606 -0.315165 2.04182 0
M  V30 360 C 40.0686 -1.4834 1.17439 0
M  V30 361 O 39.4116 -1.82695 0.191891 0
M  V30 362 C 39.4736 -0.837583 3.49607 0
M  V30 363 C 39.1376 0.204912 4.5654 0
M  V30 364 C 40.1346 1.03214 5.09552 0
M  V30 365 C 37.8196 0.345578 5.0111 0
M  V30 366 C 39.8136 1.986 6.05671 0
M  V30 367 C 37.5006 1.30289 5.97049 0
M  V30 368 C 38.4986 2.12159 6.49213 0
M  V30 369 O 38.1866 3.06268 7.43273 0
M  V30 370 H 37.9186 -0.0729646 0.672051 0
M  V30 371 H 40.4726 0.433907 2.00765 0
M  V30 372 H 38.7026 -1.63712 3.50336 0
M  V30 373 H 40.3916 -1.36566 3.82236 0
M  V30 374 H 41.1576 0.934312 4.75916 0
M  V30 375 H 37.0366 -0.28171 4.60138 0
M  V30 376 H 40.5806 2.62542 6.46311 0
M  V30 377 H 36.4776 1.40145 6.30103 0
M  V30 378 H 37.2456 3.01205 7.61064 0
M  V30 379 N 39.9087 -1.5758 0.0250728 0
M  V30 380 C 41.1367 -1.9593 -0.664747 0
M  V30 381 C 41.5517 -0.901352 -1.65895 0
M  V30 382 O 40.9087 0.117255 -1.82123 0
M  V30 383 C 40.9597 -3.34342 -1.37468 0
M  V30 384 O 40.6807 -4.36079 -0.420324 0
M  V30 385 C 42.1817 -3.873 -2.1567 0
M  V30 386 H 39.4017 -0.645405 -0.183557 0
M  V30 387 H 41.9457 -2.04329 0.0836372 0
M  V30 388 H 40.1007 -3.27175 -2.0745 0
M  V30 389 H 40.5147 -5.16297 -0.923991 0
M  V30 390 H 41.9887 -4.86504 -2.60803 0
M  V30 391 H 42.4657 -3.21331 -2.99405 0
M  V30 392 H 43.0717 -3.97723 -1.50654 0
M  V30 393 N 41.3868 0.248026 -1.55636 0
M  V30 394 C 42.3348 1.32683 -1.91045 0
M  V30 395 C 43.3288 1.49883 -0.789401 0
M  V30 396 O 44.5348 1.51371 -0.974007 0
M  V30 397 H 40.9098 0.444272 -0.606734 0
M  V30 398 H 42.8808 1.00085 -2.81115 0
M  V30 399 C 41.6298 2.6755 -2.22064 0
M  V30 400 H 40.9528 2.55114 -3.07826 0
M  V30 401 H 42.3928 3.41912 -2.50743 0
M  V30 402 C 40.8518 3.20556 -1.0366 0
M  V30 403 O 41.3818 4.00695 -0.284016 0
M  V30 404 N 39.5878 2.78568 -0.82753 0
M  V30 405 H 39.1348 2.1351 -1.44123 0
M  V30 406 H 39.0928 3.14378 -0.0369803 0
M  V30 407 N 42.8649 1.48995 0.513639 0
M  V30 408 C 44.1139 1.57093 1.2651 0
M  V30 409 C 44.4269 0.257091 1.93903 0
M  V30 410 O 45.6329 0.216478 2.70636 0
M  V30 411 C 44.0889 2.77118 2.29638 0
M  V30 412 C 43.6969 4.15209 1.68241 0
M  V30 413 C 45.4409 2.94538 3.05692 0
M  V30 414 C 43.3479 5.26474 2.69406 0
M  V30 415 H 42.2779 0.584876 0.475854 0
M  V30 416 H 44.9289 1.7536 0.540487 0
M  V30 417 H 43.3109 2.52319 3.05207 0
M  V30 418 H 44.4849 4.50094 0.987505 0
M  V30 419 H 42.7999 4.03042 1.04623 0
M  V30 420 H 45.3969 3.74832 3.8132 0
M  V30 421 H 45.7399 2.04614 3.62545 0
M  V30 422 H 46.2729 3.19316 2.37238 0
M  V30 423 H 43.0119 6.18417 2.17351 0
M  V30 424 H 42.5319 4.96058 3.37175 0
M  V30 425 H 44.2109 5.55277 3.32078 0
M  V30 426 N 44.343 -0.763751 1.37857 0
M  V30 427 C 45.291 -1.89864 1.34367 0
M  V30 428 C 46.285 -1.67816 0.231143 0
M  V30 429 O 47.491 -1.75508 0.399617 0
M  V30 430 H 43.866 -0.624501 0.41893 0
M  V30 431 H 45.837 -1.89925 2.30155 0
M  V30 432 C 44.586 -3.27227 1.1755 0
M  V30 433 H 43.909 -3.44773 2.02414 0
M  V30 434 H 45.349 -4.06911 1.1916 0
M  V30 435 C 43.808 -3.36692 -0.118311 0
M  V30 436 O 44.338 -3.86374 -1.09902 0
M  V30 437 N 42.544 -2.90092 -0.171717 0
M  V30 438 H 42.091 -2.49853 0.627012 0
M  V30 439 H 42.049 -2.96806 -1.03699 0
M  V30 440 N 45.8211 -1.22559 -0.990812 0
M  V30 441 C 47.0511 -1.07623 -1.76355 0
M  V30 442 C 47.4591 0.37601 -1.85426 0
M  V30 443 O 46.8021 1.27228 -1.32509 0
M  V30 444 C 46.8641 -1.61507 -3.21179 0
M  V30 445 C 46.5281 -3.10146 -3.35646 0
M  V30 446 C 47.5251 -4.07553 -3.22796 0
M  V30 447 C 45.2101 -3.49644 -3.60631 0
M  V30 448 C 47.2041 -5.42442 -3.34716 0
M  V30 449 C 44.8911 -4.84682 -3.72192 0
M  V30 450 C 45.8891 -5.8089 -3.59243 0
M  V30 451 O 45.5771 -7.13476 -3.70415 0
M  V30 452 H 45.3091 -0.377745 -0.560611 0
M  V30 453 H 47.8631 -1.62658 -1.25425 0
M  V30 454 H 46.0931 -1.00881 -3.73309 0
M  V30 455 H 47.7821 -1.42202 -3.80175 0
M  V30 456 H 48.5481 -3.78381 -3.03403 0
M  V30 457 H 44.4271 -2.75282 -3.69785 0
M  V30 458 H 47.9711 -6.17518 -3.24526 0
M  V30 459 H 43.8681 -5.13534 -3.91092 0
M  V30 460 H 44.6361 -7.21083 -3.87275 0
M  V30 461 N 47.2992 1.18797 -1.03562 0
M  V30 462 C 48.5292 1.92319 -0.754773 0
M  V30 463 C 48.9372 1.7612 0.691248 0
M  V30 464 O 48.2802 1.08491 1.48241 0
M  V30 465 C 48.3422 3.44284 -1.03484 0
M  V30 466 C 48.0062 3.84258 -2.47376 0
M  V30 467 C 49.0032 3.88459 -3.45537 0
M  V30 468 C 46.6882 4.15701 -2.81954 0
M  V30 469 C 48.6822 4.23545 -4.76328 0
M  V30 470 C 46.3692 4.50458 -4.12954 0
M  V30 471 C 47.3672 4.54356 -5.09951 0
M  V30 472 O 47.0552 4.88305 -6.38603 0
M  V30 473 H 46.7872 0.617527 -0.275021 0
M  V30 474 H 49.3412 1.51683 -1.38497 0
M  V30 475 H 47.5712 3.85135 -0.347513 0
M  V30 476 H 49.2602 3.99049 -0.7426 0
M  V30 477 H 50.0262 3.6431 -3.20162 0
M  V30 478 H 45.9052 4.11847 -2.0713 0
M  V30 479 H 49.4492 4.26502 -5.52035 0
M  V30 480 H 45.3462 4.74067 -4.38099 0
M  V30 481 H 46.1142 5.06227 -6.43177 0
M  V30 482 N 48.7773 0.814389 1.34928 0
M  V30 483 C 49.7243 0.22822 2.29669 0
M  V30 484 C 50.6943 -0.642164 1.53184 0
M  V30 485 O 51.8793 -0.585605 1.81591 0
M  V30 486 C 49.0193 -0.61089 3.3965 0
M  V30 487 C 48.1323 0.280792 4.31086 0
M  V30 488 C 47.2673 -0.567067 5.28165 0
M  V30 489 C 46.3063 0.324531 6.11239 0
M  V30 490 N 45.4433 -0.483756 7.00431 0
M  V30 491 H 50.2833 1.04153 2.79206 0
M  V30 492 H 47.8203 0.525133 1.37407 0
M  V30 493 H 49.7783 -1.11263 4.0209 0
M  V30 494 H 48.4083 -1.38939 2.91369 0
M  V30 495 H 47.4603 0.900688 3.69583 0
M  V30 496 H 48.7723 0.966723 4.89342 0
M  V30 497 H 47.9263 -1.13363 5.96015 0
M  V30 498 H 46.6653 -1.28654 4.70425 0
M  V30 499 H 45.6703 0.903298 5.42329 0
M  V30 500 H 46.8953 1.04198 6.71059 0
M  V30 501 H 44.8413 -1.18706 6.45171 0
M  V30 502 H 44.7583 0.143965 7.55863 0
M  V30 503 H 46.0263 -1.03334 7.7262 0
M  V30 504 N 50.2554 -1.46986 0.568584 0
M  V30 505 C 51.5324 -1.95592 -0.0174074 0
M  V30 506 C 51.9124 -1.51124 -1.47393 0
M  V30 507 O 51.2604 -0.755329 -2.15655 0
M  V30 508 C 51.4704 -3.48719 0.139913 0
M  V30 509 C 52.8184 -4.246 0.000426376 0
M  V30 510 O 53.8424 -3.56135 0.0680316 0
M  V30 511 O 52.7014 -5.46302 -0.146988 0
M  V30 512 H 49.7954 -0.82498 -0.0577599 0
M  V30 513 H 52.3414 -1.57335 0.635909 0
M  V30 514 H 51.1134 -3.73927 1.15301 0
M  V30 515 H 50.7364 -3.93771 -0.550491 0
M  V30 516 N 51.7335 -0.305618 -1.54608 0
M  V30 517 C 52.6965 0.555591 -2.22364 0
M  V30 518 C 53.6965 1.05768 -1.21119 0
M  V30 519 O 54.8865 0.952972 -1.45822 0
M  V30 520 C 52.0185 1.76974 -2.91364 0
M  V30 521 H 53.2115 -0.0364572 -2.99878 0
M  V30 522 H 50.7645 -0.0565007 -1.56198 0
M  V30 523 H 51.4995 2.40151 -2.17941 0
M  V30 524 H 51.2845 1.41732 -3.65588 0
M  V30 525 H 52.7745 2.38148 -3.43038 0
M  V30 526 N 53.2116 1.57565 -0.0334293 0
M  V30 527 C 54.1746 2.09393 0.932048 0
M  V30 528 C 55.1746 1.00986 1.25134 0
M  V30 529 O 56.3646 1.27129 1.19096 0
M  V30 530 C 53.4966 2.56338 2.2473 0
M  V30 531 H 54.6896 2.95984 0.483085 0
M  V30 532 H 52.2426 1.54819 0.21468 0
M  V30 533 H 52.9776 1.7309 2.74245 0
M  V30 534 H 52.7626 3.35542 2.02865 0
M  V30 535 H 54.2526 2.96646 2.93923 0
M  V30 536 N 54.6897 -0.239769 1.55765 0
M  V30 537 C 55.9147 -0.988373 1.82335 0
M  V30 538 C 56.3397 -1.77886 0.611421 0
M  V30 539 O 55.6977 -1.75889 -0.439639 0
M  V30 540 C 55.7457 -1.89627 3.06715 0
M  V30 541 O 54.8497 -2.98904 2.84131 0
M  V30 542 H 54.1907 -0.280858 0.601677 0
M  V30 543 H 56.7207 -0.258597 2.02959 0
M  V30 544 H 56.7307 -2.30957 3.36338 0
M  V30 545 H 55.4057 -1.31511 3.9456 0
M  V30 546 H 53.9827 -2.61651 2.65694 0
M  V30 547 N 56.1678 -1.49265 -0.50573 0
M  V30 548 C 57.1158 -1.66065 -1.62866 0
M  V30 549 C 58.1098 -0.526636 -1.61006 0
M  V30 550 O 59.3158 -0.706126 -1.65571 0
M  V30 551 H 55.6908 -0.52356 -0.539805 0
M  V30 552 H 57.6618 -2.60329 -1.45848 0
M  V30 553 C 56.4108 -1.74008 -3.01026 0
M  V30 554 H 55.7338 -2.6064 -3.03161 0
M  V30 555 H 57.1738 -1.89798 -3.79147 0
M  V30 556 C 55.6328 -0.483868 -3.33407 0
M  V30 557 O 56.1628 0.392548 -3.99777 0
M  V30 558 N 54.3688 -0.348236 -2.88506 0
M  V30 559 H 53.9158 -1.06242 -2.34671 0
M  V30 560 H 53.8738 0.491204 -3.10539 0
M  V30 561 N 57.6459 0.756429 -1.3826 0
M  V30 562 C 58.8709 1.55077 -1.37717 0
M  V30 563 C 59.2959 1.88073 0.03164 0
M  V30 564 O 58.6539 1.50364 1.01293 0
M  V30 565 C 58.7019 2.8283 -2.23695 0
M  V30 566 O 57.8059 3.77862 -1.6521 0
M  V30 567 H 57.1469 0.469152 -0.469885 0
M  V30 568 H 59.6769 0.935019 -1.81985 0
M  V30 569 H 59.6869 3.31783 -2.37453 0
M  V30 570 H 58.3619 2.58144 -3.2609 0
M  V30 571 H 56.9389 3.36555 -1.60578 0
M  V30 572 N 59.124 1.23083 0.984299 0
M  V30 573 C 60.087 1.00979 2.05757 0
M  V30 574 C 61.087 -0.0269573 1.60777 0
M  V30 575 O 62.277 0.212403 1.729 0
M  V30 576 C 59.409 0.527072 3.36801 0
M  V30 577 H 60.602 1.9622 2.26799 0
M  V30 578 H 58.155 1.05072 1.15714 0
M  V30 579 H 58.89 -0.429294 3.21446 0
M  V30 580 H 58.675 1.27515 3.70786 0
M  V30 581 H 60.165 0.392942 4.15747 0
M  V30 582 N 60.6021 -1.18246 1.0419 0
M  V30 583 C 61.5501 -2.23968 0.627792 0
M  V30 584 C 62.5441 -1.65828 -0.346019 0
M  V30 585 O 63.7501 -1.78733 -0.213175 0
M  V30 586 H 60.1251 -0.728939 0.184802 0
M  V30 587 H 62.0961 -2.56202 1.52981 0
M  V30 588 C 60.8451 -3.47699 0.00796591 0
M  V30 589 H 60.1681 -3.92734 0.748347 0
M  V30 590 H 61.6081 -4.23294 -0.24455 0
M  V30 591 C 60.0671 -3.13153 -1.24246 0
M  V30 592 O 60.5971 -3.27003 -2.33307 0
M  V30 593 N 58.8031 -2.67467 -1.13622 0
M  V30 594 H 58.3501 -2.56396 -0.248734 0
M  V30 595 H 58.3081 -2.44724 -1.97377 0
M  V30 596 N 62.0802 -0.821533 -1.34494 0
M  V30 597 C 63.4962 -0.507117 -1.51329 0
M  V30 598 C 63.6962 0.968964 -1.76673 0
M  V30 599 O 62.7522 1.75348 -1.81685 0
M  V30 600 C 64.0652 -1.36544 -2.67911 0
M  V30 601 C 65.6132 -1.36242 -2.81793 0
M  V30 602 C 66.0882 -2.2052 -4.01416 0
M  V30 603 N 67.5792 -2.18136 -4.08621 0
M  V30 604 C 68.3142 -2.80095 -5.00334 0
M  V30 605 N 67.8102 -3.51039 -5.9728 0
M  V30 606 N 69.6032 -2.69656 -4.93196 0
M  V30 607 H 61.7542 -1.77729 -1.16302 0
M  V30 608 H 64.0172 -0.757291 -0.570276 0
M  V30 609 H 63.7232 -2.41361 -2.55808 0
M  V30 610 H 63.5972 -1.02917 -3.62888 0
M  V30 611 H 65.9842 -0.322041 -2.93338 0
M  V30 612 H 66.0652 -1.73866 -1.87628 0
M  V30 613 H 65.7092 -3.24607 -3.90631 0
M  V30 614 H 65.6392 -1.80247 -4.94791 0
M  V30 615 H 68.1302 -1.6653 -3.39229 0
M  V30 616 H 68.4432 -3.95565 -6.63889 0
M  V30 617 H 66.7882 -3.55145 -5.97409 0
M  V30 618 H 69.9792 -2.13808 -4.16418 0
M  V30 619 H 70.1522 -3.1823 -5.64476 0
M  V30 620 N 63.5583 1.46682 -0.576371 0
M  V30 621 C 64.4903 2.28341 0.198231 0
M  V30 622 C 65.5033 1.38141 0.861453 0
M  V30 623 O 66.6923 1.62797 0.732082 0
M  V30 624 C 63.7923 3.12986 1.29972 0
M  V30 625 C 62.9653 4.31271 0.729639 0
M  V30 626 C 62.0243 4.97363 1.71803 0
M  V30 627 O 61.0503 5.55156 1.25658 0
M  V30 628 N 62.2523 4.93796 3.05198 0
M  V30 629 H 65.0173 2.9546 -0.502324 0
M  V30 630 H 62.5783 1.56525 -0.413715 0
M  V30 631 H 64.5703 3.54066 1.96008 0
M  V30 632 H 63.1403 2.47984 1.90323 0
M  V30 633 H 62.3603 3.94052 -0.108012 0
M  V30 634 H 63.6483 5.07739 0.328438 0
M  V30 635 H 63.0463 4.48077 3.45317 0
M  V30 636 H 61.6033 5.38837 3.6674 0
M  V30 637 N 65.0364 0.313813 1.54444 0
M  V30 638 C 66.3134 -0.345447 1.92525 0
M  V30 639 C 66.6934 -1.70667 1.24242 0
M  V30 640 O 66.0414 -2.25273 0.382654 0
M  V30 641 C 66.2514 -0.44737 3.46121 0
M  V30 642 C 67.5994 -0.712238 4.18584 0
M  V30 643 O 68.6234 -0.530678 3.52225 0
M  V30 644 O 67.4824 -1.06183 5.36085 0
M  V30 645 H 64.5764 -0.195407 0.803583 0
M  V30 646 H 67.1224 0.362813 1.65776 0
M  V30 647 H 65.8944 0.509043 3.87975 0
M  V30 648 H 65.5174 -1.20359 3.78945 0
M  V30 649 N 66.5145 -1.57545 0.0417849 0
M  V30 650 C 67.7615 -1.92317 -0.634082 0
M  V30 651 C 68.0895 -0.919334 -1.71402 0
M  V30 652 O 67.3445 0.0698253 -1.95575 0
M  V30 653 C 67.6435 -3.33794 -1.27735 0
M  V30 654 C 67.3095 -4.49716 -0.326543 0
M  V30 655 C 65.9715 -4.81156 -0.0648814 0
M  V30 656 C 68.3235 -5.20182 0.325623 0
M  V30 657 C 65.6515 -5.80414 0.856539 0
M  V30 658 C 68.0035 -6.20424 1.23518 0
M  V30 659 C 66.6675 -6.50298 1.5056 0
M  V30 660 H 65.9375 -0.703736 -0.232027 0
M  V30 661 H 68.5845 -1.91205 0.106259 0
M  V30 662 H 66.8895 -3.31228 -2.09274 0
M  V30 663 H 68.5865 -3.57975 -1.80707 0
M  V30 664 H 65.1765 -4.25176 -0.540665 0
M  V30 665 H 69.3605 -4.96112 0.136546 0
M  V30 666 H 64.6165 -6.019 1.07363 0
M  V30 667 H 68.7905 -6.74141 1.74664 0
M  V30 668 H 66.4175 -7.27025 2.22123 0
M  V30 669 N 67.9926 0.231505 -1.5589 0
M  V30 670 C 69.2206 0.974505 -1.82513 0
M  V30 671 C 69.6356 1.78344 -0.619591 0
M  V30 672 O 68.9926 1.77792 0.411848 0
M  V30 673 C 69.0436 1.90007 -3.07538 0
M  V30 674 O 68.7646 1.12385 -4.2344 0
M  V30 675 C 70.2656 2.75779 -3.47075 0
M  V30 676 H 67.4856 0.286065 -0.606966 0
M  V30 677 H 70.0296 0.249739 -2.02969 0
M  V30 678 H 68.1846 2.57891 -2.89086 0
M  V30 679 H 68.5986 1.75125 -4.944 0
M  V30 680 H 70.0726 3.36443 -4.37619 0
M  V30 681 H 70.5496 3.47672 -2.68367 0
M  V30 682 H 71.1556 2.13323 -3.67931 0
M  V30 683 N 69.4707 1.49531 0.497807 0
M  V30 684 C 70.4027 1.62559 1.61578 0
M  V30 685 C 71.4157 0.508134 1.54667 0
M  V30 686 O 72.6047 0.780309 1.60541 0
M  V30 687 C 69.7047 1.56925 3.00379 0
M  V30 688 C 68.8777 2.84257 3.3244 0
M  V30 689 C 67.9367 2.71632 4.50669 0
M  V30 690 O 66.9627 3.4557 4.52294 0
M  V30 691 N 68.1647 1.83391 5.5077 0
M  V30 692 H 70.9297 2.58981 1.50828 0
M  V30 693 H 68.4907 1.4666 0.685743 0
M  V30 694 H 70.4827 1.46129 3.77397 0
M  V30 695 H 69.0527 0.683483 3.05037 0
M  V30 696 H 68.2727 3.09381 2.44289 0
M  V30 697 H 69.5607 3.68666 3.5066 0
M  V30 698 H 68.9587 1.22583 5.52259 0
M  V30 699 H 67.5157 1.78515 6.26878 0
M  V30 700 N 70.9488 -0.749086 1.3866 0
M  V30 701 C 72.2258 -1.4992 1.25632 0
M  V30 702 C 72.6058 -2.10633 -0.140317 0
M  V30 703 O 71.9538 -1.97437 -1.15025 0
M  V30 704 C 72.1638 -2.56195 2.36992 0
M  V30 705 C 73.5118 -3.22972 2.75634 0
M  V30 706 O 74.5358 -2.66502 2.36337 0
M  V30 707 O 73.3948 -4.25122 3.43415 0
M  V30 708 H 70.4888 -0.665067 0.491544 0
M  V30 709 H 73.0348 -0.784113 1.50498 0
M  V30 710 H 71.8068 -2.09612 3.30422 0
M  V30 711 H 71.4298 -3.35279 2.13714 0
M  V30 712 N 72.4269 -1.23603 -0.977757 0
M  V30 713 C 73.8379 -1.06424 -1.53398 0
M  V30 714 C 74.1889 0.367578 -1.92726 0
M  V30 715 O 73.3139 1.25465 -1.76316 0
M  V30 716 C 73.9089 -1.92568 -2.78753 0
M  V30 717 C 72.4679 -1.79642 -3.30765 0
M  V30 718 C 71.6149 -1.88111 -2.03739 0
M  V30 719 H 74.5659 -1.37227 -0.797152 0
M  V30 720 H 74.5869 -1.45203 -3.51705 0
M  V30 721 H 74.0989 -2.96771 -2.50098 0
M  V30 722 H 72.1999 -0.782325 -3.64294 0
M  V30 723 H 72.3129 -2.63174 -4.00345 0
M  V30 724 H 70.6769 -1.31723 -2.17994 0
M  V30 725 H 71.4599 -2.93875 -1.77461 0
M  V30 726 N 73.905 1.17692 -1.04816 0
M  V30 727 C 75.13 1.92327 -0.776207 0
M  V30 728 C 75.555 1.76082 0.661581 0
M  V30 729 O 74.913 1.076 1.45917 0
M  V30 730 C 74.961 3.41539 -1.15687 0
M  V30 731 O 74.065 4.11402 -0.286775 0
M  V30 732 H 73.406 0.599735 -0.284981 0
M  V30 733 H 75.936 1.49201 -1.4 0
M  V30 734 H 75.946 3.92269 -1.12202 0
M  V30 735 H 74.621 3.52684 -2.20425 0
M  V30 736 H 73.198 3.70939 -0.381903 0
M  V30 737 N 75.3831 0.828654 1.34056 0
M  V30 738 C 76.3301 0.252567 2.29414 0
M  V30 739 C 77.3001 -0.62588 1.53857 0
M  V30 740 O 78.4851 -0.566312 1.82202 0
M  V30 741 C 75.6251 -0.574831 3.40279 0
M  V30 742 C 74.7381 0.326499 4.30764 0
M  V30 743 C 73.8731 -0.511016 5.28736 0
M  V30 744 C 72.9121 0.389342 6.1086 0
M  V30 745 N 72.0491 -0.409439 7.00905 0
M  V30 746 H 76.8891 1.07108 2.78086 0
M  V30 747 H 74.4261 0.539677 1.36843 0
M  V30 748 H 76.3841 -1.06992 4.03248 0
M  V30 749 H 75.0141 -1.35841 2.92826 0
M  V30 750 H 74.0661 0.939837 3.68607 0
M  V30 751 H 75.3781 1.01857 4.88289 0
M  V30 752 H 74.5321 -1.07035 5.97184 0
M  V30 753 H 73.2711 -1.23657 4.71763 0
M  V30 754 H 72.2761 0.960769 5.4134 0
M  V30 755 H 73.5011 1.1131 6.69916 0
M  V30 756 H 71.4471 -1.11856 6.46393 0
M  V30 757 H 71.3641 0.224126 7.55668 0
M  V30 758 H 72.6321 -0.951336 7.73673 0
M  V30 759 N 76.8612 -1.46375 0.584142 0
M  V30 760 C 78.1082 -2.02378 0.0702675 0
M  V30 761 C 78.4362 -1.45545 -1.29023 0
M  V30 762 O 77.6912 -0.610967 -1.85918 0
M  V30 763 C 77.9902 -3.57373 -0.0439342 0
M  V30 764 C 77.6562 -4.33252 1.24915 0
M  V30 765 C 76.3182 -4.53701 1.60341 0
M  V30 766 C 78.6702 -4.7681 2.1048 0
M  V30 767 C 75.9982 -5.1496 2.81128 0
M  V30 768 C 78.3502 -5.39404 3.30494 0
M  V30 769 C 77.0142 -5.5808 3.66201 0
M  V30 770 H 76.2842 -0.740554 0.0257127 0
M  V30 771 H 78.9312 -1.75727 0.761065 0
M  V30 772 H 77.2362 -3.83169 -0.817869 0
M  V30 773 H 78.9332 -3.98384 -0.457318 0
M  V30 774 H 75.5232 -4.17633 0.963364 0
M  V30 775 H 79.7072 -4.60766 1.84414 0
M  V30 776 H 74.9632 -5.27611 3.08928 0
M  V30 777 H 79.1372 -5.72114 3.97063 0
M  V30 778 H 76.7642 -6.05318 4.59885 0
M  V30 779 N 78.3393 -0.321999 -1.54275 0
M  V30 780 C 79.5673 0.283052 -2.04955 0
M  V30 781 C 79.9823 1.45904 -1.19823 0
M  V30 782 O 79.3393 1.81063 -0.228545 0
M  V30 783 C 79.3903 0.719028 -3.54277 0
M  V30 784 O 79.1113 -0.410175 -4.36176 0
M  V30 785 C 80.6123 1.38705 -4.21041 0
M  V30 786 H 77.8323 0.0584616 -0.668448 0
M  V30 787 H 80.3763 -0.467734 -1.99079 0
M  V30 788 H 78.5313 1.41979 -3.60445 0
M  V30 789 H 78.9453 -0.0669416 -5.24457 0
M  V30 790 H 80.4193 1.64306 -5.2698 0
M  V30 791 H 80.8963 2.33385 -3.72059 0
M  V30 792 H 81.5023 0.728906 -4.19007 0
M  V30 793 N 79.8174 1.5752 -0.0501392 0
M  V30 794 C 80.7274 2.14952 0.939827 0
M  V30 795 C 81.7434 1.10706 1.34239 0
M  V30 796 O 82.9194 1.42869 1.41952 0
M  V30 797 C 79.9844 2.68232 2.19665 0
M  V30 798 C 79.0454 3.87272 1.85253 0
M  V30 799 C 78.2784 4.38002 3.04943 0
M  V30 800 O 78.5014 3.87811 4.18281 0
M  V30 801 O 77.4354 5.29602 2.86017 0
M  V30 802 H 81.2614 2.9986 0.481392 0
M  V30 803 H 78.8464 1.4841 0.171699 0
M  V30 804 H 80.7284 3.02475 2.93406 0
M  V30 805 H 79.4034 1.86395 2.64648 0
M  V30 806 H 78.3104 3.5792 1.0883 0
M  V30 807 H 79.6434 4.70336 1.4507 0
M  V30 808 N 81.2955 -0.223234 1.56011 0
M  V30 809 C 82.7065 -0.790368 1.69145 0
M  V30 810 C 83.0575 -1.85055 0.651845 0
M  V30 811 O 82.1825 -2.15498 -0.197359 0
M  V30 812 C 82.7775 -1.4404 3.06656 0
M  V30 813 C 81.3365 -1.95494 3.2165 0
M  V30 814 C 80.4835 -0.814506 2.65068 0
M  V30 815 H 83.4345 0.00139011 1.587 0
M  V30 816 H 83.4555 -2.30916 3.0242 0
M  V30 817 H 82.9675 -0.668543 3.82298 0
M  V30 818 H 81.0685 -2.75487 2.50874 0
M  V30 819 H 81.1815 -2.13607 4.28846 0
M  V30 820 H 79.5455 -1.22137 2.23505 0
M  V30 821 H 80.3285 -0.0553515 3.43255 0
M  V30 822 N 82.7736 -1.49793 -0.48987 0
M  V30 823 C 84.0196 -1.60078 -1.24511 0
M  V30 824 C 84.3526 -0.291608 -1.91998 0
M  V30 825 O 83.6276 0.705647 -1.81248 0
M  V30 826 C 83.9106 -2.76791 -2.30345 0
M  V30 827 C 83.7636 -4.17535 -1.67286 0
M  V30 828 C 85.0826 -2.89111 -3.31817 0
M  V30 829 H 82.2016 -0.582645 -0.451324 0
M  V30 830 H 84.8436 -1.82117 -0.541612 0
M  V30 831 H 82.9936 -2.5813 -2.90346 0
M  V30 832 H 84.6656 -4.4774 -1.11026 0
M  V30 833 H 82.9086 -4.22665 -0.976577 0
M  V30 834 H 83.5796 -4.95094 -2.44103 0
M  V30 835 H 86.0556 -3.06133 -2.81819 0
M  V30 836 H 84.9316 -3.72433 -4.03219 0
M  V30 837 H 85.1926 -1.9893 -3.94815 0
M  V30 838 N 84.2517 0.741722 -1.39055 0
M  V30 839 C 85.1987 1.85566 -1.37237 0
M  V30 840 C 86.1687 1.64457 -0.233072 0
M  V30 841 O 87.3537 1.85957 -0.427147 0
M  V30 842 C 84.4937 3.23004 -1.215 0
M  V30 843 C 83.6067 3.55864 -2.44918 0
M  V30 844 C 82.7417 4.82669 -2.21821 0
M  V30 845 C 81.7807 5.08351 -3.40948 0
M  V30 846 N 80.9177 6.26356 -3.17211 0
M  V30 847 H 85.7577 1.86455 -2.32462 0
M  V30 848 H 83.2947 0.911176 -1.15482 0
M  V30 849 H 85.2527 4.02331 -1.10389 0
M  V30 850 H 83.8827 3.21411 -0.29908 0
M  V30 851 H 82.9347 2.7129 -2.66657 0
M  V30 852 H 84.2467 3.70765 -3.33668 0
M  V30 853 H 83.4007 5.69962 -2.07914 0
M  V30 854 H 82.1397 4.69929 -1.30454 0
M  V30 855 H 81.1447 4.19522 -3.55361 0
M  V30 856 H 82.3697 5.22981 -4.33207 0
M  V30 857 H 80.3157 6.14917 -2.28502 0
M  V30 858 H 80.2327 6.41813 -3.99515 0
M  V30 859 H 81.5007 7.16506 -3.06984 0
M  V30 860 N 85.7298 1.2412 0.971189 0
M  V30 861 C 87.0068 0.986867 1.6888 0
M  V30 862 C 87.3868 -0.491857 2.0529 0
M  V30 863 O 86.7348 -1.46531 1.75331 0
M  V30 864 C 86.9448 1.9063 2.92338 0
M  V30 865 C 88.2928 2.17515 3.64654 0
M  V30 866 O 89.3168 1.88254 3.02388 0
M  V30 867 O 88.1758 2.6719 4.7673 0
M  V30 868 H 85.2698 0.372944 0.738134 0
M  V30 869 H 87.8158 1.35203 1.02559 0
M  V30 870 H 86.5878 2.90552 2.62097 0
M  V30 871 H 86.2108 1.54408 3.66393 0
M  V30 872 N 87.2079 -1.17134 1.05439 0
M  V30 873 C 88.4569 -1.86791 0.761049 0
M  V30 874 C 88.7699 -1.82072 -0.714795 0
M  V30 875 O 89.9759 -2.47223 -1.12218 0
M  V30 876 C 88.4319 -3.35166 1.31117 0
M  V30 877 C 88.0399 -3.48381 2.81664 0
M  V30 878 C 89.7839 -4.10134 1.09499 0
M  V30 879 C 87.6909 -4.90793 3.29964 0
M  V30 880 H 86.6209 -0.699681 0.281002 0
M  V30 881 H 89.2719 -1.3226 1.27199 0
M  V30 882 H 87.6539 -3.8925 0.72803 0
M  V30 883 H 88.8279 -3.04502 3.45855 0
M  V30 884 H 87.1429 -2.86836 3.01851 0
M  V30 885 H 89.7399 -5.152 1.43084 0
M  V30 886 H 90.0829 -4.16287 0.0328772 0
M  V30 887 H 90.6159 -3.62264 1.64346 0
M  V30 888 H 87.3549 -4.89816 4.35616 0
M  V30 889 H 86.8749 -5.35333 2.70516 0
M  V30 890 H 88.5539 -5.59573 3.24787 0
M  V30 891 N 88.686 -0.835752 -1.33615 0
M  V30 892 C 89.619 -0.211815 -2.27215 0
M  V30 893 C 90.597 0.639249 -1.49507 0
M  V30 894 O 91.781 0.600193 -1.78689 0
M  V30 895 C 88.908 0.702893 -3.31326 0
M  V30 896 C 87.954 -0.0723049 -4.26439 0
M  V30 897 S 88.787 -1.42811 -5.16106 0
M  V30 898 C 89.943 -0.518613 -6.23748 0
M  V30 899 H 90.176 -1.00533 -2.79786 0
M  V30 900 H 87.709 -0.632336 -1.40858 0
M  V30 901 H 89.667 1.22505 -3.91794 0
M  V30 902 H 88.328 1.47004 -2.77576 0
M  V30 903 H 87.521 0.62359 -5.00127 0
M  V30 904 H 87.123 -0.525424 -3.70291 0
M  V30 905 H 89.415 0.284778 -6.76901 0
M  V30 906 H 90.358 -1.22556 -6.97413 0
M  V30 907 H 90.766 -0.101344 -5.64409 0
M  V30 908 N 90.1641 1.46063 -0.591896 0
M  V30 909 C 91.4131 2.01547 -0.0786637 0
M  V30 910 C 91.7261 1.46796 1.29268 0
M  V30 911 O 92.9321 1.94157 1.89777 0
M  V30 912 C 91.3881 3.59787 -0.0900024 0
M  V30 913 C 90.9961 4.23534 -1.46023 0
M  V30 914 C 92.7401 4.22895 0.368806 0
M  V30 915 C 90.6471 5.73881 -1.4288 0
M  V30 916 H 89.5771 0.753564 -0.0256388 0
M  V30 917 H 92.2281 1.677 -0.744905 0
M  V30 918 H 90.6101 3.90752 0.642586 0
M  V30 919 H 91.7841 4.04167 -2.21328 0
M  V30 920 H 90.0991 3.72558 -1.85982 0
M  V30 921 H 92.6961 5.33116 0.411258 0
M  V30 922 H 93.0391 3.9247 1.38827 0
M  V30 923 H 93.5721 3.9659 -0.31001 0
M  V30 924 H 90.3111 6.0898 -2.42536 0
M  V30 925 H 89.8311 5.95486 -0.718095 0
M  V30 926 H 91.5101 6.36776 -1.14565 0
M  V30 927 N 91.6422 0.330177 1.54103 0
M  V30 928 C 92.5892 -0.532762 2.24567 0
M  V30 929 C 93.5592 -1.10635 1.23892 0
M  V30 930 O 94.7442 -1.14546 1.5259 0
M  V30 931 C 91.8842 -1.6845 3.01195 0
M  V30 932 C 90.9972 -1.13951 4.167 0
M  V30 933 C 90.1322 -2.25746 4.80845 0
M  V30 934 C 89.1712 -1.6853 5.88442 0
M  V30 935 N 88.3082 -2.74014 6.46421 0
M  V30 936 H 93.1482 0.0746905 2.97906 0
M  V30 937 H 90.6852 0.048632 1.4702 0
M  V30 938 H 92.6432 -2.36234 3.43874 0
M  V30 939 H 91.2732 -2.26314 2.30178 0
M  V30 940 H 90.3252 -0.35301 3.78758 0
M  V30 941 H 91.6372 -0.680892 4.94131 0
M  V30 942 H 90.7912 -3.01422 5.26526 0
M  V30 943 H 89.5302 -2.74947 4.0281 0
M  V30 944 H 88.5352 -0.913543 5.42157 0
M  V30 945 H 89.7602 -1.20198 6.68378 0
M  V30 946 H 87.7062 -3.22494 5.71256 0
M  V30 947 H 87.6232 -2.32735 7.19285 0
M  V30 948 H 88.8912 -3.49499 6.96757 0
M  V30 949 N 93.1203 -1.57491 0.0584922 0
M  V30 950 C 94.3453 -1.97711 -0.62652 0
M  V30 951 C 94.7703 -0.936132 -1.63151 0
M  V30 952 O 94.1283 0.099811 -1.81025 0
M  V30 953 C 94.1763 -3.36989 -1.28338 0
M  V30 954 O 93.2803 -3.35433 -2.39913 0
M  V30 955 H 92.6213 -0.643868 -0.162266 0
M  V30 956 H 95.1513 -2.04193 0.129064 0
M  V30 957 H 95.1613 -3.73879 -1.63335 0
M  V30 958 H 93.8363 -4.12289 -0.546889 0
M  V30 959 H 92.4133 -3.10298 -2.06809 0
M  V30 960 N 94.5984 0.214957 -1.56127 0
M  V30 961 C 95.5284 1.2695 -1.95974 0
M  V30 962 C 96.5094 1.48539 -0.828868 0
M  V30 963 O 97.6944 1.60611 -1.09168 0
M  V30 964 C 94.8244 2.61794 -2.28214 0
M  V30 965 C 93.7784 2.54851 -3.43853 0
M  V30 966 C 93.1044 3.93785 -3.61715 0
M  V30 967 C 94.4044 2.09065 -4.78632 0
M  V30 968 H 96.0984 0.93846 -2.84312 0
M  V30 969 H 93.6444 0.449996 -1.36788 0
M  V30 970 H 95.5974 3.35731 -2.54682 0
M  V30 971 H 94.3214 2.96599 -1.36736 0
M  V30 972 H 92.9804 1.8337 -3.17444 0
M  V30 973 H 92.6284 4.25908 -2.67602 0
M  V30 974 H 92.3284 3.90019 -4.39498 0
M  V30 975 H 93.8524 4.69374 -3.90539 0
M  V30 976 H 95.2664 2.7275 -5.04262 0
M  V30 977 H 93.6634 2.16346 -5.59745 0
M  V30 978 H 94.7334 1.04315 -4.73547 0
M  V30 979 N 96.0765 1.50051 0.48192 0
M  V30 980 C 97.4875 1.5348 1.06305 0
M  V30 981 C 97.8385 0.331997 1.93371 0
M  V30 982 O 96.9635 -0.556256 2.09129 0
M  V30 983 C 97.5585 2.7813 1.93466 0
M  V30 984 C 96.1175 2.84275 2.46707 0
M  V30 985 C 95.2645 2.47637 1.24785 0
M  V30 986 H 98.2155 1.56472 0.264995 0
M  V30 987 H 98.2365 2.59372 2.78399 0
M  V30 988 H 97.7485 3.65654 1.30072 0
M  V30 989 H 95.8495 2.01077 3.13686 0
M  V30 990 H 95.9625 3.8691 2.82555 0
M  V30 991 H 94.3265 1.99835 1.57918 0
M  V30 992 H 95.1095 3.37457 0.630694 0
M  V30 993 N 97.5546 -0.734337 1.39446 0
M  V30 994 C 98.5176 -1.83004 1.37994 0
M  V30 995 C 99.5176 -1.58397 0.276938 0
M  V30 996 O 100.708 -1.65785 0.534875 0
M  V30 997 C 97.8396 -3.20802 1.1532 0
M  V30 998 H 99.0326 -1.85694 2.35494 0
M  V30 999 H 96.5856 -0.938059 1.25021 0
M  V30 1000 H 97.3206 -3.23772 0.185036 0
M  V30 1001 H 97.1056 -3.4006 1.95197 0
M  V30 1002 H 98.5956 -4.00862 1.17046 0
M  V30 1003 N 99.0327 -1.24633 -0.964593 0
M  V30 1004 C 99.9627 -1.06611 -2.07741 0
M  V30 1005 C 100.944 0.0218666 -1.70086 0
M  V30 1006 O 102.129 -0.145793 -1.93652 0
M  V30 1007 C 99.2587 -0.673444 -3.40708 0
M  V30 1008 C 98.2127 -1.71054 -3.92332 0
M  V30 1009 C 97.5387 -1.17285 -5.21678 0
M  V30 1010 C 98.8387 -3.10718 -4.19824 0
M  V30 1011 H 100.533 -1.99693 -2.23076 0
M  V30 1012 H 98.0787 -0.96152 -1.07195 0
M  V30 1013 H 100.032 -0.534345 -4.17998 0
M  V30 1014 H 98.7557 0.293073 -3.25282 0
M  V30 1015 H 97.4147 -1.83791 -3.17201 0
M  V30 1016 H 97.0627 -0.196847 -5.02615 0
M  V30 1017 H 96.7627 -1.86592 -5.57187 0
M  V30 1018 H 98.2867 -1.04593 -6.01575 0
M  V30 1019 H 99.7007 -3.01192 -4.87808 0
M  V30 1020 H 98.0977 -3.77406 -4.66567 0
M  V30 1021 H 99.1677 -3.58524 -3.26479 0
M  V30 1022 N 100.511 1.16574 -1.06058 0
M  V30 1023 C 101.459 2.22941 -0.663343 0
M  V30 1024 C 102.453 1.66358 0.319593 0
M  V30 1025 O 103.659 1.7905 0.184713 0
M  V30 1026 H 100.034 0.725907 -0.196376 0
M  V30 1027 H 102.005 2.53736 -1.57037 0
M  V30 1028 C 100.754 3.47642 -0.0632808 0
M  V30 1029 H 100.077 3.91493 -0.810733 0
M  V30 1030 H 101.517 4.2363 0.177177 0
M  V30 1031 C 99.9758 3.1509 1.19248 0
M  V30 1032 O 100.506 3.30673 2.28075 0
M  V30 1033 N 98.7118 2.6924 1.09353 0
M  V30 1034 H 98.2588 2.5676 0.207912 0
M  V30 1035 H 98.2168 2.47833 1.93458 0
M  V30 1036 N 101.989 0.842826 1.3317 0
M  V30 1037 C 103.214 0.453129 2.02389 0
M  V30 1038 C 103.639 -0.939105 1.6298 0
M  V30 1039 O 102.997 -1.61472 0.8244 0
M  V30 1040 C 103.045 0.586094 3.55805 0
M  V30 1041 O 102.149 -0.386029 4.10589 0
M  V30 1042 H 101.49 0.183664 0.638094 0
M  V30 1043 H 104.02 1.13875 1.69981 0
M  V30 1044 H 104.03 0.469209 4.05293 0
M  V30 1045 H 102.705 1.6014 3.83833 0
M  V30 1046 H 101.282 -0.226371 3.72212 0
M  V30 1047 N 103.467 -1.45747 0.599634 0
M  V30 1048 C 104.878 -1.85853 0.177681 0
M  V30 1049 C 105.229 -1.50102 -1.26348 0
M  V30 1050 O 104.354 -0.923905 -1.95686 0
M  V30 1051 C 104.949 -3.37326 0.315688 0
M  V30 1052 C 103.508 -3.76365 -0.0515144 0
M  V30 1053 C 102.655 -2.69722 0.643822 0
M  V30 1054 H 105.606 -1.36661 0.806814 0
M  V30 1055 H 105.627 -3.77778 -0.454321 0
M  V30 1056 H 105.139 -3.63315 1.36468 0
M  V30 1057 H 103.24 -3.55993 -1.09999 0
M  V30 1058 H 103.353 -4.77916 0.336594 0
M  V30 1059 H 101.717 -2.54567 0.0822881 0
M  V30 1060 H 102.5 -2.98549 1.6948 0
M  V30 1061 N 104.945 -0.338344 -1.53925 0
M  V30 1062 C 106.173 0.261298 -2.05243 0
M  V30 1063 C 106.588 1.44625 -1.21363 0
M  V30 1064 O 105.945 1.80811 -0.247736 0
M  V30 1065 C 105.996 0.681412 -3.5502 0
M  V30 1066 O 105.717 -0.456414 -4.35716 0
M  V30 1067 C 107.218 1.34232 -4.22489 0
M  V30 1068 H 104.438 0.0513685 -0.669031 0
M  V30 1069 H 106.982 -0.488822 -1.98572 0
M  V30 1070 H 105.137 1.38148 -3.61931 0
M  V30 1071 H 105.551 -0.122564 -5.24357 0
M  V30 1072 H 107.025 1.58708 -5.28693 0
M  V30 1073 H 107.502 2.29426 -3.74514 0
M  V30 1074 H 108.108 0.684424 -4.19757 0
M  V30 1075 N 106.423 1.57458 -0.0668435 0
M  V30 1076 C 107.669 1.93587 0.6043 0
M  V30 1077 C 108.002 0.946722 1.69561 0
M  V30 1078 O 107.277 -0.0248516 1.94484 0
M  V30 1079 C 107.56 3.40014 1.18585 0
M  V30 1080 C 107.413 4.49685 0.101529 0
M  V30 1081 C 108.732 3.87154 2.09284 0
M  V30 1082 H 105.851 0.703958 0.218202 0
M  V30 1083 H 108.493 1.89542 -0.131804 0
M  V30 1084 H 106.643 3.43592 1.81319 0
M  V30 1085 H 108.315 4.5823 -0.531279 0
M  V30 1086 H 106.558 4.30059 -0.568487 0
M  V30 1087 H 107.229 5.49266 0.54874 0
M  V30 1088 H 109.705 3.85551 1.56491 0
M  V30 1089 H 108.581 4.90231 2.46911 0
M  V30 1090 H 108.842 3.2481 2.99918 0
M  V30 1091 N 107.901 -0.206675 1.56239 0
M  V30 1092 C 108.811 -1.27686 1.96808 0
M  V30 1093 C 109.827 -1.50455 0.874035 0
M  V30 1094 O 111.003 -1.63295 1.17884 0
M  V30 1095 C 108.068 -2.60358 2.28942 0
M  V30 1096 C 107.129 -2.45762 3.51994 0
M  V30 1097 C 106.362 -3.72108 3.82585 0
M  V30 1098 O 106.585 -4.75776 3.14631 0
M  V30 1099 O 105.519 -3.6833 4.76043 0
M  V30 1100 H 109.345 -0.962593 2.88041 0
M  V30 1101 H 106.93 -0.410746 1.43643 0
M  V30 1102 H 108.812 -3.38687 2.50737 0
M  V30 1103 H 107.487 -2.91435 1.4088 0
M  V30 1104 H 106.394 -1.65584 3.35459 0
M  V30 1105 H 107.727 -2.19621 4.40486 0
M  V30 1106 N 109.379 -1.50304 -0.473955 0
M  V30 1107 C 110.289 -1.7174 -1.5982 0
M  V30 1108 C 111.305 -0.600457 -1.63311 0
M  V30 1109 O 112.481 -0.878441 -1.81233 0
M  V30 1110 C 109.546 -1.80427 -2.96052 0
M  V30 1111 C 108.607 -3.04148 -3.02972 0
M  V30 1112 C 107.84 -3.12411 -4.32706 0
M  V30 1113 O 108.063 -2.27542 -5.23049 0
M  V30 1114 O 106.997 -4.05113 -4.45159 0
M  V30 1115 H 110.823 -2.67035 -1.44657 0
M  V30 1116 H 108.408 -1.34366 -0.653148 0
M  V30 1117 H 110.29 -1.88338 -3.7697 0
M  V30 1118 H 108.965 -0.883156 -3.11419 0
M  V30 1119 H 107.872 -3.0174 -2.21142 0
M  V30 1120 H 109.205 -3.95829 -2.92541 0
M  V30 1121 N 110.857 0.726932 -1.39834 0
M  V30 1122 C 112.097 1.4992 -1.38936 0
M  V30 1123 C 112.461 1.91996 0.0126883 0
M  V30 1124 O 113.662 2.68399 0.146715 0
M  V30 1125 C 111.933 2.70013 -2.34153 0
M  V30 1126 S 113.492 3.59563 -2.51515 0
M  V30 1127 H 110.31 0.51271 -0.492595 0
M  V30 1128 H 112.912 0.85107 -1.76003 0
M  V30 1129 H 111.616 2.37254 -3.34871 0
M  V30 1130 H 111.147 3.39748 -1.98331 0
M  V30 1131 H 113.162 4.63973 -1.75909 0
M  V30 1132 N 112.336 1.25143 0.95797 0
M  V30 1133 C 113.584 1.09476 1.69881 0
M  V30 1134 C 113.905 -0.365502 1.91544 0
M  V30 1135 O 113.175 -1.25985 1.50015 0
M  V30 1136 H 111.755 0.402128 0.629525 0
M  V30 1137 H 114.417 1.57214 1.15194 0
M  V30 1138 H 113.513 1.60046 2.6794 0
M  V30 1139 N 113.814 -1.1601 1.06675 0
M  V30 1140 C 115.044 -1.90251 0.805497 0
M  V30 1141 C 115.452 -1.77891 -0.64431 0
M  V30 1142 O 114.795 -1.12383 -1.45313 0
M  V30 1143 C 114.857 -3.41419 1.12576 0
M  V30 1144 C 114.521 -3.77564 2.57477 0
M  V30 1145 C 115.518 -3.79161 3.55715 0
M  V30 1146 C 113.203 -4.08079 2.92877 0
M  V30 1147 C 115.197 -4.10767 4.8739 0
M  V30 1148 C 112.884 -4.39351 4.24751 0
M  V30 1149 C 113.882 -4.40675 5.21818 0
M  V30 1150 O 113.57 -4.71202 6.51325 0
M  V30 1151 H 113.302 -0.610018 0.291297 0
M  V30 1152 H 115.856 -1.47958 1.4247 0
M  V30 1153 H 114.086 -3.84079 0.449503 0
M  V30 1154 H 115.775 -3.9694 0.84814 0
M  V30 1155 H 116.541 -3.55693 3.29708 0
M  V30 1156 H 112.42 -4.06211 2.17976 0
M  V30 1157 H 115.964 -4.11715 5.63148 0
M  V30 1158 H 111.861 -4.62285 4.50514 0
M  V30 1159 H 112.629 -4.88996 6.56373 0
M  V30 1160 N 115.292 -0.849877 -1.32721 0
M  V30 1161 C 116.517 -0.463856 -2.02146 0
M  V30 1162 C 116.942 0.930449 -1.63476 0
M  V30 1163 O 116.3 1.61033 -0.832952 0
M  V30 1164 C 116.348 -0.604955 -3.55489 0
M  V30 1165 O 115.452 0.36425 -4.10788 0
M  V30 1166 H 114.793 -0.187046 -0.637111 0
M  V30 1167 H 117.323 -1.14775 -1.69375 0
M  V30 1168 H 117.333 -0.490696 -4.05038 0
M  V30 1169 H 116.008 -1.62174 -3.82978 0
M  V30 1170 H 114.585 0.206628 -3.72327 0
M  V30 1171 N 116.77 1.45427 -0.607355 0
M  V30 1172 C 118.047 1.9557 -0.0344566 0
M  V30 1173 C 118.427 1.54979 1.43334 0
M  V30 1174 O 117.775 0.812241 2.13576 0
M  V30 1175 C 117.985 3.48226 -0.232321 0
M  V30 1176 C 119.333 4.2445 -0.113001 0
M  V30 1177 O 120.357 3.55829 -0.162431 0
M  V30 1178 O 119.216 5.465 0.00209442 0
M  V30 1179 H 116.31 0.826222 0.0358667 0
M  V30 1180 H 118.856 1.55594 -0.6774 0
M  V30 1181 H 117.628 3.70739 -1.25174 0
M  V30 1182 H 117.251 3.95092 0.445896 0
M  V30 1183 N 118.248 0.346503 1.53744 0
M  V30 1184 C 119.664 -0.00530975 1.59599 0
M  V30 1185 C 119.864 -1.48465 1.36236 0
M  V30 1186 O 118.92 -2.24376 1.15808 0
M  V30 1187 C 120.233 0.433516 2.97559 0
M  V30 1188 C 121.781 0.386111 3.10609 0
M  V30 1189 C 122.256 0.800451 4.50951 0
M  V30 1190 N 123.747 0.754753 4.5701 0
M  V30 1191 C 124.482 1.04727 5.63755 0
M  V30 1192 N 123.978 1.4081 6.7834 0
M  V30 1193 N 125.771 0.971316 5.53644 0
M  V30 1194 H 117.922 1.31009 1.67184 0
M  V30 1195 H 120.185 0.534242 0.783128 0
M  V30 1196 H 119.891 1.46509 3.19731 0
M  V30 1197 H 119.765 -0.189753 3.76722 0
M  V30 1198 H 122.152 -0.636295 2.88158 0
M  V30 1199 H 122.233 1.04462 2.33498 0
M  V30 1200 H 121.877 1.82088 4.74137 0
M  V30 1201 H 121.807 0.119386 5.26465 0
M  V30 1202 H 124.298 0.488662 3.74727 0
M  V30 1203 H 124.611 1.61607 7.55714 0
M  V30 1204 H 122.956 1.44657 6.79779 0
M  V30 1205 H 126.147 0.688748 4.63005 0
M  V30 1206 H 126.32 1.20263 6.36742 0
M  V30 1207 N 119.726 -1.57421 0.075193 0
M  V30 1208 C 120.972 -1.93905 -0.594025 0
M  V30 1209 C 121.305 -0.955701 -1.69056 0
M  V30 1210 O 120.58 0.0145373 -1.94495 0
M  V30 1211 C 120.863 -3.40638 -1.1678 0
M  V30 1212 C 120.716 -4.49733 -0.0776792 0
M  V30 1213 C 122.035 -3.88259 -2.07228 0
M  V30 1214 H 119.154 -0.705105 -0.214466 0
M  V30 1215 H 121.796 -1.8947 0.141854 0
M  V30 1216 H 119.946 -3.44549 -1.79494 0
M  V30 1217 H 121.618 -4.57942 0.555573 0
M  V30 1218 H 119.861 -4.29751 0.591286 0
M  V30 1219 H 120.532 -5.49549 -0.519603 0
M  V30 1220 H 123.008 -3.86376 -1.54445 0
M  V30 1221 H 121.884 -4.91533 -2.44308 0
M  V30 1222 H 122.145 -3.26396 -2.98191 0
M  V30 1223 N 121.204 0.198386 -1.56346 0
M  V30 1224 C 122.62 0.549085 -1.49857 0
M  V30 1225 C 122.82 1.86016 -0.774611 0
M  V30 1226 O 121.876 2.50416 -0.323776 0
M  V30 1227 C 123.189 0.606868 -2.94512 0
M  V30 1228 C 124.737 0.695925 -3.05165 0
M  V30 1229 C 125.212 0.784848 -4.51225 0
M  V30 1230 N 126.703 0.848463 -4.55363 0
M  V30 1231 C 127.438 0.937378 -5.65686 0
M  V30 1232 N 126.934 0.9888 -6.85707 0
M  V30 1233 N 128.727 0.974312 -5.53592 0
M  V30 1234 H 120.878 -0.661655 -2.01831 0
M  V30 1235 H 123.141 -0.235261 -0.918344 0
M  V30 1236 H 122.847 -0.28732 -3.50524 0
M  V30 1237 H 122.721 1.46268 -3.47686 0
M  V30 1238 H 125.108 1.58055 -2.49204 0
M  V30 1239 H 125.189 -0.186022 -2.55123 0
M  V30 1240 H 124.833 -0.0954072 -5.0781 0
M  V30 1241 H 124.763 1.68255 -4.98997 0
M  V30 1242 H 127.254 0.818103 -3.68938 0
M  V30 1243 H 127.567 1.05707 -7.65536 0
M  V30 1244 H 125.912 0.957534 -6.88372 0
M  V30 1245 H 129.103 0.930954 -4.58749 0
M  V30 1246 H 129.276 1.04015 -6.39597 0
M  V30 1247 N 122.682 1.50554 0.465978 0
M  V30 1248 C 123.907 1.65838 1.24549 0
M  V30 1249 C 124.332 0.343486 1.84937 0
M  V30 1250 O 123.69 -0.69324 1.67523 0
M  V30 1251 C 123.738 2.75533 2.32624 0
M  V30 1252 O 122.842 2.37142 3.37398 0
M  V30 1253 H 122.183 0.553893 0.366194 0
M  V30 1254 H 124.713 1.96959 0.553927 0
M  V30 1255 H 124.723 2.98763 2.77857 0
M  V30 1256 H 123.398 3.70962 1.88043 0
M  V30 1257 H 121.975 2.24377 2.97841 0
M  V30 1258 N 124.16 -0.719506 1.40217 0
M  V30 1259 C 125.409 -1.47486 1.37589 0
M  V30 1260 C 125.722 -1.9559 -0.0201568 0
M  V30 1261 O 126.928 -2.70973 -0.169049 0
M  V30 1262 C 125.384 -2.66575 2.41796 0
M  V30 1263 C 124.992 -2.25358 3.87192 0
M  V30 1264 C 126.736 -3.4433 2.48269 0
M  V30 1265 C 124.643 -3.41262 4.83005 0
M  V30 1266 H 123.573 -0.553901 0.511576 0
M  V30 1267 H 126.224 -0.783427 1.65936 0
M  V30 1268 H 124.606 -3.3787 2.06543 0
M  V30 1269 H 125.78 -1.61509 4.31569 0
M  V30 1270 H 124.095 -1.60657 3.84159 0
M  V30 1271 H 126.692 -4.30569 3.17041 0
M  V30 1272 H 127.035 -3.87872 1.51198 0
M  V30 1273 H 127.568 -2.80076 2.82493 0
M  V30 1274 H 124.307 -3.02755 5.81394 0
M  V30 1275 H 123.827 -4.0404 4.43297 0
M  V30 1276 H 125.506 -4.07383 5.02641 0
M  V30 1277 N 125.638 -1.25649 -0.95132 0
M  V30 1278 C 126.866 -1.13343 -1.73092 0
M  V30 1279 C 127.281 0.312434 -1.86197 0
M  V30 1280 O 126.638 1.21465 -1.36207 0
M  V30 1281 C 126.689 -1.78602 -3.14299 0
M  V30 1282 O 126.41 -3.17537 -3.01831 0
M  V30 1283 C 127.911 -1.72119 -4.08522 0
M  V30 1284 H 125.131 -0.395181 -0.542285 0
M  V30 1285 H 127.675 -1.66076 -1.19328 0
M  V30 1286 H 125.83 -1.29832 -3.64996 0
M  V30 1287 H 126.244 -3.49676 -3.90931 0
M  V30 1288 H 127.718 -2.22435 -5.052 0
M  V30 1289 H 128.195 -0.685635 -4.33815 0
M  V30 1290 H 128.801 -2.20393 -3.63741 0
M  V30 1291 N 127.117 1.15442 -1.07289 0
M  V30 1292 C 128.047 2.22312 -0.714107 0
M  V30 1293 C 129.028 1.67467 0.298155 0
M  V30 1294 O 130.213 1.93445 0.171048 0
M  V30 1295 C 127.343 3.47124 -0.110448 0
M  V30 1296 C 126.297 4.14926 -1.04979 0
M  V30 1297 C 125.623 5.33807 -0.308924 0
M  V30 1298 C 126.923 4.64762 -2.38314 0
M  V30 1299 H 128.617 2.5258 -1.6076 0
M  V30 1300 H 126.163 1.21404 -0.77441 0
M  V30 1301 H 128.116 4.21124 0.152482 0
M  V30 1302 H 126.84 3.16187 0.81812 0
M  V30 1303 H 125.499 3.42866 -1.29764 0
M  V30 1304 H 125.147 4.99126 0.623084 0
M  V30 1305 H 124.847 5.80113 -0.935036 0
M  V30 1306 H 126.371 6.10576 -0.0537771 0
M  V30 1307 H 127.785 5.30292 -2.1786 0
M  V30 1308 H 126.182 5.21728 -2.96514 0
M  V30 1309 H 127.252 3.80434 -3.00663 0
M  V30 1310 N 128.595 0.856903 1.32268 0
M  V30 1311 C 129.843 0.460474 1.96784 0
M  V30 1312 C 130.164 -0.987701 1.68135 0
M  V30 1313 O 129.434 -1.69058 0.989765 0
M  V30 1314 H 128.014 0.167289 0.728027 0
M  V30 1315 H 130.676 1.09383 1.61312 0
M  V30 1316 H 129.772 0.60739 3.06133 0
M  V30 1317 N 130.073 -1.45103 0.615059 0
M  V30 1318 C 131.021 -2.32331 -0.111791 0
M  V30 1319 C 132.015 -1.46409 -0.852102 0
M  V30 1320 O 133.221 -1.62849 -0.766821 0
M  V30 1321 H 129.596 -0.749993 -0.0549072 0
M  V30 1322 H 131.567 -2.91407 0.642225 0
M  V30 1323 C 130.316 -3.3015 -1.09071 0
M  V30 1324 H 129.639 -3.96265 -0.530485 0
M  V30 1325 H 131.079 -3.93898 -1.56908 0
M  V30 1326 C 129.538 -2.57875 -2.168 0
M  V30 1327 O 130.068 -2.36567 -3.24652 0
M  V30 1328 N 128.274 -2.17884 -1.92289 0
M  V30 1329 H 127.821 -2.35413 -1.04587 0
M  V30 1330 H 127.779 -1.6985 -2.64572 0
M  V30 1331 N 131.551 -0.354651 -1.53558 0
M  V30 1332 C 132.776 0.242153 -2.05981 0
M  V30 1333 C 133.201 1.42553 -1.2272 0
M  V30 1334 O 132.559 1.79656 -0.243604 0
M  V30 1335 C 132.607 0.624367 -3.55154 0
M  V30 1336 O 131.711 1.72301 -3.74681 0
M  V30 1337 H 131.052 0.0378432 -0.662921 0
M  V30 1338 H 133.582 -0.512087 -1.98088 0
M  V30 1339 H 133.592 0.898433 -3.97985 0
M  V30 1340 H 132.267 -0.240989 -4.15201 0
M  V30 1341 H 130.844 1.44535 -3.4375 0
M  V30 1342 N 133.029 1.57378 -0.0835403 0
M  V30 1343 C 134.257 1.98263 0.59157 0
M  V30 1344 C 134.672 0.962302 1.62435 0
M  V30 1345 O 134.029 -0.049581 1.82433 0
M  V30 1346 C 134.08 3.39214 1.24965 0
M  V30 1347 O 133.801 4.37339 0.258186 0
M  V30 1348 C 135.302 3.95038 2.01147 0
M  V30 1349 H 132.522 0.651773 0.159477 0
M  V30 1350 H 135.066 2.03878 -0.159415 0
M  V30 1351 H 133.221 3.34649 1.95164 0
M  V30 1352 H 133.635 5.19371 0.731734 0
M  V30 1353 H 135.109 4.95848 2.42567 0
M  V30 1354 H 135.586 3.32222 2.87272 0
M  V30 1355 H 136.192 4.0304 1.35789 0
M  V30 1356 N 134.507 -0.190092 1.56449 0
M  V30 1357 C 135.756 -0.907912 1.80111 0
M  V30 1358 C 136.069 -1.84214 0.657619 0
M  V30 1359 O 137.275 -2.60094 0.778663 0
M  V30 1360 C 135.731 -1.66485 3.19078 0
M  V30 1361 C 135.339 -0.7752 4.41242 0
M  V30 1362 C 137.083 -2.37201 3.52045 0
M  V30 1363 C 134.99 -1.53129 5.71231 0
M  V30 1364 H 133.92 -0.34276 0.671589 0
M  V30 1365 H 136.571 -0.161109 1.82791 0
M  V30 1366 H 134.953 -2.45572 3.10661 0
M  V30 1367 H 136.127 -0.0226298 4.60794 0
M  V30 1368 H 134.442 -0.178627 4.16017 0
M  V30 1369 H 137.039 -2.94329 4.46402 0
M  V30 1370 H 137.382 -3.11632 2.76028 0
M  V30 1371 H 137.915 -1.65075 3.61932 0
M  V30 1372 H 134.654 -0.82967 6.50228 0
M  V30 1373 H 134.174 -2.25767 5.55688 0
M  V30 1374 H 135.853 -2.08377 6.12526 0
M  V30 1375 N 135.985 -1.50799 -0.457987 0
M  V30 1376 C 137.213 -1.66218 -1.23203 0
M  V30 1377 C 137.628 -0.350894 -1.85511 0
M  V30 1378 O 136.985 0.668546 -1.69814 0
M  V30 1379 C 137.036 -2.76291 -2.33121 0
M  V30 1380 O 136.757 -4.02338 -1.73366 0
M  V30 1381 C 138.258 -3.028 -3.2377 0
M  V30 1382 H 135.478 -0.558361 -0.372121 0
M  V30 1383 H 138.022 -1.97099 -0.545179 0
M  V30 1384 H 136.177 -2.48068 -2.97558 0
M  V30 1385 H 136.591 -4.63312 -2.4585 0
M  V30 1386 H 138.065 -3.8345 -3.97077 0
M  V30 1387 H 138.542 -2.14385 -3.83322 0
M  V30 1388 H 139.148 -3.32604 -2.65056 0
M  V30 1389 N 137.463 0.71206 -1.40597 0
M  V30 1390 C 138.691 1.50111 -1.42388 0
M  V30 1391 C 139.106 1.88784 -0.0245395 0
M  V30 1392 O 138.463 1.55681 0.952351 0
M  V30 1393 C 138.514 2.7742 -2.31776 0
M  V30 1394 O 138.235 2.40382 -3.66262 0
M  V30 1395 C 139.736 3.7129 -2.42196 0
M  V30 1396 H 136.956 0.46314 -0.485533 0
M  V30 1397 H 139.5 0.878068 -1.8469 0
M  V30 1398 H 137.655 3.36001 -1.92827 0
M  V30 1399 H 138.069 3.22324 -4.13772 0
M  V30 1400 H 139.543 4.57448 -3.08943 0
M  V30 1401 H 140.02 4.14641 -1.44809 0
M  V30 1402 H 140.626 3.18619 -2.81712 0
M  V30 1403 N 138.941 1.26152 0.944643 0
M  V30 1404 C 139.873 1.03199 2.04652 0
M  V30 1405 C 140.886 -0.00642356 1.62799 0
M  V30 1406 O 142.075 0.233263 1.76969 0
M  V30 1407 C 139.175 0.540111 3.34568 0
M  V30 1408 C 138.348 1.64697 4.05208 0
M  V30 1409 C 137.407 1.15374 5.13396 0
M  V30 1410 O 136.433 1.85013 5.38293 0
M  V30 1411 N 137.635 0.00031529 5.805 0
M  V30 1412 H 140.4 1.9808 2.2491 0
M  V30 1413 H 137.961 1.17491 1.11389 0
M  V30 1414 H 139.953 0.194401 4.04233 0
M  V30 1415 H 138.523 -0.315021 3.11009 0
M  V30 1416 H 137.743 2.16379 3.29506 0
M  V30 1417 H 139.031 2.3903 4.49157 0
M  V30 1418 H 138.429 -0.581336 5.62705 0
M  V30 1419 H 136.986 -0.286346 6.51171 0
M  V30 1420 N 140.419 -1.14872 1.07899 0
M  V30 1421 C 141.329 -2.2341 0.715915 0
M  V30 1422 C 142.345 -1.71808 -0.275306 0
M  V30 1423 O 143.521 -2.01039 -0.120545 0
M  V30 1424 C 140.586 -3.46474 0.125168 0
M  V30 1425 C 139.647 -4.13039 1.17034 0
M  V30 1426 C 138.88 -5.30229 0.607688 0
M  V30 1427 O 139.103 -5.675 -0.574497 0
M  V30 1428 O 138.037 -5.86444 1.35526 0
M  V30 1429 H 141.863 -2.56808 1.62121 0
M  V30 1430 H 139.448 -1.22702 0.852322 0
M  V30 1431 H 141.33 -4.20917 -0.201729 0
M  V30 1432 H 140.005 -3.14811 -0.753364 0
M  V30 1433 H 138.912 -3.40493 1.54968 0
M  V30 1434 H 140.245 -4.48796 2.02097 0
M  V30 1435 N 141.898 -0.863906 -1.31812 0
M  V30 1436 C 143.138 -0.47825 -1.98726 0
M  V30 1437 C 143.502 0.950397 -1.66828 0
M  V30 1438 O 144.703 1.44109 -2.26905 0
M  V30 1439 C 142.974 -0.721134 -3.50049 0
M  V30 1440 S 144.533 -0.434432 -4.36644 0
M  V30 1441 H 141.351 -0.178773 -0.688158 0
M  V30 1442 H 143.953 -1.11862 -1.60334 0
M  V30 1443 H 142.657 -1.75981 -3.70755 0
M  V30 1444 H 142.188 -0.0675315 -3.93342 0
M  V30 1445 H 144.203 0.735786 -4.90714 0
M  V30 1446 N 143.376 1.44774 -0.622745 0
M  V30 1447 C 144.339 2.29069 0.0774015 0
M  V30 1448 C 145.339 1.4059 0.780461 0
M  V30 1449 O 146.529 1.62551 0.626322 0
M  V30 1450 C 143.661 3.21974 1.12006 0
M  V30 1451 H 144.854 2.92459 -0.663901 0
M  V30 1452 H 142.407 1.51548 -0.382486 0
M  V30 1453 H 143.142 2.63417 1.89162 0
M  V30 1454 H 142.927 3.87168 0.619951 0
M  V30 1455 H 144.417 3.85318 1.60995 0
M  V30 1456 N 144.854 0.36279 1.53368 0
M  V30 1457 C 145.802 -0.500155 2.27159 0
M  V30 1458 C 146.796 -1.08575 1.3003 0
M  V30 1459 O 148.002 -1.02927 1.47668 0
M  V30 1460 H 144.377 -0.180009 0.730138 0
M  V30 1461 H 146.348 0.14401 2.98052 0
M  V30 1462 C 145.097 -1.62937 3.07159 0
M  V30 1463 H 144.42 -1.18806 3.8174 0
M  V30 1464 H 145.86 -2.20795 3.61975 0
M  V30 1465 C 144.319 -2.57007 2.17829 0
M  V30 1466 O 144.849 -3.59752 1.78721 0
M  V30 1467 N 143.055 -2.26131 1.82518 0
M  V30 1468 H 142.602 -1.42616 2.14519 0
M  V30 1469 H 142.56 -2.89327 1.23034 0
M  V30 1470 N 146.332 -1.57332 0.0918853 0
M  V30 1471 C 147.578 -1.94524 -0.573425 0
M  V30 1472 C 147.911 -0.973578 -1.68033 0
M  V30 1473 O 147.186 -0.00609226 -1.94499 0
M  V30 1474 C 147.469 -3.41858 -1.13161 0
M  V30 1475 C 147.322 -4.4979 -0.0299747 0
M  V30 1476 C 148.641 -3.90435 -2.03098 0
M  V30 1477 H 145.76 -0.70734 -0.206975 0
M  V30 1478 H 148.402 -1.89309 0.161942 0
M  V30 1479 H 146.552 -3.46433 -1.7583 0
M  V30 1480 H 148.224 -4.57327 0.604112 0
M  V30 1481 H 146.467 -4.291 0.636833 0
M  V30 1482 H 147.138 -5.50069 -0.461287 0
M  V30 1483 H 149.614 -3.87992 -1.50338 0
M  V30 1484 H 148.49 -4.94097 -2.39081 0
M  V30 1485 H 148.751 -3.29541 -2.94712 0
M  V30 1486 N 147.81 0.181792 -1.56548 0
M  V30 1487 C 149.056 0.901431 -1.81665 0
M  V30 1488 C 149.389 1.82347 -0.668075 0
M  V30 1489 O 148.664 1.91669 0.330615 0
M  V30 1490 C 148.947 1.70618 -3.17115 0
M  V30 1491 C 148.8 0.807964 -4.42484 0
M  V30 1492 C 150.119 2.67605 -3.49393 0
M  V30 1493 H 147.238 0.32627 -0.660846 0
M  V30 1494 H 149.88 0.168134 -1.89255 0
M  V30 1495 H 148.03 2.33133 -3.10775 0
M  V30 1496 H 149.702 0.19649 -4.60881 0
M  V30 1497 H 147.945 0.115411 -4.33646 0
M  V30 1498 H 148.616 1.40632 -5.33785 0
M  V30 1499 H 151.092 2.15218 -3.56118 0
M  V30 1500 H 149.968 3.20985 -4.45264 0
M  V30 1501 H 150.229 3.47298 -2.73563 0
M  V30 1502 N 149.288 1.51039 0.449983 0
M  V30 1503 C 150.534 1.63322 1.20223 0
M  V30 1504 C 150.867 0.34241 1.91158 0
M  V30 1505 O 150.142 -0.657344 1.83055 0
M  V30 1506 C 150.425 2.82801 2.22925 0
M  V30 1507 C 150.278 4.21823 1.56157 0
M  V30 1508 C 151.597 2.97807 3.24035 0
M  V30 1509 H 148.716 0.594407 0.435718 0
M  V30 1510 H 151.358 1.83489 0.493136 0
M  V30 1511 H 149.508 2.65738 2.834 0
M  V30 1512 H 151.18 4.50526 0.991162 0
M  V30 1513 H 149.423 4.25105 0.864172 0
M  V30 1514 H 150.094 5.01391 2.30891 0
M  V30 1515 H 152.57 3.13497 2.73603 0
M  V30 1516 H 151.446 3.82992 3.93202 0
M  V30 1517 H 151.707 2.09328 3.89402 0
M  V30 1518 N 150.766 -0.704594 1.40972 0
M  V30 1519 C 152.014 -1.46169 1.39568 0
M  V30 1520 C 152.335 -1.95 0.00253745 0
M  V30 1521 O 151.605 -1.71095 -0.954114 0
M  V30 1522 H 150.185 -0.542326 0.513704 0
M  V30 1523 H 152.847 -0.834553 1.76128 0
M  V30 1524 H 151.943 -2.32922 2.07735 0
M  V30 1525 N 152.244 -1.26651 -0.937939 0
M  V30 1526 C 153.474 -1.15006 -1.71631 0
M  V30 1527 C 153.882 0.297026 -1.86854 0
M  V30 1528 O 153.225 1.21493 -1.37786 0
M  V30 1529 C 153.287 -1.74984 -3.14039 0
M  V30 1530 C 152.951 -3.24103 -3.2219 0
M  V30 1531 C 153.948 -4.20877 -3.05219 0
M  V30 1532 C 151.633 -3.64625 -3.45476 0
M  V30 1533 C 153.627 -5.56151 -3.11408 0
M  V30 1534 C 151.314 -5.00032 -3.513 0
M  V30 1535 C 152.312 -5.95604 -3.34282 0
M  V30 1536 O 152 -7.28545 -3.3982 0
M  V30 1537 H 151.732 -0.401183 -0.544085 0
M  V30 1538 H 154.286 -1.67832 -1.18413 0
M  V30 1539 H 152.516 -1.16624 -3.68695 0
M  V30 1540 H 154.205 -1.58199 -3.73802 0
M  V30 1541 H 154.971 -3.90908 -2.87081 0
M  V30 1542 H 150.85 -2.90718 -3.57777 0
M  V30 1543 H 154.394 -6.30727 -2.98043 0
M  V30 1544 H 150.291 -5.29659 -3.68959 0
M  V30 1545 H 151.059 -7.3686 -3.56343 0
M  V30 1546 N 153.722 1.14298 -1.08507 0
M  V30 1547 C 154.97 1.84993 -0.813763 0
M  V30 1548 C 155.291 1.83405 0.662393 0
M  V30 1549 O 154.561 1.28319 1.48024 0
M  V30 1550 H 153.141 0.684966 -0.298045 0
M  V30 1551 H 155.803 1.385 -1.37126 0
M  V30 1552 H 154.899 2.89788 -1.15884 0
M  V30 1553 N 155.201 0.870884 1.31352 0
M  V30 1554 C 156.447 0.482987 1.96965 0
M  V30 1555 C 156.78 -0.962462 1.68672 0
M  V30 1556 O 156.055 -1.6779 0.98371 0
M  V30 1557 C 156.338 0.741752 3.52378 0
M  V30 1558 C 156.191 2.2368 3.9024 0
M  V30 1559 C 157.51 0.208838 4.39604 0
M  V30 1560 H 154.629 0.176955 0.715441 0
M  V30 1561 H 157.271 1.09229 1.55464 0
M  V30 1562 H 155.421 0.223149 3.87859 0
M  V30 1563 H 157.093 2.82273 3.64856 0
M  V30 1564 H 155.336 2.70901 3.38814 0
M  V30 1565 H 156.007 2.3685 4.98604 0
M  V30 1566 H 158.483 0.652529 4.10952 0
M  V30 1567 H 157.359 0.419336 5.47296 0
M  V30 1568 H 157.62 -0.889275 4.33064 0
M  V30 1569 N 156.679 -1.44442 0.630414 0
M  V30 1570 C 157.925 -2.02894 0.143332 0
M  V30 1571 C 158.28 -1.48697 -1.22094 0
M  V30 1572 O 157.573 -0.661171 -1.79831 0
M  V30 1573 C 157.767 -3.57332 0.0697835 0
M  V30 1574 C 157.596 -4.26512 1.42539 0
M  V30 1575 C 156.366 -4.63516 2.01198 0
M  V30 1576 C 158.564 -4.57004 2.35907 0
M  V30 1577 N 156.546 -5.17661 3.30001 0
M  V30 1578 C 157.917 -5.12223 3.49324 0
M  V30 1579 C 159.972 -4.38955 2.34995 0
M  V30 1580 C 158.675 -5.51295 4.62024 0
M  V30 1581 C 160.701 -4.79075 3.46758 0
M  V30 1582 C 160.063 -5.34407 4.58899 0
M  V30 1583 H 156.162 -0.776041 0.0963523 0
M  V30 1584 H 158.746 -1.75945 0.833752 0
M  V30 1585 H 156.917 -3.83894 -0.589915 0
M  V30 1586 H 158.649 -4.02451 -0.42606 0
M  V30 1587 H 155.404 -4.47811 1.54151 0
M  V30 1588 H 155.828 -5.4921 3.95851 0
M  V30 1589 H 160.47 -3.95469 1.49545 0
M  V30 1590 H 158.188 -5.93736 5.48182 0
M  V30 1591 H 161.774 -4.66824 3.47227 0
M  V30 1592 H 160.654 -5.64878 5.4395 0
M  V30 1593 N 158.157 -0.370918 -1.53173 0
M  V30 1594 C 159.568 0.107139 -1.86392 0
M  V30 1595 C 159.919 1.47714 -1.29132 0
M  V30 1596 O 159.044 2.07464 -0.615439 0
M  V30 1597 C 159.639 0.201187 -3.38202 0
M  V30 1598 C 158.198 0.623507 -3.712 0
M  V30 1599 C 157.345 -0.225978 -2.76378 0
M  V30 1600 H 160.296 -0.58951 -1.47345 0
M  V30 1601 H 160.317 1.02377 -3.66468 0
M  V30 1602 H 159.829 -0.796058 -3.79848 0
M  V30 1603 H 157.93 1.62879 -3.35114 0
M  V30 1604 H 158.043 0.394414 -4.77474 0
M  V30 1605 H 156.407 0.305962 -2.52856 0
M  V30 1606 H 157.19 -1.22086 -3.20858 0
M  V30 1607 N 159.635 1.57281 -0.100228 0
M  V30 1608 C 160.912 1.86014 0.604812 0
M  V30 1609 C 161.292 0.998025 1.86018 0
M  V30 1610 O 160.64 0.0718184 2.28387 0
M  V30 1611 C 160.85 3.36784 0.915278 0
M  V30 1612 C 162.198 4.04957 1.27651 0
M  V30 1613 O 163.222 3.41695 1.00613 0
M  V30 1614 O 162.081 5.16593 1.7831 0
M  V30 1615 H 159.175 0.76942 0.303185 0
M  V30 1616 H 161.721 1.69176 -0.133313 0
M  V30 1617 H 160.493 3.91292 0.0248896 0
M  V30 1618 H 160.116 3.58987 1.70921 0
M  V30 1619 N 161.113 -0.173488 1.56642 0
M  V30 1620 C 162.343 -0.904781 1.85734 0
M  V30 1621 C 162.751 -1.76431 0.68328 0
M  V30 1622 O 162.094 -1.802 -0.356865 0
M  V30 1623 C 162.156 -1.83382 3.09211 0
M  V30 1624 C 161.82 -1.15411 4.42187 0
M  V30 1625 C 162.817 -0.520609 5.17287 0
M  V30 1626 C 160.502 -1.15151 4.88923 0
M  V30 1627 C 162.496 0.106412 6.37311 0
M  V30 1628 C 160.183 -0.520664 6.08878 0
M  V30 1629 C 161.181 0.107196 6.82916 0
M  V30 1630 O 160.869 0.728102 8.00596 0
M  V30 1631 H 160.601 -0.268408 0.62043 0
M  V30 1632 H 163.155 -0.179096 2.04618 0
M  V30 1633 H 161.385 -2.59976 2.86268 0
M  V30 1634 H 163.074 -2.43476 3.24768 0
M  V30 1635 H 163.84 -0.514606 4.82262 0
M  V30 1636 H 159.719 -1.62961 4.31236 0
M  V30 1637 H 163.263 0.597081 6.9504 0
M  V30 1638 H 159.16 -0.524242 6.43368 0
M  V30 1639 H 159.928 0.627138 8.16094 0
M  V30 1640 N 162.591 -1.51276 -0.441967 0
M  V30 1641 C 163.521 -1.752 -1.54361 0
M  V30 1642 C 164.502 -0.601682 -1.59103 0
M  V30 1643 O 165.687 -0.843913 -1.74905 0
M  V30 1644 C 162.817 -1.87282 -2.92477 0
M  V30 1645 C 161.771 -3.02687 -3.02596 0
M  V30 1646 C 161.097 -2.99947 -4.42647 0
M  V30 1647 C 162.397 -4.4273 -2.77106 0
M  V30 1648 H 164.091 -2.67442 -1.34592 0
M  V30 1649 H 161.637 -1.28694 -0.646048 0
M  V30 1650 H 163.59 -2.02602 -3.695 0
M  V30 1651 H 162.314 -0.916844 -3.13467 0
M  V30 1652 H 160.973 -2.87065 -2.28012 0
M  V30 1653 H 160.621 -2.02136 -4.60597 0
M  V30 1654 H 160.321 -3.77439 -4.50348 0
M  V30 1655 H 161.845 -3.17354 -5.2165 0
M  V30 1656 H 163.259 -4.58727 -3.43864 0
M  V30 1657 H 161.656 -5.21893 -2.96222 0
M  V30 1658 H 162.726 -4.53087 -1.72744 0
M  V30 1659 N 164.069 0.697108 -1.41344 0
M  V30 1660 C 165.016 1.81106 -1.43071 0
M  V30 1661 C 165.986 1.63632 -0.285275 0
M  V30 1662 O 167.171 1.84504 -0.486091 0
M  V30 1663 C 164.311 3.18975 -1.31715 0
M  V30 1664 C 163.424 3.47892 -2.56115 0
M  V30 1665 C 162.559 4.75367 -2.37064 0
M  V30 1666 C 161.598 4.97247 -3.56948 0
M  V30 1667 N 160.735 6.15947 -3.36977 0
M  V30 1668 H 165.575 1.78965 -2.38276 0
M  V30 1669 H 163.112 0.873975 -1.18322 0
M  V30 1670 H 165.07 3.98615 -1.23133 0
M  V30 1671 H 163.7 3.20297 -0.401183 0
M  V30 1672 H 162.752 2.62669 -2.75153 0
M  V30 1673 H 164.064 3.59962 -3.45295 0
M  V30 1674 H 163.218 5.63059 -2.25941 0
M  V30 1675 H 161.957 4.65541 -1.45338 0
M  V30 1676 H 160.962 4.08004 -3.68527 0
M  V30 1677 H 162.187 5.08934 -4.49626 0
M  V30 1678 H 160.133 6.07336 -2.47949 0
M  V30 1679 H 160.05 6.28777 -4.19732 0
M  V30 1680 H 161.318 7.06377 -3.29623 0
M  V30 1681 N 165.547 1.27147 0.931209 0
M  V30 1682 C 166.824 1.0401 1.65654 0
M  V30 1683 C 167.204 -0.426297 2.06751 0
M  V30 1684 O 166.552 -1.40879 1.79904 0
M  V30 1685 C 166.762 1.99834 2.86125 0
M  V30 1686 C 168.11 2.29007 3.57549 0
M  V30 1687 O 169.134 1.97779 2.96246 0
M  V30 1688 O 167.993 2.82222 4.67989 0
M  V30 1689 H 165.087 0.396239 0.725895 0
M  V30 1690 H 167.633 1.38397 0.982056 0
M  V30 1691 H 166.405 2.98744 2.52721 0
M  V30 1692 H 166.028 1.65987 3.61295 0
M  V30 1693 N 167.025 -1.13721 1.09112 0
M  V30 1694 C 168.25 -1.89314 0.847053 0
M  V30 1695 C 168.675 -1.78416 -0.595774 0
M  V30 1696 O 168.033 -1.12942 -1.41823 0
M  V30 1697 C 168.081 -3.3701 1.28284 0
M  V30 1698 O 167.185 -4.10054 0.439267 0
M  V30 1699 H 166.526 -0.588745 0.307044 0
M  V30 1700 H 169.056 -1.43902 1.45442 0
M  V30 1701 H 169.066 -3.87834 1.26683 0
M  V30 1702 H 167.741 -3.4426 2.33363 0
M  V30 1703 H 166.318 -3.69266 0.519312 0
M  V30 1704 N 168.503 -0.877838 -1.30888 0
M  V30 1705 C 169.413 -0.343096 -2.32078 0
M  V30 1706 C 170.429 0.551022 -1.65045 0
M  V30 1707 O 171.605 0.445854 -1.96403 0
M  V30 1708 C 168.67 0.439905 -3.43898 0
M  V30 1709 C 167.731 -0.483111 -4.26573 0
M  V30 1710 C 166.964 0.262616 -5.33053 0
M  V30 1711 O 167.187 1.48967 -5.50604 0
M  V30 1712 O 166.121 -0.383593 -6.00676 0
M  V30 1713 H 169.947 -1.18203 -2.79753 0
M  V30 1714 H 167.532 -0.64145 -1.34929 0
M  V30 1715 H 169.414 0.883504 -4.12034 0
M  V30 1716 H 168.089 1.25526 -2.98371 0
M  V30 1717 H 166.996 -0.975374 -3.61161 0
M  V30 1718 H 168.329 -1.26427 -4.75686 0
M  V30 1719 N 169.982 1.44106 -0.638065 0
M  V30 1720 C 170.945 2.29138 0.0531013 0
M  V30 1721 C 171.945 1.41409 0.765506 0
M  V30 1722 O 173.135 1.63206 0.609046 0
M  V30 1723 C 170.267 3.23144 1.08584 0
M  V30 1724 H 171.46 2.91739 -0.694883 0
M  V30 1725 H 169.013 1.51134 -0.398538 0
M  V30 1726 H 169.748 2.65408 1.86357 0
M  V30 1727 H 169.533 3.87804 0.578852 0
M  V30 1728 H 171.023 3.87004 1.56899 0
M  V30 1729 N 171.46 0.379036 1.52974 0
M  V30 1730 C 172.688 -0.20679 2.05864 0
M  V30 1731 C 173.103 -1.41356 1.25155 0
M  V30 1732 O 172.46 -1.8009 0.295588 0
M  V30 1733 C 172.511 -0.587045 3.56702 0
M  V30 1734 O 172.232 0.571776 4.34353 0
M  V30 1735 C 173.733 -1.22983 4.25899 0
M  V30 1736 H 170.953 -0.0336123 0.670158 0
M  V30 1737 H 173.497 0.541298 1.97206 0
M  V30 1738 H 171.652 -1.28504 3.65466 0
M  V30 1739 H 172.066 0.261544 5.23847 0
M  V30 1740 H 173.54 -1.44635 5.32715 0
M  V30 1741 H 174.017 -2.19416 3.80465 0
M  V30 1742 H 174.623 -0.572892 4.21424 0
M  V30 1743 N 172.938 -1.57226 0.108567 0
M  V30 1744 C 173.901 -2.13602 -0.831082 0
M  V30 1745 C 174.901 -1.06841 -1.20173 0
M  V30 1746 O 176.091 -1.32666 -1.12895 0
M  V30 1747 C 173.223 -2.66769 -2.12243 0
M  V30 1748 H 174.416 -2.97951 -0.341317 0
M  V30 1749 H 171.969 -1.55667 -0.14057 0
M  V30 1750 H 172.704 -1.85977 -2.65675 0
M  V30 1751 H 172.489 -3.44839 -1.86625 0
M  V30 1752 H 173.979 -3.10332 -2.79435 0
M  V30 1753 N 174.416 0.165178 -1.56732 0
M  V30 1754 C 175.326 1.22423 -2.00125 0
M  V30 1755 C 176.342 1.48084 -0.913619 0
M  V30 1756 O 177.518 1.60112 -1.22172 0
M  V30 1757 C 174.583 2.54197 -2.35764 0
M  V30 1758 C 173.644 2.36343 -3.58386 0
M  V30 1759 C 172.877 3.61834 -3.92316 0
M  V30 1760 O 173.1 4.67267 -3.27135 0
M  V30 1761 O 172.034 3.55579 -4.85641 0
M  V30 1762 H 175.86 0.885886 -2.90492 0
M  V30 1763 H 173.445 0.372518 -1.44681 0
M  V30 1764 H 175.327 3.3192 -2.59629 0
M  V30 1765 H 174.002 2.87598 -1.48557 0
M  V30 1766 H 172.909 1.56632 -3.39731 0
M  V30 1767 H 174.242 2.07865 -4.46154 0
M  V30 1768 N 175.894 1.51508 0.433938 0
M  V30 1769 C 177.171 1.54888 1.19453 0
M  V30 1770 C 177.551 0.315154 2.08734 0
M  V30 1771 O 176.899 -0.699558 2.17528 0
M  V30 1772 C 177.109 2.86467 1.99342 0
M  V30 1773 C 178.457 3.38545 2.56267 0
M  V30 1774 O 179.481 2.88041 2.0955 0
M  V30 1775 O 178.34 4.26675 3.41483 0
M  V30 1776 H 175.434 0.622863 0.544032 0
M  V30 1777 H 177.98 1.63823 0.442732 0
M  V30 1778 H 176.752 3.67718 1.33788 0
M  V30 1779 H 176.375 2.8071 2.8158 0
M  V30 1780 N 177.372 -0.689602 1.41712 0
M  V30 1781 C 178.304 -1.815 1.39966 0
M  V30 1782 C 179.317 -1.59995 0.300917 0
M  V30 1783 O 180.506 -1.69387 0.563039 0
M  V30 1784 C 177.606 -3.18364 1.16179 0
M  V30 1785 C 176.779 -3.66847 2.38206 0
M  V30 1786 C 175.838 -4.82398 2.10186 0
M  V30 1787 O 174.864 -4.93706 2.83272 0
M  V30 1788 N 176.066 -5.70064 1.0958 0
M  V30 1789 H 178.831 -1.83488 2.36965 0
M  V30 1790 H 176.392 -0.872149 1.36401 0
M  V30 1791 H 178.384 -3.93301 0.953756 0
M  V30 1792 H 176.954 -3.11365 0.27756 0
M  V30 1793 H 176.174 -2.82751 2.74673 0
M  V30 1794 H 177.462 -3.95978 3.19498 0
M  V30 1795 H 176.86 -5.63565 0.491019 0
M  V30 1796 H 175.417 -6.44874 0.947656 0
M  V30 1797 N 178.85 -1.27639 -0.924453 0
M  V30 1798 C 180.261 -1.12834 -1.48746 0
M  V30 1799 C 180.612 0.285505 -1.94112 0
M  V30 1800 O 179.737 1.17874 -1.81479 0
M  V30 1801 C 180.332 -2.04217 -2.70334 0
M  V30 1802 C 178.891 -1.93509 -3.22848 0
M  V30 1803 C 178.038 -1.96583 -1.95577 0
M  V30 1804 H 180.989 -1.40484 -0.738233 0
M  V30 1805 H 181.01 -1.59989 -3.4523 0
M  V30 1806 H 180.522 -3.07111 -2.37285 0
M  V30 1807 H 178.623 -0.936131 -3.60649 0
M  V30 1808 H 178.736 -2.79917 -3.88823 0
M  V30 1809 H 177.1 -1.4085 -2.12211 0
M  V30 1810 H 177.883 -3.01137 -1.64837 0
M  V30 1811 N 180.328 1.1314 -1.09713 0
M  V30 1812 C 181.556 1.88321 -0.856898 0
M  V30 1813 C 181.971 1.79276 0.592073 0
M  V30 1814 O 181.328 1.16142 1.40774 0
M  V30 1815 C 181.379 3.37812 -1.28706 0
M  V30 1816 O 181.1 3.46627 -2.67921 0
M  V30 1817 C 182.601 4.29952 -1.07964 0
M  V30 1818 H 179.821 0.596094 -0.308079 0
M  V30 1819 H 182.365 1.43205 -1.45988 0
M  V30 1820 H 180.52 3.805 -0.727912 0
M  V30 1821 H 180.934 4.39579 -2.8613 0
M  V30 1822 H 182.408 5.33159 -1.42986 0
M  V30 1823 H 182.885 4.39196 -0.0176577 0
M  V30 1824 H 183.491 3.93036 -1.62489 0
M  V30 1825 N 181.806 0.884767 1.30421 0
M  V30 1826 C 182.738 0.308655 2.27112 0
M  V30 1827 C 183.751 -0.536655 1.53701 0
M  V30 1828 O 184.94 -0.35624 1.74909 0
M  V30 1829 C 182.04 -0.579782 3.33904 0
M  V30 1830 C 181.213 0.236417 4.36761 0
M  V30 1831 C 180.272 -0.582482 5.22966 0
M  V30 1832 O 179.298 -0.00525502 5.692 0
M  V30 1833 N 180.5 -1.89163 5.48815 0
M  V30 1834 H 183.265 1.13964 2.77186 0
M  V30 1835 H 180.826 0.747731 1.43599 0
M  V30 1836 H 182.818 -1.13366 3.88497 0
M  V30 1837 H 181.388 -1.31144 2.83761 0
M  V30 1838 H 180.608 0.97174 3.82035 0
M  V30 1839 H 181.896 0.795924 5.02536 0
M  V30 1840 H 181.294 -2.38352 5.13035 0
M  V30 1841 H 179.851 -2.39296 6.06284 0
M  V30 1842 N 183.284 -1.43765 0.645699 0
M  V30 1843 C 184.695 -1.85193 0.236719 0
M  V30 1844 C 185.046 -1.54045 -1.21509 0
M  V30 1845 O 184.171 -0.985694 -1.92647 0
M  V30 1846 C 184.766 -3.36151 0.422845 0
M  V30 1847 C 183.325 -3.76338 0.0682492 0
M  V30 1848 C 182.472 -2.67538 0.729306 0
M  V30 1849 H 185.423 -1.34025 0.849883 0
M  V30 1850 H 185.444 -3.79032 -0.333904 0
M  V30 1851 H 184.956 -3.5879 1.47958 0
M  V30 1852 H 183.057 -3.59312 -0.986179 0
M  V30 1853 H 183.17 -4.76603 0.488469 0
M  V30 1854 H 181.534 -2.54176 0.163235 0
M  V30 1855 H 182.317 -2.93006 1.78892 0
M  V30 1856 N 184.763 -0.387143 -1.52771 0
M  V30 1857 C 186.04 0.253197 -1.93954 0
M  V30 1858 C 186.42 1.64545 -1.32243 0
M  V30 1859 O 185.768 2.23191 -0.489699 0
M  V30 1860 C 185.978 0.281722 -3.47861 0
M  V30 1861 C 187.326 0.511715 -4.21505 0
M  V30 1862 O 188.35 0.362023 -3.54356 0
M  V30 1863 O 187.209 0.804847 -5.40541 0
M  V30 1864 H 184.303 0.156845 -0.811991 0
M  V30 1865 H 186.849 -0.441494 -1.63856 0
M  V30 1866 H 185.621 -0.693571 -3.85104 0
M  V30 1867 H 185.244 1.02142 -3.84256 0
M  V30 1868 N 186.241 1.57166 -0.116904 0
M  V30 1869 C 187.487 1.95412 0.542405 0
M  V30 1870 C 187.82 1.00019 1.66463 0
M  V30 1871 O 187.095 0.0370346 1.94465 0
M  V30 1872 C 187.378 3.43615 1.07708 0
M  V30 1873 C 187.231 4.49781 -0.0415868 0
M  V30 1874 C 188.55 3.93616 1.96861 0
M  V30 1875 H 185.669 0.710543 0.195696 0
M  V30 1876 H 188.311 1.89027 -0.192038 0
M  V30 1877 H 186.461 3.49187 1.70296 0
M  V30 1878 H 188.133 4.56308 -0.676793 0
M  V30 1879 H 186.376 4.28033 -0.705019 0
M  V30 1880 H 187.047 5.50733 0.373717 0
M  V30 1881 H 189.523 3.90335 1.44146 0
M  V30 1882 H 188.399 4.97838 2.3119 0
M  V30 1883 H 188.66 3.34188 2.89432 0
M  V30 1884 N 187.719 -0.156864 1.56817 0
M  V30 1885 C 188.682 -1.17781 1.96622 0
M  V30 1886 C 189.682 -1.36401 0.851555 0
M  V30 1887 O 190.872 -1.33561 1.11836 0
M  V30 1888 C 188.004 -2.54008 2.27361 0
M  V30 1889 H 189.197 -0.836564 2.87996 0
M  V30 1890 H 186.75 -0.39985 1.51099 0
M  V30 1891 H 187.485 -2.9312 1.38748 0
M  V30 1892 H 187.27 -2.41856 3.08623 0
M  V30 1893 H 188.76 -3.27558 2.59029 0
M  V30 1894 N 189.197 -1.51736 -0.425897 0
M  V30 1895 C 190.425 -1.68794 -1.1965 0
M  V30 1896 C 190.84 -0.390164 -1.84725 0
M  V30 1897 O 190.197 0.632376 -1.71194 0
M  V30 1898 C 190.248 -2.81174 -2.27208 0
M  V30 1899 O 189.969 -4.05925 -1.64793 0
M  V30 1900 C 191.47 -3.09599 -3.17275 0
M  V30 1901 H 188.69 -0.566128 -0.360194 0
M  V30 1902 H 191.234 -1.98211 -0.503249 0
M  V30 1903 H 189.389 -2.54324 -2.9223 0
M  V30 1904 H 189.803 -4.68423 -2.35967 0
M  V30 1905 H 191.277 -3.91786 -3.88854 0
M  V30 1906 H 191.754 -2.22468 -3.78688 0
M  V30 1907 H 192.36 -3.38151 -2.57941 0
M  V30 1908 N 190.675 0.682077 -1.42076 0
M  V30 1909 C 191.915 1.45424 -1.43636 0
M  V30 1910 C 192.279 1.91939 -0.0484001 0
M  V30 1911 O 193.48 2.6873 0.0612514 0
M  V30 1912 C 191.751 2.62427 -2.42625 0
M  V30 1913 S 193.31 3.51379 -2.62827 0
M  V30 1914 H 190.128 0.496779 -0.508657 0
M  V30 1915 H 192.73 0.794645 -1.78621 0
M  V30 1916 H 191.434 2.26481 -3.42249 0
M  V30 1917 H 190.965 3.33266 -2.09039 0
M  V30 1918 H 192.98 4.58141 -1.9058 0
M  V30 1919 N 192.153 1.28127 0.917671 0
M  V30 1920 C 193.569 1.05749 1.19538 0
M  V30 1921 C 193.769 -0.202633 2.00479 0
M  V30 1922 O 192.825 -0.905382 2.3571 0
M  V30 1923 C 194.138 2.30273 1.93378 0
M  V30 1924 C 195.686 2.35412 2.06277 0
M  V30 1925 C 196.161 3.59692 2.83524 0
M  V30 1926 N 197.652 3.60309 2.91087 0
M  V30 1927 C 198.387 4.53147 3.51348 0
M  V30 1928 N 197.883 5.563 4.12919 0
M  V30 1929 N 199.676 4.40751 3.48849 0
M  V30 1930 H 191.827 2.09024 0.377184 0
M  V30 1931 H 194.09 0.919798 0.22951 0
M  V30 1932 H 193.796 3.22055 1.41328 0
M  V30 1933 H 193.67 2.36378 2.93947 0
M  V30 1934 H 196.057 1.4413 2.57508 0
M  V30 1935 H 196.138 2.33304 1.04895 0
M  V30 1936 H 195.782 4.51316 2.32973 0
M  V30 1937 H 195.712 3.59054 3.85211 0
M  V30 1938 H 198.203 2.85714 2.47338 0
M  V30 1939 H 198.516 6.2329 4.56869 0
M  V30 1940 H 196.861 5.60131 4.11435 0
M  V30 1941 H 200.052 3.59367 2.99955 0
M  V30 1942 H 200.225 5.13291 3.9552 0
M  V30 1943 N 193.631 -1.12557 1.10312 0
M  V30 1944 C 194.878 -1.84038 0.844759 0
M  V30 1945 C 195.206 -1.84026 -0.629668 0
M  V30 1946 O 194.461 -1.28026 -1.48013 0
M  V30 1947 C 194.76 -3.31462 1.33669 0
M  V30 1948 C 194.426 -3.51647 2.82232 0
M  V30 1949 C 193.088 -3.56864 3.22802 0
M  V30 1950 C 195.44 -3.58867 3.77974 0
M  V30 1951 C 192.768 -3.66844 4.57867 0
M  V30 1952 C 195.12 -3.70375 5.1284 0
M  V30 1953 C 193.784 -3.73848 5.52986 0
M  V30 1954 H 193.054 -0.673444 0.309119 0
M  V30 1955 H 195.701 -1.32824 1.37949 0
M  V30 1956 H 194.006 -3.85091 0.721949 0
M  V30 1957 H 195.703 -3.85236 1.11329 0
M  V30 1958 H 192.293 -3.48249 2.49842 0
M  V30 1959 H 196.477 -3.54107 3.47738 0
M  V30 1960 H 191.733 -3.67804 4.88396 0
M  V30 1961 H 195.907 -3.74904 5.86873 0
M  V30 1962 H 193.534 -3.81333 6.57639 0
M  V30 1963 N 195.109 -0.891671 -1.2995 0
M  V30 1964 C 196.339 -0.527893 -1.99742 0
M  V30 1965 C 196.747 0.88979 -1.66971 0
M  V30 1966 O 196.09 1.59766 -0.906667 0
M  V30 1967 C 196.152 -0.630804 -3.53922 0
M  V30 1968 C 195.816 -2.01401 -4.10228 0
M  V30 1969 C 196.813 -2.98422 -4.25724 0
M  V30 1970 C 194.498 -2.32121 -4.45449 0
M  V30 1971 C 196.492 -4.24293 -4.75662 0
M  V30 1972 C 194.179 -3.58237 -4.95086 0
M  V30 1973 C 195.177 -4.54137 -5.10146 0
M  V30 1974 O 194.865 -5.78014 -5.58708 0
M  V30 1975 H 194.597 -0.201953 -0.645129 0
M  V30 1976 H 197.151 -1.20076 -1.66646 0
M  V30 1977 H 195.381 0.0990616 -3.86573 0
M  V30 1978 H 197.07 -0.277338 -4.04951 0
M  V30 1979 H 197.836 -2.76001 -3.98809 0
M  V30 1980 H 193.715 -1.5824 -4.32991 0
M  V30 1981 H 197.259 -4.99153 -4.87332 0
M  V30 1982 H 193.156 -3.80491 -5.21437 0
M  V30 1983 H 193.924 -5.8049 -5.77039 0
M  V30 1984 N 196.587 1.43421 -0.653314 0
M  V30 1985 C 197.815 2.06163 -0.174491 0
M  V30 1986 C 198.23 1.48969 1.1599 0
M  V30 1987 O 197.587 0.621042 1.71608 0
M  V30 1988 C 197.638 3.61417 -0.0774865 0
M  V30 1989 O 197.359 4.16485 -1.35912 0
M  V30 1990 C 198.86 4.41235 0.427402 0
M  V30 1991 H 196.08 0.664946 -0.0899353 0
M  V30 1992 H 198.624 1.83924 -0.893988 0
M  V30 1993 H 196.779 3.82841 0.59257 0
M  V30 1994 H 197.193 5.10153 -1.21839 0
M  V30 1995 H 198.667 5.5021 0.44423 0
M  V30 1996 H 199.144 4.14268 1.45873 0
M  V30 1997 H 199.75 4.2478 -0.210167 0
M  V30 1998 N 198.065 0.39524 1.52563 0
M  V30 1999 C 198.995 -0.428384 2.29537 0
M  V30 2000 C 199.976 -1.05831 1.33169 0
M  V30 2001 O 201.161 -1.06995 1.62067 0
M  V30 2002 C 198.291 -1.55274 3.10656 0
M  V30 2003 C 197.245 -1.04855 4.14957 0
M  V30 2004 C 196.571 -2.26543 4.84337 0
M  V30 2005 C 197.871 -0.112324 5.22179 0
M  V30 2006 H 199.565 0.213867 2.98635 0
M  V30 2007 H 197.111 0.104298 1.43622 0
M  V30 2008 H 199.064 -2.1358 3.63265 0
M  V30 2009 H 197.788 -2.22266 2.39302 0
M  V30 2010 H 196.447 -0.487985 3.63338 0
M  V30 2011 H 196.095 -2.92059 4.09525 0
M  V30 2012 H 195.795 -1.93466 5.54837 0
M  V30 2013 H 197.319 -2.85481 5.39753 0
M  V30 2014 H 198.733 -0.603752 5.70112 0
M  V30 2015 H 197.13 0.128968 5.99961 0
M  V30 2016 H 198.2 0.837052 4.77621 0
M  V30 2017 N 199.544 -1.57102 0.125237 0
M  V30 2018 C 200.821 -1.86953 -0.575142 0
M  V30 2019 C 201.201 -1.02749 -1.84407 0
M  V30 2020 O 200.549 -0.108144 -2.28244 0
M  V30 2021 C 200.759 -3.38198 -0.861583 0
M  V30 2022 C 202.107 -4.06937 -1.21192 0
M  V30 2023 O 203.131 -3.43252 -0.951645 0
M  V30 2024 O 201.99 -5.19364 -1.70068 0
M  V30 2025 H 199.084 -0.774147 -0.290906 0
M  V30 2026 H 201.63 -1.68942 0.160211 0
M  V30 2027 H 200.402 -3.91282 0.0373647 0
M  V30 2028 H 200.025 -3.61661 -1.65188 0
M  V30 2029 N 201.022 0.148545 -1.56898 0
M  V30 2030 C 202.247 0.880385 -1.87787 0
M  V30 2031 C 202.672 1.74018 -0.714093 0
M  V30 2032 O 202.03 1.78153 0.336343 0
M  V30 2033 C 202.078 1.71422 -3.17249 0
M  V30 2034 O 201.182 2.8183 -3.01074 0
M  V30 2035 H 200.523 0.245301 -0.617028 0
M  V30 2036 H 203.053 0.139826 -2.04122 0
M  V30 2037 H 203.063 2.10954 -3.49231 0
M  V30 2038 H 201.738 1.08284 -4.01556 0
M  V30 2039 H 200.315 2.45715 -2.80497 0
M  V30 2040 N 202.5 1.5196 0.417844 0
M  V30 2041 C 203.746 1.65836 1.16732 0
M  V30 2042 C 204.079 0.382881 1.90388 0
M  V30 2043 O 203.354 -0.618368 1.84408 0
M  V30 2044 C 203.637 2.87466 2.16876 0
M  V30 2045 C 203.49 4.25041 1.47174 0
M  V30 2046 C 204.809 3.04613 3.17646 0
M  V30 2047 H 201.928 0.603515 0.423011 0
M  V30 2048 H 204.57 1.84494 0.454105 0
M  V30 2049 H 202.72 2.71689 2.777 0
M  V30 2050 H 204.392 4.52527 0.895376 0
M  V30 2051 H 202.635 4.26843 0.773806 0
M  V30 2052 H 203.306 5.06176 2.20204 0
M  V30 2053 H 205.782 3.1923 2.66892 0
M  V30 2054 H 204.658 3.91247 3.8499 0
M  V30 2055 H 204.919 2.17541 3.84874 0
M  V30 2056 N 203.978 -0.674533 1.42435 0
M  V30 2057 C 204.91 -1.80005 1.41883 0
M  V30 2058 C 205.923 -1.59667 0.31787 0
M  V30 2059 O 207.112 -1.68781 0.580973 0
M  V30 2060 C 204.212 -3.17114 1.19549 0
M  V30 2061 C 203.385 -3.64299 2.42084 0
M  V30 2062 C 202.444 -4.80142 2.15291 0
M  V30 2063 O 201.47 -4.90673 2.88493 0
M  V30 2064 N 202.672 -5.68869 1.1562 0
M  V30 2065 H 205.437 -1.80964 2.38898 0
M  V30 2066 H 202.998 -0.857633 1.37318 0
M  V30 2067 H 204.99 -3.92267 0.995417 0
M  V30 2068 H 203.56 -3.11053 0.310569 0
M  V30 2069 H 202.78 -2.79822 2.77657 0
M  V30 2070 H 204.068 -3.92567 3.23679 0
M  V30 2071 H 203.466 -5.63012 0.550765 0
M  V30 2072 H 202.023 -6.43833 1.016 0
M  V30 2073 N 205.456 -1.28612 -0.910864 0
M  V30 2074 C 206.702 -1.17116 -1.66299 0
M  V30 2075 C 207.057 0.276917 -1.90397 0
M  V30 2076 O 206.35 1.19795 -1.49532 0
M  V30 2077 C 206.544 -1.90624 -3.0232 0
M  V30 2078 C 206.373 -3.42431 -2.91498 0
M  V30 2079 C 205.143 -4.11773 -2.92867 0
M  V30 2080 C 207.341 -4.38124 -2.69355 0
M  V30 2081 N 205.323 -5.50025 -2.72664 0
M  V30 2082 C 206.694 -5.63759 -2.58023 0
M  V30 2083 C 208.749 -4.28016 -2.54375 0
M  V30 2084 C 207.452 -6.80436 -2.33238 0
M  V30 2085 C 209.478 -5.44433 -2.30969 0
M  V30 2086 C 208.84 -6.69034 -2.20394 0
M  V30 2087 H 204.939 -0.483506 -0.61461 0
M  V30 2088 H 207.523 -1.62299 -1.0755 0
M  V30 2089 H 205.694 -1.4787 -3.5915 0
M  V30 2090 H 207.426 -1.71488 -3.66571 0
M  V30 2091 H 204.181 -3.63378 -3.03732 0
M  V30 2092 H 204.605 -6.22705 -2.65646 0
M  V30 2093 H 209.247 -3.32388 -2.613 0
M  V30 2094 H 206.965 -7.7613 -2.25051 0
M  V30 2095 H 210.551 -5.38504 -2.20238 0
M  V30 2096 H 209.431 -7.57595 -2.02531 0
M  V30 2097 N 206.934 1.1197 -1.10907 0
M  V30 2098 C 207.866 2.17592 -0.720175 0
M  V30 2099 C 208.879 1.60938 0.245495 0
M  V30 2100 O 210.068 1.78476 0.0292245 0
M  V30 2101 C 207.168 3.38873 -0.0427917 0
M  V30 2102 C 206.341 4.25006 -1.03388 0
M  V30 2103 C 205.4 5.24774 -0.387075 0
M  V30 2104 O 204.426 5.59631 -1.03934 0
M  V30 2105 N 205.628 5.74208 0.852407 0
M  V30 2106 H 208.393 2.51567 -1.62893 0
M  V30 2107 H 205.954 1.27439 -0.998543 0
M  V30 2108 H 207.946 4.02703 0.401501 0
M  V30 2109 H 206.516 3.03007 0.768456 0
M  V30 2110 H 205.736 3.57716 -1.65629 0
M  V30 2111 H 207.024 4.79397 -1.70458 0
M  V30 2112 H 206.422 5.48062 1.40161 0
M  V30 2113 H 204.979 6.39901 1.23977 0
M  V30 2114 N 208.412 0.89855 1.29475 0
M  V30 2115 C 209.359 0.373819 2.27753 0
M  V30 2116 C 210.329 -0.543444 1.56958 0
M  V30 2117 O 211.514 -0.468934 1.84948 0
M  V30 2118 C 208.654 -0.393648 3.42848 0
M  V30 2119 C 207.767 0.554379 4.28428 0
M  V30 2120 C 206.902 -0.230026 5.30702 0
M  V30 2121 C 205.941 0.712599 6.07938 0
M  V30 2122 N 205.078 -0.0373283 7.0209 0
M  V30 2123 H 209.918 1.21699 2.72017 0
M  V30 2124 H 207.455 0.611456 1.33789 0
M  V30 2125 H 209.413 -0.85466 4.08352 0
M  V30 2126 H 208.043 -1.20128 2.99615 0
M  V30 2127 H 207.095 1.13391 3.63107 0
M  V30 2128 H 208.407 1.27597 4.82204 0
M  V30 2129 H 207.561 -0.752288 6.02018 0
M  V30 2130 H 206.3 -0.984758 4.77654 0
M  V30 2131 H 205.305 1.24637 5.35486 0
M  V30 2132 H 206.53 1.46664 6.63074 0
M  V30 2133 H 204.476 -0.774348 6.51414 0
M  V30 2134 H 204.393 0.624374 7.53417 0
M  V30 2135 H 205.661 -0.539891 7.77628 0
M  V30 2136 N 209.89 -1.43072 0.660911 0
M  V30 2137 C 211.118 -2.06067 0.185422 0
M  V30 2138 C 211.533 -1.49582 -1.15198 0
M  V30 2139 O 210.89 -0.630134 -1.71276 0
M  V30 2140 C 210.941 -3.61371 0.0966523 0
M  V30 2141 O 210.662 -4.15758 1.38119 0
M  V30 2142 C 212.163 -4.41455 -0.403996 0
M  V30 2143 H 209.383 -0.664459 0.0934604 0
M  V30 2144 H 211.927 -1.83447 0.90373 0
M  V30 2145 H 210.082 -3.8315 -0.572259 0
M  V30 2146 H 210.496 -5.09499 1.24542 0
M  V30 2147 H 211.97 -5.50437 -0.415045 0
M  V30 2148 H 212.447 -4.15036 -1.43674 0
M  V30 2149 H 213.053 -4.24663 0.232691 0
M  V30 2150 N 211.368 -0.403325 -1.52352 0
M  V30 2151 C 212.593 0.176499 -2.06648 0
M  V30 2152 C 213.018 1.38577 -1.27193 0
M  V30 2153 O 212.376 1.7879 -0.300637 0
M  V30 2154 C 212.424 0.511061 -3.5696 0
M  V30 2155 O 211.528 1.60294 -3.79973 0
M  V30 2156 H 210.869 0.0167337 -0.663789 0
M  V30 2157 H 213.399 -0.574848 -1.96359 0
M  V30 2158 H 213.409 0.771362 -4.00642 0
M  V30 2159 H 212.084 -0.37296 -4.14224 0
M  V30 2160 H 210.661 1.33526 -3.48174 0
M  V30 2161 N 212.846 1.57033 -0.133567 0
M  V30 2162 C 214.257 1.82593 0.389464 0
M  V30 2163 C 214.608 1.05156 1.6564 0
M  V30 2164 O 213.733 0.292644 2.14412 0
M  V30 2165 C 214.328 3.31204 0.713377 0
M  V30 2166 C 212.887 3.57393 1.18098 0
M  V30 2167 C 212.034 2.76598 0.197126 0
M  V30 2168 H 214.985 1.54598 -0.358481 0
M  V30 2169 H 215.006 3.46627 1.56939 0
M  V30 2170 H 214.518 3.87537 -0.2089 0
M  V30 2171 H 212.619 3.06433 2.11966 0
M  V30 2172 H 212.732 4.65915 1.11624 0
M  V30 2173 H 211.096 2.45257 0.687088 0
M  V30 2174 H 211.879 3.35697 -0.718504 0
M  V30 2175 N 214.325 -0.140222 1.56975 0
M  V30 2176 C 215.573 -0.850005 1.83356 0
M  V30 2177 C 215.894 -1.81399 0.71551 0
M  V30 2178 O 215.164 -1.94136 -0.262294 0
M  V30 2179 H 213.744 -0.316886 0.676456 0
M  V30 2180 H 216.406 -0.132608 1.94448 0
M  V30 2181 H 215.502 -1.40814 2.78528 0
M  V30 2182 N 215.803 -1.52179 -0.40978 0
M  V30 2183 C 217.049 -1.67408 -1.15525 0
M  V30 2184 C 217.404 -0.398746 -1.88223 0
M  V30 2185 O 216.697 0.60678 -1.81738 0
M  V30 2186 C 216.891 -2.83428 -2.17723 0
M  V30 2187 C 216.72 -4.22121 -1.55061 0
M  V30 2188 C 215.49 -4.87657 -1.3236 0
M  V30 2189 C 217.688 -5.04248 -1.01185 0
M  V30 2190 N 215.67 -6.10387 -0.655834 0
M  V30 2191 C 217.041 -6.18209 -0.470963 0
M  V30 2192 C 219.096 -4.89583 -0.906252 0
M  V30 2193 C 217.799 -7.1911 0.165172 0
M  V30 2194 C 219.825 -5.90718 -0.28397 0
M  V30 2195 C 219.187 -7.03969 0.246243 0
M  V30 2196 H 215.286 -0.666251 -0.409431 0
M  V30 2197 H 217.87 -1.89482 -0.447729 0
M  V30 2198 H 216.041 -2.6297 -2.85834 0
M  V30 2199 H 217.773 -2.87697 -2.84627 0
M  V30 2200 H 214.528 -4.46007 -1.59294 0
M  V30 2201 H 214.952 -6.76153 -0.338596 0
M  V30 2202 H 219.594 -4.02253 -1.302 0
M  V30 2203 H 217.312 -8.06066 0.572986 0
M  V30 2204 H 220.898 -5.81443 -0.203792 0
M  V30 2205 H 219.778 -7.80886 0.720173 0
M  V30 2206 N 217.281 0.66697 -1.42791 0
M  V30 2207 C 218.527 1.42754 -1.44889 0
M  V30 2208 C 218.882 1.92283 -0.0669755 0
M  V30 2209 O 218.175 1.68494 0.912154 0
M  V30 2210 C 218.369 2.6349 -2.4147 0
M  V30 2211 C 218.198 2.25776 -3.88915 0
M  V30 2212 C 216.968 2.1476 -4.57391 0
M  V30 2213 C 219.166 1.86927 -4.79127 0
M  V30 2214 N 217.148 1.70232 -5.89826 0
M  V30 2215 C 218.519 1.53378 -6.00729 0
M  V30 2216 C 220.574 1.73989 -4.66511 0
M  V30 2217 C 219.277 1.08187 -7.11117 0
M  V30 2218 C 221.303 1.30203 -5.76889 0
M  V30 2219 C 220.665 0.975818 -6.97608 0
M  V30 2220 H 216.764 0.518559 -0.585338 0
M  V30 2221 H 219.348 0.768906 -1.78874 0
M  V30 2222 H 217.519 3.27033 -2.09533 0
M  V30 2223 H 219.251 3.30123 -2.34096 0
M  V30 2224 H 216.006 2.3408 -4.11708 0
M  V30 2225 H 216.43 1.50369 -6.6009 0
M  V30 2226 H 221.072 1.97853 -3.7365 0
M  V30 2227 H 218.79 0.830701 -8.03819 0
M  V30 2228 H 222.376 1.20701 -5.69142 0
M  V30 2229 H 221.256 0.642157 -7.81566 0
M  V30 2230 N 218.759 1.29093 0.90403 0
M  V30 2231 C 220.005 1.17996 1.65676 0
M  V30 2232 C 220.36 -0.266816 1.90541 0
M  V30 2233 O 219.653 -1.19 1.50165 0
M  V30 2234 C 219.847 1.92224 3.01305 0
M  V30 2235 C 219.676 3.43972 2.89678 0
M  V30 2236 C 218.446 4.1332 2.90679 0
M  V30 2237 C 220.644 4.39546 2.67028 0
M  V30 2238 N 218.626 5.51463 2.69743 0
M  V30 2239 C 219.997 5.65119 2.5503 0
M  V30 2240 C 222.052 4.29359 2.52101 0
M  V30 2241 C 220.755 6.81663 2.29626 0
M  V30 2242 C 222.781 5.4565 2.28079 0
M  V30 2243 C 222.143 6.70193 2.16843 0
M  V30 2244 H 218.242 0.486759 0.612037 0
M  V30 2245 H 220.826 1.62868 1.06688 0
M  V30 2246 H 218.997 1.49773 3.58361 0
M  V30 2247 H 220.729 1.73429 3.65656 0
M  V30 2248 H 217.484 3.64984 3.01801 0
M  V30 2249 H 217.908 6.24105 2.6234 0
M  V30 2250 H 222.55 3.33769 2.59534 0
M  V30 2251 H 220.268 7.77313 2.20932 0
M  V30 2252 H 223.854 5.39664 2.1738 0
M  V30 2253 H 222.734 7.58659 1.98511 0
M  V30 2254 N 220.237 -1.11381 1.11499 0
M  V30 2255 C 221.184 -2.17439 0.773887 0
M  V30 2256 C 222.154 -1.64132 -0.254899 0
M  V30 2257 O 223.339 -1.90345 -0.13168 0
M  V30 2258 C 220.479 -3.44373 0.223917 0
M  V30 2259 C 219.592 -4.1168 1.30934 0
M  V30 2260 C 218.727 -5.263 0.71984 0
M  V30 2261 C 217.766 -5.85493 1.78507 0
M  V30 2262 N 216.903 -6.91507 1.21502 0
M  V30 2263 H 221.743 -2.45962 1.68246 0
M  V30 2264 H 219.28 -1.20744 0.840191 0
M  V30 2265 H 221.238 -4.17047 -0.112921 0
M  V30 2266 H 219.868 -3.16232 -0.647851 0
M  V30 2267 H 218.92 -3.37073 1.76312 0
M  V30 2268 H 220.232 -4.51729 2.11524 0
M  V30 2269 H 219.386 -6.05785 0.333094 0
M  V30 2270 H 218.125 -4.87559 -0.117377 0
M  V30 2271 H 217.13 -5.04686 2.18111 0
M  V30 2272 H 218.355 -6.26301 2.62533 0
M  V30 2273 H 216.301 -6.54783 0.399455 0
M  V30 2274 H 216.218 -7.30214 1.95763 0
M  V30 2275 H 217.486 -7.74795 0.855181 0
M  V30 2276 N 221.715 -0.905404 -1.28997 0
M  V30 2277 C 222.645 -0.404212 -2.29975 0
M  V30 2278 C 223.626 0.523784 -1.61835 0
M  V30 2279 O 224.811 0.433298 -1.89304 0
M  V30 2280 C 221.941 0.364042 -3.45387 0
M  V30 2281 C 220.895 -0.474048 -4.25367 0
M  V30 2282 C 220.221 0.422045 -5.33032 0
M  V30 2283 C 221.521 -1.72696 -4.92923 0
M  V30 2284 H 223.215 -1.24807 -2.72146 0
M  V30 2285 H 220.761 -0.601585 -1.30832 0
M  V30 2286 H 222.714 0.725447 -4.15109 0
M  V30 2287 H 221.438 1.24174 -3.02074 0
M  V30 2288 H 220.097 -0.81786 -3.57361 0
M  V30 2289 H 219.745 1.29804 -4.85963 0
M  V30 2290 H 219.445 -0.135057 -5.87445 0
M  V30 2291 H 220.969 0.779517 -6.05604 0
M  V30 2292 H 222.383 -1.43495 -5.55051 0
M  V30 2293 H 220.78 -2.22582 -5.57295 0
M  V30 2294 H 221.85 -2.45964 -4.17887 0
M  V30 2295 N 223.193 1.4272 -0.668489 0
M  V30 2296 C 224.604 1.84793 -0.266151 0
M  V30 2297 C 224.955 1.55959 1.19043 0
M  V30 2298 O 224.08 1.01622 1.91055 0
M  V30 2299 C 224.675 3.35436 -0.476271 0
M  V30 2300 C 223.234 3.76182 -0.128113 0
M  V30 2301 C 222.381 2.66344 -0.771777 0
M  V30 2302 H 225.332 1.32656 -0.871098 0
M  V30 2303 H 225.353 3.79515 0.273561 0
M  V30 2304 H 224.865 3.5639 -1.53647 0
M  V30 2305 H 222.966 3.60836 0.928891 0
M  V30 2306 H 223.079 4.75766 -0.564231 0
M  V30 2307 H 221.443 2.53885 -0.203652 0
M  V30 2308 H 222.226 2.90123 -1.83531 0
M  V30 2309 N 224.671 0.411399 1.52136 0
M  V30 2310 C 225.948 -0.222308 1.94333 0
M  V30 2311 C 226.328 -1.6242 1.34844 0
M  V30 2312 O 225.676 -2.22384 0.525145 0
M  V30 2313 C 225.886 -0.226345 3.48265 0
M  V30 2314 C 227.234 -0.444592 4.22266 0
M  V30 2315 O 228.258 -0.305602 3.54887 0
M  V30 2316 O 227.117 -0.718749 5.41753 0
M  V30 2317 H 224.211 -0.143907 0.814383 0
M  V30 2318 H 226.757 0.467506 1.63133 0
M  V30 2319 H 225.529 0.75475 3.83952 0
M  V30 2320 H 225.152 -0.960163 3.85832 0
M  V30 2321 N 226.149 -1.5696 0.141893 0
M  V30 2322 C 227.112 -2.15316 -0.785587 0
M  V30 2323 C 228.112 -1.09366 -1.1788 0
M  V30 2324 O 229.302 -1.35031 -1.10056 0
M  V30 2325 C 226.434 -2.71211 -2.06537 0
M  V30 2326 H 227.627 -2.98608 -0.278041 0
M  V30 2327 H 225.18 -1.5593 -0.107519 0
M  V30 2328 H 225.915 -1.91571 -2.6167 0
M  V30 2329 H 225.7 -3.4872 -1.79268 0
M  V30 2330 H 227.19 -3.16189 -2.72789 0
M  V30 2331 N 227.627 0.131896 -1.57047 0
M  V30 2332 C 228.557 1.16384 -2.02428 0
M  V30 2333 C 229.538 1.43936 -0.90644 0
M  V30 2334 O 230.723 1.54599 -1.17528 0
M  V30 2335 C 227.853 2.49328 -2.4177 0
M  V30 2336 C 226.807 2.36266 -3.56879 0
M  V30 2337 C 226.133 3.74057 -3.8208 0
M  V30 2338 C 227.433 1.834 -4.89042 0
M  V30 2339 H 229.127 0.786433 -2.88887 0
M  V30 2340 H 226.673 0.376855 -1.38981 0
M  V30 2341 H 228.626 3.21759 -2.7212 0
M  V30 2342 H 227.35 2.88934 -1.52266 0
M  V30 2343 H 226.009 1.66286 -3.26718 0
M  V30 2344 H 225.657 4.11125 -2.89803 0
M  V30 2345 H 225.357 3.66174 -4.59554 0
M  V30 2346 H 226.881 4.48012 -4.1487 0
M  V30 2347 H 228.295 2.45636 -5.18011 0
M  V30 2348 H 226.692 1.8637 -5.70426 0
M  V30 2349 H 227.762 0.790662 -4.7841 0
M  V30 2350 N 229.106 1.52395 0.401703 0
M  V30 2351 C 230.331 1.70972 1.17403 0
M  V30 2352 C 230.756 0.421615 1.83314 0
M  V30 2353 O 230.114 -0.621564 1.70312 0
M  V30 2354 C 230.162 2.85151 2.20728 0
M  V30 2355 O 229.266 2.51238 3.27037 0
M  V30 2356 H 228.607 0.568927 0.342372 0
M  V30 2357 H 231.137 1.99131 0.469891 0
M  V30 2358 H 231.147 3.10279 2.64936 0
M  V30 2359 H 229.822 3.78603 1.7214 0
M  V30 2360 H 228.399 2.36808 2.88057 0
M  V30 2361 N 230.584 -0.659388 1.43143 0
M  V30 2362 C 231.532 -1.79374 1.4808 0
M  V30 2363 C 232.526 -1.65639 0.354988 0
M  V30 2364 O 233.732 -1.7206 0.528704 0
M  V30 2365 H 230.107 -0.591705 0.4641 0
M  V30 2366 H 232.078 -1.72329 2.43609 0
M  V30 2367 C 230.827 -3.17606 1.41499 0
M  V30 2368 H 230.15 -3.28809 2.27431 0
M  V30 2369 H 231.59 -3.96951 1.49015 0
M  V30 2370 C 230.049 -3.36642 0.131765 0
M  V30 2371 O 230.579 -3.93461 -0.809386 0
M  V30 2372 N 228.785 -2.90567 0.0439396 0
M  V30 2373 H 228.332 -2.44513 0.810619 0
M  V30 2374 H 228.29 -3.03681 -0.813969 0
M  V30 2375 N 232.062 -1.29571 -0.897171 0
M  V30 2376 C 232.992 -1.17473 -2.01798 0
M  V30 2377 C 233.973 -0.068323 -1.69963 0
M  V30 2378 O 235.158 -0.248239 -1.92607 0
M  V30 2379 C 232.288 -0.853099 -3.36659 0
M  V30 2380 C 231.242 -1.9161 -3.82713 0
M  V30 2381 C 230.568 -1.44773 -5.14728 0
M  V30 2382 C 231.868 -3.32535 -4.02763 0
M  V30 2383 H 233.562 -2.11237 -2.12177 0
M  V30 2384 H 231.108 -1.01699 -1.01948 0
M  V30 2385 H 233.061 -0.755165 -4.14578 0
M  V30 2386 H 231.785 0.120236 -3.26379 0
M  V30 2387 H 230.444 -2.00346 -3.07013 0
M  V30 2388 H 230.092 -0.462995 -5.00865 0
M  V30 2389 H 229.792 -2.15865 -5.46513 0
M  V30 2390 H 231.316 -1.36334 -5.95185 0
M  V30 2391 H 232.73 -3.26626 -4.71156 0
M  V30 2392 H 231.127 -4.01607 -4.45905 0
M  V30 2393 H 232.197 -3.75326 -3.07016 0
M  V30 2394 N 233.54 1.10788 -1.12088 0
M  V30 2395 C 234.788 1.8231 -0.872205 0
M  V30 2396 C 235.109 1.85419 0.603709 0
M  V30 2397 O 234.379 1.32963 1.43867 0
M  V30 2398 H 232.959 0.675137 -0.319686 0
M  V30 2399 H 235.621 1.34068 -1.41463 0
M  V30 2400 H 234.717 2.85955 -1.25045 0
M  V30 2401 N 235.018 0.912232 1.28515 0
M  V30 2402 C 235.948 0.416403 2.29757 0
M  V30 2403 C 236.929 -0.515194 1.6211 0
M  V30 2404 O 238.114 -0.423253 1.89532 0
M  V30 2405 C 235.244 -0.34572 3.45575 0
M  V30 2406 C 234.198 0.496599 4.25109 0
M  V30 2407 C 233.524 -0.393771 5.33248 0
M  V30 2408 C 234.824 1.75307 4.92001 0
M  V30 2409 H 236.518 1.26249 2.7148 0
M  V30 2410 H 234.064 0.608515 1.30511 0
M  V30 2411 H 236.017 -0.703422 4.15488 0
M  V30 2412 H 234.741 -1.2257 3.02728 0
M  V30 2413 H 233.4 0.8368 3.56922 0
M  V30 2414 H 233.048 -1.27225 4.86644 0
M  V30 2415 H 232.748 0.166209 5.87365 0
M  V30 2416 H 234.272 -0.747389 6.06009 0
M  V30 2417 H 235.686 1.46437 5.54283 0
M  V30 2418 H 234.083 2.25534 5.56106 0
M  V30 2419 H 235.153 2.48176 4.16577 0
M  V30 2420 N 236.496 -1.42363 0.676048 0
M  V30 2421 C 237.743 -2.01522 0.19883 0
M  V30 2422 C 238.071 -1.53456 -1.19505 0
M  V30 2423 O 237.326 -0.727967 -1.81657 0
M  V30 2424 C 237.625 -3.56929 0.183431 0
M  V30 2425 C 237.291 -4.24431 1.52215 0
M  V30 2426 C 235.953 -4.42585 1.8887 0
M  V30 2427 C 238.305 -4.62459 2.40377 0
M  V30 2428 C 235.633 -4.96039 3.13309 0
M  V30 2429 C 237.985 -5.17294 3.64129 0
M  V30 2430 C 236.649 -5.33661 4.00951 0
M  V30 2431 H 235.919 -0.737419 0.0727571 0
M  V30 2432 H 238.566 -1.70531 0.871281 0
M  V30 2433 H 236.871 -3.87594 -0.572532 0
M  V30 2434 H 238.568 -4.00486 -0.203035 0
M  V30 2435 H 235.158 -4.10661 1.22701 0
M  V30 2436 H 239.342 -4.48105 2.13343 0
M  V30 2437 H 234.598 -5.06896 3.41857 0
M  V30 2438 H 238.772 -5.45704 4.32644 0
M  V30 2439 H 236.399 -5.74845 4.9745 0
M  V30 2440 N 237.974 -0.419461 -1.51915 0
M  V30 2441 C 239.222 0.152637 -2.01523 0
M  V30 2442 C 239.543 1.44762 -1.30649 0
M  V30 2443 O 238.813 1.90997 -0.435535 0
M  V30 2444 H 237.393 0.0593966 -0.744635 0
M  V30 2445 H 240.055 -0.558073 -1.86739 0
M  V30 2446 H 239.151 0.341369 -3.10227 0
M  V30 2447 N 239.452 1.56882 -0.150215 0
M  V30 2448 C 240.384 2.14057 0.819286 0
M  V30 2449 C 241.397 1.09082 1.20851 0
M  V30 2450 O 242.586 1.36347 1.15203 0
M  V30 2451 C 239.686 2.65102 2.11127 0
M  V30 2452 C 238.859 3.94511 1.88891 0
M  V30 2453 C 237.918 4.30834 3.02107 0
M  V30 2454 O 236.944 4.99099 2.73659 0
M  V30 2455 N 238.146 3.90676 4.29363 0
M  V30 2456 H 240.911 2.97871 0.330618 0
M  V30 2457 H 238.472 1.61866 0.0332538 0
M  V30 2458 H 240.464 2.86411 2.85921 0
M  V30 2459 H 239.034 1.85994 2.51247 0
M  V30 2460 H 238.254 3.81795 0.981152 0
M  V30 2461 H 239.542 4.7907 1.71376 0
M  V30 2462 H 238.94 3.35677 4.55343 0
M  V30 2463 H 237.497 4.1703 5.00928 0
M  V30 2464 N 240.93 -0.123565 1.57115 0
M  V30 2465 C 241.878 -1.17082 2.00984 0
M  V30 2466 C 242.872 -1.43136 0.906009 0
M  V30 2467 O 244.078 -1.43152 1.09121 0
M  V30 2468 H 240.453 -0.394653 0.64012 0
M  V30 2469 H 242.424 -0.774292 2.88179 0
M  V30 2470 C 241.173 -2.49057 2.42623 0
M  V30 2471 H 240.496 -2.29846 3.27125 0
M  V30 2472 H 241.936 -3.20906 2.7712 0
M  V30 2473 C 240.395 -3.11305 1.28805 0
M  V30 2474 O 240.925 -3.97171 0.60153 0
M  V30 2475 N 239.131 -2.71111 1.04628 0
M  V30 2476 H 238.678 -2.01382 1.60634 0
M  V30 2477 H 238.636 -3.1309 0.286685 0
M  V30 2478 N 242.408 -1.52605 -0.393616 0
M  V30 2479 C 243.341 -1.71798 -1.50202 0
M  V30 2480 C 244.319 -0.565743 -1.52441 0
M  V30 2481 O 245.503 -0.794987 -1.70916 0
M  V30 2482 C 242.63 -1.7714 -2.88685 0
M  V30 2483 C 241.676 -2.98845 -3.04292 0
M  V30 2484 S 242.509 -4.58909 -2.75976 0
M  V30 2485 C 243.665 -4.6706 -4.1666 0
M  V30 2486 H 243.898 -2.65542 -1.33696 0
M  V30 2487 H 241.431 -1.42839 -0.586195 0
M  V30 2488 H 243.389 -1.80903 -3.68489 0
M  V30 2489 H 242.05 -0.844969 -3.02521 0
M  V30 2490 H 241.243 -2.99111 -4.05646 0
M  V30 2491 H 240.845 -2.9305 -2.32374 0
M  V30 2492 H 243.137 -4.45391 -5.10523 0
M  V30 2493 H 244.08 -5.6905 -4.21412 0
M  V30 2494 H 244.488 -3.95944 -4.02354 0
M  V30 2495 N 243.887 0.651787 -1.4349 0
M  V30 2496 C 244.819 1.77725 -1.44729 0
M  V30 2497 C 245.832 1.59141 -0.343231 0
M  V30 2498 O 247.021 1.67835 -0.607751 0
M  V30 2499 C 244.121 3.15172 -1.24579 0
M  V30 2500 C 243.294 3.60402 -2.47849 0
M  V30 2501 C 242.353 4.76656 -2.22902 0
M  V30 2502 O 241.379 4.86022 -2.96263 0
M  V30 2503 N 242.581 5.66958 -1.24656 0
M  V30 2504 H 245.346 1.77141 -2.41746 0
M  V30 2505 H 242.907 0.835678 -1.38665 0
M  V30 2506 H 244.899 3.90634 -1.0577 0
M  V30 2507 H 243.469 3.1052 -0.360015 0
M  V30 2508 H 242.689 2.75369 -2.82073 0
M  V30 2509 H 243.977 3.87368 -3.29884 0
M  V30 2510 H 243.375 5.62065 -0.640265 0
M  V30 2511 H 241.932 6.42135 -1.1183 0
M  V30 2512 N 245.365 1.30045 0.890287 0
M  V30 2513 C 246.595 1.21296 1.67245 0
M  V30 2514 C 247.003 -0.227471 1.87828 0
M  V30 2515 O 246.346 -1.16296 1.422 0
M  V30 2516 C 246.408 1.86519 3.07329 0
M  V30 2517 C 246.072 3.35837 3.09939 0
M  V30 2518 C 247.069 4.31915 2.89389 0
M  V30 2519 C 244.754 3.77196 3.31706 0
M  V30 2520 C 246.748 5.67325 2.90552 0
M  V30 2521 C 244.435 5.12725 3.32499 0
M  V30 2522 C 245.433 6.076 3.11947 0
M  V30 2523 O 245.121 7.40655 3.12547 0
M  V30 2524 H 244.853 0.4211 0.528821 0
M  V30 2525 H 247.407 1.72111 1.12103 0
M  V30 2526 H 245.637 1.30228 3.64112 0
M  V30 2527 H 247.326 1.71963 3.67673 0
M  V30 2528 H 248.092 4.01294 2.72375 0
M  V30 2529 H 243.971 3.03796 3.4674 0
M  V30 2530 H 247.515 6.41354 2.74429 0
M  V30 2531 H 243.412 5.42988 3.49047 0
M  V30 2532 H 244.18 7.49577 3.28749 0
M  V30 2533 N 246.843 -1.10192 1.12674 0
M  V30 2534 C 247.793 -2.14754 0.765801 0
M  V30 2535 C 248.777 -1.59154 -0.236409 0
M  V30 2536 O 249.969 -1.76951 -0.0415261 0
M  V30 2537 C 247.098 -3.42563 0.224827 0
M  V30 2538 C 246.184 -4.05091 1.25548 0
M  V30 2539 N 246.575 -4.42287 2.4539 0
M  V30 2540 C 244.873 -4.32186 1.10142 0
M  V30 2541 C 245.574 -4.91441 3.11224 0
M  V30 2542 N 244.55 -4.88405 2.38666 0
M  V30 2543 H 248.352 -2.41309 1.67772 0
M  V30 2544 H 245.866 -1.27339 1.00789 0
M  V30 2545 H 247.863 -4.16868 -0.0519578 0
M  V30 2546 H 246.523 -3.17467 -0.681515 0
M  V30 2547 H 247.534 -4.33902 2.82754 0
M  V30 2548 H 244.211 -4.16735 0.252587 0
M  V30 2549 H 245.601 -5.29749 4.13298 0
M  V30 2550 N 248.321 -0.919034 -1.28029 0
M  V30 2551 C 249.551 -0.570143 -1.98577 0
M  V30 2552 C 249.959 0.854172 -1.68821 0
M  V30 2553 O 249.302 1.57807 -0.940351 0
M  V30 2554 C 249.364 -0.705734 -3.52505 0
M  V30 2555 C 249.028 -2.10057 -4.05863 0
M  V30 2556 C 250.025 -3.07385 -4.19298 0
M  V30 2557 C 247.71 -2.41517 -4.40426 0
M  V30 2558 C 249.704 -4.34287 -4.66555 0
M  V30 2559 C 247.391 -3.68657 -4.87376 0
M  V30 2560 C 248.389 -4.64856 -5.00398 0
M  V30 2561 O 248.077 -5.89735 -5.46322 0
M  V30 2562 H 247.809 -0.215592 -0.6407 0
M  V30 2563 H 250.363 -1.23583 -1.64062 0
M  V30 2564 H 248.593 0.0170414 -3.86696 0
M  V30 2565 H 250.282 -0.363172 -4.04272 0
M  V30 2566 H 251.048 -2.84398 -3.92865 0
M  V30 2567 H 246.927 -1.67389 -4.29537 0
M  V30 2568 H 250.471 -5.09377 -4.76635 0
M  V30 2569 H 246.368 -3.91466 -5.13249 0
M  V30 2570 H 247.136 -5.92599 -5.64596 0
M  V30 2571 N 249.799 1.42003 -0.683588 0
M  V30 2572 C 250.729 2.33487 -0.024866 0
M  V30 2573 C 251.71 1.51163 0.779975 0
M  V30 2574 O 252.895 1.79739 0.735362 0
M  V30 2575 C 250.025 3.3487 0.920836 0
M  V30 2576 C 248.979 4.27414 0.223958 0
M  V30 2577 C 248.305 5.19074 1.2832 0
M  V30 2578 C 249.605 5.14445 -0.90242 0
M  V30 2579 H 251.299 2.88819 -0.788921 0
M  V30 2580 H 248.845 1.38873 -0.38083 0
M  V30 2581 H 250.798 3.97787 1.39081 0
M  V30 2582 H 249.522 2.77861 1.71642 0
M  V30 2583 H 248.181 3.65904 -0.225864 0
M  V30 2584 H 247.829 4.58387 2.071 0
M  V30 2585 H 247.529 5.81822 0.821995 0
M  V30 2586 H 249.053 5.84867 1.75392 0
M  V30 2587 H 250.467 5.70998 -0.513272 0
M  V30 2588 H 248.864 5.86072 -1.28997 0
M  V30 2589 H 249.934 4.52322 -1.74737 0
M  V30 2590 N 251.277 0.427512 1.51691 0
M  V30 2591 C 252.525 -0.141948 2.01601 0
M  V30 2592 C 252.846 -1.44067 1.31414 0
M  V30 2593 O 252.116 -1.90763 0.445658 0
M  V30 2594 H 250.696 -0.0554468 0.744939 0
M  V30 2595 H 253.358 0.567968 1.86441 0
M  V30 2596 H 252.454 -0.324913 3.10404 0
M  V30 2597 N 252.755 -1.56801 0.158532 0
M  V30 2598 C 254.171 -1.5837 -0.197774 0
M  V30 2599 C 254.371 -1.17334 -1.63814 0
M  V30 2600 O 253.427 -0.878988 -2.36707 0
M  V30 2601 C 254.74 -3.00615 0.0714459 0
M  V30 2602 C 256.288 -3.12999 0.00864533 0
M  V30 2603 C 256.763 -4.57313 0.250685 0
M  V30 2604 N 258.254 -4.62777 0.198014 0
M  V30 2605 C 258.989 -5.72271 0.359642 0
M  V30 2606 N 258.485 -6.90371 0.579625 0
M  V30 2607 N 260.278 -5.61318 0.296438 0
M  V30 2608 H 252.429 -1.81765 1.09887 0
M  V30 2609 H 254.692 -0.841849 0.435884 0
M  V30 2610 H 254.398 -3.35068 1.06874 0
M  V30 2611 H 254.272 -3.71683 -0.642757 0
M  V30 2612 H 256.659 -2.7838 -0.979217 0
M  V30 2613 H 256.74 -2.44393 0.755359 0
M  V30 2614 H 256.384 -4.92639 1.2357 0
M  V30 2615 H 256.314 -5.24061 -0.516489 0
M  V30 2616 H 258.805 -3.77885 0.0331115 0
M  V30 2617 H 259.118 -7.69689 0.69275 0
M  V30 2618 H 257.463 -6.92264 0.616087 0
M  V30 2619 H 260.654 -4.67932 0.125258 0
M  V30 2620 H 260.827 -6.46599 0.425831 0
M  V30 2621 N 254.233 0.115231 -1.57178 0
M  V30 2622 C 255.461 0.836437 -1.89239 0
M  V30 2623 C 255.876 1.73256 -0.750175 0
M  V30 2624 O 255.233 1.80357 0.278832 0
M  V30 2625 C 255.284 1.66671 -3.20785 0
M  V30 2626 O 255.005 0.806652 -4.3061 0
M  V30 2627 C 256.506 2.49274 -3.66575 0
M  V30 2628 H 253.726 0.240253 -0.626514 0
M  V30 2629 H 256.27 0.0984932 -2.04263 0
M  V30 2630 H 254.425 2.35737 -3.0742 0
M  V30 2631 H 254.839 1.37969 -5.06028 0
M  V30 2632 H 256.313 3.03055 -4.6137 0
M  V30 2633 H 256.79 3.26807 -2.93417 0
M  V30 2634 H 257.396 1.85443 -3.82741 0
M  V30 2635 N 255.711 1.52812 0.385517 0
M  V30 2636 C 256.959 1.67694 1.12797 0
M  V30 2637 C 257.28 0.421115 1.90399 0
M  V30 2638 O 256.55 -0.564551 1.87589 0
M  V30 2639 H 255.13 0.618155 0.419396 0
M  V30 2640 H 257.792 1.89938 0.436972 0
M  V30 2641 H 256.888 2.52896 1.82894 0
M  V30 2642 N 257.189 -0.644168 1.43834 0
M  V30 2643 C 258.419 -1.42939 1.49171 0
M  V30 2644 C 258.827 -1.88874 0.111048 0
M  V30 2645 O 258.17 -1.60656 -0.8908 0
M  V30 2646 C 258.232 -2.69151 2.38324 0
M  V30 2647 C 257.896 -2.45097 3.85715 0
M  V30 2648 C 258.893 -2.07747 4.76589 0
M  V30 2649 C 256.578 -2.59141 4.30292 0
M  V30 2650 C 258.572 -1.8475 6.10038 0
M  V30 2651 C 256.259 -2.35759 5.63792 0
M  V30 2652 C 257.257 -1.9862 6.53482 0
M  V30 2653 O 256.945 -1.75489 7.84512 0
M  V30 2654 H 256.677 -0.445271 0.508635 0
M  V30 2655 H 259.231 -0.79621 1.8934 0
M  V30 2656 H 257.461 -3.3506 1.93058 0
M  V30 2657 H 259.15 -3.31123 2.3476 0
M  V30 2658 H 259.916 -1.96465 4.43426 0
M  V30 2659 H 255.795 -2.87022 3.60749 0
M  V30 2660 H 259.339 -1.55686 6.80006 0
M  V30 2661 H 255.236 -2.46646 5.9652 0
M  V30 2662 H 256.004 -1.89841 7.9618 0
M  V30 2663 N 258.668 -1.30515 -0.883378 0
M  V30 2664 C 259.896 -1.22359 -1.66841 0
M  V30 2665 C 260.311 0.213296 -1.87591 0
M  V30 2666 O 259.668 1.14075 -1.42454 0
M  V30 2667 C 259.719 -1.95011 -3.04389 0
M  V30 2668 O 259.44 -3.3309 -2.84575 0
M  V30 2669 C 260.941 -1.93532 -3.98824 0
M  V30 2670 H 258.161 -0.423371 -0.520575 0
M  V30 2671 H 260.705 -1.72167 -1.10357 0
M  V30 2672 H 258.86 -1.48997 -3.57601 0
M  V30 2673 H 259.274 -3.69907 -3.71846 0
M  V30 2674 H 260.748 -2.48902 -4.92699 0
M  V30 2675 H 261.225 -0.914627 -4.29571 0
M  V30 2676 H 261.831 -2.39364 -3.51547 0
M  V30 2677 N 260.146 1.09593 -1.13257 0
M  V30 2678 C 261.395 1.81105 -0.887917 0
M  V30 2679 C 261.708 1.86563 0.587672 0
M  V30 2680 O 262.914 2.54367 0.949204 0
M  V30 2681 C 261.37 3.25338 -1.53895 0
M  V30 2682 C 260.978 3.28151 -3.04994 0
M  V30 2683 C 262.722 4.01617 -1.37492 0
M  V30 2684 C 260.629 4.66897 -3.6299 0
M  V30 2685 H 259.559 0.678661 -0.328534 0
M  V30 2686 H 262.21 1.23183 -1.36008 0
M  V30 2687 H 260.592 3.8331 -0.994446 0
M  V30 2688 H 261.766 2.79953 -3.66009 0
M  V30 2689 H 260.081 2.65361 -3.20893 0
M  V30 2690 H 262.678 5.04119 -1.78235 0
M  V30 2691 H 263.021 4.15072 -0.31957 0
M  V30 2692 H 263.554 3.50082 -1.88912 0
M  V30 2693 H 260.293 4.58643 -4.68323 0
M  V30 2694 H 259.813 5.15426 -3.06752 0
M  V30 2695 H 261.492 5.3587 -3.62563 0
M  V30 2696 N 261.624 0.925811 1.2754 0
M  V30 2697 C 262.574 0.394488 2.24561 0
M  V30 2698 C 263.558 -0.500183 1.52928 0
M  V30 2699 O 264.75 -0.337936 1.73744 0
M  V30 2700 C 261.879 -0.353328 3.41477 0
M  V30 2701 C 260.965 0.557752 4.20416 0
M  V30 2702 N 261.356 1.67674 4.77199 0
M  V30 2703 C 259.654 0.360404 4.44541 0
M  V30 2704 C 260.355 2.24324 5.36706 0
M  V30 2705 N 259.331 1.53305 5.21535 0
M  V30 2706 H 263.133 1.2489 2.66045 0
M  V30 2707 H 260.647 0.779864 1.4245 0
M  V30 2708 H 262.644 -0.7509 4.10082 0
M  V30 2709 H 261.304 -1.20469 3.01525 0
M  V30 2710 H 262.315 2.05915 4.75204 0
M  V30 2711 H 258.992 -0.450454 4.15063 0
M  V30 2712 H 260.382 3.18521 5.91603 0
M  V30 2713 N 263.102 -1.41638 0.69111 0
M  V30 2714 C 264.348 -2.01598 0.220519 0
M  V30 2715 C 264.681 -1.54594 -1.17535 0
M  V30 2716 O 263.956 -0.755177 -1.79241 0
M  V30 2717 C 264.239 -3.59062 0.273243 0
M  V30 2718 C 264.092 -4.16203 1.70573 0
M  V30 2719 C 265.411 -4.38546 -0.369457 0
M  V30 2720 H 262.53 -0.732468 0.0816045 0
M  V30 2721 H 265.172 -1.68445 0.878986 0
M  V30 2722 H 263.322 -3.87435 -0.287411 0
M  V30 2723 H 264.994 -3.98722 2.31989 0
M  V30 2724 H 263.237 -3.71414 2.2413 0
M  V30 2725 H 263.908 -5.25358 1.69419 0
M  V30 2726 H 266.384 -4.1596 0.107977 0
M  V30 2727 H 265.26 -5.48069 -0.302002 0
M  V30 2728 H 265.521 -4.17662 -1.44951 0
M  V30 2729 N 264.58 -0.43555 -1.51462 0
M  V30 2730 C 265.512 0.41257 -2.25456 0
M  V30 2731 C 266.525 0.987822 -1.29406 0
M  V30 2732 O 267.714 0.882266 -1.55172 0
M  V30 2733 C 264.814 1.58894 -2.99342 0
M  V30 2734 C 263.987 1.13288 -4.22474 0
M  V30 2735 C 263.046 2.17917 -4.78956 0
M  V30 2736 O 262.072 1.77425 -5.40841 0
M  V30 2737 N 263.274 3.50382 -4.62832 0
M  V30 2738 H 266.039 -0.221603 -2.9888 0
M  V30 2739 H 263.6 -0.264342 -1.59727 0
M  V30 2740 H 265.592 2.28508 -3.34015 0
M  V30 2741 H 264.162 2.12849 -2.28941 0
M  V30 2742 H 263.382 0.263881 -3.93316 0
M  V30 2743 H 264.67 0.805542 -5.02383 0
M  V30 2744 H 264.068 3.86013 -4.13534 0
M  V30 2745 H 262.625 4.15895 -5.01871 0
M  V30 2746 N 266.058 1.56714 -0.166846 0
M  V30 2747 C 267.298 1.98641 0.481763 0
M  V30 2748 C 267.662 1.05038 1.6072 0
M  V30 2749 O 268.863 1.36087 2.31805 0
M  V30 2750 C 267.134 3.44362 0.956517 0
M  V30 2751 S 268.693 4.08317 1.60694 0
M  V30 2752 H 265.511 0.693873 0.155116 0
M  V30 2753 H 268.113 1.93719 -0.263251 0
M  V30 2754 H 266.817 4.10204 0.126936 0
M  V30 2755 H 266.348 3.53041 1.73568 0
M  V30 2756 H 268.363 4.02999 2.89494 0
M  V30 2757 N 267.536 -0.106894 1.57237 0
M  V30 2758 C 268.484 -1.14944 2.02215 0
M  V30 2759 C 269.478 -1.42167 0.92114 0
M  V30 2760 O 270.684 -1.41987 1.10634 0
M  V30 2761 H 267.059 -0.387841 0.64427 0
M  V30 2762 H 269.03 -0.743683 2.88984 0
M  V30 2763 C 267.779 -2.4647 2.4525 0
M  V30 2764 H 267.102 -2.26363 3.29545 0
M  V30 2765 H 268.542 -3.17948 2.80508 0
M  V30 2766 C 267.001 -3.09921 1.321 0
M  V30 2767 O 267.531 -3.9651 0.643622 0
M  V30 2768 N 265.737 -2.69986 1.07497 0
M  V30 2769 H 265.284 -1.99667 1.62761 0
M  V30 2770 H 265.242 -3.12769 0.319876 0
M  V30 2771 N 269.014 -1.53014 -0.377408 0
M  V30 2772 C 269.977 -1.77957 -1.44444 0
M  V30 2773 C 270.977 -0.649763 -1.47087 0
M  V30 2774 O 272.167 -0.917897 -1.48055 0
M  V30 2775 C 269.299 -1.89089 -2.83651 0
M  V30 2776 H 270.492 -2.73243 -1.23606 0
M  V30 2777 H 268.045 -1.43912 -0.609844 0
M  V30 2778 H 268.78 -0.958293 -3.09818 0
M  V30 2779 H 268.565 -2.71254 -2.83132 0
M  V30 2780 H 270.055 -2.1002 -3.60945 0
M  V30 2781 N 270.492 0.636531 -1.44174 0
M  V30 2782 C 271.717 1.42847 -1.50364 0
M  V30 2783 C 272.142 1.87665 -0.127867 0
M  V30 2784 O 271.5 1.58408 0.88185 0
M  V30 2785 C 271.548 2.62854 -2.4686 0
M  V30 2786 O 270.652 3.62501 -1.9664 0
M  V30 2787 H 269.993 0.427642 -0.507955 0
M  V30 2788 H 272.523 0.777422 -1.89255 0
M  V30 2789 H 272.533 3.10465 -2.64718 0
M  V30 2790 H 271.208 2.29578 -3.46795 0
M  V30 2791 H 269.785 3.21735 -1.88523 0
M  V30 2792 N 271.97 1.30982 0.876444 0
M  V30 2793 C 272.917 1.18085 1.98304 0
M  V30 2794 C 273.887 0.0682263 1.6596 0
M  V30 2795 O 275.072 0.239937 1.89285 0
M  V30 2796 C 272.212 0.887475 3.33493 0
M  V30 2797 C 271.325 2.08281 3.78475 0
M  V30 2798 C 270.46 1.72678 5.0235 0
M  V30 2799 C 269.499 2.88657 5.39762 0
M  V30 2800 N 268.636 2.53292 6.54819 0
M  V30 2801 H 273.476 2.1275 2.08666 0
M  V30 2802 H 271.013 1.05839 1.02159 0
M  V30 2803 H 272.971 0.697961 4.1132 0
M  V30 2804 H 271.601 -0.022315 3.22792 0
M  V30 2805 H 270.653 2.3833 2.96484 0
M  V30 2806 H 271.965 2.95108 4.02135 0
M  V30 2807 H 271.119 1.50151 5.87826 0
M  V30 2808 H 269.858 0.830327 4.8058 0
M  V30 2809 H 268.863 3.1184 4.52809 0
M  V30 2810 H 270.088 3.79002 5.63502 0
M  V30 2811 H 268.034 1.66163 6.34607 0
M  V30 2812 H 267.951 3.3365 6.7839 0
M  V30 2813 H 269.219 2.34143 7.43503 0
M  V30 2814 N 273.449 -1.08991 1.13837 0
M  V30 2815 C 274.696 -1.81258 0.902882 0
M  V30 2816 C 275.024 -1.85936 -0.570803 0
M  V30 2817 O 274.279 -1.3267 -1.43865 0
M  V30 2818 C 274.578 -3.27042 1.44147 0
M  V30 2819 C 274.244 -3.4249 2.93276 0
M  V30 2820 C 272.906 -3.46414 3.33992 0
M  V30 2821 C 275.258 -3.4666 3.892 0
M  V30 2822 C 272.586 -3.52091 4.69307 0
M  V30 2823 C 274.938 -3.53872 5.24364 0
M  V30 2824 C 273.602 -3.56066 5.646 0
M  V30 2825 H 272.872 -0.663268 0.330388 0
M  V30 2826 H 275.519 -1.28368 1.42105 0
M  V30 2827 H 273.824 -3.82599 0.844097 0
M  V30 2828 H 275.521 -3.81499 1.23528 0
M  V30 2829 H 272.111 -3.40124 2.60794 0
M  V30 2830 H 276.295 -3.42865 3.58828 0
M  V30 2831 H 271.551 -3.52079 4.9985 0
M  V30 2832 H 275.725 -3.56043 5.98503 0
M  V30 2833 H 273.352 -3.60218 6.69438 0
M  V30 2834 N 274.927 -0.932562 -1.27047 0
M  V30 2835 C 275.877 -0.406392 -2.24349 0
M  V30 2836 C 276.861 0.492066 -1.53191 0
M  V30 2837 O 278.053 0.328717 -1.73921 0
M  V30 2838 C 275.182 0.335214 -3.41659 0
M  V30 2839 C 274.268 -0.58004 -4.20115 0
M  V30 2840 N 274.659 -1.70203 -4.76303 0
M  V30 2841 C 272.957 -0.383974 -4.44344 0
M  V30 2842 C 273.658 -2.27167 -5.35509 0
M  V30 2843 N 272.634 -1.56068 -5.20715 0
M  V30 2844 H 276.436 -1.26299 -2.65378 0
M  V30 2845 H 273.95 -0.787408 -1.42034 0
M  V30 2846 H 275.947 0.729142 -4.10474 0
M  V30 2847 H 274.607 1.18868 -3.0216 0
M  V30 2848 H 275.618 -2.08433 -4.74106 0
M  V30 2849 H 272.295 0.428436 -4.15296 0
M  V30 2850 H 273.685 -3.21654 -5.89905 0
M  V30 2851 N 276.405 1.4127 -0.698611 0
M  V30 2852 C 277.337 2.292 0.00399731 0
M  V30 2853 C 278.35 1.44944 0.741279 0
M  V30 2854 O 279.539 1.68416 0.591477 0
M  V30 2855 C 276.639 3.22875 1.02979 0
M  V30 2856 C 275.812 4.35904 0.36151 0
M  V30 2857 C 274.871 5.10134 1.29033 0
M  V30 2858 O 273.897 5.63809 0.781562 0
M  V30 2859 N 275.099 5.17885 2.6225 0
M  V30 2860 H 277.864 2.9014 -0.750921 0
M  V30 2861 H 275.425 1.52455 -0.544882 0
M  V30 2862 H 277.417 3.69404 1.65296 0
M  V30 2863 H 275.987 2.63221 1.68622 0
M  V30 2864 H 275.207 3.91719 -0.441584 0
M  V30 2865 H 276.495 5.08696 -0.103055 0
M  V30 2866 H 275.893 4.7573 3.061 0
M  V30 2867 H 274.45 5.6798 3.19754 0
M  V30 2868 N 277.883 0.443576 1.51229 0
M  V30 2869 C 279.131 -0.120557 2.0174 0
M  V30 2870 C 279.452 -1.42665 1.32935 0
M  V30 2871 O 278.722 -1.9028 0.465866 0
M  V30 2872 H 277.302 -0.0475426 0.745486 0
M  V30 2873 H 279.964 0.587711 1.85828 0
M  V30 2874 H 279.06 -0.291972 3.10731 0
M  V30 2875 N 279.361 -1.56624 0.175154 0
M  V30 2876 C 280.601 -1.98894 -0.471221 0
M  V30 2877 C 280.965 -1.05889 -1.60161 0
M  V30 2878 O 282.166 -1.37315 -2.3108 0
M  V30 2879 C 280.437 -3.44865 -0.938241 0
M  V30 2880 S 281.996 -4.09164 -1.58526 0
M  V30 2881 H 278.814 -0.694686 -0.151434 0
M  V30 2882 H 281.416 -1.93577 0.27352 0
M  V30 2883 H 280.12 -4.10265 -0.10518 0
M  V30 2884 H 279.651 -3.53956 -1.71693 0
M  V30 2885 H 281.666 -4.04528 -2.87352 0
M  V30 2886 N 280.839 0.0985539 -1.57292 0
M  V30 2887 C 281.769 1.12064 -2.04851 0
M  V30 2888 C 282.75 1.41981 -0.936767 0
M  V30 2889 O 283.935 1.52071 -1.20781 0
M  V30 2890 C 281.065 2.44144 -2.47004 0
M  V30 2891 C 280.019 2.28643 -3.6181 0
M  V30 2892 C 279.345 3.65869 -3.89929 0
M  V30 2893 C 280.645 1.72986 -4.92822 0
M  V30 2894 H 282.339 0.724979 -2.9049 0
M  V30 2895 H 279.885 0.34729 -1.39749 0
M  V30 2896 H 281.838 3.15914 -2.78884 0
M  V30 2897 H 280.562 2.85639 -1.5836 0
M  V30 2898 H 279.221 1.59318 -3.30172 0
M  V30 2899 H 278.869 4.04885 -2.98458 0
M  V30 2900 H 278.569 3.56344 -4.67218 0
M  V30 2901 H 280.093 4.39112 -4.2428 0
M  V30 2902 H 281.507 2.34593 -5.23105 0
M  V30 2903 H 279.904 1.74229 -5.74251 0
M  V30 2904 H 280.974 0.689007 -4.7998 0
M  V30 2905 N 282.317 1.53212 0.369288 0
M  V30 2906 C 283.247 1.82365 1.45826 0
M  V30 2907 C 284.228 0.676907 1.56051 0
M  V30 2908 O 285.413 0.926401 1.70679 0
M  V30 2909 C 282.543 2.01023 2.83208 0
M  V30 2910 C 281.497 3.1678 2.8781 0
M  V30 2911 C 280.823 3.20724 4.27832 0
M  V30 2912 C 282.123 4.55447 2.55667 0
M  V30 2913 H 283.817 2.73559 1.21678 0
M  V30 2914 H 281.363 1.3163 0.583911 0
M  V30 2915 H 283.316 2.20001 3.59413 0
M  V30 2916 H 282.04 1.06536 3.08736 0
M  V30 2917 H 280.699 2.97616 2.14056 0
M  V30 2918 H 280.347 2.23882 4.50429 0
M  V30 2919 H 280.047 3.98496 4.31827 0
M  V30 2920 H 281.571 3.41881 5.05915 0
M  V30 2921 H 282.985 4.74611 3.21586 0
M  V30 2922 H 281.382 5.35432 2.70984 0
M  V30 2923 H 282.452 4.60812 1.5093 0
M  V30 2924 N 283.795 -0.628877 1.44509 0
M  V30 2925 C 285.041 -1.39045 1.47629 0
M  V30 2926 C 285.374 -1.93892 0.109343 0
M  V30 2927 O 284.649 -1.7379 -0.87334 0
M  V30 2928 C 284.932 -2.55408 2.53848 0
M  V30 2929 C 284.785 -2.05896 3.99909 0
M  V30 2930 C 286.104 -3.5759 2.56549 0
M  V30 2931 H 283.223 -0.504232 0.537512 0
M  V30 2932 H 285.865 -0.710854 1.76201 0
M  V30 2933 H 284.015 -3.13384 2.29615 0
M  V30 2934 H 285.687 -1.52734 4.35282 0
M  V30 2935 H 283.93 -1.37061 4.11578 0
M  V30 2936 H 284.601 -2.89681 4.69882 0
M  V30 2937 H 287.077 -3.09419 2.78207 0
M  V30 2938 H 285.953 -4.36527 3.32769 0
M  V30 2939 H 286.214 -4.11808 1.60832 0
M  V30 2940 N 285.273 -1.31445 -0.869486 0
M  V30 2941 C 286.519 -1.21337 -1.62496 0
M  V30 2942 C 286.852 0.227872 -1.92858 0
M  V30 2943 O 286.127 1.16094 -1.56053 0
M  V30 2944 C 286.41 -2.05814 -2.95487 0
M  V30 2945 C 286.263 -3.5824 -2.72 0
M  V30 2946 C 287.582 -1.9079 -3.96594 0
M  V30 2947 H 284.701 -0.442135 -0.589649 0
M  V30 2948 H 287.343 -1.6124 -1.00507 0
M  V30 2949 H 285.493 -1.71913 -3.48394 0
M  V30 2950 H 287.165 -4.0228 -2.25762 0
M  V30 2951 H 285.408 -3.81647 -2.06224 0
M  V30 2952 H 286.079 -4.12657 -3.66631 0
M  V30 2953 H 288.555 -2.20459 -3.52898 0
M  V30 2954 H 287.431 -2.52199 -4.87531 0
M  V30 2955 H 287.692 -0.871341 -4.33428 0
M  V30 2956 N 286.751 1.08385 -1.14413 0
M  V30 2957 C 287.991 1.8238 -0.922868 0
M  V30 2958 C 288.355 1.84225 0.540842 0
M  V30 2959 O 289.556 2.53985 0.880058 0
M  V30 2960 C 287.827 3.24048 -1.50757 0
M  V30 2961 S 289.386 4.14917 -1.4279 0
M  V30 2962 H 286.204 0.628524 -0.332384 0
M  V30 2963 H 288.806 1.30278 -1.45766 0
M  V30 2964 H 287.51 3.20288 -2.56601 0
M  V30 2965 H 287.041 3.81224 -0.971178 0
M  V30 2966 H 289.056 4.94473 -0.413582 0
M  V30 2967 N 288.23 0.939286 1.26551 0
M  V30 2968 C 289.476 0.586715 1.94128 0
M  V30 2969 C 289.809 -0.8717 1.73537 0
M  V30 2970 O 289.084 -1.62339 1.07127 0
M  V30 2971 C 289.367 0.927497 3.4795 0
M  V30 2972 C 289.22 2.44052 3.77834 0
M  V30 2973 C 290.539 0.441569 4.37879 0
M  V30 2974 H 287.658 0.21463 0.705055 0
M  V30 2975 H 290.3 1.17316 1.49455 0
M  V30 2976 H 288.45 0.428431 3.8613 0
M  V30 2977 H 290.122 3.01216 3.4938 0
M  V30 2978 H 288.365 2.8848 3.23978 0
M  V30 2979 H 289.036 2.62947 4.85348 0
M  V30 2980 H 291.512 0.869448 4.06915 0
M  V30 2981 H 290.388 0.708856 5.44304 0
M  V30 2982 H 290.649 -0.658467 4.37169 0
M  V30 2983 N 289.708 -1.40897 0.706093 0
M  V30 2984 C 291.119 -1.84023 0.315052 0
M  V30 2985 C 291.47 -1.5906 -1.14866 0
M  V30 2986 O 290.595 -1.06651 -1.88293 0
M  V30 2987 C 291.19 -3.34055 0.565038 0
M  V30 2988 C 289.749 -3.7571 0.227806 0
M  V30 2989 C 288.896 -2.64204 0.842122 0
M  V30 2990 H 291.847 -1.303 0.905963 0
M  V30 2991 H 291.868 -3.80107 -0.172843 0
M  V30 2992 H 291.38 -3.52192 1.63042 0
M  V30 2993 H 289.481 -3.63172 -0.832895 0
M  V30 2994 H 289.594 -4.74103 0.690174 0
M  V30 2995 H 287.958 -2.53255 0.270893 0
M  V30 2996 H 288.741 -2.85155 1.91158 0
M  V30 2997 N 291.186 -0.45159 -1.50991 0
M  V30 2998 C 292.096 0.358431 -2.31846 0
M  V30 2999 C 293.112 1.01438 -1.41373 0
M  V30 3000 O 294.288 1.00663 -1.74439 0
M  V30 3001 C 291.353 1.43704 -3.15515 0
M  V30 3002 C 290.414 0.799742 -4.21785 0
M  V30 3003 C 289.647 1.82696 -5.01456 0
M  V30 3004 O 289.87 3.05105 -4.81941 0
M  V30 3005 O 288.804 1.40958 -5.85162 0
M  V30 3006 H 292.63 -0.302032 -3.02194 0
M  V30 3007 H 290.215 -0.213825 -1.47862 0
M  V30 3008 H 292.097 2.06227 -3.67489 0
M  V30 3009 H 290.772 2.08133 -2.47916 0
M  V30 3010 H 289.679 0.136084 -3.73852 0
M  V30 3011 H 291.012 0.198718 -4.91799 0
M  V30 3012 N 292.664 1.56529 -0.183458 0
M  V30 3013 C 293.627 2.17324 0.728223 0
M  V30 3014 C 294.627 1.12453 1.14939 0
M  V30 3015 O 295.817 1.37902 1.06437 0
M  V30 3016 C 292.949 2.76591 1.99274 0
M  V30 3017 H 294.142 2.99241 0.198772 0
M  V30 3018 H 291.695 1.5616 0.0661391 0
M  V30 3019 H 292.43 1.98441 2.56499 0
M  V30 3020 H 292.215 3.5335 1.69959 0
M  V30 3021 H 293.705 3.23311 2.6431 0
M  V30 3022 N 294.142 -0.090211 1.57342 0
M  V30 3023 C 295.052 -1.12735 2.05738 0
M  V30 3024 C 296.068 -1.43557 0.983231 0
M  V30 3025 O 297.244 -1.54101 1.29672 0
M  V30 3026 C 294.309 -2.42659 2.47624 0
M  V30 3027 C 293.37 -2.18975 3.69254 0
M  V30 3028 C 292.603 -3.42704 4.09133 0
M  V30 3029 O 292.826 -4.51127 3.49057 0
M  V30 3030 O 291.76 -3.32003 5.02053 0
M  V30 3031 H 295.586 -0.746279 2.94388 0
M  V30 3032 H 293.171 -0.303064 1.46294 0
M  V30 3033 H 295.053 -3.19155 2.7517 0
M  V30 3034 H 293.728 -2.80182 1.62109 0
M  V30 3035 H 292.635 -1.40244 3.46818 0
M  V30 3036 H 293.968 -1.86342 4.55563 0
M  V30 3037 N 295.62 -1.53406 -0.361157 0
M  V30 3038 C 296.553 -1.74946 -1.46524 0
M  V30 3039 C 297.531 -0.59795 -1.51206 0
M  V30 3040 O 298.715 -0.831062 -1.69191 0
M  V30 3041 C 295.842 -1.83224 -2.84863 0
M  V30 3042 C 294.888 -3.05233 -2.97885 0
M  V30 3043 S 295.721 -4.6466 -2.66179 0
M  V30 3044 C 296.877 -4.75793 -4.06659 0
M  V30 3045 H 297.11 -2.68319 -1.28033 0
M  V30 3046 H 294.643 -1.44051 -0.555764 0
M  V30 3047 H 296.601 -1.88679 -3.64569 0
M  V30 3048 H 295.262 -0.908948 -3.00661 0
M  V30 3049 H 294.455 -3.07648 -3.9921 0
M  V30 3050 H 294.057 -2.97913 -2.26106 0
M  V30 3051 H 296.349 -4.5612 -5.0096 0
M  V30 3052 H 297.292 -5.7786 -4.09247 0
M  V30 3053 H 297.7 -4.04389 -3.93865 0
M  V30 3054 N 297.098 0.621204 -1.44841 0
M  V30 3055 C 298.346 1.37783 -1.47852 0
M  V30 3056 C 298.667 1.94653 -0.116224 0
M  V30 3057 O 297.937 1.76367 0.852737 0
M  V30 3058 H 296.517 0.511453 -0.544449 0
M  V30 3059 H 299.179 0.730446 -1.80694 0
M  V30 3060 H 298.275 2.20414 -2.20961 0
M  V30 3061 N 298.576 1.31904 0.862503 0
M  V30 3062 C 299.816 1.23324 1.63004 0
M  V30 3063 C 300.18 -0.203724 1.90916 0
M  V30 3064 O 301.381 -0.413132 2.65606 0
M  V30 3065 C 299.652 2.06116 2.91978 0
M  V30 3066 S 301.211 2.14478 3.82812 0
M  V30 3067 H 298.029 0.439117 0.559193 0
M  V30 3068 H 300.631 1.66658 1.02202 0
M  V30 3069 H 299.335 3.09593 2.69407 0
M  V30 3070 H 298.866 1.6353 3.57801 0
M  V30 3071 H 300.881 1.28855 4.79177 0
M  V30 3072 N 300.054 -1.07777 1.14986 0
M  V30 3073 C 301.017 -2.13041 0.845358 0
M  V30 3074 C 302.017 -1.60071 -0.152931 0
M  V30 3075 O 303.207 -1.74033 0.0761879 0
M  V30 3076 C 300.339 -3.39896 0.261383 0
M  V30 3077 H 301.532 -2.41485 1.77834 0
M  V30 3078 H 299.085 -1.23595 0.956757 0
M  V30 3079 H 299.82 -3.17091 -0.68 0
M  V30 3080 H 299.605 -3.79642 0.980514 0
M  V30 3081 H 301.095 -4.17548 0.0657687 0
M  V30 3082 N 301.532 -0.945985 -1.26051 0
M  V30 3083 C 302.76 -0.613025 -1.9761 0
M  V30 3084 C 303.175 0.813035 -1.70397 0
M  V30 3085 O 302.532 1.54274 -0.974979 0
M  V30 3086 C 302.583 -0.85159 -3.51326 0
M  V30 3087 O 302.304 -2.22157 -3.77595 0
M  V30 3088 C 303.805 -0.529831 -4.40122 0
M  V30 3089 H 301.025 -0.230593 -0.630133 0
M  V30 3090 H 303.569 -1.268 -1.60443 0
M  V30 3091 H 301.724 -0.243151 -3.86636 0
M  V30 3092 H 302.138 -2.2852 -4.721 0
M  V30 3093 H 303.612 -0.747348 -5.46917 0
M  V30 3094 H 304.089 0.535341 -4.35925 0
M  V30 3095 H 304.695 -1.11721 -4.10364 0
M  V30 3096 N 303.011 1.40521 -0.713556 0
M  V30 3097 C 303.941 2.33381 -0.0743864 0
M  V30 3098 C 304.922 1.52784 0.747735 0
M  V30 3099 O 306.107 1.81258 0.697071 0
M  V30 3100 C 303.237 3.36748 0.849598 0
M  V30 3101 C 302.191 4.27793 0.133247 0
M  V30 3102 C 301.517 5.21679 1.17281 0
M  V30 3103 C 302.817 5.12415 -1.01134 0
M  V30 3104 H 304.511 2.87081 -0.850007 0
M  V30 3105 H 302.057 1.38034 -0.410201 0
M  V30 3106 H 304.01 4.00648 1.30612 0
M  V30 3107 H 302.734 2.81439 1.65709 0
M  V30 3108 H 301.393 3.65342 -0.303426 0
M  V30 3109 H 301.041 4.62677 1.9733 0
M  V30 3110 H 300.741 5.83435 0.698397 0
M  V30 3111 H 302.265 5.88456 1.62947 0
M  V30 3112 H 303.679 5.69781 -0.634274 0
M  V30 3113 H 302.076 5.83203 -1.41399 0
M  V30 3114 H 303.146 4.48514 -1.84292 0
M  V30 3115 N 304.489 0.459591 1.5075 0
M  V30 3116 C 305.437 -0.354678 2.2988 0
M  V30 3117 C 306.431 -1.00086 1.36672 0
M  V30 3118 O 307.637 -0.933277 1.53915 0
M  V30 3119 H 304.012 -0.13321 0.740107 0
M  V30 3120 H 305.983 0.333269 2.96533 0
M  V30 3121 C 304.732 -1.43073 3.169 0
M  V30 3122 H 304.055 -0.942882 3.88523 0
M  V30 3123 H 305.495 -1.97328 3.75284 0
M  V30 3124 C 303.954 -2.42633 2.33732 0
M  V30 3125 O 304.484 -3.47658 2.01238 0
M  V30 3126 N 302.69 -2.14066 1.9653 0
M  V30 3127 H 302.237 -1.28685 2.23155 0
M  V30 3128 H 302.195 -2.80917 1.41185 0
M  V30 3129 N 305.967 -1.56429 0.191757 0
M  V30 3130 C 306.915 -2.20273 -0.747174 0
M  V30 3131 C 307.909 -1.17288 -1.22229 0
M  V30 3132 O 309.115 -1.35441 -1.18557 0
M  V30 3133 H 305.49 -0.705885 -0.259289 0
M  V30 3134 H 307.461 -2.97826 -0.184963 0
M  V30 3135 C 306.21 -2.87356 -1.95759 0
M  V30 3136 H 305.533 -3.66341 -1.60106 0
M  V30 3137 H 306.973 -3.3547 -2.59299 0
M  V30 3138 C 305.432 -1.88213 -2.79423 0
M  V30 3139 O 305.962 -1.38033 -3.7724 0
M  V30 3140 N 304.168 -1.56516 -2.44849 0
M  V30 3141 H 303.715 -1.97516 -1.65364 0
M  V30 3142 H 303.673 -0.904369 -3.01112 0
M  V30 3143 N 307.445 0.0818655 -1.57387 0
M  V30 3144 C 308.673 0.796108 -1.9097 0
M  V30 3145 C 309.088 1.71626 -0.786757 0
M  V30 3146 O 308.445 1.80908 0.240513 0
M  V30 3147 C 308.496 1.59829 -3.24248 0
M  V30 3148 O 308.217 0.715131 -4.32224 0
M  V30 3149 C 309.718 2.41442 -3.7178 0
M  V30 3150 H 306.938 0.22691 -0.631469 0
M  V30 3151 H 309.482 0.0551439 -2.04426 0
M  V30 3152 H 307.637 2.29163 -3.12351 0
M  V30 3153 H 308.051 1.27205 -5.08841 0
M  V30 3154 H 309.525 2.932 -4.67694 0
M  V30 3155 H 310.002 3.2051 -3.00283 0
M  V30 3156 H 310.608 1.77283 -3.86589 0
M  V30 3157 N 308.923 1.53595 0.353017 0
M  V30 3158 C 310.334 1.61937 0.929153 0
M  V30 3159 C 310.685 0.494686 1.89861 0
M  V30 3160 O 309.81 -0.377017 2.1309 0
M  V30 3161 C 310.405 2.93526 1.69199 0
M  V30 3162 C 308.964 3.04161 2.21727 0
M  V30 3163 C 308.111 2.57322 1.03348 0
M  V30 3164 H 311.062 1.58155 0.131431 0
M  V30 3165 H 311.083 2.82034 2.55416 0
M  V30 3166 H 310.595 3.75362 0.986144 0
M  V30 3167 H 308.696 2.26938 2.95516 0
M  V30 3168 H 308.809 4.09465 2.48748 0
M  V30 3169 H 307.173 2.12499 1.40414 0
M  V30 3170 H 307.956 3.41588 0.342428 0
M  V30 3171 N 310.401 -0.613514 1.45168 0
M  V30 3172 C 311.626 -1.40437 1.52618 0
M  V30 3173 C 312.051 -1.87438 0.157707 0
M  V30 3174 O 311.409 -1.59791 -0.856537 0
M  V30 3175 C 311.457 -2.58894 2.51011 0
M  V30 3176 O 310.561 -3.59326 2.02382 0
M  V30 3177 H 309.902 -0.419506 0.514695 0
M  V30 3178 H 312.432 -0.747215 1.90467 0
M  V30 3179 H 312.442 -3.06214 2.69624 0
M  V30 3180 H 311.117 -2.24032 3.50403 0
M  V30 3181 H 309.694 -3.18695 1.93618 0
M  V30 3182 N 311.879 -1.3236 -0.855495 0
M  V30 3183 C 313.104 -1.2601 -1.64731 0
M  V30 3184 C 313.529 0.169068 -1.87339 0
M  V30 3185 O 312.887 1.12016 -1.42556 0
M  V30 3186 C 312.935 -2.02417 -2.98429 0
M  V30 3187 O 312.039 -1.3714 -3.8893 0
M  V30 3188 H 311.38 -0.434325 -0.502253 0
M  V30 3189 H 313.91 -1.74661 -1.06558 0
M  V30 3190 H 313.92 -2.12559 -3.48257 0
M  V30 3191 H 312.595 -3.06343 -2.81295 0
M  V30 3192 H 311.172 -1.3554 -3.47395 0
M  V30 3193 N 313.357 1.07166 -1.15556 0
M  V30 3194 C 314.32 2.12589 -0.856644 0
M  V30 3195 C 315.32 1.6015 0.14444 0
M  V30 3196 O 316.51 1.7399 -0.0854163 0
M  V30 3197 C 313.642 3.39753 -0.279405 0
M  V30 3198 H 314.835 2.40539 -1.79112 0
M  V30 3199 H 312.388 1.23086 -0.963298 0
M  V30 3200 H 313.123 3.17447 0.663174 0
M  V30 3201 H 312.908 3.79117 -1.00063 0
M  V30 3202 H 314.398 4.17507 -0.0879113 0
M  V30 3203 N 314.835 0.952656 1.25548 0
M  V30 3204 C 315.745 0.47782 2.29682 0
M  V30 3205 C 316.761 -0.453859 1.67977 0
M  V30 3206 O 317.937 -0.330587 1.98668 0
M  V30 3207 C 315.002 -0.238655 3.45878 0
M  V30 3208 C 314.063 0.730994 4.23031 0
M  V30 3209 C 313.296 0.0486165 5.33678 0
M  V30 3210 O 313.519 -1.16612 5.58353 0
M  V30 3211 O 312.453 0.733152 5.97418 0
M  V30 3212 H 316.279 1.34312 2.72386 0
M  V30 3213 H 313.864 0.719026 1.30959 0
M  V30 3214 H 315.746 -0.641774 4.16484 0
M  V30 3215 H 314.421 -1.07916 3.05181 0
M  V30 3216 H 313.328 1.18428 3.5486 0
M  V30 3217 H 314.661 1.53946 4.67506 0
M  V30 3218 N 316.313 -1.40141 0.720998 0
M  V30 3219 C 317.243 -2.33339 0.0867621 0
M  V30 3220 C 318.224 -1.53178 -0.739622 0
M  V30 3221 O 319.409 -1.81625 -0.687449 0
M  V30 3222 C 316.539 -3.37194 -0.831728 0
M  V30 3223 C 315.493 -4.27857 -0.110558 0
M  V30 3224 C 314.819 -5.22294 -1.14513 0
M  V30 3225 C 316.119 -5.11872 1.0385 0
M  V30 3226 H 317.813 -2.86626 0.865219 0
M  V30 3227 H 315.359 -1.37814 0.417516 0
M  V30 3228 H 317.312 -4.01335 -1.28485 0
M  V30 3229 H 316.036 -2.82314 -1.64214 0
M  V30 3230 H 314.695 -3.65176 0.322797 0
M  V30 3231 H 314.343 -4.63717 -1.94874 0
M  V30 3232 H 314.043 -5.83797 -0.667446 0
M  V30 3233 H 315.567 -5.89312 -1.59824 0
M  V30 3234 H 316.981 -5.69436 0.664482 0
M  V30 3235 H 315.378 -5.82445 1.4449 0
M  V30 3236 H 316.448 -4.4753 1.86668 0
M  V30 3237 N 317.792 -0.46758 -1.50504 0
M  V30 3238 C 318.722 0.318381 -2.31319 0
M  V30 3239 C 319.703 0.993564 -1.38066 0
M  V30 3240 O 320.888 0.991411 -1.66987 0
M  V30 3241 C 318.018 1.40275 -3.17711 0
M  V30 3242 C 316.972 0.849373 -4.19487 0
M  V30 3243 C 316.298 2.03177 -4.94594 0
M  V30 3244 C 317.598 -0.136942 -5.2212 0
M  V30 3245 H 319.292 -0.356106 -2.97275 0
M  V30 3246 H 316.838 -0.172703 -1.42961 0
M  V30 3247 H 318.791 1.96004 -3.73042 0
M  V30 3248 H 317.515 2.10596 -2.49634 0
M  V30 3249 H 316.174 0.314076 -3.65252 0
M  V30 3250 H 315.822 2.72187 -4.22993 0
M  V30 3251 H 315.522 1.66774 -5.63436 0
M  V30 3252 H 317.046 2.59403 -5.52759 0
M  V30 3253 H 318.46 0.331056 -5.72343 0
M  V30 3254 H 316.857 -0.41507 -5.98663 0
M  V30 3255 H 317.927 -1.06398 -4.73083 0
M  V30 3256 N 319.27 1.56325 -0.20005 0
M  V30 3257 C 320.518 1.97329 0.436547 0
M  V30 3258 C 320.839 1.08826 1.61808 0
M  V30 3259 O 320.109 0.160604 1.95241 0
M  V30 3260 H 318.689 0.728714 0.164272 0
M  V30 3261 H 321.351 1.92761 -0.287937 0
M  V30 3262 H 320.447 3.02264 0.777353 0
M  V30 3263 N 320.748 -0.0735177 1.57428 0
M  V30 3264 C 321.996 -0.771472 1.86796 0
M  V30 3265 C 322.317 -1.78201 0.791804 0
M  V30 3266 O 321.587 -1.95074 -0.179718 0
M  V30 3267 H 320.167 -0.28791 0.689287 0
M  V30 3268 H 322.829 -0.0500161 1.94836 0
M  V30 3269 H 321.925 -1.28874 2.8425 0
M  V30 3270 N 322.226 -1.5378 -0.344866 0
M  V30 3271 C 323.503 -1.61589 -1.10219 0
M  V30 3272 C 323.883 -0.436316 -2.06542 0
M  V30 3273 O 323.231 0.571543 -2.21237 0
M  V30 3274 C 323.441 -2.97602 -1.82301 0
M  V30 3275 C 324.789 -3.5291 -2.36093 0
M  V30 3276 O 325.813 -2.99768 -1.924 0
M  V30 3277 O 324.672 -4.45859 -3.16026 0
M  V30 3278 H 321.766 -0.653522 -0.506792 0
M  V30 3279 H 324.312 -1.66126 -0.346465 0
M  V30 3280 H 323.084 -3.74893 -1.12121 0
M  V30 3281 H 322.707 -2.9665 -2.64735 0
M  V30 3282 N 323.704 0.605807 -1.45491 0
M  V30 3283 C 324.929 1.39625 -1.53361 0
M  V30 3284 C 325.354 1.87351 -0.167645 0
M  V30 3285 O 324.712 1.60243 0.848051 0
M  V30 3286 C 324.76 2.57559 -2.5238 0
M  V30 3287 O 323.864 3.58248 -2.04285 0
M  V30 3288 H 323.205 0.416771 -0.516912 0
M  V30 3289 H 325.735 0.737103 -1.90861 0
M  V30 3290 H 325.745 3.0478 -2.71244 0
M  V30 3291 H 324.42 2.22171 -3.51586 0
M  V30 3292 H 322.997 3.17664 -1.95305 0
M  V30 3293 N 325.182 1.32811 0.848464 0
M  V30 3294 C 326.145 1.22194 1.9391 0
M  V30 3295 C 327.145 0.143404 1.60159 0
M  V30 3296 O 328.335 0.394253 1.6968 0
M  V30 3297 C 325.467 0.88067 3.29328 0
M  V30 3298 H 326.66 2.19127 2.04752 0
M  V30 3299 H 324.213 1.16731 1.0394 0
M  V30 3300 H 324.948 -0.0865776 3.24184 0
M  V30 3301 H 324.733 1.66052 3.55203 0
M  V30 3302 H 326.223 0.830871 4.09251 0
M  V30 3303 N 326.66 -1.06551 1.16123 0
M  V30 3304 C 327.607 -2.13961 0.865414 0
M  V30 3305 C 328.577 -1.65066 -0.185055 0
M  V30 3306 O 329.762 -1.90732 -0.05083 0
M  V30 3307 C 326.902 -3.43113 0.369776 0
M  V30 3308 C 326.015 -4.05756 1.48276 0
M  V30 3309 C 325.15 -5.22773 0.942414 0
M  V30 3310 C 324.189 -5.77395 2.03179 0
M  V30 3311 N 323.326 -6.85731 1.50721 0
M  V30 3312 H 328.166 -2.38605 1.78527 0
M  V30 3313 H 325.703 -1.17072 0.890646 0
M  V30 3314 H 327.661 -4.17151 0.0640643 0
M  V30 3315 H 326.291 -3.18695 -0.513143 0
M  V30 3316 H 325.343 -3.29292 1.9045 0
M  V30 3317 H 326.655 -4.42351 2.30493 0
M  V30 3318 H 325.809 -6.03827 0.589729 0
M  V30 3319 H 324.548 -4.87618 0.0895191 0
M  V30 3320 H 323.553 -4.94981 2.3932 0
M  V30 3321 H 324.778 -6.14603 2.8886 0
M  V30 3322 H 322.724 -6.52499 0.676811 0
M  V30 3323 H 322.641 -7.21254 2.26557 0
M  V30 3324 H 323.909 -7.7047 1.18303 0
M  V30 3325 N 328.138 -0.959301 -1.25041 0
M  V30 3326 C 329.048 -0.489994 -2.29426 0
M  V30 3327 C 330.064 0.444944 -1.68215 0
M  V30 3328 O 331.24 0.320046 -1.98841 0
M  V30 3329 C 328.305 0.220309 -3.45999 0
M  V30 3330 C 327.366 -0.753418 -4.22637 0
M  V30 3331 C 326.599 -0.076918 -5.33645 0
M  V30 3332 O 326.822 1.13649 -5.58963 0
M  V30 3333 O 325.756 -0.764824 -5.97021 0
M  V30 3334 H 329.582 -1.35755 -2.71669 0
M  V30 3335 H 327.167 -0.725961 -1.30576 0
M  V30 3336 H 329.049 0.619677 -4.16819 0
M  V30 3337 H 327.724 1.06296 -3.0575 0
M  V30 3338 H 326.631 -1.20308 -3.54227 0
M  V30 3339 H 327.964 -1.56423 -4.66683 0
M  V30 3340 N 329.616 1.39756 -0.72842 0
M  V30 3341 C 330.863 2.00645 -0.273487 0
M  V30 3342 C 331.191 1.57786 1.13727 0
M  V30 3343 O 330.446 0.794886 1.7883 0
M  V30 3344 C 330.745 3.56002 -0.315776 0
M  V30 3345 C 330.411 4.18489 -1.67863 0
M  V30 3346 C 329.073 4.3527 -2.05166 0
M  V30 3347 C 331.425 4.53219 -2.57375 0
M  V30 3348 C 328.753 4.84069 -3.31503 0
M  V30 3349 C 331.105 5.03423 -3.83077 0
M  V30 3350 C 329.769 5.18413 -4.20481 0
M  V30 3351 H 329.039 0.734211 -0.100076 0
M  V30 3352 H 331.686 1.6718 -0.933972 0
M  V30 3353 H 329.991 3.89452 0.428285 0
M  V30 3354 H 331.688 4.00963 0.0542575 0
M  V30 3355 H 328.278 4.05824 -1.37858 0
M  V30 3356 H 332.462 4.39878 -2.29827 0
M  V30 3357 H 327.718 4.93859 -3.60435 0
M  V30 3358 H 331.892 5.2927 -4.52599 0
M  V30 3359 H 329.519 5.55987 -5.18443 0
M  V30 3360 N 331.094 0.475555 1.50254 0
M  V30 3361 C 332.057 -0.305016 2.27161 0
M  V30 3362 C 333.057 -0.916519 1.32123 0
M  V30 3363 O 334.247 -0.785003 1.5551 0
M  V30 3364 C 331.379 -1.43496 3.09227 0
M  V30 3365 H 332.572 0.369511 2.97615 0
M  V30 3366 H 330.125 0.229747 1.54602 0
M  V30 3367 H 330.86 -2.14441 2.43281 0
M  V30 3368 H 330.645 -1.00223 3.79075 0
M  V30 3369 H 332.135 -1.98548 3.67381 0
M  V30 3370 N 332.573 -1.56217 0.208337 0
M  V30 3371 C 333.85 -1.89739 -0.475234 0
M  V30 3372 C 334.23 -1.1238 -1.78701 0
M  V30 3373 O 333.578 -0.228979 -2.2735 0
M  V30 3374 C 333.788 -3.42289 -0.681101 0
M  V30 3375 C 335.136 -4.12789 -0.994507 0
M  V30 3376 O 336.16 -3.47814 -0.768357 0
M  V30 3377 O 335.019 -5.27649 -1.42299 0
M  V30 3378 H 332.113 -0.788478 -0.249461 0
M  V30 3379 H 334.659 -1.67855 0.249538 0
M  V30 3380 H 333.431 -3.90534 0.244722 0
M  V30 3381 H 333.054 -3.69909 -1.45785 0
M  V30 3382 N 334.051 0.0651679 -1.57465 0
M  V30 3383 C 334.998 1.07675 -2.04144 0
M  V30 3384 C 335.968 1.38071 -0.923335 0
M  V30 3385 O 337.153 1.49026 -1.19146 0
M  V30 3386 C 334.293 2.38337 -2.49579 0
M  V30 3387 C 333.406 2.14413 -3.75035 0
M  V30 3388 C 332.541 3.38686 -4.09225 0
M  V30 3389 C 331.58 3.10156 -5.27702 0
M  V30 3390 N 330.717 4.26778 -5.57499 0
M  V30 3391 H 335.557 0.671716 -2.90331 0
M  V30 3392 H 333.094 0.3201 -1.43575 0
M  V30 3393 H 335.052 3.14632 -2.73975 0
M  V30 3394 H 333.682 2.7663 -1.6636 0
M  V30 3395 H 332.734 1.2878 -3.57939 0
M  V30 3396 H 334.046 1.89344 -4.61466 0
M  V30 3397 H 333.2 4.23373 -4.34558 0
M  V30 3398 H 331.939 3.66837 -3.21374 0
M  V30 3399 H 330.944 2.23866 -5.02159 0
M  V30 3400 H 332.169 2.8332 -6.17176 0
M  V30 3401 H 330.115 4.54948 -4.72608 0
M  V30 3402 H 330.032 4.05005 -6.38362 0
M  V30 3403 H 331.3 5.12443 -5.87386 0
M  V30 3404 N 335.529 1.53961 0.336706 0
M  V30 3405 C 336.94 1.62914 0.911925 0
M  V30 3406 C 337.291 0.514795 1.89326 0
M  V30 3407 O 336.416 -0.354395 2.13478 0
M  V30 3408 C 337.011 2.95304 1.66076 0
M  V30 3409 C 335.57 3.06496 2.18489 0
M  V30 3410 C 334.717 2.58403 1.00613 0
M  V30 3411 H 337.668 1.58285 0.114649 0
M  V30 3412 H 337.689 2.84727 2.5241 0
M  V30 3413 H 337.201 3.76387 0.946276 0
M  V30 3414 H 335.302 2.3006 2.93092 0
M  V30 3415 H 335.415 4.1208 2.44391 0
M  V30 3416 H 333.779 2.13977 1.38152 0
M  V30 3417 H 334.562 3.41932 0.306179 0
M  V30 3418 N 337.007 -0.598083 1.45811 0
M  V30 3419 C 338.253 -1.35882 1.50545 0
M  V30 3420 C 338.586 -1.93616 0.150445 0
M  V30 3421 O 337.861 -1.75604 -0.83628 0
M  V30 3422 C 338.144 -2.49966 2.59208 0
M  V30 3423 C 337.997 -1.97367 4.04186 0
M  V30 3424 C 339.316 -3.52068 2.64076 0
M  V30 3425 H 336.435 -0.492717 0.548087 0
M  V30 3426 H 339.077 -0.673319 1.77669 0
M  V30 3427 H 337.227 -3.08443 2.3621 0
M  V30 3428 H 338.899 -1.43466 4.38423 0
M  V30 3429 H 337.142 -1.283 4.14393 0
M  V30 3430 H 337.813 -2.79649 4.75921 0
M  V30 3431 H 340.289 -3.03448 2.84708 0
M  V30 3432 H 339.165 -4.2937 3.41954 0
M  V30 3433 H 339.426 -4.08304 1.69531 0
M  V30 3434 N 338.485 -1.33259 -0.841409 0
M  V30 3435 C 339.448 -1.23221 -1.9326 0
M  V30 3436 C 340.448 -0.151895 -1.60081 0
M  V30 3437 O 341.638 -0.403246 -1.69468 0
M  V30 3438 C 338.77 -0.898123 -3.28856 0
M  V30 3439 H 339.963 -2.2021 -2.03587 0
M  V30 3440 H 337.516 -1.17281 -1.03319 0
M  V30 3441 H 338.251 0.0693841 -3.24226 0
M  V30 3442 H 338.036 -1.67934 -3.54317 0
M  V30 3443 H 339.526 -0.852563 -4.08805 0
M  V30 3444 N 339.963 1.05934 -1.16686 0
M  V30 3445 C 341.188 1.83029 -0.975455 0
M  V30 3446 C 341.613 1.82096 0.471452 0
M  V30 3447 O 340.971 1.22443 1.33706 0
M  V30 3448 C 341.019 3.27372 -1.51195 0
M  V30 3449 O 340.123 4.06054 -0.720701 0
M  V30 3450 H 339.464 0.566194 -0.346872 0
M  V30 3451 H 341.994 1.33541 -1.55009 0
M  V30 3452 H 342.004 3.78186 -1.53099 0
M  V30 3453 H 340.679 3.27366 -2.56523 0
M  V30 3454 H 339.256 3.64812 -0.772458 0
M  V30 3455 N 341.441 0.965919 1.2453 0
M  V30 3456 C 342.689 0.625593 1.92174 0
M  V30 3457 C 343.01 -0.841652 1.75901 0
M  V30 3458 O 342.28 -1.60061 1.12948 0
M  V30 3459 H 340.86 0.228388 0.71123 0
M  V30 3460 H 343.522 1.2266 1.51461 0
M  V30 3461 H 342.618 0.864653 2.99884 0
M  V30 3462 N 342.919 -1.39368 0.735821 0
M  V30 3463 C 344.144 -2.05319 0.293052 0
M  V30 3464 C 344.569 -1.55115 -1.064 0
M  V30 3465 O 343.927 -0.695261 -1.67439 0
M  V30 3466 C 343.975 -3.59305 0.305323 0
M  V30 3467 O 343.079 -4.06299 -0.706761 0
M  V30 3468 H 342.42 -0.650529 0.13307 0
M  V30 3469 H 344.95 -1.78386 1.00197 0
M  V30 3470 H 344.96 -4.07724 0.149997 0
M  V30 3471 H 343.635 -3.95207 1.29553 0
M  V30 3472 H 342.212 -3.69292 -0.517504 0
M  V30 3473 N 344.397 -0.483516 -1.5 0
M  V30 3474 C 345.345 0.318061 -2.30415 0
M  V30 3475 C 346.339 0.978988 -1.38247 0
M  V30 3476 O 347.545 0.908673 -1.55381 0
M  V30 3477 H 343.92 0.121419 -0.742133 0
M  V30 3478 H 345.891 -0.380403 -2.95965 0
M  V30 3479 C 344.64 1.38013 -3.19136 0
M  V30 3480 H 343.963 0.880952 -3.89973 0
M  V30 3481 H 345.403 1.91332 -3.78375 0
M  V30 3482 C 343.862 2.38884 -2.37563 0
M  V30 3483 O 344.392 3.44412 -2.06744 0
M  V30 3484 N 342.598 2.10912 -1.99911 0
M  V30 3485 H 342.145 1.25118 -2.25174 0
M  V30 3486 H 342.103 2.78635 -1.45636 0
M  V30 3487 N 345.875 1.56104 -0.216619 0
M  V30 3488 C 346.822 2.2007 0.695531 0
M  V30 3489 C 347.792 1.15471 1.19397 0
M  V30 3490 O 348.977 1.43807 1.25396 0
M  V30 3491 C 346.117 2.88073 1.90021 0
M  V30 3492 C 345.23 4.07253 1.44113 0
M  V30 3493 C 344.365 4.63052 2.603 0
M  V30 3494 C 343.404 5.74545 2.11103 0
M  V30 3495 N 342.541 6.24656 3.20545 0
M  V30 3496 H 347.381 2.97655 0.143327 0
M  V30 3497 H 344.918 1.46982 0.0589934 0
M  V30 3498 H 346.876 3.25681 2.60745 0
M  V30 3499 H 345.506 2.13015 2.42538 0
M  V30 3500 H 344.558 3.75164 0.628999 0
M  V30 3501 H 345.87 4.8783 1.04036 0
M  V30 3502 H 345.024 5.03078 3.39113 0
M  V30 3503 H 343.763 3.81628 3.03663 0
M  V30 3504 H 342.768 5.34027 1.3075 0
M  V30 3505 H 343.993 6.57801 1.68746 0
M  V30 3506 H 341.939 5.46148 3.63399 0
M  V30 3507 H 341.856 7.00343 2.84704 0
M  V30 3508 H 343.124 6.69338 3.99508 0
M  V30 3509 N 347.353 -0.0568162 1.57498 0
M  V30 3510 C 348.283 -1.06593 2.0775 0
M  V30 3511 C 349.264 -1.39448 0.974082 0
M  V30 3512 O 350.449 -1.48815 1.24771 0
M  V30 3513 C 347.579 -2.37509 2.5339 0
M  V30 3514 C 346.533 -2.1897 3.67745 0
M  V30 3515 C 345.859 -3.55402 3.99492 0
M  V30 3516 C 347.159 -1.59859 4.97235 0
M  V30 3517 H 348.853 -0.647706 2.9231 0
M  V30 3518 H 346.399 -0.310116 1.40621 0
M  V30 3519 H 348.352 -3.08409 2.87162 0
M  V30 3520 H 347.076 -2.8134 1.65878 0
M  V30 3521 H 345.735 -1.50508 3.3428 0
M  V30 3522 H 345.383 -3.9683 3.09088 0
M  V30 3523 H 345.083 -3.43831 4.76502 0
M  V30 3524 H 346.607 -4.27708 4.35773 0
M  V30 3525 H 348.021 -2.20642 5.29141 0
M  V30 3526 H 346.418 -1.58942 5.78669 0
M  V30 3527 H 347.488 -0.561506 4.81638 0
M  V30 3528 N 348.832 -1.54138 -0.328536 0
M  V30 3529 C 350.078 -1.7236 -1.06865 0
M  V30 3530 C 350.411 -0.493231 -1.87832 0
M  V30 3531 O 349.686 0.5098 -1.877 0
M  V30 3532 C 349.969 -2.99621 -1.99747 0
M  V30 3533 C 349.822 -4.32899 -1.22143 0
M  V30 3534 C 351.141 -3.22615 -2.99345 0
M  V30 3535 H 348.26 -0.627151 -0.387105 0
M  V30 3536 H 350.902 -1.86827 -0.345767 0
M  V30 3537 H 349.052 -2.87418 -2.61387 0
M  V30 3538 H 350.724 -4.56978 -0.630017 0
M  V30 3539 H 348.967 -4.30628 -0.523628 0
M  V30 3540 H 349.638 -5.18154 -1.90318 0
M  V30 3541 H 352.114 -3.34248 -2.47826 0
M  V30 3542 H 350.99 -4.13027 -3.61524 0
M  V30 3543 H 351.251 -2.3961 -3.71536 0
M  V30 3544 N 350.31 0.590341 -1.46126 0
M  V30 3545 C 351.242 1.71427 -1.52136 0
M  V30 3546 C 352.255 1.57542 -0.41042 0
M  V30 3547 O 353.444 1.65106 -0.678389 0
M  V30 3548 C 350.544 3.09605 -1.37834 0
M  V30 3549 C 349.717 3.49566 -2.62912 0
M  V30 3550 C 348.776 4.66773 -2.42918 0
M  V30 3551 O 347.802 4.73019 -3.1661 0
M  V30 3552 N 349.004 5.61161 -1.4859 0
M  V30 3553 H 351.769 1.66728 -2.49042 0
M  V30 3554 H 349.33 0.776113 -1.42085 0
M  V30 3555 H 351.322 3.85796 -1.22243 0
M  V30 3556 H 349.892 3.08714 -0.491393 0
M  V30 3557 H 349.112 2.63158 -2.93499 0
M  V30 3558 H 350.4 3.73028 -3.46017 0
M  V30 3559 H 349.798 5.58844 -0.87808 0
M  V30 3560 H 348.355 6.36814 -1.38965 0
M  V30 3561 N 351.788 1.33704 0.83433 0
M  V30 3562 C 353.204 1.13137 1.12571 0
M  V30 3563 C 353.404 -0.0747261 2.01361 0
M  V30 3564 O 352.46 -0.753647 2.4099 0
M  V30 3565 C 353.773 2.42105 1.78342 0
M  V30 3566 C 355.321 2.48054 1.90888 0
M  V30 3567 C 355.796 3.76995 2.60075 0
M  V30 3568 N 357.287 3.78092 2.67584 0
M  V30 3569 C 358.022 4.74574 3.21818 0
M  V30 3570 N 357.518 5.81434 3.76705 0
M  V30 3571 N 359.311 4.62044 3.20112 0
M  V30 3572 H 351.462 2.11 0.243489 0
M  V30 3573 H 353.725 0.932532 0.17055 0
M  V30 3574 H 353.431 3.30391 1.20561 0
M  V30 3575 H 353.305 2.54594 2.7832 0
M  V30 3576 H 355.692 1.60215 2.47821 0
M  V30 3577 H 355.773 2.39502 0.898459 0
M  V30 3578 H 355.417 4.65219 2.03799 0
M  V30 3579 H 355.347 3.82825 3.61597 0
M  V30 3580 H 357.838 3.00865 2.28667 0
M  V30 3581 H 358.151 6.51084 4.16305 0
M  V30 3582 H 356.496 5.85163 3.7498 0
M  V30 3583 H 359.687 3.77716 2.76493 0
M  V30 3584 H 359.86 5.37406 3.62076 0
M  V30 3585 N 353.266 -1.05314 1.17247 0
M  V30 3586 C 354.512 -1.78557 0.961513 0
M  V30 3587 C 354.845 -1.87419 -0.508697 0
M  V30 3588 O 354.12 -1.37307 -1.37757 0
M  V30 3589 C 354.403 -3.22514 1.60176 0
M  V30 3590 C 354.256 -3.21673 3.14399 0
M  V30 3591 C 355.575 -4.20318 1.30463 0
M  V30 3592 H 352.694 -0.6482 0.350723 0
M  V30 3593 H 355.336 -1.23102 1.44727 0
M  V30 3594 H 353.486 -3.69867 1.18871 0
M  V30 3595 H 355.158 -2.82405 3.64753 0
M  V30 3596 H 353.401 -2.60048 3.47214 0
M  V30 3597 H 354.072 -4.23271 3.54324 0
M  V30 3598 H 356.548 -3.81454 1.66229 0
M  V30 3599 H 355.424 -5.19289 1.77848 0
M  V30 3600 H 355.685 -4.41526 0.22521 0
M  V30 3601 N 354.744 -0.972509 -1.24016 0
M  V30 3602 C 355.99 -0.637978 -1.92504 0
M  V30 3603 C 356.323 0.825383 -1.75787 0
M  V30 3604 O 355.598 1.59442 -1.11393 0
M  V30 3605 C 355.881 -1.01942 -3.45369 0
M  V30 3606 C 355.734 -2.53983 -3.71231 0
M  V30 3607 C 357.053 -0.55751 -4.36555 0
M  V30 3608 H 354.172 -0.233248 -0.699117 0
M  V30 3609 H 356.814 -1.21238 -1.46292 0
M  V30 3610 H 354.964 -0.530656 -3.84859 0
M  V30 3611 H 356.636 -3.10374 -3.41271 0
M  V30 3612 H 354.879 -2.96968 -3.16216 0
M  V30 3613 H 355.55 -2.75723 -4.78206 0
M  V30 3614 H 358.026 -0.977029 -4.04467 0
M  V30 3615 H 356.902 -0.85292 -5.42233 0
M  V30 3616 H 357.163 0.542328 -4.38761 0
M  V30 3617 N 356.222 1.38976 -0.743202 0
M  V30 3618 C 357.452 2.04339 -0.304807 0
M  V30 3619 C 357.86 1.56162 1.06819 0
M  V30 3620 O 357.203 0.725284 1.68776 0
M  V30 3621 C 357.265 3.58716 -0.237369 0
M  V30 3622 C 356.929 4.29905 -1.55018 0
M  V30 3623 C 357.926 4.55987 -2.49744 0
M  V30 3624 C 355.611 4.68294 -1.81675 0
M  V30 3625 C 357.605 5.19478 -3.69353 0
M  V30 3626 C 355.292 5.31512 -3.0156 0
M  V30 3627 C 356.29 5.57037 -3.9522 0
M  V30 3628 O 355.978 6.18941 -5.12998 0
M  V30 3629 H 355.71 0.663439 -0.12971 0
M  V30 3630 H 358.264 1.78852 -1.01001 0
M  V30 3631 H 356.494 3.83133 0.524003 0
M  V30 3632 H 358.183 4.05543 0.170121 0
M  V30 3633 H 358.949 4.26767 -2.30423 0
M  V30 3634 H 354.828 4.47779 -1.09615 0
M  V30 3635 H 358.372 5.39318 -4.42473 0
M  V30 3636 H 354.269 5.60153 -3.20778 0
M  V30 3637 H 355.037 6.37433 -5.13441 0
M  V30 3638 N 357.7 0.491464 1.49741 0
M  V30 3639 C 358.648 -0.305837 2.30581 0
M  V30 3640 C 359.642 -0.971642 1.38764 0
M  V30 3641 O 360.848 -0.90042 1.5586 0
M  V30 3642 H 357.223 -0.117482 0.742767 0
M  V30 3643 H 359.194 0.396093 2.95759 0
M  V30 3644 C 357.943 -1.36319 3.19863 0
M  V30 3645 H 357.266 -0.860258 3.90435 0
M  V30 3646 H 358.706 -1.89323 3.79385 0
M  V30 3647 C 357.165 -2.37621 2.38826 0
M  V30 3648 O 357.695 -3.43311 2.08567 0
M  V30 3649 N 355.901 -2.09849 2.01026 0
M  V30 3650 H 355.448 -1.23922 2.25834 0
M  V30 3651 H 355.406 -2.77859 1.47112 0
M  V30 3652 N 359.178 -1.55987 0.224894 0
M  V30 3653 C 360.141 -2.19178 -0.670348 0
M  V30 3654 C 361.141 -1.15461 -1.11917 0
M  V30 3655 O 362.331 -1.40675 -1.02743 0
M  V30 3656 C 359.463 -2.81777 -1.9187 0
M  V30 3657 H 360.656 -2.99662 -0.119364 0
M  V30 3658 H 358.209 -1.5628 -0.0247128 0
M  V30 3659 H 358.944 -2.05172 -2.51147 0
M  V30 3660 H 358.729 -3.57732 -1.60531 0
M  V30 3661 H 360.219 -3.30205 -2.55645 0
M  V30 3662 N 360.656 0.0484629 -1.57525 0
M  V30 3663 C 361.904 0.741657 -1.88 0
M  V30 3664 C 362.225 1.76918 -0.820054 0
M  V30 3665 O 361.495 1.95335 0.148661 0
M  V30 3666 H 360.075 0.276908 -0.69378 0
M  V30 3667 H 362.737 0.019013 -1.94891 0
M  V30 3668 H 361.833 1.24336 -2.86264 0
M  V30 3669 N 362.134 1.5431 0.320358 0
M  V30 3670 C 363.067 1.78769 1.41834 0
M  V30 3671 C 364.045 0.63783 1.49568 0
M  V30 3672 O 365.229 0.875628 1.66928 0
M  V30 3673 C 362.356 1.90712 2.79905 0
M  V30 3674 C 361.402 3.13023 2.89687 0
M  V30 3675 S 362.235 4.71554 2.53766 0
M  V30 3676 C 363.391 4.86408 3.93902 0
M  V30 3677 H 363.624 2.71619 1.20874 0
M  V30 3678 H 361.157 1.45474 0.517377 0
M  V30 3679 H 363.115 1.98279 3.59438 0
M  V30 3680 H 361.776 0.988343 2.98145 0
M  V30 3681 H 360.969 3.18124 3.90913 0
M  V30 3682 H 360.571 3.03803 2.18128 0
M  V30 3683 H 362.863 4.69241 4.88691 0
M  V30 3684 H 363.806 5.88508 3.93782 0
M  V30 3685 H 364.214 4.14689 3.83005 0
M  V30 3686 N 363.613 -0.582584 1.46437 0
M  V30 3687 C 364.861 -1.33814 1.51453 0
M  V30 3688 C 365.182 -1.94277 0.167792 0
M  V30 3689 O 364.452 -1.78566 -0.805677 0
M  V30 3690 H 363.032 -0.496838 0.557818 0
M  V30 3691 H 365.694 -0.682281 1.82568 0
M  V30 3692 H 364.79 -2.14479 2.26728 0
M  V30 3693 N 365.091 -1.34144 -0.827227 0
M  V30 3694 C 366.337 -1.26446 -1.58554 0
M  V30 3695 C 366.67 0.1664 -1.93486 0
M  V30 3696 O 365.945 1.1107 -1.59667 0
M  V30 3697 C 366.228 -2.15111 -2.8879 0
M  V30 3698 C 366.081 -3.66712 -2.60465 0
M  V30 3699 C 367.4 -2.03311 -3.90324 0
M  V30 3700 H 364.519 -0.46067 -0.575284 0
M  V30 3701 H 367.161 -1.64356 -0.953269 0
M  V30 3702 H 365.311 -1.8291 -3.42748 0
M  V30 3703 H 366.983 -4.09259 -2.1285 0
M  V30 3704 H 365.226 -3.88014 -1.93978 0
M  V30 3705 H 365.897 -4.24112 -3.53317 0
M  V30 3706 H 368.373 -2.31574 -3.45706 0
M  V30 3707 H 367.249 -2.67582 -4.79261 0
M  V30 3708 H 367.51 -1.00879 -4.30437 0
M  V30 3709 N 366.569 1.04691 -1.17803 0
M  V30 3710 C 367.817 1.7743 -0.967617 0
M  V30 3711 C 368.138 1.88359 0.504574 0
M  V30 3712 O 367.408 1.40402 1.36617 0
M  V30 3713 H 365.988 0.657242 -0.355024 0
M  V30 3714 H 368.65 1.2638 -1.48371 0
M  V30 3715 H 367.746 2.78924 -1.40027 0
M  V30 3716 N 368.047 0.979072 1.23499 0
M  V30 3717 C 369.293 0.648178 1.92163 0
M  V30 3718 C 369.626 -0.816049 1.76222 0
M  V30 3719 O 368.901 -1.58849 1.12237 0
M  V30 3720 C 369.184 1.03773 3.44824 0
M  V30 3721 C 369.037 2.55948 3.69879 0
M  V30 3722 C 370.356 0.580653 4.36253 0
M  V30 3723 H 367.475 0.236952 0.69787 0
M  V30 3724 H 370.117 1.22012 1.45647 0
M  V30 3725 H 368.267 0.551058 3.84572 0
M  V30 3726 H 369.939 3.12179 3.3962 0
M  V30 3727 H 368.182 2.98641 3.14636 0
M  V30 3728 H 368.853 2.78255 4.76737 0
M  V30 3729 H 371.329 0.998465 4.03943 0
M  V30 3730 H 370.205 0.881663 5.41773 0
M  V30 3731 H 370.466 -0.519052 4.39042 0
M  V30 3732 N 369.525 -1.3858 0.750561 0
M  V30 3733 C 370.773 -1.99789 0.30477 0
M  V30 3734 C 371.094 -1.59874 -1.11649 0
M  V30 3735 O 370.364 -0.85417 -1.76297 0
M  V30 3736 H 368.944 -0.738902 0.109694 0
M  V30 3737 H 371.606 -1.69391 0.963983 0
M  V30 3738 H 370.702 -3.09952 0.365499 0
M  V30 3739 N 371.003 -0.499398 -1.49478 0
M  V30 3740 C 371.951 0.293604 -2.3074 0
M  V30 3741 C 372.945 0.96427 -1.39277 0
M  V30 3742 O 374.151 0.892141 -1.56336 0
M  V30 3743 H 370.526 0.113541 -0.743379 0
M  V30 3744 H 372.497 -0.411772 -2.95545 0
M  V30 3745 C 371.246 1.3462 -3.20582 0
M  V30 3746 H 370.569 0.83954 -3.90886 0
M  V30 3747 H 372.009 1.87308 -3.80384 0
M  V30 3748 C 370.468 2.36351 -2.40083 0
M  V30 3749 O 370.998 3.422 -2.10385 0
M  V30 3750 N 369.204 2.0878 -2.02137 0
M  V30 3751 H 368.751 1.22723 -2.26488 0
M  V30 3752 H 368.709 2.77075 -1.48583 0
M  V30 3753 N 372.481 1.55866 -0.233164 0
M  V30 3754 C 373.411 2.23783 0.666599 0
M  V30 3755 C 374.392 1.21343 1.19205 0
M  V30 3756 O 375.577 1.4996 1.23392 0
M  V30 3757 C 372.707 2.92671 1.86978 0
M  V30 3758 C 371.661 4.01682 1.47768 0
M  V30 3759 C 370.987 4.57926 2.76058 0
M  V30 3760 C 372.287 5.18126 0.658993 0
M  V30 3761 H 373.981 2.99232 0.100306 0
M  V30 3762 H 371.527 1.43924 0.046804 0
M  V30 3763 H 373.48 3.3888 2.50476 0
M  V30 3764 H 372.204 2.14688 2.46123 0
M  V30 3765 H 370.863 3.56222 0.866106 0
M  V30 3766 H 370.511 3.76659 3.33372 0
M  V30 3767 H 370.211 5.31505 2.50552 0
M  V30 3768 H 371.735 5.06859 3.40479 0
M  V30 3769 H 373.149 5.60644 1.19795 0
M  V30 3770 H 371.546 5.98009 0.500552 0
M  V30 3771 H 372.616 4.83763 -0.331856 0
M  V30 3772 N 373.959 -0.0401083 1.57549 0
M  V30 3773 C 375.187 -0.745196 1.93014 0
M  V30 3774 C 375.602 -1.6948 0.831984 0
M  V30 3775 O 374.959 -1.81482 -0.192463 0
M  V30 3776 C 375.01 -1.51176 3.28372 0
M  V30 3777 O 374.731 -0.600284 4.33968 0
M  V30 3778 C 376.232 -2.315 3.78051 0
M  V30 3779 H 373.452 -0.210088 0.637263 0
M  V30 3780 H 375.996 -0.000924689 2.045 0
M  V30 3781 H 374.151 -2.20801 3.18317 0
M  V30 3782 H 374.565 -1.13669 5.12035 0
M  V30 3783 H 376.039 -2.80697 4.75303 0
M  V30 3784 H 376.516 -3.12436 3.08675 0
M  V30 3785 H 377.122 -1.66971 3.91153 0
M  V30 3786 N 375.437 -1.54477 -0.31217 0
M  V30 3787 C 376.686 -1.72438 -1.04633 0
M  V30 3788 C 376.999 -0.511163 -1.88803 0
M  V30 3789 O 378.205 -0.572341 -2.65399 0
M  V30 3790 C 376.661 -3.05043 -1.9099 0
M  V30 3791 C 376.269 -4.33806 -1.11877 0
M  V30 3792 C 378.013 -3.32364 -2.64073 0
M  V30 3793 C 375.92 -5.57467 -1.97445 0
M  V30 3794 H 374.85 -0.642647 -0.394361 0
M  V30 3795 H 377.501 -1.80966 -0.303929 0
M  V30 3796 H 375.883 -2.90451 -2.69173 0
M  V30 3797 H 377.057 -4.59199 -0.383843 0
M  V30 3798 H 375.372 -4.13336 -0.504252 0
M  V30 3799 H 377.969 -4.21951 -3.28423 0
M  V30 3800 H 378.312 -2.50745 -3.32314 0
M  V30 3801 H 378.845 -3.47875 -1.92944 0
M  V30 3802 H 375.584 -6.41722 -1.33692 0
M  V30 3803 H 375.104 -5.36277 -2.6864 0
M  V30 3804 H 376.783 -5.94303 -2.5576 0
M  V30 3805 N 376.915 0.57481 -1.46744 0
M  V30 3806 C 378.162 1.33272 -1.52462 0
M  V30 3807 C 378.49 1.93669 -0.179572 0
M  V30 3808 O 377.745 1.7743 0.825664 0
M  V30 3809 C 378.044 2.476 -2.57738 0
M  V30 3810 C 377.71 2.05146 -4.01529 0
M  V30 3811 C 376.372 1.93284 -4.40676 0
M  V30 3812 C 378.724 1.72506 -4.91824 0
M  V30 3813 C 376.052 1.47049 -5.67973 0
M  V30 3814 C 378.404 1.27748 -6.19567 0
M  V30 3815 C 377.068 1.14468 -6.57612 0
M  V30 3816 H 376.338 0.487678 -0.557899 0
M  V30 3817 H 378.985 0.646456 -1.80259 0
M  V30 3818 H 377.29 3.21708 -2.23632 0
M  V30 3819 H 378.987 3.05807 -2.5939 0
M  V30 3820 H 375.577 2.15316 -3.7059 0
M  V30 3821 H 379.761 1.80552 -4.62293 0
M  V30 3822 H 375.017 1.35417 -5.96215 0
M  V30 3823 H 379.191 1.01547 -6.88957 0
M  V30 3824 H 376.818 0.78419 -7.56145 0
M  V30 3825 N 378.394 1.34581 0.820102 0
M  V30 3826 C 379.805 1.24298 1.39309 0
M  V30 3827 C 380.156 -0.130351 1.95767 0
M  V30 3828 O 379.281 -1.0308 1.90272 0
M  V30 3829 C 379.876 2.25054 2.53251 0
M  V30 3830 C 378.435 2.18552 3.0645 0
M  V30 3831 C 377.582 2.11503 1.79337 0
M  V30 3832 H 380.533 1.45906 0.624262 0
M  V30 3833 H 380.554 1.86917 3.31425 0
M  V30 3834 H 380.066 3.24996 2.1213 0
M  V30 3835 H 378.167 1.21976 3.52069 0
M  V30 3836 H 378.28 3.0993 3.65349 0
M  V30 3837 H 376.644 1.57268 2.00347 0
M  V30 3838 H 377.427 3.13284 1.40386 0
M  V30 3839 N 379.872 -1.04064 1.18357 0
M  V30 3840 C 380.822 -2.10393 0.878561 0
M  V30 3841 C 381.806 -1.60183 -0.151713 0
M  V30 3842 O 382.998 -1.76923 0.0523303 0
M  V30 3843 C 380.127 -3.4089 0.406096 0
M  V30 3844 C 379.213 -3.97866 1.46844 0
M  V30 3845 N 379.604 -4.28657 2.68489 0
M  V30 3846 C 377.902 -4.2574 1.32896 0
M  V30 3847 C 378.603 -4.74253 3.36836 0
M  V30 3848 N 377.579 -4.75068 2.64219 0
M  V30 3849 H 381.381 -2.32076 1.80327 0
M  V30 3850 H 378.895 -1.21818 1.07397 0
M  V30 3851 H 380.892 -4.16557 0.169088 0
M  V30 3852 H 379.552 -3.20633 -0.512275 0
M  V30 3853 H 380.563 -4.18304 3.05356 0
M  V30 3854 H 377.24 -4.1481 0.473134 0
M  V30 3855 H 378.63 -5.07096 4.40798 0
M  V30 3856 N 381.35 -0.985608 -1.22978 0
M  V30 3857 C 382.282 -0.488154 -2.23941 0
M  V30 3858 C 383.295 0.41282 -1.57479 0
M  V30 3859 O 384.484 0.216121 -1.77187 0
M  V30 3860 C 381.584 0.312611 -3.37455 0
M  V30 3861 C 380.757 -0.582741 -4.33501 0
M  V30 3862 C 379.816 0.165064 -5.25941 0
M  V30 3863 O 378.842 -0.447077 -5.67442 0
M  V30 3864 N 380.044 1.44953 -5.62111 0
M  V30 3865 H 382.809 -1.3563 -2.67254 0
M  V30 3866 H 380.37 -0.859477 -1.37203 0
M  V30 3867 H 382.362 0.821357 -3.96277 0
M  V30 3868 H 380.932 1.0818 -2.93285 0
M  V30 3869 H 380.152 -1.27225 -3.73105 0
M  V30 3870 H 381.44 -1.19275 -4.94622 0
M  V30 3871 H 380.838 1.9683 -5.30353 0
M  V30 3872 H 379.395 1.90361 -6.23383 0
M  V30 3873 N 382.828 1.3818 -0.7579 0
M  V30 3874 C 384.074 2.0078 -0.325423 0
M  V30 3875 C 384.429 1.59085 1.08211 0
M  V30 3876 O 383.722 0.820394 1.73148 0
M  V30 3877 C 383.916 3.55252 -0.391218 0
M  V30 3878 C 383.745 4.11947 -1.8036 0
M  V30 3879 C 382.515 4.43519 -2.42113 0
M  V30 3880 C 384.713 4.33908 -2.76095 0
M  V30 3881 N 382.695 4.85847 -3.75267 0
M  V30 3882 C 384.066 4.78692 -3.94023 0
M  V30 3883 C 386.121 4.16015 -2.73561 0
M  V30 3884 C 384.824 5.07459 -5.09782 0
M  V30 3885 C 386.85 4.45909 -3.88483 0
M  V30 3886 C 386.212 4.90921 -5.0515 0
M  V30 3887 H 382.311 0.764215 -0.165831 0
M  V30 3888 H 384.895 1.67724 -0.988776 0
M  V30 3889 H 383.066 3.87646 0.241886 0
M  V30 3890 H 384.798 4.04653 0.061989 0
M  V30 3891 H 381.553 4.32113 -1.93842 0
M  V30 3892 H 381.977 5.11339 -4.4369 0
M  V30 3893 H 386.619 3.80399 -1.84544 0
M  V30 3894 H 384.337 5.4197 -5.99412 0
M  V30 3895 H 387.923 4.33666 -3.87847 0
M  V30 3896 H 386.803 5.1361 -5.92599 0
M  V30 3897 N 384.306 0.507319 1.49211 0
M  V30 3898 C 385.555 -0.0368315 2.01666 0
M  V30 3899 C 385.868 -1.37459 1.39156 0
M  V30 3900 O 387.074 -2.00579 1.82976 0
M  V30 3901 C 385.53 -0.116089 3.59713 0
M  V30 3902 C 385.138 1.2154 4.31198 0
M  V30 3903 C 386.882 -0.610268 4.2009 0
M  V30 3904 C 384.789 1.09796 5.81119 0
M  V30 3905 H 383.719 -0.0175376 0.753796 0
M  V30 3906 H 386.37 0.647691 1.71689 0
M  V30 3907 H 384.752 -0.8652 3.86433 0
M  V30 3908 H 385.926 1.9783 4.16173 0
M  V30 3909 H 384.241 1.64352 3.82593 0
M  V30 3910 H 386.838 -0.715742 5.29888 0
M  V30 3911 H 387.181 -1.61064 3.8388 0
M  V30 3912 H 387.714 0.0824916 3.97714 0
M  V30 3913 H 384.453 2.0728 6.21864 0
M  V30 3914 H 383.973 0.376058 5.9862 0
M  V30 3915 H 385.652 0.779281 6.4229 0
M  V30 3916 N 385.784 -1.5574 0.241426 0
M  V30 3917 C 386.732 -2.22538 -0.676718 0
M  V30 3918 C 387.726 -1.21117 -1.18436 0
M  V30 3919 O 388.932 -1.39144 -1.14188 0
M  V30 3920 H 385.307 -0.713776 -0.236701 0
M  V30 3921 H 387.278 -2.98264 -0.0901187 0
M  V30 3922 C 386.027 -2.93439 -1.86518 0
M  V30 3923 H 385.35 -3.7125 -1.4837 0
M  V30 3924 H 386.79 -3.43549 -2.48495 0
M  V30 3925 C 385.249 -1.97008 -2.73294 0
M  V30 3926 O 385.779 -1.49965 -3.72657 0
M  V30 3927 N 383.985 -1.64227 -2.39745 0
M  V30 3928 H 383.532 -2.02677 -1.58996 0
M  V30 3929 H 383.49 -0.999708 -2.98083 0
M  V30 3930 N 387.262 0.0317525 -1.57568 0
M  V30 3931 C 388.192 1.03274 -2.0942 0
M  V30 3932 C 389.173 1.3788 -0.996143 0
M  V30 3933 O 390.358 1.46811 -1.27122 0
M  V30 3934 C 387.488 2.33448 -2.57137 0
M  V30 3935 C 386.442 2.13091 -3.71182 0
M  V30 3936 C 385.768 3.49001 -4.05095 0
M  V30 3937 C 387.068 1.51928 -4.99715 0
M  V30 3938 H 388.762 0.60112 -2.93303 0
M  V30 3939 H 386.308 0.287705 -1.41097 0
M  V30 3940 H 388.261 3.03802 -2.92032 0
M  V30 3941 H 386.985 2.78665 -1.70333 0
M  V30 3942 H 385.644 1.45171 -3.36632 0
M  V30 3943 H 385.292 3.91862 -3.15362 0
M  V30 3944 H 384.992 3.36207 -4.81911 0
M  V30 3945 H 386.516 4.20721 -4.42522 0
M  V30 3946 H 387.93 2.12196 -5.32584 0
M  V30 3947 H 386.327 1.49716 -5.81124 0
M  V30 3948 H 387.397 0.484811 -4.8247 0
M  V30 3949 N 388.74 1.54641 0.303973 0
M  V30 3950 C 390.156 1.45788 0.649463 0
M  V30 3951 C 390.356 0.64666 1.90842 0
M  V30 3952 O 389.412 0.153183 2.52035 0
M  V30 3953 C 390.725 2.89718 0.805227 0
M  V30 3954 C 392.273 2.99742 0.901305 0
M  V30 3955 C 392.748 4.44863 1.08909 0
M  V30 3956 N 394.239 4.48559 1.15536 0
M  V30 3957 C 394.974 5.58026 1.3189 0
M  V30 3958 N 394.47 6.77422 1.45161 0
M  V30 3959 N 396.263 5.45708 1.34755 0
M  V30 3960 H 388.414 2.05854 -0.523237 0
M  V30 3961 H 390.677 0.932186 -0.172431 0
M  V30 3962 H 390.383 3.51666 -0.0489108 0
M  V30 3963 H 390.257 3.36964 1.69513 0
M  V30 3964 H 392.644 2.3791 1.74593 0
M  V30 3965 H 392.725 2.55797 -0.0125531 0
M  V30 3966 H 392.369 5.07288 0.249241 0
M  V30 3967 H 392.299 4.86436 2.01713 0
M  V30 3968 H 394.79 3.6254 1.06646 0
M  V30 3969 H 395.103 7.56604 1.57387 0
M  V30 3970 H 393.448 6.80292 1.42223 0
M  V30 3971 H 396.639 4.51378 1.23996 0
M  V30 3972 H 396.812 6.3107 1.47157 0
M  V30 3973 N 390.218 -0.567019 1.47046 0
M  V30 3974 C 391.446 -1.35027 1.56765 0
M  V30 3975 C 391.861 -1.8758 0.214316 0
M  V30 3976 O 391.218 -1.64471 -0.790919 0
M  V30 3977 C 391.269 -2.52698 2.58507 0
M  V30 3978 O 390.99 -2.0232 3.88585 0
M  V30 3979 C 392.491 -3.45043 2.78316 0
M  V30 3980 H 389.711 -0.41195 0.529658 0
M  V30 3981 H 392.255 -0.687832 1.92585 0
M  V30 3982 H 390.41 -3.149 2.25648 0
M  V30 3983 H 390.824 -2.79068 4.44096 0
M  V30 3984 H 392.298 -4.2405 3.53391 0
M  V30 3985 H 392.775 -3.97971 1.85784 0
M  V30 3986 H 393.381 -2.88665 3.12334 0
M  V30 3987 N 391.696 -1.35014 -0.812953 0
M  V30 3988 C 392.644 -1.27435 -1.94585 0
M  V30 3989 C 393.638 -0.170494 -1.6854 0
M  V30 3990 O 394.844 -0.336085 -1.76835 0
M  V30 3991 H 391.219 -0.396144 -0.639198 0
M  V30 3992 H 393.19 -2.23158 -1.98098 0
M  V30 3993 C 391.939 -1.05677 -3.31252 0
M  V30 3994 H 391.262 -1.89853 -3.51846 0
M  V30 3995 H 392.702 -1.04413 -4.10943 0
M  V30 3996 C 391.161 0.239615 -3.36047 0
M  V30 3997 O 391.691 1.23759 -3.8216 0
M  V30 3998 N 389.897 0.276186 -2.89285 0
M  V30 3999 H 389.444 -0.53653 -2.51951 0
M  V30 4000 H 389.402 1.14332 -2.92875 0
M  V30 4001 N 393.175 1.03435 -1.18907 0
M  V30 4002 C 394.123 2.13703 -0.918353 0
M  V30 4003 C 395.117 1.68947 0.123767 0
M  V30 4004 O 396.323 1.79983 -0.0249701 0
M  V30 4005 H 392.698 0.698112 -0.279542 0
M  V30 4006 H 394.669 2.33731 -1.85506 0
M  V30 4007 C 393.418 3.44542 -0.467532 0
M  V30 4008 H 392.741 3.79394 -1.26095 0
M  V30 4009 H 394.181 4.22812 -0.317164 0
M  V30 4010 C 392.64 3.26829 0.817588 0
M  V30 4011 O 393.17 3.54975 1.88031 0
M  V30 4012 N 391.376 2.80139 0.772677 0
M  V30 4013 H 390.923 2.57434 -0.0923883 0
M  V30 4014 H 390.881 2.68668 1.63294 0
M  V30 4015 N 394.653 0.992116 1.22453 0
M  V30 4016 C 395.878 0.685644 1.95739 0
M  V30 4017 C 396.303 -0.743 1.72804 0
M  V30 4018 O 395.661 -1.50778 1.00676 0
M  V30 4019 C 395.709 0.996293 3.46564 0
M  V30 4020 O 394.813 0.0945512 4.12292 0
M  V30 4021 H 394.154 0.256694 0.612376 0
M  V30 4022 H 396.684 1.32888 1.5557 0
M  V30 4023 H 396.694 0.93781 3.97076 0
M  V30 4024 H 395.369 2.03733 3.62582 0
M  V30 4025 H 393.946 0.208451 3.72317 0
M  V30 4026 N 396.131 -1.37776 0.765217 0
M  V30 4027 C 397.094 -2.28686 0.153416 0
M  V30 4028 C 398.094 -1.47727 -0.635081 0
M  V30 4029 O 399.284 -1.68027 -0.459632 0
M  V30 4030 C 396.416 -3.31608 -0.790495 0
M  V30 4031 H 397.609 -2.84297 0.954723 0
M  V30 4032 H 395.162 -1.46932 0.53299 0
M  V30 4033 H 395.897 -2.81109 -1.61705 0
M  V30 4034 H 395.682 -3.9144 -0.227348 0
M  V30 4035 H 397.172 -3.99559 -1.21419 0
M  V30 4036 N 397.609 -0.515225 -1.4894 0
M  V30 4037 C 398.837 0.0206034 -2.0689 0
M  V30 4038 C 399.252 1.29514 -1.37374 0
M  V30 4039 O 398.609 1.76698 -0.456529 0
M  V30 4040 C 398.66 0.26351 -3.60538 0
M  V30 4041 O 398.381 -0.960517 -4.27441 0
M  V30 4042 C 399.882 0.841383 -4.35242 0
M  V30 4043 H 397.102 -0.0268608 -0.670462 0
M  V30 4044 H 399.646 -0.716651 -1.91532 0
M  V30 4045 H 397.801 0.950777 -3.75552 0
M  V30 4046 H 398.215 -0.73212 -5.19365 0
M  V30 4047 H 399.689 0.96085 -5.43573 0
M  V30 4048 H 400.166 1.8427 -3.98674 0
M  V30 4049 H 400.772 0.191143 -4.2487 0
M  V30 4050 N 399.087 1.5561 -0.249682 0
M  V30 4051 C 400.336 1.98187 0.37479 0
M  V30 4052 C 400.649 1.14111 1.58865 0
M  V30 4053 O 401.855 1.46714 2.28445 0
M  V30 4054 C 400.311 3.52661 0.718192 0
M  V30 4055 C 399.919 4.45481 -0.474428 0
M  V30 4056 C 401.663 4.03888 1.3067 0
M  V30 4057 C 399.57 5.91303 -0.107026 0
M  V30 4058 H 398.5 0.740159 0.143808 0
M  V30 4059 H 401.151 1.80125 -0.350336 0
M  V30 4060 H 399.533 3.66429 1.50152 0
M  V30 4061 H 400.707 4.43473 -1.25172 0
M  V30 4062 H 399.022 4.04751 -0.978052 0
M  V30 4063 H 401.619 5.10358 1.59496 0
M  V30 4064 H 401.962 3.51401 2.23211 0
M  V30 4065 H 402.495 3.93457 0.586211 0
M  V30 4066 H 399.234 6.47833 -0.999642 0
M  V30 4067 H 398.754 5.9644 0.634013 0
M  V30 4068 H 400.433 6.46258 0.309807 0
M  V30 4069 N 400.565 -0.0233959 1.57583 0
M  V30 4070 C 401.811 -0.714119 1.89811 0
M  V30 4071 C 402.144 -1.74702 0.848113 0
M  V30 4072 O 401.419 -1.94023 -0.136135 0
M  V30 4073 C 401.702 -1.37853 3.32669 0
M  V30 4074 C 401.555 -0.358764 4.48367 0
M  V30 4075 C 402.874 -2.31101 3.7454 0
M  V30 4076 H 399.993 -0.25814 0.690314 0
M  V30 4077 H 402.635 0.0230927 1.89986 0
M  V30 4078 H 400.785 -2.00689 3.3265 0
M  V30 4079 H 402.457 0.268115 4.6052 0
M  V30 4080 H 400.7 0.321387 4.32608 0
M  V30 4081 H 401.371 -0.862242 5.45224 0
M  V30 4082 H 403.847 -1.78304 3.75961 0
M  V30 4083 H 402.723 -2.74567 4.75294 0
M  V30 4084 H 402.984 -3.18018 3.0711 0
M  V30 4085 N 402.043 -1.548 -0.295768 0
M  V30 4086 C 402.976 -1.81003 -1.38972 0
M  V30 4087 C 403.954 -0.661544 -1.48534 0
M  V30 4088 O 405.138 -0.902074 -1.65514 0
M  V30 4089 C 402.265 -1.95141 -2.76835 0
M  V30 4090 C 401.311 -3.17592 -2.84671 0
M  V30 4091 S 402.144 -4.75531 -2.46232 0
M  V30 4092 C 403.3 -4.92613 -3.86114 0
M  V30 4093 H 403.533 -2.73507 -1.16537 0
M  V30 4094 H 401.066 -1.46278 -0.494168 0
M  V30 4095 H 403.024 -2.03972 -3.56238 0
M  V30 4096 H 401.685 -1.03565 -2.96535 0
M  V30 4097 H 400.878 -3.24303 -3.85803 0
M  V30 4098 H 400.48 -3.07235 -2.13267 0
M  V30 4099 H 402.772 -4.76957 -4.81164 0
M  V30 4100 H 403.715 -5.94698 -3.8437 0
M  V30 4101 H 404.123 -4.2073 -3.76359 0
M  V30 4102 N 403.521 0.559213 -1.47345 0
M  V30 4103 C 404.932 1.14134 -1.47751 0
M  V30 4104 C 405.283 1.94834 -0.231103 0
M  V30 4105 O 404.408 2.05957 0.664137 0
M  V30 4106 C 405.003 2.07653 -2.67705 0
M  V30 4107 C 403.562 2.61141 -2.71076 0
M  V30 4108 C 402.709 1.3748 -2.40821 0
M  V30 4109 H 405.66 0.345917 -1.54884 0
M  V30 4110 H 405.681 2.91497 -2.44561 0
M  V30 4111 H 405.193 1.4889 -3.58404 0
M  V30 4112 H 403.294 3.23707 -1.84511 0
M  V30 4113 H 403.407 3.02272 -3.7171 0
M  V30 4114 H 401.771 1.68086 -1.91362 0
M  V30 4115 H 402.554 0.805135 -3.33725 0
M  V30 4116 N 404.999 1.35443 0.805782 0
M  V30 4117 C 406.229 1.31687 1.59192 0
M  V30 4118 C 406.637 -0.10756 1.88894 0
M  V30 4119 O 405.98 -1.07017 1.49309 0
M  V30 4120 C 406.042 2.05686 2.94845 0
M  V30 4121 C 405.706 3.54868 2.87954 0
M  V30 4122 C 406.703 4.49444 2.61335 0
M  V30 4123 C 404.388 3.97528 3.07046 0
M  V30 4124 C 406.382 5.84655 2.53885 0
M  V30 4125 C 404.069 5.32833 2.99219 0
M  V30 4126 C 405.067 6.26209 2.72674 0
M  V30 4127 O 404.755 7.59032 2.64811 0
M  V30 4128 H 404.487 0.453878 0.50097 0
M  V30 4129 H 407.041 1.78892 1.0093 0
M  V30 4130 H 405.271 1.5312 3.55093 0
M  V30 4131 H 406.96 1.94998 3.55993 0
M  V30 4132 H 407.726 4.17804 2.46303 0
M  V30 4133 H 403.605 3.25233 3.26718 0
M  V30 4134 H 407.149 6.57508 2.33086 0
M  V30 4135 H 403.046 5.64087 3.13809 0
M  V30 4136 H 403.814 7.68967 2.80413 0
M  V30 4137 N 406.477 -1.02803 1.19454 0
M  V30 4138 C 407.705 -1.79841 1.02297 0
M  V30 4139 C 408.12 -1.83879 -0.428259 0
M  V30 4140 O 407.477 -1.28345 -1.29745 0
M  V30 4141 C 407.528 -3.24852 1.58598 0
M  V30 4142 O 407.249 -3.21097 2.98041 0
M  V30 4143 C 408.75 -4.18485 1.46236 0
M  V30 4144 H 405.97 -0.565936 0.360496 0
M  V30 4145 H 408.514 -1.2948 1.58288 0
M  V30 4146 H 406.669 -3.72401 1.06753 0
M  V30 4147 H 407.083 -4.12033 3.24545 0
M  V30 4148 H 408.557 -5.18121 1.90407 0
M  V30 4149 H 409.034 -4.37254 0.41301 0
M  V30 4150 H 409.64 -3.76811 1.97215 0
M  V30 4151 N 407.956 -0.998596 -1.21925 0
M  V30 4152 C 408.904 -0.546641 -2.26085 0
M  V30 4153 C 409.898 0.405576 -1.64473 0
M  V30 4154 O 411.104 0.277471 -1.77849 0
M  V30 4155 H 407.479 -0.158403 -0.735127 0
M  V30 4156 H 409.45 -1.43645 -2.61551 0
M  V30 4157 C 408.199 0.117388 -3.47502 0
M  V30 4158 H 407.522 -0.606277 -3.95176 0
M  V30 4159 H 408.962 0.396993 -4.22137 0
M  V30 4160 C 407.421 1.35455 -3.0847 0
M  V30 4161 O 407.951 2.44944 -3.18379 0
M  V30 4162 N 406.157 1.23191 -2.63196 0
M  V30 4163 H 405.704 0.341006 -2.55333 0
M  V30 4164 H 405.662 2.06071 -2.37449 0
M  V30 4165 N 409.434 1.37368 -0.772513 0
M  V30 4166 C 410.659 2.0447 -0.347386 0
M  V30 4167 C 411.084 1.57882 1.0225 0
M  V30 4168 O 410.442 0.73941 1.65537 0
M  V30 4169 C 410.49 3.58369 -0.400479 0
M  V30 4170 O 409.594 4.0803 0.598789 0
M  V30 4171 H 408.935 0.646773 -0.15027 0
M  V30 4172 H 411.465 1.75667 -1.04892 0
M  V30 4173 H 411.475 4.07183 -0.258045 0
M  V30 4174 H 410.15 3.91633 -1.39986 0
M  V30 4175 H 408.727 3.70534 0.419411 0
M  V30 4176 N 410.912 0.523116 1.48665 0
M  V30 4177 C 412.158 -0.0134963 2.02796 0
M  V30 4178 C 412.491 -1.34582 1.40004 0
M  V30 4179 O 411.766 -1.86756 0.543381 0
M  V30 4180 C 412.049 -0.14276 3.59817 0
M  V30 4181 C 411.902 1.21425 4.331 0
M  V30 4182 C 413.221 -0.872856 4.31357 0
M  V30 4183 H 410.34 -0.00343074 0.736992 0
M  V30 4184 H 412.982 0.678816 1.7746 0
M  V30 4185 H 411.132 -0.732401 3.81534 0
M  V30 4186 H 412.804 1.84447 4.2282 0
M  V30 4187 H 411.047 1.79791 3.94788 0
M  V30 4188 H 411.718 1.07687 5.41394 0
M  V30 4189 H 414.194 -0.372555 4.14429 0
M  V30 4190 H 413.07 -0.932185 5.40927 0
M  V30 4191 H 413.331 -1.92161 3.98154 0
M  V30 4192 N 412.39 -1.55475 0.257931 0
M  V30 4193 C 413.801 -1.8511 -0.243135 0
M  V30 4194 C 414.152 -1.17986 -1.5676 0
M  V30 4195 O 413.277 -0.462102 -2.11409 0
M  V30 4196 C 413.872 -3.35826 -0.447929 0
M  V30 4197 C 412.431 -3.65647 -0.893245 0
M  V30 4198 C 411.578 -2.7729 0.0232965 0
M  V30 4199 H 414.529 -1.51261 0.480199 0
M  V30 4200 H 414.55 -3.58002 -1.28898 0
M  V30 4201 H 414.062 -3.84652 0.516196 0
M  V30 4202 H 412.163 -3.22308 -1.86945 0
M  V30 4203 H 412.276 -4.73312 -0.742469 0
M  V30 4204 H 410.64 -2.49942 -0.490021 0
M  V30 4205 H 411.423 -3.28926 0.982994 0
M  V30 4206 N 413.868 0.0150385 -1.57593 0
M  V30 4207 C 414.801 1.04475 -2.0288 0
M  V30 4208 C 415.779 1.3436 -0.915764 0
M  V30 4209 O 416.963 1.46779 -1.18271 0
M  V30 4210 C 414.09 2.37608 -2.41371 0
M  V30 4211 C 413.136 2.23487 -3.63257 0
M  V30 4212 S 413.969 1.57505 -5.11813 0
M  V30 4213 C 415.125 2.921 -5.5356 0
M  V30 4214 H 415.358 0.65907 -2.89903 0
M  V30 4215 H 412.891 0.225452 -1.52745 0
M  V30 4216 H 414.849 3.14165 -2.64217 0
M  V30 4217 H 413.51 2.7332 -1.54775 0
M  V30 4218 H 412.703 3.21802 -3.87891 0
M  V30 4219 H 412.305 1.55074 -3.40335 0
M  V30 4220 H 414.597 3.88419 -5.55101 0
M  V30 4221 H 415.54 2.72184 -6.53698 0
M  V30 4222 H 415.948 2.95318 -4.8109 0
M  V30 4223 N 415.346 1.54954 0.287554 0
M  V30 4224 C 416.623 1.65569 1.04146 0
M  V30 4225 C 417.003 0.512672 2.0478 0
M  V30 4226 O 416.351 -0.489038 2.23205 0
M  V30 4227 C 416.561 3.04163 1.71131 0
M  V30 4228 C 417.909 3.61429 2.22832 0
M  V30 4229 O 418.933 3.06702 1.81141 0
M  V30 4230 O 417.792 4.57281 2.9926 0
M  V30 4231 H 414.886 0.671881 0.482188 0
M  V30 4232 H 417.432 1.67297 0.28457 0
M  V30 4233 H 416.204 3.78796 0.981303 0
M  V30 4234 H 415.827 3.06271 2.53543 0
M  V30 4235 N 416.824 -0.551391 1.4764 0
M  V30 4236 C 417.772 -1.67896 1.60978 0
M  V30 4237 C 418.766 -1.62549 0.476877 0
M  V30 4238 O 419.972 -1.67664 0.654878 0
M  V30 4239 H 416.347 -0.555649 0.506713 0
M  V30 4240 H 418.318 -1.53784 2.55721 0
M  V30 4241 C 417.067 -3.06234 1.64669 0
M  V30 4242 H 416.39 -3.11033 2.51194 0
M  V30 4243 H 417.83 -3.84804 1.7805 0
M  V30 4244 C 416.289 -3.34737 0.381115 0
M  V30 4245 O 416.819 -3.98381 -0.515297 0
M  V30 4246 N 415.025 -2.8944 0.259354 0
M  V30 4247 H 414.572 -2.37827 0.98976 0
M  V30 4248 H 414.53 -3.08882 -0.586464 0
M  V30 4249 N 418.302 -1.35869 -0.798587 0
M  V30 4250 C 419.235 -1.23801 -1.91699 0
M  V30 4251 C 420.213 -0.124143 -1.62125 0
M  V30 4252 O 421.397 -0.293656 -1.86199 0
M  V30 4253 C 418.524 -0.908063 -3.263 0
M  V30 4254 C 417.57 -2.0351 -3.74815 0
M  V30 4255 S 418.403 -3.65183 -3.91665 0
M  V30 4256 C 419.559 -3.34283 -5.29156 0
M  V30 4257 H 419.792 -2.18466 -2.01643 0
M  V30 4258 H 417.325 -1.21178 -0.956833 0
M  V30 4259 H 419.283 -0.724506 -4.04056 0
M  V30 4260 H 417.944 0.0206584 -3.14093 0
M  V30 4261 H 417.137 -1.75858 -4.72324 0
M  V30 4262 H 416.739 -2.1774 -3.04081 0
M  V30 4263 H 419.031 -2.87607 -6.13424 0
M  V30 4264 H 419.974 -4.31022 -5.61806 0
M  V30 4265 H 420.382 -2.69854 -4.95822 0
M  V30 4266 N 419.78 1.02168 -1.19998 0
M  V30 4267 C 421.027 1.75685 -1.00702 0
M  V30 4268 C 421.355 1.88947 0.461426 0
M  V30 4269 O 420.61 1.40832 1.35885 0
M  V30 4270 C 420.909 3.18081 -1.62969 0
M  V30 4271 C 420.575 3.24809 -3.12746 0
M  V30 4272 C 419.237 3.26352 -3.53621 0
M  V30 4273 C 421.589 3.23379 -4.08749 0
M  V30 4274 C 418.917 3.2413 -4.89036 0
M  V30 4275 C 421.269 3.22698 -5.44104 0
M  V30 4276 C 419.933 3.22542 -5.84399 0
M  V30 4277 H 419.203 0.642877 -0.368496 0
M  V30 4278 H 421.85 1.19865 -1.49348 0
M  V30 4279 H 420.155 3.77027 -1.06573 0
M  V30 4280 H 421.852 3.73648 -1.45561 0
M  V30 4281 H 418.442 3.2434 -2.80181 0
M  V30 4282 H 422.626 3.21361 -3.78207 0
M  V30 4283 H 417.882 3.22338 -5.19527 0
M  V30 4284 H 422.056 3.20543 -6.18244 0
M  V30 4285 H 419.683 3.20575 -6.89301 0
M  V30 4286 N 421.258 1.00505 1.21394 0
M  V30 4287 C 422.674 0.717873 1.42544 0
M  V30 4288 C 422.874 -0.706936 1.88692 0
M  V30 4289 O 421.93 -1.47627 2.04847 0
M  V30 4290 C 423.243 1.73377 2.45684 0
M  V30 4291 C 424.791 1.75059 2.59467 0
M  V30 4292 C 425.266 2.75545 3.6584 0
M  V30 4293 N 426.757 2.74213 3.73311 0
M  V30 4294 C 427.492 3.48626 4.55245 0
M  V30 4295 N 426.988 4.32678 5.41075 0
M  V30 4296 N 428.781 3.37276 4.49668 0
M  V30 4297 H 420.932 1.92506 0.897503 0
M  V30 4298 H 423.195 0.830919 0.456375 0
M  V30 4299 H 422.901 2.75395 2.18748 0
M  V30 4300 H 422.775 1.53647 3.44489 0
M  V30 4301 H 425.162 0.737337 2.8574 0
M  V30 4302 H 425.243 1.98861 1.60897 0
M  V30 4303 H 424.887 3.77028 3.40313 0
M  V30 4304 H 424.817 2.49009 4.64007 0
M  V30 4305 H 427.308 2.13234 3.11993 0
M  V30 4306 H 427.621 4.86253 6.00648 0
M  V30 4307 H 425.966 4.3676 5.40616 0
M  V30 4308 H 429.157 2.71043 3.81646 0
M  V30 4309 H 429.33 3.95524 5.13288 0
M  V30 4310 N 422.737 -1.36956 0.779787 0
M  V30 4311 C 423.687 -2.27539 0.144892 0
M  V30 4312 C 424.671 -1.46493 -0.665488 0
M  V30 4313 O 425.863 -1.68968 -0.527141 0
M  V30 4314 C 422.992 -3.35512 -0.727082 0
M  V30 4315 C 422.078 -4.24001 0.0915642 0
M  V30 4316 N 422.469 -4.92757 1.14125 0
M  V30 4317 C 420.767 -4.45807 -0.131141 0
M  V30 4318 C 421.468 -5.58138 1.6388 0
M  V30 4319 N 420.444 -5.35241 0.94962 0
M  V30 4320 H 424.246 -2.78176 0.948446 0
M  V30 4321 H 421.76 -1.50169 0.618315 0
M  V30 4322 H 423.757 -3.99324 -1.19776 0
M  V30 4323 H 422.417 -2.86431 -1.52929 0
M  V30 4324 H 423.428 -4.94984 1.52353 0
M  V30 4325 H 420.105 -4.07582 -0.904621 0
M  V30 4326 H 421.495 -6.23071 2.51461 0
M  V30 4327 N 424.215 -0.530993 -1.48385 0
M  V30 4328 C 425.163 0.244595 -2.3131 0
M  V30 4329 C 426.157 0.93451 -1.41291 0
M  V30 4330 O 427.363 0.85878 -1.58193 0
M  V30 4331 H 423.738 0.0977472 -0.74562 0
M  V30 4332 H 425.709 -0.474369 -2.94605 0
M  V30 4333 C 424.458 1.2779 -3.23365 0
M  V30 4334 H 423.781 0.756439 -3.92579 0
M  V30 4335 H 425.221 1.79198 -3.84271 0
M  V30 4336 C 423.68 2.31205 -2.45042 0
M  V30 4337 O 424.21 3.37661 -2.17596 0
M  V30 4338 N 422.416 2.04446 -2.0652 0
M  V30 4339 H 421.963 1.17891 -2.2904 0
M  V30 4340 H 421.921 2.73861 -1.54427 0
M  V30 4341 N 425.693 1.55336 -0.266172 0
M  V30 4342 C 426.641 2.23587 0.641228 0
M  V30 4343 C 427.635 1.22986 1.16494 0
M  V30 4344 O 428.841 1.40943 1.1196 0
M  V30 4345 H 425.216 0.717452 0.225315 0
M  V30 4346 H 427.187 2.9837 0.0426561 0
M  V30 4347 C 425.936 2.96369 1.81826 0
M  V30 4348 H 425.259 3.73563 1.42445 0
M  V30 4349 H 426.699 3.47459 2.42998 0
M  V30 4350 C 425.158 2.0133 2.70125 0
M  V30 4351 O 425.688 1.55875 3.70224 0
M  V30 4352 N 423.894 1.6802 2.37102 0
M  V30 4353 H 423.441 2.05181 1.55751 0
M  V30 4354 H 423.399 1.047 2.96454 0
M  V30 4355 N 427.171 -0.0066808 1.57599 0
M  V30 4356 C 428.417 -0.693947 1.90558 0
M  V30 4357 C 428.75 -1.73792 0.866594 0
M  V30 4358 O 428.025 -1.94156 -0.115548 0
M  V30 4359 C 428.308 -1.34317 3.34112 0
M  V30 4360 C 428.161 -0.311189 4.48722 0
M  V30 4361 C 429.48 -2.27116 3.7697 0
M  V30 4362 H 426.599 -0.250803 0.693013 0
M  V30 4363 H 429.241 0.043242 1.89951 0
M  V30 4364 H 427.391 -1.9715 3.3476 0
M  V30 4365 H 429.063 0.316944 4.6021 0
M  V30 4366 H 427.306 0.367253 4.32243 0
M  V30 4367 H 427.977 -0.804366 5.46108 0
M  V30 4368 H 430.453 -1.74306 3.77831 0
M  V30 4369 H 429.329 -2.69511 4.78179 0
M  V30 4370 H 429.59 -3.14743 3.10466 0
M  V30 4371 N 428.649 -1.55105 -0.279332 0
M  V30 4372 C 429.877 -1.7943 -1.03017 0
M  V30 4373 C 430.292 -0.564456 -1.80165 0
M  V30 4374 O 429.649 0.466326 -1.76442 0
M  V30 4375 C 429.7 -3.0155 -1.99374 0
M  V30 4376 O 429.421 -4.19784 -1.25352 0
M  V30 4377 C 430.922 -3.3843 -2.86321 0
M  V30 4378 H 428.142 -0.597882 -0.304594 0
M  V30 4379 H 430.686 -2.02105 -0.312035 0
M  V30 4380 H 428.841 -2.81019 -2.66659 0
M  V30 4381 H 429.255 -4.88781 -1.90246 0
M  V30 4382 H 430.729 -4.27066 -3.49741 0
M  V30 4383 H 431.206 -2.57549 -3.5576 0
M  V30 4384 H 431.812 -3.61197 -2.24536 0
M  V30 4385 N 430.127 0.543554 -1.4793 0
M  V30 4386 C 431.057 1.65888 -1.64327 0
M  V30 4387 C 432.038 1.62818 -0.492383 0
M  V30 4388 O 433.223 1.80226 -0.723338 0
M  V30 4389 C 430.353 3.04506 -1.67013 0
M  V30 4390 C 429.307 3.2243 -2.81466 0
M  V30 4391 C 428.633 4.61972 -2.69233 0
M  V30 4392 C 429.933 3.06496 -4.22915 0
M  V30 4393 H 431.627 1.52421 -2.57698 0
M  V30 4394 H 429.173 0.731849 -1.24016 0
M  V30 4395 H 431.126 3.82391 -1.77074 0
M  V30 4396 H 429.85 3.18964 -0.70212 0
M  V30 4397 H 428.509 2.46957 -2.70938 0
M  V30 4398 H 428.157 4.73247 -1.7043 0
M  V30 4399 H 427.857 4.74911 -3.46025 0
M  V30 4400 H 429.381 5.41974 -2.81242 0
M  V30 4401 H 430.795 3.74186 -4.34348 0
M  V30 4402 H 429.192 3.30938 -5.006 0
M  V30 4403 H 430.262 2.03077 -4.40327 0
M  V30 4404 N 431.605 1.3629 0.791371 0
M  V30 4405 C 432.538 1.24816 1.9104 0
M  V30 4406 C 433.516 0.132739 1.62057 0
M  V30 4407 O 434.7 0.303527 1.8604 0
M  V30 4408 C 431.827 0.925355 3.25814 0
M  V30 4409 C 430.873 2.05495 3.7373 0
M  V30 4410 S 431.706 3.67255 3.89723 0
M  V30 4411 C 432.862 3.37084 5.27376 0
M  V30 4412 H 433.095 2.19533 2.00481 0
M  V30 4413 H 430.628 1.21684 0.950393 0
M  V30 4414 H 432.586 0.745924 4.03666 0
M  V30 4415 H 431.247 -0.00400098 3.141 0
M  V30 4416 H 430.44 1.7836 4.71385 0
M  V30 4417 H 430.042 2.1935 3.02922 0
M  V30 4418 H 432.334 2.90856 6.1189 0
M  V30 4419 H 433.277 4.33995 5.59512 0
M  V30 4420 H 433.685 2.7248 4.94383 0
M  V30 4421 N 433.083 -1.0153 1.20538 0
M  V30 4422 C 434.329 -1.75408 1.01783 0
M  V30 4423 C 434.662 -1.88943 -0.448814 0
M  V30 4424 O 433.937 -1.4162 -1.33319 0
M  V30 4425 C 434.22 -3.17255 1.70356 0
M  V30 4426 C 434.073 -3.11508 3.24473 0
M  V30 4427 C 435.392 -4.15955 1.43769 0
M  V30 4428 H 432.511 -0.636713 0.371167 0
M  V30 4429 H 435.153 -1.18436 1.4857 0
M  V30 4430 H 433.303 -3.65898 1.30578 0
M  V30 4431 H 434.975 -2.70658 3.73553 0
M  V30 4432 H 433.218 -2.4887 3.55311 0
M  V30 4433 H 433.889 -4.11784 3.67611 0
M  V30 4434 H 436.365 -3.75973 1.7828 0
M  V30 4435 H 435.241 -5.13368 1.94279 0
M  V30 4436 H 435.502 -4.40586 0.365564 0
M  V30 4437 N 434.561 -1.01147 -1.20859 0
M  V30 4438 C 435.81 -0.693214 -1.89413 0
M  V30 4439 C 436.123 0.779969 -1.79376 0
M  V30 4440 O 437.329 1.21057 -2.43017 0
M  V30 4441 C 435.785 -1.18949 -3.39675 0
M  V30 4442 C 435.393 -2.68921 -3.58309 0
M  V30 4443 C 437.137 -0.94642 -4.13815 0
M  V30 4444 C 435.044 -3.12056 -5.0237 0
M  V30 4445 H 433.974 -0.255595 -0.709357 0
M  V30 4446 H 436.625 -1.22349 -1.36759 0
M  V30 4447 H 435.007 -0.587228 -3.91622 0
M  V30 4448 H 436.181 -3.34652 -3.16772 0
M  V30 4449 H 434.496 -2.91314 -2.97532 0
M  V30 4450 H 437.093 -1.24417 -5.20023 0
M  V30 4451 H 437.436 0.117219 -4.16135 0
M  V30 4452 H 437.969 -1.5118 -3.67953 0
M  V30 4453 H 434.708 -4.17674 -5.05202 0
M  V30 4454 H 434.228 -2.51041 -5.44737 0
M  V30 4455 H 435.907 -3.04403 -5.70918 0
M  V30 4456 N 436.039 1.36541 -0.78704 0
M  V30 4457 C 437.45 1.81873 -0.421807 0
M  V30 4458 C 437.801 1.65487 1.05397 0
M  V30 4459 O 436.926 1.17448 1.81755 0
M  V30 4460 C 437.521 3.30192 -0.758841 0
M  V30 4461 C 436.08 3.73743 -0.446468 0
M  V30 4462 C 435.227 2.58844 -0.994728 0
M  V30 4463 H 438.178 1.24796 -0.98039 0
M  V30 4464 H 438.199 3.80468 -0.0490648 0
M  V30 4465 H 437.711 3.42087 -1.83299 0
M  V30 4466 H 435.812 3.6741 0.619739 0
M  V30 4467 H 435.925 4.69272 -0.965415 0
M  V30 4468 H 434.289 2.51245 -0.418087 0
M  V30 4469 H 435.072 2.73525 -2.07458 0
M  V30 4470 N 437.518 0.538854 1.48102 0
M  V30 4471 C 438.765 0.0080018 2.02498 0
M  V30 4472 C 439.093 -1.33437 1.41509 0
M  V30 4473 O 438.348 -1.87709 0.553507 0
M  V30 4474 C 438.647 -0.153808 3.57069 0
M  V30 4475 C 438.313 1.11533 4.36888 0
M  V30 4476 C 436.975 1.46314 4.58417 0
M  V30 4477 C 439.327 1.95718 4.83057 0
M  V30 4478 C 436.655 2.6516 5.23361 0
M  V30 4479 C 439.007 3.13751 5.49312 0
M  V30 4480 C 437.671 3.48866 5.69077 0
M  V30 4481 H 436.941 0.00292807 0.740994 0
M  V30 4482 H 439.588 0.706668 1.77984 0
M  V30 4483 H 437.893 -0.935309 3.80472 0
M  V30 4484 H 439.59 -0.579607 3.96789 0
M  V30 4485 H 436.18 0.834484 4.20398 0
M  V30 4486 H 440.364 1.70158 4.66219 0
M  V30 4487 H 435.62 2.92558 5.36861 0
M  V30 4488 H 439.794 3.79282 5.84053 0
M  V30 4489 H 437.421 4.41054 6.19173 0
M  V30 4490 N 438.996 -1.55193 0.274407 0
M  V30 4491 C 440.242 -1.99877 -0.343086 0
M  V30 4492 C 440.575 -1.16256 -1.55558 0
M  V30 4493 O 439.85 -0.232462 -1.93106 0
M  V30 4494 C 440.133 -3.52706 -0.725965 0
M  V30 4495 C 439.986 -4.47081 0.493818 0
M  V30 4496 C 441.305 -4.11422 -1.56268 0
M  V30 4497 H 438.424 -0.726625 -0.123229 0
M  V30 4498 H 441.066 -1.86136 0.38121 0
M  V30 4499 H 439.216 -3.64546 -1.34307 0
M  V30 4500 H 440.888 -4.47186 1.13237 0
M  V30 4501 H 439.131 -4.1877 1.13201 0
M  V30 4502 H 439.802 -5.51699 0.18217 0
M  V30 4503 H 442.278 -4.02855 -1.04151 0
M  V30 4504 H 441.154 -5.18568 -1.79939 0
M  V30 4505 H 441.415 -3.61607 -2.54348 0
M  V30 4506 N 440.474 -0.00167713 -1.576 0
M  V30 4507 C 441.885 0.54091 -1.78693 0
M  V30 4508 C 442.236 1.7386 -0.909247 0
M  V30 4509 O 441.361 2.16109 -0.112176 0
M  V30 4510 C 441.956 0.98806 -3.24072 0
M  V30 4511 C 440.515 1.47594 -3.46256 0
M  V30 4512 C 439.662 0.42792 -2.73978 0
M  V30 4513 H 442.613 -0.22784 -1.57056 0
M  V30 4514 H 442.634 1.85398 -3.32277 0
M  V30 4515 H 442.146 0.116164 -3.87926 0
M  V30 4516 H 440.247 2.36868 -2.87618 0
M  V30 4517 H 440.36 1.50225 -4.54939 0
M  V30 4518 H 438.724 0.889934 -2.38647 0
M  V30 4519 H 439.507 -0.435038 -3.40532 0
M  V30 4520 N 441.952 1.55251 0.271103 0
M  V30 4521 C 442.882 1.9127 1.33933 0
M  V30 4522 C 443.863 0.77478 1.5143 0
M  V30 4523 O 445.048 1.03307 1.64442 0
M  V30 4524 C 442.178 2.18627 2.69851 0
M  V30 4525 C 441.132 3.34442 2.67081 0
M  V30 4526 C 440.458 3.47284 4.06569 0
M  V30 4527 C 441.758 4.70784 2.26185 0
M  V30 4528 H 443.452 2.80744 1.04035 0
M  V30 4529 H 440.998 1.35077 0.499017 0
M  V30 4530 H 442.951 2.42413 3.44694 0
M  V30 4531 H 441.675 1.25955 3.01335 0
M  V30 4532 H 440.334 3.10627 1.94695 0
M  V30 4533 H 439.982 2.52074 4.35279 0
M  V30 4534 H 439.682 4.25152 4.0561 0
M  V30 4535 H 441.206 3.73363 4.83148 0
M  V30 4536 H 442.62 4.94102 2.90751 0
M  V30 4537 H 441.017 5.51582 2.36384 0
M  V30 4538 H 442.087 4.69478 1.21319 0
M  V30 4539 N 443.43 -0.535701 1.48216 0
M  V30 4540 C 444.707 -1.29683 1.46429 0
M  V30 4541 C 445.087 -2.10391 0.172852 0
M  V30 4542 O 444.435 -2.12282 -0.845488 0
M  V30 4543 C 444.645 -2.18313 2.72287 0
M  V30 4544 C 445.993 -2.78639 3.20383 0
M  V30 4545 O 447.017 -2.28604 2.73164 0
M  V30 4546 O 445.876 -3.69636 4.02531 0
M  V30 4547 H 442.97 -0.585026 0.584529 0
M  V30 4548 H 445.516 -0.552827 1.60443 0
M  V30 4549 H 444.288 -1.58421 3.57797 0
M  V30 4550 H 443.911 -2.99971 2.60966 0
M  V30 4551 N 444.908 -1.36708 -0.784132 0
M  V30 4552 C 446.138 -1.34203 -1.57077 0
M  V30 4553 C 446.546 0.0774945 -1.89041 0
M  V30 4554 O 445.889 1.04628 -1.50992 0
M  V30 4555 C 445.951 -2.10351 -2.91535 0
M  V30 4556 C 445.615 -3.59405 -2.82272 0
M  V30 4557 C 446.612 -4.53545 -2.54151 0
M  V30 4558 C 444.297 -4.02362 -3.00683 0
M  V30 4559 C 446.291 -5.8862 -2.44551 0
M  V30 4560 C 443.978 -5.37526 -2.90704 0
M  V30 4561 C 444.976 -6.30468 -2.62677 0
M  V30 4562 O 444.664 -7.63149 -2.52702 0
M  V30 4563 H 444.396 -0.461791 -0.493685 0
M  V30 4564 H 446.95 -1.80475 -0.980712 0
M  V30 4565 H 445.18 -1.5875 -3.52612 0
M  V30 4566 H 446.869 -2.00636 -3.52845 0
M  V30 4567 H 447.635 -4.21669 -2.39625 0
M  V30 4568 H 443.514 -3.30389 -3.21503 0
M  V30 4569 H 447.058 -6.61133 -2.22596 0
M  V30 4570 H 442.955 -5.69008 -3.04795 0
M  V30 4571 H 443.723 -7.73331 -2.68144 0
M  V30 4572 N 446.386 1.0089 -1.21074 0
M  V30 4573 C 447.626 1.76142 -1.03699 0
M  V30 4574 C 447.99 1.87292 0.422587 0
M  V30 4575 O 449.191 2.59068 0.716752 0
M  V30 4576 C 447.462 3.13805 -1.7106 0
M  V30 4577 S 449.021 4.04996 -1.68889 0
M  V30 4578 H 445.839 0.606113 -0.371683 0
M  V30 4579 H 448.441 1.20744 -1.53756 0
M  V30 4580 H 447.145 3.0332 -2.76451 0
M  V30 4581 H 446.676 3.74276 -1.21166 0
M  V30 4582 H 448.691 4.90842 -0.727211 0
M  V30 4583 N 447.864 1.01787 1.20321 0
M  V30 4584 C 449.275 0.739307 1.71438 0
M  V30 4585 C 449.626 -0.742041 1.81627 0
M  V30 4586 O 448.751 -1.57903 1.47971 0
M  V30 4587 C 449.346 1.33538 3.11373 0
M  V30 4588 C 447.905 1.10566 3.59795 0
M  V30 4589 C 447.052 1.44028 2.36962 0
M  V30 4590 H 450.003 1.18718 1.05317 0
M  V30 4591 H 450.024 0.726611 3.73498 0
M  V30 4592 H 449.536 2.41352 3.03926 0
M  V30 4593 H 447.637 0.0452405 3.72573 0
M  V30 4594 H 447.75 1.78661 4.44542 0
M  V30 4595 H 446.114 0.85933 2.39766 0
M  V30 4596 H 446.897 2.52901 2.32155 0
M  V30 4597 N 449.342 -1.36122 0.79427 0
M  V30 4598 C 450.59 -1.98718 0.368177 0
M  V30 4599 C 450.911 -1.63345 -1.06506 0
M  V30 4600 O 450.181 -0.909825 -1.73491 0
M  V30 4601 H 448.761 -0.735038 0.133146 0
M  V30 4602 H 451.423 -1.66239 1.01739 0
M  V30 4603 H 450.519 -3.08633 0.463923 0
M  V30 4604 N 450.82 -0.546701 -1.47814 0
M  V30 4605 C 452.045 -0.021268 -2.07389 0
M  V30 4606 C 452.47 1.25822 -1.39822 0
M  V30 4607 O 451.828 1.75111 -0.46968 0
M  V30 4608 C 451.876 0.168502 -3.60206 0
M  V30 4609 O 450.98 1.23347 -3.93522 0
M  V30 4610 H 450.321 -0.0466108 -0.662362 0
M  V30 4611 H 452.851 -0.759387 -1.89985 0
M  V30 4612 H 452.861 0.385982 -4.0617 0
M  V30 4613 H 451.536 -0.766075 -4.08784 0
M  V30 4614 H 450.113 0.997319 -3.59316 0
M  V30 4615 N 452.299 1.55045 -0.282633 0
M  V30 4616 C 453.527 2.04168 0.33512 0
M  V30 4617 C 453.942 1.16071 1.48906 0
M  V30 4618 O 453.299 0.182391 1.81586 0
M  V30 4619 C 453.35 3.52332 0.808957 0
M  V30 4620 O 453.071 4.37078 -0.299038 0
M  V30 4621 C 454.572 4.17375 1.49375 0
M  V30 4622 H 451.792 0.666744 0.0754543 0
M  V30 4623 H 454.336 2.00205 -0.416918 0
M  V30 4624 H 452.491 3.56715 1.51106 0
M  V30 4625 H 452.905 5.24458 0.0665514 0
M  V30 4626 H 454.379 5.22627 1.77664 0
M  V30 4627 H 454.856 3.65999 2.42778 0
M  V30 4628 H 455.462 4.17016 0.835305 0
M  V30 4629 N 453.777 0.010035 1.57597 0
M  V30 4630 C 455.005 -0.683413 1.95287 0
M  V30 4631 C 455.42 -1.66747 0.885481 0
M  V30 4632 O 454.777 -1.82003 -0.134629 0
M  V30 4633 C 454.828 -1.40652 3.33015 0
M  V30 4634 O 454.549 -0.461916 4.35658 0
M  V30 4635 C 456.05 -2.19356 3.85225 0
M  V30 4636 H 453.27 -0.189708 0.643624 0
M  V30 4637 H 455.814 0.0641359 2.04399 0
M  V30 4638 H 453.969 -2.10562 3.2518 0
M  V30 4639 H 454.383 -0.973215 5.15392 0
M  V30 4640 H 455.857 -2.65433 4.83993 0
M  V30 4641 H 456.334 -3.02457 3.18459 0
M  V30 4642 H 456.94 -1.54442 3.96267 0
M  V30 4643 N 455.255 -1.55392 -0.262866 0
M  V30 4644 C 456.485 -1.80251 -1.00961 0
M  V30 4645 C 456.893 -0.58117 -1.80053 0
M  V30 4646 O 456.236 0.459427 -1.77862 0
M  V30 4647 C 456.298 -2.98207 -2.00781 0
M  V30 4648 C 455.962 -4.34856 -1.40533 0
M  V30 4649 C 456.959 -5.13459 -0.815853 0
M  V30 4650 C 454.644 -4.8153 -1.42948 0
M  V30 4651 C 456.638 -6.36875 -0.258562 0
M  V30 4652 C 454.325 -6.04899 -0.868334 0
M  V30 4653 C 455.323 -6.8241 -0.283884 0
M  V30 4654 O 455.011 -8.03451 0.268644 0
M  V30 4655 H 454.743 -0.604049 -0.303482 0
M  V30 4656 H 457.297 -2.03257 -0.295926 0
M  V30 4657 H 455.527 -2.70917 -2.75936 0
M  V30 4658 H 457.216 -3.10299 -2.61667 0
M  V30 4659 H 457.982 -4.78526 -0.789812 0
M  V30 4660 H 453.861 -4.21201 -1.87378 0
M  V30 4661 H 457.405 -6.97318 0.198257 0
M  V30 4662 H 453.302 -6.39312 -0.891649 0
M  V30 4663 H 454.07 -8.18346 0.158974 0
M  V30 4664 N 456.733 0.527833 -1.48498 0
M  V30 4665 C 457.979 1.28545 -1.56857 0
M  V30 4666 C 458.312 1.92678 -0.242651 0
M  V30 4667 O 457.587 1.79394 0.751545 0
M  V30 4668 C 457.87 2.37314 -2.70839 0
M  V30 4669 C 457.723 1.77858 -4.13142 0
M  V30 4670 C 459.042 3.39068 -2.80573 0
M  V30 4671 H 456.161 0.466006 -0.570971 0
M  V30 4672 H 458.803 0.587784 -1.8068 0
M  V30 4673 H 456.953 2.96821 -2.50658 0
M  V30 4674 H 458.625 1.22385 -4.44769 0
M  V30 4675 H 456.868 1.08383 -4.20042 0
M  V30 4676 H 457.539 2.56624 -4.88721 0
M  V30 4677 H 460.015 2.89518 -2.98862 0
M  V30 4678 H 458.891 4.12566 -3.6205 0
M  V30 4679 H 459.152 3.9975 -1.88818 0
M  V30 4680 N 458.211 1.37122 0.776871 0
M  V30 4681 C 459.622 1.28667 1.35284 0
M  V30 4682 C 459.973 -0.0680035 1.96082 0
M  V30 4683 O 459.098 -0.969743 1.93455 0
M  V30 4684 C 459.693 2.32997 2.45963 0
M  V30 4685 C 458.252 2.28191 2.99342 0
M  V30 4686 C 457.399 2.17101 1.72517 0
M  V30 4687 H 460.35 1.47819 0.577527 0
M  V30 4688 H 460.371 1.97366 3.2531 0
M  V30 4689 H 459.883 3.3158 2.01684 0
M  V30 4690 H 457.984 1.33115 3.4801 0
M  V30 4691 H 458.097 3.21397 3.55304 0
M  V30 4692 H 456.461 1.63562 1.95242 0
M  V30 4693 H 457.244 3.17591 1.30348 0
M  V30 4694 N 459.689 -1.00246 1.21608 0
M  V30 4695 C 460.938 -1.73476 1.02902 0
M  V30 4696 C 461.251 -1.90643 -0.437561 0
M  V30 4697 O 462.457 -2.61105 -0.74407 0
M  V30 4698 C 460.913 -3.12079 1.79261 0
M  V30 4699 C 460.521 -3.02877 3.30106 0
M  V30 4700 C 462.265 -3.89421 1.68972 0
M  V30 4701 C 460.172 -4.36575 3.98944 0
M  V30 4702 H 459.102 -0.650408 0.381425 0
M  V30 4703 H 461.753 -1.11985 1.45367 0
M  V30 4704 H 460.135 -3.74196 1.2959 0
M  V30 4705 H 461.309 -2.49983 3.87098 0
M  V30 4706 H 459.624 -2.39022 3.40965 0
M  V30 4707 H 462.221 -4.88362 2.17731 0
M  V30 4708 H 462.564 -4.1122 0.648397 0
M  V30 4709 H 463.097 -3.33963 2.16133 0
M  V30 4710 H 459.836 -4.19978 5.03288 0
M  V30 4711 H 459.356 -4.8942 3.4674 0
M  V30 4712 H 461.035 -5.05364 4.04 0
M  V30 4713 N 461.167 -1.02423 -1.1978 0
M  V30 4714 C 462.395 -0.737456 -1.93311 0
M  V30 4715 C 462.81 0.703023 -1.75223 0
M  V30 4716 O 462.167 1.47761 -1.07112 0
M  V30 4717 C 462.218 -1.0733 -3.45199 0
M  V30 4718 O 461.939 -2.4572 -3.62702 0
M  V30 4719 C 463.44 -0.80866 -4.35862 0
M  V30 4720 H 460.66 -0.2702 -0.614193 0
M  V30 4721 H 463.204 -1.36747 -1.52054 0
M  V30 4722 H 461.359 -0.488545 -3.84307 0
M  V30 4723 H 461.773 -2.58081 -4.56612 0
M  V30 4724 H 463.247 -1.09365 -5.41057 0
M  V30 4725 H 463.724 0.257025 -4.38447 0
M  V30 4726 H 464.33 -1.37592 -4.02428 0
M  V30 4727 N 462.645 1.35699 -0.801477 0
M  V30 4728 C 463.894 1.98165 -0.375979 0
M  V30 4729 C 464.207 1.64306 1.06127 0
M  V30 4730 O 465.413 2.20097 1.58964 0
M  V30 4731 C 463.869 3.54497 -0.621305 0
M  V30 4732 C 463.477 3.9727 -2.07076 0
M  V30 4733 C 465.221 4.23697 -0.26091 0
M  V30 4734 C 463.128 5.46427 -2.26211 0
M  V30 4735 H 462.058 0.741478 -0.136844 0
M  V30 4736 H 464.709 1.54834 -0.984814 0
M  V30 4737 H 463.091 3.95958 0.0574112 0
M  V30 4738 H 464.265 3.66974 -2.78687 0
M  V30 4739 H 462.58 3.40943 -2.39054 0
M  V30 4740 H 465.177 5.33334 -0.381994 0
M  V30 4741 H 465.52 4.0869 0.792344 0
M  V30 4742 H 466.053 3.87639 -0.893339 0
M  V30 4743 H 462.792 5.66396 -3.29963 0
M  V30 4744 H 462.312 5.78309 -1.59119 0
M  V30 4745 H 463.991 6.12819 -2.07513 0
M  V30 4746 N 464.123 0.554532 1.47522 0
M  V30 4747 C 465.351 0.034257 2.06872 0
M  V30 4748 C 465.766 -1.25826 1.40759 0
M  V30 4749 O 465.123 -1.75425 0.503217 0
M  V30 4750 C 465.174 -0.167827 3.6111 0
M  V30 4751 O 464.895 1.07351 4.24744 0
M  V30 4752 C 466.396 -0.72569 4.3732 0
M  V30 4753 H 463.616 0.0446275 0.669514 0
M  V30 4754 H 466.16 0.767181 1.89564 0
M  V30 4755 H 464.315 -0.850872 3.7794 0
M  V30 4756 H 464.729 0.869563 5.17242 0
M  V30 4757 H 466.203 -0.816394 5.45929 0
M  V30 4758 H 466.68 -1.73635 4.0342 0
M  V30 4759 H 467.286 -0.0784292 4.25228 0
M  V30 4760 N 465.601 -1.54893 0.290851 0
M  V30 4761 C 466.85 -1.99111 -0.322113 0
M  V30 4762 C 467.163 -1.18283 -1.55784 0
M  V30 4763 O 468.369 -1.5272 -2.24475 0
M  V30 4764 C 466.825 -3.54442 -0.624438 0
M  V30 4765 C 466.433 -4.44066 0.592373 0
M  V30 4766 C 468.177 -4.07211 -1.19916 0
M  V30 4767 C 466.084 -5.90812 0.263762 0
M  V30 4768 H 465.014 -0.743712 -0.124133 0
M  V30 4769 H 467.665 -1.79132 0.39797 0
M  V30 4770 H 466.047 -3.70281 -1.40384 0
M  V30 4771 H 467.221 -4.39999 1.36886 0
M  V30 4772 H 465.536 -4.02015 1.08502 0
M  V30 4773 H 468.133 -5.14407 -1.45909 0
M  V30 4774 H 468.476 -3.57196 -2.13815 0
M  V30 4775 H 469.009 -3.94873 -0.481687 0
M  V30 4776 H 465.748 -6.44955 1.17105 0
M  V30 4777 H 465.268 -5.97911 -0.475655 0
M  V30 4778 H 466.947 -6.46852 -0.138354 0
M  V30 4779 N 467.08 -0.0183926 -1.57589 0
M  V30 4780 C 468.043 0.951986 -2.08494 0
M  V30 4781 C 469.043 1.26092 -0.997874 0
M  V30 4782 O 470.233 1.20304 -1.25987 0
M  V30 4783 C 467.365 2.27165 -2.54182 0
M  V30 4784 H 468.558 0.511307 -2.95509 0
M  V30 4785 H 466.111 0.229444 -1.54607 0
M  V30 4786 H 466.846 2.75884 -1.70465 0
M  V30 4787 H 466.631 2.06057 -3.33591 0
M  V30 4788 H 468.121 2.9674 -2.93828 0
M  V30 4789 N 468.558 1.5553 0.254621 0
M  V30 4790 C 469.969 1.67518 0.824286 0
M  V30 4791 C 470.32 0.614429 1.86331 0
M  V30 4792 O 469.445 -0.240736 2.15057 0
M  V30 4793 C 470.04 3.03692 1.50189 0
M  V30 4794 C 468.599 3.17646 2.01935 0
M  V30 4795 C 467.746 2.63373 0.867746 0
M  V30 4796 H 470.697 1.58671 0.0305843 0
M  V30 4797 H 470.718 2.97706 2.36962 0
M  V30 4798 H 470.23 3.80874 0.745431 0
M  V30 4799 H 468.331 2.45273 2.80485 0
M  V30 4800 H 468.444 4.24455 2.22204 0
M  V30 4801 H 466.808 2.20999 1.26616 0
M  V30 4802 H 467.591 3.43074 0.124498 0
M  V30 4803 N 470.036 -0.519951 1.48776 0
M  V30 4804 C 470.969 -1.64053 1.58625 0
M  V30 4805 C 471.947 -1.5664 0.43618 0
M  V30 4806 O 473.131 -1.76969 0.649159 0
M  V30 4807 C 470.258 -3.02497 1.52359 0
M  V30 4808 C 469.304 -3.28235 2.72331 0
M  V30 4809 S 470.137 -3.13414 4.34203 0
M  V30 4810 C 471.293 -4.54287 4.30551 0
M  V30 4811 H 471.526 -1.5545 2.53422 0
M  V30 4812 H 469.059 -0.703681 1.37433 0
M  V30 4813 H 471.017 -3.82336 1.4943 0
M  V30 4814 H 469.678 -3.08531 0.588824 0
M  V30 4815 H 468.871 -4.29256 2.64113 0
M  V30 4816 H 468.473 -2.56085 2.72574 0
M  V30 4817 H 470.765 -5.46006 4.01103 0
M  V30 4818 H 471.708 -4.67558 5.31785 0
M  V30 4819 H 472.116 -4.34079 3.60881 0
M  V30 4820 N 471.514 -1.37532 -0.769588 0
M  V30 4821 C 472.754 -1.34261 -1.54122 0
M  V30 4822 C 473.118 0.0717222 -1.91866 0
M  V30 4823 O 474.319 0.22918 -2.67821 0
M  V30 4824 C 472.59 -2.2574 -2.77086 0
M  V30 4825 S 474.149 -2.40339 -3.67127 0
M  V30 4826 H 470.967 -0.476595 -0.527615 0
M  V30 4827 H 473.569 -1.73303 -0.90479 0
M  V30 4828 H 472.273 -3.27417 -2.4744 0
M  V30 4829 H 471.804 -1.87789 -3.45686 0
M  V30 4830 H 473.819 -1.61558 -4.69163 0
M  V30 4831 N 472.992 0.995999 -1.22138 0
M  V30 4832 C 473.955 2.06711 -0.990109 0
M  V30 4833 C 474.955 1.60744 0.0422978 0
M  V30 4834 O 476.145 1.73095 -0.195895 0
M  V30 4835 C 473.277 3.37288 -0.49491 0
M  V30 4836 H 474.47 2.28661 -1.94047 0
M  V30 4837 H 472.023 1.16711 -1.03963 0
M  V30 4838 H 472.758 3.21022 0.459948 0
M  V30 4839 H 472.543 3.71986 -1.23971 0
M  V30 4840 H 474.033 4.16103 -0.353253 0
M  V30 4841 N 474.47 1.03057 1.19235 0
M  V30 4842 C 475.38 0.622922 2.26179 0
M  V30 4843 C 476.396 -0.346113 1.70523 0
M  V30 4844 O 477.572 -0.203572 2.00369 0
M  V30 4845 C 474.637 -0.0182063 3.46695 0
M  V30 4846 C 473.698 0.998546 4.17526 0
M  V30 4847 C 472.931 0.387917 5.32288 0
M  V30 4848 O 473.154 -0.808668 5.64639 0
M  V30 4849 O 472.088 1.1116 5.91546 0
M  V30 4850 H 475.914 1.51363 2.63292 0
M  V30 4851 H 473.499 0.800856 1.26122 0
M  V30 4852 H 475.381 -0.375606 4.19723 0
M  V30 4853 H 474.056 -0.882895 3.11427 0
M  V30 4854 H 472.963 1.40756 3.4661 0
M  V30 4855 H 474.296 1.83366 4.56769 0
M  V30 4856 N 475.948 -1.35272 0.808662 0
M  V30 4857 C 477.178 -2.02652 0.401953 0
M  V30 4858 C 477.586 -1.6108 -0.992462 0
M  V30 4859 O 476.929 -0.804984 -1.65123 0
M  V30 4860 C 476.991 -3.57174 0.408246 0
M  V30 4861 C 476.655 -4.22019 1.75353 0
M  V30 4862 C 477.652 -4.43552 2.71215 0
M  V30 4863 C 475.337 -4.59093 2.03811 0
M  V30 4864 C 477.331 -5.01264 3.93717 0
M  V30 4865 C 475.018 -5.16519 3.26576 0
M  V30 4866 C 476.016 -5.37546 4.21347 0
M  V30 4867 O 475.704 -5.93761 5.41944 0
M  V30 4868 H 475.436 -0.656495 0.161216 0
M  V30 4869 H 477.99 -1.73829 1.0942 0
M  V30 4870 H 476.22 -3.85197 -0.340608 0
M  V30 4871 H 477.909 -4.05893 0.0235623 0
M  V30 4872 H 478.675 -4.15288 2.50522 0
M  V30 4873 H 474.554 -4.42039 1.30854 0
M  V30 4874 H 478.098 -5.17592 4.67701 0
M  V30 4875 H 473.995 -5.4421 3.47139 0
M  V30 4876 H 474.763 -6.1221 5.43269 0
M  V30 4877 N 477.426 -0.562348 -1.47226 0
M  V30 4878 C 478.374 0.195476 -2.31777 0
M  V30 4879 C 479.368 0.90433 -1.43242 0
M  V30 4880 O 480.574 0.825031 -1.59979 0
M  V30 4881 H 476.949 0.0819095 -0.747526 0
M  V30 4882 H 478.92 -0.536753 -2.93533 0
M  V30 4883 C 477.669 1.20902 -3.26003 0
M  V30 4884 H 476.992 0.672997 -3.94095 0
M  V30 4885 H 478.432 1.71006 -3.87986 0
M  V30 4886 C 476.891 2.25955 -2.49891 0
M  V30 4887 O 477.421 3.32969 -2.2471 0
M  V30 4888 N 475.627 2.00019 -2.1081 0
M  V30 4889 H 475.174 1.13006 -2.31489 0
M  V30 4890 H 475.132 2.70523 -1.60201 0
M  V30 4891 N 478.904 1.54736 -0.299062 0
M  V30 4892 C 480.152 1.99706 0.31017 0
M  V30 4893 C 480.473 1.18896 1.54559 0
M  V30 4894 O 479.743 0.284445 1.93824 0
M  V30 4895 H 478.323 0.737686 0.117596 0
M  V30 4896 H 480.985 1.9054 -0.409943 0
M  V30 4897 H 480.081 3.06596 0.58355 0
M  V30 4898 N 480.382 0.0267497 1.57577 0
M  V30 4899 C 481.312 -0.954308 2.13108 0
M  V30 4900 C 482.293 -1.34088 1.04663 0
M  V30 4901 O 483.478 -1.41992 1.32484 0
M  V30 4902 C 480.608 -2.23744 2.65624 0
M  V30 4903 C 479.562 -1.99168 3.78835 0
M  V30 4904 C 478.888 -3.33726 4.17769 0
M  V30 4905 C 480.188 -1.33277 5.0501 0
M  V30 4906 H 481.882 -0.491848 2.95332 0
M  V30 4907 H 479.428 -0.23514 1.42067 0
M  V30 4908 H 481.381 -2.92754 3.03106 0
M  V30 4909 H 480.105 -2.72151 1.80558 0
M  V30 4910 H 478.764 -1.32577 3.41788 0
M  V30 4911 H 478.412 -3.79888 3.29688 0
M  V30 4912 H 478.112 -3.18089 4.94058 0
M  V30 4913 H 479.636 -4.04008 4.57832 0
M  V30 4914 H 481.05 -1.92283 5.40093 0
M  V30 4915 H 479.447 -1.28045 5.8628 0
M  V30 4916 H 480.517 -0.305411 4.83937 0
M  V30 4917 N 481.861 -1.55662 -0.24637 0
M  V30 4918 C 483.277 -1.48098 -0.594907 0
M  V30 4919 C 483.477 -0.717044 -1.8831 0
M  V30 4920 O 482.533 -0.246618 -2.51293 0
M  V30 4921 C 483.846 -2.92507 -0.697146 0
M  V30 4922 C 485.394 -3.02881 -0.789436 0
M  V30 4923 C 485.869 -4.48598 -0.923232 0
M  V30 4924 N 487.36 -4.52538 -0.988088 0
M  V30 4925 C 488.095 -5.62536 -1.11089 0
M  V30 4926 N 487.591 -6.82342 -1.19919 0
M  V30 4927 N 489.384 -5.50334 -1.14408 0
M  V30 4928 H 481.535 -2.0377 0.599278 0
M  V30 4929 H 483.798 -0.925145 0.20691 0
M  V30 4930 H 483.504 -3.51242 0.179396 0
M  V30 4931 H 483.378 -3.43024 -1.5689 0
M  V30 4932 H 485.765 -2.44226 -1.65643 0
M  V30 4933 H 485.846 -2.55574 0.107482 0
M  V30 4934 H 485.49 -5.07864 -0.0607927 0
M  V30 4935 H 485.42 -4.93587 -1.8352 0
M  V30 4936 H 487.911 -3.66248 -0.931167 0
M  V30 4937 H 488.224 -7.61924 -1.29197 0
M  V30 4938 H 486.569 -6.85102 -1.16876 0
M  V30 4939 H 489.76 -4.5567 -1.07158 0
M  V30 4940 H 489.933 -6.36096 -1.23634 0
M  V30 4941 N 483.339 0.512053 -1.4905 0
M  V30 4942 C 484.269 1.62365 -1.67809 0
M  V30 4943 C 485.25 1.61737 -0.526809 0
M  V30 4944 O 486.435 1.78651 -0.761404 0
M  V30 4945 C 483.565 3.00895 -1.73435 0
M  V30 4946 C 482.519 3.16387 -2.88242 0
M  V30 4947 C 481.845 4.56157 -2.78971 0
M  V30 4948 C 483.145 2.97457 -4.29321 0
M  V30 4949 H 484.839 1.46921 -2.60873 0
M  V30 4950 H 482.385 0.705379 -1.2554 0
M  V30 4951 H 484.338 3.78549 -1.85145 0
M  V30 4952 H 483.062 3.17403 -0.769619 0
M  V30 4953 H 481.721 2.41155 -2.76116 0
M  V30 4954 H 481.369 4.69525 -1.8043 0
M  V30 4955 H 481.069 4.67465 -3.5602 0
M  V30 4956 H 482.593 5.35886 -2.92675 0
M  V30 4957 H 484.007 3.64888 -4.42187 0
M  V30 4958 H 482.404 3.20245 -5.07507 0
M  V30 4959 H 483.474 1.93692 -4.44535 0
M  V30 4960 N 484.817 1.37938 0.762283 0
M  V30 4961 C 485.78 1.34279 1.85747 0
M  V30 4962 C 486.78 0.244969 1.58923 0
M  V30 4963 O 487.97 0.501365 1.66829 0
M  V30 4964 C 485.102 1.08833 3.23061 0
M  V30 4965 H 486.295 2.31705 1.90401 0
M  V30 4966 H 483.848 1.23105 0.963057 0
M  V30 4967 H 484.583 0.119767 3.24079 0
M  V30 4968 H 484.368 1.88306 3.43923 0
M  V30 4969 H 485.858 1.08946 4.03138 0
M  V30 4970 N 486.295 -0.989507 1.22664 0
M  V30 4971 C 487.543 -1.72612 1.05117 0
M  V30 4972 C 487.864 -1.90552 -0.414131 0
M  V30 4973 O 487.134 -1.4676 -1.29762 0
M  V30 4974 H 485.714 -0.639555 0.385977 0
M  V30 4975 H 488.376 -1.19158 1.54232 0
M  V30 4976 H 487.472 -2.71926 1.53175 0
M  V30 4977 N 487.773 -1.03688 -1.18687 0
M  V30 4978 C 488.723 -0.595067 -2.20098 0
M  V30 4979 C 489.707 0.360465 -1.5681 0
M  V30 4980 O 490.899 0.180136 -1.76081 0
M  V30 4981 C 488.028 0.0444495 -3.43271 0
M  V30 4982 C 487.114 -0.934002 -4.13687 0
M  V30 4983 N 487.505 -2.09957 -4.60165 0
M  V30 4984 C 485.803 -0.759177 -4.39491 0
M  V30 4985 C 486.504 -2.71735 -5.1433 0
M  V30 4986 N 485.48 -1.99638 -5.05614 0
M  V30 4987 H 489.282 -1.48336 -2.5372 0
M  V30 4988 H 486.796 -0.904949 -1.3485 0
M  V30 4989 H 488.793 0.37864 -4.15177 0
M  V30 4990 H 487.453 0.928325 -3.11147 0
M  V30 4991 H 488.464 -2.47863 -4.54735 0
M  V30 4992 H 485.141 0.0749292 -4.17433 0
M  V30 4993 H 486.531 -3.70492 -5.60523 0
M  V30 4994 N 489.251 1.34841 -0.815825 0
M  V30 4995 C 490.183 2.28409 -0.190265 0
M  V30 4996 C 491.196 1.50705 0.615771 0
M  V30 4997 O 492.385 1.72822 0.446616 0
M  V30 4998 C 489.485 3.30441 0.752446 0
M  V30 4999 C 488.658 4.37399 -0.00922152 0
M  V30 5000 C 487.717 5.19234 0.853351 0
M  V30 5001 O 486.743 5.68404 0.300919 0
M  V30 5002 N 487.945 5.38248 2.17416 0
M  V30 5003 H 490.71 2.82732 -0.994114 0
M  V30 5004 H 488.271 1.47289 -0.672129 0
M  V30 5005 H 490.263 3.82084 1.33394 0
M  V30 5006 H 488.833 2.76565 1.45707 0
M  V30 5007 H 488.053 3.86567 -0.771979 0
M  V30 5008 H 489.341 5.05992 -0.533807 0
M  V30 5009 H 488.739 4.99961 2.6468 0
M  V30 5010 H 487.296 5.93035 2.70467 0
M  V30 5011 N 490.729 0.570148 1.46925 0
M  V30 5012 C 491.977 0.0508523 2.02036 0
M  V30 5013 C 492.298 -1.30885 1.44548 0
M  V30 5014 O 491.568 -1.85647 0.625453 0
M  V30 5015 H 490.148 0.0158088 0.746833 0
M  V30 5016 H 492.81 0.743086 1.80178 0
M  V30 5017 H 491.906 -0.027575 3.12088 0
M  V30 5018 N 492.207 -1.54576 0.307264 0
M  V30 5019 C 493.137 -2.26708 -0.55907 0
M  V30 5020 C 494.118 -1.26893 -1.1328 0
M  V30 5021 O 495.303 -1.55677 -1.16097 0
M  V30 5022 C 492.433 -3.01259 -1.72801 0
M  V30 5023 C 491.387 -4.08275 -1.28435 0
M  V30 5024 C 490.713 -4.70575 -2.53895 0
M  V30 5025 C 492.013 -5.2068 -0.411038 0
M  V30 5026 H 493.707 -2.9937 0.042576 0
M  V30 5027 H 491.253 -1.43983 0.0219173 0
M  V30 5028 H 493.206 -3.50444 -2.34023 0
M  V30 5029 H 491.93 -2.26187 -2.356 0
M  V30 5030 H 490.589 -3.59949 -0.695161 0
M  V30 5031 H 490.237 -3.92136 -3.15021 0
M  V30 5032 H 489.937 -5.42854 -2.24908 0
M  V30 5033 H 491.461 -5.22527 -3.15908 0
M  V30 5034 H 492.875 -5.65721 -0.929097 0
M  V30 5035 H 491.272 -5.99716 -0.214664 0
M  V30 5036 H 492.342 -4.81629 0.562287 0
M  V30 5037 N 493.685 -0.035106 -1.57561 0
M  V30 5038 C 495.096 0.502885 -1.798 0
M  V30 5039 C 495.447 1.71892 -0.945921 0
M  V30 5040 O 494.572 2.15822 -0.157991 0
M  V30 5041 C 495.167 0.919097 -3.26095 0
M  V30 5042 C 493.726 1.40216 -3.49308 0
M  V30 5043 C 492.873 0.369709 -2.74824 0
M  V30 5044 H 495.824 -0.261102 -1.56537 0
M  V30 5045 H 495.845 1.78308 -3.36135 0
M  V30 5046 H 495.357 0.0338526 -3.88085 0
M  V30 5047 H 493.458 2.30714 -2.92578 0
M  V30 5048 H 493.571 1.40541 -4.58023 0
M  V30 5049 H 491.935 0.839113 -2.40481 0
M  V30 5050 H 492.718 -0.507173 -3.39533 0
M  V30 5051 N 495.163 1.55791 0.238111 0
M  V30 5052 C 496.391 1.82098 0.982233 0
M  V30 5053 C 496.806 0.612025 1.78605 0
M  V30 5054 O 496.163 -0.419381 1.77616 0
M  V30 5055 C 496.214 3.0673 1.91309 0
M  V30 5056 O 495.935 4.2296 1.14179 0
M  V30 5057 C 497.436 3.45903 2.77248 0
M  V30 5058 H 494.656 0.605748 0.288635 0
M  V30 5059 H 497.2 2.02862 0.258341 0
M  V30 5060 H 495.355 2.87991 2.59114 0
M  V30 5061 H 495.769 4.93653 1.7722 0
M  V30 5062 H 497.243 4.36189 3.38295 0
M  V30 5063 H 497.72 2.66891 3.48806 0
M  V30 5064 H 498.326 3.67024 2.14881 0
M  V30 5065 N 496.642 -0.504142 1.49319 0
M  V30 5066 C 497.575 -1.62361 1.60356 0
M  V30 5067 C 498.553 -1.56169 0.45277 0
M  V30 5068 O 499.737 -1.76271 0.667892 0
M  V30 5069 C 496.864 -3.00864 1.55559 0
M  V30 5070 C 495.91 -3.25328 2.75797 0
M  V30 5071 S 496.743 -3.08791 4.37503 0
M  V30 5072 C 497.899 -4.49695 4.35345 0
M  V30 5073 H 498.132 -1.52753 2.55056 0
M  V30 5074 H 495.665 -0.689065 1.38171 0
M  V30 5075 H 497.623 -3.8073 1.53477 0
M  V30 5076 H 496.284 -3.0789 0.621515 0
M  V30 5077 H 495.477 -4.2643 2.68651 0
M  V30 5078 H 495.079 -2.53179 2.75275 0
M  V30 5079 H 497.371 -5.41721 4.06871 0
M  V30 5080 H 498.314 -4.61891 5.36714 0
M  V30 5081 H 498.722 -4.30227 3.65465 0
M  V30 5082 N 498.12 -1.38341 -0.754957 0
M  V30 5083 C 499.068 -1.35573 -1.89005 0
M  V30 5084 C 500.062 -0.241824 -1.67665 0
M  V30 5085 O 501.268 -0.410785 -1.7525 0
M  V30 5086 H 497.643 -0.422898 -0.621821 0
M  V30 5087 H 499.614 -2.31359 -1.88455 0
M  V30 5088 C 498.363 -1.19631 -3.26471 0
M  V30 5089 H 497.686 -2.04605 -3.43477 0
M  V30 5090 H 499.126 -1.21748 -4.06144 0
M  V30 5091 C 497.585 0.0968705 -3.36761 0
M  V30 5092 O 498.115 1.07439 -3.87066 0
M  V30 5093 N 496.321 0.153242 -2.90196 0
M  V30 5094 H 495.868 -0.642908 -2.49448 0
M  V30 5095 H 495.826 1.01807 -2.9746 0
M  V30 5096 N 499.598 0.982988 -1.23187 0
M  V30 5097 C 500.826 1.75921 -1.08901 0
M  V30 5098 C 501.241 1.85341 0.359719 0
M  V30 5099 O 500.598 1.33072 1.24892 0
M  V30 5100 C 500.649 3.18742 -1.70545 0
M  V30 5101 O 500.37 3.09814 -3.09753 0
M  V30 5102 C 501.871 4.1277 -1.61667 0
M  V30 5103 H 499.091 0.552166 -0.381252 0
M  V30 5104 H 501.635 1.23516 -1.62985 0
M  V30 5105 H 499.79 3.68182 -1.20501 0
M  V30 5106 H 500.204 3.99703 -3.39614 0
M  V30 5107 H 501.678 5.10697 -2.09506 0
M  V30 5108 H 502.155 4.3542 -0.575009 0
M  V30 5109 H 502.761 3.69232 -2.11064 0
M  V30 5110 N 501.076 1.04316 1.18135 0
M  V30 5111 C 502.487 0.775505 1.69832 0
M  V30 5112 C 502.838 -0.703348 1.8316 0
M  V30 5113 O 501.963 -1.54729 1.51287 0
M  V30 5114 C 502.558 1.40112 3.0847 0
M  V30 5115 C 501.117 1.18172 3.57368 0
M  V30 5116 C 500.264 1.49022 2.33854 0
M  V30 5117 H 503.215 1.20925 1.02775 0
M  V30 5118 H 503.236 0.805672 3.71873 0
M  V30 5119 H 502.748 2.47744 2.98738 0
M  V30 5120 H 500.849 0.124258 3.72393 0
M  V30 5121 H 500.962 1.8805 4.40652 0
M  V30 5122 H 499.326 0.909995 2.37889 0
M  V30 5123 H 500.109 2.57768 2.26738 0
M  V30 5124 N 502.554 -1.34406 0.822964 0
M  V30 5125 C 503.802 -1.97892 0.410245 0
M  V30 5126 C 504.123 -1.65567 -1.03017 0
M  V30 5127 O 503.393 -0.94642 -1.71522 0
M  V30 5128 H 501.973 -0.732049 0.148707 0
M  V30 5129 H 504.635 -1.64043 1.05242 0
M  V30 5130 H 503.731 -3.07579 0.529284 0
M  V30 5131 N 504.032 -0.577932 -1.46621 0
M  V30 5132 C 505.257 -0.0652536 -2.07297 0
M  V30 5133 C 505.682 1.22828 -1.4246 0
M  V30 5134 O 505.04 1.74075 -0.506718 0
M  V30 5135 C 505.088 0.0920589 -3.60482 0
M  V30 5136 O 504.192 1.14972 -3.96049 0
M  V30 5137 H 503.533 -0.06065 -0.661224 0
M  V30 5138 H 506.063 -0.799515 -1.88332 0
M  V30 5139 H 506.073 0.299741 -4.06897 0
M  V30 5140 H 504.748 -0.852612 -4.07067 0
M  V30 5141 H 503.325 0.920879 -3.61351 0
M  V30 5142 N 505.51 1.54411 -0.315457 0
M  V30 5143 C 506.75 2.02329 0.290236 0
M  V30 5144 C 507.114 1.19878 1.49977 0
M  V30 5145 O 508.315 1.57562 2.17779 0
M  V30 5146 C 506.586 3.51912 0.623937 0
M  V30 5147 S 508.145 4.21775 1.21044 0
M  V30 5148 H 504.963 0.705499 0.0882739 0
M  V30 5149 H 507.565 1.90328 -0.446694 0
M  V30 5150 H 506.269 4.09546 -0.264624 0
M  V30 5151 H 505.8 3.67977 1.39128 0
M  V30 5152 H 507.815 4.28757 2.49764 0
M  V30 5153 N 506.988 0.0434614 1.5754 0
M  V30 5154 C 507.92 -0.962586 2.08007 0
M  V30 5155 C 508.933 -1.27972 1.00634 0
M  V30 5156 O 510.122 -1.24186 1.28219 0
M  V30 5157 C 507.222 -2.28621 2.50171 0
M  V30 5158 C 506.395 -2.15214 3.80791 0
M  V30 5159 C 505.454 -3.30633 4.09351 0
M  V30 5160 O 504.48 -3.0688 4.79388 0
M  V30 5161 N 505.682 -4.54873 3.60654 0
M  V30 5162 H 508.447 -0.531891 2.94942 0
M  V30 5163 H 506.008 -0.142965 1.61268 0
M  V30 5164 H 508 -3.04689 2.66359 0
M  V30 5165 H 506.57 -2.63283 1.68525 0
M  V30 5166 H 505.79 -1.23785 3.74261 0
M  V30 5167 H 507.078 -2.03475 4.66343 0
M  V30 5168 H 506.476 -4.77063 3.04019 0
M  V30 5169 H 505.033 -5.2806 3.82094 0
M  V30 5170 N 508.466 -1.55915 -0.229846 0
M  V30 5171 C 509.713 -1.78542 -0.955452 0
M  V30 5172 C 510.041 -0.610785 -1.84661 0
M  V30 5173 O 509.296 0.405213 -1.91459 0
M  V30 5174 C 509.595 -3.06845 -1.8325 0
M  V30 5175 C 509.261 -4.37395 -1.09528 0
M  V30 5176 C 507.923 -4.72868 -0.891598 0
M  V30 5177 C 510.275 -5.18029 -0.574046 0
M  V30 5178 C 507.603 -5.86496 -0.154655 0
M  V30 5179 C 509.955 -6.32423 0.149513 0
M  V30 5180 C 508.619 -6.66504 0.364519 0
M  V30 5181 H 507.889 -0.653333 -0.349625 0
M  V30 5182 H 510.536 -1.90183 -0.224235 0
M  V30 5183 H 508.841 -2.90291 -2.63132 0
M  V30 5184 H 510.538 -3.21553 -2.39592 0
M  V30 5185 H 507.128 -4.09538 -1.26399 0
M  V30 5186 H 511.312 -4.91066 -0.718899 0
M  V30 5187 H 506.568 -6.11396 0.0222356 0
M  V30 5188 H 510.742 -6.94137 0.560947 0
M  V30 5189 H 508.369 -7.54397 0.937495 0
M  V30 5190 N 509.944 0.496216 -1.49584 0
M  V30 5191 C 510.874 1.60576 -1.69521 0
M  V30 5192 C 511.855 1.61169 -0.543933 0
M  V30 5193 O 513.04 1.77834 -0.78031 0
M  V30 5194 C 510.17 2.99038 -1.76616 0
M  V30 5195 C 509.124 3.13312 -2.91581 0
M  V30 5196 C 508.45 4.53172 -2.83794 0
M  V30 5197 C 509.75 2.92886 -4.32452 0
M  V30 5198 H 511.444 1.44146 -2.62416 0
M  V30 5199 H 508.99 0.692024 -1.26282 0
M  V30 5200 H 510.943 3.76564 -1.8915 0
M  V30 5201 H 509.667 3.16568 -0.80324 0
M  V30 5202 H 508.326 2.38213 -2.78658 0
M  V30 5203 H 507.974 4.67585 -1.854 0
M  V30 5204 H 507.674 4.63662 -3.60958 0
M  V30 5205 H 509.198 5.32752 -2.98342 0
M  V30 5206 H 510.612 3.60178 -4.46032 0
M  V30 5207 H 509.009 3.14844 -5.10875 0
M  V30 5208 H 510.079 1.88966 -4.46565 0
M  V30 5209 N 511.423 1.38739 0.74761 0
M  V30 5210 C 512.651 1.38521 1.53686 0
M  V30 5211 C 513.066 -0.0235129 1.88785 0
M  V30 5212 O 512.423 -0.991662 1.53207 0
M  V30 5213 C 512.474 2.24641 2.83229 0
M  V30 5214 O 512.195 3.60026 2.49625 0
M  V30 5215 C 513.696 2.32669 3.77333 0
M  V30 5216 H 510.916 0.473589 0.475347 0
M  V30 5217 H 513.46 1.82395 0.924786 0
M  V30 5218 H 511.615 1.84213 3.40799 0
M  V30 5219 H 512.029 4.05435 3.3275 0
M  V30 5220 H 513.503 2.97201 4.65162 0
M  V30 5221 H 513.98 1.3421 4.18192 0
M  V30 5222 H 514.586 2.73512 3.25685 0
M  V30 5223 N 512.901 -0.976442 1.23707 0
M  V30 5224 C 514.126 -1.75875 1.09922 0
M  V30 5225 C 514.551 -1.84911 -0.34489 0
M  V30 5226 O 513.909 -1.31363 -1.24954 0
M  V30 5227 C 513.957 -3.16179 1.73388 0
M  V30 5228 O 513.061 -4.00124 0.99871 0
M  V30 5229 H 512.402 -0.540954 0.385052 0
M  V30 5230 H 514.932 -1.22546 1.6384 0
M  V30 5231 H 514.942 -3.66741 1.78788 0
M  V30 5232 H 513.617 -3.08917 2.78466 0
M  V30 5233 H 512.194 -3.58624 1.02193 0
M  V30 5234 N 514.379 -1.04941 -1.1758 0
M  V30 5235 C 515.656 -0.671918 -1.83697 0
M  V30 5236 C 516.036 0.847929 -1.93322 0
M  V30 5237 O 515.384 1.75287 -1.46583 0
M  V30 5238 C 515.594 -1.35797 -3.21497 0
M  V30 5239 C 516.942 -1.4944 -3.97433 0
M  V30 5240 O 517.966 -1.31678 -3.30967 0
M  V30 5241 O 516.825 -1.78463 -5.1654 0
M  V30 5242 H 513.919 -0.236212 -0.792548 0
M  V30 5243 H 516.465 -1.14884 -1.24899 0
M  V30 5244 H 515.237 -2.39498 -3.09446 0
M  V30 5245 H 514.86 -0.870236 -3.8796 0
M  V30 5246 N 515.857 1.33968 -0.830081 0
M  V30 5247 C 517.134 1.92554 -0.343858 0
M  V30 5248 C 517.514 1.7573 1.16971 0
M  V30 5249 O 516.862 1.14035 1.98011 0
M  V30 5250 C 517.072 3.40147 -0.781073 0
M  V30 5251 C 518.42 4.17299 -0.78402 0
M  V30 5252 O 519.444 3.48762 -0.724112 0
M  V30 5253 O 518.303 5.39631 -0.863739 0
M  V30 5254 H 515.397 0.821469 -0.0954827 0
M  V30 5255 H 517.943 1.42897 -0.915348 0
M  V30 5256 H 516.715 3.46225 -1.82329 0
M  V30 5257 H 516.338 3.97166 -0.18567 0
M  V30 5258 N 517.335 0.585699 1.46312 0
M  V30 5259 C 518.582 0.0724211 2.0237 0
M  V30 5260 C 518.91 -1.28868 1.45683 0
M  V30 5261 O 518.165 -1.85853 0.612945 0
M  V30 5262 C 518.464 -0.0401312 3.57377 0
M  V30 5263 C 518.13 1.25376 4.33119 0
M  V30 5264 C 516.792 1.60824 4.5353 0
M  V30 5265 C 519.144 2.10987 4.76586 0
M  V30 5266 C 516.472 2.81676 5.14661 0
M  V30 5267 C 518.824 3.31068 5.39052 0
M  V30 5268 C 517.488 3.66794 5.5769 0
M  V30 5269 H 516.758 0.0265007 0.740526 0
M  V30 5270 H 519.405 0.762935 1.75646 0
M  V30 5271 H 517.71 -0.813791 3.83255 0
M  V30 5272 H 519.407 -0.453078 3.98432 0
M  V30 5273 H 515.997 0.967808 4.1753 0
M  V30 5274 H 520.181 1.84904 4.60569 0
M  V30 5275 H 515.437 3.0949 5.27282 0
M  V30 5276 H 519.611 3.97672 5.71691 0
M  V30 5277 H 517.238 4.60529 6.04828 0
M  V30 5278 N 518.813 -1.54241 0.323641 0
M  V30 5279 C 519.745 -2.21836 -0.576311 0
M  V30 5280 C 520.758 -1.21837 -1.07979 0
M  V30 5281 O 521.947 -1.48306 -0.99336 0
M  V30 5282 C 519.047 -2.86923 -1.80356 0
M  V30 5283 C 518.22 -4.1306 -1.43875 0
M  V30 5284 C 517.279 -4.6174 -2.52353 0
M  V30 5285 O 516.305 -5.26421 -2.16494 0
M  V30 5286 N 517.507 -4.35974 -3.83284 0
M  V30 5287 H 520.272 -2.997 0.00247987 0
M  V30 5288 H 517.833 -1.61233 0.146848 0
M  V30 5289 H 519.825 -3.16414 -2.52318 0
M  V30 5290 H 518.395 -2.12765 -2.29019 0
M  V30 5291 H 517.615 -3.90334 -0.550752 0
M  V30 5292 H 518.903 -4.95148 -1.17071 0
M  V30 5293 H 518.301 -3.84203 -4.15216 0
M  V30 5294 H 516.858 -4.70119 -4.51477 0
M  V30 5295 N 520.291 -0.0518155 -1.57515 0
M  V30 5296 C 521.516 0.634896 -1.97443 0
M  V30 5297 C 521.941 1.63546 -0.929207 0
M  V30 5298 O 521.299 1.80981 0.107484 0
M  V30 5299 C 521.347 1.29765 -3.36442 0
M  V30 5300 O 520.451 2.41333 -3.34413 0
M  V30 5301 H 519.792 0.164994 -0.643174 0
M  V30 5302 H 522.322 -0.120407 -2.04245 0
M  V30 5303 H 522.332 1.64918 -3.73184 0
M  V30 5304 H 521.007 0.564361 -4.12053 0
M  V30 5305 H 519.584 2.08122 -3.09418 0
M  V30 5306 N 521.769 1.56035 0.221574 0
M  V30 5307 C 523.18 1.69229 0.788567 0
M  V30 5308 C 523.531 0.653814 1.84986 0
M  V30 5309 O 522.656 -0.195065 2.15519 0
M  V30 5310 C 523.251 3.06809 1.43713 0
M  V30 5311 C 521.81 3.21858 1.95152 0
M  V30 5312 C 520.957 2.65155 0.811685 0
M  V30 5313 H 523.908 1.587 -0.00307894 0
M  V30 5314 H 523.929 3.02666 2.30594 0
M  V30 5315 H 523.441 3.82369 0.664475 0
M  V30 5316 H 521.542 2.51167 2.7522 0
M  V30 5317 H 521.655 4.29073 2.1315 0
M  V30 5318 H 520.019 2.23635 1.21899 0
M  V30 5319 H 520.802 3.43261 0.0516987 0
M  V30 5320 N 523.247 -0.488276 1.49845 0
M  V30 5321 C 524.472 -1.26997 1.63971 0
M  V30 5322 C 524.897 -1.85427 0.315994 0
M  V30 5323 O 524.255 -1.66475 -0.718032 0
M  V30 5324 C 524.303 -2.36689 2.72049 0
M  V30 5325 O 523.407 -3.40882 2.32107 0
M  V30 5326 H 522.748 -0.374376 0.548396 0
M  V30 5327 H 525.278 -0.583104 1.96115 0
M  V30 5328 H 525.288 -2.82262 2.94605 0
M  V30 5329 H 523.963 -1.93529 3.68129 0
M  V30 5330 H 522.54 -3.01139 2.19931 0
M  V30 5331 N 524.725 -1.39134 -0.740242 0
M  V30 5332 C 525.688 -1.37217 -1.83587 0
M  V30 5333 C 526.688 -0.270221 -1.58513 0
M  V30 5334 O 527.878 -0.527843 -1.6601 0
M  V30 5335 C 525.01 -1.13959 -3.21288 0
M  V30 5336 H 526.203 -2.34705 -1.86691 0
M  V30 5337 H 523.756 -1.24622 -0.94335 0
M  V30 5338 H 524.491 -0.17131 -3.23847 0
M  V30 5339 H 524.276 -1.93754 -3.40884 0
M  V30 5340 H 525.766 -1.15346 -4.01354 0
M  V30 5341 N 526.204 0.969867 -1.24223 0
M  V30 5342 C 527.137 2.06279 -0.975926 0
M  V30 5343 C 528.115 1.62353 0.0895385 0
M  V30 5344 O 529.299 1.88442 -0.0469418 0
M  V30 5345 C 526.426 3.35391 -0.472315 0
M  V30 5346 C 525.472 3.98266 -1.526 0
M  V30 5347 S 526.305 4.36172 -3.10667 0
M  V30 5348 C 527.461 5.68423 -2.62003 0
M  V30 5349 H 527.694 2.28551 -1.90137 0
M  V30 5350 H 525.227 1.10748 -1.07584 0
M  V30 5351 H 527.185 4.10068 -0.188376 0
M  V30 5352 H 525.846 3.1111 0.432378 0
M  V30 5353 H 525.039 4.91307 -1.12399 0
M  V30 5354 H 524.641 3.30009 -1.75983 0
M  V30 5355 H 526.933 6.45842 -2.0468 0
M  V30 5356 H 527.876 6.13478 -3.53625 0
M  V30 5357 H 528.284 5.26928 -2.02502 0
M  V30 5358 N 527.682 1.05563 1.17022 0
M  V30 5359 C 529.093 0.793475 1.69 0
M  V30 5360 C 529.444 -0.683882 1.83895 0
M  V30 5361 O 528.569 -1.53116 1.5292 0
M  V30 5362 C 529.164 1.43376 3.06967 0
M  V30 5363 C 527.723 1.21956 3.56095 0
M  V30 5364 C 526.87 1.51494 2.3226 0
M  V30 5365 H 529.821 1.22008 1.01487 0
M  V30 5366 H 529.842 0.845068 3.70997 0
M  V30 5367 H 529.354 2.50899 2.96093 0
M  V30 5368 H 527.455 0.163749 3.7224 0
M  V30 5369 H 527.568 1.92713 4.38633 0
M  V30 5370 H 525.932 0.935175 2.3691 0
M  V30 5371 H 526.715 2.60159 2.23992 0
M  V30 5372 N 529.16 -1.33526 0.837174 0
M  V30 5373 C 530.092 -2.28077 0.226579 0
M  V30 5374 C 531.105 -1.51666 -0.591717 0
M  V30 5375 O 532.294 -1.73511 -0.419064 0
M  V30 5376 C 529.394 -3.31597 -0.69978 0
M  V30 5377 C 528.567 -4.37329 0.0788067 0
M  V30 5378 C 527.626 -5.20526 -0.770637 0
M  V30 5379 O 526.652 -5.68811 -0.210453 0
M  V30 5380 N 527.854 -5.41639 -2.08825 0
M  V30 5381 H 530.619 -2.81115 1.03897 0
M  V30 5382 H 528.18 -1.46201 0.695476 0
M  V30 5383 H 530.172 -3.84158 -1.27298 0
M  V30 5384 H 528.742 -2.78848 -1.41288 0
M  V30 5385 H 527.962 -3.8529 0.833381 0
M  V30 5386 H 529.25 -5.05079 0.614238 0
M  V30 5387 H 528.648 -5.04108 -2.56693 0
M  V30 5388 H 527.205 -5.97263 -2.60998 0
M  V30 5389 N 530.638 -0.59345 -1.46 0
M  V30 5390 C 531.868 -0.0889642 -2.06408 0
M  V30 5391 C 532.276 1.22597 -1.44106 0
M  V30 5392 O 531.619 1.75448 -0.544398 0
M  V30 5393 C 531.681 0.139902 -3.59228 0
M  V30 5394 C 531.345 -1.09107 -4.43784 0
M  V30 5395 C 532.342 -2.00577 -4.79651 0
M  V30 5396 C 530.027 -1.31593 -4.84756 0
M  V30 5397 C 532.021 -3.12873 -5.55328 0
M  V30 5398 C 529.708 -2.44192 -5.60191 0
M  V30 5399 C 530.706 -3.34661 -5.95392 0
M  V30 5400 O 530.394 -4.45302 -6.69299 0
M  V30 5401 H 530.126 -0.0594613 -0.67338 0
M  V30 5402 H 532.68 -0.817 -1.88452 0
M  V30 5403 H 530.91 0.922672 -3.75531 0
M  V30 5404 H 532.599 0.594228 -4.01527 0
M  V30 5405 H 533.365 -1.84425 -4.48567 0
M  V30 5406 H 529.244 -0.620801 -4.56801 0
M  V30 5407 H 532.788 -3.83511 -5.82722 0
M  V30 5408 H 528.685 -2.60303 -5.90688 0
M  V30 5409 H 529.453 -4.43805 -6.87735 0
M  V30 5410 N 532.116 1.54067 -0.331816 0
M  V30 5411 C 533.393 1.92915 0.322955 0
M  V30 5412 C 533.773 1.26225 1.69205 0
M  V30 5413 O 533.121 0.408919 2.24811 0
M  V30 5414 C 533.331 3.46619 0.406946 0
M  V30 5415 C 534.679 4.19386 0.663339 0
M  V30 5416 O 535.703 3.5282 0.489536 0
M  V30 5417 O 534.562 5.37288 0.999193 0
M  V30 5418 H 531.656 0.805808 0.186016 0
M  V30 5419 H 534.202 1.65342 -0.382135 0
M  V30 5420 H 532.974 3.87354 -0.554287 0
M  V30 5421 H 532.597 3.80324 1.15929 0
M  V30 5422 N 533.594 0.0601682 1.57485 0
M  V30 5423 C 534.84 -0.612501 1.93329 0
M  V30 5424 C 535.173 -1.6996 0.939526 0
M  V30 5425 O 534.448 -1.94472 -0.0330957 0
M  V30 5426 C 534.731 -1.20025 3.39508 0
M  V30 5427 C 534.584 -0.12059 4.49638 0
M  V30 5428 C 535.903 -2.10923 3.86264 0
M  V30 5429 H 533.022 -0.221185 0.703027 0
M  V30 5430 H 535.664 0.123768 1.89596 0
M  V30 5431 H 533.814 -1.82774 3.42821 0
M  V30 5432 H 535.486 0.51185 4.58452 0
M  V30 5433 H 533.729 0.550251 4.30296 0
M  V30 5434 H 534.4 -0.572019 5.49028 0
M  V30 5435 H 536.876 -1.58124 3.84884 0
M  V30 5436 H 535.752 -2.48987 4.8918 0
M  V30 5437 H 536.013 -3.01292 3.23536 0
M  V30 5438 N 535.072 -1.5615 -0.213296 0
M  V30 5439 C 536.3 -1.83638 -0.953139 0
M  V30 5440 C 536.715 -0.640362 -1.77609 0
M  V30 5441 O 536.072 0.391071 -1.78261 0
M  V30 5442 C 536.123 -3.09735 -1.86405 0
M  V30 5443 O 535.844 -4.24723 -1.07435 0
M  V30 5444 C 537.345 -3.5027 -2.71709 0
M  V30 5445 H 534.565 -0.610263 -0.278962 0
M  V30 5446 H 537.109 -2.03247 -0.226035 0
M  V30 5447 H 535.264 -2.92077 -2.545 0
M  V30 5448 H 535.678 -4.9641 -1.69343 0
M  V30 5449 H 537.152 -4.41515 -3.31313 0
M  V30 5450 H 537.629 -2.72406 -3.44516 0
M  V30 5451 H 538.235 -3.70396 -2.09015 0
M  V30 5452 N 536.55 0.480323 -1.50102 0
M  V30 5453 C 537.961 1.06142 -1.53593 0
M  V30 5454 C 538.312 1.93335 -0.334055 0
M  V30 5455 O 537.437 2.09188 0.55403 0
M  V30 5456 C 538.032 1.9317 -2.78336 0
M  V30 5457 C 536.591 2.46405 -2.84538 0
M  V30 5458 C 535.738 1.24521 -2.4777 0
M  V30 5459 H 538.689 0.26333 -1.565 0
M  V30 5460 H 538.71 2.78123 -2.59669 0
M  V30 5461 H 538.222 1.29683 -3.65792 0
M  V30 5462 H 536.323 3.13472 -2.01411 0
M  V30 5463 H 536.436 2.82143 -3.87211 0
M  V30 5464 H 534.8 1.57706 -2.00003 0
M  V30 5465 H 535.583 0.627102 -3.37524 0
M  V30 5466 N 538.028 1.39524 0.732853 0
M  V30 5467 C 538.938 1.40695 1.87729 0
M  V30 5468 C 539.954 0.301496 1.71368 0
M  V30 5469 O 541.13 0.543313 1.93933 0
M  V30 5470 C 538.195 1.25098 3.23344 0
M  V30 5471 C 537.256 2.45634 3.52083 0
M  V30 5472 C 536.489 2.30772 4.81228 0
M  V30 5473 O 536.712 1.31233 5.55098 0
M  V30 5474 O 535.646 3.19799 5.09914 0
M  V30 5475 H 539.472 2.37168 1.89697 0
M  V30 5476 H 537.057 1.20663 0.880959 0
M  V30 5477 H 538.939 1.18541 4.04383 0
M  V30 5478 H 537.614 0.317209 3.22142 0
M  V30 5479 H 536.521 2.57767 2.71122 0
M  V30 5480 H 537.854 3.37712 3.58066 0
M  V30 5481 N 539.506 -0.963266 1.24736 0
M  V30 5482 C 540.439 -2.05758 0.986852 0
M  V30 5483 C 541.417 -1.62398 -0.0809272 0
M  V30 5484 O 542.601 -1.88414 0.0569347 0
M  V30 5485 C 539.728 -3.35135 0.490095 0
M  V30 5486 C 538.774 -3.97451 1.54709 0
M  V30 5487 S 539.607 -4.34519 3.12976 0
M  V30 5488 C 540.763 -5.67026 2.65014 0
M  V30 5489 H 540.996 -2.27539 1.91346 0
M  V30 5490 H 538.529 -1.10176 1.08169 0
M  V30 5491 H 540.487 -4.09962 0.21012 0
M  V30 5492 H 539.148 -3.11335 -0.415873 0
M  V30 5493 H 538.341 -4.90704 1.15003 0
M  V30 5494 H 537.943 -3.29071 1.77731 0
M  V30 5495 H 540.235 -6.44748 2.08102 0
M  V30 5496 H 541.178 -6.11594 3.56873 0
M  V30 5497 H 541.586 -5.25847 2.05294 0
M  V30 5498 N 540.985 -1.06182 -1.16461 0
M  V30 5499 C 542.401 -0.785065 -1.38956 0
M  V30 5500 C 542.601 0.616103 -1.9185 0
M  V30 5501 O 541.657 1.37686 -2.11657 0
M  V30 5502 C 542.97 -1.84902 -2.37132 0
M  V30 5503 C 544.518 -1.8724 -2.50819 0
M  V30 5504 C 544.993 -2.92686 -3.52277 0
M  V30 5505 N 546.484 -2.91712 -3.59803 0
M  V30 5506 C 547.219 -3.69949 -4.38093 0
M  V30 5507 N 546.715 -4.58 -5.19815 0
M  V30 5508 N 548.508 -3.58346 -4.33064 0
M  V30 5509 H 540.659 -1.96569 -0.804634 0
M  V30 5510 H 542.922 -0.851747 -0.416211 0
M  V30 5511 H 542.628 -2.85518 -2.0536 0
M  V30 5512 H 542.502 -1.69908 -3.36766 0
M  V30 5513 H 544.889 -0.872827 -2.81897 0
M  V30 5514 H 544.97 -2.06311 -1.51226 0
M  V30 5515 H 544.614 -3.92835 -3.21937 0
M  V30 5516 H 544.544 -2.70864 -4.51598 0
M  V30 5517 H 547.035 -2.27876 -3.01464 0
M  V30 5518 H 547.348 -5.14357 -5.76764 0
M  V30 5519 H 545.693 -4.62056 -5.19162 0
M  V30 5520 H 548.884 -2.88943 -3.68279 0
M  V30 5521 H 549.057 -4.19563 -4.93833 0
M  V30 5522 N 542.463 1.3308 -0.844243 0
M  V30 5523 C 543.712 1.96868 -0.438833 0
M  V30 5524 C 544.025 1.67599 1.00846 0
M  V30 5525 O 545.231 2.25043 1.51881 0
M  V30 5526 C 543.687 3.5234 -0.73377 0
M  V30 5527 C 543.295 3.90481 -2.1961 0
M  V30 5528 C 545.039 4.22653 -0.395574 0
M  V30 5529 C 542.946 5.38954 -2.43481 0
M  V30 5530 H 541.876 0.736749 -0.160364 0
M  V30 5531 H 544.527 1.51623 -1.03358 0
M  V30 5532 H 542.909 3.95941 -0.068589 0
M  V30 5533 H 544.083 3.57922 -2.90221 0
M  V30 5534 H 542.398 3.33165 -2.4978 0
M  V30 5535 H 544.995 5.31848 -0.551477 0
M  V30 5536 H 545.338 4.11004 0.661921 0
M  V30 5537 H 545.871 3.84601 -1.01621 0
M  V30 5538 H 542.61 5.55612 -3.47816 0
M  V30 5539 H 542.13 5.72954 -1.77437 0
M  V30 5540 H 543.809 6.05907 -2.26905 0
M  V30 5541 N 543.941 0.601185 1.45683 0
M  V30 5542 C 545.352 0.179659 1.85834 0
M  V30 5543 C 545.703 -1.26189 1.50236 0
M  V30 5544 O 544.828 -1.95587 0.925987 0
M  V30 5545 C 545.423 0.319277 3.37292 0
M  V30 5546 C 543.982 -0.0475092 3.7637 0
M  V30 5547 C 543.129 0.646692 2.69654 0
M  V30 5548 H 546.08 0.808268 1.36575 0
M  V30 5549 H 546.101 -0.4503 3.77826 0
M  V30 5550 H 545.613 1.36855 3.6317 0
M  V30 5551 H 543.714 -1.0962 3.5611 0
M  V30 5552 H 543.827 0.34168 4.7788 0
M  V30 5553 H 542.191 0.0849971 2.54558 0
M  V30 5554 H 542.974 1.69797 2.98369 0
M  V30 5555 N 545.419 -1.53889 0.339982 0
M  V30 5556 C 546.667 -2.00458 -0.257112 0
M  V30 5557 C 546.988 -1.22953 -1.51353 0
M  V30 5558 O 546.258 -0.335734 -1.93002 0
M  V30 5559 H 544.838 -0.740544 -0.0979965 0
M  V30 5560 H 547.5 -1.89386 0.460317 0
M  V30 5561 H 546.596 -3.08035 -0.502057 0
M  V30 5562 N 546.897 -0.0685191 -1.57451 0
M  V30 5563 C 547.807 0.914677 -2.16034 0
M  V30 5564 C 548.823 1.32938 -1.12265 0
M  V30 5565 O 549.999 1.40275 -1.44516 0
M  V30 5566 C 547.064 2.16519 -2.70777 0
M  V30 5567 C 546.125 1.80721 -3.89408 0
M  V30 5568 C 545.358 2.9981 -4.41531 0
M  V30 5569 O 545.581 4.13727 -3.92666 0
M  V30 5570 O 544.515 2.79817 -5.32903 0
M  V30 5571 H 548.341 0.446364 -3.00402 0
M  V30 5572 H 545.926 0.154367 -1.486 0
M  V30 5573 H 547.808 2.89856 -3.05878 0
M  V30 5574 H 546.483 2.62454 -1.89471 0
M  V30 5575 H 545.39 1.04646 -3.59166 0
M  V30 5576 H 546.723 1.39571 -4.71997 0
M  V30 5577 N 548.375 1.56261 0.205012 0
M  V30 5578 C 549.621 1.80306 0.9283 0
M  V30 5579 C 549.954 0.640932 1.83319 0
M  V30 5580 O 549.229 -0.359032 1.91158 0
M  V30 5581 C 549.512 3.14547 1.75306 0
M  V30 5582 C 549.365 4.41236 0.873562 0
M  V30 5583 C 550.684 3.45382 2.72762 0
M  V30 5584 H 547.803 0.655929 0.336044 0
M  V30 5585 H 550.445 1.88984 0.196211 0
M  V30 5586 H 548.595 3.0728 2.37721 0
M  V30 5587 H 550.267 4.60539 0.264887 0
M  V30 5588 H 548.51 4.33427 0.179773 0
M  V30 5589 H 549.181 5.31639 1.48541 0
M  V30 5590 H 551.657 3.52884 2.20481 0
M  V30 5591 H 550.533 4.40449 3.2756 0
M  V30 5592 H 550.794 2.68377 3.51321 0
M  V30 5593 N 549.853 -0.472356 1.50355 0
M  V30 5594 C 550.8 -1.57051 1.69126 0
M  V30 5595 C 551.77 -1.5733 0.532574 0
M  V30 5596 O 552.955 -1.7488 0.762994 0
M  V30 5597 C 550.095 -2.95033 1.79024 0
M  V30 5598 C 549.208 -3.04552 3.06386 0
M  V30 5599 C 548.343 -4.33441 3.07087 0
M  V30 5600 C 547.382 -4.36697 4.28908 0
M  V30 5601 N 546.519 -5.57056 4.27356 0
M  V30 5602 H 551.359 -1.40351 2.62879 0
M  V30 5603 H 548.896 -0.682403 1.30314 0
M  V30 5604 H 550.854 -3.75048 1.82744 0
M  V30 5605 H 549.484 -3.10371 0.887109 0
M  V30 5606 H 548.536 -2.17419 3.12143 0
M  V30 5607 H 549.848 -3.02818 3.96362 0
M  V30 5608 H 549.002 -5.21801 3.09529 0
M  V30 5609 H 547.741 -4.37782 2.14939 0
M  V30 5610 H 546.746 -3.46734 4.2668 0
M  V30 5611 H 547.971 -4.34049 5.22282 0
M  V30 5612 H 545.917 -5.62184 3.3806 0
M  V30 5613 H 545.834 -5.57058 5.111 0
M  V30 5614 H 547.102 -6.47545 4.33942 0
M  V30 5615 N 551.331 -1.39911 -0.725443 0
M  V30 5616 C 552.279 -1.39552 -1.86086 0
M  V30 5617 C 553.273 -0.277334 -1.67114 0
M  V30 5618 O 554.479 -0.447865 -1.74339 0
M  V30 5619 H 550.854 -0.435993 -0.612711 0
M  V30 5620 H 552.825 -2.35305 -1.83505 0
M  V30 5621 C 551.574 -1.26529 -3.2386 0
M  V30 5622 H 550.897 -2.11845 -3.3906 0
M  V30 5623 H 552.337 -1.30336 -4.03471 0
M  V30 5624 C 550.796 0.0254168 -3.3689 0
M  V30 5625 O 551.326 0.992048 -3.89257 0
M  V30 5626 N 549.532 0.0916528 -2.90455 0
M  V30 5627 H 549.079 -0.695675 -2.48028 0
M  V30 5628 H 549.037 0.954745 -2.99553 0
M  V30 5629 N 552.809 0.956637 -1.25245 0
M  V30 5630 C 553.739 2.07058 -1.07931 0
M  V30 5631 C 554.72 1.70096 0.0110361 0
M  V30 5632 O 555.905 1.93555 -0.158121 0
M  V30 5633 C 553.035 3.40272 -0.695124 0
M  V30 5634 C 551.989 3.91235 -1.73549 0
M  V30 5635 C 551.315 5.20921 -1.20604 0
M  V30 5636 C 552.615 4.17837 -3.13385 0
M  V30 5637 H 554.309 2.218 -2.01109 0
M  V30 5638 H 551.855 1.06581 -0.968326 0
M  V30 5639 H 553.808 4.1765 -0.560949 0
M  V30 5640 H 552.532 3.25462 0.272355 0
M  V30 5641 H 551.191 3.16025 -1.85807 0
M  V30 5642 H 550.839 5.02479 -0.228846 0
M  V30 5643 H 550.539 5.55987 -1.90136 0
M  V30 5644 H 552.063 6.00897 -1.08421 0
M  V30 5645 H 553.477 4.8588 -3.04292 0
M  V30 5646 H 551.874 4.64154 -3.80369 0
M  V30 5647 H 552.944 3.2419 -3.60595 0
M  V30 5648 N 554.287 1.06798 1.15896 0
M  V30 5649 C 555.22 0.627503 2.19403 0
M  V30 5650 C 556.198 -0.352352 1.58736 0
M  V30 5651 O 557.382 -0.260111 1.86697 0
M  V30 5652 C 554.509 -0.079356 3.38607 0
M  V30 5653 C 553.555 0.858057 4.17779 0
M  V30 5654 S 554.388 2.35605 4.80885 0
M  V30 5655 C 555.544 1.66083 6.03463 0
M  V30 5656 H 555.777 1.50441 2.56427 0
M  V30 5657 H 553.31 0.881427 1.26768 0
M  V30 5658 H 555.268 -0.48095 4.07673 0
M  V30 5659 H 553.929 -0.932524 2.99938 0
M  V30 5660 H 553.122 0.310108 5.03045 0
M  V30 5661 H 552.724 1.19977 3.54234 0
M  V30 5662 H 555.016 0.969337 6.7053 0
M  V30 5663 H 555.959 2.49159 6.62816 0
M  V30 5664 H 556.367 1.14122 5.52844 0
M  V30 5665 N 555.766 -1.3263 0.851289 0
M  V30 5666 C 556.676 -2.32722 0.296268 0
M  V30 5667 C 557.692 -1.63901 -0.584162 0
M  V30 5668 O 558.868 -1.95465 -0.485334 0
M  V30 5669 C 555.933 -3.42942 -0.509103 0
M  V30 5670 C 554.994 -4.2746 0.397069 0
M  V30 5671 C 554.227 -5.32416 -0.36996 0
M  V30 5672 O 554.45 -5.47491 -1.6003 0
M  V30 5673 O 553.384 -6.01327 0.262493 0
M  V30 5674 H 557.21 -2.82078 1.12543 0
M  V30 5675 H 554.795 -1.36194 0.614135 0
M  V30 5676 H 556.677 -4.1017 -0.96634 0
M  V30 5677 H 555.352 -2.95781 -1.31512 0
M  V30 5678 H 554.259 -3.63053 0.902411 0
M  V30 5679 H 555.592 -4.78136 1.16818 0
M  V30 5680 N 557.244 -0.608902 -1.45362 0
M  V30 5681 C 558.493 -0.10218 -2.01441 0
M  V30 5682 C 558.806 1.27546 -1.48295 0
M  V30 5683 O 560.012 1.87498 -1.96359 0
M  V30 5684 C 558.468 -0.131985 -3.59658 0
M  V30 5685 C 558.076 -1.50956 -4.21801 0
M  V30 5686 C 559.82 0.319427 -4.23296 0
M  V30 5687 C 557.727 -1.49568 -5.72174 0
M  V30 5688 H 556.657 -0.0344314 -0.753213 0
M  V30 5689 H 559.308 -0.764426 -1.6682 0
M  V30 5690 H 557.69 0.596939 -3.91475 0
M  V30 5691 H 558.864 -2.26029 -4.01556 0
M  V30 5692 H 557.179 -1.90318 -3.70362 0
M  V30 5693 H 559.776 0.349013 -5.3356 0
M  V30 5694 H 560.119 1.34237 -3.94064 0
M  V30 5695 H 560.652 -0.356273 -3.96201 0
M  V30 5696 H 557.391 -2.49626 -6.06108 0
M  V30 5697 H 556.911 -0.787542 -5.94607 0
M  V30 5698 H 558.59 -1.21989 -6.35396 0
M  V30 5699 N 558.722 1.53707 -0.348139 0
M  V30 5700 C 559.685 2.23812 0.494058 0
M  V30 5701 C 560.685 1.23989 1.02388 0
M  V30 5702 O 561.875 1.48395 0.912396 0
M  V30 5703 C 559.007 2.96133 1.68872 0
M  V30 5704 H 560.2 2.99663 -0.119141 0
M  V30 5705 H 557.753 1.55983 -0.0995539 0
M  V30 5706 H 558.488 2.24481 2.34049 0
M  V30 5707 H 558.273 3.69357 1.31596 0
M  V30 5708 H 559.763 3.49475 2.28597 0
M  V30 5709 N 560.2 0.0768682 1.57412 0
M  V30 5710 C 561.11 -0.903207 2.16516 0
M  V30 5711 C 562.126 -1.32341 1.12968 0
M  V30 5712 O 563.302 -1.39507 1.45258 0
M  V30 5713 C 560.367 -2.1508 2.71922 0
M  V30 5714 C 559.428 -1.78653 3.90361 0
M  V30 5715 C 558.661 -2.97465 4.43114 0
M  V30 5716 O 558.884 -4.11638 3.94854 0
M  V30 5717 O 557.818 -2.76987 5.3438 0
M  V30 5718 H 561.644 -0.430427 3.00634 0
M  V30 5719 H 559.229 -0.146485 1.4868 0
M  V30 5720 H 561.111 -2.8823 3.07411 0
M  V30 5721 H 559.786 -2.61446 1.9086 0
M  V30 5722 H 558.693 -1.0274 3.59716 0
M  V30 5723 H 560.026 -1.37066 4.7273 0
M  V30 5724 N 561.678 -1.56367 -0.196722 0
M  V30 5725 C 562.924 -1.80796 -0.918725 0
M  V30 5726 C 563.257 -0.650645 -1.82976 0
M  V30 5727 O 562.532 0.348889 -1.91345 0
M  V30 5728 C 562.815 -3.15472 -1.73636 0
M  V30 5729 C 562.668 -4.41693 -0.85015 0
M  V30 5730 C 563.987 -3.46824 -2.70927 0
M  V30 5731 H 561.106 -0.657702 -0.332561 0
M  V30 5732 H 563.748 -1.89086 -0.186186 0
M  V30 5733 H 561.898 -3.08536 -2.36088 0
M  V30 5734 H 563.57 -4.60673 -0.240459 0
M  V30 5735 H 561.813 -4.33517 -0.156785 0
M  V30 5736 H 562.484 -5.32419 -1.45719 0
M  V30 5737 H 564.96 -3.54049 -2.18607 0
M  V30 5738 H 563.836 -4.4218 -3.25219 0
M  V30 5739 H 564.097 -2.70236 -3.49893 0
M  V30 5740 N 563.156 0.464375 -1.50603 0
M  V30 5741 C 564.433 1.22549 -1.5245 0
M  V30 5742 C 564.813 2.09327 -0.273035 0
M  V30 5743 O 564.161 2.16074 0.743242 0
M  V30 5744 C 564.371 2.05074 -2.82393 0
M  V30 5745 C 565.719 2.63036 -3.33313 0
M  V30 5746 O 566.743 2.1531 -2.8376 0
M  V30 5747 O 565.602 3.5001 -4.19709 0
M  V30 5748 H 562.696 0.556471 -0.611775 0
M  V30 5749 H 565.242 0.475648 -1.62898 0
M  V30 5750 H 564.014 1.41169 -3.64948 0
M  V30 5751 H 563.637 2.87179 -2.7498 0
M  V30 5752 N 564.634 1.40294 0.718013 0
M  V30 5753 C 565.859 1.41941 1.5122 0
M  V30 5754 C 566.284 0.0202371 1.88089 0
M  V30 5755 O 565.642 -0.971078 1.53101 0
M  V30 5756 C 565.69 2.3141 2.76554 0
M  V30 5757 O 564.794 1.75567 3.73162 0
M  V30 5758 H 564.135 0.482644 0.456016 0
M  V30 5759 H 566.665 1.84494 0.884478 0
M  V30 5760 H 566.675 2.46513 3.25108 0
M  V30 5761 H 565.35 3.33085 2.49053 0
M  V30 5762 H 563.927 1.69798 3.31999 0
M  V30 5763 N 566.112 -0.949982 1.2575 0
M  V30 5764 C 567.358 -1.69766 1.10938 0
M  V30 5765 C 567.691 -1.91056 -0.348028 0
M  V30 5766 O 566.966 -1.48488 -1.25625 0
M  V30 5767 C 567.249 -3.07779 1.86933 0
M  V30 5768 C 567.102 -2.9387 3.4053 0
M  V30 5769 C 568.421 -4.07749 1.65616 0
M  V30 5770 H 565.54 -0.616144 0.404396 0
M  V30 5771 H 568.182 -1.10394 1.54639 0
M  V30 5772 H 566.332 -3.58462 1.4979 0
M  V30 5773 H 568.004 -2.50476 3.87375 0
M  V30 5774 H 566.247 -2.29686 3.68004 0
M  V30 5775 H 566.918 -3.91719 3.88922 0
M  V30 5776 H 569.394 -3.65994 1.97959 0
M  V30 5777 H 568.27 -5.02348 2.21218 0
M  V30 5778 H 568.531 -4.38029 0.598595 0
M  V30 5779 N 567.59 -1.07411 -1.15328 0
M  V30 5780 C 568.836 -0.798831 -1.86404 0
M  V30 5781 C 569.169 0.673433 -1.8215 0
M  V30 5782 O 568.444 1.49428 -1.24505 0
M  V30 5783 C 568.727 -1.30846 -3.35487 0
M  V30 5784 C 568.58 -2.84532 -3.4837 0
M  V30 5785 C 569.899 -0.925486 -4.30259 0
M  V30 5786 H 567.018 -0.291659 -0.676834 0
M  V30 5787 H 569.66 -1.332 -1.35491 0
M  V30 5788 H 567.81 -0.854916 -3.78977 0
M  V30 5789 H 569.482 -3.3818 -3.13739 0
M  V30 5790 H 567.725 -3.22699 -2.8991 0
M  V30 5791 H 568.396 -3.15259 -4.53118 0
M  V30 5792 H 570.872 -1.3163 -3.94731 0
M  V30 5793 H 569.748 -1.3094 -5.33053 0
M  V30 5794 H 570.009 0.168525 -4.41779 0
M  V30 5795 N 569.068 1.32177 -0.85831 0
M  V30 5796 C 570.479 1.79381 -0.517621 0
M  V30 5797 C 570.83 1.70841 0.964769 0
M  V30 5798 O 569.955 1.26917 1.75274 0
M  V30 5799 C 570.55 3.25706 -0.932801 0
M  V30 5800 C 569.109 3.70851 -0.643953 0
M  V30 5801 C 568.256 2.53208 -1.13054 0
M  V30 5802 H 571.207 1.19424 -1.04516 0
M  V30 5803 H 571.228 3.79673 -0.250674 0
M  V30 5804 H 570.74 3.31889 -2.01174 0
M  V30 5805 H 568.841 3.70178 0.424112 0
M  V30 5806 H 568.954 4.63495 -1.21281 0
M  V30 5807 H 567.318 2.48676 -0.550679 0
M  V30 5808 H 568.101 2.62143 -2.21666 0
M  V30 5809 N 570.547 0.616602 1.45037 0
M  V30 5810 C 571.793 0.115501 2.02471 0
M  V30 5811 C 572.126 -1.25406 1.4828 0
M  V30 5812 O 571.401 -1.82922 0.661051 0
M  V30 5813 C 571.684 0.0863588 3.59996 0
M  V30 5814 C 571.537 1.48723 4.24501 0
M  V30 5815 C 572.856 -0.596762 4.36035 0
M  V30 5816 H 569.975 0.0434461 0.735718 0
M  V30 5817 H 572.617 0.7903 1.72784 0
M  V30 5818 H 570.767 -0.488277 3.85419 0
M  V30 5819 H 572.439 2.10964 4.10234 0
M  V30 5820 H 570.682 2.04534 3.82555 0
M  V30 5821 H 571.353 1.419 5.3345 0
M  V30 5822 H 573.829 -0.10824 4.15959 0
M  V30 5823 H 572.705 -0.586289 5.4576 0
M  V30 5824 H 572.966 -1.66451 4.09569 0
M  V30 5825 N 572.025 -1.5352 0.356285 0
M  V30 5826 C 572.957 -2.23009 -0.529127 0
M  V30 5827 C 573.97 -1.241 -1.05371 0
M  V30 5828 O 575.159 -1.50379 -0.961679 0
M  V30 5829 C 572.259 -2.90685 -1.74229 0
M  V30 5830 C 571.432 -4.16019 -1.35081 0
M  V30 5831 C 570.491 -4.66989 -2.42502 0
M  V30 5832 O 569.517 -5.30895 -2.05279 0
M  V30 5833 N 570.719 -4.44006 -3.7395 0
M  V30 5834 H 573.484 -2.99627 0.0660501 0
M  V30 5835 H 571.045 -1.60885 0.181014 0
M  V30 5836 H 573.037 -3.21695 -2.4555 0
M  V30 5837 H 571.607 -2.17575 -2.24454 0
M  V30 5838 H 570.827 -3.91414 -0.467833 0
M  V30 5839 H 572.115 -4.9752 -1.06542 0
M  V30 5840 H 571.513 -3.92924 -4.06973 0
M  V30 5841 H 570.07 -4.7959 -4.41403 0
M  V30 5842 N 573.503 -0.0852151 -1.57369 0
M  V30 5843 C 574.451 0.894856 -2.14698 0
M  V30 5844 C 575.445 1.29903 -1.08727 0
M  V30 5845 O 576.651 1.27471 -1.27088 0
M  V30 5846 H 573.026 0.306569 -0.686673 0
M  V30 5847 H 574.997 0.386542 -2.95886 0
M  V30 5848 C 573.746 2.14798 -2.73417 0
M  V30 5849 H 573.069 1.84585 -3.54638 0
M  V30 5850 H 574.509 2.81456 -3.1711 0
M  V30 5851 C 572.968 2.91546 -1.68828 0
M  V30 5852 O 573.498 3.85733 -1.12129 0
M  V30 5853 N 571.704 2.54901 -1.39549 0
M  V30 5854 H 571.251 1.7838 -1.85845 0
M  V30 5855 H 571.209 3.06553 -0.698054 0
M  V30 5856 N 574.981 1.5647 0.188427 0
M  V30 5857 C 576.227 1.81281 0.909124 0
M  V30 5858 C 576.56 0.66034 1.82628 0
M  V30 5859 O 575.835 -0.338737 1.91528 0
M  V30 5860 C 576.118 3.16388 1.7196 0
M  V30 5861 C 575.971 4.42137 0.826714 0
M  V30 5862 C 577.29 3.48256 2.69083 0
M  V30 5863 H 574.409 0.659457 0.329068 0
M  V30 5864 H 577.051 1.89182 0.176156 0
M  V30 5865 H 575.201 3.09784 2.34448 0
M  V30 5866 H 576.873 4.60794 0.216025 0
M  V30 5867 H 575.116 4.33594 0.133792 0
M  V30 5868 H 575.787 5.33184 1.42893 0
M  V30 5869 H 578.263 3.55203 2.16726 0
M  V30 5870 H 577.139 4.43899 3.2287 0
M  V30 5871 H 577.4 2.72088 3.48455 0
M  V30 5872 N 576.459 -0.456382 1.50847 0
M  V30 5873 C 577.707 -1.20497 1.62249 0
M  V30 5874 C 578.028 -1.92156 0.331839 0
M  V30 5875 O 577.298 -1.84751 -0.651443 0
M  V30 5876 H 575.878 -0.447775 0.597918 0
M  V30 5877 H 578.54 -0.525099 1.87693 0
M  V30 5878 H 577.636 -1.94492 2.44089 0
M  V30 5879 N 577.937 -1.40673 -0.710563 0
M  V30 5880 C 578.847 -1.43663 -1.85467 0
M  V30 5881 C 579.863 -0.328721 -1.70867 0
M  V30 5882 O 581.039 -0.574098 -1.93044 0
M  V30 5883 C 578.104 -1.30226 -3.21313 0
M  V30 5884 C 577.165 -2.51204 -3.48131 0
M  V30 5885 C 576.398 -2.38398 -4.77495 0
M  V30 5886 O 576.621 -1.40048 -5.5294 0
M  V30 5887 O 575.555 -3.2787 -5.04762 0
M  V30 5888 H 579.381 -2.40156 -1.859 0
M  V30 5889 H 576.966 -1.22049 -0.861652 0
M  V30 5890 H 578.848 -1.2496 -4.02446 0
M  V30 5891 H 577.523 -0.368419 -3.21597 0
M  V30 5892 H 576.43 -2.62048 -2.66987 0
M  V30 5893 H 577.763 -3.43366 -3.52648 0
M  V30 5894 N 579.415 0.9433 -1.26252 0
M  V30 5895 C 580.362 2.0417 -1.07625 0
M  V30 5896 C 581.332 1.6609 0.0180738 0
M  V30 5897 O 582.517 1.90276 -0.141289 0
M  V30 5898 C 579.657 3.37653 -0.713043 0
M  V30 5899 C 578.77 3.88783 -1.8834 0
M  V30 5900 C 577.905 5.10642 -1.4635 0
M  V30 5901 C 576.944 5.54028 -2.60229 0
M  V30 5902 N 576.081 6.67092 -2.18936 0
M  V30 5903 H 580.921 2.19436 -2.01623 0
M  V30 5904 H 578.458 1.07519 -1.00389 0
M  V30 5905 H 580.416 4.14391 -0.483358 0
M  V30 5906 H 579.046 3.22241 0.18996 0
M  V30 5907 H 578.098 3.08464 -2.22608 0
M  V30 5908 H 579.41 4.16922 -2.73821 0
M  V30 5909 H 578.564 5.94832 -1.19414 0
M  V30 5910 H 577.303 4.84244 -0.579568 0
M  V30 5911 H 576.308 4.68396 -2.87898 0
M  V30 5912 H 577.533 5.82429 -3.49219 0
M  V30 5913 H 575.479 6.42381 -1.32974 0
M  V30 5914 H 575.396 6.94806 -2.97961 0
M  V30 5915 H 576.664 7.54662 -1.95206 0
M  V30 5916 N 580.893 1.08022 1.14757 0
M  V30 5917 C 582.139 0.808705 1.85978 0
M  V30 5918 C 582.472 -0.663764 1.82504 0
M  V30 5919 O 581.747 -1.48765 1.25296 0
M  V30 5920 C 582.03 1.32623 3.34788 0
M  V30 5921 C 581.883 2.86375 3.46856 0
M  V30 5922 C 583.202 0.948291 4.29762 0
M  V30 5923 H 580.321 0.295244 0.675278 0
M  V30 5924 H 582.963 1.33917 1.34783 0
M  V30 5925 H 581.113 0.875002 3.78518 0
M  V30 5926 H 582.785 3.39839 3.11941 0
M  V30 5927 H 581.028 3.24232 2.88194 0
M  V30 5928 H 581.699 3.17658 4.51439 0
M  V30 5929 H 584.175 1.33722 3.94028 0
M  V30 5930 H 583.051 1.33765 5.32352 0
M  V30 5931 H 583.312 -0.145094 4.41862 0
M  V30 5932 N 582.371 -1.3172 0.865308 0
M  V30 5933 C 583.319 -2.30569 0.306674 0
M  V30 5934 C 584.313 -1.59317 -0.575724 0
M  V30 5935 O 585.519 -1.73961 -0.462343 0
M  V30 5936 H 581.894 -0.747681 0.0804834 0
M  V30 5937 H 583.865 -2.75165 1.15441 0
M  V30 5938 C 582.614 -3.44358 -0.480952 0
M  V30 5939 H 581.937 -3.99354 0.18876 0
M  V30 5940 H 583.377 -4.15652 -0.837241 0
M  V30 5941 C 581.836 -2.92574 -1.67039 0
M  V30 5942 O 582.366 -2.90954 -2.76964 0
M  V30 5943 N 580.572 -2.48835 -1.50097 0
M  V30 5944 H 580.119 -2.50353 -0.606738 0
M  V30 5945 H 580.077 -2.14543 -2.29823 0
M  V30 5946 N 583.85 -0.624285 -1.44708 0
M  V30 5947 C 585.075 -0.131171 -2.06985 0
M  V30 5948 C 585.5 1.18234 -1.46295 0
M  V30 5949 O 584.858 1.72375 -0.561842 0
M  V30 5950 C 584.906 -0.0226724 -3.60593 0
M  V30 5951 O 584.01 1.02314 -3.99507 0
M  V30 5952 H 583.351 -0.0816556 -0.65896 0
M  V30 5953 H 585.88 -0.859027 -1.85693 0
M  V30 5954 H 585.891 0.170138 -4.07645 0
M  V30 5955 H 584.566 -0.981685 -4.04148 0
M  V30 5956 H 583.143 0.805452 -3.64097 0
M  V30 5957 N 585.328 1.53329 -0.364422 0
M  V30 5958 C 586.261 2.22052 0.526145 0
M  V30 5959 C 587.239 1.21203 1.08391 0
M  V30 5960 O 588.423 1.50101 1.14026 0
M  V30 5961 C 585.55 2.91432 1.72583 0
M  V30 5962 C 584.596 4.06345 1.29562 0
M  V30 5963 S 585.429 5.34671 0.297885 0
M  V30 5964 C 586.585 6.07563 1.50392 0
M  V30 5965 H 586.818 2.97244 -0.0575055 0
M  V30 5966 H 584.351 1.53684 -0.148525 0
M  V30 5967 H 586.309 3.3202 2.41398 0
M  V30 5968 H 584.97 2.15966 2.28073 0
M  V30 5969 H 584.163 4.53901 2.19067 0
M  V30 5970 H 583.765 3.67642 0.686696 0
M  V30 5971 H 586.057 6.32224 2.43513 0
M  V30 5972 H 587 6.99973 1.06977 0
M  V30 5973 H 587.408 5.37994 1.70945 0
M  V30 5974 N 586.806 0.0935595 1.57322 0
M  V30 5975 C 587.716 -0.880192 2.17462 0
M  V30 5976 C 588.732 -1.31135 1.14366 0
M  V30 5977 O 589.908 -1.37958 1.46729 0
M  V30 5978 C 586.973 -2.12184 2.74188 0
M  V30 5979 C 586.034 -1.74503 3.92234 0
M  V30 5980 C 585.267 -2.92748 4.46245 0
M  V30 5981 O 585.49 -4.07427 3.99198 0
M  V30 5982 O 584.424 -2.71303 5.37288 0
M  V30 5983 H 588.25 -0.398516 3.01074 0
M  V30 5984 H 585.835 -0.130707 1.48827 0
M  V30 5985 H 587.717 -2.84953 3.10451 0
M  V30 5986 H 586.392 -2.59407 1.93623 0
M  V30 5987 H 585.299 -0.989186 3.60785 0
M  V30 5988 H 586.632 -1.32044 4.74157 0
M  V30 5989 N 588.284 -1.56567 -0.180126 0
M  V30 5990 C 589.247 -1.94852 -1.20686 0
M  V30 5991 C 590.247 -0.831212 -1.3765 0
M  V30 5992 O 591.437 -1.09841 -1.35206 0
M  V30 5993 C 588.569 -2.23565 -2.57355 0
M  V30 5994 H 589.762 -2.86722 -0.879225 0
M  V30 5995 H 587.315 -1.50489 -0.422237 0
M  V30 5996 H 588.05 -1.34381 -2.95148 0
M  V30 5997 H 587.835 -3.04999 -2.46411 0
M  V30 5998 H 589.325 -2.54137 -3.31367 0
M  V30 5999 N 589.762 0.448376 -1.51087 0
M  V30 6000 C 590.992 1.21965 -1.66757 0
M  V30 6001 C 591.4 1.85748 -0.359753 0
M  V30 6002 O 590.743 1.71022 0.670604 0
M  V30 6003 C 590.805 2.35284 -2.71812 0
M  V30 6004 C 590.469 1.91957 -4.1473 0
M  V30 6005 C 591.466 1.42921 -4.9987 0
M  V30 6006 C 589.151 1.99985 -4.60772 0
M  V30 6007 C 591.145 1.02485 -6.29107 0
M  V30 6008 C 588.832 1.5916 -5.90009 0
M  V30 6009 C 589.83 1.10491 -6.74004 0
M  V30 6010 O 589.518 0.702413 -8.00825 0
M  V30 6011 H 589.25 0.374125 -0.563034 0
M  V30 6012 H 591.804 0.538927 -1.98204 0
M  V30 6013 H 590.034 3.06599 -2.35657 0
M  V30 6014 H 591.723 2.97184 -2.76472 0
M  V30 6015 H 592.489 1.36123 -4.65506 0
M  V30 6016 H 588.368 2.36814 -3.95525 0
M  V30 6017 H 591.912 0.644271 -6.94619 0
M  V30 6018 H 587.809 1.65626 -6.2389 0
M  V30 6019 H 588.577 0.829248 -8.14288 0
M  V30 6020 N 591.24 1.41047 0.703093 0
M  V30 6021 C 592.172 1.38228 1.82827 0
M  V30 6022 C 593.185 0.285637 1.60275 0
M  V30 6023 O 594.374 0.54685 1.69917 0
M  V30 6024 C 591.474 1.13136 3.19458 0
M  V30 6025 C 590.647 2.34695 3.69103 0
M  V30 6026 C 589.706 2.05574 4.84382 0
M  V30 6027 O 588.732 2.78549 4.96386 0
M  V30 6028 N 589.934 1.04135 5.71083 0
M  V30 6029 H 592.699 2.35203 1.85741 0
M  V30 6030 H 590.26 1.35562 0.885125 0
M  V30 6031 H 592.252 0.916183 3.94193 0
M  V30 6032 H 590.822 0.247836 3.11616 0
M  V30 6033 H 590.042 2.71963 2.85359 0
M  V30 6034 H 591.33 3.15705 3.99009 0
M  V30 6035 H 590.728 0.43722 5.64008 0
M  V30 6036 H 589.285 0.886078 6.45749 0
M  V30 6037 N 592.718 -0.936591 1.26751 0
M  V30 6038 C 593.967 -1.67778 1.11953 0
M  V30 6039 C 594.28 -1.92694 -0.33589 0
M  V30 6040 O 595.486 -2.64682 -0.604618 0
M  V30 6041 C 593.942 -3.02138 1.95551 0
M  V30 6042 C 593.55 -2.84953 3.45696 0
M  V30 6043 C 595.294 -3.79917 1.89377 0
M  V30 6044 C 593.201 -4.14814 4.21525 0
M  V30 6045 H 592.131 -0.629275 0.415366 0
M  V30 6046 H 594.782 -1.04122 1.51099 0
M  V30 6047 H 593.164 -3.668 1.49243 0
M  V30 6048 H 594.338 -2.29112 3.99805 0
M  V30 6049 H 592.653 -2.20612 3.53156 0
M  V30 6050 H 595.25 -4.76134 2.43312 0
M  V30 6051 H 595.593 -4.07204 0.865464 0
M  V30 6052 H 596.126 -3.22037 2.33532 0
M  V30 6053 H 592.865 -3.92709 5.24843 0
M  V30 6054 H 592.385 -4.70352 3.72195 0
M  V30 6055 H 594.064 -4.83239 4.3022 0
M  V30 6056 N 594.196 -1.08629 -1.14182 0
M  V30 6057 C 595.607 -0.838003 -1.66836 0
M  V30 6058 C 595.958 0.634885 -1.85644 0
M  V30 6059 O 595.083 1.49008 -1.56926 0
M  V30 6060 C 595.678 -1.51465 -3.03058 0
M  V30 6061 C 594.237 -1.31355 -3.52736 0
M  V30 6062 C 593.384 -1.57599 -2.28162 0
M  V30 6063 H 596.335 -1.24656 -0.982165 0
M  V30 6064 H 596.356 -0.943134 -3.68626 0
M  V30 6065 H 595.868 -2.58661 -2.89337 0
M  V30 6066 H 593.969 -0.262384 -3.71675 0
M  V30 6067 H 594.082 -2.04275 -4.33369 0
M  V30 6068 H 592.446 -0.997659 -2.34348 0
M  V30 6069 H 593.229 -2.66006 -2.17015 0
M  V30 6070 N 595.674 1.31259 -0.872281 0
M  V30 6071 C 596.92 1.96913 -0.485083 0
M  V30 6072 C 597.253 1.68774 0.960667 0
M  V30 6073 O 596.528 0.985495 1.67685 0
M  V30 6074 C 596.811 3.52299 -0.745502 0
M  V30 6075 C 596.664 3.90002 -2.24095 0
M  V30 6076 C 597.983 4.39582 -0.213516 0
M  V30 6077 H 595.102 0.715252 -0.177716 0
M  V30 6078 H 597.744 1.55347 -1.09395 0
M  V30 6079 H 595.894 3.87835 -0.227276 0
M  V30 6080 H 597.566 3.64555 -2.82661 0
M  V30 6081 H 595.809 3.38526 -2.71261 0
M  V30 6082 H 596.48 4.98352 -2.37381 0
M  V30 6083 H 598.956 4.10882 -0.656902 0
M  V30 6084 H 597.832 5.47251 -0.42516 0
M  V30 6085 H 598.093 4.33158 0.884666 0
M  V30 6086 N 597.152 0.631951 1.44375 0
M  V30 6087 C 598.568 0.297642 1.568 0
M  V30 6088 C 598.768 -1.19916 1.61934 0
M  V30 6089 O 597.824 -1.98324 1.56281 0
M  V30 6090 C 599.137 0.990286 2.83926 0
M  V30 6091 C 600.685 0.968507 2.97639 0
M  V30 6092 C 601.16 1.64163 4.27568 0
M  V30 6093 N 602.651 1.60826 4.34384 0
M  V30 6094 C 603.386 2.09802 5.33639 0
M  V30 6095 N 602.882 2.66973 6.39294 0
M  V30 6096 N 604.675 2.00426 5.25153 0
M  V30 6097 H 596.826 1.60353 1.39286 0
M  V30 6098 H 599.089 0.673142 0.667521 0
M  V30 6099 H 598.795 2.04519 2.8612 0
M  V30 6100 H 598.669 0.528563 3.73478 0
M  V30 6101 H 601.056 -0.0779247 2.94997 0
M  V30 6102 H 601.137 1.46873 2.09433 0
M  V30 6103 H 600.781 2.68752 4.3097 0
M  V30 6104 H 600.711 1.11624 5.14634 0
M  V30 6105 H 603.202 1.19087 3.58646 0
M  V30 6106 H 603.515 3.02074 7.11316 0
M  V30 6107 H 601.86 2.71024 6.39977 0
M  V30 6108 H 605.051 1.55483 4.41523 0
M  V30 6109 H 605.224 2.38906 6.02352 0
M  V30 6110 N 598.631 -1.53133 0.372548 0
M  V30 6111 C 599.856 -2.0625 -0.218098 0
M  V30 6112 C 600.281 -1.24375 -1.41111 0
M  V30 6113 O 599.639 -0.264554 -1.79359 0
M  V30 6114 C 599.687 -3.55858 -0.582876 0
M  V30 6115 O 598.791 -3.76667 -1.67917 0
M  V30 6116 H 598.132 -0.663317 -0.030104 0
M  V30 6117 H 600.662 -1.97477 0.535169 0
M  V30 6118 H 600.672 -3.99007 -0.851925 0
M  V30 6119 H 599.347 -4.14892 0.289428 0
M  V30 6120 H 597.924 -3.45413 -1.40513 0
M  V30 6121 N 600.109 -0.101901 -1.5727 0
M  V30 6122 C 601.057 0.872034 -2.15635 0
M  V30 6123 C 602.051 1.28742 -1.10099 0
M  V30 6124 O 603.257 1.26116 -1.28432 0
M  V30 6125 H 599.632 0.299269 -0.689886 0
M  V30 6126 H 601.603 0.355137 -2.96279 0
M  V30 6127 C 600.352 2.11886 -2.7568 0
M  V30 6128 H 599.675 1.80813 -3.56576 0
M  V30 6129 H 601.115 2.78077 -3.20077 0
M  V30 6130 C 599.574 2.89739 -1.7191 0
M  V30 6131 O 600.104 3.84522 -1.16213 0
M  V30 6132 N 598.31 2.53407 -1.42245 0
M  V30 6133 H 597.857 1.76398 -1.87727 0
M  V30 6134 H 597.815 3.05795 -0.730529 0
M  V30 6135 N 601.587 1.56661 0.17182 0
M  V30 6136 C 602.497 1.99604 1.2327 0
M  V30 6137 C 603.513 0.907333 1.4847 0
M  V30 6138 O 604.689 1.21492 1.60629 0
M  V30 6139 C 601.754 2.34685 2.55194 0
M  V30 6140 C 600.815 3.57381 2.3786 0
M  V30 6141 C 600.048 3.90779 3.63494 0
M  V30 6142 O 600.271 3.25152 4.6865 0
M  V30 6143 O 599.205 4.84129 3.57634 0
M  V30 6144 H 603.031 2.90114 0.898192 0
M  V30 6145 H 600.616 1.44522 0.378647 0
M  V30 6146 H 602.498 2.5822 3.33017 0
M  V30 6147 H 601.173 1.47336 2.88225 0
M  V30 6148 H 600.08 3.39064 1.5807 0
M  V30 6149 H 601.413 4.45268 2.09754 0
M  V30 6150 N 603.065 -0.440357 1.51323 0
M  V30 6151 C 604.313 -1.18769 1.63518 0
M  V30 6152 C 604.634 -1.91793 0.352201 0
M  V30 6153 O 603.904 -1.85432 -0.631811 0
M  V30 6154 H 602.484 -0.441408 0.602634 0
M  V30 6155 H 605.146 -0.505162 1.8824 0
M  V30 6156 H 604.242 -1.91892 2.46138 0
M  V30 6157 N 604.543 -1.41418 -0.695603 0
M  V30 6158 C 605.768 -1.44329 -1.48942 0
M  V30 6159 C 606.193 -0.0501579 -1.88033 0
M  V30 6160 O 605.551 0.946598 -1.54626 0
M  V30 6161 C 605.599 -2.3578 -2.72837 0
M  V30 6162 O 604.703 -1.81482 -3.70322 0
M  V30 6163 H 604.044 -0.489838 -0.44828 0
M  V30 6164 H 606.574 -1.85878 -0.855014 0
M  V30 6165 H 606.584 -2.51654 -3.21145 0
M  V30 6166 H 605.259 -3.37005 -2.43722 0
M  V30 6167 H 603.836 -1.75058 -3.29255 0
M  V30 6168 N 606.021 0.929856 -1.27246 0
M  V30 6169 C 607.269 1.674 -1.13233 0
M  V30 6170 C 607.59 1.92311 0.322744 0
M  V30 6171 O 606.86 1.52784 1.22612 0
M  V30 6172 H 605.44 0.620411 -0.416052 0
M  V30 6173 H 608.102 1.11663 -1.59741 0
M  V30 6174 H 607.198 2.64308 -1.65975 0
M  V30 6175 N 607.499 1.09233 1.13605 0
M  V30 6176 C 608.727 0.848908 1.88683 0
M  V30 6177 C 609.142 -0.599667 1.79024 0
M  V30 6178 O 608.499 -1.41265 1.15544 0
M  V30 6179 C 608.55 1.27273 3.38355 0
M  V30 6180 O 608.271 2.66449 3.47759 0
M  V30 6181 C 609.772 1.0614 4.30406 0
M  V30 6182 H 606.992 0.305549 0.597395 0
M  V30 6183 H 609.536 1.4538 1.43823 0
M  V30 6184 H 607.691 0.711776 3.80805 0
M  V30 6185 H 608.105 2.84264 4.40788 0
M  V30 6186 H 609.579 1.40725 5.33761 0
M  V30 6187 H 610.056 -0.000960332 4.392 0
M  V30 6188 H 610.662 1.60821 3.93722 0
M  V30 6189 N 608.977 -1.30795 0.87923 0
M  V30 6190 C 609.909 -2.27241 0.299025 0
M  V30 6191 C 610.922 -1.53472 -0.543166 0
M  V30 6192 O 612.111 -1.74756 -0.363651 0
M  V30 6193 C 609.211 -3.33655 -0.593931 0
M  V30 6194 C 608.384 -4.36857 0.2179 0
M  V30 6195 C 607.443 -5.22715 -0.604646 0
M  V30 6196 O 606.469 -5.69192 -0.0293838 0
M  V30 6197 N 607.671 -5.48008 -1.91488 0
M  V30 6198 H 610.436 -2.77667 1.12788 0
M  V30 6199 H 607.997 -1.43914 0.741637 0
M  V30 6200 H 609.989 -3.88013 -1.15012 0
M  V30 6201 H 608.559 -2.83202 -1.32346 0
M  V30 6202 H 607.779 -3.82444 0.955536 0
M  V30 6203 H 609.067 -5.02869 0.774614 0
M  V30 6204 H 608.465 -5.1202 -2.40525 0
M  V30 6205 H 607.022 -6.05264 -2.41864 0
M  V30 6206 N 610.455 -0.639598 -1.44038 0
M  V30 6207 C 611.701 -0.147698 -2.02261 0
M  V30 6208 C 612.034 1.23031 -1.50256 0
M  V30 6209 O 611.309 1.81847 -0.690068 0
M  V30 6210 C 611.592 -0.14362 -3.59813 0
M  V30 6211 C 611.445 -1.55458 -4.22082 0
M  V30 6212 C 612.764 0.527317 -4.36929 0
M  V30 6213 H 609.883 -0.0551453 -0.734934 0
M  V30 6214 H 612.525 -0.817688 -1.71505 0
M  V30 6215 H 610.675 0.426898 -3.86147 0
M  V30 6216 H 612.347 -2.17464 -4.06826 0
M  V30 6217 H 610.59 -2.10594 -3.79253 0
M  V30 6218 H 611.261 -1.50369 -5.31124 0
M  V30 6219 H 613.737 0.0420504 -4.16079 0
M  V30 6220 H 612.613 0.499389 -5.46624 0
M  V30 6221 H 612.874 1.59914 -4.12165 0
M  V30 6222 N 611.933 1.52934 -0.380664 0
M  V30 6223 C 613.18 2.01467 0.204278 0
M  V30 6224 C 613.508 1.26744 1.47533 0
M  V30 6225 O 612.763 0.353723 1.92477 0
M  V30 6226 C 613.062 3.5349 0.527199 0
M  V30 6227 C 612.728 4.46171 -0.651295 0
M  V30 6228 C 611.39 4.71227 -0.974619 0
M  V30 6229 C 613.742 5.00909 -1.44012 0
M  V30 6230 C 611.07 5.4827 -2.08847 0
M  V30 6231 C 613.422 5.7917 -2.5445 0
M  V30 6232 C 612.086 6.02507 -2.87301 0
M  V30 6233 H 611.356 0.73722 0.0747504 0
M  V30 6234 H 614.003 1.84411 -0.516234 0
M  V30 6235 H 612.308 3.68574 1.32892 0
M  V30 6236 H 614.005 3.88529 0.992283 0
M  V30 6237 H 610.595 4.26829 -0.389276 0
M  V30 6238 H 614.779 4.81485 -1.20357 0
M  V30 6239 H 610.035 5.64567 -2.34679 0
M  V30 6240 H 614.209 6.20588 -3.1598 0
M  V30 6241 H 611.836 6.61989 -3.7373 0
M  V30 6242 N 613.412 0.11024 1.57214 0
M  V30 6243 C 614.66 -0.548783 1.94506 0
M  V30 6244 C 614.981 -1.67772 0.99386 0
M  V30 6245 O 614.251 -1.9584 0.0485841 0
M  V30 6246 H 612.831 -0.205715 0.718116 0
M  V30 6247 H 615.493 0.177127 1.94093 0
M  V30 6248 H 614.589 -0.949096 2.97319 0
M  V30 6249 N 614.89 -1.56749 -0.16351 0
M  V30 6250 C 616.137 -1.82434 -0.878866 0
M  V30 6251 C 616.465 -0.688557 -1.81904 0
M  V30 6252 O 615.72 0.323644 -1.93005 0
M  V30 6253 C 616.019 -3.14342 -1.70071 0
M  V30 6254 C 615.685 -4.41647 -0.908775 0
M  V30 6255 C 614.347 -4.76224 -0.690236 0
M  V30 6256 C 616.699 -5.19998 -0.353815 0
M  V30 6257 C 614.027 -5.86624 0.0942374 0
M  V30 6258 C 616.379 -6.3122 0.41761 0
M  V30 6259 C 615.043 -6.64358 0.646879 0
M  V30 6260 H 614.313 -0.667574 -0.3216 0
M  V30 6261 H 616.96 -1.90963 -0.14337 0
M  V30 6262 H 615.265 -3.0119 -2.50583 0
M  V30 6263 H 616.962 -3.31426 -2.25738 0
M  V30 6264 H 613.552 -4.1453 -1.08916 0
M  V30 6265 H 617.736 -4.93673 -0.509975 0
M  V30 6266 H 612.992 -6.10751 0.281529 0
M  V30 6267 H 617.166 -6.91133 0.854849 0
M  V30 6268 H 614.793 -7.49742 1.25662 0
M  V30 6269 N 616.368 0.432326 -1.51554 0
M  V30 6270 C 617.779 1.01202 -1.56892 0
M  V30 6271 C 618.13 1.92175 -0.395394 0
M  V30 6272 O 617.255 2.10844 0.487198 0
M  V30 6273 C 617.85 1.84217 -2.8434 0
M  V30 6274 C 616.409 2.37228 -2.92233 0
M  V30 6275 C 615.556 1.16576 -2.51606 0
M  V30 6276 H 618.507 0.213407 -1.57259 0
M  V30 6277 H 618.528 2.69721 -2.68385 0
M  V30 6278 H 618.04 1.17979 -3.69733 0
M  V30 6279 H 616.141 3.06905 -2.11282 0
M  V30 6280 H 616.254 2.69682 -3.95991 0
M  V30 6281 H 614.618 1.51263 -2.04919 0
M  V30 6282 H 615.401 0.519404 -3.39348 0
M  V30 6283 N 617.846 1.41785 0.688094 0
M  V30 6284 C 618.776 1.47 1.8142 0
M  V30 6285 C 619.757 0.327881 1.6691 0
M  V30 6286 O 620.942 0.540362 1.86531 0
M  V30 6287 C 618.072 1.35876 3.19617 0
M  V30 6288 C 617.026 2.47976 3.48844 0
M  V30 6289 C 616.352 2.21915 4.86475 0
M  V30 6290 C 617.652 3.90309 3.47068 0
M  V30 6291 H 619.346 2.41247 1.77314 0
M  V30 6292 H 616.892 1.16116 0.851651 0
M  V30 6293 H 618.845 1.38134 3.98117 0
M  V30 6294 H 617.569 0.38116 3.24368 0
M  V30 6295 H 616.228 2.45013 2.72698 0
M  V30 6296 H 615.876 1.2248 4.8786 0
M  V30 6297 H 615.576 2.97037 5.06994 0
M  V30 6298 H 617.1 2.25901 5.67275 0
M  V30 6299 H 618.514 3.94947 4.1556 0
M  V30 6300 H 616.911 4.65175 3.7912 0
M  V30 6301 H 617.981 4.17927 2.45896 0
M  V30 6302 N 619.324 -0.923095 1.27737 0
M  V30 6303 C 620.256 -2.02871 1.06658 0
M  V30 6304 C 621.269 -1.62786 0.0212095 0
M  V30 6305 O 622.458 -1.76548 0.263267 0
M  V30 6306 C 619.558 -3.33603 0.59682 0
M  V30 6307 C 618.731 -4.02354 1.71551 0
M  V30 6308 C 617.79 -5.11364 1.24071 0
M  V30 6309 O 616.816 -5.35075 1.94123 0
M  V30 6310 N 618.018 -5.80416 0.0988444 0
M  V30 6311 H 620.783 -2.21515 2.01869 0
M  V30 6312 H 618.344 -1.09378 1.19365 0
M  V30 6313 H 620.336 -4.03845 0.262984 0
M  V30 6314 H 618.906 -3.11499 -0.262187 0
M  V30 6315 H 618.126 -3.25786 2.2194 0
M  V30 6316 H 619.414 -4.45035 2.46619 0
M  V30 6317 H 618.812 -5.63611 -0.485743 0
M  V30 6318 H 617.369 -6.51563 -0.17578 0
M  V30 6319 N 620.802 -1.09834 -1.13024 0
M  V30 6320 C 622.213 -0.855651 -1.65938 0
M  V30 6321 C 622.564 0.615159 -1.86307 0
M  V30 6322 O 621.689 1.47335 -1.58497 0
M  V30 6323 C 622.284 -1.5467 -3.01434 0
M  V30 6324 C 620.843 -1.35088 -3.51323 0
M  V30 6325 C 619.99 -1.6001 -2.26478 0
M  V30 6326 H 622.941 -1.25691 -0.968889 0
M  V30 6327 H 622.962 -0.982179 -3.67605 0
M  V30 6328 H 622.474 -2.61715 -2.86578 0
M  V30 6329 H 620.575 -0.30179 -3.71376 0
M  V30 6330 H 620.688 -2.0886 -4.31178 0
M  V30 6331 H 619.052 -1.02246 -2.33276 0
M  V30 6332 H 619.835 -2.68293 -2.14182 0
M  V30 6333 N 622.28 1.30327 -0.886154 0
M  V30 6334 C 623.528 1.9571 -0.504195 0
M  V30 6335 C 623.849 1.70294 0.950003 0
M  V30 6336 O 623.119 1.02718 1.66811 0
M  V30 6337 H 621.699 0.72412 -0.183465 0
M  V30 6338 H 624.361 1.58835 -1.12949 0
M  V30 6339 H 623.457 3.04704 -0.675431 0
M  V30 6340 N 623.758 0.647228 1.43697 0
M  V30 6341 C 624.988 0.16551 2.05936 0
M  V30 6342 C 625.396 -1.17164 1.48557 0
M  V30 6343 O 624.739 -1.73307 0.60914 0
M  V30 6344 C 624.801 -0.00648082 3.59499 0
M  V30 6345 C 624.465 1.25503 4.39429 0
M  V30 6346 C 625.462 2.18241 4.71876 0
M  V30 6347 C 623.147 1.49494 4.79538 0
M  V30 6348 C 625.141 3.33268 5.43333 0
M  V30 6349 C 622.828 2.64815 5.50742 0
M  V30 6350 C 623.826 3.56528 5.82561 0
M  V30 6351 O 623.514 4.69836 6.52311 0
M  V30 6352 H 623.246 0.0844124 0.670709 0
M  V30 6353 H 625.8 0.88638 1.8529 0
M  V30 6354 H 624.03 -0.782661 3.78697 0
M  V30 6355 H 625.719 -0.444794 4.03456 0
M  V30 6356 H 626.485 2.00946 4.41413 0
M  V30 6357 H 622.364 0.789912 4.54182 0
M  V30 6358 H 625.908 4.04874 5.68087 0
M  V30 6359 H 621.805 2.82047 5.8062 0
M  V30 6360 H 622.573 4.69024 6.70789 0
M  V30 6361 N 625.236 -1.5273 0.388769 0
M  V30 6362 C 626.461 -2.0647 -0.19621 0
M  V30 6363 C 626.886 -1.25865 -1.39784 0
M  V30 6364 O 626.244 -0.283562 -1.79069 0
M  V30 6365 C 626.292 -3.56456 -0.5451 0
M  V30 6366 O 625.396 -3.78426 -1.63912 0
M  V30 6367 H 624.737 -0.663599 -0.023067 0
M  V30 6368 H 627.267 -1.96898 0.556084 0
M  V30 6369 H 627.277 -3.99888 -0.809557 0
M  V30 6370 H 625.952 -4.14561 0.333417 0
M  V30 6371 H 624.529 -3.46884 -1.36842 0
M  V30 6372 N 626.714 -0.118576 -1.57153 0
M  V30 6373 C 627.939 0.550582 -1.99958 0
M  V30 6374 C 628.364 1.59458 -0.997736 0
M  V30 6375 O 627.722 1.81274 0.0306269 0
M  V30 6376 C 627.77 1.15379 -3.41643 0
M  V30 6377 O 626.874 2.26932 -3.44348 0
M  V30 6378 H 626.215 0.137567 -0.649593 0
M  V30 6379 H 628.745 -0.206926 -2.03551 0
M  V30 6380 H 628.755 1.48942 -3.79843 0
M  V30 6381 H 627.43 0.389087 -4.14076 0
M  V30 6382 H 626.007 1.94812 -3.17967 0
M  V30 6383 N 628.193 1.56834 0.155195 0
M  V30 6384 C 629.439 1.83169 0.870467 0
M  V30 6385 C 629.772 0.698929 1.81187 0
M  V30 6386 O 629.047 -0.298035 1.92203 0
M  V30 6387 C 629.33 3.19965 1.65211 0
M  V30 6388 C 629.183 4.43792 0.732744 0
M  V30 6389 C 630.502 3.53885 2.61636 0
M  V30 6390 H 627.621 0.666288 0.315006 0
M  V30 6391 H 630.263 1.89513 0.135988 0
M  V30 6392 H 628.413 3.14687 2.27825 0
M  V30 6393 H 630.085 4.61148 0.118236 0
M  V30 6394 H 628.328 4.3378 0.0417906 0
M  V30 6395 H 628.999 5.36095 1.31552 0
M  V30 6396 H 631.475 3.5972 2.09143 0
M  V30 6397 H 630.351 4.50648 3.13381 0
M  V30 6398 H 630.612 2.79418 3.42605 0
M  V30 6399 N 629.671 -0.424282 1.51781 0
M  V30 6400 C 630.918 -1.1726 1.65095 0
M  V30 6401 C 631.246 -1.90881 0.373477 0
M  V30 6402 O 630.501 -1.84835 -0.642997 0
M  V30 6403 C 630.8 -2.20418 2.81337 0
M  V30 6404 C 630.466 -1.63715 4.20129 0
M  V30 6405 C 629.128 -1.47975 4.57883 0
M  V30 6406 C 631.48 -1.22157 5.06682 0
M  V30 6407 C 628.808 -0.891703 5.79884 0
M  V30 6408 C 631.16 -0.647767 6.29275 0
M  V30 6409 C 629.824 -0.477371 6.65791 0
M  V30 6410 H 629.094 -0.429085 0.604125 0
M  V30 6411 H 631.741 -0.461852 1.85847 0
M  V30 6412 H 630.046 -2.97581 2.54859 0
M  V30 6413 H 631.743 -2.78163 2.88836 0
M  V30 6414 H 628.333 -1.76946 3.90369 0
M  V30 6415 H 632.517 -1.33133 4.7811 0
M  V30 6416 H 627.773 -0.747563 6.06813 0
M  V30 6417 H 631.947 -0.317291 6.95677 0
M  V30 6418 H 629.574 -0.0195936 7.60197 0
M  V30 6419 N 631.149 -1.42148 -0.680565 0
M  V30 6420 C 632.374 -1.45901 -1.47403 0
M  V30 6421 C 632.799 -0.0700985 -1.87969 0
M  V30 6422 O 632.157 0.930145 -1.55621 0
M  V30 6423 C 632.205 -2.38661 -2.70321 0
M  V30 6424 O 631.309 -1.85399 -3.68376 0
M  V30 6425 H 630.65 -0.494565 -0.443059 0
M  V30 6426 H 633.18 -1.86774 -0.835251 0
M  V30 6427 H 633.19 -2.55046 -3.18458 0
M  V30 6428 H 631.865 -3.39571 -2.40134 0
M  V30 6429 H 630.442 -1.78541 -3.2738 0
M  V30 6430 N 632.627 0.916307 -1.28225 0
M  V30 6431 C 634.043 1.19425 -1.05876 0
M  V30 6432 C 634.243 2.005 0.2005 0
M  V30 6433 O 633.299 2.35806 0.902873 0
M  V30 6434 C 634.612 1.93133 -2.30478 0
M  V30 6435 C 636.16 2.06026 -2.35632 0
M  V30 6436 C 636.635 2.83141 -3.59994 0
M  V30 6437 N 638.126 2.90704 -3.60618 0
M  V30 6438 C 638.861 3.50865 -4.53521 0
M  V30 6439 N 638.357 4.12327 -5.56739 0
M  V30 6440 N 640.15 3.48379 -4.41122 0
M  V30 6441 H 632.301 0.37496 -2.09064 0
M  V30 6442 H 634.564 0.228531 -0.920042 0
M  V30 6443 H 634.27 1.40985 -3.22205 0
M  V30 6444 H 634.144 2.93696 -2.36691 0
M  V30 6445 H 636.531 2.57355 -1.44404 0
M  V30 6446 H 636.612 1.04647 -2.33415 0
M  V30 6447 H 636.256 2.32492 -4.51564 0
M  V30 6448 H 636.186 3.84829 -3.59464 0
M  V30 6449 H 638.677 2.47034 -2.85977 0
M  V30 6450 H 638.99 4.56205 -6.23776 0
M  V30 6451 H 637.335 4.10839 -5.60568 0
M  V30 6452 H 640.526 2.99572 -3.59686 0
M  V30 6453 H 640.699 3.94974 -5.13712 0
M  V30 6454 N 634.105 1.10431 1.1244 0
M  V30 6455 C 635.333 0.868872 1.87772 0
M  V30 6456 C 635.748 -0.580645 1.7965 0
M  V30 6457 O 635.105 -1.40031 1.17036 0
M  V30 6458 C 635.156 1.30855 3.36986 0
M  V30 6459 O 634.877 2.70123 3.44914 0
M  V30 6460 C 636.378 1.107 4.29256 0
M  V30 6461 H 633.598 0.311868 0.59412 0
M  V30 6462 H 636.142 1.46897 1.42273 0
M  V30 6463 H 634.297 0.752126 3.80029 0
M  V30 6464 H 634.711 2.88923 4.37748 0
M  V30 6465 H 636.185 1.46378 5.32238 0
M  V30 6466 H 636.662 0.0456228 4.39176 0
M  V30 6467 H 637.268 1.64988 3.91994 0
M  V30 6468 N 635.583 -1.29855 0.893053 0
M  V30 6469 C 636.513 -2.3035 0.382249 0
M  V30 6470 C 637.494 -1.61328 -0.539203 0
M  V30 6471 O 638.679 -1.88882 -0.451342 0
M  V30 6472 C 635.809 -3.45024 -0.396983 0
M  V30 6473 C 634.763 -4.258 0.433437 0
M  V30 6474 C 634.089 -5.32605 -0.472889 0
M  V30 6475 C 635.389 -4.94549 1.67984 0
M  V30 6476 H 637.083 -2.73325 1.22205 0
M  V30 6477 H 634.629 -1.314 0.589073 0
M  V30 6478 H 636.582 -4.14398 -0.765024 0
M  V30 6479 H 635.306 -3.00875 -1.2705 0
M  V30 6480 H 633.965 -3.58125 0.783723 0
M  V30 6481 H 633.613 -4.84702 -1.34435 0
M  V30 6482 H 633.313 -5.87547 0.0789958 0
M  V30 6483 H 634.837 -6.04832 -0.837269 0
M  V30 6484 H 636.251 -5.56395 1.38192 0
M  V30 6485 H 634.648 -5.59393 2.17254 0
M  V30 6486 H 635.718 -4.20215 2.41965 0
M  V30 6487 N 637.061 -0.65484 -1.43351 0
M  V30 6488 C 637.991 0.0221809 -2.33489 0
M  V30 6489 C 638.972 0.810272 -1.49561 0
M  V30 6490 O 640.157 0.771426 -1.78221 0
M  V30 6491 C 637.287 0.988117 -3.32947 0
M  V30 6492 C 636.241 0.310026 -4.26876 0
M  V30 6493 C 635.567 1.38752 -5.16384 0
M  V30 6494 C 636.867 -0.798589 -5.16159 0
M  V30 6495 H 638.561 -0.730571 -2.9035 0
M  V30 6496 H 636.107 -0.352773 -1.39612 0
M  V30 6497 H 638.06 1.47067 -3.94904 0
M  V30 6498 H 636.784 1.77205 -2.74346 0
M  V30 6499 H 635.443 -0.152097 -3.66284 0
M  V30 6500 H 635.091 2.16293 -4.54121 0
M  V30 6501 H 634.791 0.939051 -5.80048 0
M  V30 6502 H 636.315 1.87141 -5.81215 0
M  V30 6503 H 637.729 -0.398126 -5.71916 0
M  V30 6504 H 636.126 -1.17163 -5.88552 0
M  V30 6505 H 637.196 -1.65588 -4.55751 0
M  V30 6506 N 638.539 1.52521 -0.396863 0
M  V30 6507 C 639.787 2.01274 0.182536 0
M  V30 6508 C 640.108 1.28485 1.46685 0
M  V30 6509 O 639.378 0.407134 1.91623 0
M  V30 6510 H 637.958 0.743671 0.0704442 0
M  V30 6511 H 640.62 1.87547 -0.530289 0
M  V30 6512 H 639.716 3.09687 0.387385 0
M  V30 6513 N 640.017 0.126909 1.57088 0
M  V30 6514 C 640.927 -0.833867 2.1928 0
M  V30 6515 C 641.943 -1.2868 1.17122 0
M  V30 6516 O 643.119 -1.34815 1.49622 0
M  V30 6517 C 640.184 -2.0632 2.78627 0
M  V30 6518 C 639.245 -1.66143 3.95847 0
M  V30 6519 C 638.478 -2.83217 4.52354 0
M  V30 6520 O 638.701 -3.98868 4.0775 0
M  V30 6521 O 637.635 -2.59846 5.42922 0
M  V30 6522 H 641.461 -0.334564 3.01852 0
M  V30 6523 H 639.046 -0.0991091 1.49071 0
M  V30 6524 H 640.928 -2.78304 3.16425 0
M  V30 6525 H 639.603 -2.55242 1.99082 0
M  V30 6526 H 638.51 -0.912435 3.62802 0
M  V30 6527 H 639.843 -1.21957 4.76852 0
M  V30 6528 N 641.495 -1.56914 -0.146875 0
M  V30 6529 C 642.744 -1.82546 -0.857898 0
M  V30 6530 C 643.057 -0.708169 -1.8233 0
M  V30 6531 O 644.263 -0.850093 -2.57848 0
M  V30 6532 C 642.719 -3.23548 -1.57623 0
M  V30 6533 C 642.327 -4.43212 -0.653224 0
M  V30 6534 C 644.071 -3.58453 -2.27402 0
M  V30 6535 C 641.978 -5.75237 -1.37318 0
M  V30 6536 H 640.908 -0.680786 -0.32411 0
M  V30 6537 H 643.559 -1.83166 -0.110639 0
M  V30 6538 H 641.941 -3.17315 -2.36912 0
M  V30 6539 H 643.115 -4.60682 0.104452 0
M  V30 6540 H 641.43 -4.16351 -0.0638336 0
M  V30 6541 H 644.027 -4.54349 -2.81907 0
M  V30 6542 H 644.37 -2.84516 -3.03901 0
M  V30 6543 H 644.903 -3.66347 -1.55032 0
M  V30 6544 H 641.642 -6.52269 -0.650041 0
M  V30 6545 H 641.162 -5.61703 -2.10357 0
M  V30 6546 H 642.841 -6.18039 -1.91406 0
M  V30 6547 N 642.974 0.416227 -1.52004 0
M  V30 6548 C 643.904 1.51365 -1.77795 0
M  V30 6549 C 644.885 1.58059 -0.628601 0
M  V30 6550 O 646.07 1.73447 -0.873478 0
M  V30 6551 C 643.2 2.89256 -1.92219 0
M  V30 6552 C 642.154 2.97415 -3.0778 0
M  V30 6553 C 641.48 4.37492 -3.07417 0
M  V30 6554 C 642.78 2.69551 -4.47369 0
M  V30 6555 H 644.474 1.30033 -2.69688 0
M  V30 6556 H 642.02 0.624112 -1.29772 0
M  V30 6557 H 643.973 3.66008 -2.08845 0
M  V30 6558 H 642.697 3.11866 -0.969917 0
M  V30 6559 H 641.356 2.23107 -2.90893 0
M  V30 6560 H 641.004 4.571 -2.09925 0
M  V30 6561 H 640.704 4.43877 -3.85029 0
M  V30 6562 H 642.228 5.16188 -3.26162 0
M  V30 6563 H 643.642 3.36028 -4.64497 0
M  V30 6564 H 642.039 2.87321 -5.26846 0
M  V30 6565 H 643.109 1.65029 -4.55953 0
M  V30 6566 N 644.452 1.42507 0.673017 0
M  V30 6567 C 645.4 1.46362 1.80779 0
M  V30 6568 C 646.394 0.339166 1.6597 0
M  V30 6569 O 647.6 0.512262 1.72557 0
M  V30 6570 H 643.975 0.458433 0.596107 0
M  V30 6571 H 645.946 2.41953 1.74646 0
M  V30 6572 C 644.695 1.38462 3.18941 0
M  V30 6573 H 644.018 2.24283 3.30964 0
M  V30 6574 H 645.458 1.45221 3.98355 0
M  V30 6575 C 643.917 0.0996354 3.36753 0
M  V30 6576 O 644.447 -0.846894 3.92671 0
M  V30 6577 N 642.653 0.016211 2.90595 0
M  V30 6578 H 642.2 0.78725 2.45276 0
M  V30 6579 H 642.158 -0.84291 3.0289 0
M  V30 6580 N 645.93 -0.909495 1.28709 0
M  V30 6581 C 647.16 -1.69027 1.188 0
M  V30 6582 C 647.568 -1.87469 -0.255329 0
M  V30 6583 O 646.911 -1.40458 -1.18394 0
M  V30 6584 C 646.973 -3.10064 1.81936 0
M  V30 6585 C 646.637 -3.14891 3.31199 0
M  V30 6586 C 647.634 -2.95768 4.27571 0
M  V30 6587 C 645.319 -3.37269 3.7223 0
M  V30 6588 C 647.313 -2.98942 5.6295 0
M  V30 6589 C 645 -3.40074 5.07733 0
M  V30 6590 C 645.998 -3.20932 6.02903 0
M  V30 6591 O 645.686 -3.23507 7.35934 0
M  V30 6592 H 645.418 -0.535014 0.413203 0
M  V30 6593 H 647.972 -1.14645 1.70428 0
M  V30 6594 H 646.202 -3.66005 1.24808 0
M  V30 6595 H 647.891 -3.70185 1.66486 0
M  V30 6596 H 648.657 -2.78302 3.97206 0
M  V30 6597 H 644.536 -3.51212 2.98615 0
M  V30 6598 H 648.08 -2.83919 6.37209 0
M  V30 6599 H 643.977 -3.5707 5.37747 0
M  V30 6600 H 644.745 -3.3984 7.44615 0
M  V30 6601 N 647.408 -1.11026 -1.11852 0
M  V30 6602 C 648.638 -0.877544 -1.87037 0
M  V30 6603 C 649.046 0.575925 -1.80221 0
M  V30 6604 O 648.389 1.40916 -1.17849 0
M  V30 6605 C 648.451 -1.25529 -3.36872 0
M  V30 6606 C 648.115 -2.71704 -3.67459 0
M  V30 6607 C 649.112 -3.69931 -3.65304 0
M  V30 6608 C 646.797 -3.08243 -3.966 0
M  V30 6609 C 648.791 -5.02717 -3.9186 0
M  V30 6610 C 646.478 -4.41215 -4.22815 0
M  V30 6611 C 647.476 -5.38262 -4.20432 0
M  V30 6612 O 647.164 -6.68839 -4.45992 0
M  V30 6613 H 646.896 -0.314374 -0.598452 0
M  V30 6614 H 649.45 -1.48015 -1.42411 0
M  V30 6615 H 647.68 -0.595808 -3.82082 0
M  V30 6616 H 649.369 -0.999064 -3.93413 0
M  V30 6617 H 650.135 -3.43047 -3.42846 0
M  V30 6618 H 646.014 -2.33326 -3.97593 0
M  V30 6619 H 649.558 -5.78456 -3.89916 0
M  V30 6620 H 645.455 -4.67835 -4.44748 0
M  V30 6621 H 646.223 -6.74563 -4.63581 0
M  V30 6622 N 648.886 1.2938 -0.899927 0
M  V30 6623 C 650.114 1.99691 -0.541386 0
M  V30 6624 C 650.529 1.67355 0.873936 0
M  V30 6625 O 649.886 0.918728 1.57688 0
M  V30 6626 C 649.937 3.54168 -0.72438 0
M  V30 6627 O 649.658 3.85359 -2.08399 0
M  V30 6628 C 651.159 4.41746 -0.370819 0
M  V30 6629 H 648.379 0.638037 -0.207726 0
M  V30 6630 H 650.923 1.6491 -1.20934 0
M  V30 6631 H 649.078 3.87261 -0.103607 0
M  V30 6632 H 649.492 4.80032 -2.11352 0
M  V30 6633 H 650.966 5.49256 -0.549693 0
M  V30 6634 H 651.443 4.33712 0.692148 0
M  V30 6635 H 652.049 4.14125 -0.968543 0
M  V30 6636 N 650.364 0.662433 1.43002 0
M  V30 6637 C 651.314 -0.0460442 2.27954 0
M  V30 6638 C 652.298 -0.785753 1.40409 0
M  V30 6639 O 653.49 -0.666701 1.63964 0
M  V30 6640 C 650.619 -1.00532 3.2825 0
M  V30 6641 C 649.705 -0.263604 4.2328 0
M  V30 6642 N 650.096 0.724855 5.00579 0
M  V30 6643 C 648.394 -0.503778 4.43146 0
M  V30 6644 C 649.095 1.16594 5.69895 0
M  V30 6645 N 648.071 0.498345 5.41311 0
M  V30 6646 H 651.873 0.712314 2.85137 0
M  V30 6647 H 649.387 0.490469 1.54817 0
M  V30 6648 H 651.384 -1.52775 3.87899 0
M  V30 6649 H 650.044 -1.76364 2.72628 0
M  V30 6650 H 651.055 1.10393 5.05998 0
M  V30 6651 H 647.732 -1.24255 3.98581 0
M  V30 6652 H 649.122 1.98434 6.4193 0
M  V30 6653 N 651.842 -1.52309 0.404946 0
M  V30 6654 C 653.088 -2.02731 -0.164857 0
M  V30 6655 C 653.443 -1.28543 -1.43159 0
M  V30 6656 O 652.736 -0.381883 -1.87756 0
M  V30 6657 C 652.93 -3.54284 -0.470895 0
M  V30 6658 C 652.759 -4.43152 0.764625 0
M  V30 6659 C 651.529 -4.88594 1.28858 0
M  V30 6660 C 653.727 -4.874 1.64152 0
M  V30 6661 N 651.709 -5.61577 2.48001 0
M  V30 6662 C 653.08 -5.59121 2.67924 0
M  V30 6663 C 655.135 -4.69421 1.65978 0
M  V30 6664 C 653.838 -6.14772 3.73427 0
M  V30 6665 C 655.864 -5.25966 2.70396 0
M  V30 6666 C 655.226 -5.97606 3.7289 0
M  V30 6667 H 651.325 -0.78169 -0.0220025 0
M  V30 6668 H 653.909 -1.86522 0.558354 0
M  V30 6669 H 652.08 -3.70574 -1.16315 0
M  V30 6670 H 653.812 -3.91394 -1.02921 0
M  V30 6671 H 650.567 -4.6596 0.847232 0
M  V30 6672 H 650.991 -6.02712 3.08329 0
M  V30 6673 H 655.633 -4.13524 0.88079 0
M  V30 6674 H 653.351 -6.69743 4.52184 0
M  V30 6675 H 656.937 -5.13926 2.72711 0
M  V30 6676 H 655.817 -6.40577 4.52361 0
M  V30 6677 N 653.32 -0.135238 -1.57019 0
M  V30 6678 C 654.545 0.529343 -2.00531 0
M  V30 6679 C 654.97 1.58391 -1.01459 0
M  V30 6680 O 654.328 1.81296 0.0113986 0
M  V30 6681 C 654.376 1.11748 -3.42848 0
M  V30 6682 O 653.48 2.23267 -3.46736 0
M  V30 6683 H 652.821 0.130669 -0.651016 0
M  V30 6684 H 655.351 -0.228503 -2.0332 0
M  V30 6685 H 655.361 1.44905 -3.81401 0
M  V30 6686 H 654.036 0.345147 -4.14465 0
M  V30 6687 H 652.613 1.91428 -3.20015 0
M  V30 6688 N 654.798 1.5699 0.138552 0
M  V30 6689 C 656.046 1.83446 0.848053 0
M  V30 6690 C 656.367 0.71744 1.81322 0
M  V30 6691 O 655.637 -0.260228 1.94164 0
M  V30 6692 H 654.217 0.676792 0.316166 0
M  V30 6693 H 656.879 1.94462 0.130538 0
M  V30 6694 H 655.975 2.78677 1.40518 0
M  V30 6695 N 656.276 -0.40816 1.52223 0
M  V30 6696 C 657.501 -1.18127 1.70472 0
M  V30 6697 C 657.926 -1.83491 0.41384 0
M  V30 6698 O 657.284 -1.70047 -0.628778 0
M  V30 6699 C 657.332 -2.21935 2.84213 0
M  V30 6700 O 656.436 -3.28099 2.4985 0
M  V30 6701 H 655.777 -0.344781 0.56747 0
M  V30 6702 H 658.307 -0.478328 1.9893 0
M  V30 6703 H 658.317 -2.66248 3.09153 0
M  V30 6704 H 656.992 -1.73744 3.7787 0
M  V30 6705 H 655.569 -2.89058 2.35584 0
M  V30 6706 N 657.755 -1.42862 -0.66545 0
M  V30 6707 C 659.004 -1.43119 -1.42126 0
M  V30 6708 C 659.317 -0.0545297 -1.95524 0
M  V30 6709 O 660.523 0.0654747 -2.71421 0
M  V30 6710 C 658.979 -2.51797 -2.5715 0
M  V30 6711 C 658.587 -3.95514 -2.10411 0
M  V30 6712 C 660.331 -2.61233 -3.346 0
M  V30 6713 C 658.238 -4.95682 -3.22573 0
M  V30 6714 H 657.168 -0.532349 -0.533966 0
M  V30 6715 H 659.819 -1.68806 -0.719506 0
M  V30 6716 H 658.201 -2.19292 -3.29738 0
M  V30 6717 H 659.375 -4.3742 -1.44915 0
M  V30 6718 H 657.69 -3.90012 -1.45874 0
M  V30 6719 H 660.287 -3.33248 -4.18151 0
M  V30 6720 H 660.63 -1.65896 -3.81817 0
M  V30 6721 H 661.163 -2.9298 -2.69087 0
M  V30 6722 H 657.902 -5.92529 -2.80338 0
M  V30 6723 H 657.422 -4.58399 -3.86821 0
M  V30 6724 H 659.101 -5.17828 -3.87896 0
M  V30 6725 N 659.233 0.902656 -1.29189 0
M  V30 6726 C 660.18 2.00643 -1.14066 0
M  V30 6727 C 661.15 1.66064 -0.0347756 0
M  V30 6728 O 662.335 1.8973 -0.201752 0
M  V30 6729 C 659.475 3.35214 -0.820104 0
M  V30 6730 C 658.588 3.82594 -2.00614 0
M  V30 6731 C 657.723 5.05727 -1.62522 0
M  V30 6732 C 656.762 5.45469 -2.77724 0
M  V30 6733 N 655.899 6.59789 -2.40048 0
M  V30 6734 H 660.739 2.1291 -2.08502 0
M  V30 6735 H 658.276 1.04271 -1.03759 0
M  V30 6736 H 660.234 4.12643 -0.614949 0
M  V30 6737 H 658.864 3.22682 0.0873452 0
M  V30 6738 H 657.916 3.01226 -2.32308 0
M  V30 6739 H 659.228 4.07999 -2.86946 0
M  V30 6740 H 658.382 5.90732 -1.38277 0
M  V30 6741 H 657.121 4.82155 -0.733333 0
M  V30 6742 H 656.126 4.59 -3.02653 0
M  V30 6743 H 657.351 5.71024 -3.67572 0
M  V30 6744 H 655.297 6.37826 -1.53343 0
M  V30 6745 H 655.214 6.84975 -3.19914 0
M  V30 6746 H 656.482 7.4807 -2.19116 0
M  V30 6747 N 660.711 1.11618 1.11262 0
M  V30 6748 C 661.641 0.79846 2.19424 0
M  V30 6749 C 662.622 -0.234003 1.68483 0
M  V30 6750 O 663.807 -0.0970704 1.93957 0
M  V30 6751 C 660.937 0.242892 3.4645 0
M  V30 6752 C 659.891 1.20744 4.10615 0
M  V30 6753 C 659.217 0.512494 5.32238 0
M  V30 6754 C 660.517 2.55884 4.55325 0
M  V30 6755 H 662.211 1.70286 2.46258 0
M  V30 6756 H 659.757 0.820195 1.18359 0
M  V30 6757 H 661.71 0.00840447 4.21399 0
M  V30 6758 H 660.434 -0.696811 3.1908 0
M  V30 6759 H 659.093 1.42759 3.37662 0
M  V30 6760 H 658.741 -0.432075 5.01141 0
M  V30 6761 H 658.441 1.15583 5.7612 0
M  V30 6762 H 659.965 0.286842 6.09926 0
M  V30 6763 H 661.379 2.37946 5.21588 0
M  V30 6764 H 659.776 3.16216 5.10027 0
M  V30 6765 H 660.846 3.14968 3.68678 0
M  V30 6766 N 662.189 -1.289 0.906776 0
M  V30 6767 C 663.417 -1.99401 0.551969 0
M  V30 6768 C 663.832 -1.67816 -0.865048 0
M  V30 6769 O 663.189 -0.927078 -1.57199 0
M  V30 6770 C 663.24 -3.53779 0.743152 0
M  V30 6771 O 662.961 -3.84248 2.1044 0
M  V30 6772 C 664.462 -4.41543 0.39424 0
M  V30 6773 H 661.682 -0.636926 0.211106 0
M  V30 6774 H 664.226 -1.64266 1.21807 0
M  V30 6775 H 662.381 -3.87201 0.124143 0
M  V30 6776 H 662.795 -4.78904 2.13895 0
M  V30 6777 H 664.269 -5.48957 0.578814 0
M  V30 6778 H 664.746 -4.34073 -0.669137 0
M  V30 6779 H 665.352 -4.13605 0.990491 0
M  V30 6780 N 663.667 -0.670007 -1.42649 0
M  V30 6781 C 664.914 -0.190286 -2.01604 0
M  V30 6782 C 665.242 1.20155 -1.52948 0
M  V30 6783 O 664.497 1.81964 -0.72026 0
M  V30 6784 C 664.796 -0.168298 -3.57004 0
M  V30 6785 C 664.462 -1.50415 -4.25072 0
M  V30 6786 C 663.124 -1.86992 -4.43382 0
M  V30 6787 C 665.476 -2.38414 -4.63474 0
M  V30 6788 C 662.804 -3.11203 -4.97363 0
M  V30 6789 C 665.156 -3.61933 -5.18833 0
M  V30 6790 C 663.82 -3.98685 -5.35356 0
M  V30 6791 H 663.09 -0.0696305 -0.737721 0
M  V30 6792 H 665.737 -0.864044 -1.70899 0
M  V30 6793 H 664.042 0.588958 -3.87348 0
M  V30 6794 H 665.739 0.22001 -4.00396 0
M  V30 6795 H 662.329 -1.20959 -4.11177 0
M  V30 6796 H 666.513 -2.11442 -4.49006 0
M  V30 6797 H 661.769 -3.39705 -5.08341 0
M  V30 6798 H 665.943 -4.30326 -5.47533 0
M  V30 6799 H 663.57 -4.95009 -5.76949 0
M  V30 6800 N 665.145 1.52092 -0.413018 0
M  V30 6801 C 666.078 2.23613 0.455234 0
M  V30 6802 C 667.056 1.2459 1.04481 0
M  V30 6803 O 668.24 1.53653 1.09193 0
M  V30 6804 C 665.367 2.96775 1.63224 0
M  V30 6805 C 664.413 4.10261 1.16568 0
M  V30 6806 S 665.246 5.35348 0.127633 0
M  V30 6807 C 666.402 6.1204 1.30987 0
M  V30 6808 H 666.635 2.96911 -0.152042 0
M  V30 6809 H 664.168 1.53134 -0.197343 0
M  V30 6810 H 666.126 3.39532 2.30713 0
M  V30 6811 H 664.787 2.23113 2.21087 0
M  V30 6812 H 663.98 4.6064 2.04515 0
M  V30 6813 H 663.582 3.6964 0.569386 0
M  V30 6814 H 665.874 6.39651 2.23276 0
M  V30 6815 H 666.817 7.03022 0.846533 0
M  V30 6816 H 667.225 5.43161 1.53743 0
M  V30 6817 N 666.623 0.143563 1.56945 0
M  V30 6818 C 667.87 -0.508407 1.96014 0
M  V30 6819 C 668.198 -1.65099 1.02824 0
M  V30 6820 O 667.453 -1.95618 0.0567764 0
M  V30 6821 C 667.752 -1.05885 3.41355 0
M  V30 6822 C 667.418 -0.0350809 4.50886 0
M  V30 6823 C 666.08 0.246362 4.80569 0
M  V30 6824 C 668.432 0.661282 5.16988 0
M  V30 6825 C 665.76 1.23003 5.73661 0
M  V30 6826 C 668.112 1.63375 6.11139 0
M  V30 6827 C 666.776 1.92292 6.39203 0
M  V30 6828 H 666.046 -0.186039 0.717266 0
M  V30 6829 H 668.693 0.229667 1.90118 0
M  V30 6830 H 666.998 -1.87419 3.44066 0
M  V30 6831 H 668.695 -1.57183 3.6891 0
M  V30 6832 H 665.285 -0.264622 4.27782 0
M  V30 6833 H 669.469 0.457038 4.94191 0
M  V30 6834 H 664.725 1.46056 5.93698 0
M  V30 6835 H 668.899 2.17887 6.61436 0
M  V30 6836 H 666.526 2.68666 7.11142 0
M  V30 6837 N 668.101 -1.57061 -0.130224 0
M  V30 6838 C 669.341 -1.86071 -0.845993 0
M  V30 6839 C 669.705 -0.73009 -1.77577 0
M  V30 6840 O 670.906 -0.901663 -2.53226 0
M  V30 6841 C 669.177 -3.20293 -1.58579 0
M  V30 6842 S 670.736 -3.70905 -2.34467 0
M  V30 6843 H 667.554 -0.652434 -0.282579 0
M  V30 6844 H 670.156 -1.95218 -0.10498 0
M  V30 6845 H 668.86 -4.00533 -0.894509 0
M  V30 6846 H 668.391 -3.14195 -2.36739 0
M  V30 6847 H 670.406 -3.41509 -3.59981 0
M  V30 6848 N 669.579 0.400081 -1.52437 0
M  V30 6849 C 670.827 1.14392 -1.6661 0
M  V30 6850 C 671.148 1.90792 -0.402927 0
M  V30 6851 O 670.418 1.87042 0.582425 0
M  V30 6852 H 668.998 0.425275 -0.614125 0
M  V30 6853 H 671.66 0.455076 -1.89513 0
M  V30 6854 H 670.756 1.85298 -2.51139 0
M  V30 6855 N 671.057 1.43213 0.657864 0
M  V30 6856 C 672.282 1.48227 1.45064 0
M  V30 6857 C 672.707 0.0999939 1.87834 0
M  V30 6858 O 672.065 -0.905269 1.57081 0
M  V30 6859 C 672.113 2.42931 2.6649 0
M  V30 6860 O 671.217 1.91237 3.6538 0
M  V30 6861 H 670.558 0.501551 0.435135 0
M  V30 6862 H 673.088 1.8808 0.805431 0
M  V30 6863 H 673.098 2.6008 3.1436 0
M  V30 6864 H 671.773 3.43348 2.34701 0
M  V30 6865 H 670.35 1.83726 3.24498 0
M  V30 6866 N 672.536 -0.895792 1.29666 0
M  V30 6867 C 673.499 -1.98189 1.15124 0
M  V30 6868 C 674.499 -1.60572 0.0855717 0
M  V30 6869 O 675.689 -1.70991 0.332826 0
M  V30 6870 C 672.821 -3.32289 0.761372 0
M  V30 6871 H 674.014 -2.12518 2.11603 0
M  V30 6872 H 671.567 -1.0808 1.12908 0
M  V30 6873 H 672.302 -3.23662 -0.203393 0
M  V30 6874 H 672.087 -3.60958 1.53139 0
M  V30 6875 H 673.577 -4.1198 0.682792 0
M  V30 6876 N 674.014 -1.12206 -1.10668 0
M  V30 6877 C 674.947 -0.731468 -2.16159 0
M  V30 6878 C 675.925 0.276216 -1.60237 0
M  V30 6879 O 677.109 0.17074 -1.87725 0
M  V30 6880 C 674.236 -0.0822882 -3.386 0
M  V30 6881 C 673.282 -1.05641 -4.1321 0
M  V30 6882 S 674.115 -2.58281 -4.69096 0
M  V30 6883 C 675.271 -1.94686 -5.94851 0
M  V30 6884 H 675.504 -1.62504 -2.48957 0
M  V30 6885 H 673.037 -0.940906 -1.22419 0
M  V30 6886 H 674.995 0.285896 -4.09503 0
M  V30 6887 H 673.656 0.788358 -3.04046 0
M  V30 6888 H 672.849 -0.549764 -5.00993 0
M  V30 6889 H 672.451 -1.36741 -3.48106 0
M  V30 6890 H 674.743 -1.28815 -6.65141 0
M  V30 6891 H 675.686 -2.80499 -6.50174 0
M  V30 6892 H 676.094 -1.40369 -5.46769 0
M  V30 6893 N 675.492 1.28418 -0.913599 0
M  V30 6894 C 676.455 2.25564 -0.406624 0
M  V30 6895 C 677.455 1.5387 0.466965 0
M  V30 6896 O 678.645 1.72094 0.270042 0
M  V30 6897 C 675.777 3.38339 0.417053 0
M  V30 6898 H 676.97 2.71926 -1.26477 0
M  V30 6899 H 674.523 1.40098 -0.692986 0
M  V30 6900 H 675.258 2.97339 1.29461 0
M  V30 6901 H 675.043 3.91542 -0.209102 0
M  V30 6902 H 676.533 4.10578 0.762602 0
M  V30 6903 N 676.97 0.677563 1.42291 0
M  V30 6904 C 678.198 0.209459 2.05837 0
M  V30 6905 C 678.613 -1.13444 1.50917 0
M  V30 6906 O 677.97 -1.70529 0.65008 0
M  V30 6907 C 678.021 0.138819 3.61233 0
M  V30 6908 O 677.742 1.42962 4.14118 0
M  V30 6909 C 679.243 -0.352449 4.41897 0
M  V30 6910 H 676.463 0.101209 0.663323 0
M  V30 6911 H 679.007 0.925077 1.8238 0
M  V30 6912 H 677.162 -0.527505 3.83792 0
M  V30 6913 H 677.576 1.3048 5.08011 0
M  V30 6914 H 679.05 -0.350778 5.50884 0
M  V30 6915 H 679.527 -1.3882 4.16684 0
M  V30 6916 H 680.133 0.282236 4.24362 0
M  V30 6917 N 678.448 -1.51871 0.421078 0
M  V30 6918 C 679.696 -2.01539 -0.150492 0
M  V30 6919 C 680.017 -1.30803 -1.44623 0
M  V30 6920 O 679.287 -0.437568 -1.90951 0
M  V30 6921 H 677.867 -0.744698 -0.0586041 0
M  V30 6922 H 680.529 -1.8668 0.560059 0
M  V30 6923 H 679.625 -3.10264 -0.338068 0
M  V30 6924 N 679.926 -0.151884 -1.56866 0
M  V30 6925 C 680.873 0.785936 -2.17006 0
M  V30 6926 C 681.843 1.2407 -1.10435 0
M  V30 6927 O 683.028 1.31235 -1.38499 0
M  V30 6928 C 680.168 2.01771 -2.79969 0
M  V30 6929 C 679.281 1.6083 -4.00946 0
M  V30 6930 C 678.416 2.79224 -4.51893 0
M  V30 6931 C 677.455 2.3468 -5.65324 0
M  V30 6932 N 676.592 3.461 -6.10867 0
M  V30 6933 H 681.432 0.266286 -2.96808 0
M  V30 6934 H 678.969 0.11972 -1.46612 0
M  V30 6935 H 680.927 2.73989 -3.14621 0
M  V30 6936 H 679.557 2.51139 -2.02803 0
M  V30 6937 H 678.609 0.783592 -3.72242 0
M  V30 6938 H 679.921 1.24119 -4.83111 0
M  V30 6939 H 679.075 3.59625 -4.88625 0
M  V30 6940 H 677.814 3.19183 -3.68746 0
M  V30 6941 H 676.819 1.52721 -5.28163 0
M  V30 6942 H 678.044 1.95801 -6.5026 0
M  V30 6943 H 675.99 3.85671 -5.30654 0
M  V30 6944 H 675.907 3.1342 -6.87971 0
M  V30 6945 H 677.175 4.26844 -6.52246 0
M  V30 6946 N 681.404 1.57128 0.121893 0
M  V30 6947 C 682.651 1.847 0.830188 0
M  V30 6948 C 682.979 0.736543 1.80015 0
M  V30 6949 O 682.234 -0.272358 1.93796 0
M  V30 6950 C 682.533 3.1874 1.61677 0
M  V30 6951 C 682.199 4.43901 0.791361 0
M  V30 6952 C 680.861 4.77887 0.563731 0
M  V30 6953 C 683.213 5.20753 0.215823 0
M  V30 6954 C 680.541 5.86168 -0.249737 0
M  V30 6955 C 682.893 6.29891 -0.584821 0
M  V30 6956 C 681.557 6.6241 -0.822794 0
M  V30 6957 H 680.827 0.675866 0.303787 0
M  V30 6958 H 683.474 1.91276 0.0926894 0
M  V30 6959 H 681.779 3.07728 2.42509 0
M  V30 6960 H 683.476 3.37295 2.16872 0
M  V30 6961 H 680.066 4.17272 0.978867 0
M  V30 6962 H 684.25 4.94851 0.378907 0
M  V30 6963 H 679.506 6.0979 -0.44336 0
M  V30 6964 H 683.68 6.88624 -1.03779 0
M  V30 6965 H 681.307 7.46147 -1.45496 0
M  V30 6966 N 682.882 -0.391992 1.52647 0
M  V30 6967 C 683.812 -1.48517 1.8018 0
M  V30 6968 C 684.793 -1.57039 0.653667 0
M  V30 6969 O 685.978 -1.72036 0.900962 0
M  V30 6970 C 683.108 -2.86161 1.96797 0
M  V30 6971 C 682.062 -2.92481 3.12472 0
M  V30 6972 C 681.388 -4.32546 3.14338 0
M  V30 6973 C 682.688 -2.624 4.51601 0
M  V30 6974 H 684.382 -1.25726 2.71723 0
M  V30 6975 H 681.928 -0.603387 1.30749 0
M  V30 6976 H 683.881 -3.62639 2.14641 0
M  V30 6977 H 682.605 -3.10283 1.01941 0
M  V30 6978 H 681.264 -2.18451 2.94406 0
M  V30 6979 H 680.912 -4.53703 2.1717 0
M  V30 6980 H 680.612 -4.37695 3.92042 0
M  V30 6981 H 682.136 -5.10934 3.34333 0
M  V30 6982 H 683.55 -3.28596 4.69785 0
M  V30 6983 H 681.947 -2.78903 5.3135 0
M  V30 6984 H 683.017 -1.57754 4.58521 0
M  V30 6985 N 684.36 -1.4356 -0.65026 0
M  V30 6986 C 685.29 -1.51758 -1.77459 0
M  V30 6987 C 686.271 -0.372019 -1.65982 0
M  V30 6988 O 687.456 -0.589627 -1.85033 0
M  V30 6989 C 684.586 -1.44302 -3.15902 0
M  V30 6990 C 683.54 -2.57138 -3.42146 0
M  V30 6991 C 682.866 -2.34735 -4.8042 0
M  V30 6992 C 684.166 -3.99373 -3.36598 0
M  V30 6993 H 685.86 -2.45863 -1.70855 0
M  V30 6994 H 683.406 -1.18333 -0.820566 0
M  V30 6995 H 685.359 -1.48641 -3.94314 0
M  V30 6996 H 684.083 -0.467026 -3.23244 0
M  V30 6997 H 682.742 -2.52157 -2.66106 0
M  V30 6998 H 682.39 -1.35372 -4.84441 0
M  V30 6999 H 682.09 -3.10375 -4.9894 0
M  V30 7000 H 683.614 -2.40862 -5.61086 0
M  V30 7001 H 685.028 -4.05826 -4.04942 0
M  V30 7002 H 683.425 -4.75063 -3.66654 0
M  V30 7003 H 684.495 -4.243 -2.34729 0
M  V30 7004 N 685.838 0.888903 -1.30139 0
M  V30 7005 C 686.801 1.97576 -1.16174 0
M  V30 7006 C 687.801 1.60525 -0.094086 0
M  V30 7007 O 688.991 1.70812 -0.341889 0
M  V30 7008 C 686.123 3.3188 -0.778983 0
M  V30 7009 H 687.316 2.11393 -2.12728 0
M  V30 7010 H 684.869 1.0748 -1.1348 0
M  V30 7011 H 685.604 3.23765 0.186225 0
M  V30 7012 H 685.389 3.60141 -1.55051 0
M  V30 7013 H 686.879 4.11612 -0.704631 0
M  V30 7014 N 687.317 1.12792 1.10072 0
M  V30 7015 C 688.547 0.907189 1.85617 0
M  V30 7016 C 688.955 -0.547181 1.81115 0
M  V30 7017 O 688.298 -1.39024 1.20075 0
M  V30 7018 C 688.36 1.30872 3.34832 0
M  V30 7019 C 688.024 2.77516 3.6309 0
M  V30 7020 C 689.021 3.75696 3.59373 0
M  V30 7021 C 686.706 3.14513 3.91646 0
M  V30 7022 C 688.7 5.08888 3.83812 0
M  V30 7023 C 686.387 4.47886 4.15742 0
M  V30 7024 C 687.385 5.44882 4.11816 0
M  V30 7025 O 687.073 6.7585 4.35295 0
M  V30 7026 H 686.805 0.323855 0.593375 0
M  V30 7027 H 689.359 1.50262 1.40038 0
M  V30 7028 H 687.589 0.656518 3.81086 0
M  V30 7029 H 689.278 1.06153 3.91773 0
M  V30 7030 H 690.044 3.48458 3.37345 0
M  V30 7031 H 685.923 2.39622 3.93831 0
M  V30 7032 H 689.467 5.84586 3.80663 0
M  V30 7033 H 685.364 4.74851 4.37249 0
M  V30 7034 H 686.132 6.81853 4.52791 0
M  V30 7035 N 688.795 -1.27931 0.920396 0
M  V30 7036 C 690.02 -1.99343 0.572478 0
M  V30 7037 C 690.445 -1.68267 -0.840696 0
M  V30 7038 O 689.803 -0.918805 -1.56294 0
M  V30 7039 C 689.851 -3.51698 0.796284 0
M  V30 7040 O 688.955 -4.12157 -0.141602 0
M  V30 7041 H 688.296 -0.626065 0.221221 0
M  V30 7042 H 690.826 -1.62921 1.23765 0
M  V30 7043 H 690.836 -4.01793 0.708984 0
M  V30 7044 H 689.511 -3.73649 1.82644 0
M  V30 7045 H 688.088 -3.729 -0.005007 0
M  V30 7046 N 690.273 -0.685099 -1.4193 0
M  V30 7047 C 691.684 -0.287699 -1.8447 0
M  V30 7048 C 692.035 1.17215 -1.57338 0
M  V30 7049 O 691.16 1.89856 -1.03845 0
M  V30 7050 C 691.755 -0.515385 -3.34857 0
M  V30 7051 C 690.314 -0.172006 -3.76007 0
M  V30 7052 C 689.461 -0.802808 -2.65425 0
M  V30 7053 H 692.412 -0.88652 -1.3163 0
M  V30 7054 H 692.433 0.229251 -3.79809 0
M  V30 7055 H 691.945 -1.57796 -3.54573 0
M  V30 7056 H 690.046 0.886716 -3.61895 0
M  V30 7057 H 690.159 -0.619717 -4.75075 0
M  V30 7058 H 688.523 -0.233267 -2.5363 0
M  V30 7059 H 689.306 -1.86904 -2.87961 0
M  V30 7060 N 691.751 1.51645 -0.429126 0
M  V30 7061 C 693.162 1.86665 0.0359003 0
M  V30 7062 C 693.513 1.34677 1.42676 0
M  V30 7063 O 692.638 0.694195 2.04963 0
M  V30 7064 C 693.233 3.38724 0.0719221 0
M  V30 7065 C 691.792 3.7331 0.481336 0
M  V30 7066 C 690.939 2.75313 -0.331329 0
M  V30 7067 H 693.89 1.44987 -0.645333 0
M  V30 7068 H 693.911 3.7011 0.883118 0
M  V30 7069 H 693.423 3.76532 -0.940495 0
M  V30 7070 H 691.524 3.41088 1.49966 0
M  V30 7071 H 691.637 4.78631 0.211837 0
M  V30 7072 H 690.001 2.53839 0.209204 0
M  V30 7073 H 690.784 3.15963 -1.34247 0
M  V30 7074 N 693.229 0.160201 1.56784 0
M  V30 7075 C 694.477 -0.486625 1.96154 0
M  V30 7076 C 694.798 -1.64525 1.04673 0
M  V30 7077 O 694.068 -1.95586 0.110864 0
M  V30 7078 H 692.648 -0.182764 0.724297 0
M  V30 7079 H 695.31 0.238787 1.93432 0
M  V30 7080 H 694.406 -0.854025 3.00188 0
M  V30 7081 N 694.707 -1.5719 -0.113559 0
M  V30 7082 C 695.67 -1.99796 -1.12314 0
M  V30 7083 C 696.67 -0.888847 -1.34001 0
M  V30 7084 O 697.86 -1.15476 -1.30426 0
M  V30 7085 C 694.992 -2.34279 -2.47641 0
M  V30 7086 H 696.185 -2.90193 -0.756825 0
M  V30 7087 H 693.738 -1.52144 -0.358029 0
M  V30 7088 H 694.473 -1.46778 -2.89183 0
M  V30 7089 H 694.258 -3.15175 -2.33253 0
M  V30 7090 H 695.748 -2.67963 -3.2029 0
M  V30 7091 N 696.185 0.383891 -1.52853 0
M  V30 7092 C 697.433 1.12619 -1.67814 0
M  V30 7093 C 697.754 1.90354 -0.423141 0
M  V30 7094 O 697.024 1.87649 0.562554 0
M  V30 7095 H 695.604 0.418738 -0.618601 0
M  V30 7096 H 698.266 0.43495 -1.89985 0
M  V30 7097 H 697.362 1.82624 -2.5309 0
M  V30 7098 N 697.663 1.43903 0.642637 0
M  V30 7099 C 698.626 1.49538 1.73698 0
M  V30 7100 C 699.626 0.378776 1.56275 0
M  V30 7101 O 700.816 0.64095 1.6198 0
M  V30 7102 C 697.948 1.35821 3.12675 0
M  V30 7103 H 699.141 2.47008 1.70079 0
M  V30 7104 H 696.694 1.30824 0.85526 0
M  V30 7105 H 697.429 0.393994 3.21898 0
M  V30 7106 H 697.214 2.16776 3.26727 0
M  V30 7107 H 698.704 1.4272 3.92455 0
M  V30 7108 N 699.141 -0.881989 1.30609 0
M  V30 7109 C 700.552 -1.44956 1.17664 0
M  V30 7110 C 700.903 -1.94945 -0.221531 0
M  V30 7111 O 700.028 -1.85257 -1.11844 0
M  V30 7112 C 700.623 -2.63474 2.12995 0
M  V30 7113 C 699.182 -3.16312 2.04019 0
M  V30 7114 C 698.329 -1.89008 2.02907 0
M  V30 7115 H 701.28 -0.691645 1.42835 0
M  V30 7116 H 701.301 -3.39783 1.71253 0
M  V30 7117 H 700.813 -2.2706 3.14746 0
M  V30 7118 H 698.914 -3.57376 1.0542 0
M  V30 7119 H 699.027 -3.79409 2.9255 0
M  V30 7120 H 697.391 -2.07465 1.47751 0
M  V30 7121 H 698.174 -1.54848 3.06394 0
M  V30 7122 N 700.619 -1.13374 -1.09472 0
M  V30 7123 C 701.847 -0.918351 -1.85402 0
M  V30 7124 C 702.262 0.53281 -1.81126 0
M  V30 7125 O 701.619 1.36879 -1.20708 0
M  V30 7126 C 701.67 -1.39743 -3.33398 0
M  V30 7127 O 701.391 -2.79172 -3.37631 0
M  V30 7128 C 702.892 -1.22042 -4.2617 0
M  V30 7129 H 700.112 -0.327511 -0.585643 0
M  V30 7130 H 702.656 -1.50617 -1.38328 0
M  V30 7131 H 700.811 -0.852619 -3.77901 0
M  V30 7132 H 701.225 -3.00428 -4.29934 0
M  V30 7133 H 702.699 -1.60438 -5.2817 0
M  V30 7134 H 703.176 -0.162047 -4.38901 0
M  V30 7135 H 703.782 -1.75323 -3.87482 0
M  V30 7136 N 702.098 1.27442 -0.927168 0
M  V30 7137 C 703.045 2.26863 -0.424459 0
M  V30 7138 C 704.015 1.5813 0.508346 0
M  V30 7139 O 705.2 1.85946 0.42762 0
M  V30 7140 C 702.34 3.43639 0.31718 0
M  V30 7141 C 701.453 4.27087 -0.649675 0
M  V30 7142 C 700.588 5.31082 0.111753 0
M  V30 7143 C 699.627 6.062 -0.847843 0
M  V30 7144 N 698.764 7.01999 -0.119074 0
M  V30 7145 H 703.604 2.69239 -1.27728 0
M  V30 7146 H 701.141 1.32394 -0.641106 0
M  V30 7147 H 703.099 4.10155 0.763486 0
M  V30 7148 H 701.729 3.02217 1.13424 0
M  V30 7149 H 700.781 3.60491 -1.21451 0
M  V30 7150 H 702.093 4.79242 -1.38307 0
M  V30 7151 H 701.247 6.03544 0.618 0
M  V30 7152 H 699.986 4.7973 0.878114 0
M  V30 7153 H 698.991 5.32577 -1.36534 0
M  V30 7154 H 700.216 6.59642 -1.61398 0
M  V30 7155 H 698.162 6.52977 0.629051 0
M  V30 7156 H 698.079 7.5184 -0.792046 0
M  V30 7157 H 699.347 7.78638 0.366537 0
M  V30 7158 N 703.576 0.692616 1.41565 0
M  V30 7159 C 704.992 0.363878 1.55397 0
M  V30 7160 C 705.192 -1.1294 1.66874 0
M  V30 7161 O 704.248 -1.91517 1.64552 0
M  V30 7162 C 705.561 1.10982 2.7947 0
M  V30 7163 C 707.109 1.09387 2.93263 0
M  V30 7164 C 707.584 1.8215 4.20221 0
M  V30 7165 N 709.075 1.79105 4.27172 0
M  V30 7166 C 709.81 2.32247 5.2426 0
M  V30 7167 N 709.306 2.93847 6.27396 0
M  V30 7168 N 711.099 2.22519 5.1618 0
M  V30 7169 H 703.25 1.66116 1.3236 0
M  V30 7170 H 705.513 0.700848 0.63837 0
M  V30 7171 H 705.219 2.1647 2.77188 0
M  V30 7172 H 705.093 0.686492 3.709 0
M  V30 7173 H 707.48 0.0472638 2.95062 0
M  V30 7174 H 707.561 1.55623 2.03015 0
M  V30 7175 H 707.205 2.86789 4.19183 0
M  V30 7176 H 707.135 1.33351 5.09436 0
M  V30 7177 H 709.626 1.34191 3.53272 0
M  V30 7178 H 709.939 3.31972 6.97864 0
M  V30 7179 H 708.284 2.97924 6.27906 0
M  V30 7180 H 711.475 1.7407 4.34531 0
M  V30 7181 H 711.648 2.64239 5.91677 0
M  V30 7182 N 705.054 -1.51416 0.437162 0
M  V30 7183 C 706.3 -2.02386 -0.129555 0
M  V30 7184 C 706.633 -1.32071 -1.42376 0
M  V30 7185 O 705.908 -0.43559 -1.8956 0
M  V30 7186 C 706.191 -3.5841 -0.348487 0
M  V30 7187 C 706.044 -4.39341 0.964352 0
M  V30 7188 C 707.363 -4.25654 -1.11834 0
M  V30 7189 H 704.482 -0.735587 -0.0456109 0
M  V30 7190 H 707.124 -1.81055 0.576124 0
M  V30 7191 H 705.274 -3.76716 -0.949592 0
M  V30 7192 H 706.946 -4.32685 1.59942 0
M  V30 7193 H 705.189 -4.04432 1.56898 0
M  V30 7194 H 705.86 -5.4667 0.765212 0
M  V30 7195 H 708.336 -4.11617 -0.609165 0
M  V30 7196 H 707.212 -5.34704 -1.24029 0
M  V30 7197 H 707.473 -3.86502 -2.14636 0
M  V30 7198 N 706.532 -0.168513 -1.56696 0
M  V30 7199 C 707.809 0.523367 -1.88468 0
M  V30 7200 C 708.189 1.81503 -1.07796 0
M  V30 7201 O 707.537 2.27859 -0.171045 0
M  V30 7202 C 707.747 0.767991 -3.40445 0
M  V30 7203 C 709.095 1.09924 -4.10124 0
M  V30 7204 O 710.119 0.856625 -3.45746 0
M  V30 7205 O 708.978 1.55681 -5.23856 0
M  V30 7206 H 706.072 0.269447 -0.781874 0
M  V30 7207 H 708.618 -0.206739 -1.68436 0
M  V30 7208 H 707.39 -0.145254 -3.9103 0
M  V30 7209 H 707.013 1.55151 -3.66079 0
M  V30 7210 N 708.01 1.57248 0.105221 0
M  V30 7211 C 708.973 2.00388 1.11252 0
M  V30 7212 C 709.973 0.89594 1.33527 0
M  V30 7213 O 711.163 1.16166 1.29811 0
M  V30 7214 C 708.295 2.35589 2.46395 0
M  V30 7215 H 709.488 2.90591 0.741424 0
M  V30 7216 H 707.041 1.52332 0.349956 0
M  V30 7217 H 707.776 1.4831 2.884 0
M  V30 7218 H 707.561 3.16408 2.31578 0
M  V30 7219 H 709.051 2.69658 3.18864 0
M  V30 7220 N 709.488 -0.375779 1.53054 0
M  V30 7221 C 710.421 -1.48187 1.7354 0
M  V30 7222 C 711.399 -1.5177 0.583495 0
M  V30 7223 O 712.583 -1.69976 0.81488 0
M  V30 7224 C 709.71 -2.86598 1.80497 0
M  V30 7225 C 708.756 -3.00784 3.02376 0
M  V30 7226 S 709.589 -2.70601 4.62099 0
M  V30 7227 C 710.745 -4.11181 4.71891 0
M  V30 7228 H 710.978 -1.30587 2.67085 0
M  V30 7229 H 708.511 -0.569485 1.43514 0
M  V30 7230 H 710.469 -3.66353 1.85192 0
M  V30 7231 H 709.13 -3.01514 0.880217 0
M  V30 7232 H 708.323 -4.02128 3.03824 0
M  V30 7233 H 707.925 -2.28939 2.95742 0
M  V30 7234 H 710.217 -5.0529 4.51319 0
M  V30 7235 H 711.16 -4.14742 5.73929 0
M  V30 7236 H 711.568 -3.97706 4.00612 0
M  V30 7237 N 710.966 -1.44241 -0.634997 0
M  V30 7238 C 711.896 -1.53632 -1.7584 0
M  V30 7239 C 712.877 -0.389603 -1.65578 0
M  V30 7240 O 714.062 -0.609219 -1.84397 0
M  V30 7241 C 711.192 -1.47644 -3.14354 0
M  V30 7242 C 710.146 -2.60752 -3.394 0
M  V30 7243 C 709.472 -2.39817 -4.77904 0
M  V30 7244 C 710.772 -4.02921 -3.32343 0
M  V30 7245 H 712.466 -2.47662 -1.68238 0
M  V30 7246 H 710.012 -1.19197 -0.807969 0
M  V30 7247 H 711.965 -1.52815 -3.92716 0
M  V30 7248 H 710.689 -0.501284 -3.2273 0
M  V30 7249 H 709.348 -2.54965 -2.63417 0
M  V30 7250 H 708.996 -1.40502 -4.82978 0
M  V30 7251 H 708.696 -3.15649 -4.9562 0
M  V30 7252 H 710.22 -2.46799 -5.585 0
M  V30 7253 H 711.634 -4.10098 -4.00615 0
M  V30 7254 H 710.031 -4.78925 -3.61595 0
M  V30 7255 H 711.101 -4.26766 -2.30215 0
M  V30 7256 N 712.444 0.87505 -1.31075 0
M  V30 7257 C 713.692 1.62447 -1.20231 0
M  V30 7258 C 714.013 1.93506 0.240888 0
M  V30 7259 O 713.283 1.57847 1.16022 0
M  V30 7260 H 711.863 0.602207 -0.441991 0
M  V30 7261 H 714.525 1.04788 -1.64334 0
M  V30 7262 H 713.621 2.57031 -1.77036 0
M  V30 7263 N 713.922 1.13953 1.08869 0
M  V30 7264 C 715.15 0.92817 1.84912 0
M  V30 7265 C 715.565 -0.523197 1.81406 0
M  V30 7266 O 714.922 -1.36237 1.21432 0
M  V30 7267 C 714.973 1.41509 3.32652 0
M  V30 7268 O 714.694 2.80959 3.36145 0
M  V30 7269 C 716.195 1.243 4.25517 0
M  V30 7270 H 713.415 0.330612 0.583898 0
M  V30 7271 H 715.959 1.51349 1.37527 0
M  V30 7272 H 714.114 0.872648 3.77444 0
M  V30 7273 H 714.528 3.02704 4.28335 0
M  V30 7274 H 716.002 1.63237 5.27312 0
M  V30 7275 H 716.479 0.18532 4.38809 0
M  V30 7276 H 717.085 1.77375 3.86546 0
M  V30 7277 N 715.4 -1.26948 0.933913 0
M  V30 7278 C 716.35 -2.24306 0.408779 0
M  V30 7279 C 717.334 -1.53243 -0.490435 0
M  V30 7280 O 718.526 -1.73956 -0.326866 0
M  V30 7281 C 715.655 -3.41695 -0.331578 0
M  V30 7282 C 714.741 -4.20053 0.58451 0
M  V30 7283 N 715.132 -4.76122 1.70709 0
M  V30 7284 C 713.43 -4.44303 0.388703 0
M  V30 7285 C 714.131 -5.35267 2.27737 0
M  V30 7286 N 713.107 -5.20548 1.56622 0
M  V30 7287 H 716.909 -2.65244 1.26582 0
M  V30 7288 H 714.423 -1.4195 0.788919 0
M  V30 7289 H 716.42 -4.10552 -0.724774 0
M  V30 7290 H 715.08 -3.02286 -1.18547 0
M  V30 7291 H 716.091 -4.73884 2.08937 0
M  V30 7292 H 712.768 -4.15341 -0.424016 0
M  V30 7293 H 714.158 -5.89563 3.22282 0
M  V30 7294 N 716.879 -0.700114 -1.41195 0
M  V30 7295 C 718.125 -0.233351 -2.01453 0
M  V30 7296 C 718.458 1.16548 -1.55339 0
M  V30 7297 O 717.733 1.78756 -0.766575 0
M  V30 7298 C 718.016 -0.2961 -3.58881 0
M  V30 7299 C 717.869 -1.7322 -4.15108 0
M  V30 7300 C 719.188 0.341525 -4.38773 0
M  V30 7301 H 716.307 -0.0862667 -0.731934 0
M  V30 7302 H 718.949 -0.889693 -1.67882 0
M  V30 7303 H 717.099 0.262736 -3.87611 0
M  V30 7304 H 718.771 -2.34523 -3.97236 0
M  V30 7305 H 717.014 -2.2649 -3.69979 0
M  V30 7306 H 717.685 -1.7276 -5.24269 0
M  V30 7307 H 720.161 -0.134461 -4.15883 0
M  V30 7308 H 719.037 0.267098 -5.4825 0
M  V30 7309 H 719.298 1.42289 -4.18577 0
M  V30 7310 N 718.357 1.51182 -0.445186 0
M  V30 7311 C 719.603 2.02452 0.11882 0
M  V30 7312 C 719.936 1.32824 1.41673 0
M  V30 7313 O 719.211 0.445637 1.89326 0
M  V30 7314 C 719.494 3.5859 0.329475 0
M  V30 7315 C 719.347 4.38823 -0.987638 0
M  V30 7316 C 720.666 4.26241 1.09575 0
M  V30 7317 H 717.785 0.735819 0.0417092 0
M  V30 7318 H 720.427 1.80747 -0.585718 0
M  V30 7319 H 718.577 3.77214 0.9296 0
M  V30 7320 H 720.249 4.3183 -1.62235 0
M  V30 7321 H 718.492 4.03594 -1.59041 0
M  V30 7322 H 719.163 5.46257 -0.794192 0
M  V30 7323 H 721.639 4.11934 0.587328 0
M  V30 7324 H 720.515 5.35354 1.21191 0
M  V30 7325 H 720.776 3.87635 2.12584 0
M  V30 7326 N 719.835 0.176821 1.56605 0
M  V30 7327 C 721.081 -0.460868 1.9811 0
M  V30 7328 C 721.436 -1.60488 1.06119 0
M  V30 7329 O 720.729 -1.91329 0.101939 0
M  V30 7330 C 720.923 -0.986208 3.43524 0
M  V30 7331 C 720.752 0.105368 4.49577 0
M  V30 7332 C 719.522 0.556883 5.02222 0
M  V30 7333 C 721.72 0.907756 5.06226 0
M  V30 7334 N 719.702 1.62819 5.91915 0
M  V30 7335 C 721.073 1.82887 5.92412 0
M  V30 7336 C 723.128 0.952221 4.8871 0
M  V30 7337 C 721.831 2.7907 6.62957 0
M  V30 7338 C 723.857 1.90202 5.5998 0
M  V30 7339 C 723.219 2.8106 6.45898 0
M  V30 7340 H 719.318 -0.136589 0.769979 0
M  V30 7341 H 721.902 0.278307 1.92701 0
M  V30 7342 H 720.073 -1.69489 3.49468 0
M  V30 7343 H 721.805 -1.59298 3.7203 0
M  V30 7344 H 718.56 0.153575 4.73351 0
M  V30 7345 H 718.984 2.1645 6.41466 0
M  V30 7346 H 723.626 0.263794 4.21976 0
M  V30 7347 H 721.344 3.48898 7.28901 0
M  V30 7348 H 724.93 1.9426 5.48411 0
M  V30 7349 H 723.81 3.53357 7.00077 0
M  V30 7350 N 721.313 -1.57302 -0.09688 0
M  V30 7351 C 722.59 -1.7701 -0.832272 0
M  V30 7352 C 722.97 -0.758025 -1.97021 0
M  V30 7353 O 722.318 0.213824 -2.27497 0
M  V30 7354 C 722.528 -3.22725 -1.32851 0
M  V30 7355 C 723.876 -3.85856 -1.772 0
M  V30 7356 O 724.9 -3.26464 -1.42478 0
M  V30 7357 O 723.759 -4.90295 -2.41398 0
M  V30 7358 H 720.853 -0.725558 -0.396856 0
M  V30 7359 H 723.399 -1.69516 -0.0789005 0
M  V30 7360 H 722.171 -3.87921 -0.51312 0
M  V30 7361 H 721.794 -3.34845 -2.14394 0
M  V30 7362 N 722.791 0.367657 -1.53252 0
M  V30 7363 C 724.037 1.11216 -1.69584 0
M  V30 7364 C 724.37 1.89026 -0.445269 0
M  V30 7365 O 723.645 1.86342 0.557404 0
M  V30 7366 C 723.928 2.07308 -2.94441 0
M  V30 7367 C 723.781 1.3312 -4.2965 0
M  V30 7368 C 725.1 3.07459 -3.14892 0
M  V30 7369 H 722.219 0.40294 -0.617096 0
M  V30 7370 H 724.861 0.393201 -1.85887 0
M  V30 7371 H 723.011 2.68617 -2.80673 0
M  V30 7372 H 724.683 0.746111 -4.55226 0
M  V30 7373 H 722.926 0.633051 -4.29156 0
M  V30 7374 H 723.597 2.03443 -5.13142 0
M  V30 7375 H 726.073 2.56252 -3.27832 0
M  V30 7376 H 724.949 3.71919 -4.03693 0
M  V30 7377 H 725.21 3.77514 -2.30077 0
M  V30 7378 N 724.269 1.44576 0.627338 0
M  V30 7379 C 725.517 1.47267 1.38408 0
M  V30 7380 C 725.838 0.107971 1.94701 0
M  V30 7381 O 725.108 -0.860206 1.76004 0
M  V30 7382 H 723.688 0.542276 0.513756 0
M  V30 7383 H 726.35 1.80383 0.738099 0
M  V30 7384 H 725.446 2.20025 2.21349 0
M  V30 7385 N 725.747 -0.868086 1.31537 0
M  V30 7386 C 726.677 -1.99131 1.21939 0
M  V30 7387 C 727.658 -1.69768 0.106166 0
M  V30 7388 O 728.843 -1.92006 0.291081 0
M  V30 7389 C 725.973 -3.34676 0.927879 0
M  V30 7390 C 724.927 -3.7835 2.00088 0
M  V30 7391 C 724.253 -5.11375 1.56203 0
M  V30 7392 C 725.553 -3.95256 3.41424 0
M  V30 7393 H 727.247 -2.07419 2.15911 0
M  V30 7394 H 724.793 -0.996569 1.03945 0
M  V30 7395 H 726.746 -4.12793 0.847327 0
M  V30 7396 H 725.47 -3.26565 -0.0475042 0
M  V30 7397 H 724.129 -3.02474 2.07135 0
M  V30 7398 H 723.777 -4.99709 0.57445 0
M  V30 7399 H 723.477 -5.41568 2.27985 0
M  V30 7400 H 725.001 -5.92001 1.49558 0
M  V30 7401 H 726.415 -4.63764 3.3704 0
M  V30 7402 H 724.812 -4.36849 4.1144 0
M  V30 7403 H 725.882 -2.98579 3.82072 0
M  V30 7404 N 727.225 -1.14528 -1.08264 0
M  V30 7405 C 728.157 -0.791325 -2.15106 0
M  V30 7406 C 729.17 0.192449 -1.61659 0
M  V30 7407 O 730.359 -0.0294704 -1.78476 0
M  V30 7408 C 727.459 -0.154183 -3.38549 0
M  V30 7409 C 726.632 -1.17305 -4.21377 0
M  V30 7410 C 725.691 -0.559401 -5.23218 0
M  V30 7411 O 724.717 -1.22277 -5.55911 0
M  V30 7412 N 725.919 0.663159 -5.767 0
M  V30 7413 H 728.684 -1.71076 -2.46075 0
M  V30 7414 H 726.245 -1.0399 -1.24087 0
M  V30 7415 H 728.237 0.268884 -4.03806 0
M  V30 7416 H 726.807 0.668418 -3.0537 0
M  V30 7417 H 726.027 -1.773 -3.52077 0
M  V30 7418 H 727.315 -1.86128 -4.73533 0
M  V30 7419 H 726.713 1.22066 -5.52373 0
M  V30 7420 H 725.27 1.02871 -6.43631 0
M  V30 7421 N 728.703 1.26451 -0.940633 0
M  V30 7422 C 729.928 1.98407 -0.60412 0
M  V30 7423 C 730.353 1.69584 0.81382 0
M  V30 7424 O 729.711 0.943553 1.54812 0
M  V30 7425 C 729.759 3.50387 -0.852136 0
M  V30 7426 O 728.863 4.1233 0.076013 0
M  V30 7427 H 728.204 0.622466 -0.231153 0
M  V30 7428 H 730.734 1.60932 -1.26342 0
M  V30 7429 H 730.744 4.00614 -0.772816 0
M  V30 7430 H 729.419 3.70696 -1.88566 0
M  V30 7431 H 727.996 3.7286 -0.0543187 0
M  V30 7432 N 730.181 0.707592 1.40822 0
M  V30 7433 C 731.406 0.251626 2.05868 0
M  V30 7434 C 731.831 -1.09503 1.5294 0
M  V30 7435 O 731.189 -1.68806 0.661385 0
M  V30 7436 C 731.237 0.23287 3.59847 0
M  V30 7437 O 730.341 -0.788477 4.04792 0
M  V30 7438 H 729.682 0.119936 0.653078 0
M  V30 7439 H 732.212 0.96583 1.80369 0
M  V30 7440 H 732.222 0.0678204 4.07944 0
M  V30 7441 H 730.897 1.21565 3.97737 0
M  V30 7442 H 729.474 -0.591802 3.68174 0
M  V30 7443 N 731.66 -1.50943 0.453197 0
M  V30 7444 C 732.9 -2.0412 -0.106894 0
M  V30 7445 C 733.264 -1.32895 -1.38575 0
M  V30 7446 O 734.465 -1.76529 -2.02709 0
M  V30 7447 C 732.736 -3.561 -0.304565 0
M  V30 7448 S 734.295 -4.3096 -0.825784 0
M  V30 7449 H 731.113 -0.710581 -0.0243969 0
M  V30 7450 H 733.715 -1.85534 0.616239 0
M  V30 7451 H 732.419 -4.055 0.632277 0
M  V30 7452 H 731.95 -3.79009 -1.05433 0
M  V30 7453 H 733.965 -4.49503 -2.10147 0
M  V30 7454 N 733.138 -0.185124 -1.56509 0
M  V30 7455 C 734.384 0.456934 -1.97585 0
M  V30 7456 C 734.717 1.61957 -1.07161 0
M  V30 7457 O 733.992 1.9412 -0.121546 0
M  V30 7458 C 734.275 0.926666 -3.47973 0
M  V30 7459 C 734.128 -0.237097 -4.49175 0
M  V30 7460 C 735.447 1.79561 -4.01803 0
M  V30 7461 H 732.566 0.164619 -0.71838 0
M  V30 7462 H 735.208 -0.274039 -1.88013 0
M  V30 7463 H 733.358 1.54954 -3.56261 0
M  V30 7464 H 735.03 -0.87454 -4.52934 0
M  V30 7465 H 733.273 -0.890446 -4.24563 0
M  V30 7466 H 733.944 0.133924 -5.51838 0
M  V30 7467 H 736.42 1.27039 -3.96232 0
M  V30 7468 H 735.296 2.09327 -5.07418 0
M  V30 7469 H 735.557 2.74629 -3.46455 0
M  V30 7470 N 734.616 1.57351 0.0885366 0
M  V30 7471 C 735.546 2.05561 1.10757 0
M  V30 7472 C 736.527 0.945789 1.41382 0
M  V30 7473 O 737.712 1.21747 1.51299 0
M  V30 7474 C 734.842 2.48554 2.42566 0
M  V30 7475 C 733.796 3.63259 2.26334 0
M  V30 7476 C 733.122 3.9225 3.63378 0
M  V30 7477 C 734.422 4.93913 1.69844 0
M  V30 7478 H 736.116 2.90946 0.706468 0
M  V30 7479 H 733.662 1.39968 0.338385 0
M  V30 7480 H 735.615 2.8089 3.14132 0
M  V30 7481 H 734.339 1.60176 2.84625 0
M  V30 7482 H 732.998 3.31179 1.57213 0
M  V30 7483 H 732.646 3.0103 4.02976 0
M  V30 7484 H 732.346 4.69478 3.53362 0
M  V30 7485 H 733.87 4.27067 4.36401 0
M  V30 7486 H 735.284 5.24588 2.31258 0
M  V30 7487 H 733.681 5.75349 1.70569 0
M  V30 7488 H 734.751 4.80409 0.65843 0
M  V30 7489 N 736.094 -0.359525 1.53444 0
M  V30 7490 C 737.334 -1.11014 1.71625 0
M  V30 7491 C 737.698 -1.86376 0.46132 0
M  V30 7492 O 738.899 -2.63724 0.519908 0
M  V30 7493 C 737.17 -2.03907 2.93524 0
M  V30 7494 S 738.729 -2.86408 3.3244 0
M  V30 7495 H 735.547 -0.375352 0.603847 0
M  V30 7496 H 738.149 -0.390604 1.91558 0
M  V30 7497 H 736.853 -1.47316 3.83048 0
M  V30 7498 H 736.384 -2.80324 2.76011 0
M  V30 7499 H 738.399 -4.06241 2.84926 0
M  V30 7500 N 737.572 -1.44907 -0.619662 0
M  V30 7501 C 738.821 -1.47569 -1.37501 0
M  V30 7502 C 739.134 -0.116707 -1.95252 0
M  V30 7503 O 740.34 -0.020909 -2.71492 0
M  V30 7504 C 738.796 -2.59851 -2.49009 0
M  V30 7505 C 738.404 -4.02008 -1.97722 0
M  V30 7506 C 740.148 -2.71746 -3.2612 0
M  V30 7507 C 738.055 -5.05693 -3.0664 0
M  V30 7508 H 736.985 -0.549068 -0.51676 0
M  V30 7509 H 739.636 -1.71009 -0.665437 0
M  V30 7510 H 738.018 -2.29671 -3.22594 0
M  V30 7511 H 739.192 -4.41809 -1.30925 0
M  V30 7512 H 737.507 -3.94456 -1.33392 0
M  V30 7513 H 740.104 -3.46382 -4.07337 0
M  V30 7514 H 740.447 -1.77959 -3.76346 0
M  V30 7515 H 740.98 -3.01392 -2.5963 0
M  V30 7516 H 737.719 -6.01148 -2.61345 0
M  V30 7517 H 737.239 -4.70473 -3.72042 0
M  V30 7518 H 738.918 -5.29906 -3.71226 0
M  V30 7519 N 739.05 0.861098 -1.31996 0
M  V30 7520 C 740.461 1.43065 -1.19955 0
M  V30 7521 C 740.812 1.95273 0.190489 0
M  V30 7522 O 739.937 1.87012 1.08882 0
M  V30 7523 C 740.532 2.60052 -2.1716 0
M  V30 7524 C 739.091 3.13026 -2.09026 0
M  V30 7525 C 738.238 1.85756 -2.05888 0
M  V30 7526 H 741.189 0.668834 -1.43918 0
M  V30 7527 H 741.21 3.37016 -1.76637 0
M  V30 7528 H 740.722 2.22024 -3.18319 0
M  V30 7529 H 738.823 3.55653 -1.11092 0
M  V30 7530 H 738.936 3.74707 -2.98549 0
M  V30 7531 H 737.3 2.05088 -1.51033 0
M  V30 7532 H 738.083 1.49954 -3.08818 0
M  V30 7533 N 740.528 1.15101 1.07655 0
M  V30 7534 C 741.774 0.935313 1.8062 0
M  V30 7535 C 742.129 -0.532052 1.84897 0
M  V30 7536 O 741.422 -1.3893 1.31943 0
M  V30 7537 C 741.616 1.47954 3.25337 0
M  V30 7538 C 741.445 2.99829 3.35161 0
M  V30 7539 C 740.215 3.68348 3.45902 0
M  V30 7540 C 742.413 3.97638 3.26173 0
M  V30 7541 N 740.395 5.08062 3.44596 0
M  V30 7542 C 741.766 5.23651 3.31949 0
M  V30 7543 C 743.821 3.89651 3.09962 0
M  V30 7544 C 742.524 6.42609 3.23182 0
M  V30 7545 C 744.55 5.08164 3.02528 0
M  V30 7546 C 743.912 6.3305 3.08913 0
M  V30 7547 H 740.011 0.395876 0.674393 0
M  V30 7548 H 742.595 1.4625 1.28526 0
M  V30 7549 H 740.766 0.979022 3.75859 0
M  V30 7550 H 742.498 1.20298 3.86407 0
M  V30 7551 H 739.253 3.18928 3.50117 0
M  V30 7552 H 739.677 5.81023 3.47479 0
M  V30 7553 H 744.319 2.93966 3.03881 0
M  V30 7554 H 742.037 7.38531 3.28022 0
M  V30 7555 H 745.623 5.03742 2.91093 0
M  V30 7556 H 744.503 7.23214 3.03201 0
M  V30 7557 N 742.006 -1.2595 0.947325 0
M  V30 7558 C 743.255 -1.92759 0.593887 0
M  V30 7559 C 743.568 -1.75083 -0.872093 0
M  V30 7560 O 744.774 -2.36401 -1.33518 0
M  V30 7561 C 743.23 -3.45395 1.01144 0
M  V30 7562 C 742.838 -3.71795 2.49946 0
M  V30 7563 C 744.582 -4.18173 0.730185 0
M  V30 7564 C 742.489 -5.17901 2.85539 0
M  V30 7565 H 741.419 -0.721676 0.218403 0
M  V30 7566 H 744.07 -1.4293 1.15079 0
M  V30 7567 H 742.452 -3.94143 0.383007 0
M  V30 7568 H 743.626 -3.33728 3.17746 0
M  V30 7569 H 741.941 -3.12263 2.75465 0
M  V30 7570 H 744.538 -5.25784 0.972367 0
M  V30 7571 H 744.881 -4.14964 -0.333223 0
M  V30 7572 H 745.414 -3.75309 1.31862 0
M  V30 7573 H 742.153 -5.26216 3.90867 0
M  V30 7574 H 741.673 -5.57042 2.22406 0
M  V30 7575 H 743.352 -5.8596 2.74336 0
M  V30 7576 N 743.484 -0.715051 -1.40445 0
M  V30 7577 C 744.709 -0.26254 -2.05732 0
M  V30 7578 C 745.134 1.08691 -1.53519 0
M  V30 7579 O 744.492 1.68453 -0.670328 0
M  V30 7580 C 744.54 -0.25195 -3.59719 0
M  V30 7581 O 743.644 0.766998 -4.05205 0
M  V30 7582 H 742.985 -0.123398 -0.652433 0
M  V30 7583 H 745.515 -0.975382 -1.79854 0
M  V30 7584 H 745.525 -0.0894537 -4.07902 0
M  V30 7585 H 744.2 -1.23672 -3.97087 0
M  V30 7586 H 742.777 0.572269 -3.68483 0
M  V30 7587 N 744.962 1.50701 -0.461195 0
M  V30 7588 C 745.894 2.26124 0.374244 0
M  V30 7589 C 746.907 1.31064 0.965715 0
M  V30 7590 O 748.096 1.56647 0.855801 0
M  V30 7591 C 745.196 3.01996 1.5379 0
M  V30 7592 C 744.369 4.24336 1.06101 0
M  V30 7593 C 743.428 4.82585 2.09756 0
M  V30 7594 O 742.454 5.43775 1.68219 0
M  V30 7595 N 743.656 4.68712 3.42475 0
M  V30 7596 H 746.421 2.9846 -0.2723 0
M  V30 7597 H 743.982 1.59256 -0.291415 0
M  V30 7598 H 745.974 3.37846 2.22806 0
M  V30 7599 H 744.544 2.32521 2.08933 0
M  V30 7600 H 743.764 3.93707 0.197085 0
M  V30 7601 H 745.052 5.03678 0.720156 0
M  V30 7602 H 744.45 4.20026 3.78938 0
M  V30 7603 H 743.007 5.08858 4.07317 0
M  V30 7604 N 746.441 0.193421 1.56409 0
M  V30 7605 C 747.669 -0.451438 2.01915 0
M  V30 7606 C 748.084 -1.55306 1.07357 0
M  V30 7607 O 747.441 -1.82333 0.0781512 0
M  V30 7608 C 747.492 -1.00931 3.47124 0
M  V30 7609 O 747.213 0.0483623 4.38073 0
M  V30 7610 C 748.714 -1.73021 4.0814 0
M  V30 7611 H 745.934 -0.113495 0.661332 0
M  V30 7612 H 748.478 0.301636 2.02263 0
M  V30 7613 H 746.633 -1.71277 3.47481 0
M  V30 7614 H 747.047 -0.366644 5.23217 0
M  V30 7615 H 748.521 -2.07289 5.11601 0
M  V30 7616 H 748.998 -2.6333 3.51502 0
M  V30 7617 H 749.604 -1.07264 4.11551 0
M  V30 7618 N 747.919 -1.57396 -0.0801906 0
M  V30 7619 C 748.869 -1.9955 -1.10289 0
M  V30 7620 C 749.853 -0.876234 -1.34948 0
M  V30 7621 O 751.045 -1.14012 -1.35389 0
M  V30 7622 C 748.174 -2.43596 -2.419 0
M  V30 7623 C 747.26 -3.6224 -2.20551 0
M  V30 7624 N 747.651 -4.76693 -1.69109 0
M  V30 7625 C 745.949 -3.68627 -2.51059 0
M  V30 7626 C 746.65 -5.58577 -1.62379 0
M  V30 7627 N 745.626 -5.02178 -2.0813 0
M  V30 7628 H 749.428 -2.85483 -0.698335 0
M  V30 7629 H 746.942 -1.59837 -0.287395 0
M  V30 7630 H 748.939 -2.72031 -3.15919 0
M  V30 7631 H 747.599 -1.59047 -2.8308 0
M  V30 7632 H 748.61 -4.9915 -1.38092 0
M  V30 7633 H 745.287 -2.94772 -2.95661 0
M  V30 7634 H 746.677 -6.60447 -1.2353 0
M  V30 7635 N 749.397 0.351382 -1.53633 0
M  V30 7636 C 750.627 1.11113 -1.74176 0
M  V30 7637 C 751.035 1.83084 -0.477154 0
M  V30 7638 O 750.378 1.74941 0.560483 0
M  V30 7639 C 750.44 2.17521 -2.86225 0
M  V30 7640 C 750.104 1.65193 -4.26099 0
M  V30 7641 C 751.101 1.10842 -5.07947 0
M  V30 7642 C 748.786 1.70277 -4.72558 0
M  V30 7643 C 750.78 0.622689 -6.34351 0
M  V30 7644 C 748.467 1.21316 -5.98937 0
M  V30 7645 C 749.465 0.674033 -6.79666 0
M  V30 7646 O 749.153 0.191696 -8.03671 0
M  V30 7647 H 748.885 0.33756 -0.585687 0
M  V30 7648 H 751.439 0.411786 -2.0123 0
M  V30 7649 H 749.669 2.90991 -2.54678 0
M  V30 7650 H 751.358 2.78999 -2.94812 0
M  V30 7651 H 752.124 1.06243 -4.7322 0
M  V30 7652 H 748.003 2.11181 -4.09785 0
M  V30 7653 H 751.547 0.201216 -6.9731 0
M  V30 7654 H 747.444 1.25613 -6.3316 0
M  V30 7655 H 748.212 0.309712 -8.17914 0
M  V30 7656 N 750.875 1.45233 0.611969 0
M  V30 7657 C 752.291 1.29542 0.932251 0
M  V30 7658 C 752.491 0.24523 2.00002 0
M  V30 7659 O 751.547 -0.362333 2.49887 0
M  V30 7660 C 752.86 2.67301 1.37733 0
M  V30 7661 C 754.408 2.75163 1.49178 0
M  V30 7662 C 754.883 4.13437 1.97064 0
M  V30 7663 N 756.374 4.15709 2.04304 0
M  V30 7664 C 757.109 5.19566 2.42568 0
M  V30 7665 N 756.605 6.33771 2.79832 0
M  V30 7666 N 758.398 5.06923 2.42869 0
M  V30 7667 H 750.549 2.12192 -0.0938679 0
M  V30 7668 H 752.812 0.947775 0.0206569 0
M  V30 7669 H 752.518 3.45318 0.666951 0
M  V30 7670 H 752.392 2.95472 2.3447 0
M  V30 7671 H 754.779 1.97453 2.19309 0
M  V30 7672 H 754.86 2.50712 0.507674 0
M  V30 7673 H 754.504 4.91631 1.27521 0
M  V30 7674 H 754.434 4.35277 2.9638 0
M  V30 7675 H 756.925 3.33293 1.78113 0
M  V30 7676 H 757.238 7.08815 3.07898 0
M  V30 7677 H 755.583 6.37179 2.77538 0
M  V30 7678 H 758.774 4.1675 2.1316 0
M  V30 7679 H 758.947 5.87981 2.72364 0
M  V30 7680 N 752.353 -0.854086 1.3245 0
M  V30 7681 C 753.583 -1.63836 1.25862 0
M  V30 7682 C 753.991 -1.88383 -0.175588 0
M  V30 7683 O 753.334 -1.45353 -1.1233 0
M  V30 7684 C 753.396 -3.02068 1.94923 0
M  V30 7685 C 753.06 -3.0056 3.44257 0
M  V30 7686 C 754.057 -2.77368 4.39731 0
M  V30 7687 C 751.742 -3.21177 3.862 0
M  V30 7688 C 753.736 -2.74797 5.75122 0
M  V30 7689 C 751.423 -3.18234 5.217 0
M  V30 7690 C 752.421 -2.95072 6.15972 0
M  V30 7691 O 752.109 -2.92003 7.48992 0
M  V30 7692 H 751.841 -0.517007 0.435523 0
M  V30 7693 H 754.395 -1.07314 1.75137 0
M  V30 7694 H 752.625 -3.60382 1.40219 0
M  V30 7695 H 754.314 -3.62791 1.82037 0
M  V30 7696 H 755.08 -2.61205 4.08653 0
M  V30 7697 H 750.959 -3.38231 3.13243 0
M  V30 7698 H 754.503 -2.56638 6.48678 0
M  V30 7699 H 750.4 -3.33941 5.52407 0
M  V30 7700 H 751.168 -3.07953 7.58358 0
M  V30 7701 N 753.831 -1.1567 -1.07043 0
M  V30 7702 C 755.077 -0.9349 -1.79965 0
M  V30 7703 C 755.41 0.536464 -1.86643 0
M  V30 7704 O 754.685 1.39781 -1.35247 0
M  V30 7705 C 754.968 -1.55371 -3.24857 0
M  V30 7706 C 754.821 -3.09589 -3.26305 0
M  V30 7707 C 756.14 -1.24209 -4.22209 0
M  V30 7708 H 753.259 -0.341061 -0.653335 0
M  V30 7709 H 755.901 -1.42883 -1.25237 0
M  V30 7710 H 754.051 -1.13368 -3.71591 0
M  V30 7711 H 755.723 -3.60521 -2.87789 0
M  V30 7712 H 753.966 -3.43315 -2.65174 0
M  V30 7713 H 754.637 -3.48002 -4.28484 0
M  V30 7714 H 757.113 -1.60548 -3.8388 0
M  V30 7715 H 755.989 -1.70119 -5.21872 0
M  V30 7716 H 756.25 -0.15964 -4.41812 0
M  V30 7717 N 755.309 1.25446 -0.953992 0
M  V30 7718 C 756.272 2.24156 -0.478179 0
M  V30 7719 C 757.272 1.55278 0.417776 0
M  V30 7720 O 758.462 1.72866 0.215155 0
M  V30 7721 C 755.594 3.39495 0.309202 0
M  V30 7722 H 756.787 2.67764 -1.35064 0
M  V30 7723 H 754.34 1.37822 -0.737206 0
M  V30 7724 H 755.075 3.01307 1.19936 0
M  V30 7725 H 754.86 3.90679 -0.333562 0
M  V30 7726 H 756.35 4.12796 0.631594 0
M  V30 7727 N 756.787 0.722489 1.40064 0
M  V30 7728 C 758.012 0.273446 2.05589 0
M  V30 7729 C 758.437 -1.07875 1.54093 0
M  V30 7730 O 757.795 -1.68095 0.679252 0
M  V30 7731 C 757.843 0.271023 3.5958 0
M  V30 7732 O 756.947 -0.745499 4.05606 0
M  V30 7733 H 756.288 0.126856 0.65177 0
M  V30 7734 H 758.818 0.984906 1.79334 0
M  V30 7735 H 758.828 0.111084 4.07849 0
M  V30 7736 H 757.503 1.25776 3.96425 0
M  V30 7737 H 756.08 -0.552719 3.68781 0
M  V30 7738 N 758.265 -1.50454 0.469181 0
M  V30 7739 C 759.542 -1.9504 -0.147955 0
M  V30 7740 C 759.922 -1.40946 -1.57154 0
M  V30 7741 O 759.27 -0.609663 -2.20217 0
M  V30 7742 C 759.48 -3.48875 -0.0932198 0
M  V30 7743 C 760.828 -4.23655 -0.283056 0
M  V30 7744 O 761.852 -3.55795 -0.169892 0
M  V30 7745 O 760.711 -5.44102 -0.511396 0
M  V30 7746 H 757.805 -0.819283 -0.11271 0
M  V30 7747 H 760.351 -1.6123 0.529446 0
M  V30 7748 H 759.123 -3.80791 0.900784 0
M  V30 7749 H 758.746 -3.89217 -0.812161 0
M  V30 7750 N 759.743 -0.201713 -1.56304 0
M  V30 7751 C 760.653 0.728296 -2.23009 0
M  V30 7752 C 761.669 1.22945 -1.23128 0
M  V30 7753 O 762.845 1.27523 -1.55884 0
M  V30 7754 C 759.91 1.92792 -2.88153 0
M  V30 7755 C 758.971 1.47068 -4.03323 0
M  V30 7756 C 758.204 2.61312 -4.65351 0
M  V30 7757 O 758.427 3.7896 -4.26317 0
M  V30 7758 O 757.361 2.33646 -5.54701 0
M  V30 7759 H 761.187 0.190166 -3.03104 0
M  V30 7760 H 758.772 0.0278725 -1.49374 0
M  V30 7761 H 760.654 2.6289 -3.29343 0
M  V30 7762 H 759.329 2.45452 -2.11033 0
M  V30 7763 H 758.236 0.738299 -3.66742 0
M  V30 7764 H 759.569 0.990666 -4.82127 0
M  V30 7765 N 761.222 1.57436 0.0718424 0
M  V30 7766 C 762.452 1.91196 0.782795 0
M  V30 7767 C 762.86 0.795927 1.71644 0
M  V30 7768 O 762.203 -0.239604 1.82131 0
M  V30 7769 C 762.265 3.20421 1.63005 0
M  V30 7770 C 761.929 4.48724 0.865782 0
M  V30 7771 C 762.926 5.19571 0.185051 0
M  V30 7772 C 760.611 4.95345 0.832971 0
M  V30 7773 C 762.605 6.3529 -0.518264 0
M  V30 7774 C 760.292 6.1097 0.125884 0
M  V30 7775 C 761.29 6.80794 -0.548533 0
M  V30 7776 O 760.978 7.94213 -1.24423 0
M  V30 7777 H 760.71 0.636486 0.227731 0
M  V30 7778 H 763.264 2.05348 0.0464187 0
M  V30 7779 H 761.494 3.02478 2.40923 0
M  V30 7780 H 763.183 3.39831 2.21968 0
M  V30 7781 H 763.949 4.8458 0.201707 0
M  V30 7782 H 759.828 4.40871 1.34737 0
M  V30 7783 H 763.372 6.89725 -1.04523 0
M  V30 7784 H 759.269 6.45411 0.107155 0
M  V30 7785 H 760.037 8.10331 -1.1535 0
M  V30 7786 N 762.7 -0.34323 1.53817 0
M  V30 7787 C 763.928 -1.10348 1.75017 0
M  V30 7788 C 764.343 -1.82345 0.489475 0
M  V30 7789 O 763.7 -1.74362 -0.538886 0
M  V30 7790 C 763.751 -2.11672 2.93048 0
M  V30 7791 O 763.472 -1.42603 4.14241 0
M  V30 7792 C 764.973 -3.0007 3.26301 0
M  V30 7793 H 762.193 -0.329056 0.584776 0
M  V30 7794 H 764.737 -0.395339 2.00642 0
M  V30 7795 H 762.892 -2.78051 2.69753 0
M  V30 7796 H 763.306 -2.10294 4.80496 0
M  V30 7797 H 764.78 -3.67101 4.12239 0
M  V30 7798 H 765.257 -3.66105 2.42618 0
M  V30 7799 H 765.863 -2.3928 3.51604 0
M  V30 7800 N 764.178 -1.45556 -0.604258 0
M  V30 7801 C 765.141 -1.54091 -1.69672 0
M  V30 7802 C 766.141 -0.420076 -1.55216 0
M  V30 7803 O 767.331 -0.683671 -1.60224 0
M  V30 7804 C 764.463 -1.44063 -3.08964 0
M  V30 7805 H 765.656 -2.51431 -1.6347 0
M  V30 7806 H 763.209 -1.33046 -0.820273 0
M  V30 7807 H 763.944 -0.479201 -3.2074 0
M  V30 7808 H 763.729 -2.25362 -3.20865 0
M  V30 7809 H 765.219 -1.53075 -3.88533 0
M  V30 7810 N 765.656 0.84705 -1.32902 0
M  V30 7811 C 766.904 1.5986 -1.2365 0
M  V30 7812 C 767.225 1.93974 0.199789 0
M  V30 7813 O 766.495 1.60273 1.12648 0
M  V30 7814 H 765.075 0.592696 -0.454665 0
M  V30 7815 H 767.737 1.01278 -1.66519 0
M  V30 7816 H 766.833 2.53218 -1.82448 0
M  V30 7817 N 767.134 1.16236 1.06428 0
M  V30 7818 C 768.382 0.941171 1.78847 0
M  V30 7819 C 768.703 -0.53248 1.87589 0
M  V30 7820 O 767.973 -1.38686 1.38358 0
M  V30 7821 H 766.553 0.345228 0.66244 0
M  V30 7822 H 769.215 1.46479 1.28569 0
M  V30 7823 H 768.311 1.35871 2.80972 0
M  V30 7824 N 768.612 -1.24939 0.960631 0
M  V30 7825 C 769.859 -1.92818 0.618663 0
M  V30 7826 C 770.187 -1.75177 -0.845173 0
M  V30 7827 O 769.442 -1.09412 -1.62258 0
M  V30 7828 C 769.741 -3.45066 0.930809 0
M  V30 7829 C 769.407 -3.82869 2.38164 0
M  V30 7830 C 768.069 -3.92899 2.7782 0
M  V30 7831 C 770.421 -4.01483 3.32356 0
M  V30 7832 C 767.749 -4.18955 4.10723 0
M  V30 7833 C 770.101 -4.29033 4.6488 0
M  V30 7834 C 768.765 -4.37282 5.04322 0
M  V30 7835 H 768.035 -0.705571 0.226385 0
M  V30 7836 H 770.682 -1.48365 1.21079 0
M  V30 7837 H 768.987 -3.9096 0.256355 0
M  V30 7838 H 770.684 -3.95783 0.644712 0
M  V30 7839 H 767.274 -3.75622 2.06413 0
M  V30 7840 H 771.458 -3.93143 3.02907 0
M  V30 7841 H 766.714 -4.23558 4.40918 0
M  V30 7842 H 770.888 -4.42381 5.3784 0
M  V30 7843 H 768.515 -4.57225 6.0733 0
M  V30 7844 N 770.09 -0.729906 -1.39679 0
M  V30 7845 C 771.339 -0.272534 -1.9985 0
M  V30 7846 C 771.652 1.14519 -1.58571 0
M  V30 7847 O 772.858 1.70182 -2.11543 0
M  V30 7848 C 771.314 -0.436322 -3.57245 0
M  V30 7849 C 770.922 -1.86161 -4.0749 0
M  V30 7850 C 772.666 -0.0404679 -4.24481 0
M  V30 7851 C 770.573 -1.97522 -5.5744 0
M  V30 7852 H 769.503 -0.0981428 -0.747585 0
M  V30 7853 H 772.154 -0.903056 -1.59741 0
M  V30 7854 H 770.536 0.263015 -3.95126 0
M  V30 7855 H 771.71 -2.59248 -3.80955 0
M  V30 7856 H 770.025 -2.21021 -3.529 0
M  V30 7857 H 772.622 -0.104437 -5.34598 0
M  V30 7858 H 772.965 1.00357 -4.04023 0
M  V30 7859 H 773.498 -0.690774 -3.91757 0
M  V30 7860 H 770.237 -3.00096 -5.82771 0
M  V30 7861 H 769.757 -1.28864 -5.85794 0
M  V30 7862 H 771.436 -1.754 -6.22771 0
M  V30 7863 N 771.568 1.50203 -0.477153 0
M  V30 7864 C 772.796 2.0677 0.0732489 0
M  V30 7865 C 773.211 1.34033 1.32968 0
M  V30 7866 O 772.568 0.411412 1.77802 0
M  V30 7867 C 772.619 3.59751 0.35518 0
M  V30 7868 O 772.34 4.29747 -0.851425 0
M  V30 7869 C 773.841 4.3296 0.951877 0
M  V30 7870 H 771.061 0.670929 -0.00978923 0
M  V30 7871 H 773.605 1.93293 -0.667676 0
M  V30 7872 H 771.76 3.7301 1.04605 0
M  V30 7873 H 772.174 5.2106 -0.599708 0
M  V30 7874 H 773.648 5.40952 1.09888 0
M  V30 7875 H 774.125 3.93856 1.94356 0
M  V30 7876 H 774.731 4.24246 0.299208 0
M  V30 7877 N 773.046 0.209999 1.56195 0
M  V30 7878 C 774.286 -0.4268 1.99894 0
M  V30 7879 C 774.65 -1.57763 1.0943 0
M  V30 7880 O 775.851 -2.27964 1.42428 0
M  V30 7881 C 774.122 -0.861188 3.46869 0
M  V30 7882 S 775.681 -1.49372 4.12593 0
M  V30 7883 H 772.499 -0.135922 0.697887 0
M  V30 7884 H 775.101 0.316573 1.9292 0
M  V30 7885 H 773.805 -0.0137653 4.10398 0
M  V30 7886 H 773.336 -1.63766 3.57693 0
M  V30 7887 H 775.351 -2.7827 4.10829 0
M  V30 7888 N 774.524 -1.57472 -0.0634922 0
M  V30 7889 C 775.77 -1.88792 -0.756903 0
M  V30 7890 C 776.125 -0.804679 -1.74765 0
M  V30 7891 O 775.418 0.19033 -1.90652 0
M  V30 7892 C 775.612 -3.24521 -1.49736 0
M  V30 7893 C 775.441 -4.45946 -0.579833 0
M  V30 7894 C 774.211 -5.04848 -0.213667 0
M  V30 7895 C 776.409 -5.14143 0.12703 0
M  V30 7896 N 774.391 -6.09795 0.708712 0
M  V30 7897 C 775.762 -6.1334 0.906295 0
M  V30 7898 C 777.817 -4.97508 0.197625 0
M  V30 7899 C 776.52 -6.97697 1.74961 0
M  V30 7900 C 778.546 -5.82398 1.02794 0
M  V30 7901 C 777.908 -6.81139 1.79523 0
M  V30 7902 H 774.007 -0.740235 -0.252142 0
M  V30 7903 H 776.591 -1.94692 -0.0181026 0
M  V30 7904 H 774.762 -3.19615 -2.20683 0
M  V30 7905 H 776.494 -3.43464 -2.14044 0
M  V30 7906 H 773.249 -4.70177 -0.568357 0
M  V30 7907 H 773.673 -6.66929 1.16339 0
M  V30 7908 H 778.315 -4.21077 -0.381261 0
M  V30 7909 H 776.033 -7.73496 2.33943 0
M  V30 7910 H 779.619 -5.71581 1.08565 0
M  V30 7911 H 778.499 -7.45687 2.42736 0
M  V30 7912 N 776.003 0.335068 -1.53997 0
M  V30 7913 C 777.233 1.0926 -1.75345 0
M  V30 7914 C 777.641 1.82568 -0.496545 0
M  V30 7915 O 776.984 1.75525 0.541897 0
M  V30 7916 C 777.046 2.14473 -2.88516 0
M  V30 7917 C 776.71 1.60665 -4.27827 0
M  V30 7918 C 777.707 1.05448 -5.09094 0
M  V30 7919 C 775.392 1.65255 -4.74337 0
M  V30 7920 C 777.386 0.555372 -6.34976 0
M  V30 7921 C 775.073 1.14956 -6.0019 0
M  V30 7922 C 776.071 0.601907 -6.80343 0
M  V30 7923 O 775.759 0.106445 -8.0383 0
M  V30 7924 H 775.491 0.331329 -0.589234 0
M  V30 7925 H 778.045 0.39042 -2.01655 0
M  V30 7926 H 776.275 2.88274 -2.5775 0
M  V30 7927 H 777.964 2.75857 -2.97755 0
M  V30 7928 H 778.73 1.01218 -4.74321 0
M  V30 7929 H 774.609 2.06822 -4.12002 0
M  V30 7930 H 778.153 0.127245 -6.97484 0
M  V30 7931 H 774.05 1.18891 -6.34457 0
M  V30 7932 H 774.818 0.222944 -8.18196 0
M  V30 7933 N 777.481 1.45874 0.596531 0
M  V30 7934 C 778.413 1.51408 1.7207 0
M  V30 7935 C 779.426 0.403738 1.57714 0
M  V30 7936 O 780.615 0.671384 1.65393 0
M  V30 7937 C 777.715 1.3652 3.10186 0
M  V30 7938 C 776.888 2.61428 3.50677 0
M  V30 7939 C 775.947 2.40937 4.67799 0
M  V30 7940 O 774.973 3.14602 4.74357 0
M  V30 7941 N 776.175 1.4621 5.61785 0
M  V30 7942 H 778.94 2.48333 1.67782 0
M  V30 7943 H 776.501 1.41755 0.782129 0
M  V30 7944 H 778.493 1.20606 3.86311 0
M  V30 7945 H 777.063 0.478302 3.08919 0
M  V30 7946 H 776.283 2.92381 2.644 0
M  V30 7947 H 777.571 3.44432 3.74491 0
M  V30 7948 H 776.969 0.854382 5.59211 0
M  V30 7949 H 775.526 1.36264 6.37397 0
M  V30 7950 N 778.959 -0.83999 1.33349 0
M  V30 7951 C 780.187 -1.62728 1.27778 0
M  V30 7952 C 780.602 -1.88191 -0.151505 0
M  V30 7953 O 779.959 -1.46128 -1.09329 0
M  V30 7954 C 780.01 -2.97813 2.04913 0
M  V30 7955 O 779.731 -2.73469 3.42266 0
M  V30 7956 C 781.232 -3.92245 2.0654 0
M  V30 7957 H 778.452 -0.506374 0.440257 0
M  V30 7958 H 780.996 -1.04637 1.75703 0
M  V30 7959 H 779.151 -3.52509 1.60674 0
M  V30 7960 H 779.565 -3.59483 3.81932 0
M  V30 7961 H 781.039 -4.84249 2.64966 0
M  V30 7962 H 781.516 -4.26332 1.05537 0
M  V30 7963 H 782.122 -3.43487 2.50793 0
M  V30 7964 N 780.437 -1.16799 -1.0581 0
M  V30 7965 C 781.385 -0.875111 -2.1551 0
M  V30 7966 C 782.379 0.157781 -1.68664 0
M  V30 7967 O 783.585 0.011297 -1.79996 0
M  V30 7968 H 779.96 -0.26542 -0.703602 0
M  V30 7969 H 781.931 -1.8076 -2.37421 0
M  V30 7970 C 780.68 -0.39802 -3.45414 0
M  V30 7971 H 780.003 -1.18425 -3.81858 0
M  V30 7972 H 781.443 -0.231913 -4.23365 0
M  V30 7973 C 779.902 0.88327 -3.25115 0
M  V30 7974 O 780.432 1.95145 -3.51114 0
M  V30 7975 N 778.638 0.828961 -2.78526 0
M  V30 7976 H 778.185 -0.0405029 -2.57568 0
M  V30 7977 H 778.143 1.68673 -2.65324 0
M  V30 7978 N 781.915 1.24427 -0.967243 0
M  V30 7979 C 783.164 1.91789 -0.624478 0
M  V30 7980 C 783.477 1.76448 0.844129 0
M  V30 7981 O 784.683 2.38495 1.2974 0
M  V30 7982 C 783.139 3.43743 -1.06626 0
M  V30 7983 C 782.747 3.67771 -2.55829 0
M  V30 7984 C 784.491 4.16958 -0.79662 0
M  V30 7985 C 782.398 5.13293 -2.93742 0
M  V30 7986 H 781.328 0.71811 -0.229856 0
M  V30 7987 H 783.979 1.41081 -1.17339 0
M  V30 7988 H 782.361 3.93484 -0.445663 0
M  V30 7989 H 783.535 3.28631 -3.23015 0
M  V30 7990 H 781.85 3.07841 -2.80398 0
M  V30 7991 H 784.447 5.24171 -1.05589 0
M  V30 7992 H 784.79 4.15442 0.267163 0
M  V30 7993 H 785.323 3.73164 -1.37816 0
M  V30 7994 H 782.062 5.19931 -3.9919 0
M  V30 7995 H 781.582 5.53433 -2.3124 0
M  V30 7996 H 783.261 5.81521 -2.83623 0
M  V30 7997 N 783.393 0.737304 1.3929 0
M  V30 7998 C 784.639 0.286681 2.00763 0
M  V30 7999 C 784.972 -1.12388 1.58375 0
M  V30 8000 O 784.247 -1.76661 0.813699 0
M  V30 8001 C 784.53 0.391147 3.57969 0
M  V30 8002 C 784.383 1.84165 4.1037 0
M  V30 8003 C 785.702 -0.225072 4.39524 0
M  V30 8004 H 782.821 0.105642 0.729389 0
M  V30 8005 H 785.463 0.933892 1.65464 0
M  V30 8006 H 783.613 -0.159875 3.88171 0
M  V30 8007 H 785.285 2.44972 3.90879 0
M  V30 8008 H 783.528 2.3622 3.63844 0
M  V30 8009 H 784.199 1.866 5.19504 0
M  V30 8010 H 786.675 0.244677 4.1538 0
M  V30 8011 H 785.551 -0.121646 5.48765 0
M  V30 8012 H 785.812 -1.31141 4.22202 0
M  V30 8013 N 784.871 -1.49948 0.485112 0
M  V30 8014 C 786.117 -2.02695 -0.0651022 0
M  V30 8015 C 786.45 -1.36534 -1.38102 0
M  V30 8016 O 785.725 -0.495677 -1.88078 0
M  V30 8017 C 786.008 -3.59337 -0.234285 0
M  V30 8018 C 785.861 -4.3605 1.10364 0
M  V30 8019 C 787.18 -4.28996 -0.982351 0
M  V30 8020 H 784.299 -0.736666 -0.0221856 0
M  V30 8021 H 786.941 -1.7913 0.633433 0
M  V30 8022 H 785.091 -3.79546 -0.829262 0
M  V30 8023 H 786.763 -4.27377 1.73627 0
M  V30 8024 H 785.006 -3.99236 1.69686 0
M  V30 8025 H 785.677 -5.43959 0.938743 0
M  V30 8026 H 788.153 -4.13346 -0.477904 0
M  V30 8027 H 787.029 -5.38379 -1.06955 0
M  V30 8028 H 787.29 -3.93135 -2.02231 0
M  V30 8029 N 786.349 -0.21828 -1.56081 0
M  V30 8030 C 787.76 0.290166 -1.84431 0
M  V30 8031 C 788.111 1.59712 -1.13958 0
M  V30 8032 O 787.236 2.12516 -0.40815 0
M  V30 8033 C 787.831 0.53325 -3.34577 0
M  V30 8034 C 786.39 0.986011 -3.63256 0
M  V30 8035 C 785.537 0.0472798 -2.7726 0
M  V30 8036 H 788.488 -0.441548 -1.52434 0
M  V30 8037 H 788.509 1.37967 -3.54606 0
M  V30 8038 H 788.021 -0.418137 -3.85841 0
M  V30 8039 H 786.122 1.95087 -3.17446 0
M  V30 8040 H 786.235 0.862684 -4.71269 0
M  V30 8041 H 784.599 0.553471 -2.48614 0
M  V30 8042 H 785.382 -0.898966 -3.31321 0
M  V30 8043 N 787.827 1.57504 0.0551401 0
M  V30 8044 C 788.79 2.03826 1.04821 0
M  V30 8045 C 789.79 0.937968 1.30609 0
M  V30 8046 O 790.98 1.20237 1.2605 0
M  V30 8047 C 788.112 2.43309 2.38775 0
M  V30 8048 H 789.305 2.92802 0.6486 0
M  V30 8049 H 786.858 1.53368 0.301315 0
M  V30 8050 H 787.593 1.5741 2.83536 0
M  V30 8051 H 787.378 3.23615 2.21395 0
M  V30 8052 H 788.868 2.79666 3.10124 0
M  V30 8053 N 789.305 -0.326896 1.54172 0
M  V30 8054 C 790.582 -1.08326 1.62864 0
M  V30 8055 C 790.962 -2.06018 0.46039 0
M  V30 8056 O 790.31 -2.21889 -0.545685 0
M  V30 8057 C 790.52 -1.78816 2.9971 0
M  V30 8058 C 791.868 -2.31958 3.55641 0
M  V30 8059 O 792.892 -1.88888 3.01993 0
M  V30 8060 O 791.751 -3.10801 4.49517 0
M  V30 8061 H 788.845 -0.499131 0.659392 0
M  V30 8062 H 791.391 -0.327054 1.66519 0
M  V30 8063 H 790.163 -1.07739 3.76176 0
M  V30 8064 H 789.786 -2.61255 2.99719 0
M  V30 8065 N 790.784 -1.46188 -0.588786 0
M  V30 8066 C 791.747 -1.55882 -1.68029 0
M  V30 8067 C 792.747 -0.436515 -1.54762 0
M  V30 8068 O 793.937 -0.700626 -1.59489 0
M  V30 8069 C 791.069 -1.47332 -3.07418 0
M  V30 8070 H 792.262 -2.5315 -1.60795 0
M  V30 8071 H 789.815 -1.33908 -0.806116 0
M  V30 8072 H 790.55 -0.513193 -3.20214 0
M  V30 8073 H 790.335 -2.28753 -3.18456 0
M  V30 8074 H 791.825 -1.57187 -3.86887 0
M  V30 8075 N 792.262 0.832906 -1.33792 0
M  V30 8076 C 793.194 1.95042 -1.2038 0
M  V30 8077 C 794.207 1.62253 -0.133299 0
M  V30 8078 O 795.396 1.74315 -0.384261 0
M  V30 8079 C 792.496 3.287 -0.825215 0
M  V30 8080 C 791.669 3.89581 -1.98861 0
M  V30 8081 C 790.728 5.01602 -1.59003 0
M  V30 8082 O 789.754 5.20431 -2.30522 0
M  V30 8083 N 790.956 5.78356 -0.498446 0
M  V30 8084 H 793.721 2.07083 -2.16649 0
M  V30 8085 H 791.282 1.00896 -1.26616 0
M  V30 8086 H 793.274 4.01074 -0.540559 0
M  V30 8087 H 791.844 3.12565 0.0469796 0
M  V30 8088 H 791.064 3.09723 -2.43856 0
M  V30 8089 H 792.352 4.26989 -2.76691 0
M  V30 8090 H 791.75 5.65618 0.0963297 0
M  V30 8091 H 790.307 6.51226 -0.273485 0
M  V30 8092 N 793.74 1.17359 1.05189 0
M  V30 8093 C 794.965 0.98709 1.82404 0
M  V30 8094 C 795.39 -0.459848 1.82392 0
M  V30 8095 O 794.748 -1.32924 1.23292 0
M  V30 8096 C 794.796 1.53276 3.26403 0
M  V30 8097 O 793.9 0.746541 4.05587 0
M  V30 8098 H 793.241 0.35047 0.563974 0
M  V30 8099 H 795.771 1.55856 1.32552 0
M  V30 8100 H 795.781 1.55504 3.77203 0
M  V30 8101 H 794.456 2.58603 3.25726 0
M  V30 8102 H 793.033 0.795671 3.64312 0
M  V30 8103 N 795.218 -1.23913 0.973828 0
M  V30 8104 C 796.443 -1.96735 0.656511 0
M  V30 8105 C 796.868 -1.71682 -0.768571 0
M  V30 8106 O 796.226 -0.984267 -1.52256 0
M  V30 8107 C 796.274 -3.48004 0.944735 0
M  V30 8108 O 795.378 -4.12387 0.0333357 0
M  V30 8109 H 794.719 -0.616119 0.247575 0
M  V30 8110 H 797.249 -1.57525 1.30564 0
M  V30 8111 H 797.259 -3.98424 0.87876 0
M  V30 8112 H 795.934 -3.65567 1.98328 0
M  V30 8113 H 794.511 -3.72585 0.153157 0
M  V30 8114 N 796.696 -0.74468 -1.38897 0
M  V30 8115 C 797.936 -0.301691 -2.02161 0
M  V30 8116 C 798.3 1.09338 -1.57826 0
M  V30 8117 O 799.501 1.63499 -2.13358 0
M  V30 8118 C 797.772 -0.410601 -3.55034 0
M  V30 8119 S 799.331 -0.0488802 -4.38773 0
M  V30 8120 H 796.149 -0.117583 -0.70121 0
M  V30 8121 H 798.751 -0.973334 -1.69548 0
M  V30 8122 H 797.455 -1.42705 -3.8479 0
M  V30 8123 H 796.986 0.278531 -3.92413 0
M  V30 8124 H 799.001 1.16434 -4.82346 0
M  V30 8125 N 798.174 1.49689 -0.493057 0
M  V30 8126 C 799.404 2.06536 0.0512397 0
M  V30 8127 C 799.812 1.35459 1.32089 0
M  V30 8128 O 799.155 0.424145 1.78736 0
M  V30 8129 C 799.217 3.57452 0.383231 0
M  V30 8130 C 798.881 4.50163 -0.787555 0
M  V30 8131 C 799.878 4.92151 -1.67582 0
M  V30 8132 C 797.563 4.92565 -0.984109 0
M  V30 8133 C 799.557 5.7527 -2.74487 0
M  V30 8134 C 797.244 5.75463 -2.05634 0
M  V30 8135 C 798.242 6.16719 -2.93507 0
M  V30 8136 O 797.93 6.97961 -3.98881 0
M  V30 8137 H 797.662 0.675862 -0.0136516 0
M  V30 8138 H 800.216 1.9356 -0.687298 0
M  V30 8139 H 798.446 3.68408 1.17526 0
M  V30 8140 H 800.135 3.96572 0.8652 0
M  V30 8141 H 800.901 4.60043 -1.53575 0
M  V30 8142 H 796.78 4.5996 -0.309541 0
M  V30 8143 H 800.324 6.07392 -3.43104 0
M  V30 8144 H 796.221 6.06983 -2.19639 0
M  V30 8145 H 796.989 7.16253 -3.96137 0
M  V30 8146 N 799.652 0.226554 1.55963 0
M  V30 8147 C 800.901 -0.40417 1.97609 0
M  V30 8148 C 801.214 -1.60541 1.1174 0
M  V30 8149 O 802.42 -2.30598 1.43307 0
M  V30 8150 C 800.876 -0.770466 3.51556 0
M  V30 8151 C 800.484 0.408244 4.46136 0
M  V30 8152 C 802.228 -1.36651 4.01904 0
M  V30 8153 C 800.135 0.0192347 5.91397 0
M  V30 8154 H 799.065 -0.15478 0.737943 0
M  V30 8155 H 801.716 0.323558 1.80625 0
M  V30 8156 H 800.098 -1.55575 3.6416 0
M  V30 8157 H 801.272 1.18575 4.45283 0
M  V30 8158 H 799.587 0.917859 4.06158 0
M  V30 8159 H 802.184 -1.67055 5.07934 0
M  V30 8160 H 802.527 -2.28403 3.48049 0
M  V30 8161 H 803.06 -0.644556 3.92543 0
M  V30 8162 H 799.799 0.90336 6.49245 0
M  V30 8163 H 799.319 -0.722485 5.95433 0
M  V30 8164 H 800.998 -0.405711 6.45727 0
M  V30 8165 N 801.13 -1.57531 -0.0467866 0
M  V30 8166 C 802.063 -2.00734 -1.08541 0
M  V30 8167 C 803.041 -0.888508 -1.36177 0
M  V30 8168 O 804.225 -1.1529 -1.49132 0
M  V30 8169 C 801.352 -2.36535 -2.42423 0
M  V30 8170 C 800.398 -3.58681 -2.3076 0
M  V30 8171 S 801.231 -5.08536 -1.67785 0
M  V30 8172 C 802.387 -5.47562 -3.03194 0
M  V30 8173 H 802.62 -2.88516 -0.717345 0
M  V30 8174 H 800.153 -1.5226 -0.256181 0
M  V30 8175 H 802.111 -2.57834 -3.19424 0
M  V30 8176 H 800.772 -1.49236 -2.76382 0
M  V30 8177 H 799.965 -3.81329 -3.29552 0
M  V30 8178 H 799.567 -3.37142 -1.61899 0
M  V30 8179 H 801.859 -5.47163 -3.99524 0
M  V30 8180 H 802.802 -6.48082 -2.85299 0
M  V30 8181 H 803.21 -4.75042 -3.04951 0
M  V30 8182 N 802.608 0.318715 -1.54344 0
M  V30 8183 C 803.848 1.06425 -1.74508 0
M  V30 8184 C 804.212 1.85087 -0.510572 0
M  V30 8185 O 805.413 2.62253 -0.589647 0
M  V30 8186 C 803.684 1.96054 -2.98827 0
M  V30 8187 S 805.243 2.77493 -3.39916 0
M  V30 8188 H 802.061 0.35921 -0.613587 0
M  V30 8189 H 804.663 0.339679 -1.92526 0
M  V30 8190 H 803.367 1.37109 -3.8682 0
M  V30 8191 H 802.898 2.72908 -2.83346 0
M  V30 8192 H 804.913 3.98544 -2.95596 0
M  V30 8193 N 804.086 1.46499 0.581025 0
M  V30 8194 C 805.333 1.51896 1.33918 0
M  V30 8195 C 805.661 0.171361 1.93744 0
M  V30 8196 O 804.916 -0.833178 1.77078 0
M  V30 8197 C 805.215 2.56686 2.48691 0
M  V30 8198 C 804.881 4.00656 2.06847 0
M  V30 8199 C 803.543 4.39852 1.9515 0
M  V30 8200 C 805.895 4.91089 1.74589 0
M  V30 8201 C 803.223 5.67345 1.49456 0
M  V30 8202 C 805.575 6.1902 1.30373 0
M  V30 8203 C 804.239 6.57121 1.17255 0
M  V30 8204 H 803.509 0.555826 0.490039 0
M  V30 8205 H 806.156 1.79983 0.654092 0
M  V30 8206 H 804.461 2.22266 3.22653 0
M  V30 8207 H 806.158 2.58091 3.06904 0
M  V30 8208 H 802.748 3.69674 2.16886 0
M  V30 8209 H 806.932 4.61523 1.8251 0
M  V30 8210 H 802.188 5.95635 1.37944 0
M  V30 8211 H 806.362 6.8852 1.04467 0
M  V30 8212 H 803.989 7.55805 0.816236 0
M  V30 8213 N 805.565 -0.825799 1.34232 0
M  V30 8214 C 806.811 -1.58419 1.26614 0
M  V30 8215 C 807.144 -1.93503 -0.164341 0
M  V30 8216 O 806.419 -1.59785 -1.109 0
M  V30 8217 C 806.702 -2.8856 2.15418 0
M  V30 8218 C 806.555 -2.60075 3.66989 0
M  V30 8219 C 807.874 -3.90107 2.03726 0
M  V30 8220 H 804.993 -0.574794 0.461282 0
M  V30 8221 H 807.635 -0.951519 1.64457 0
M  V30 8222 H 805.785 -3.42553 1.83275 0
M  V30 8223 H 807.457 -2.12414 4.09485 0
M  V30 8224 H 805.7 -1.93565 3.88221 0
M  V30 8225 H 806.371 -3.52866 4.24488 0
M  V30 8226 H 808.847 -3.45459 2.31942 0
M  V30 8227 H 807.723 -4.78976 2.68092 0
M  V30 8228 H 807.984 -4.30329 1.01337 0
M  V30 8229 N 807.043 -1.17915 -1.04565 0
M  V30 8230 C 808.268 -0.996749 -1.81878 0
M  V30 8231 C 808.693 0.450169 -1.82634 0
M  V30 8232 O 808.051 1.32268 -1.23995 0
M  V30 8233 C 808.099 -1.55005 -3.25585 0
M  V30 8234 O 807.203 -0.76804 -4.05185 0
M  V30 8235 H 806.544 -0.353456 -0.562108 0
M  V30 8236 H 809.074 -1.56557 -1.31723 0
M  V30 8237 H 809.084 -1.57503 -3.76373 0
M  V30 8238 H 807.759 -2.60327 -3.2435 0
M  V30 8239 H 806.336 -0.81498 -3.63885 0
M  V30 8240 N 808.521 1.23394 -0.980386 0
M  V30 8241 C 809.484 2.23092 -0.525619 0
M  V30 8242 C 810.484 1.56129 0.384745 0
M  V30 8243 O 811.674 1.73284 0.178439 0
M  V30 8244 C 808.806 3.40074 0.23712 0
M  V30 8245 H 809.999 2.64839 -1.40714 0
M  V30 8246 H 807.552 1.36227 -0.766275 0
M  V30 8247 H 808.287 3.03783 1.13518 0
M  V30 8248 H 808.072 3.89883 -0.416356 0
M  V30 8249 H 809.562 4.14043 0.543892 0
M  V30 8250 N 809.999 0.752036 1.385 0
M  V30 8251 C 811.239 0.312408 2.01998 0
M  V30 8252 C 811.603 -1.085 1.58404 0
M  V30 8253 O 812.804 -1.62365 2.14222 0
M  V30 8254 C 811.075 0.429423 3.54811 0
M  V30 8255 S 812.634 0.0721487 4.38741 0
M  V30 8256 H 809.452 0.1213 0.700576 0
M  V30 8257 H 812.054 0.982312 1.69029 0
M  V30 8258 H 810.758 1.44743 3.84028 0
M  V30 8259 H 810.289 -0.257716 3.92555 0
M  V30 8260 H 812.304 -1.13875 4.82957 0
M  V30 8261 N 811.477 -1.49425 0.500989 0
M  V30 8262 C 812.425 -2.30771 -0.291149 0
M  V30 8263 C 813.419 -1.3938 -0.962787 0
M  V30 8264 O 814.625 -1.56431 -0.890477 0
M  V30 8265 H 811 -0.743499 -0.11275 0
M  V30 8266 H 812.971 -2.95501 0.414917 0
M  V30 8267 C 811.72 -3.20725 -1.34279 0
M  V30 8268 H 811.043 -3.90975 -0.83538 0
M  V30 8269 H 812.483 -3.80583 -1.86903 0
M  V30 8270 C 810.942 -2.40334 -2.36095 0
M  V30 8271 O 811.472 -2.10749 -3.41976 0
M  V30 8272 N 809.678 -2.02359 -2.08565 0
M  V30 8273 H 809.225 -2.26619 -1.22482 0
M  V30 8274 H 809.183 -1.48878 -2.76916 0
M  V30 8275 N 812.955 -0.234822 -1.55841 0
M  V30 8276 C 814.232 0.442961 -1.90518 0
M  V30 8277 C 814.612 1.76768 -1.15397 0
M  V30 8278 O 813.96 2.26928 -0.267534 0
M  V30 8279 C 814.17 0.622905 -3.43396 0
M  V30 8280 C 815.518 0.9243 -4.14417 0
M  V30 8281 O 816.542 0.709211 -3.49068 0
M  V30 8282 O 815.401 1.33323 -5.29988 0
M  V30 8283 H 812.495 0.236042 -0.792599 0
M  V30 8284 H 815.041 -0.277992 -1.67408 0
M  V30 8285 H 813.813 -0.310973 -3.90062 0
M  V30 8286 H 813.436 1.39485 -3.7233 0
M  V30 8287 N 814.433 1.57553 0.0384317 0
M  V30 8288 C 815.68 1.88841 0.731116 0
M  V30 8289 C 816.008 0.83093 1.75857 0
M  V30 8290 O 815.263 -0.169248 1.94967 0
M  V30 8291 C 815.562 3.26862 1.44554 0
M  V30 8292 C 815.228 4.47472 0.554946 0
M  V30 8293 C 813.89 4.80203 0.309621 0
M  V30 8294 C 816.242 5.21165 -0.0605204 0
M  V30 8295 C 813.57 5.8402 -0.560101 0
M  V30 8296 C 815.922 6.25905 -0.91789 0
M  V30 8297 C 814.586 6.57117 -1.17277 0
M  V30 8298 H 813.856 0.691018 0.267534 0
M  V30 8299 H 816.503 1.91498 -0.00883195 0
M  V30 8300 H 814.808 3.2015 2.25856 0
M  V30 8301 H 816.505 3.48316 1.98688 0
M  V30 8302 H 813.095 4.21874 0.756304 0
M  V30 8303 H 817.279 4.96164 0.116064 0
M  V30 8304 H 812.535 6.06583 -0.765974 0
M  V30 8305 H 816.709 6.82155 -1.40136 0
M  V30 8306 H 814.336 7.37385 -1.84843 0
M  V30 8307 N 815.911 -0.310526 1.54511 0
M  V30 8308 C 817.136 -1.07046 1.7764 0
M  V30 8309 C 817.561 -1.80488 0.529696 0
M  V30 8310 O 816.919 -1.73702 -0.519361 0
M  V30 8311 C 816.967 -2.03411 2.97752 0
M  V30 8312 O 816.071 -3.11545 2.7021 0
M  V30 8313 H 815.412 -0.307994 0.588248 0
M  V30 8314 H 817.942 -0.350848 2.01569 0
M  V30 8315 H 817.952 -2.46048 3.2546 0
M  V30 8316 H 816.627 -1.49361 3.88155 0
M  V30 8317 H 815.204 -2.7349 2.53491 0
M  V30 8318 N 817.389 -1.46805 -0.573248 0
M  V30 8319 C 818.635 -1.5283 -1.33307 0
M  V30 8320 C 818.968 -0.183287 -1.93333 0
M  V30 8321 O 818.243 0.806354 -1.76998 0
M  V30 8322 C 818.526 -2.63414 -2.45531 0
M  V30 8323 C 818.379 -4.07478 -1.90478 0
M  V30 8324 C 819.698 -2.70014 -3.47535 0
M  V30 8325 H 816.817 -0.556371 -0.483343 0
M  V30 8326 H 819.459 -1.78787 -0.643066 0
M  V30 8327 H 817.609 -2.41412 -3.04389 0
M  V30 8328 H 819.281 -4.40795 -1.36004 0
M  V30 8329 H 817.524 -4.16511 -1.21248 0
M  V30 8330 H 818.195 -4.80598 -2.71531 0
M  V30 8331 H 820.671 -2.89817 -2.98572 0
M  V30 8332 H 819.547 -3.49192 -4.23504 0
M  V30 8333 H 819.808 -1.76436 -4.05367 0
M  V30 8334 N 818.867 0.818669 -1.34668 0
M  V30 8335 C 820.283 1.11243 -1.14443 0
M  V30 8336 C 820.483 2.01435 0.0512212 0
M  V30 8337 O 819.539 2.41854 0.725471 0
M  V30 8338 C 820.852 1.75504 -2.4417 0
M  V30 8339 C 822.4 1.8798 -2.50265 0
M  V30 8340 C 822.875 2.55657 -3.80004 0
M  V30 8341 N 824.366 2.63153 -3.81189 0
M  V30 8342 C 825.101 3.16258 -4.78298 0
M  V30 8343 N 824.597 3.69893 -5.85791 0
M  V30 8344 N 826.39 3.14698 -4.65748 0
M  V30 8345 H 818.541 0.218848 -2.1127 0
M  V30 8346 H 820.804 0.159655 -0.934459 0
M  V30 8347 H 820.51 1.16697 -3.31775 0
M  V30 8348 H 820.384 2.75329 -2.57825 0
M  V30 8349 H 822.771 2.45934 -1.63096 0
M  V30 8350 H 822.852 0.870447 -2.40535 0
M  V30 8351 H 822.496 1.98356 -4.67565 0
M  V30 8352 H 822.426 3.57105 -3.87019 0
M  V30 8353 H 824.917 2.2514 -3.03513 0
M  V30 8354 H 825.23 4.08678 -6.55898 0
M  V30 8355 H 823.575 3.68125 -5.89499 0
M  V30 8356 H 826.766 2.72066 -3.80917 0
M  V30 8357 H 826.939 3.5578 -5.41594 0
M  V30 8358 N 820.346 1.18468 1.03938 0
M  V30 8359 C 821.276 0.936389 2.13902 0
M  V30 8360 C 822.257 -0.126381 1.6963 0
M  V30 8361 O 823.442 0.0264757 1.94182 0
M  V30 8362 C 820.572 0.462729 3.44204 0
M  V30 8363 C 819.526 1.46613 4.02105 0
M  V30 8364 C 818.852 0.84994 5.27902 0
M  V30 8365 C 820.152 2.84323 4.3813 0
M  V30 8366 H 821.846 1.85602 2.3493 0
M  V30 8367 H 819.392 0.893806 1.12903 0
M  V30 8368 H 821.345 0.276382 4.20493 0
M  V30 8369 H 820.069 -0.492477 3.22866 0
M  V30 8370 H 818.728 1.63944 3.27899 0
M  V30 8371 H 818.376 -0.112493 5.02874 0
M  V30 8372 H 818.076 1.51988 5.67603 0
M  V30 8373 H 819.6 0.674152 6.06867 0
M  V30 8374 H 821.014 2.70636 5.054 0
M  V30 8375 H 819.411 3.48012 4.88884 0
M  V30 8376 H 820.481 3.37776 3.47901 0
M  V30 8377 N 821.824 -1.22873 0.986916 0
M  V30 8378 C 822.754 -2.2688 0.552064 0
M  V30 8379 C 823.735 -1.64883 -0.418048 0
M  V30 8380 O 824.92 -1.9171 -0.30999 0
M  V30 8381 C 822.05 -3.47018 -0.139959 0
M  V30 8382 C 821.004 -4.21411 0.748091 0
M  V30 8383 C 820.33 -5.34645 -0.0765132 0
M  V30 8384 C 821.63 -4.80726 2.04206 0
M  V30 8385 H 823.324 -2.63507 1.42143 0
M  V30 8386 H 820.87 -1.26668 0.68492 0
M  V30 8387 H 822.823 -4.18931 -0.455527 0
M  V30 8388 H 821.547 -3.0947 -1.04382 0
M  V30 8389 H 820.206 -3.51325 1.04721 0
M  V30 8390 H 819.854 -4.93339 -0.981109 0
M  V30 8391 H 819.554 -5.85342 0.514606 0
M  V30 8392 H 821.078 -6.09377 -0.386313 0
M  V30 8393 H 822.492 -5.44612 1.79083 0
M  V30 8394 H 820.889 -5.41737 2.5815 0
M  V30 8395 H 821.959 -4.01109 2.72469 0
M  V30 8396 N 823.302 -0.75937 -1.38099 0
M  V30 8397 C 824.249 -0.135508 -2.30402 0
M  V30 8398 C 825.219 0.703356 -1.50473 0
M  V30 8399 O 826.404 0.658287 -1.79084 0
M  V30 8400 C 823.544 0.747228 -3.36913 0
M  V30 8401 C 822.657 -0.106893 -4.31868 0
M  V30 8402 C 821.792 0.779388 -5.25451 0
M  V30 8403 C 820.831 -0.0780179 -6.1205 0
M  V30 8404 N 819.968 0.765545 -6.97914 0
M  V30 8405 H 824.808 -0.9282 -2.83176 0
M  V30 8406 H 822.345 -0.46935 -1.39411 0
M  V30 8407 H 824.303 1.27371 -3.97281 0
M  V30 8408 H 822.933 1.50565 -2.85535 0
M  V30 8409 H 821.985 -0.751063 -3.72912 0
M  V30 8410 H 823.297 -0.768798 -4.9284 0
M  V30 8411 H 822.451 1.37282 -5.90964 0
M  V30 8412 H 821.19 1.47501 -4.6486 0
M  V30 8413 H 820.195 -0.684078 -5.45528 0
M  V30 8414 H 821.42 -0.770786 -6.74712 0
M  V30 8415 H 819.366 1.44601 -6.39864 0
M  V30 8416 H 819.283 0.160666 -7.55829 0
M  V30 8417 H 820.551 1.34377 -7.6783 0
M  V30 8418 N 824.78 1.49157 -0.508906 0
M  V30 8419 C 826.057 1.95363 0.0961913 0
M  V30 8420 C 826.437 1.45064 1.53362 0
M  V30 8421 O 825.785 0.667835 2.18523 0
M  V30 8422 C 825.995 3.49 0.000688881 0
M  V30 8423 C 827.343 4.24257 0.170632 0
M  V30 8424 O 828.367 3.5612 0.0754994 0
M  V30 8425 O 827.226 5.45267 0.366957 0
M  V30 8426 H 824.32 0.821984 0.0909489 0
M  V30 8427 H 826.866 1.59769 -0.572007 0
M  V30 8428 H 825.638 3.78269 -1.00143 0
M  V30 8429 H 825.261 3.91233 0.708682 0
M  V30 8430 N 826.258 0.243083 1.55714 0
M  V30 8431 C 827.486 -0.386971 2.03249 0
M  V30 8432 C 827.901 -1.51812 1.12243 0
M  V30 8433 O 827.258 -1.81992 0.136119 0
M  V30 8434 C 827.309 -0.898361 3.5016 0
M  V30 8435 O 827.03 0.187708 4.37698 0
M  V30 8436 C 828.531 -1.59949 4.13438 0
M  V30 8437 H 825.751 -0.0923981 0.664608 0
M  V30 8438 H 828.295 0.365832 2.01201 0
M  V30 8439 H 826.45 -1.60136 3.52754 0
M  V30 8440 H 826.864 -0.200001 5.24119 0
M  V30 8441 H 828.338 -1.90907 5.17937 0
M  V30 8442 H 828.815 -2.52014 3.59702 0
M  V30 8443 H 829.421 -0.941163 4.14756 0
M  V30 8444 N 827.736 -1.57571 -0.0300757 0
M  V30 8445 C 829.147 -1.77567 -0.576802 0
M  V30 8446 C 829.498 -0.874034 -1.75656 0
M  V30 8447 O 828.623 -0.0686124 -2.16291 0
M  V30 8448 C 829.218 -3.22016 -1.05315 0
M  V30 8449 C 827.777 -3.43212 -1.5454 0
M  V30 8450 C 826.924 -2.73061 -0.483033 0
M  V30 8451 H 829.875 -1.57483 0.196151 0
M  V30 8452 H 829.896 -3.28474 -1.92055 0
M  V30 8453 H 829.408 -3.87613 -0.194298 0
M  V30 8454 H 827.509 -2.82788 -2.42615 0
M  V30 8455 H 827.622 -4.5182 -1.5936 0
M  V30 8456 H 825.986 -2.36805 -0.937835 0
M  V30 8457 H 826.769 -3.4134 0.366341 0
M  V30 8458 N 829.214 0.302327 -1.54673 0
M  V30 8459 C 830.461 1.0377 -1.73891 0
M  V30 8460 C 830.789 1.87309 -0.523979 0
M  V30 8461 O 830.044 1.8936 0.494084 0
M  V30 8462 C 830.343 1.97365 -2.97963 0
M  V30 8463 C 830.009 1.29812 -4.3181 0
M  V30 8464 C 828.671 1.11121 -4.68194 0
M  V30 8465 C 831.023 0.815073 -5.14787 0
M  V30 8466 C 828.351 0.428077 -5.85136 0
M  V30 8467 C 830.703 0.145665 -6.32432 0
M  V30 8468 C 829.367 -0.0532098 -6.67479 0
M  V30 8469 H 828.637 0.379721 -0.636312 0
M  V30 8470 H 831.284 0.312708 -1.8893 0
M  V30 8471 H 829.589 2.76387 -2.777 0
M  V30 8472 H 831.286 2.54331 -3.10027 0
M  V30 8473 H 827.876 1.45366 -4.03196 0
M  V30 8474 H 832.06 0.947191 -4.87178 0
M  V30 8475 H 827.316 0.262995 -6.10834 0
M  V30 8476 H 831.49 -0.236533 -6.95998 0
M  V30 8477 H 829.117 -0.58456 -7.57949 0
M  V30 8478 N 830.692 1.47107 0.565454 0
M  V30 8479 C 831.941 1.5257 1.31929 0
M  V30 8480 C 832.254 0.189092 1.94684 0
M  V30 8481 O 833.46 0.121657 2.71227 0
M  V30 8482 C 831.916 2.68914 2.39193 0
M  V30 8483 C 831.524 4.09069 1.82665 0
M  V30 8484 C 833.268 2.83663 3.1581 0
M  V30 8485 C 831.175 5.16726 2.87661 0
M  V30 8486 H 830.105 0.567869 0.496025 0
M  V30 8487 H 832.756 1.73361 0.60151 0
M  V30 8488 H 831.138 2.41486 3.13848 0
M  V30 8489 H 832.312 4.46364 1.14438 0
M  V30 8490 H 830.627 3.99135 1.1866 0
M  V30 8491 H 833.224 3.61261 3.94201 0
M  V30 8492 H 833.567 1.91804 3.69482 0
M  V30 8493 H 834.1 3.10821 2.48265 0
M  V30 8494 H 830.839 6.10433 2.38854 0
M  V30 8495 H 830.359 4.83957 3.54324 0
M  V30 8496 H 832.038 5.43319 3.51303 0
M  V30 8497 N 832.17 -0.811516 1.35101 0
M  V30 8498 C 833.395 -1.60499 1.31358 0
M  V30 8499 C 833.82 -1.87793 -0.107383 0
M  V30 8500 O 833.178 -1.46161 -1.07268 0
M  V30 8501 C 833.226 -2.91612 2.12119 0
M  V30 8502 O 832.33 -3.84211 1.49853 0
M  V30 8503 H 831.671 -0.487702 0.450603 0
M  V30 8504 H 834.201 -1.00758 1.7807 0
M  V30 8505 H 834.211 -3.4108 2.23894 0
M  V30 8506 H 832.886 -2.71071 3.15426 0
M  V30 8507 H 831.463 -3.42751 1.46889 0
M  V30 8508 N 833.648 -1.19017 -1.03309 0
M  V30 8509 C 834.58 -0.881847 -2.11556 0
M  V30 8510 C 835.593 0.123711 -1.62329 0
M  V30 8511 O 836.782 -0.105141 -1.7819 0
M  V30 8512 C 833.882 -0.297634 -3.37591 0
M  V30 8513 C 833.055 -1.35072 -4.16022 0
M  V30 8514 C 832.114 -0.780812 -5.20375 0
M  V30 8515 O 831.14 -1.45745 -5.50224 0
M  V30 8516 N 832.342 0.417964 -5.78993 0
M  V30 8517 H 835.107 -1.81359 -2.38598 0
M  V30 8518 H 832.668 -1.0916 -1.19565 0
M  V30 8519 H 834.66 0.097374 -4.04583 0
M  V30 8520 H 833.23 0.538299 -3.0793 0
M  V30 8521 H 832.45 -1.92074 -3.4424 0
M  V30 8522 H 833.738 -2.06044 -4.65213 0
M  V30 8523 H 833.136 0.985281 -5.57054 0
M  V30 8524 H 831.693 0.754802 -6.47415 0
M  V30 8525 N 835.127 1.22348 -0.993418 0
M  V30 8526 C 836.059 2.23626 -0.502404 0
M  V30 8527 C 837.072 1.57739 0.402784 0
M  V30 8528 O 838.261 1.77321 0.204835 0
M  V30 8529 C 835.361 3.37647 0.291118 0
M  V30 8530 C 834.534 4.33121 -0.610332 0
M  V30 8531 C 833.593 5.26035 0.131572 0
M  V30 8532 O 832.619 5.67145 -0.483199 0
M  V30 8533 N 833.821 5.63023 1.41371 0
M  V30 8534 H 836.586 2.66385 -1.37329 0
M  V30 8535 H 834.147 1.36653 -0.868196 0
M  V30 8536 H 836.139 3.96792 0.796107 0
M  V30 8537 H 834.709 2.93967 1.0631 0
M  V30 8538 H 833.929 3.72287 -1.29598 0
M  V30 8539 H 835.217 4.93853 -1.22422 0
M  V30 8540 H 834.615 5.31596 1.93449 0
M  V30 8541 H 833.172 6.24582 1.86388 0
M  V30 8542 N 836.605 0.766683 1.37694 0
M  V30 8543 C 837.553 0.137269 2.32195 0
M  V30 8544 C 838.547 -0.69067 1.54681 0
M  V30 8545 O 839.753 -0.588299 1.70115 0
M  V30 8546 H 836.128 0.0256003 0.751564 0
M  V30 8547 H 838.099 0.950129 2.82869 0
M  V30 8548 C 836.848 -0.731446 3.39919 0
M  V30 8549 H 836.171 -0.103738 3.99665 0
M  V30 8550 H 837.611 -1.13891 4.08417 0
M  V30 8551 C 836.07 -1.87984 2.79578 0
M  V30 8552 O 836.6 -2.97496 2.69924 0
M  V30 8553 N 834.806 -1.6789 2.37195 0
M  V30 8554 H 834.353 -0.788162 2.45246 0
M  V30 8555 H 834.311 -2.44894 1.97165 0
M  V30 8556 N 838.083 -1.48885 0.516809 0
M  V30 8557 C 839.33 -2.02488 -0.0220602 0
M  V30 8558 C 839.658 -1.39513 -1.35523 0
M  V30 8559 O 838.913 -0.52558 -1.8851 0
M  V30 8560 C 839.212 -3.56801 -0.206798 0
M  V30 8561 C 838.878 -4.38496 1.05035 0
M  V30 8562 C 837.54 -4.60538 1.39492 0
M  V30 8563 C 839.892 -4.85909 1.88525 0
M  V30 8564 C 837.22 -5.2724 2.57361 0
M  V30 8565 C 839.572 -5.53909 3.05561 0
M  V30 8566 C 838.236 -5.74193 3.4038 0
M  V30 8567 H 837.506 -0.740956 -0.00807238 0
M  V30 8568 H 840.153 -1.79014 0.680168 0
M  V30 8569 H 838.458 -3.79042 -0.991687 0
M  V30 8570 H 840.155 -3.95885 -0.638447 0
M  V30 8571 H 836.745 -4.2159 0.771984 0
M  V30 8572 H 840.929 -4.68694 1.63218 0
M  V30 8573 H 836.185 -5.41145 2.84556 0
M  V30 8574 H 840.359 -5.89619 3.7057 0
M  V30 8575 H 837.986 -6.25652 4.31814 0
M  V30 8576 N 839.561 -0.251338 -1.55583 0
M  V30 8577 C 840.808 0.372169 -1.99051 0
M  V30 8578 C 841.136 1.57623 -1.13953 0
M  V30 8579 O 840.391 1.94762 -0.191398 0
M  V30 8580 C 840.69 0.821186 -3.47838 0
M  V30 8581 C 840.356 -0.275608 -4.50057 0
M  V30 8582 C 839.018 -0.57683 -4.7773 0
M  V30 8583 C 841.37 -1.01585 -5.11204 0
M  V30 8584 C 838.698 -1.62229 -5.63825 0
M  V30 8585 C 841.05 -2.05087 -5.98433 0
M  V30 8586 C 839.714 -2.35869 -6.24437 0
M  V30 8587 H 838.984 0.136186 -0.728378 0
M  V30 8588 H 841.631 -0.360089 -1.88084 0
M  V30 8589 H 839.936 1.63272 -3.56159 0
M  V30 8590 H 841.633 1.31396 -3.78861 0
M  V30 8591 H 838.223 -0.030697 -4.28589 0
M  V30 8592 H 842.407 -0.79639 -4.89869 0
M  V30 8593 H 837.663 -1.86607 -5.82226 0
M  V30 8594 H 841.837 -2.62934 -6.44855 0
M  V30 8595 H 839.464 -3.17017 -6.90944 0
M  V30 8596 N 841.039 1.57585 0.0217189 0
M  V30 8597 C 841.971 2.03849 1.04777 0
M  V30 8598 C 842.984 0.952558 1.32023 0
M  V30 8599 O 844.173 1.22974 1.29381 0
M  V30 8600 C 841.273 2.40504 2.3877 0
M  V30 8601 C 840.446 3.71566 2.30775 0
M  V30 8602 C 839.505 3.95329 3.47277 0
M  V30 8603 O 838.531 4.66289 3.26441 0
M  V30 8604 N 839.733 3.41536 4.69397 0
M  V30 8605 H 842.498 2.92491 0.653395 0
M  V30 8606 H 840.059 1.60538 0.209527 0
M  V30 8607 H 842.051 2.53532 3.15442 0
M  V30 8608 H 840.621 1.57494 2.70027 0
M  V30 8609 H 839.841 3.68822 1.39155 0
M  V30 8610 H 841.129 4.5753 2.22584 0
M  V30 8611 H 840.527 2.84033 4.89226 0
M  V30 8612 H 839.084 3.59932 5.43408 0
M  V30 8613 N 842.517 -0.29412 1.54831 0
M  V30 8614 C 843.765 -1.02643 1.74094 0
M  V30 8615 C 844.086 -1.87563 0.533402 0
M  V30 8616 O 843.356 -1.9061 -0.452192 0
M  V30 8617 H 841.936 -0.381959 0.641963 0
M  V30 8618 H 844.598 -0.323444 1.92197 0
M  V30 8619 H 843.694 -1.67558 2.63307 0
M  V30 8620 N 843.995 -1.47404 -0.557645 0
M  V30 8621 C 845.406 -1.47872 -1.13977 0
M  V30 8622 C 845.757 -0.233176 -1.94809 0
M  V30 8623 O 844.882 0.661945 -2.06027 0
M  V30 8624 C 845.477 -2.67926 -2.07368 0
M  V30 8625 C 844.036 -2.71354 -2.60852 0
M  V30 8626 C 843.183 -2.40967 -1.37223 0
M  V30 8627 H 846.134 -1.54921 -0.344268 0
M  V30 8628 H 846.155 -2.44871 -2.91236 0
M  V30 8629 H 845.667 -3.58562 -1.48509 0
M  V30 8630 H 843.768 -1.84855 -3.23511 0
M  V30 8631 H 843.881 -3.72032 -3.01876 0
M  V30 8632 H 842.245 -1.91541 -1.67882 0
M  V30 8633 H 843.028 -3.33811 -0.801583 0
M  V30 8634 N 845.473 0.80434 -1.35529 0
M  V30 8635 C 846.719 1.56385 -1.29118 0
M  V30 8636 C 847.052 1.9374 0.133536 0
M  V30 8637 O 846.327 1.6153 1.08344 0
M  V30 8638 C 846.61 2.85097 -2.19981 0
M  V30 8639 C 846.463 2.54204 -3.7108 0
M  V30 8640 C 847.782 3.86817 -2.09907 0
M  V30 8641 H 844.901 0.567382 -0.470368 0
M  V30 8642 H 847.543 0.925235 -1.6595 0
M  V30 8643 H 845.693 3.39594 -1.88701 0
M  V30 8644 H 847.365 2.05872 -4.12813 0
M  V30 8645 H 845.608 1.87364 -3.91251 0
M  V30 8646 H 846.279 3.46068 -4.30048 0
M  V30 8647 H 848.755 3.41725 -2.37409 0
M  V30 8648 H 847.631 4.7465 -2.75678 0
M  V30 8649 H 847.892 4.28663 -1.08171 0
M  V30 8650 N 846.951 1.19563 1.02676 0
M  V30 8651 C 847.861 0.950691 2.14474 0
M  V30 8652 C 848.877 -0.0900219 1.73767 0
M  V30 8653 O 850.053 0.0951063 2.01175 0
M  V30 8654 C 847.118 0.494917 3.43149 0
M  V30 8655 C 846.179 1.60527 3.98158 0
M  V30 8656 C 845.412 1.17115 5.20692 0
M  V30 8657 O 845.635 0.0355937 5.70389 0
M  V30 8658 O 844.569 1.97454 5.68591 0
M  V30 8659 H 848.395 1.88651 2.38001 0
M  V30 8660 H 845.98 0.978635 1.12885 0
M  V30 8661 H 847.862 0.249492 4.20661 0
M  V30 8662 H 846.537 -0.412434 3.21062 0
M  V30 8663 H 845.444 1.90487 3.21971 0
M  V30 8664 H 846.777 2.48925 4.24614 0
M  V30 8665 N 848.429 -1.21819 0.999893 0
M  V30 8666 C 849.706 -1.86318 0.595384 0
M  V30 8667 C 850.086 -1.8965 -0.927143 0
M  V30 8668 O 849.434 -1.3921 -1.81199 0
M  V30 8669 C 849.644 -3.26837 1.22387 0
M  V30 8670 C 850.992 -4.03272 1.32878 0
M  V30 8671 O 852.016 -3.36129 1.1788 0
M  V30 8672 O 850.875 -5.23477 1.56952 0
M  V30 8673 H 847.969 -0.801638 0.203238 0
M  V30 8674 H 850.515 -1.29542 1.09622 0
M  V30 8675 H 849.287 -3.19084 2.26497 0
M  V30 8676 H 848.91 -3.91226 0.709069 0
M  V30 8677 N 849.908 -0.773975 -1.37286 0
M  V30 8678 C 850.871 -0.167974 -2.28584 0
M  V30 8679 C 851.871 0.625662 -1.48129 0
M  V30 8680 O 853.061 0.448924 -1.68316 0
M  V30 8681 C 850.193 0.769364 -3.32105 0
M  V30 8682 H 851.386 -0.972806 -2.83684 0
M  V30 8683 H 848.939 -0.542335 -1.46589 0
M  V30 8684 H 849.674 1.59912 -2.82132 0
M  V30 8685 H 849.459 0.202419 -3.91577 0
M  V30 8686 H 850.949 1.18872 -4.00324 0
M  V30 8687 N 851.386 1.48609 -0.524698 0
M  V30 8688 C 852.635 2.01696 0.0132937 0
M  V30 8689 C 852.948 1.40751 1.35825 0
M  V30 8690 O 854.154 1.85304 1.9843 0
M  V30 8691 C 852.61 3.59824 0.0741012 0
M  V30 8692 C 852.218 4.2975 -1.26564 0
M  V30 8693 C 853.962 4.20774 0.5612 0
M  V30 8694 C 851.869 5.79798 -1.16571 0
M  V30 8695 H 850.799 0.753949 0.00873931 0
M  V30 8696 H 853.45 1.70922 -0.667684 0
M  V30 8697 H 851.832 3.87416 0.820043 0
M  V30 8698 H 853.006 4.13836 -2.02674 0
M  V30 8699 H 851.321 3.80649 -1.68806 0
M  V30 8700 H 853.918 5.30687 0.653853 0
M  V30 8701 H 854.261 3.85734 1.56573 0
M  V30 8702 H 854.794 3.97591 -0.128901 0
M  V30 8703 H 851.533 6.19403 -2.14523 0
M  V30 8704 H 851.053 5.9814 -0.445894 0
M  V30 8705 H 852.732 6.41337 -0.854186 0
M  V30 8706 N 852.864 0.259585 1.55447 0
M  V30 8707 C 854.092 -0.365392 2.03648 0
M  V30 8708 C 854.507 -1.50613 1.13847 0
M  V30 8709 O 853.864 -1.81837 0.155414 0
M  V30 8710 C 853.915 -0.861172 3.51093 0
M  V30 8711 O 853.636 0.234121 4.37474 0
M  V30 8712 C 855.137 -1.55555 4.15111 0
M  V30 8713 H 852.357 -0.0853439 0.66555 0
M  V30 8714 H 854.901 0.387151 2.00802 0
M  V30 8715 H 853.056 -1.56385 3.54433 0
M  V30 8716 H 853.47 -0.1444 5.24301 0
M  V30 8717 H 854.944 -1.85403 5.19932 0
M  V30 8718 H 855.421 -2.48185 3.62355 0
M  V30 8719 H 856.027 -0.89712 4.15731 0
M  V30 8720 N 854.342 -1.57594 -0.0133615 0
M  V30 8721 C 855.305 -2.06534 -0.993799 0
M  V30 8722 C 856.305 -0.972267 -1.28077 0
M  V30 8723 O 857.495 -1.23537 -1.22818 0
M  V30 8724 C 854.627 -2.49554 -2.3224 0
M  V30 8725 H 855.82 -2.94419 -0.570741 0
M  V30 8726 H 853.373 -1.54113 -0.260546 0
M  V30 8727 H 854.108 -1.64872 -2.79263 0
M  V30 8728 H 853.893 -3.29371 -2.12737 0
M  V30 8729 H 855.383 -2.8779 -3.026 0
M  V30 8730 N 855.82 0.285905 -1.54985 0
M  V30 8731 C 856.783 1.33625 -1.86218 0
M  V30 8732 C 857.783 1.42971 -0.735936 0
M  V30 8733 O 858.973 1.42345 -1.00417 0
M  V30 8734 C 856.105 2.71926 -2.05595 0
M  V30 8735 H 857.298 1.07167 -2.80099 0
M  V30 8736 H 854.851 0.523335 -1.47278 0
M  V30 8737 H 855.586 3.03583 -1.14053 0
M  V30 8738 H 855.371 2.6653 -2.87583 0
M  V30 8739 H 856.861 3.47841 -2.31077 0
M  V30 8740 N 857.298 1.47698 0.54982 0
M  V30 8741 C 858.547 1.53961 1.30303 0
M  V30 8742 C 858.86 0.209731 1.94472 0
M  V30 8743 O 860.066 0.150418 2.71083 0
M  V30 8744 C 858.522 2.71436 2.36328 0
M  V30 8745 C 858.13 4.10983 1.78316 0
M  V30 8746 C 859.874 2.86996 3.12783 0
M  V30 8747 C 857.781 5.19747 2.82164 0
M  V30 8748 H 856.711 0.573098 0.489975 0
M  V30 8749 H 859.362 1.73989 0.583089 0
M  V30 8750 H 857.744 2.44801 3.11269 0
M  V30 8751 H 858.918 4.47552 1.09697 0
M  V30 8752 H 857.233 4.00371 1.1442 0
M  V30 8753 H 859.83 3.65422 3.90347 0
M  V30 8754 H 860.173 1.95712 3.67427 0
M  V30 8755 H 860.706 3.13436 2.44954 0
M  V30 8756 H 857.445 6.12932 2.32366 0
M  V30 8757 H 856.965 4.87688 3.49171 0
M  V30 8758 H 858.644 5.47014 3.4552 0
M  V30 8759 N 858.776 -0.797141 1.35954 0
M  V30 8760 C 860.024 -1.55161 1.29497 0
M  V30 8761 C 860.345 -1.94582 -0.127659 0
M  V30 8762 O 859.615 -1.64343 -1.06622 0
M  V30 8763 H 858.195 -0.575413 0.47635 0
M  V30 8764 H 860.857 -0.950282 1.70164 0
M  V30 8765 H 859.953 -2.46272 1.9172 0
M  V30 8766 N 860.254 -1.20106 -1.0204 0
M  V30 8767 C 861.67 -0.955099 -1.27867 0
M  V30 8768 C 861.87 0.367595 -1.98119 0
M  V30 8769 O 860.926 1.09705 -2.27423 0
M  V30 8770 C 862.239 -2.13507 -2.11744 0
M  V30 8771 C 863.787 -2.17563 -2.25023 0
M  V30 8772 C 864.262 -3.35035 -3.12275 0
M  V30 8773 N 865.753 -3.35024 -3.19864 0
M  V30 8774 C 866.488 -4.22566 -3.8759 0
M  V30 8775 N 865.984 -5.20278 -4.57474 0
M  V30 8776 N 867.777 -4.10418 -3.84075 0
M  V30 8777 H 859.928 -2.05193 -0.54861 0
M  V30 8778 H 862.191 -0.897689 -0.304728 0
M  V30 8779 H 861.897 -3.09275 -1.67456 0
M  V30 8780 H 861.771 -2.11281 -3.12474 0
M  V30 8781 H 864.158 -1.22359 -2.68537 0
M  V30 8782 H 864.239 -2.23838 -1.23815 0
M  V30 8783 H 863.883 -4.30522 -2.69468 0
M  V30 8784 H 863.813 -3.25996 -4.13563 0
M  V30 8785 H 866.304 -2.64299 -2.701 0
M  V30 8786 H 866.617 -5.83408 -5.06809 0
M  V30 8787 H 864.962 -5.24219 -4.56311 0
M  V30 8788 H 868.153 -3.33353 -3.28623 0
M  V30 8789 H 868.326 -4.78854 -4.36581 0
M  V30 8790 N 861.732 1.21287 -1.00634 0
M  V30 8791 C 862.978 1.90671 -0.690822 0
M  V30 8792 C 863.311 1.77996 0.776592 0
M  V30 8793 O 862.586 1.15748 1.5631 0
M  V30 8794 C 862.869 3.42426 -1.11428 0
M  V30 8795 C 862.722 3.64086 -2.64124 0
M  V30 8796 C 864.041 4.34851 -0.677686 0
M  V30 8797 H 861.16 0.692419 -0.252439 0
M  V30 8798 H 863.802 1.42893 -1.25226 0
M  V30 8799 H 861.952 3.83249 -0.636586 0
M  V30 8800 H 863.624 3.32582 -3.19667 0
M  V30 8801 H 861.867 3.07906 -3.05576 0
M  V30 8802 H 862.538 4.7042 -2.88806 0
M  V30 8803 H 865.014 4.01619 -1.0882 0
M  V30 8804 H 863.89 5.39675 -1.00213 0
M  V30 8805 H 864.151 4.4009 0.421125 0
M  V30 8806 N 863.21 0.781244 1.36873 0
M  V30 8807 C 864.173 0.180094 2.28491 0
M  V30 8808 C 865.173 -0.617798 1.48458 0
M  V30 8809 O 866.363 -0.439991 1.68552 0
M  V30 8810 C 863.495 -0.751741 3.32508 0
M  V30 8811 H 864.688 0.987837 2.83164 0
M  V30 8812 H 862.241 0.550102 1.463 0
M  V30 8813 H 862.976 -1.58413 2.82977 0
M  V30 8814 H 862.761 -0.181649 3.91679 0
M  V30 8815 H 864.251 -1.16748 4.00949 0
M  V30 8816 N 864.689 -1.48329 0.532571 0
M  V30 8817 C 865.966 -1.95492 -0.0650985 0
M  V30 8818 C 866.346 -1.47485 -1.51034 0
M  V30 8819 O 865.694 -0.702516 -2.17433 0
M  V30 8820 C 865.904 -3.48957 0.0548341 0
M  V30 8821 C 867.252 -4.24475 -0.103115 0
M  V30 8822 O 868.276 -3.56195 -0.0188343 0
M  V30 8823 O 867.135 -5.45781 -0.280164 0
M  V30 8824 H 864.229 -0.823327 -0.0778603 0
M  V30 8825 H 866.775 -1.58839 0.597353 0
M  V30 8826 H 865.547 -3.76628 1.06148 0
M  V30 8827 H 865.17 -3.92311 -0.64635 0
M  V30 8828 N 866.167 -0.267825 -1.55308 0
M  V30 8829 C 867.395 0.354587 -2.03839 0
M  V30 8830 C 867.81 1.50007 -1.14644 0
M  V30 8831 O 867.167 1.81752 -0.165055 0
M  V30 8832 C 867.218 0.84254 -3.51544 0
M  V30 8833 O 866.939 -0.257318 -4.37344 0
M  V30 8834 C 868.44 1.53351 -4.15931 0
M  V30 8835 H 865.66 0.0818131 -0.665994 0
M  V30 8836 H 868.204 -0.397795 -2.00594 0
M  V30 8837 H 866.359 1.54503 -3.55257 0
M  V30 8838 H 866.773 0.116593 -5.2437 0
M  V30 8839 H 868.247 1.82643 -5.20908 0
M  V30 8840 H 868.724 2.4626 -3.63666 0
M  V30 8841 H 869.33 0.87506 -4.162 0
M  V30 8842 N 867.645 1.57599 0.00500368 0
M  V30 8843 C 868.891 1.90631 0.691919 0
M  V30 8844 C 869.224 0.868443 1.737 0
M  V30 8845 O 868.499 -0.113482 1.94169 0
M  V30 8846 C 868.782 3.34255 1.33961 0
M  V30 8847 C 868.635 4.48755 0.306413 0
M  V30 8848 C 869.954 3.77211 2.26715 0
M  V30 8849 H 867.073 0.693279 0.250066 0
M  V30 8850 H 869.715 1.89946 -0.0452634 0
M  V30 8851 H 867.865 3.3497 1.96793 0
M  V30 8852 H 869.537 4.60176 -0.321841 0
M  V30 8853 H 867.78 4.32203 -0.371852 0
M  V30 8854 H 868.451 5.46193 0.798554 0
M  V30 8855 H 870.927 3.78017 1.73904 0
M  V30 8856 H 869.803 4.78466 2.69002 0
M  V30 8857 H 870.064 3.10801 3.14413 0
M  V30 8858 N 869.123 -0.277682 1.55134 0
M  V30 8859 C 870.371 -1.00791 1.75173 0
M  V30 8860 C 870.692 -1.86987 0.553266 0
M  V30 8861 O 869.962 -1.91079 -0.43195 0
M  V30 8862 H 868.542 -0.375129 0.645978 0
M  V30 8863 H 871.204 -0.303041 1.9253 0
M  V30 8864 H 870.3 -1.64756 2.6507 0
M  V30 8865 N 870.601 -1.47988 -0.541979 0
M  V30 8866 C 871.829 -1.59034 -1.32347 0
M  V30 8867 C 872.244 -0.246123 -1.87189 0
M  V30 8868 O 871.601 0.762889 -1.6579 0
M  V30 8869 C 871.652 -2.62759 -2.48274 0
M  V30 8870 O 871.373 -3.91963 -1.95695 0
M  V30 8871 C 872.874 -2.84133 -3.4027 0
M  V30 8872 H 870.094 -0.536574 -0.402901 0
M  V30 8873 H 872.638 -1.93725 -0.655045 0
M  V30 8874 H 870.793 -2.3096 -3.11025 0
M  V30 8875 H 871.207 -4.48769 -2.7149 0
M  V30 8876 H 872.681 -3.60538 -4.17991 0
M  V30 8877 H 873.158 -1.92512 -3.9476 0
M  V30 8878 H 873.764 -3.17188 -2.83322 0
M  V30 8879 N 872.079 0.78992 -1.36375 0
M  V30 8880 C 873.327 1.54472 -1.30319 0
M  V30 8881 C 873.648 1.94647 0.117338 0
M  V30 8882 O 872.918 1.64906 1.05748 0
M  V30 8883 H 871.498 0.572879 -0.479394 0
M  V30 8884 H 874.16 0.941245 -1.70665 0
M  V30 8885 H 873.256 2.45252 -1.93024 0
M  V30 8886 N 873.557 1.20646 1.01402 0
M  V30 8887 C 874.968 1.01823 1.56489 0
M  V30 8888 C 875.319 -0.42463 1.9155 0
M  V30 8889 O 874.444 -1.30644 1.72514 0
M  V30 8890 C 875.039 1.84208 2.84347 0
M  V30 8891 C 873.598 1.69743 3.35953 0
M  V30 8892 C 872.745 1.8198 2.09233 0
M  V30 8893 H 875.696 1.348 0.837539 0
M  V30 8894 H 875.717 1.34698 3.55861 0
M  V30 8895 H 875.229 2.89215 2.58798 0
M  V30 8896 H 873.33 0.673833 3.66456 0
M  V30 8897 H 873.443 2.51173 4.07981 0
M  V30 8898 H 871.807 1.25193 2.21808 0
M  V30 8899 H 872.59 2.88477 1.86107 0
M  V30 8900 N 875.035 -1.20752 1.01276 0
M  V30 8901 C 876.263 -1.94006 0.718976 0
M  V30 8902 C 876.678 -1.74544 -0.719711 0
M  V30 8903 O 876.035 -1.05697 -1.48776 0
M  V30 8904 C 876.086 -3.46208 1.04031 0
M  V30 8905 O 875.807 -3.65031 2.42248 0
M  V30 8906 C 877.308 -4.36614 0.767032 0
M  V30 8907 H 874.528 -0.616743 0.264327 0
M  V30 8908 H 877.072 -1.53352 1.3529 0
M  V30 8909 H 875.227 -3.84756 0.451852 0
M  V30 8910 H 875.641 -4.59054 2.53712 0
M  V30 8911 H 877.115 -5.42076 1.04198 0
M  V30 8912 H 877.592 -4.38182 -0.298851 0
M  V30 8913 H 878.198 -4.03723 1.33746 0
M  V30 8914 N 876.513 -0.788492 -1.36457 0
M  V30 8915 C 877.461 -0.174192 -2.31947 0
M  V30 8916 C 878.455 0.665974 -1.5576 0
M  V30 8917 O 879.661 0.561161 -1.71029 0
M  V30 8918 H 876.036 -0.0375538 -0.751062 0
M  V30 8919 H 878.007 -0.995011 -2.81322 0
M  V30 8920 C 876.756 0.677276 -3.4104 0
M  V30 8921 H 876.079 0.0401418 -3.9978 0
M  V30 8922 H 877.519 1.07379 -4.10178 0
M  V30 8923 C 875.978 1.83512 -2.82533 0
M  V30 8924 O 876.508 2.93164 -2.74623 0
M  V30 8925 N 874.714 1.64095 -2.39836 0
M  V30 8926 H 874.261 0.749046 -2.46469 0
M  V30 8927 H 874.219 2.41726 -2.01037 0
M  V30 8928 N 877.991 1.48044 -0.54043 0
M  V30 8929 C 879.216 2.07396 -0.0124765 0
M  V30 8930 C 879.641 1.39288 1.26414 0
M  V30 8931 O 878.999 0.462252 1.75308 0
M  V30 8932 C 879.047 3.60131 0.18377 0
M  V30 8933 O 878.151 3.92995 1.25014 0
M  V30 8934 H 877.492 0.662554 -0.0438026 0
M  V30 8935 H 880.022 1.90306 -0.751327 0
M  V30 8936 H 880.032 4.06003 0.403197 0
M  V30 8937 H 878.707 4.09105 -0.74874 0
M  V30 8938 H 877.284 3.5889 1.01254 0
M  V30 8939 N 879.47 0.276058 1.55163 0
M  V30 8940 C 880.38 -0.621066 2.2623 0
M  V30 8941 C 881.396 -1.16931 1.28853 0
M  V30 8942 O 882.572 -1.1994 1.61791 0
M  V30 8943 C 879.637 -1.78824 2.97023 0
M  V30 8944 C 878.698 -1.27657 4.09881 0
M  V30 8945 C 877.931 -2.38812 4.77289 0
M  V30 8946 O 878.154 -3.58188 4.43912 0
M  V30 8947 O 877.088 -2.06915 5.65217 0
M  V30 8948 H 880.914 -0.0453346 3.03666 0
M  V30 8949 H 878.499 0.0434275 1.49337 0
M  V30 8950 H 880.381 -2.46877 3.41511 0
M  V30 8951 H 879.056 -2.35104 2.22503 0
M  V30 8952 H 877.963 -0.56248 3.69847 0
M  V30 8953 H 879.296 -0.759509 4.86305 0
M  V30 8954 N 880.948 -1.576 0.00335426 0
M  V30 8955 C 881.911 -2.07576 -0.971838 0
M  V30 8956 C 882.911 -0.985796 -1.27038 0
M  V30 8957 O 884.101 -1.24833 -1.21501 0
M  V30 8958 C 881.233 -2.52003 -2.29581 0
M  V30 8959 H 882.426 -2.95008 -0.539481 0
M  V30 8960 H 879.979 -1.54381 -0.244186 0
M  V30 8961 H 880.714 -1.67825 -2.77498 0
M  V30 8962 H 880.499 -3.31609 -2.09231 0
M  V30 8963 H 881.989 -2.90983 -2.99531 0
M  V30 8964 N 882.426 0.269451 -1.5528 0
M  V30 8965 C 883.675 0.998381 -1.75258 0
M  V30 8966 C 883.988 1.87321 -0.563034 0
M  V30 8967 O 885.194 2.63719 -0.645313 0
M  V30 8968 C 883.65 1.82505 -3.10193 0
M  V30 8969 C 883.258 0.99871 -4.36726 0
M  V30 8970 C 885.002 2.54807 -3.3952 0
M  V30 8971 C 882.909 1.81997 -5.627 0
M  V30 8972 H 881.839 0.376488 -0.653278 0
M  V30 8973 H 884.49 0.253909 -1.81735 0
M  V30 8974 H 882.872 2.61061 -2.97763 0
M  V30 8975 H 884.046 0.257064 -4.60082 0
M  V30 8976 H 882.361 0.390074 -4.14569 0
M  V30 8977 H 884.958 3.16662 -4.30847 0
M  V30 8978 H 885.301 3.25273 -2.59813 0
M  V30 8979 H 885.834 1.83278 -3.53064 0
M  V30 8980 H 882.573 1.15945 -6.45164 0
M  V30 8981 H 882.093 2.53749 -5.43481 0
M  V30 8982 H 883.772 2.39274 -6.0113 0
M  V30 8983 N 883.904 1.48273 0.534124 0
M  V30 8984 C 885.315 1.49667 1.1161 0
M  V30 8985 C 885.666 0.264139 1.94414 0
M  V30 8986 O 884.791 -0.629084 2.07054 0
M  V30 8987 C 885.386 2.71191 2.03079 0
M  V30 8988 C 883.945 2.7547 2.56502 0
M  V30 8989 C 883.092 2.43119 1.33373 0
M  V30 8990 H 886.043 1.55449 0.319578 0
M  V30 8991 H 886.064 2.49473 2.87304 0
M  V30 8992 H 885.576 3.60879 1.42785 0
M  V30 8993 H 883.677 1.89979 3.20529 0
M  V30 8994 H 883.79 3.76787 2.95919 0
M  V30 8995 H 882.154 1.94187 1.64813 0
M  V30 8996 H 882.937 3.35044 0.748375 0
M  V30 8997 N 885.382 -0.782676 1.36792 0
M  V30 8998 C 886.345 -1.8772 1.31507 0
M  V30 8999 C 887.345 -1.59269 0.221349 0
M  V30 9000 O 888.535 -1.67555 0.476544 0
M  V30 9001 C 885.667 -3.24641 1.04025 0
M  V30 9002 H 886.86 -1.9382 2.28853 0
M  V30 9003 H 884.413 -0.981226 1.21662 0
M  V30 9004 H 885.148 -3.24221 0.0716439 0
M  V30 9005 H 884.933 -3.46681 1.8318 0
M  V30 9006 H 886.423 -4.04711 1.02949 0
M  V30 9007 N 886.86 -1.21182 -1.00761 0
M  V30 9008 C 887.79 -0.992773 -2.11344 0
M  V30 9009 C 888.771 0.0813618 -1.69905 0
M  V30 9010 O 889.956 -0.0779503 -1.94043 0
M  V30 9011 C 887.086 -0.553826 -3.42856 0
M  V30 9012 C 886.04 -1.57223 -3.98077 0
M  V30 9013 C 885.366 -0.989605 -5.25463 0
M  V30 9014 C 886.666 -2.95839 -4.30438 0
M  V30 9015 H 888.36 -1.91766 -2.29927 0
M  V30 9016 H 885.906 -0.923426 -1.10494 0
M  V30 9017 H 887.859 -0.387771 -4.19612 0
M  V30 9018 H 886.583 0.406702 -3.24058 0
M  V30 9019 H 885.242 -1.7258 -3.23437 0
M  V30 9020 H 884.89 -0.0208743 -5.02996 0
M  V30 9021 H 884.59 -1.66984 -5.63374 0
M  V30 9022 H 886.114 -0.834815 -6.04866 0
M  V30 9023 H 887.528 -2.8394 -4.98047 0
M  V30 9024 H 885.925 -3.60851 -4.79486 0
M  V30 9025 H 886.995 -3.46882 -3.38823 0
M  V30 9026 N 888.338 1.20213 -1.01915 0
M  V30 9027 C 889.566 1.93622 -0.729255 0
M  V30 9028 C 889.981 1.74923 0.710444 0
M  V30 9029 O 889.338 1.06484 1.48214 0
M  V30 9030 C 889.389 3.45651 -1.05865 0
M  V30 9031 O 889.11 3.63741 -2.44181 0
M  V30 9032 C 890.611 4.36201 -0.790176 0
M  V30 9033 H 887.831 0.615333 -0.267594 0
M  V30 9034 H 890.375 1.52633 -1.36101 0
M  V30 9035 H 888.53 3.84511 -0.47225 0
M  V30 9036 H 888.944 4.57702 -2.56143 0
M  V30 9037 H 890.418 5.41516 -1.07071 0
M  V30 9038 H 890.895 4.38334 0.275609 0
M  V30 9039 H 891.501 4.03008 -1.35885 0
M  V30 9040 N 889.816 0.795718 1.36037 0
M  V30 9041 C 890.779 0.204318 2.28287 0
M  V30 9042 C 891.779 -0.602017 1.49105 0
M  V30 9043 O 892.969 -0.422089 1.69009 0
M  V30 9044 C 890.101 -0.716431 3.33287 0
M  V30 9045 H 891.294 1.01781 2.821 0
M  V30 9046 H 888.847 0.565588 1.45708 0
M  V30 9047 H 889.582 -1.55403 2.84641 0
M  V30 9048 H 889.367 -0.140096 3.9185 0
M  V30 9049 H 890.857 -1.12488 4.02164 0
M  V30 9050 N 891.294 -1.47756 0.548274 0
M  V30 9051 C 892.257 -2.28379 -0.193857 0
M  V30 9052 C 893.257 -1.36436 -0.850986 0
M  V30 9053 O 894.447 -1.59154 -0.70822 0
M  V30 9054 C 891.579 -3.15858 -1.28243 0
M  V30 9055 H 892.772 -2.95458 0.514231 0
M  V30 9056 H 890.325 -1.53298 0.304879 0
M  V30 9057 H 891.06 -2.5345 -2.0232 0
M  V30 9058 H 890.845 -3.83512 -0.816148 0
M  V30 9059 H 892.335 -3.76627 -1.80393 0
M  V30 9060 N 892.772 -0.284283 -1.55015 0
M  V30 9061 C 893.682 0.60906 -2.26556 0
M  V30 9062 C 894.698 1.16246 -1.29472 0
M  V30 9063 O 895.874 1.1908 -1.62425 0
M  V30 9064 C 892.939 1.77246 -2.97968 0
M  V30 9065 C 892 1.25482 -4.10552 0
M  V30 9066 C 891.233 2.36277 -4.78549 0
M  V30 9067 O 891.456 3.55829 -4.45805 0
M  V30 9068 O 890.39 2.03914 -5.66306 0
M  V30 9069 H 894.216 0.0292298 -3.03686 0
M  V30 9070 H 891.801 -0.0513466 -1.49312 0
M  V30 9071 H 893.683 2.45062 -3.42815 0
M  V30 9072 H 892.358 2.33921 -2.23747 0
M  V30 9073 H 891.265 0.542859 -3.7014 0
M  V30 9074 H 892.598 0.733708 -4.86701 0
M  V30 9075 N 894.251 1.57596 -0.0117121 0
M  V30 9076 C 895.479 1.9536 0.681334 0
M  V30 9077 C 895.894 0.887255 1.66653 0
M  V30 9078 O 895.251 -0.132692 1.82017 0
M  V30 9079 C 895.302 3.33165 1.40298 0
M  V30 9080 O 895.023 4.35707 0.45728 0
M  V30 9081 C 896.524 3.85458 2.18946 0
M  V30 9082 H 893.744 0.643826 0.189023 0
M  V30 9083 H 896.288 2.04392 -0.066311 0
M  V30 9084 H 894.443 3.25404 2.10216 0
M  V30 9085 H 894.857 5.15495 0.96773 0
M  V30 9086 H 896.331 4.84275 2.64918 0
M  V30 9087 H 896.808 3.18781 3.02118 0
M  V30 9088 H 897.414 3.96431 1.5402 0
M  V30 9089 N 895.729 -0.261212 1.5542 0
M  V30 9090 C 896.977 -0.989272 1.76232 0
M  V30 9091 C 897.298 -1.86389 0.573067 0
M  V30 9092 O 896.568 -1.91526 -0.41166 0
M  V30 9093 H 895.148 -0.368256 0.64992 0
M  V30 9094 H 897.81 -0.282603 1.9284 0
M  V30 9095 H 896.906 -1.61935 2.66802 0
M  V30 9096 N 897.207 -1.48554 -0.526253 0
M  V30 9097 C 898.157 -1.59753 -1.62674 0
M  V30 9098 C 899.141 -0.454452 -1.54349 0
M  V30 9099 O 900.333 -0.706091 -1.62306 0
M  V30 9100 C 897.462 -1.64388 -3.01383 0
M  V30 9101 C 896.548 -2.84188 -3.14798 0
M  V30 9102 N 896.939 -4.08564 -2.98176 0
M  V30 9103 C 895.237 -2.81599 -3.45859 0
M  V30 9104 C 895.938 -4.88961 -3.15106 0
M  V30 9105 N 894.914 -4.21848 -3.42849 0
M  V30 9106 H 898.716 -2.5366 -1.48438 0
M  V30 9107 H 896.23 -1.44977 -0.731801 0
M  V30 9108 H 898.227 -1.70505 -3.80439 0
M  V30 9109 H 896.887 -0.716006 -3.16707 0
M  V30 9110 H 897.898 -4.38943 -2.74862 0
M  V30 9111 H 894.575 -1.98083 -3.67518 0
M  V30 9112 H 895.965 -5.97683 -3.0696 0
M  V30 9113 N 898.685 0.775411 -1.37205 0
M  V30 9114 C 899.913 1.56446 -1.35397 0
M  V30 9115 C 900.328 1.887 0.0615437 0
M  V30 9116 O 899.685 1.51178 1.02233 0
M  V30 9117 C 899.736 2.87697 -2.18889 0
M  V30 9118 O 899.457 2.56828 -3.54924 0
M  V30 9119 C 900.958 3.81944 -2.25019 0
M  V30 9120 H 898.178 0.484792 -0.463916 0
M  V30 9121 H 900.722 0.961346 -1.80495 0
M  V30 9122 H 898.877 3.44442 -1.7731 0
M  V30 9123 H 899.291 3.40851 -3.98649 0
M  V30 9124 H 900.765 4.71055 -2.87769 0
M  V30 9125 H 901.242 4.20811 -1.25757 0
M  V30 9126 H 901.848 3.3113 -2.66895 0
M  V30 9127 N 900.163 1.21714 1.00117 0
M  V30 9128 C 901.388 1.06357 1.78054 0
M  V30 9129 C 901.813 -0.382075 1.84179 0
M  V30 9130 O 901.171 -1.27575 1.28819 0
M  V30 9131 C 901.219 1.66982 3.19608 0
M  V30 9132 O 900.323 0.917892 4.02055 0
M  V30 9133 H 899.664 0.374074 0.548602 0
M  V30 9134 H 902.194 1.61338 1.25822 0
M  V30 9135 H 902.204 1.71363 3.70268 0
M  V30 9136 H 900.879 2.72185 3.14465 0
M  V30 9137 H 899.456 0.949473 3.6061 0
M  V30 9138 N 901.641 -1.19671 1.02551 0
M  V30 9139 C 902.573 -2.22215 0.561517 0
M  V30 9140 C 903.586 -1.58751 -0.360821 0
M  V30 9141 O 904.775 -1.77802 -0.157749 0
M  V30 9142 C 901.875 -3.383 -0.201494 0
M  V30 9143 C 901.048 -4.3135 0.724952 0
M  V30 9144 C 900.107 -5.26199 0.00794334 0
M  V30 9145 O 899.133 -5.65665 0.633398 0
M  V30 9146 N 900.335 -5.66573 -1.26394 0
M  V30 9147 H 903.1 -2.6265 1.44343 0
M  V30 9148 H 900.661 -1.34303 0.904122 0
M  V30 9149 H 902.653 -3.98764 -0.690625 0
M  V30 9150 H 901.223 -2.96683 -0.98479 0
M  V30 9151 H 900.443 -3.6872 1.39423 0
M  V30 9152 H 901.731 -4.90433 1.35472 0
M  V30 9153 H 901.129 -5.36538 -1.79287 0
M  V30 9154 H 899.686 -6.29304 -1.69763 0
M  V30 9155 N 903.119 -0.802921 -1.35613 0
M  V30 9156 C 904.365 -0.382141 -1.99167 0
M  V30 9157 C 904.698 1.04704 -1.63556 0
M  V30 9158 O 903.973 1.72578 -0.89706 0
M  V30 9159 C 904.256 -0.561493 -3.55695 0
M  V30 9160 C 904.109 -2.03534 -4.01116 0
M  V30 9161 C 905.428 0.0151135 -4.40097 0
M  V30 9162 H 902.547 -0.140322 -0.723518 0
M  V30 9163 H 905.189 -1.01177 -1.6082 0
M  V30 9164 H 903.339 -0.0255083 -3.88492 0
M  V30 9165 H 905.011 -2.63343 -3.78746 0
M  V30 9166 H 903.254 -2.5331 -3.52159 0
M  V30 9167 H 903.925 -2.11173 -5.1001 0
M  V30 9168 H 906.401 -0.442582 -4.1374 0
M  V30 9169 H 905.277 -0.140316 -5.48721 0
M  V30 9170 H 905.538 1.10848 -4.27978 0
M  V30 9171 N 904.597 1.47463 -0.556102 0
M  V30 9172 C 905.843 2.02775 -0.0316806 0
M  V30 9173 C 906.176 1.42967 1.3143 0
M  V30 9174 O 905.451 0.584847 1.85499 0
M  V30 9175 C 905.734 3.60046 0.0625742 0
M  V30 9176 C 905.587 4.30288 -1.31043 0
M  V30 9177 C 906.906 4.33195 0.776553 0
M  V30 9178 H 904.025 0.736886 -0.0129869 0
M  V30 9179 H 906.667 1.75904 -0.718177 0
M  V30 9180 H 904.817 3.83071 0.647231 0
M  V30 9181 H 906.489 4.18607 -1.9382 0
M  V30 9182 H 904.732 3.90685 -1.8854 0
M  V30 9183 H 905.403 5.38861 -1.1972 0
M  V30 9184 H 907.879 4.15156 0.280147 0
M  V30 9185 H 906.755 5.42869 0.81146 0
M  V30 9186 H 907.016 4.02336 1.83244 0
M  V30 9187 N 906.075 0.2925 1.54862 0
M  V30 9188 C 907.486 -0.201841 1.85606 0
M  V30 9189 C 907.837 -1.54093 1.21449 0
M  V30 9190 O 906.962 -2.10327 0.509079 0
M  V30 9191 C 907.557 -0.373011 3.3674 0
M  V30 9192 C 906.116 -0.811574 3.67547 0
M  V30 9193 C 905.263 0.0850583 2.7717 0
M  V30 9194 H 908.214 0.513774 1.50153 0
M  V30 9195 H 908.235 -1.20892 3.60785 0
M  V30 9196 H 907.747 0.601751 3.83407 0
M  V30 9197 H 905.848 -1.79719 3.26392 0
M  V30 9198 H 905.961 -0.636853 4.74848 0
M  V30 9199 H 904.325 -0.434224 2.50971 0
M  V30 9200 H 905.108 1.05602 3.26654 0
M  V30 9201 N 907.553 -1.57587 0.0200696 0
M  V30 9202 C 908.778 -1.96124 -0.674547 0
M  V30 9203 C 909.203 -0.896068 -1.65385 0
M  V30 9204 O 908.561 0.143925 -1.80728 0
M  V30 9205 C 908.609 -3.3376 -1.36517 0
M  V30 9206 O 907.713 -3.29483 -2.48022 0
M  V30 9207 H 907.054 -0.639719 -0.177919 0
M  V30 9208 H 909.584 -2.04447 0.0792317 0
M  V30 9209 H 909.594 -3.69785 -1.72403 0
M  V30 9210 H 908.269 -4.10832 -0.647265 0
M  V30 9211 H 906.846 -3.05162 -2.14314 0
M  V30 9212 N 909.032 0.252966 -1.55557 0
M  V30 9213 C 910.309 1.00432 -1.67847 0
M  V30 9214 C 910.689 2.03587 -0.55816 0
M  V30 9215 O 910.037 2.24239 0.439197 0
M  V30 9216 C 910.247 1.64313 -3.079 0
M  V30 9217 C 911.595 2.14726 -3.66303 0
M  V30 9218 O 912.619 1.74264 -3.10661 0
M  V30 9219 O 911.478 2.89 -4.63833 0
M  V30 9220 H 908.572 0.467102 -0.682455 0
M  V30 9221 H 911.118 0.247233 -1.67889 0
M  V30 9222 H 909.89 0.896681 -3.80888 0
M  V30 9223 H 909.513 2.46657 -3.11843 0
M  V30 9224 N 910.51 1.48831 0.518367 0
M  V30 9225 C 911.738 1.6112 1.298 0
M  V30 9226 C 912.153 0.275872 1.86774 0
M  V30 9227 O 911.51 -0.736416 1.66983 0
M  V30 9228 C 911.561 2.66675 2.44063 0
M  V30 9229 O 911.282 3.95027 1.89434 0
M  V30 9230 C 912.783 2.8951 3.35706 0
M  V30 9231 H 910.003 0.542916 0.394314 0
M  V30 9232 H 912.547 1.94743 0.624142 0
M  V30 9233 H 910.702 2.35879 3.07311 0
M  V30 9234 H 911.116 4.53031 2.64316 0
M  V30 9235 H 912.59 3.67142 4.12202 0
M  V30 9236 H 913.067 1.98768 3.91648 0
M  V30 9237 H 913.673 3.21656 2.7824 0
M  V30 9238 N 911.988 -0.768124 1.37614 0
M  V30 9239 C 912.921 -1.88894 1.2804 0
M  V30 9240 C 913.899 -1.61809 0.160226 0
M  V30 9241 O 915.083 -1.85498 0.33506 0
M  V30 9242 C 912.21 -3.24197 0.980523 0
M  V30 9243 C 911.256 -3.70188 2.11808 0
M  V30 9244 S 912.089 -3.83433 3.73817 0
M  V30 9245 C 913.245 -5.21578 3.45987 0
M  V30 9246 H 913.478 -1.96726 2.22904 0
M  V30 9247 H 911.011 -0.929602 1.23279 0
M  V30 9248 H 912.969 -4.02342 0.814331 0
M  V30 9249 H 911.63 -3.14061 0.0493122 0
M  V30 9250 H 910.823 -4.6829 1.86335 0
M  V30 9251 H 910.425 -2.99155 2.2446 0
M  V30 9252 H 912.717 -6.06865 3.012 0
M  V30 9253 H 913.66 -5.52065 4.43429 0
M  V30 9254 H 914.068 -4.89687 2.80832 0
M  V30 9255 N 913.466 -1.22244 -0.994698 0
M  V30 9256 C 914.398 -0.948706 -2.08644 0
M  V30 9257 C 915.411 0.0720049 -1.62641 0
M  V30 9258 O 916.6 -0.161778 -1.77765 0
M  V30 9259 C 913.7 -0.404885 -3.36473 0
M  V30 9260 C 912.873 -1.48239 -4.11514 0
M  V30 9261 C 911.932 -0.94597 -5.17627 0
M  V30 9262 O 910.958 -1.63177 -5.45309 0
M  V30 9263 N 912.16 0.23355 -5.8003 0
M  V30 9264 H 914.925 -1.88858 -2.32707 0
M  V30 9265 H 912.486 -1.12908 -1.16032 0
M  V30 9266 H 914.478 -0.0313903 -4.04688 0
M  V30 9267 H 913.048 0.440061 -3.09487 0
M  V30 9268 H 912.268 -2.02928 -3.37955 0
M  V30 9269 H 913.556 -2.20741 -4.58422 0
M  V30 9270 H 912.954 0.80756 -5.59906 0
M  V30 9271 H 911.511 0.54845 -6.49488 0
M  V30 9272 N 914.944 1.19125 -1.03184 0
M  V30 9273 C 916.172 1.92838 -0.74975 0
M  V30 9274 C 916.587 1.75667 0.691851 0
M  V30 9275 O 915.944 1.0805 1.47076 0
M  V30 9276 C 915.995 3.44509 -1.09525 0
M  V30 9277 O 915.716 3.6113 -2.48025 0
M  V30 9278 C 917.217 4.35338 -0.836397 0
M  V30 9279 H 914.437 0.61246 -0.274105 0
M  V30 9280 H 916.981 1.5118 -1.37712 0
M  V30 9281 H 915.136 3.83988 -0.513006 0
M  V30 9282 H 915.55 4.54959 -2.60984 0
M  V30 9283 H 917.024 5.4035 -1.12808 0
M  V30 9284 H 917.501 4.38602 0.229102 0
M  V30 9285 H 918.107 4.01544 -1.40152 0
M  V30 9286 N 916.422 0.810101 1.35185 0
M  V30 9287 C 917.838 0.494269 1.51754 0
M  V30 9288 C 918.038 -0.983907 1.75845 0
M  V30 9289 O 917.094 -1.76882 1.80191 0
M  V30 9290 C 918.407 1.34268 2.69059 0
M  V30 9291 C 919.955 1.33848 2.82938 0
M  V30 9292 C 920.43 2.17109 4.03271 0
M  V30 9293 N 921.921 2.14664 4.10456 0
M  V30 9294 C 922.656 2.75843 5.02691 0
M  V30 9295 N 922.152 3.45962 6.00235 0
M  V30 9296 N 923.945 2.65465 4.95464 0
M  V30 9297 H 916.096 1.76736 1.17805 0
M  V30 9298 H 918.359 0.752429 0.576676 0
M  V30 9299 H 918.065 2.39183 2.57845 0
M  V30 9300 H 917.939 0.998362 3.63748 0
M  V30 9301 H 920.326 0.29716 2.936 0
M  V30 9302 H 920.407 1.72269 1.89095 0
M  V30 9303 H 920.051 3.21283 3.93369 0
M  V30 9304 H 919.981 1.76046 4.96302 0
M  V30 9305 H 922.472 1.63648 3.40628 0
M  V30 9306 H 922.785 3.89922 6.67219 0
M  V30 9307 H 921.13 3.50067 6.00398 0
M  V30 9308 H 924.321 2.1027 4.18215 0
M  V30 9309 H 924.494 3.13433 5.67154 0
M  V30 9310 N 917.9 -1.47166 0.563914 0
M  V30 9311 C 918.85 -2.27116 -0.20055 0
M  V30 9312 C 919.834 -1.34756 -0.879177 0
M  V30 9313 O 921.026 -1.59064 -0.776377 0
M  V30 9314 C 918.155 -3.20676 -1.22565 0
M  V30 9315 C 917.241 -4.20517 -0.550092 0
M  V30 9316 N 917.632 -5.04343 0.383662 0
M  V30 9317 C 915.93 -4.38708 -0.803186 0
M  V30 9318 C 916.631 -5.76491 0.776718 0
M  V30 9319 N 915.607 -5.43444 0.130047 0
M  V30 9320 H 919.409 -2.89312 0.517275 0
M  V30 9321 H 916.923 -1.57787 0.384334 0
M  V30 9322 H 918.92 -3.76643 -1.78733 0
M  V30 9323 H 917.58 -2.60038 -1.94449 0
M  V30 9324 H 918.591 -5.1232 0.758192 0
M  V30 9325 H 915.268 -3.89235 -1.51003 0
M  V30 9326 H 916.658 -6.5391 1.54437 0
M  V30 9327 N 919.378 -0.300708 -1.54705 0
M  V30 9328 C 920.624 0.309111 -2.0043 0
M  V30 9329 C 920.957 1.53562 -1.1888 0
M  V30 9330 O 920.232 1.92683 -0.265205 0
M  V30 9331 C 920.515 0.665995 -3.53888 0
M  V30 9332 C 920.368 -0.56963 -4.46178 0
M  V30 9333 C 921.687 1.49262 -4.14016 0
M  V30 9334 H 918.806 0.110878 -0.728612 0
M  V30 9335 H 921.448 -0.412748 -1.85463 0
M  V30 9336 H 919.598 1.281 -3.66773 0
M  V30 9337 H 921.27 -1.20811 -4.45199 0
M  V30 9338 H 919.513 -1.20292 -4.16788 0
M  V30 9339 H 920.184 -0.275785 -5.51311 0
M  V30 9340 H 922.66 0.972979 -4.04564 0
M  V30 9341 H 921.536 1.71111 -5.21548 0
M  V30 9342 H 921.797 2.48174 -3.65872 0
M  V30 9343 N 920.856 1.57574 -0.0284266 0
M  V30 9344 C 921.803 2.10176 0.953658 0
M  V30 9345 C 922.773 1.00367 1.32347 0
M  V30 9346 O 923.958 1.27783 1.4169 0
M  V30 9347 C 921.098 2.63287 2.231 0
M  V30 9348 C 920.211 3.87102 1.91771 0
M  V30 9349 C 919.346 4.28609 3.13795 0
M  V30 9350 C 918.385 5.45184 2.78282 0
M  V30 9351 N 917.522 5.81851 3.92929 0
M  V30 9352 H 922.362 2.93806 0.498176 0
M  V30 9353 H 919.899 1.45222 0.234302 0
M  V30 9354 H 921.857 2.9217 2.97813 0
M  V30 9355 H 920.487 1.82489 2.66266 0
M  V30 9356 H 919.539 3.64952 1.07303 0
M  V30 9357 H 920.851 4.71892 1.61615 0
M  V30 9358 H 920.005 4.58925 3.96829 0
M  V30 9359 H 918.744 3.42585 3.47112 0
M  V30 9360 H 917.749 5.14563 1.93661 0
M  V30 9361 H 918.974 6.32907 2.46182 0
M  V30 9362 H 916.92 4.98782 4.2609 0
M  V30 9363 H 916.837 6.6128 3.66395 0
M  V30 9364 H 918.105 6.16772 4.76669 0
M  V30 9365 N 922.334 -0.244713 1.55689 0
M  V30 9366 C 923.282 -1.32276 1.91326 0
M  V30 9367 C 924.276 -1.49714 0.792589 0
M  V30 9368 O 925.482 -1.51163 0.977227 0
M  V30 9369 H 921.857 -0.442979 0.607679 0
M  V30 9370 H 923.828 -0.99486 2.81327 0
M  V30 9371 C 922.577 -2.67077 2.22633 0
M  V30 9372 H 921.9 -2.54458 3.08368 0
M  V30 9373 H 923.34 -3.41378 2.5147 0
M  V30 9374 C 921.799 -3.20335 1.04342 0
M  V30 9375 O 922.329 -4.00633 0.292543 0
M  V30 9376 N 920.535 -2.78392 0.833457 0
M  V30 9377 H 920.082 -2.13202 1.44577 0
M  V30 9378 H 920.04 -3.1437 0.0436713 0
M  V30 9379 N 923.813 -1.49104 -0.510467 0
M  V30 9380 C 925.043 -1.61571 -1.28757 0
M  V30 9381 C 925.451 -0.282638 -1.87077 0
M  V30 9382 O 924.794 0.740749 -1.68103 0
M  V30 9383 C 924.856 -2.61851 -2.46322 0
M  V30 9384 C 924.52 -4.06438 -2.08942 0
M  V30 9385 C 925.517 -4.93532 -1.63469 0
M  V30 9386 C 923.202 -4.52109 -2.18867 0
M  V30 9387 C 925.196 -6.24331 -1.28411 0
M  V30 9388 C 922.883 -5.82924 -1.83421 0
M  V30 9389 C 923.881 -6.68858 -1.38267 0
M  V30 9390 O 923.569 -7.97236 -1.03296 0
M  V30 9391 H 923.301 -0.547082 -0.397086 0
M  V30 9392 H 925.855 -1.95806 -0.620424 0
M  V30 9393 H 924.085 -2.22777 -3.16081 0
M  V30 9394 H 925.774 -2.63947 -3.08362 0
M  V30 9395 H 926.54 -4.59479 -1.55255 0
M  V30 9396 H 922.419 -3.85395 -2.52966 0
M  V30 9397 H 925.963 -6.9136 -0.930946 0
M  V30 9398 H 921.86 -6.16507 -1.91282 0
M  V30 9399 H 922.628 -8.10163 -1.16525 0
M  V30 9400 N 925.291 0.760815 -1.38019 0
M  V30 9401 C 926.241 1.86487 -1.31174 0
M  V30 9402 C 927.225 1.59684 -0.197414 0
M  V30 9403 O 928.417 1.71628 -0.432764 0
M  V30 9404 C 925.546 3.24103 -1.13192 0
M  V30 9405 C 924.632 3.5682 -2.29216 0
M  V30 9406 N 925.023 3.60644 -3.5464 0
M  V30 9407 C 923.321 3.87047 -2.2161 0
M  V30 9408 C 924.022 3.90423 -4.31214 0
M  V30 9409 N 922.998 4.06883 -3.60482 0
M  V30 9410 H 926.8 1.87711 -2.26146 0
M  V30 9411 H 924.314 0.957811 -1.31148 0
M  V30 9412 H 926.311 4.03101 -1.06372 0
M  V30 9413 H 924.971 3.24135 -0.191473 0
M  V30 9414 H 925.982 3.42581 -3.88405 0
M  V30 9415 H 922.659 3.94837 -1.35684 0
M  V30 9416 H 924.049 4.00065 -5.39812 0
M  V30 9417 N 926.769 1.22769 0.988202 0
M  V30 9418 C 927.994 1.08239 1.76915 0
M  V30 9419 C 928.419 -0.362519 1.84574 0
M  V30 9420 O 927.777 -1.26202 1.30165 0
M  V30 9421 C 927.825 1.70363 3.17819 0
M  V30 9422 O 926.929 0.960484 4.01059 0
M  V30 9423 H 926.27 0.379872 0.544604 0
M  V30 9424 H 928.8 1.62663 1.24104 0
M  V30 9425 H 928.81 1.7528 3.6843 0
M  V30 9426 H 927.485 2.75505 3.1156 0
M  V30 9427 H 926.062 0.987667 3.59582 0
M  V30 9428 N 928.247 -1.18576 1.03814 0
M  V30 9429 C 929.663 -1.4051 0.756909 0
M  V30 9430 C 929.863 -1.9057 -0.654631 0
M  V30 9431 O 928.919 -2.0884 -1.41922 0
M  V30 9432 C 930.232 -2.4081 1.80087 0
M  V30 9433 C 931.78 -2.54541 1.82148 0
M  V30 9434 C 932.255 -3.58102 2.85529 0
M  V30 9435 N 933.746 -3.65607 2.84404 0
M  V30 9436 C 934.481 -4.45458 3.61047 0
M  V30 9437 N 933.977 -5.28937 4.47434 0
M  V30 9438 N 935.77 -4.40196 3.49548 0
M  V30 9439 H 927.921 -0.844075 1.94908 0
M  V30 9440 H 930.184 -0.433287 0.843188 0
M  V30 9441 H 929.89 -2.1107 2.81322 0
M  V30 9442 H 929.764 -3.4012 1.63089 0
M  V30 9443 H 932.151 -2.83598 0.815855 0
M  V30 9444 H 932.232 -1.55352 2.03223 0
M  V30 9445 H 931.876 -3.29786 3.86269 0
M  V30 9446 H 931.806 -4.56963 2.6171 0
M  V30 9447 H 934.297 -3.05994 2.21756 0
M  V30 9448 H 934.61 -5.8701 5.02632 0
M  V30 9449 H 932.955 -5.28366 4.51503 0
M  V30 9450 H 936.146 -3.74026 2.81464 0
M  V30 9451 H 936.319 -5.02186 4.09528 0
M  V30 9452 N 929.725 -0.817259 -1.34754 0
M  V30 9453 C 930.95 -0.414423 -2.03217 0
M  V30 9454 C 931.375 0.970037 -1.61158 0
M  V30 9455 O 930.733 1.63016 -0.793436 0
M  V30 9456 C 930.781 -0.518087 -3.56859 0
M  V30 9457 O 929.885 0.464314 -4.09778 0
M  V30 9458 H 929.226 -0.171454 -0.641482 0
M  V30 9459 H 931.756 -1.10611 -1.72123 0
M  V30 9460 H 931.766 -0.391779 -4.06115 0
M  V30 9461 H 930.441 -1.52786 -3.86819 0
M  V30 9462 H 929.018 0.297361 -3.71712 0
M  V30 9463 N 931.203 1.46865 -0.571711 0
M  V30 9464 C 932.113 2.33979 0.170571 0
M  V30 9465 C 933.129 1.49083 0.897239 0
M  V30 9466 O 934.305 1.81979 0.862888 0
M  V30 9467 C 931.37 3.26063 1.17831 0
M  V30 9468 C 930.431 4.26855 0.457499 0
M  V30 9469 C 929.664 5.14539 1.41722 0
M  V30 9470 O 929.887 5.04945 2.65305 0
M  V30 9471 O 928.821 5.94612 0.9338 0
M  V30 9472 H 932.647 2.98781 -0.544396 0
M  V30 9473 H 930.232 1.4566 -0.332198 0
M  V30 9474 H 932.114 3.82903 1.75965 0
M  V30 9475 H 930.789 2.63871 1.87493 0
M  V30 9476 H 929.696 3.73734 -0.165406 0
M  V30 9477 H 931.029 4.91802 -0.197953 0
M  V30 9478 N 932.681 0.308908 1.54543 0
M  V30 9479 C 933.906 -0.303196 2.05172 0
M  V30 9480 C 934.331 -1.46133 1.18434 0
M  V30 9481 O 933.689 -1.803 0.190162 0
M  V30 9482 C 933.737 -0.729526 3.53143 0
M  V30 9483 O 932.841 -1.83348 3.69401 0
M  V30 9484 H 932.182 -0.0575066 0.661505 0
M  V30 9485 H 934.712 0.453055 1.99521 0
M  V30 9486 H 934.722 -1.01619 3.95143 0
M  V30 9487 H 933.397 0.117622 4.15734 0
M  V30 9488 H 931.974 -1.54676 3.39308 0
M  V30 9489 N 934.159 -1.57557 0.0367827 0
M  V30 9490 C 935.387 -1.96419 -0.650168 0
M  V30 9491 C 935.802 -0.913656 -1.6522 0
M  V30 9492 O 935.159 0.103718 -1.82205 0
M  V30 9493 C 935.21 -3.35355 -1.3498 0
M  V30 9494 O 934.931 -4.36379 -0.387905 0
M  V30 9495 C 936.432 -3.88892 -2.12786 0
M  V30 9496 H 933.652 -0.646751 -0.178756 0
M  V30 9497 H 936.196 -2.04261 0.0988197 0
M  V30 9498 H 934.351 -3.28708 -2.05012 0
M  V30 9499 H 934.765 -5.16969 -0.885596 0
M  V30 9500 H 936.239 -4.88428 -2.5718 0
M  V30 9501 H 936.716 -3.23547 -2.97008 0
M  V30 9502 H 937.322 -3.98831 -1.47694 0
M  V30 9503 N 935.637 0.236453 -1.55816 0
M  V30 9504 C 936.886 0.960981 -1.77336 0
M  V30 9505 C 937.199 1.86085 -0.602641 0
M  V30 9506 O 938.405 2.62291 -0.701106 0
M  V30 9507 C 936.861 1.75884 -3.13995 0
M  V30 9508 C 936.469 0.905849 -4.38746 0
M  V30 9509 C 938.213 2.47548 -3.44848 0
M  V30 9510 C 936.12 1.7002 -5.66434 0
M  V30 9511 H 935.05 0.362547 -0.661117 0
M  V30 9512 H 937.701 0.215303 -1.82233 0
M  V30 9513 H 936.083 2.54687 -3.03234 0
M  V30 9514 H 937.257 0.159415 -4.60524 0
M  V30 9515 H 935.572 0.30205 -4.15303 0
M  V30 9516 H 938.169 3.07452 -4.37467 0
M  V30 9517 H 938.512 3.19689 -2.66655 0
M  V30 9518 H 939.045 1.75747 -3.56872 0
M  V30 9519 H 935.784 1.02234 -6.47479 0
M  V30 9520 H 935.304 2.42164 -5.48741 0
M  V30 9521 H 936.983 2.26469 -6.0607 0
M  V30 9522 N 937.115 1.49373 0.502552 0
M  V30 9523 C 938.025 1.68659 1.63068 0
M  V30 9524 C 939.041 0.569182 1.64427 0
M  V30 9525 O 940.217 0.843695 1.82876 0
M  V30 9526 C 937.282 1.74745 2.99441 0
M  V30 9527 C 936.343 2.98311 3.08721 0
M  V30 9528 C 935.576 3.04097 4.38589 0
M  V30 9529 O 935.799 2.17519 5.27297 0
M  V30 9530 O 934.733 3.96544 4.52809 0
M  V30 9531 H 938.559 2.64226 1.49727 0
M  V30 9532 H 936.144 1.33096 0.67867 0
M  V30 9533 H 938.026 1.8111 3.80496 0
M  V30 9534 H 936.701 0.823565 3.13048 0
M  V30 9535 H 935.608 2.97465 2.2686 0
M  V30 9536 H 936.941 3.90174 3.00041 0
M  V30 9537 N 938.594 -0.753485 1.38421 0
M  V30 9538 C 939.542 -1.8886 1.35774 0
M  V30 9539 C 940.536 -1.67639 0.243608 0
M  V30 9540 O 941.742 -1.75206 0.412649 0
M  V30 9541 H 938.117 -0.62137 0.42356 0
M  V30 9542 H 940.088 -1.88209 2.3156 0
M  V30 9543 C 938.837 -3.26344 1.19979 0
M  V30 9544 H 938.16 -3.43259 2.04971 0
M  V30 9545 H 939.6 -4.06015 1.22181 0
M  V30 9546 C 938.059 -3.36771 -0.0932867 0
M  V30 9547 O 938.589 -3.8718 -1.07027 0
M  V30 9548 N 936.795 -2.90212 -0.150154 0
M  V30 9549 H 936.342 -2.4938 0.645562 0
M  V30 9550 H 936.3 -2.97569 -1.0149 0
M  V30 9551 N 940.072 -1.23292 -0.981677 0
M  V30 9552 C 941.319 -1.06424 -1.72279 0
M  V30 9553 C 941.647 0.399055 -1.90362 0
M  V30 9554 O 940.902 1.31181 -1.45224 0
M  V30 9555 C 941.201 -1.73339 -3.12551 0
M  V30 9556 C 940.867 -3.23256 -3.14351 0
M  V30 9557 C 939.529 -3.64159 -3.14549 0
M  V30 9558 C 941.881 -4.1916 -3.09765 0
M  V30 9559 C 939.209 -4.99428 -3.07877 0
M  V30 9560 C 941.561 -5.54419 -3.04635 0
M  V30 9561 C 940.225 -5.94688 -3.03154 0
M  V30 9562 H 939.495 -0.389434 -0.630415 0
M  V30 9563 H 942.142 -1.53208 -1.1489 0
M  V30 9564 H 940.447 -1.18911 -3.73319 0
M  V30 9565 H 942.144 -1.57767 -3.68661 0
M  V30 9566 H 938.734 -2.90693 -3.14953 0
M  V30 9567 H 942.918 -3.88569 -3.08753 0
M  V30 9568 H 938.174 -5.29844 -3.05083 0
M  V30 9569 H 942.348 -6.28448 -3.00043 0
M  V30 9570 H 939.975 -6.99468 -2.97739 0
M  V30 9571 N 941.55 1.18024 -1.04442 0
M  V30 9572 C 942.48 2.23988 -0.659683 0
M  V30 9573 C 943.461 1.6669 0.338904 0
M  V30 9574 O 944.646 1.92971 0.21817 0
M  V30 9575 C 941.776 3.4729 -0.0257672 0
M  V30 9576 C 940.73 4.17362 -0.948299 0
M  V30 9577 C 940.056 5.34401 -0.17866 0
M  V30 9578 C 941.356 4.70435 -2.26909 0
M  V30 9579 H 943.05 2.56425 -1.54553 0
M  V30 9580 H 940.596 1.23256 -0.744575 0
M  V30 9581 H 942.549 4.20627 0.255131 0
M  V30 9582 H 941.273 3.14098 0.894981 0
M  V30 9583 H 939.932 3.45928 -1.21364 0
M  V30 9584 H 939.58 4.97458 0.744614 0
M  V30 9585 H 939.28 5.8222 -0.793294 0
M  V30 9586 H 940.804 6.10526 0.0951315 0
M  V30 9587 H 942.218 5.35447 -2.04864 0
M  V30 9588 H 940.615 5.28803 -2.83703 0
M  V30 9589 H 941.685 3.87653 -2.91296 0
M  V30 9590 N 943.028 0.824394 1.34319 0
M  V30 9591 C 944.268 0.419044 2.00058 0
M  V30 9592 C 944.632 -0.999504 1.63933 0
M  V30 9593 O 945.833 -1.50781 2.22527 0
M  V30 9594 C 944.104 0.616897 3.52036 0
M  V30 9595 S 945.663 0.304614 4.37741 0
M  V30 9596 H 942.481 0.158265 0.693162 0
M  V30 9597 H 945.083 1.07053 1.63585 0
M  V30 9598 H 943.787 1.64896 3.75816 0
M  V30 9599 H 943.318 -0.0492693 3.93369 0
M  V30 9600 H 945.333 -0.88114 4.88314 0
M  V30 9601 N 944.506 -1.46559 0.579492 0
M  V30 9602 C 945.922 -1.57771 0.240921 0
M  V30 9603 C 946.122 -1.57505 -1.25676 0
M  V30 9604 O 945.178 -1.4903 -2.03829 0
M  V30 9605 C 946.491 -2.87311 0.887285 0
M  V30 9606 C 948.039 -3.00937 0.860576 0
M  V30 9607 C 948.514 -4.33208 1.48642 0
M  V30 9608 N 950.005 -4.39899 1.45062 0
M  V30 9609 C 950.74 -5.40856 1.90428 0
M  V30 9610 N 950.236 -6.48503 2.43752 0
M  V30 9611 N 952.029 -5.32037 1.81364 0
M  V30 9612 H 944.18 -1.44976 1.55228 0
M  V30 9613 H 946.443 -0.691354 0.648639 0
M  V30 9614 H 946.149 -2.93307 1.94071 0
M  V30 9615 H 946.023 -3.75141 0.393577 0
M  V30 9616 H 948.41 -2.94524 -0.184223 0
M  V30 9617 H 948.491 -2.14591 1.39227 0
M  V30 9618 H 948.135 -4.40378 2.5304 0
M  V30 9619 H 948.065 -5.18323 0.92998 0
M  V30 9620 H 950.556 -3.62706 1.0608 0
M  V30 9621 H 950.869 -7.21744 2.76234 0
M  V30 9622 H 949.214 -6.49332 2.47776 0
M  V30 9623 H 952.405 -4.46841 1.39465 0
M  V30 9624 H 952.578 -6.10573 2.17035 0
M  V30 9625 N 945.984 -0.3171 -1.54377 0
M  V30 9626 C 947.209 0.292311 -2.0533 0
M  V30 9627 C 947.634 1.45503 -1.19207 0
M  V30 9628 O 946.992 1.80197 -0.199721 0
M  V30 9629 C 947.04 0.710787 -3.53525 0
M  V30 9630 O 946.144 1.81387 -3.70368 0
M  V30 9631 H 945.485 0.0539976 -0.661801 0
M  V30 9632 H 948.015 -0.463629 -1.99278 0
M  V30 9633 H 948.025 0.995216 -3.95676 0
M  V30 9634 H 946.7 -0.139668 -4.15665 0
M  V30 9635 H 945.277 1.52875 -3.40123 0
M  V30 9636 N 947.462 1.57535 -0.0451378 0
M  V30 9637 C 948.425 2.1008 0.916461 0
M  V30 9638 C 949.425 1.01913 1.2438 0
M  V30 9639 O 950.615 1.2801 1.18148 0
M  V30 9640 C 947.747 2.58001 2.22818 0
M  V30 9641 H 948.94 2.96334 0.461076 0
M  V30 9642 H 946.493 1.54974 0.203169 0
M  V30 9643 H 947.228 1.75123 2.72951 0
M  V30 9644 H 947.013 3.3704 2.00366 0
M  V30 9645 H 948.503 2.98822 2.9171 0
M  V30 9646 N 948.94 -0.228186 1.55939 0
M  V30 9647 C 950.18 -0.960695 1.80416 0
M  V30 9648 C 950.544 -1.81795 0.617615 0
M  V30 9649 O 951.745 -2.58369 0.741545 0
M  V30 9650 C 950.016 -1.78298 3.09749 0
M  V30 9651 S 951.575 -2.57203 3.55517 0
M  V30 9652 H 948.393 -0.322825 0.633486 0
M  V30 9653 H 950.995 -0.226852 1.94179 0
M  V30 9654 H 949.699 -1.14323 3.94155 0
M  V30 9655 H 949.23 -2.55924 2.98775 0
M  V30 9656 H 951.245 -3.80632 3.1833 0
M  V30 9657 N 950.418 -1.49637 -0.494624 0
M  V30 9658 C 951.664 -1.59681 -1.25019 0
M  V30 9659 C 951.997 -0.285511 -1.9209 0
M  V30 9660 O 951.272 0.711398 -1.81023 0
M  V30 9661 C 951.555 -2.76058 -2.31222 0
M  V30 9662 C 951.408 -4.17002 -1.68611 0
M  V30 9663 C 952.727 -2.88056 -3.32734 0
M  V30 9664 H 949.846 -0.581209 -0.453172 0
M  V30 9665 H 952.488 -1.81944 -0.547391 0
M  V30 9666 H 950.638 -2.57207 -2.91164 0
M  V30 9667 H 952.31 -4.47385 -1.12447 0
M  V30 9668 H 950.553 -4.22352 -0.989991 0
M  V30 9669 H 951.224 -4.94316 -2.45674 0
M  V30 9670 H 953.7 -3.05237 -2.82789 0
M  V30 9671 H 952.576 -3.71151 -4.04399 0
M  V30 9672 H 952.837 -1.97676 -3.95445 0
M  V30 9673 N 951.896 0.746133 -1.38819 0
M  V30 9674 C 953.126 1.53316 -1.38484 0
M  V30 9675 C 953.534 1.89183 0.0253332 0
M  V30 9676 O 952.877 1.5382 1.00424 0
M  V30 9677 C 952.939 2.85623 -2.18311 0
M  V30 9678 C 952.603 2.72253 -3.67052 0
M  V30 9679 C 953.6 2.41547 -4.60381 0
M  V30 9680 C 951.285 2.89472 -4.10501 0
M  V30 9681 C 953.279 2.28226 -5.9514 0
M  V30 9682 C 950.966 2.7577 -5.45338 0
M  V30 9683 C 951.964 2.45191 -6.37472 0
M  V30 9684 O 951.652 2.31561 -7.69828 0
M  V30 9685 H 951.384 0.480763 -0.475229 0
M  V30 9686 H 953.938 0.93057 -1.83111 0
M  V30 9687 H 952.168 3.481 -1.68414 0
M  V30 9688 H 953.857 3.47178 -2.10291 0
M  V30 9689 H 954.623 2.27905 -4.28117 0
M  V30 9690 H 950.502 3.12269 -3.3913 0
M  V30 9691 H 954.046 2.04279 -6.6702 0
M  V30 9692 H 949.943 2.88987 -5.77197 0
M  V30 9693 H 950.711 2.46716 -7.80432 0
M  V30 9694 N 953.375 1.23811 0.975125 0
M  V30 9695 C 954.622 1.07336 1.71712 0
M  V30 9696 C 954.95 -0.388954 1.90571 0
M  V30 9697 O 954.205 -1.30409 1.45918 0
M  V30 9698 C 954.504 1.74994 3.11628 0
M  V30 9699 C 954.17 3.24918 3.12632 0
M  V30 9700 C 952.832 3.65822 3.12614 0
M  V30 9701 C 955.184 4.20797 3.07538 0
M  V30 9702 C 952.512 5.01054 3.05224 0
M  V30 9703 C 954.864 5.56027 3.0169 0
M  V30 9704 C 953.528 5.96287 2.99996 0
M  V30 9705 H 952.798 0.392771 0.62834 0
M  V30 9706 H 955.445 1.53815 1.14075 0
M  V30 9707 H 953.75 1.20889 3.72684 0
M  V30 9708 H 955.447 1.5972 3.67819 0
M  V30 9709 H 952.037 2.92359 3.13407 0
M  V30 9710 H 956.221 3.902 3.06688 0
M  V30 9711 H 951.477 5.31454 3.02268 0
M  V30 9712 H 955.651 6.3003 2.96706 0
M  V30 9713 H 953.278 7.01037 2.94025 0
M  V30 9714 N 954.853 -1.17469 1.05066 0
M  V30 9715 C 956.081 -1.9162 0.780334 0
M  V30 9716 C 956.496 -1.76745 -0.663817 0
M  V30 9717 O 955.853 -1.10377 -1.45338 0
M  V30 9718 C 955.904 -3.42723 1.14992 0
M  V30 9719 O 955.625 -3.57139 2.53739 0
M  V30 9720 C 957.126 -4.33952 0.905549 0
M  V30 9721 H 954.346 -0.608022 0.283814 0
M  V30 9722 H 956.89 -1.4897 1.401 0
M  V30 9723 H 955.045 -3.83124 0.57403 0
M  V30 9724 H 955.459 -4.5075 2.68189 0
M  V30 9725 H 956.933 -5.38487 1.21391 0
M  V30 9726 H 957.41 -4.38911 -0.159295 0
M  V30 9727 H 958.016 -3.99263 1.46522 0
M  V30 9728 N 956.331 -0.831506 -1.3388 0
M  V30 9729 C 957.241 -0.261688 -2.33136 0
M  V30 9730 C 958.257 0.608429 -1.63016 0
M  V30 9731 O 959.433 0.514297 -1.94723 0
M  V30 9732 C 956.498 0.559957 -3.42148 0
M  V30 9733 C 955.559 -0.333569 -4.28002 0
M  V30 9734 C 954.792 0.448956 -5.31808 0
M  V30 9735 O 955.015 1.6814 -5.45055 0
M  V30 9736 O 953.949 -0.173197 -6.01651 0
M  V30 9737 H 957.775 -1.08343 -2.83717 0
M  V30 9738 H 955.36 -0.593849 -1.3709 0
M  V30 9739 H 957.242 1.02712 -4.08691 0
M  V30 9740 H 955.917 1.35888 -2.93796 0
M  V30 9741 H 954.824 -0.848416 -3.64352 0
M  V30 9742 H 956.157 -1.09707 -4.79818 0
M  V30 9743 N 957.809 1.4625 -0.587256 0
M  V30 9744 C 959.039 2.06444 -0.0802135 0
M  V30 9745 C 959.447 1.43585 1.23207 0
M  V30 9746 O 958.79 0.536956 1.75677 0
M  V30 9747 C 958.852 3.59165 0.155129 0
M  V30 9748 C 958.516 4.44243 -1.07225 0
M  V30 9749 C 959.513 4.80497 -1.98542 0
M  V30 9750 C 957.198 4.8531 -1.29537 0
M  V30 9751 C 959.192 5.56649 -3.10516 0
M  V30 9752 C 956.879 5.61221 -2.41815 0
M  V30 9753 C 957.877 5.96805 -3.32134 0
M  V30 9754 O 957.565 6.71181 -4.42461 0
M  V30 9755 H 957.297 0.673626 -0.0566063 0
M  V30 9756 H 959.851 1.88797 -0.809004 0
M  V30 9757 H 958.081 3.75137 0.938583 0
M  V30 9758 H 959.77 4.01271 0.611243 0
M  V30 9759 H 960.536 4.49345 -1.82522 0
M  V30 9760 H 956.415 4.5706 -0.601431 0
M  V30 9761 H 959.959 5.84343 -3.81037 0
M  V30 9762 H 955.856 5.91786 -2.57797 0
M  V30 9763 H 956.624 6.8961 -4.40886 0
M  V30 9764 N 959.287 0.325282 1.54207 0
M  V30 9765 C 960.197 -0.548778 2.28091 0
M  V30 9766 C 961.213 -1.12772 1.32508 0
M  V30 9767 O 962.389 -1.14732 1.65525 0
M  V30 9768 C 959.454 -1.69284 3.02562 0
M  V30 9769 C 958.515 -1.14553 4.13734 0
M  V30 9770 C 957.748 -2.23506 4.84645 0
M  V30 9771 O 957.971 -3.43884 4.55082 0
M  V30 9772 O 956.905 -1.88828 5.71513 0
M  V30 9773 H 960.731 0.0512974 3.03657 0
M  V30 9774 H 958.316 0.0909159 1.49123 0
M  V30 9775 H 960.198 -2.35887 3.49192 0
M  V30 9776 H 958.873 -2.27906 2.2987 0
M  V30 9777 H 957.78 -0.444532 3.71449 0
M  V30 9778 H 959.113 -0.60441 4.88475 0
M  V30 9779 N 960.765 -1.57509 0.0534917 0
M  V30 9780 C 961.713 -2.12851 -0.937931 0
M  V30 9781 C 962.707 -1.06088 -1.32067 0
M  V30 9782 O 963.913 -1.24494 -1.30005 0
M  V30 9783 H 960.288 -0.680357 -0.320342 0
M  V30 9784 H 962.259 -2.95047 -0.446077 0
M  V30 9785 C 961.008 -2.69034 -2.20264 0
M  V30 9786 H 960.331 -3.50848 -1.91693 0
M  V30 9787 H 961.771 -3.11375 -2.87788 0
M  V30 9788 C 960.23 -1.62919 -2.94888 0
M  V30 9789 O 960.76 -1.04334 -3.87914 0
M  V30 9790 N 958.966 -1.34385 -2.57661 0
M  V30 9791 H 958.513 -1.82214 -1.82088 0
M  V30 9792 H 958.471 -0.636149 -3.07897 0
M  V30 9793 N 962.243 0.219913 -1.56058 0
M  V30 9794 C 963.468 0.965073 -1.83579 0
M  V30 9795 C 963.893 1.77092 -0.634024 0
M  V30 9796 O 963.251 1.76434 0.417205 0
M  V30 9797 C 963.299 1.85705 -3.09105 0
M  V30 9798 O 962.403 2.95261 -2.87914 0
M  V30 9799 H 961.744 0.273173 -0.605204 0
M  V30 9800 H 964.274 0.23273 -2.03272 0
M  V30 9801 H 964.284 2.26655 -3.39252 0
M  V30 9802 H 962.959 1.26476 -3.96203 0
M  V30 9803 H 961.536 2.58246 -2.69005 0
M  V30 9804 N 963.721 1.49897 0.486681 0
M  V30 9805 C 964.969 1.59789 1.23742 0
M  V30 9806 C 965.29 0.293056 1.92785 0
M  V30 9807 O 964.56 -0.688534 1.83401 0
M  V30 9808 H 963.14 0.588775 0.459731 0
M  V30 9809 H 965.802 1.86597 0.562808 0
M  V30 9810 H 964.898 2.40121 1.9937 0
M  V30 9811 N 965.199 -0.738761 1.39212 0
M  V30 9812 C 966.162 -1.83441 1.37412 0
M  V30 9813 C 967.162 -1.58484 0.271908 0
M  V30 9814 O 968.352 -1.65954 0.529609 0
M  V30 9815 C 965.484 -3.21167 1.143 0
M  V30 9816 H 966.677 -1.86441 2.34904 0
M  V30 9817 H 964.23 -0.942023 1.24722 0
M  V30 9818 H 964.965 -3.23829 0.174756 0
M  V30 9819 H 964.75 -3.40678 1.94116 0
M  V30 9820 H 966.24 -4.01231 1.15773 0
M  V30 9821 N 966.677 -1.24326 -0.968545 0
M  V30 9822 C 967.624 -1.0349 -2.06297 0
M  V30 9823 C 968.594 0.0515333 -1.6602 0
M  V30 9824 O 969.779 -0.102924 -1.90522 0
M  V30 9825 C 966.919 -0.64487 -3.39021 0
M  V30 9826 C 966.032 -1.80469 -3.92498 0
M  V30 9827 C 965.167 -1.36032 -5.13487 0
M  V30 9828 C 964.206 -2.49014 -5.59159 0
M  V30 9829 N 963.343 -2.05451 -6.71367 0
M  V30 9830 H 968.183 -1.97161 -2.23454 0
M  V30 9831 H 965.72 -0.982028 -1.0952 0
M  V30 9832 H 967.678 -0.399771 -4.1528 0
M  V30 9833 H 966.308 0.254845 -3.21792 0
M  V30 9834 H 965.36 -2.16348 -3.12886 0
M  V30 9835 H 966.672 -2.65365 -4.22354 0
M  V30 9836 H 965.826 -1.07405 -5.97117 0
M  V30 9837 H 964.565 -0.481887 -4.85313 0
M  V30 9838 H 963.57 -2.78402 -4.74102 0
M  V30 9839 H 964.795 -3.37413 -5.89346 0
M  V30 9840 H 962.741 -1.20004 -6.4493 0
M  V30 9841 H 962.658 -2.83901 -7.00668 0
M  V30 9842 H 963.926 -1.79962 -7.58442 0
M  V30 9843 N 968.156 1.1691 -1.05688 0
M  V30 9844 C 969.572 1.39288 -0.779167 0
M  V30 9845 C 969.772 1.91587 0.624231 0
M  V30 9846 O 968.828 2.11072 1.38582 0
M  V30 9847 C 970.141 2.37914 -1.83895 0
M  V30 9848 C 971.689 2.51611 -1.86175 0
M  V30 9849 C 972.164 3.53514 -2.9119 0
M  V30 9850 N 973.655 3.61036 -2.90184 0
M  V30 9851 C 974.39 4.39657 -3.68088 0
M  V30 9852 N 973.886 5.21752 -4.55793 0
M  V30 9853 N 975.679 4.3458 -3.56507 0
M  V30 9854 H 967.83 0.81296 -1.96226 0
M  V30 9855 H 970.093 0.419818 -0.849975 0
M  V30 9856 H 969.799 2.06568 -2.84645 0
M  V30 9857 H 969.673 3.37483 -1.68479 0
M  V30 9858 H 972.06 2.82264 -0.86087 0
M  V30 9859 H 972.141 1.52099 -2.05668 0
M  V30 9860 H 971.785 3.23599 -3.91467 0
M  V30 9861 H 971.715 4.52742 -2.68947 0
M  V30 9862 H 974.206 3.02428 -2.26596 0
M  V30 9863 H 974.519 5.78939 -5.11907 0
M  V30 9864 H 972.864 5.21116 -4.59851 0
M  V30 9865 H 976.055 3.69501 -2.87379 0
M  V30 9866 H 976.228 4.95607 -4.17466 0
M  V30 9867 N 969.634 0.838594 1.33437 0
M  V30 9868 C 970.864 0.446995 2.01707 0
M  V30 9869 C 971.272 -0.956335 1.63251 0
M  V30 9870 O 970.615 -1.63289 0.841566 0
M  V30 9871 C 970.677 0.487707 3.56176 0
M  V30 9872 C 970.341 1.8471 4.18009 0
M  V30 9873 C 971.338 2.81028 4.374 0
M  V30 9874 C 969.023 2.13987 4.54439 0
M  V30 9875 C 971.017 4.04785 4.92369 0
M  V30 9876 C 968.704 3.38 5.09116 0
M  V30 9877 C 969.702 4.33216 5.28027 0
M  V30 9878 O 969.39 5.55036 5.81541 0
M  V30 9879 H 969.122 0.175799 0.652741 0
M  V30 9880 H 971.676 1.13265 1.71348 0
M  V30 9881 H 969.906 -0.254719 3.8586 0
M  V30 9882 H 971.595 0.113971 4.0574 0
M  V30 9883 H 972.361 2.5971 4.09604 0
M  V30 9884 H 968.24 1.40668 4.39014 0
M  V30 9885 H 971.784 4.79114 5.07046 0
M  V30 9886 H 967.681 3.59175 5.36343 0
M  V30 9887 H 968.449 5.56772 5.99956 0
M  V30 9888 N 971.112 -1.45937 0.595003 0
M  V30 9889 C 972.075 -2.2888 -0.121102 0
M  V30 9890 C 973.075 -1.39075 -0.807149 0
M  V30 9891 O 974.265 -1.61326 -0.657228 0
M  V30 9892 C 971.397 -3.19778 -1.1813 0
M  V30 9893 H 972.59 -2.93673 0.607968 0
M  V30 9894 H 970.143 -1.5225 0.353495 0
M  V30 9895 H 970.878 -2.59759 -1.94154 0
M  V30 9896 H 970.663 -3.85914 -0.693724 0
M  V30 9897 H 972.153 -3.82176 -1.68319 0
M  V30 9898 N 972.59 -0.333456 -1.54032 0
M  V30 9899 C 973.5 0.536674 -2.28379 0
M  V30 9900 C 974.516 1.12068 -1.33104 0
M  V30 9901 O 975.692 1.13853 -1.66131 0
M  V30 9902 C 972.757 1.67677 -3.03456 0
M  V30 9903 C 971.818 1.12357 -4.14336 0
M  V30 9904 C 971.051 2.20933 -4.85823 0
M  V30 9905 O 971.274 3.41466 -4.569 0
M  V30 9906 O 970.208 1.85795 -5.72507 0
M  V30 9907 H 974.034 -0.0674003 -3.03625 0
M  V30 9908 H 971.619 -0.098823 -1.49073 0
M  V30 9909 H 973.501 2.34032 -3.50438 0
M  V30 9910 H 972.176 2.26684 -2.31076 0
M  V30 9911 H 971.083 0.424827 -3.7168 0
M  V30 9912 H 972.416 0.578497 -4.88789 0
M  V30 9913 N 974.068 1.57479 -0.061844 0
M  V30 9914 C 975.314 1.9421 0.604485 0
M  V30 9915 C 975.669 0.941011 1.67818 0
M  V30 9916 O 974.962 -0.0382264 1.91562 0
M  V30 9917 C 975.156 3.35394 1.23474 0
M  V30 9918 C 974.985 4.49144 0.223628 0
M  V30 9919 C 973.755 5.04949 -0.188187 0
M  V30 9920 C 975.953 5.11508 -0.535193 0
M  V30 9921 N 973.935 6.02235 -1.19105 0
M  V30 9922 C 975.306 6.04199 -1.39082 0
M  V30 9923 C 977.361 4.94364 -0.592346 0
M  V30 9924 C 976.064 6.81587 -2.2985 0
M  V30 9925 C 978.09 5.72388 -1.48749 0
M  V30 9926 C 977.452 6.6472 -2.33082 0
M  V30 9927 H 973.551 0.757931 0.192522 0
M  V30 9928 H 976.135 1.9422 -0.136667 0
M  V30 9929 H 974.306 3.36141 1.94587 0
M  V30 9930 H 976.038 3.59387 1.86073 0
M  V30 9931 H 972.793 4.73207 0.192933 0
M  V30 9932 H 973.217 6.55575 -1.68969 0
M  V30 9933 H 977.859 4.22776 0.045445 0
M  V30 9934 H 975.577 7.5246 -2.94669 0
M  V30 9935 H 979.163 5.61146 -1.53642 0
M  V30 9936 H 978.043 7.2404 -3.01225 0
M  V30 9937 N 975.546 -0.211634 1.56173 0
M  V30 9938 C 976.792 -0.935935 1.79911 0
M  V30 9939 C 977.125 -1.83589 0.633155 0
M  V30 9940 O 976.4 -1.91004 -0.367132 0
M  V30 9941 C 976.683 -1.76638 3.13801 0
M  V30 9942 C 976.536 -0.892259 4.40861 0
M  V30 9943 C 977.855 -2.74224 3.44223 0
M  V30 9944 H 974.974 -0.338822 0.654499 0
M  V30 9945 H 977.616 -0.20422 1.88899 0
M  V30 9946 H 975.766 -2.39021 3.0627 0
M  V30 9947 H 977.438 -0.284407 4.60422 0
M  V30 9948 H 975.681 -0.198145 4.33347 0
M  V30 9949 H 976.352 -1.50793 5.31004 0
M  V30 9950 H 978.828 -2.21975 3.51946 0
M  V30 9951 H 977.704 -3.29424 4.39057 0
M  V30 9952 H 977.965 -3.52455 2.66885 0
M  V30 9953 N 977.024 -1.50153 -0.478725 0
M  V30 9954 C 978.273 -1.60002 -1.22809 0
M  V30 9955 C 978.586 -0.302277 -1.9325 0
M  V30 9956 O 979.792 -0.279583 -2.70057 0
M  V30 9957 C 978.248 -2.82402 -2.23108 0
M  V30 9958 C 977.856 -4.19023 -1.58505 0
M  V30 9959 C 979.6 -3.01593 -2.98734 0
M  V30 9960 C 977.507 -5.32618 -2.57045 0
M  V30 9961 H 976.437 -0.595822 -0.462073 0
M  V30 9962 H 979.088 -1.76573 -0.499412 0
M  V30 9963 H 977.47 -2.59373 -2.99235 0
M  V30 9964 H 978.644 -4.52277 -0.882187 0
M  V30 9965 H 976.959 -4.05374 -0.951877 0
M  V30 9966 H 979.556 -3.8363 -3.72468 0
M  V30 9967 H 979.899 -2.1302 -3.57671 0
M  V30 9968 H 980.432 -3.24766 -2.29721 0
M  V30 9969 H 977.171 -6.23321 -2.02858 0
M  V30 9970 H 976.691 -5.03792 -3.25505 0
M  V30 9971 H 978.37 -5.62877 -3.19028 0
M  V30 9972 N 978.502 0.731368 -1.39602 0
M  V30 9973 C 979.73 1.52059 -1.40305 0
M  V30 9974 C 980.145 1.888 0.00147921 0
M  V30 9975 O 979.502 1.54354 0.973715 0
M  V30 9976 C 979.553 2.80588 -2.27931 0
M  V30 9977 O 979.274 2.45406 -3.62915 0
M  V30 9978 C 980.775 3.74592 -2.37056 0
M  V30 9979 H 977.995 0.469787 -0.479104 0
M  V30 9980 H 980.539 0.903436 -1.83462 0
M  V30 9981 H 978.694 3.38626 -1.88178 0
M  V30 9982 H 979.108 3.27996 -4.09291 0
M  V30 9983 H 980.582 4.61662 -3.02609 0
M  V30 9984 H 981.059 4.16597 -1.39081 0
M  V30 9985 H 981.665 3.22471 -2.77295 0
M  V30 9986 N 979.98 1.24838 0.961938 0
M  V30 9987 C 981.391 1.08369 1.5203 0
M  V30 9988 C 981.742 -0.343005 1.93178 0
M  V30 9989 O 980.867 -1.2321 1.779 0
M  V30 9990 C 981.462 1.96102 2.76278 0
M  V30 9991 C 980.021 1.8384 3.28451 0
M  V30 9992 C 979.168 1.9069 2.01327 0
M  V30 9993 H 982.119 1.38231 0.779613 0
M  V30 9994 H 982.14 1.4967 3.49827 0
M  V30 9995 H 981.652 2.99931 2.46298 0
M  V30 9996 H 979.753 0.828653 3.63269 0
M  V30 9997 H 979.866 2.68251 3.96961 0
M  V30 9998 H 978.23 1.34488 2.16299 0
M  V30 9999 H 979.013 2.96111 1.73705 0
M  V30 10000 N 981.458 -1.16348 1.06306 0
M  V30 10001 C 982.874 -1.38873 0.786543 0
M  V30 10002 C 983.074 -1.91915 -0.614061 0
M  V30 10003 O 982.13 -2.11804 -1.3746 0
M  V30 10004 C 983.443 -2.36936 1.85154 0
M  V30 10005 C 984.991 -2.5062 1.87506 0
M  V30 10006 C 985.466 -3.51965 2.9306 0
M  V30 10007 N 986.957 -3.59492 2.92095 0
M  V30 10008 C 987.692 -4.37699 3.70415 0
M  V30 10009 N 987.188 -5.19327 4.58553 0
M  V30 10010 N 988.981 -4.32683 3.58806 0
M  V30 10011 H 981.132 -0.802542 1.96655 0
M  V30 10012 H 983.395 -0.415304 0.852189 0
M  V30 10013 H 983.101 -2.05056 2.85736 0
M  V30 10014 H 982.975 -3.36585 1.70267 0
M  V30 10015 H 985.362 -2.81804 0.875827 0
M  V30 10016 H 985.443 -1.51006 2.06472 0
M  V30 10017 H 985.087 -3.21518 3.93177 0
M  V30 10018 H 985.017 -4.51309 2.71344 0
M  V30 10019 H 987.508 -3.01222 2.28197 0
M  V30 10020 H 987.821 -5.76216 5.1497 0
M  V30 10021 H 986.166 -5.1867 4.62608 0
M  V30 10022 H 989.357 -3.67971 2.89335 0
M  V30 10023 H 989.53 -4.93386 4.20088 0
M  V30 10024 N 982.937 -0.845659 -1.3299 0
M  V30 10025 C 983.869 -0.241097 -2.27928 0
M  V30 10026 C 984.882 0.582048 -1.5204 0
M  V30 10027 O 986.071 0.408008 -1.73774 0
M  V30 10028 C 983.171 0.678652 -3.32035 0
M  V30 10029 C 982.344 -0.106652 -4.3727 0
M  V30 10030 C 981.403 0.737478 -5.21006 0
M  V30 10031 O 980.429 0.174231 -5.68933 0
M  V30 10032 N 981.631 2.05372 -5.42957 0
M  V30 10033 H 984.396 -1.05685 -2.80448 0
M  V30 10034 H 981.957 -0.704771 -1.45755 0
M  V30 10035 H 983.949 1.24849 -3.84961 0
M  V30 10036 H 982.519 1.3951 -2.79742 0
M  V30 10037 H 981.739 -0.857897 -3.84752 0
M  V30 10038 H 983.027 -0.646386 -5.04677 0
M  V30 10039 H 982.425 2.53478 -5.05733 0
M  V30 10040 H 980.982 2.5719 -5.98913 0
M  V30 10041 N 984.415 1.45619 -0.602734 0
M  V30 10042 C 985.378 2.28941 0.108962 0
M  V30 10043 C 986.378 1.39501 0.799762 0
M  V30 10044 O 987.568 1.61673 0.648663 0
M  V30 10045 C 984.7 3.204 1.16432 0
M  V30 10046 H 985.893 2.93346 -0.623534 0
M  V30 10047 H 983.446 1.52061 -0.361565 0
M  V30 10048 H 984.181 2.60785 1.92774 0
M  V30 10049 H 983.966 3.86277 0.673248 0
M  V30 10050 H 985.456 3.83063 1.6629 0
M  V30 10051 N 985.893 0.34162 1.53853 0
M  V30 10052 C 986.856 -0.503541 2.236 0
M  V30 10053 C 987.856 -1.02912 1.23554 0
M  V30 10054 O 989.046 -0.918678 1.48007 0
M  V30 10055 C 986.178 -1.70126 2.95415 0
M  V30 10056 H 987.371 0.106437 2.99711 0
M  V30 10057 H 984.924 0.0929408 1.56023 0
M  V30 10058 H 985.659 -2.34999 2.23486 0
M  V30 10059 H 985.444 -1.33161 3.68796 0
M  V30 10060 H 986.934 -2.30077 3.48503 0
M  V30 10061 N 987.371 -1.57444 0.0701946 0
M  V30 10062 C 988.303 -2.09611 -0.927142 0
M  V30 10063 C 989.316 -1.02791 -1.26245 0
M  V30 10064 O 990.505 -1.30309 -1.21992 0
M  V30 10065 C 987.605 -2.54015 -2.24342 0
M  V30 10066 C 986.778 -3.84389 -2.08719 0
M  V30 10067 C 985.837 -4.14904 -3.23638 0
M  V30 10068 O 984.863 -4.84528 -2.98699 0
M  V30 10069 N 986.065 -3.68322 -4.48686 0
M  V30 10070 H 988.83 -2.95803 -0.481753 0
M  V30 10071 H 986.391 -1.61487 -0.115572 0
M  V30 10072 H 988.383 -2.71492 -3.00124 0
M  V30 10073 H 986.953 -1.72969 -2.60385 0
M  V30 10074 H 986.173 -3.76308 -1.17415 0
M  V30 10075 H 987.461 -4.69729 -1.9553 0
M  V30 10076 H 986.859 -3.12073 -4.71834 0
M  V30 10077 H 985.416 -3.91002 -5.21499 0
M  V30 10078 N 988.849 0.203349 -1.56283 0
M  V30 10079 C 989.779 1.2549 -1.96912 0
M  V30 10080 C 990.76 1.47919 -0.839884 0
M  V30 10081 O 991.945 1.59795 -1.10359 0
M  V30 10082 C 989.075 2.6009 -2.30153 0
M  V30 10083 C 988.029 2.52289 -3.45738 0
M  V30 10084 C 987.355 3.91086 -3.64632 0
M  V30 10085 C 988.655 2.05503 -4.80173 0
M  V30 10086 H 990.349 0.917306 -2.85002 0
M  V30 10087 H 987.895 0.439818 -1.37119 0
M  V30 10088 H 989.848 3.33829 -2.5717 0
M  V30 10089 H 988.572 2.95574 -1.38937 0
M  V30 10090 H 987.231 1.81006 -3.18798 0
M  V30 10091 H 986.879 4.23908 -2.7076 0
M  V30 10092 H 986.579 3.86742 -4.42385 0
M  V30 10093 H 988.103 4.66459 -3.94016 0
M  V30 10094 H 989.517 2.68995 -5.06275 0
M  V30 10095 H 987.914 2.1218 -5.61337 0
M  V30 10096 H 988.984 1.00793 -4.74309 0
M  V30 10097 N 990.327 1.50405 0.470755 0
M  V30 10098 C 991.743 1.37838 0.804534 0
M  V30 10099 C 991.943 0.434743 1.96754 0
M  V30 10100 O 990.999 -0.122507 2.52203 0
M  V30 10101 C 992.312 2.79212 1.11629 0
M  V30 10102 C 993.86 2.88129 1.22272 0
M  V30 10103 C 994.335 4.30337 1.5676 0
M  V30 10104 N 995.826 4.3329 1.63751 0
M  V30 10105 C 996.561 5.4032 1.91942 0
M  V30 10106 N 996.057 6.57558 2.18151 0
M  V30 10107 N 997.85 5.27764 1.93446 0
M  V30 10108 H 990.001 2.10332 -0.295689 0
M  V30 10109 H 992.264 0.945429 -0.0697733 0
M  V30 10110 H 991.97 3.50103 0.334778 0
M  V30 10111 H 991.844 3.16475 2.0524 0
M  V30 10112 H 994.231 2.17457 1.9949 0
M  V30 10113 H 994.312 2.54409 0.2664 0
M  V30 10114 H 993.956 5.01547 0.800817 0
M  V30 10115 H 993.886 4.61545 2.53543 0
M  V30 10116 H 996.377 3.48752 1.45535 0
M  V30 10117 H 996.69 7.34935 2.38936 0
M  V30 10118 H 995.035 6.60732 2.15542 0
M  V30 10119 H 998.226 4.35169 1.72468 0
M  V30 10120 H 998.399 6.11264 2.15081 0
M  V30 10121 N 991.805 -0.723954 1.39988 0
M  V30 10122 C 993.221 -1.03095 1.21834 0
M  V30 10123 C 993.421 -2.01309 0.0876647 0
M  V30 10124 O 992.477 -2.46277 -0.55714 0
M  V30 10125 C 993.79 -1.58267 2.5568 0
M  V30 10126 C 995.338 -1.70293 2.6262 0
M  V30 10127 C 995.813 -2.28872 3.96713 0
M  V30 10128 N 997.304 -2.36269 3.98411 0
M  V30 10129 C 998.039 -2.82557 4.98948 0
M  V30 10130 N 997.535 -3.28661 6.0988 0
M  V30 10131 N 999.328 -2.81866 4.86321 0
M  V30 10132 H 991.479 -0.0727891 2.12275 0
M  V30 10133 H 993.742 -0.0949029 0.943238 0
M  V30 10134 H 993.448 -0.935642 3.39026 0
M  V30 10135 H 993.322 -2.56914 2.76179 0
M  V30 10136 H 995.709 -2.34115 1.7965 0
M  V30 10137 H 995.79 -0.70268 2.45959 0
M  V30 10138 H 995.434 -1.65675 4.80119 0
M  V30 10139 H 995.364 -3.29595 4.107 0
M  V30 10140 H 997.855 -2.03697 3.18302 0
M  V30 10141 H 998.168 -3.62524 6.82493 0
M  V30 10142 H 996.513 -3.26641 6.13458 0
M  V30 10143 H 999.704 -2.45179 3.98754 0
M  V30 10144 H 999.877 -3.17626 5.64817 0
M  V30 10145 N 993.283 -1.25346 -0.955304 0
M  V30 10146 C 994.23 -1.05672 -2.05188 0
M  V30 10147 C 995.2 0.0339217 -1.66065 0
M  V30 10148 O 996.385 -0.123126 -1.90402 0
M  V30 10149 C 993.525 -0.680791 -3.38318 0
M  V30 10150 C 992.638 -1.84622 -3.90562 0
M  V30 10151 C 991.773 -1.41471 -5.12015 0
M  V30 10152 C 990.812 -2.54931 -5.56486 0
M  V30 10153 N 989.949 -2.1256 -6.69151 0
M  V30 10154 H 994.789 -1.9952 -2.2135 0
M  V30 10155 H 992.326 -0.993588 -1.08472 0
M  V30 10156 H 994.284 -0.443794 -4.14833 0
M  V30 10157 H 992.914 0.2207 -3.22045 0
M  V30 10158 H 991.966 -2.19654 -3.10574 0
M  V30 10159 H 993.278 -2.6983 -4.19515 0
M  V30 10160 H 992.432 -1.13732 -5.95945 0
M  V30 10161 H 991.171 -0.533334 -4.84775 0
M  V30 10162 H 990.176 -2.83415 -4.71122 0
M  V30 10163 H 991.401 -3.43645 -5.85734 0
M  V30 10164 H 989.347 -1.26838 -6.43621 0
M  V30 10165 H 989.264 -2.91317 -6.97618 0
M  V30 10166 H 990.532 -1.87996 -7.5649 0
M  V30 10167 N 994.761 1.15782 -1.06922 0
M  V30 10168 C 995.691 2.22538 -0.707045 0
M  V30 10169 C 996.672 1.67371 0.303471 0
M  V30 10170 O 997.857 1.9339 0.177189 0
M  V30 10171 C 994.987 3.47158 -0.0994269 0
M  V30 10172 C 993.941 4.15257 -1.03661 0
M  V30 10173 C 993.267 5.33902 -0.291974 0
M  V30 10174 C 994.567 4.65516 -2.36837 0
M  V30 10175 H 996.261 2.53089 -1.59958 0
M  V30 10176 H 993.807 1.21649 -0.770552 0
M  V30 10177 H 995.76 4.21073 0.165852 0
M  V30 10178 H 994.484 3.15926 0.828155 0
M  V30 10179 H 993.143 3.43276 -1.28674 0
M  V30 10180 H 992.791 4.98926 0.638928 0
M  V30 10181 H 992.491 5.80407 -0.916613 0
M  V30 10182 H 994.015 6.1059 -0.0343915 0
M  V30 10183 H 995.429 5.30981 -2.16175 0
M  V30 10184 H 993.826 5.22666 -2.94856 0
M  V30 10185 H 994.896 3.81387 -2.99453 0
M  V30 10186 N 996.239 0.8527 1.3254 0
M  V30 10187 C 997.149 0.298744 2.3269 0
M  V30 10188 C 998.165 -0.582418 1.63963 0
M  V30 10189 O 999.341 -0.483253 1.95516 0
M  V30 10190 C 996.406 -0.505453 3.42996 0
M  V30 10191 C 995.467 0.401618 4.27417 0
M  V30 10192 C 994.7 -0.364294 5.32455 0
M  V30 10193 O 994.923 -1.59448 5.47661 0
M  V30 10194 O 993.857 0.268892 6.01299 0
M  V30 10195 H 997.683 1.12843 2.81958 0
M  V30 10196 H 995.268 0.615584 1.36128 0
M  V30 10197 H 997.15 -0.961974 4.10273 0
M  V30 10198 H 995.825 -1.31197 2.95921 0
M  V30 10199 H 994.732 0.906274 3.62957 0
M  V30 10200 H 996.065 1.17327 4.78012 0
M  V30 10201 N 997.718 -1.45297 0.610449 0
M  V30 10202 C 998.965 -2.02218 0.106759 0
M  V30 10203 C 999.293 -1.47849 -1.26376 0
M  V30 10204 O 998.548 -0.644402 -1.84786 0
M  V30 10205 C 998.847 -3.57394 0.0205329 0
M  V30 10206 C 998.513 -4.30928 1.32709 0
M  V30 10207 C 997.175 -4.50735 1.68498 0
M  V30 10208 C 999.527 -4.72936 2.19046 0
M  V30 10209 C 996.855 -5.09806 2.90371 0
M  V30 10210 C 999.207 -5.33355 3.40169 0
M  V30 10211 C 997.871 -5.51384 3.76207 0
M  V30 10212 H 997.141 -0.739969 0.039066 0
M  V30 10213 H 999.788 -1.74326 0.792638 0
M  V30 10214 H 998.093 -3.84581 -0.748623 0
M  V30 10215 H 999.79 -3.99144 -0.385386 0
M  V30 10216 H 996.38 -4.15827 1.03854 0
M  V30 10217 H 1000.56 -4.57365 1.92695 0
M  V30 10218 H 995.82 -5.21953 3.18395 0
M  V30 10219 H 999.994 -5.64859 4.07318 0
M  V30 10220 H 997.621 -5.96924 4.70729 0
M  V30 10221 N 999.196 -0.349774 -1.5367 0
M  V30 10222 C 1000.44 0.244827 -2.01015 0
M  V30 10223 C 1000.77 1.50057 -1.23746 0
M  V30 10224 O 1000.03 1.9315 -0.314872 0
M  V30 10225 C 1000.32 0.598311 -3.52356 0
M  V30 10226 C 999.991 -0.56127 -4.47393 0
M  V30 10227 C 998.653 -0.879481 -4.73095 0
M  V30 10228 C 1001 -1.3389 -5.03709 0
M  V30 10229 C 998.333 -1.97758 -5.52366 0
M  V30 10230 C 1000.68 -2.4273 -5.84179 0
M  V30 10231 C 999.349 -2.75103 -6.08173 0
M  V30 10232 H 998.619 0.0895884 -0.735564 0
M  V30 10233 H 1001.27 -0.478975 -1.85413 0
M  V30 10234 H 999.571 1.40291 -3.65822 0
M  V30 10235 H 1001.27 1.07036 -3.86451 0
M  V30 10236 H 997.858 -0.303201 -4.27526 0
M  V30 10237 H 1002.04 -1.10632 -4.83812 0
M  V30 10238 H 997.298 -2.23257 -5.6918 0
M  V30 10239 H 1001.47 -3.03412 -6.26828 0
M  V30 10240 H 999.099 -3.60317 -6.69385 0
M  V30 10241 N 1000.67 1.57404 -0.0785433 0
M  V30 10242 C 1001.9 1.98074 0.597862 0
M  V30 10243 C 1002.32 0.95714 1.6274 0
M  V30 10244 O 1001.67 -0.0553728 1.82416 0
M  V30 10245 C 1001.72 3.38815 1.26041 0
M  V30 10246 O 1001.45 4.37254 0.27207 0
M  V30 10247 C 1002.95 3.94397 2.024 0
M  V30 10248 H 1000.17 0.651263 0.161546 0
M  V30 10249 H 1002.71 2.03927 -0.152941 0
M  V30 10250 H 1000.87 3.34028 1.96225 0
M  V30 10251 H 1001.28 5.19136 0.74822 0
M  V30 10252 H 1002.75 4.95075 2.4414 0
M  V30 10253 H 1003.23 3.31308 2.88326 0
M  V30 10254 H 1003.84 4.02607 1.37068 0
M  V30 10255 N 1002.15 -0.195058 1.56388 0
M  V30 10256 C 1003.38 -0.930291 1.8447 0
M  V30 10257 C 1003.79 -1.77356 0.658901 0
M  V30 10258 O 1003.13 -1.79691 -0.381664 0
M  V30 10259 C 1003.19 -1.87626 3.06654 0
M  V30 10260 C 1002.86 -1.21494 4.40555 0
M  V30 10261 C 1003.86 -0.591847 5.1652 0
M  V30 10262 C 1001.54 -1.21878 4.8729 0
M  V30 10263 C 1003.53 0.0185743 6.37397 0
M  V30 10264 C 1001.22 -0.604524 6.08103 0
M  V30 10265 C 1002.22 0.0130731 6.82999 0
M  V30 10266 O 1001.91 0.617703 8.01523 0
M  V30 10267 H 1001.64 -0.276933 0.616672 0
M  V30 10268 H 1004.19 -0.207277 2.04351 0
M  V30 10269 H 1002.42 -2.63897 2.82658 0
M  V30 10270 H 1004.11 -2.47929 3.21382 0
M  V30 10271 H 1004.88 -0.581018 4.81507 0
M  V30 10272 H 1000.76 -1.68888 4.2895 0
M  V30 10273 H 1004.3 0.50124 6.95797 0
M  V30 10274 H 1000.2 -0.612855 6.42584 0
M  V30 10275 H 1000.97 0.514612 8.16881 0
M  V30 10276 N 1003.63 -1.50653 -0.462772 0
M  V30 10277 C 1004.88 -1.62297 -1.21603 0
M  V30 10278 C 1005.21 -0.326191 -1.91441 0
M  V30 10279 O 1004.48 0.67284 -1.82491 0
M  V30 10280 C 1004.77 -2.80901 -2.25315 0
M  V30 10281 C 1004.62 -4.20484 -1.59728 0
M  V30 10282 C 1005.94 -2.95049 -3.26549 0
M  V30 10283 H 1003.06 -0.590691 -0.440741 0
M  V30 10284 H 1005.7 -1.83064 -0.508675 0
M  V30 10285 H 1003.85 -2.63325 -2.85643 0
M  V30 10286 H 1005.52 -4.49669 -1.02932 0
M  V30 10287 H 1003.76 -4.24357 -0.900181 0
M  V30 10288 H 1004.44 -4.99416 -2.35133 0
M  V30 10289 H 1006.91 -3.11166 -2.76251 0
M  V30 10290 H 1005.79 -3.79645 -3.96435 0
M  V30 10291 H 1006.05 -2.06019 -3.91163 0
M  V30 10292 N 1005.11 0.71652 -1.4037 0
M  V30 10293 C 1006.52 1.02447 -1.22379 0
M  V30 10294 C 1006.72 2.0126 -0.0983394 0
M  V30 10295 O 1005.78 2.46569 0.544071 0
M  V30 10296 C 1007.09 1.56909 -2.56515 0
M  V30 10297 C 1008.64 1.68898 -2.6352 0
M  V30 10298 C 1009.12 2.26765 -3.97922 0
M  V30 10299 N 1010.61 2.34152 -3.99658 0
M  V30 10300 C 1011.34 2.79907 -5.00439 0
M  V30 10301 N 1010.84 3.25422 -6.11615 0
M  V30 10302 N 1012.63 2.79283 -4.87809 0
M  V30 10303 H 1004.78 0.0615306 -2.12311 0
M  V30 10304 H 1007.05 0.0898994 -0.943728 0
M  V30 10305 H 1006.75 0.917649 -3.39517 0
M  V30 10306 H 1006.63 2.55446 -2.77538 0
M  V30 10307 H 1009.01 2.33159 -1.8089 0
M  V30 10308 H 1009.09 0.689626 -2.46329 0
M  V30 10309 H 1008.74 1.63126 -4.80991 0
M  V30 10310 H 1008.67 3.27413 -4.12442 0
M  V30 10311 H 1011.16 2.02006 -3.19378 0
M  V30 10312 H 1011.47 3.58899 -6.84406 0
M  V30 10313 H 1009.82 3.23383 -6.15181 0
M  V30 10314 H 1013.01 2.43061 -4.00049 0
M  V30 10315 H 1013.18 3.14626 -5.66493 0
M  V30 10316 N 1006.59 1.25851 0.948643 0
M  V30 10317 C 1007.83 1.10954 1.69397 0
M  V30 10318 C 1008.16 -0.348443 1.91353 0
M  V30 10319 O 1007.42 -1.27285 1.48651 0
M  V30 10320 C 1007.72 1.81565 3.07846 0
M  V30 10321 C 1007.38 3.31477 3.0567 0
M  V30 10322 C 1006.04 3.72371 3.04784 0
M  V30 10323 C 1008.4 4.27225 2.98543 0
M  V30 10324 C 1005.72 5.07416 2.94527 0
M  V30 10325 C 1008.08 5.62301 2.89828 0
M  V30 10326 C 1006.74 6.02516 2.87281 0
M  V30 10327 H 1006.01 0.406011 0.619868 0
M  V30 10328 H 1008.66 1.562 1.10787 0
M  V30 10329 H 1006.96 1.28767 3.70035 0
M  V30 10330 H 1008.66 1.67486 3.64348 0
M  V30 10331 H 1005.25 2.98941 3.07135 0
M  V30 10332 H 1009.43 3.96618 2.98342 0
M  V30 10333 H 1004.69 5.37746 2.90928 0
M  V30 10334 H 1008.86 6.36182 2.83276 0
M  V30 10335 H 1006.49 7.07116 2.79089 0
M  V30 10336 N 1008.06 -1.15214 1.07534 0
M  V30 10337 C 1009.34 -1.82155 0.71267 0
M  V30 10338 C 1009.72 -1.95163 -0.804655 0
M  V30 10339 O 1009.07 -1.50451 -1.71979 0
M  V30 10340 C 1009.28 -3.18392 1.42925 0
M  V30 10341 C 1010.63 -3.94005 1.58256 0
M  V30 10342 O 1011.65 -3.27952 1.39018 0
M  V30 10343 O 1010.51 -5.12436 1.89925 0
M  V30 10344 H 1007.6 -0.78709 0.253808 0
M  V30 10345 H 1010.15 -1.22309 1.17638 0
M  V30 10346 H 1008.92 -3.04034 2.46331 0
M  V30 10347 H 1008.55 -3.85925 0.956439 0
M  V30 10348 N 1009.54 -0.859717 -1.32086 0
M  V30 10349 C 1010.47 -0.323502 -2.31248 0
M  V30 10350 C 1011.45 0.580085 -1.59903 0
M  V30 10351 O 1012.64 0.499265 -1.87673 0
M  V30 10352 C 1009.77 0.484661 -3.43902 0
M  V30 10353 C 1008.72 -0.324933 -4.26765 0
M  V30 10354 C 1008.05 0.608281 -5.31229 0
M  V30 10355 C 1009.35 -1.55344 -4.98664 0
M  V30 10356 H 1011.04 -1.15209 -2.76346 0
M  V30 10357 H 1008.59 -0.555442 -1.32856 0
M  V30 10358 H 1010.54 0.870238 -4.12316 0
M  V30 10359 H 1009.27 1.34666 -2.97544 0
M  V30 10360 H 1007.92 -0.692328 -3.60003 0
M  V30 10361 H 1007.57 1.46727 -4.81124 0
M  V30 10362 H 1007.27 0.0705571 -5.87558 0
M  V30 10363 H 1008.8 0.990925 -6.02506 0
M  V30 10364 H 1010.21 -1.23987 -5.59732 0
M  V30 10365 H 1008.61 -2.02947 -5.64741 0
M  V30 10366 H 1009.68 -2.31192 -4.26237 0
M  V30 10367 N 1011.02 1.44971 -0.618145 0
M  V30 10368 C 1011.93 2.34403 0.0960457 0
M  V30 10369 C 1012.95 1.51862 0.849355 0
M  V30 10370 O 1014.12 1.84632 0.804557 0
M  V30 10371 C 1011.19 3.29646 1.07397 0
M  V30 10372 C 1010.25 4.28095 0.321466 0
M  V30 10373 C 1009.48 5.18787 1.25281 0
M  V30 10374 O 1009.7 5.1313 2.49106 0
M  V30 10375 O 1008.64 5.97282 0.744156 0
M  V30 10376 H 1012.46 2.96898 -0.639176 0
M  V30 10377 H 1010.05 1.44529 -0.37837 0
M  V30 10378 H 1011.93 3.88307 1.63694 0
M  V30 10379 H 1010.61 2.69702 1.79004 0
M  V30 10380 H 1009.51 3.73019 -0.284223 0
M  V30 10381 H 1010.85 4.90923 -0.354315 0
M  V30 10382 N 1012.5 0.357919 1.53482 0
M  V30 10383 C 1013.43 -0.484231 2.28424 0
M  V30 10384 C 1014.41 -1.09046 1.30548 0
M  V30 10385 O 1015.59 -1.10916 1.59409 0
M  V30 10386 C 1012.72 -1.62803 3.06778 0
M  V30 10387 C 1011.68 -1.14943 4.12277 0
M  V30 10388 C 1011 -2.38287 4.78669 0
M  V30 10389 C 1012.3 -0.239627 5.2175 0
M  V30 10390 H 1014 0.140979 2.99068 0
M  V30 10391 H 1011.54 0.069244 1.43833 0
M  V30 10392 H 1013.5 -2.22374 3.57949 0
M  V30 10393 H 1012.22 -2.28036 2.3381 0
M  V30 10394 H 1010.88 -0.576442 3.6204 0
M  V30 10395 H 1010.53 -3.01959 4.02281 0
M  V30 10396 H 1010.23 -2.06939 5.49955 0
M  V30 10397 H 1011.75 -2.98558 5.32631 0
M  V30 10398 H 1013.17 -0.742597 5.6847 0
M  V30 10399 H 1011.56 -0.0173747 6.00097 0
M  V30 10400 H 1012.63 0.720333 4.7952 0
M  V30 10401 N 1013.98 -1.5736 0.0868897 0
M  V30 10402 C 1015.2 -1.98388 -0.587349 0
M  V30 10403 C 1015.62 -0.965757 -1.6223 0
M  V30 10404 O 1014.98 0.0456981 -1.82443 0
M  V30 10405 C 1015.03 -3.39479 -1.24242 0
M  V30 10406 O 1014.75 -4.37393 -0.248878 0
M  V30 10407 C 1016.25 -3.95465 -2.00305 0
M  V30 10408 H 1013.47 -0.652111 -0.15809 0
M  V30 10409 H 1016.01 -2.03843 0.163754 0
M  V30 10410 H 1014.17 -3.35063 -1.94451 0
M  V30 10411 H 1014.58 -5.19525 -0.720678 0
M  V30 10412 H 1016.06 -4.96363 -2.41511 0
M  V30 10413 H 1016.53 -3.32832 -2.86565 0
M  V30 10414 H 1017.14 -4.03328 -1.34931 0
M  V30 10415 N 1015.45 0.186762 -1.56489 0
M  V30 10416 C 1016.7 0.905852 -1.81109 0
M  V30 10417 C 1017.03 1.82906 -0.661477 0
M  V30 10418 O 1016.28 1.92504 0.35226 0
M  V30 10419 C 1016.58 1.74719 -3.11782 0
M  V30 10420 C 1016.25 0.974238 -4.40249 0
M  V30 10421 C 1014.91 0.760856 -4.75147 0
M  V30 10422 C 1017.26 0.430971 -5.19415 0
M  V30 10423 C 1014.59 -0.00714216 -5.867 0
M  V30 10424 C 1016.94 -0.323859 -6.3177 0
M  V30 10425 C 1015.61 -0.548183 -6.65245 0
M  V30 10426 H 1014.88 0.331475 -0.662726 0
M  V30 10427 H 1017.52 0.171703 -1.90729 0
M  V30 10428 H 1015.83 2.55027 -2.97437 0
M  V30 10429 H 1017.53 2.30634 -3.28038 0
M  V30 10430 H 1014.12 1.15057 -4.12868 0
M  V30 10431 H 1018.3 0.583205 -4.92861 0
M  V30 10432 H 1013.56 -0.190832 -6.11102 0
M  V30 10433 H 1017.73 -0.752155 -6.92326 0
M  V30 10434 H 1015.36 -1.14518 -7.51525 0
M  V30 10435 N 1016.93 1.50896 0.454776 0
M  V30 10436 C 1018.18 1.6294 1.20741 0
M  V30 10437 C 1018.51 0.336339 1.91265 0
M  V30 10438 O 1017.79 -0.663153 1.82846 0
M  V30 10439 C 1018.07 2.82092 2.23822 0
M  V30 10440 C 1017.92 4.21326 1.57495 0
M  V30 10441 C 1019.24 2.96777 3.24979 0
M  V30 10442 H 1016.36 0.59302 0.437603 0
M  V30 10443 H 1019 1.83331 0.498959 0
M  V30 10444 H 1017.15 2.64837 2.84243 0
M  V30 10445 H 1018.82 4.50209 1.00546 0
M  V30 10446 H 1017.07 4.24829 0.877664 0
M  V30 10447 H 1017.74 5.00656 2.32482 0
M  V30 10448 H 1020.21 3.12627 2.74597 0
M  V30 10449 H 1019.09 3.81742 3.94416 0
M  V30 10450 H 1019.35 2.08091 3.90065 0
M  V30 10451 N 1018.41 -0.709066 1.40748 0
M  V30 10452 C 1019.66 -1.4646 1.38681 0
M  V30 10453 C 1019.97 -1.95599 -0.0056209 0
M  V30 10454 O 1021.18 -2.71091 -0.148907 0
M  V30 10455 C 1019.63 -2.64771 2.43771 0
M  V30 10456 C 1019.24 -2.22474 3.88856 0
M  V30 10457 C 1020.99 -3.42475 2.50821 0
M  V30 10458 C 1018.89 -3.37663 4.85528 0
M  V30 10459 H 1017.82 -0.550084 0.515678 0
M  V30 10460 H 1020.47 -0.771074 1.66513 0
M  V30 10461 H 1018.86 -3.36325 2.09048 0
M  V30 10462 H 1020.03 -1.58297 4.32757 0
M  V30 10463 H 1018.35 -1.57798 3.85342 0
M  V30 10464 H 1020.94 -4.28201 3.20232 0
M  V30 10465 H 1021.29 -3.86738 1.54076 0
M  V30 10466 H 1021.82 -2.77969 2.84567 0
M  V30 10467 H 1018.56 -2.98426 5.83628 0
M  V30 10468 H 1018.08 -4.00734 4.46287 0
M  V30 10469 H 1019.76 -4.03636 5.05655 0
M  V30 10470 N 1019.89 -1.26353 -0.941956 0
M  V30 10471 C 1021.12 -1.14626 -1.72245 0
M  V30 10472 C 1021.53 0.298588 -1.86424 0
M  V30 10473 O 1020.89 1.2045 -1.37106 0
M  V30 10474 C 1020.94 -1.80933 -3.12963 0
M  V30 10475 O 1020.66 -3.19771 -2.99463 0
M  V30 10476 C 1022.16 -1.7515 -4.07231 0
M  V30 10477 H 1019.38 -0.3992 -0.539333 0
M  V30 10478 H 1021.93 -1.66958 -1.1809 0
M  V30 10479 H 1020.08 -1.32541 -3.64021 0
M  V30 10480 H 1020.5 -3.52571 -3.88322 0
M  V30 10481 H 1021.97 -2.26183 -5.03533 0
M  V30 10482 H 1022.45 -0.717855 -4.33294 0
M  V30 10483 H 1023.05 -2.2309 -3.62093 0
M  V30 10484 N 1021.37 1.14642 -1.08144 0
M  V30 10485 C 1022.59 1.90025 -0.830972 0
M  V30 10486 C 1023.02 1.77904 0.610879 0
M  V30 10487 O 1022.38 1.11735 1.42776 0
M  V30 10488 C 1022.42 3.38085 -1.25422 0
M  V30 10489 O 1021.53 4.10412 -0.404486 0
M  V30 10490 H 1020.87 0.591327 -0.302041 0
M  V30 10491 H 1023.4 1.4513 -1.44216 0
M  V30 10492 H 1023.41 3.88894 -1.23391 0
M  V30 10493 H 1022.08 3.46226 -2.30435 0
M  V30 10494 H 1020.66 3.69693 -0.487987 0
M  V30 10495 N 1022.85 0.866709 1.31628 0
M  V30 10496 C 1024.07 0.49039 2.01004 0
M  V30 10497 C 1024.49 -0.916244 1.65077 0
M  V30 10498 O 1023.85 -1.59975 0.8783 0
M  V30 10499 C 1023.9 0.634011 3.55897 0
M  V30 10500 O 1023.62 1.98525 3.90537 0
M  V30 10501 C 1025.12 0.258277 4.42547 0
M  V30 10502 H 1022.34 0.191421 0.643117 0
M  V30 10503 H 1024.88 1.16698 1.67934 0
M  V30 10504 H 1023.04 0.00501801 3.874 0
M  V30 10505 H 1023.45 1.99067 4.85255 0
M  V30 10506 H 1024.93 0.409733 5.50477 0
M  V30 10507 H 1025.4 -0.802301 4.3181 0
M  V30 10508 H 1026.01 0.862837 4.16456 0
M  V30 10509 N 1024.32 -1.44642 0.625825 0
M  V30 10510 C 1025.26 -2.28882 -0.120614 0
M  V30 10511 C 1026.27 -1.40985 -0.81407 0
M  V30 10512 O 1027.46 -1.65188 -0.676404 0
M  V30 10513 C 1024.56 -3.17217 -1.19274 0
M  V30 10514 C 1023.73 -4.33499 -0.582839 0
M  V30 10515 C 1022.79 -5.02908 -1.54823 0
M  V30 10516 O 1021.82 -5.59102 -1.06743 0
M  V30 10517 N 1023.02 -5.0387 -2.88262 0
M  V30 10518 H 1025.78 -2.93585 0.602318 0
M  V30 10519 H 1023.34 -1.5503 0.466604 0
M  V30 10520 H 1025.34 -3.60515 -1.83878 0
M  V30 10521 H 1023.91 -2.54301 -1.81797 0
M  V30 10522 H 1023.13 -3.93458 0.241696 0
M  V30 10523 H 1024.41 -5.08561 -0.155914 0
M  V30 10524 H 1023.81 -4.59539 -3.2991 0
M  V30 10525 H 1022.37 -5.50974 -3.4824 0
M  V30 10526 N 1025.8 -0.366053 -1.5329 0
M  V30 10527 C 1026.73 0.514916 -2.23341 0
M  V30 10528 C 1027.75 1.04579 -1.24768 0
M  V30 10529 O 1028.94 0.952084 -1.50989 0
M  V30 10530 C 1026.04 1.72374 -2.91788 0
M  V30 10531 C 1025.21 1.32429 -4.16871 0
M  V30 10532 C 1024.27 2.39524 -4.68524 0
M  V30 10533 O 1023.29 2.01895 -5.32191 0
M  V30 10534 N 1024.5 3.71116 -4.46378 0
M  V30 10535 H 1027.26 -0.0851272 -2.99579 0
M  V30 10536 H 1024.82 -0.191255 -1.60766 0
M  V30 10537 H 1026.81 2.43496 -3.23252 0
M  V30 10538 H 1025.38 2.23064 -2.19 0
M  V30 10539 H 1024.6 0.442901 -3.91704 0
M  V30 10540 H 1025.89 1.03372 -4.98188 0
M  V30 10541 H 1025.29 4.04463 -3.95508 0
M  V30 10542 H 1023.85 4.38341 -4.82391 0
M  V30 10543 N 1027.28 1.57312 -0.0952337 0
M  V30 10544 C 1028.69 1.81589 0.433875 0
M  V30 10545 C 1029.04 1.01086 1.68155 0
M  V30 10546 O 1028.17 0.240272 2.15062 0
M  V30 10547 C 1028.76 3.29366 0.793931 0
M  V30 10548 C 1027.32 3.54407 1.26778 0
M  V30 10549 C 1026.47 2.76035 0.264518 0
M  V30 10550 H 1029.42 1.55426 -0.320675 0
M  V30 10551 H 1029.44 3.42697 1.65345 0
M  V30 10552 H 1028.95 3.87932 -0.114334 0
M  V30 10553 H 1027.05 3.01173 2.19376 0
M  V30 10554 H 1027.17 4.63055 1.22952 0
M  V30 10555 H 1025.53 2.43509 0.746691 0
M  V30 10556 H 1026.31 3.37349 -0.636429 0
M  V30 10557 N 1028.76 -0.17846 1.56586 0
M  V30 10558 C 1029.98 -0.916061 1.86073 0
M  V30 10559 C 1030.41 -1.75349 0.680754 0
M  V30 10560 O 1029.77 -1.77479 -0.37028 0
M  V30 10561 C 1029.81 -1.77445 3.1392 0
M  V30 10562 O 1028.92 -2.87524 2.95641 0
M  V30 10563 H 1028.26 -0.257031 0.612234 0
M  V30 10564 H 1030.79 -0.178755 2.03818 0
M  V30 10565 H 1030.8 -2.1758 3.45142 0
M  V30 10566 H 1029.47 -1.15927 3.99417 0
M  V30 10567 H 1028.05 -2.51023 2.75757 0
M  V30 10568 N 1030.24 -1.51135 -0.446768 0
M  V30 10569 C 1031.46 -1.67129 -1.21965 0
M  V30 10570 C 1031.88 -0.36467 -1.85245 0
M  V30 10571 O 1031.24 0.655908 -1.70306 0
M  V30 10572 C 1031.29 -2.78016 -2.31061 0
M  V30 10573 O 1031.01 -4.03615 -1.70371 0
M  V30 10574 C 1032.51 -3.05197 -3.21511 0
M  V30 10575 H 1029.73 -0.561111 -0.367961 0
M  V30 10576 H 1032.27 -1.97499 -0.530517 0
M  V30 10577 H 1030.43 -2.50272 -2.95707 0
M  V30 10578 H 1030.84 -4.65126 -2.424 0
M  V30 10579 H 1032.32 -3.8639 -3.94216 0
M  V30 10580 H 1032.79 -2.17228 -3.81718 0
M  V30 10581 H 1033.4 -3.34565 -2.62577 0
M  V30 10582 N 1031.71 0.701592 -1.41122 0
M  V30 10583 C 1032.94 1.49049 -1.43499 0
M  V30 10584 C 1033.36 1.88761 -0.0385684 0
M  V30 10585 O 1032.71 1.56384 0.940755 0
M  V30 10586 C 1032.76 2.7569 -2.33832 0
M  V30 10587 O 1032.49 2.37653 -3.68039 0
M  V30 10588 C 1033.99 3.69479 -2.44949 0
M  V30 10589 H 1031.21 0.459519 -0.488961 0
M  V30 10590 H 1033.75 0.864318 -1.85337 0
M  V30 10591 H 1031.91 3.34559 -1.95318 0
M  V30 10592 H 1032.32 3.19241 -4.16156 0
M  V30 10593 H 1033.79 4.55139 -3.12334 0
M  V30 10594 H 1034.27 4.13553 -1.47887 0
M  V30 10595 H 1034.88 3.16517 -2.84072 0
M  V30 10596 N 1033.19 1.2685 0.935242 0
M  V30 10597 C 1034.12 1.04717 2.0388 0
M  V30 10598 C 1035.14 0.00567507 1.62799 0
M  V30 10599 O 1036.33 0.246408 1.76791 0
M  V30 10600 C 1033.43 0.56496 3.34158 0
M  V30 10601 C 1032.6 1.67704 4.03973 0
M  V30 10602 C 1031.66 1.19186 5.12524 0
M  V30 10603 O 1030.68 1.89008 5.36903 0
M  V30 10604 N 1031.89 0.0434554 5.80484 0
M  V30 10605 H 1034.65 1.99746 2.23431 0
M  V30 10606 H 1032.21 1.18316 1.10512 0
M  V30 10607 H 1034.2 0.224436 4.04077 0
M  V30 10608 H 1032.77 -0.291899 3.11234 0
M  V30 10609 H 1031.99 2.18821 3.27889 0
M  V30 10610 H 1033.28 2.42361 4.47368 0
M  V30 10611 H 1032.68 -0.539502 5.63122 0
M  V30 10612 H 1031.24 -0.237946 6.51366 0
M  V30 10613 N 1034.67 -1.14067 1.0875 0
M  V30 10614 C 1035.62 -2.21332 0.715195 0
M  V30 10615 C 1036.61 -1.67059 -0.280679 0
M  V30 10616 O 1037.82 -1.79432 -0.142874 0
M  V30 10617 H 1034.19 -0.721126 0.213264 0
M  V30 10618 H 1036.16 -2.50002 1.62916 0
M  V30 10619 C 1034.91 -3.474 0.144401 0
M  V30 10620 H 1034.24 -3.89495 0.901884 0
M  V30 10621 H 1035.68 -4.23928 -0.0782564 0
M  V30 10622 C 1034.14 -3.17787 -1.11862 0
M  V30 10623 O 1034.67 -3.35906 -2.20295 0
M  V30 10624 N 1032.87 -2.71719 -1.03039 0
M  V30 10625 H 1032.42 -2.57175 -0.14793 0
M  V30 10626 H 1032.38 -2.52281 -1.87621 0
M  V30 10627 N 1036.15 -0.873678 -1.31166 0
M  V30 10628 C 1037.08 -0.289389 -2.27366 0
M  V30 10629 C 1038.09 0.549667 -1.5324 0
M  V30 10630 O 1039.28 0.371056 -1.74601 0
M  V30 10631 C 1036.38 0.60807 -3.334 0
M  V30 10632 C 1035.56 -0.199379 -4.36945 0
M  V30 10633 C 1034.61 0.626798 -5.22454 0
M  V30 10634 O 1033.64 0.0535121 -5.69175 0
M  V30 10635 N 1034.84 1.93809 -5.47191 0
M  V30 10636 H 1037.61 -1.1161 -2.78143 0
M  V30 10637 H 1035.17 -0.735529 -1.44228 0
M  V30 10638 H 1037.16 1.16656 -3.87522 0
M  V30 10639 H 1035.73 1.33545 -2.82638 0
M  V30 10640 H 1034.95 -0.939316 -3.82845 0
M  V30 10641 H 1036.24 -0.75329 -5.03193 0
M  V30 10642 H 1035.64 2.42693 -5.10995 0
M  V30 10643 H 1034.19 2.44428 -6.04234 0
M  V30 10644 N 1037.63 1.44308 -0.633487 0
M  V30 10645 C 1038.9 1.95476 -0.0697262 0
M  V30 10646 C 1039.28 1.57539 1.40516 0
M  V30 10647 O 1038.63 0.850632 2.12077 0
M  V30 10648 C 1038.84 3.4775 -0.295093 0
M  V30 10649 C 1040.19 4.24177 -0.189542 0
M  V30 10650 O 1041.21 3.55479 -0.226586 0
M  V30 10651 O 1040.07 5.46415 -0.096479 0
M  V30 10652 H 1037.17 0.826734 0.0209582 0
M  V30 10653 H 1039.71 1.54347 -0.705354 0
M  V30 10654 H 1038.48 3.6842 -1.31841 0
M  V30 10655 H 1038.11 3.95832 0.37456 0
M  V30 10656 N 1039.1 0.374177 1.53094 0
M  V30 10657 C 1040.07 -0.455999 2.24618 0
M  V30 10658 C 1041.07 -1.00269 1.25709 0
M  V30 10659 O 1042.26 -0.887077 1.49922 0
M  V30 10660 C 1039.39 -1.63822 2.98957 0
M  V30 10661 H 1040.58 0.169986 2.99418 0
M  V30 10662 H 1038.14 0.126015 1.55791 0
M  V30 10663 H 1038.87 -2.30205 2.28421 0
M  V30 10664 H 1038.66 -1.25308 3.71538 0
M  V30 10665 H 1040.15 -2.22633 3.53305 0
M  V30 10666 N 1040.58 -1.57259 0.103575 0
M  V30 10667 C 1041.51 -2.1153 -0.882472 0
M  V30 10668 C 1042.53 -1.05446 -1.24036 0
M  V30 10669 O 1043.72 -1.32867 -1.192 0
M  V30 10670 C 1040.82 -2.58717 -2.18903 0
M  V30 10671 C 1039.99 -3.8873 -2.00519 0
M  V30 10672 C 1039.05 -4.21675 -3.14764 0
M  V30 10673 O 1038.07 -4.90755 -2.88355 0
M  V30 10674 N 1039.28 -3.77757 -4.40772 0
M  V30 10675 H 1042.04 -2.96758 -0.418901 0
M  V30 10676 H 1039.6 -1.61696 -0.0812921 0
M  V30 10677 H 1041.59 -2.77797 -2.94297 0
M  V30 10678 H 1040.16 -1.78454 -2.56657 0
M  V30 10679 H 1039.38 -3.78714 -1.09406 0
M  V30 10680 H 1040.67 -4.73771 -1.85522 0
M  V30 10681 H 1040.07 -3.22011 -4.65108 0
M  V30 10682 H 1038.63 -4.01975 -5.13088 0
M  V30 10683 N 1042.06 0.170153 -1.56679 0
M  V30 10684 C 1043.31 0.884902 -1.81252 0
M  V30 10685 C 1043.62 1.83361 -0.681024 0
M  V30 10686 O 1044.83 2.59082 -0.811722 0
M  V30 10687 C 1043.28 1.62408 -3.21172 0
M  V30 10688 C 1042.89 0.718947 -4.42194 0
M  V30 10689 C 1044.64 2.32699 -3.55037 0
M  V30 10690 C 1042.54 1.45843 -5.73135 0
M  V30 10691 H 1041.47 0.33418 -0.675899 0
M  V30 10692 H 1044.12 0.137818 -1.82982 0
M  V30 10693 H 1042.51 2.41596 -3.13763 0
M  V30 10694 H 1043.68 -0.0360521 -4.60786 0
M  V30 10695 H 1042 0.125634 -4.1621 0
M  V30 10696 H 1044.59 2.88621 -4.50114 0
M  V30 10697 H 1044.94 3.08092 -2.79974 0
M  V30 10698 H 1045.47 1.60453 -3.64005 0
M  V30 10699 H 1042.21 0.746799 -6.51232 0
M  V30 10700 H 1041.73 2.18672 -5.58518 0
M  V30 10701 H 1043.41 2.0056 -6.1513 0
M  V30 10702 N 1043.54 1.5137 0.438746 0
M  V30 10703 C 1044.47 1.75528 1.53987 0
M  V30 10704 C 1045.45 0.605067 1.58975 0
M  V30 10705 O 1046.63 0.847634 1.74725 0
M  V30 10706 C 1043.76 1.87904 2.92078 0
M  V30 10707 C 1042.72 3.0333 3.01951 0
M  V30 10708 C 1042.04 3.00888 4.42007 0
M  V30 10709 C 1043.34 4.43319 2.76163 0
M  V30 10710 H 1045.04 2.67728 1.34022 0
M  V30 10711 H 1042.58 1.28831 0.643308 0
M  V30 10712 H 1044.54 2.03388 3.69068 0
M  V30 10713 H 1043.26 0.923514 3.13271 0
M  V30 10714 H 1041.92 2.87549 2.274 0
M  V30 10715 H 1041.57 2.03116 4.60166 0
M  V30 10716 H 1041.27 3.78397 4.49544 0
M  V30 10717 H 1042.79 3.18464 5.20973 0
M  V30 10718 H 1044.21 4.59458 3.42887 0
M  V30 10719 H 1042.6 5.22523 2.9511 0
M  V30 10720 H 1043.67 4.53453 1.71779 0
M  V30 10721 N 1045.02 -0.694098 1.41492 0
M  V30 10722 C 1046.24 -1.48286 1.44288 0
M  V30 10723 C 1046.66 -1.88737 0.0485783 0
M  V30 10724 O 1046.02 -1.56881 -0.932449 0
M  V30 10725 C 1046.07 -2.74446 2.3529 0
M  V30 10726 O 1045.79 -2.35698 3.69294 0
M  V30 10727 C 1047.29 -3.68175 2.46905 0
M  V30 10728 H 1044.51 -0.45692 0.491391 0
M  V30 10729 H 1047.05 -0.854477 1.85793 0
M  V30 10730 H 1045.21 -3.33518 1.9709 0
M  V30 10731 H 1045.62 -3.17029 4.17843 0
M  V30 10732 H 1047.1 -4.53476 3.14743 0
M  V30 10733 H 1047.57 -4.12763 1.50078 0
M  V30 10734 H 1048.18 -3.15006 2.85747 0
M  V30 10735 N 1046.49 -1.27344 -0.928501 0
M  V30 10736 C 1047.44 -1.06656 -2.01515 0
M  V30 10737 C 1048.43 0.00516619 -1.60899 0
M  V30 10738 O 1049.62 -0.213277 -1.7571 0
M  V30 10739 C 1046.75 -0.714935 -3.35773 0
M  V30 10740 C 1045.84 -1.82476 -3.82836 0
M  V30 10741 N 1046.23 -3.06421 -4.02417 0
M  V30 10742 C 1044.52 -1.71126 -4.11864 0
M  V30 10743 C 1045.23 -3.78637 -4.41598 0
M  V30 10744 N 1044.2 -3.06396 -4.49024 0
M  V30 10745 H 1048 -2.00718 -2.14685 0
M  V30 10746 H 1045.52 -1.18048 -1.11528 0
M  V30 10747 H 1047.51 -0.54784 -4.13285 0
M  V30 10748 H 1046.17 0.218069 -3.23967 0
M  V30 10749 H 1047.19 -3.42191 -3.88749 0
M  V30 10750 H 1043.86 -0.849031 -4.08776 0
M  V30 10751 H 1045.25 -4.85159 -4.64834 0
M  V30 10752 N 1047.97 1.13488 -1.09353 0
M  V30 10753 C 1048.9 2.18563 -0.69012 0
M  V30 10754 C 1049.92 1.60585 0.267651 0
M  V30 10755 O 1051.11 1.78419 0.0538176 0
M  V30 10756 C 1048.21 3.389 0.00391255 0
M  V30 10757 C 1047.38 4.2639 -0.975209 0
M  V30 10758 C 1046.44 5.25258 -0.314719 0
M  V30 10759 O 1045.46 5.6101 -0.962119 0
M  V30 10760 N 1046.67 5.72978 0.931458 0
M  V30 10761 H 1049.43 2.53788 -1.59411 0
M  V30 10762 H 1046.99 1.28803 -0.980886 0
M  V30 10763 H 1048.98 4.02112 0.45696 0
M  V30 10764 H 1047.55 3.0192 0.81014 0
M  V30 10765 H 1046.77 3.59964 -1.60684 0
M  V30 10766 H 1048.06 4.817 -1.63836 0
M  V30 10767 H 1047.46 5.46078 1.477 0
M  V30 10768 H 1046.02 6.38131 1.32784 0
M  V30 10769 N 1049.45 0.880621 1.30701 0
M  V30 10770 C 1050.7 0.492957 1.95583 0
M  V30 10771 C 1051.01 -0.961863 1.70316 0
M  V30 10772 O 1052.22 -1.45617 2.29146 0
M  V30 10773 C 1050.68 0.830656 3.50183 0
M  V30 10774 C 1050.28 2.30295 3.84276 0
M  V30 10775 C 1052.03 0.511979 4.21401 0
M  V30 10776 C 1049.93 2.58251 5.32034 0
M  V30 10777 H 1048.86 0.18062 0.732047 0
M  V30 10778 H 1051.52 1.075 1.48715 0
M  V30 10779 H 1049.9 0.177752 3.95601 0
M  V30 10780 H 1051.07 2.99981 3.49783 0
M  V30 10781 H 1049.39 2.58873 3.2615 0
M  V30 10782 H 1051.98 0.697935 5.30125 0
M  V30 10783 H 1052.33 -0.548327 4.12673 0
M  V30 10784 H 1052.86 1.12189 3.81652 0
M  V30 10785 H 1049.6 3.63005 5.45809 0
M  V30 10786 H 1049.12 1.9317 5.67843 0
M  V30 10787 H 1050.8 2.43527 5.99419 0
M  V30 10788 N 1050.93 -1.4397 0.641131 0
M  V30 10789 C 1051.86 -2.27948 -0.10731 0
M  V30 10790 C 1052.84 -1.39124 -0.841615 0
M  V30 10791 O 1054.02 -1.68566 -0.843662 0
M  V30 10792 C 1051.15 -3.18277 -1.15835 0
M  V30 10793 C 1050.2 -4.23276 -0.52345 0
M  V30 10794 S 1051.03 -5.30984 0.693969 0
M  V30 10795 C 1052.19 -6.24882 -0.356831 0
M  V30 10796 H 1052.42 -2.91077 0.605083 0
M  V30 10797 H 1049.95 -1.48303 0.429598 0
M  V30 10798 H 1051.91 -3.70867 -1.75977 0
M  V30 10799 H 1050.57 -2.54348 -1.84299 0
M  V30 10800 H 1049.76 -4.86533 -1.31536 0
M  V30 10801 H 1049.37 -3.74 0.00358355 0
M  V30 10802 H 1051.66 -6.66305 -1.22653 0
M  V30 10803 H 1052.6 -7.07692 0.240412 0
M  V30 10804 H 1053.01 -5.60301 -0.687217 0
M  V30 10805 N 1052.41 -0.382291 -1.52893 0
M  V30 10806 C 1053.64 0.202114 -2.05609 0
M  V30 10807 C 1054.05 1.4164 -1.25438 0
M  V30 10808 O 1053.39 1.81359 -0.292324 0
M  V30 10809 C 1053.45 0.64356 -3.53693 0
M  V30 10810 C 1053.11 -0.456305 -4.54716 0
M  V30 10811 C 1054.11 -1.3115 -5.03086 0
M  V30 10812 C 1051.8 -0.621329 -4.98442 0
M  V30 10813 C 1053.79 -2.3169 -5.938 0
M  V30 10814 C 1051.48 -1.63008 -5.88958 0
M  V30 10815 C 1052.48 -2.47629 -6.36529 0
M  V30 10816 O 1052.16 -3.46781 -7.25257 0
M  V30 10817 H 1051.9 0.0358014 -0.675051 0
M  V30 10818 H 1054.45 -0.543935 -1.98067 0
M  V30 10819 H 1052.68 1.44148 -3.58829 0
M  V30 10820 H 1054.37 1.15284 -3.89184 0
M  V30 10821 H 1055.13 -1.19528 -4.70041 0
M  V30 10822 H 1051.01 0.027593 -4.60992 0
M  V30 10823 H 1054.56 -2.97776 -6.30853 0
M  V30 10824 H 1050.45 -1.74671 -6.21418 0
M  V30 10825 H 1051.22 -3.42707 -7.433 0
M  V30 10826 N 1053.89 1.57202 -0.111913 0
M  V30 10827 C 1055.13 1.95239 0.548607 0
M  V30 10828 C 1055.46 0.994897 1.6678 0
M  V30 10829 O 1054.74 0.0308603 1.94476 0
M  V30 10830 C 1055.02 3.43271 1.08798 0
M  V30 10831 C 1054.88 4.49792 -0.0273064 0
M  V30 10832 C 1056.19 3.92989 1.98109 0
M  V30 10833 H 1053.31 0.709919 0.197951 0
M  V30 10834 H 1055.96 1.89087 -0.186036 0
M  V30 10835 H 1054.11 3.48644 1.71404 0
M  V30 10836 H 1055.78 4.56521 -0.662302 0
M  V30 10837 H 1054.02 4.28254 -0.691426 0
M  V30 10838 H 1054.69 5.50612 0.391201 0
M  V30 10839 H 1057.17 3.89875 1.45385 0
M  V30 10840 H 1056.04 4.97101 2.32769 0
M  V30 10841 H 1056.3 3.33267 2.90492 0
M  V30 10842 N 1055.36 -0.161842 1.56767 0
M  V30 10843 C 1056.77 -0.723385 1.72116 0
M  V30 10844 C 1057.13 -1.82355 0.723961 0
M  V30 10845 O 1056.25 -2.16107 -0.112643 0
M  V30 10846 C 1056.85 -1.31895 3.12072 0
M  V30 10847 C 1055.4 -1.82722 3.29074 0
M  V30 10848 C 1054.55 -0.709863 2.6806 0
M  V30 10849 H 1057.5 0.0636647 1.58572 0
M  V30 10850 H 1057.52 -2.18871 3.11249 0
M  V30 10851 H 1057.04 -0.51801 3.84627 0
M  V30 10852 H 1055.14 -2.6543 2.61491 0
M  V30 10853 H 1055.25 -1.96614 4.36898 0
M  V30 10854 H 1053.61 -1.13273 2.28126 0
M  V30 10855 H 1054.4 0.0793884 3.43208 0
M  V30 10856 N 1056.84 -1.516 -0.430713 0
M  V30 10857 C 1058.25 -1.57 -1.01035 0
M  V30 10858 C 1058.6 -0.397439 -1.92132 0
M  V30 10859 O 1057.73 0.484954 -2.10896 0
M  V30 10860 C 1058.32 -2.84536 -1.83915 0
M  V30 10861 C 1056.88 -2.92485 -2.36917 0
M  V30 10862 C 1056.03 -2.5173 -1.16308 0
M  V30 10863 H 1058.98 -1.57281 -0.211734 0
M  V30 10864 H 1059 -2.68672 -2.69435 0
M  V30 10865 H 1058.51 -3.69858 -1.17586 0
M  V30 10866 H 1056.61 -2.11608 -3.0668 0
M  V30 10867 H 1056.73 -3.96277 -2.6926 0
M  V30 10868 H 1055.09 -2.05079 -1.51045 0
M  V30 10869 H 1055.87 -3.39403 -0.515793 0
M  V30 10870 N 1058.32 0.686584 -1.41858 0
M  V30 10871 C 1059.57 1.44379 -1.41418 0
M  V30 10872 C 1059.89 1.94981 -0.0273696 0
M  V30 10873 O 1059.16 1.72296 0.932248 0
M  V30 10874 H 1057.74 0.53574 -0.520568 0
M  V30 10875 H 1060.4 0.812056 -1.77177 0
M  V30 10876 H 1059.5 2.30258 -2.10684 0
M  V30 10877 N 1059.8 1.27835 0.921735 0
M  V30 10878 C 1061.05 1.14296 1.66676 0
M  V30 10879 C 1061.37 -0.310493 1.92512 0
M  V30 10880 O 1060.64 -1.21637 1.53562 0
M  V30 10881 H 1059.22 0.419994 0.617749 0
M  V30 10882 H 1061.88 1.60449 1.10644 0
M  V30 10883 H 1060.97 1.67654 2.63246 0
M  V30 10884 N 1061.28 -1.12907 1.09954 0
M  V30 10885 C 1062.69 -1.65847 0.857417 0
M  V30 10886 C 1063.04 -1.86372 -0.613176 0
M  V30 10887 O 1062.16 -1.58654 -1.47166 0
M  V30 10888 C 1062.76 -3.01269 1.54991 0
M  V30 10889 C 1061.32 -3.51179 1.35462 0
M  V30 10890 C 1060.46 -2.26307 1.60251 0
M  V30 10891 H 1063.41 -0.96755 1.25794 0
M  V30 10892 H 1063.44 -3.675 0.986091 0
M  V30 10893 H 1062.95 -2.86299 2.6202 0
M  V30 10894 H 1061.05 -3.71343 0.305742 0
M  V30 10895 H 1061.16 -4.30955 2.09318 0
M  V30 10896 H 1059.53 -2.33167 1.02494 0
M  V30 10897 H 1060.31 -2.13896 2.68521 0
M  V30 10898 N 1062.75 -0.88754 -1.30232 0
M  V30 10899 C 1064 -0.508031 -1.96334 0
M  V30 10900 C 1064.33 0.940905 -1.69884 0
M  V30 10901 O 1063.61 1.66523 -1.005 0
M  V30 10902 C 1063.89 -0.786566 -3.51405 0
M  V30 10903 C 1063.74 -2.28632 -3.8736 0
M  V30 10904 C 1065.06 -0.264803 -4.39303 0
M  V30 10905 H 1062.18 -0.186051 -0.71313 0
M  V30 10906 H 1064.82 -1.112 -1.5406 0
M  V30 10907 H 1062.97 -0.272523 -3.87543 0
M  V30 10908 H 1064.65 -2.86896 -3.61231 0
M  V30 10909 H 1062.89 -2.75194 -3.35337 0
M  V30 10910 H 1063.56 -2.43181 -4.95547 0
M  V30 10911 H 1066.04 -0.704809 -4.10087 0
M  V30 10912 H 1064.91 -0.488998 -5.46717 0
M  V30 10913 H 1065.17 0.834055 -4.34161 0
M  V30 10914 N 1064.23 1.43628 -0.648757 0
M  V30 10915 C 1065.64 1.85142 -0.24066 0
M  V30 10916 C 1065.99 1.54304 1.21181 0
M  V30 10917 O 1065.12 0.989792 1.92437 0
M  V30 10918 C 1065.71 3.3606 -0.429999 0
M  V30 10919 C 1064.27 3.76323 -0.0762588 0
M  V30 10920 C 1063.42 2.67382 -0.734999 0
M  V30 10921 H 1066.37 1.33844 -0.852734 0
M  V30 10922 H 1066.39 3.79102 0.325836 0
M  V30 10923 H 1065.9 3.58474 -1.48721 0
M  V30 10924 H 1064.01 3.59521 0.978529 0
M  V30 10925 H 1064.12 4.76498 -0.498612 0
M  V30 10926 H 1062.48 2.54141 -0.168644 0
M  V30 10927 H 1063.27 2.92625 -1.79515 0
M  V30 10928 N 1065.71 0.390394 1.52688 0
M  V30 10929 C 1066.99 -0.249068 1.94008 0
M  V30 10930 C 1067.37 -1.64263 1.32593 0
M  V30 10931 O 1066.72 -2.23086 0.494448 0
M  V30 10932 C 1066.93 -0.274318 3.4792 0
M  V30 10933 C 1068.27 -0.502743 4.21613 0
M  V30 10934 O 1069.3 -0.35448 3.54432 0
M  V30 10935 O 1068.16 -0.79334 5.40711 0
M  V30 10936 H 1065.25 -0.155116 0.812323 0
M  V30 10937 H 1067.8 0.44498 1.63762 0
M  V30 10938 H 1066.57 0.701766 3.84956 0
M  V30 10939 H 1066.19 -1.01324 3.84473 0
M  V30 10940 N 1067.19 -1.57141 0.120249 0
M  V30 10941 C 1068.14 -2.15379 -0.829497 0
M  V30 10942 C 1069.11 -1.07913 -1.2627 0
M  V30 10943 O 1070.29 -1.35827 -1.33999 0
M  V30 10944 C 1067.43 -2.75847 -2.0737 0
M  V30 10945 C 1066.54 -3.97624 -1.68875 0
M  V30 10946 C 1065.68 -4.46175 -2.88272 0
M  V30 10947 C 1064.72 -5.60481 -2.46023 0
M  V30 10948 N 1063.85 -6.0377 -3.58337 0
M  V30 10949 H 1068.69 -2.96211 -0.326031 0
M  V30 10950 H 1066.23 -1.46341 -0.149235 0
M  V30 10951 H 1068.19 -3.09037 -2.80272 0
M  V30 10952 H 1066.82 -1.97703 -2.55174 0
M  V30 10953 H 1065.87 -3.70588 -0.858431 0
M  V30 10954 H 1067.18 -4.80512 -1.33827 0
M  V30 10955 H 1066.34 -4.8128 -3.69397 0
M  V30 10956 H 1065.08 -3.6224 -3.26548 0
M  V30 10957 H 1064.08 -5.24979 -1.63331 0
M  V30 10958 H 1065.31 -6.46184 -2.08863 0
M  V30 10959 H 1063.25 -5.22776 -3.96284 0
M  V30 10960 H 1063.17 -6.81517 -3.27217 0
M  V30 10961 H 1064.44 -6.43514 -4.39898 0
M  V30 10962 N 1068.67 0.153526 -1.5685 0
M  V30 10963 C 1069.91 0.868517 -1.83261 0
M  V30 10964 C 1070.25 1.81112 -0.700857 0
M  V30 10965 O 1069.52 1.92235 0.295989 0
M  V30 10966 C 1069.8 1.6487 -3.2014 0
M  V30 10967 C 1069.66 0.728021 -4.43869 0
M  V30 10968 C 1070.98 2.61259 -3.54163 0
M  V30 10969 H 1068.09 0.314297 -0.666623 0
M  V30 10970 H 1070.74 0.133971 -1.89527 0
M  V30 10971 H 1068.89 2.2749 -3.1493 0
M  V30 10972 H 1070.56 0.113328 -4.61161 0
M  V30 10973 H 1068.8 0.0371744 -4.33784 0
M  V30 10974 H 1069.47 1.30981 -5.36235 0
M  V30 10975 H 1071.95 2.0876 -3.59942 0
M  V30 10976 H 1070.82 3.12902 -4.50981 0
M  V30 10977 H 1071.09 3.42307 -2.79782 0
M  V30 10978 N 1070.14 1.51827 0.422667 0
M  V30 10979 C 1071.42 1.55772 1.18299 0
M  V30 10980 C 1071.8 0.330657 2.08494 0
M  V30 10981 O 1071.15 -0.683373 2.18042 0
M  V30 10982 C 1071.36 2.87941 1.97208 0
M  V30 10983 C 1072.71 3.4044 2.53744 0
M  V30 10984 O 1073.73 2.8959 2.07403 0
M  V30 10985 O 1072.59 4.29201 3.38303 0
M  V30 10986 H 1069.68 0.626889 0.539388 0
M  V30 10987 H 1072.23 1.64147 0.430545 0
M  V30 10988 H 1071 3.68702 1.31052 0
M  V30 10989 H 1070.63 2.82795 2.79486 0
M  V30 10990 N 1071.62 -0.679052 1.4222 0
M  V30 10991 C 1072.85 -1.47248 1.46058 0
M  V30 10992 C 1073.27 -1.87962 0.0720987 0
M  V30 10993 O 1072.63 -1.5572 -0.928488 0
M  V30 10994 C 1072.68 -2.70067 2.38948 0
M  V30 10995 O 1071.78 -3.68178 1.85791 0
M  V30 10996 H 1071.12 -0.442533 0.495036 0
M  V30 10997 H 1073.65 -0.833263 1.86863 0
M  V30 10998 H 1073.66 -3.18187 2.55385 0
M  V30 10999 H 1072.34 -2.39773 3.39826 0
M  V30 11000 H 1070.92 -3.2719 1.78889 0
M  V30 11001 N 1073.1 -1.28322 -0.914942 0
M  V30 11002 C 1074.33 -1.18083 -1.69529 0
M  V30 11003 C 1074.74 0.263274 -1.87359 0
M  V30 11004 O 1074.08 1.18988 -1.39955 0
M  V30 11005 C 1074.14 -1.8062 -3.10832 0
M  V30 11006 C 1073.81 -3.29861 -3.16292 0
M  V30 11007 C 1074.8 -4.26313 -2.97578 0
M  V30 11008 C 1072.49 -3.70797 -3.38843 0
M  V30 11009 C 1074.48 -5.61677 -3.01326 0
M  V30 11010 C 1072.17 -5.06287 -3.42223 0
M  V30 11011 C 1073.17 -6.01537 -3.23485 0
M  V30 11012 O 1072.86 -7.34556 -3.26624 0
M  V30 11013 H 1072.59 -0.410931 -0.53676 0
M  V30 11014 H 1075.14 -1.6994 -1.15367 0
M  V30 11015 H 1073.37 -1.23255 -3.66531 0
M  V30 11016 H 1075.06 -1.64915 -3.70888 0
M  V30 11017 H 1075.83 -3.96023 -2.79984 0
M  V30 11018 H 1071.71 -2.97124 -3.52475 0
M  V30 11019 H 1075.25 -6.36 -2.86618 0
M  V30 11020 H 1071.15 -5.36228 -3.59346 0
M  V30 11021 H 1071.92 -7.43167 -3.42994 0
M  V30 11022 N 1074.58 1.12322 -1.10551 0
M  V30 11023 C 1075.82 1.8413 -0.849932 0
M  V30 11024 C 1076.16 1.83938 0.622946 0
M  V30 11025 O 1075.43 1.28579 1.45937 0
M  V30 11026 C 1075.72 3.31751 -1.40048 0
M  V30 11027 C 1075.57 3.40391 -2.9403 0
M  V30 11028 C 1076.89 4.27543 -1.04379 0
M  V30 11029 H 1074.01 0.668533 -0.310213 0
M  V30 11030 H 1076.65 1.31766 -1.36886 0
M  V30 11031 H 1074.8 3.76475 -0.959102 0
M  V30 11032 H 1076.47 3.04294 -3.46703 0
M  V30 11033 H 1074.71 2.809 -3.30571 0
M  V30 11034 H 1075.38 4.44252 -3.27635 0
M  V30 11035 H 1077.86 3.90951 -1.42466 0
M  V30 11036 H 1076.74 5.2924 -1.4559 0
M  V30 11037 H 1077 4.42075 0.0466316 0
M  V30 11038 N 1076.06 0.894434 1.2976 0
M  V30 11039 C 1077.3 0.527831 1.96432 0
M  V30 11040 C 1077.66 -0.914793 1.69261 0
M  V30 11041 O 1076.95 -1.63911 0.99215 0
M  V30 11042 C 1077.14 0.750307 3.49435 0
M  V30 11043 C 1076.97 2.213 3.91479 0
M  V30 11044 C 1075.74 2.85943 4.16611 0
M  V30 11045 C 1077.94 3.18771 4.03595 0
M  V30 11046 N 1075.92 4.2271 4.45185 0
M  V30 11047 C 1077.29 4.40641 4.3616 0
M  V30 11048 C 1079.35 3.14432 3.86053 0
M  V30 11049 C 1078.05 5.58725 4.53011 0
M  V30 11050 C 1080.08 4.31797 4.0411 0
M  V30 11051 C 1079.44 5.52435 4.37029 0
M  V30 11052 H 1075.54 0.242654 0.7434 0
M  V30 11053 H 1078.12 1.15415 1.56804 0
M  V30 11054 H 1076.29 0.153411 3.88097 0
M  V30 11055 H 1078.03 0.349663 4.03187 0
M  V30 11056 H 1074.78 2.36763 4.10171 0
M  V30 11057 H 1075.21 4.9337 4.63589 0
M  V30 11058 H 1079.85 2.22255 3.5967 0
M  V30 11059 H 1077.57 6.51398 4.78232 0
M  V30 11060 H 1081.15 4.2992 3.91995 0
M  V30 11061 H 1080.03 6.41738 4.50712 0
M  V30 11062 N 1077.53 -1.43282 0.656365 0
M  V30 11063 C 1078.47 -2.29087 -0.0720378 0
M  V30 11064 C 1079.48 -1.4268 -0.783982 0
M  V30 11065 O 1080.67 -1.66585 -0.641213 0
M  V30 11066 C 1077.77 -3.19676 -1.12519 0
M  V30 11067 C 1076.94 -4.34638 -0.490756 0
M  V30 11068 C 1076 -5.06079 -1.44121 0
M  V30 11069 O 1075.03 -5.6124 -0.948595 0
M  V30 11070 N 1076.23 -5.09872 -2.77509 0
M  V30 11071 H 1078.99 -2.92241 0.664456 0
M  V30 11072 H 1076.55 -1.54006 0.499383 0
M  V30 11073 H 1078.55 -3.64334 -1.76189 0
M  V30 11074 H 1077.12 -2.581 -1.76362 0
M  V30 11075 H 1076.34 -3.92857 0.3251 0
M  V30 11076 H 1077.62 -5.08777 -0.0480061 0
M  V30 11077 H 1077.02 -4.66433 -3.20088 0
M  V30 11078 H 1075.58 -5.58237 -3.36474 0
M  V30 11079 N 1079.01 -0.398486 -1.52479 0
M  V30 11080 C 1080.24 0.180557 -2.06111 0
M  V30 11081 C 1080.66 1.39751 -1.26945 0
M  V30 11082 O 1080.01 1.79699 -0.318497 0
M  V30 11083 C 1080.06 0.541573 -3.5742 0
M  V30 11084 O 1079.79 -0.627043 -4.33589 0
M  V30 11085 C 1081.29 1.17549 -4.27431 0
M  V30 11086 H 1078.51 0.0250754 -0.670531 0
M  V30 11087 H 1081.05 -0.566368 -1.96501 0
M  V30 11088 H 1079.21 1.23839 -3.67073 0
M  V30 11089 H 1079.62 -0.328233 -5.23472 0
M  V30 11090 H 1081.09 1.37839 -5.34513 0
M  V30 11091 H 1081.57 2.14553 -3.83228 0
M  V30 11092 H 1082.18 0.51918 -4.22119 0
M  V30 11093 N 1080.49 1.57075 -0.12858 0
M  V30 11094 C 1081.72 2.00305 0.537839 0
M  V30 11095 C 1082.14 1.00787 1.58819 0
M  V30 11096 O 1081.5 -0.0190839 1.8129 0
M  V30 11097 C 1081.55 3.42371 1.13201 0
M  V30 11098 O 1080.65 3.45786 2.24735 0
M  V30 11099 H 1079.99 0.650456 0.133428 0
M  V30 11100 H 1082.52 2.03415 -0.219882 0
M  V30 11101 H 1082.53 3.80783 1.4652 0
M  V30 11102 H 1081.21 4.14315 0.362713 0
M  V30 11103 H 1079.78 3.19201 1.92783 0
M  V30 11104 N 1081.97 -0.145205 1.5693 0
M  V30 11105 C 1083.2 -0.872398 1.87608 0
M  V30 11106 C 1083.61 -1.74657 0.716975 0
M  V30 11107 O 1082.97 -1.79792 -0.3132 0
M  V30 11108 C 1083.02 -1.72762 3.17546 0
M  V30 11109 O 1082.74 -0.888681 4.28992 0
M  V30 11110 C 1084.24 -2.56224 3.61751 0
M  V30 11111 H 1081.46 -0.252166 0.621815 0
M  V30 11112 H 1084.01 -0.137456 2.04038 0
M  V30 11113 H 1082.16 -2.41561 3.02865 0
M  V30 11114 H 1082.58 -1.47601 5.03303 0
M  V30 11115 H 1084.05 -3.11804 4.55502 0
M  V30 11116 H 1084.53 -3.32347 2.87127 0
M  V30 11117 H 1085.13 -1.92714 3.79133 0
M  V30 11118 N 1083.45 -1.52049 -0.414609 0
M  V30 11119 C 1084.4 -1.75603 -1.52533 0
M  V30 11120 C 1085.39 -0.622965 -1.57529 0
M  V30 11121 O 1086.6 -0.804886 -1.61002 0
M  V30 11122 H 1082.97 -0.555222 -0.507181 0
M  V30 11123 H 1084.94 -2.68666 -1.2985 0
M  V30 11124 C 1083.69 -1.9188 -2.89961 0
M  V30 11125 H 1083.01 -2.78483 -2.86857 0
M  V30 11126 H 1084.45 -2.12363 -3.66985 0
M  V30 11127 C 1082.91 -0.684453 -3.29874 0
M  V30 11128 O 1083.44 0.150256 -4.01419 0
M  V30 11129 N 1081.65 -0.521936 -2.85874 0
M  V30 11130 H 1081.2 -1.20229 -2.27822 0
M  V30 11131 H 1081.15 0.302655 -3.1294 0
M  V30 11132 N 1084.93 0.6715 -1.42579 0
M  V30 11133 C 1086.34 1.2522 -1.38481 0
M  V30 11134 C 1086.69 1.96038 -0.079719 0
M  V30 11135 O 1085.81 2.00203 0.821441 0
M  V30 11136 C 1086.41 2.27736 -2.50842 0
M  V30 11137 C 1084.97 2.81325 -2.50067 0
M  V30 11138 C 1084.11 1.55694 -2.29466 0
M  V30 11139 H 1087.06 0.464673 -1.51745 0
M  V30 11140 H 1087.09 3.09539 -2.21283 0
M  V30 11141 H 1086.6 1.76164 -3.45815 0
M  V30 11142 H 1084.7 3.37008 -1.58922 0
M  V30 11143 H 1084.81 3.30116 -3.47218 0
M  V30 11144 H 1083.18 1.82383 -1.77788 0
M  V30 11145 H 1083.96 1.06084 -3.26498 0
M  V30 11146 N 1086.4 1.28806 0.908124 0
M  V30 11147 C 1087.63 1.19271 1.69674 0
M  V30 11148 C 1088.05 -0.244403 1.86505 0
M  V30 11149 O 1087.41 -1.17668 1.37927 0
M  V30 11150 C 1087.46 1.9023 3.06341 0
M  V30 11151 O 1086.56 1.2136 3.94139 0
M  V30 11152 H 1085.9 0.413738 0.519343 0
M  V30 11153 H 1088.43 1.70227 1.13508 0
M  V30 11154 H 1088.44 1.98356 3.56537 0
M  V30 11155 H 1087.12 2.94762 2.93408 0
M  V30 11156 H 1085.7 1.21435 3.52573 0
M  V30 11157 N 1087.88 -1.11734 1.11145 0
M  V30 11158 C 1089.13 -1.83677 0.859684 0
M  V30 11159 C 1089.46 -1.84265 -0.613182 0
M  V30 11160 O 1088.74 -1.29351 -1.45254 0
M  V30 11161 C 1089.02 -3.31003 1.41805 0
M  V30 11162 C 1088.87 -3.38827 2.95831 0
M  V30 11163 C 1090.19 -4.26984 1.06645 0
M  V30 11164 H 1087.31 -0.666879 0.313754 0
M  V30 11165 H 1089.95 -1.31038 1.37583 0
M  V30 11166 H 1088.1 -3.75961 0.979054 0
M  V30 11167 H 1089.77 -3.02451 3.48312 0
M  V30 11168 H 1088.02 -2.79143 3.32056 0
M  V30 11169 H 1088.69 -4.42508 3.29986 0
M  V30 11170 H 1091.16 -3.9019 1.44537 0
M  V30 11171 H 1090.04 -5.2846 1.48394 0
M  V30 11172 H 1090.3 -4.42094 -0.0231866 0
M  V30 11173 N 1089.36 -0.901303 -1.29284 0
M  V30 11174 C 1090.61 -0.528043 -1.95494 0
M  V30 11175 C 1090.93 0.92597 -1.71044 0
M  V30 11176 O 1090.19 1.67185 -1.01723 0
M  V30 11177 C 1090.49 -0.768828 -3.49033 0
M  V30 11178 C 1090.15 -2.20045 -3.93562 0
M  V30 11179 C 1088.82 -2.59189 -4.05431 0
M  V30 11180 C 1091.17 -3.13266 -4.1655 0
M  V30 11181 C 1088.5 -3.90733 -4.37658 0
M  V30 11182 C 1090.85 -4.4436 -4.50252 0
M  V30 11183 C 1089.51 -4.83375 -4.60331 0
M  V30 11184 H 1088.78 -0.193225 -0.715364 0
M  V30 11185 H 1091.43 -1.14027 -1.53851 0
M  V30 11186 H 1089.73 -0.0736997 -3.91731 0
M  V30 11187 H 1091.43 -0.459384 -3.9836 0
M  V30 11188 H 1088.02 -1.88666 -3.84842 0
M  V30 11189 H 1092.21 -2.84237 -4.06845 0
M  V30 11190 H 1087.46 -4.2068 -4.43665 0
M  V30 11191 H 1091.64 -5.16618 -4.66989 0
M  V30 11192 H 1089.26 -5.8534 -4.85058 0
M  V30 11193 N 1090.84 1.42931 -0.663954 0
M  V30 11194 C 1092.08 2.02505 -0.190647 0
M  V30 11195 C 1092.44 1.51506 1.18591 0
M  V30 11196 O 1091.73 0.702962 1.78239 0
M  V30 11197 C 1091.93 3.57072 -0.153163 0
M  V30 11198 C 1091.75 4.23069 -1.52454 0
M  V30 11199 C 1090.52 4.58694 -2.11961 0
M  V30 11200 C 1092.72 4.51373 -2.46509 0
M  V30 11201 N 1090.7 5.09818 -3.41993 0
M  V30 11202 C 1092.08 5.03931 -3.61184 0
M  V30 11203 C 1094.13 4.33351 -2.45176 0
M  V30 11204 C 1092.83 5.40362 -4.74765 0
M  V30 11205 C 1094.86 4.70851 -3.57845 0
M  V30 11206 C 1094.22 5.23551 -4.71246 0
M  V30 11207 H 1090.32 0.773581 -0.114438 0
M  V30 11208 H 1092.9 1.73951 -0.874589 0
M  V30 11209 H 1091.08 3.85166 0.500156 0
M  V30 11210 H 1092.81 4.03336 0.332015 0
M  V30 11211 H 1089.56 4.44091 -1.6456 0
M  V30 11212 H 1089.99 5.39821 -4.08561 0
M  V30 11213 H 1094.63 3.91871 -1.58735 0
M  V30 11214 H 1092.35 5.8078 -5.6189 0
M  V30 11215 H 1095.93 4.58593 -3.58028 0
M  V30 11216 H 1094.81 5.52029 -5.56986 0
M  V30 11217 N 1092.32 0.406567 1.52266 0
M  V30 11218 C 1093.54 -0.169624 2.06204 0
M  V30 11219 C 1093.96 -1.39076 1.27684 0
M  V30 11220 O 1093.32 -1.79528 0.328023 0
M  V30 11221 C 1093.37 -0.522611 3.57702 0
M  V30 11222 O 1093.09 0.650028 4.33251 0
M  V30 11223 C 1094.59 -1.15281 4.28048 0
M  V30 11224 H 1091.81 -0.0215191 0.670655 0
M  V30 11225 H 1094.35 0.576781 1.96198 0
M  V30 11226 H 1092.51 -1.21891 3.67725 0
M  V30 11227 H 1092.92 0.355989 5.23291 0
M  V30 11228 H 1094.4 -1.35002 5.35237 0
M  V30 11229 H 1094.87 -2.12517 3.84361 0
M  V30 11230 H 1095.48 -0.496786 4.22389 0
M  V30 11231 N 1093.79 -1.57004 0.136909 0
M  V30 11232 C 1094.7 -2.19807 -0.819887 0
M  V30 11233 C 1095.72 -1.17939 -1.27932 0
M  V30 11234 O 1096.9 -1.50478 -1.3386 0
M  V30 11235 C 1093.96 -2.79935 -2.04542 0
M  V30 11236 C 1093.02 -3.96897 -1.6362 0
M  V30 11237 C 1092.26 -4.54148 -2.80331 0
M  V30 11238 O 1092.48 -4.10282 -3.96264 0
M  V30 11239 O 1091.41 -5.44565 -2.56384 0
M  V30 11240 H 1095.24 -3.02058 -0.315337 0
M  V30 11241 H 1092.82 -1.49131 -0.0896151 0
M  V30 11242 H 1094.71 -3.18191 -2.76283 0
M  V30 11243 H 1093.38 -2.00703 -2.53969 0
M  V30 11244 H 1092.29 -3.63376 -0.889316 0
M  V30 11245 H 1093.62 -4.77618 -1.18918 0
M  V30 11246 N 1095.27 0.136881 -1.57004 0
M  V30 11247 C 1096.52 0.8461 -1.83536 0
M  V30 11248 C 1096.84 1.81246 -0.71937 0
M  V30 11249 O 1096.11 1.94191 0.258161 0
M  V30 11250 H 1094.69 0.315446 -0.677128 0
M  V30 11251 H 1097.35 0.128469 -1.94476 0
M  V30 11252 H 1096.45 1.40221 -2.78827 0
M  V30 11253 N 1096.75 1.52266 0.40654 0
M  V30 11254 C 1097.7 1.76409 1.516 0
M  V30 11255 C 1098.69 0.631311 1.57197 0
M  V30 11256 O 1099.9 0.813413 1.60573 0
M  V30 11257 H 1096.27 0.557904 0.50423 0
M  V30 11258 H 1098.24 2.69351 1.28424 0
M  V30 11259 C 1096.99 1.93415 2.88939 0
M  V30 11260 H 1096.32 2.8 2.85377 0
M  V30 11261 H 1097.76 2.14306 3.65854 0
M  V30 11262 C 1096.22 0.701938 3.29506 0
M  V30 11263 O 1096.75 -0.128965 4.01493 0
M  V30 11264 N 1094.95 0.537089 2.85594 0
M  V30 11265 H 1094.5 1.21435 2.27181 0
M  V30 11266 H 1094.46 -0.286055 3.13096 0
M  V30 11267 N 1098.23 -0.663929 1.42933 0
M  V30 11268 C 1099.19 -1.75899 1.46943 0
M  V30 11269 C 1100.19 -1.5682 0.355535 0
M  V30 11270 O 1101.38 -1.62914 0.616833 0
M  V30 11271 C 1098.51 -3.14657 1.31164 0
M  V30 11272 H 1099.71 -1.73727 2.44456 0
M  V30 11273 H 1097.26 -0.874587 1.2954 0
M  V30 11274 H 1097.99 -3.22447 0.346165 0
M  V30 11275 H 1097.78 -3.29909 2.11902 0
M  V30 11276 H 1099.27 -3.9453 1.36878 0
M  V30 11277 N 1099.71 -1.29285 -0.901281 0
M  V30 11278 C 1101.12 -1.15499 -1.46686 0
M  V30 11279 C 1101.47 0.250446 -1.94595 0
M  V30 11280 O 1100.59 1.14581 -1.83576 0
M  V30 11281 C 1101.19 -2.0906 -2.66607 0
M  V30 11282 C 1099.75 -1.99301 -3.19306 0
M  V30 11283 C 1098.89 -2.00079 -1.91999 0
M  V30 11284 H 1101.85 -1.41793 -0.712773 0
M  V30 11285 H 1101.87 -1.6619 -3.42288 0
M  V30 11286 H 1101.38 -3.11341 -2.31707 0
M  V30 11287 H 1099.48 -1.00103 -3.58901 0
M  V30 11288 H 1099.59 -2.86885 -3.8371 0
M  V30 11289 H 1097.96 -1.44655 -2.09636 0
M  V30 11290 H 1098.74 -3.04061 -1.59379 0
M  V30 11291 N 1101.18 1.11143 -1.11736 0
M  V30 11292 C 1102.6 1.64462 -0.883693 0
M  V30 11293 C 1102.95 1.87324 0.583448 0
M  V30 11294 O 1102.07 1.60975 1.44623 0
M  V30 11295 C 1102.67 2.98765 -1.59764 0
M  V30 11296 C 1101.23 3.4898 -1.41032 0
M  V30 11297 C 1100.37 2.23729 -1.63831 0
M  V30 11298 H 1103.32 0.947415 -1.27317 0
M  V30 11299 H 1103.34 3.65885 -1.04443 0
M  V30 11300 H 1102.86 2.82094 -2.66542 0
M  V30 11301 H 1100.96 3.7081 -0.364781 0
M  V30 11302 H 1101.07 4.27571 -2.16148 0
M  V30 11303 H 1099.43 2.31507 -1.06191 0
M  V30 11304 H 1100.22 2.09597 -2.7189 0
M  V30 11305 N 1102.66 0.908147 1.28804 0
M  V30 11306 C 1104.08 0.605474 1.47669 0
M  V30 11307 C 1104.28 -0.850759 1.82659 0
M  V30 11308 O 1103.33 -1.63029 1.92816 0
M  V30 11309 C 1104.65 1.53856 2.58358 0
M  V30 11310 C 1106.2 1.54467 2.7223 0
M  V30 11311 C 1106.67 2.46424 3.86056 0
M  V30 11312 N 1108.16 2.44519 3.93402 0
M  V30 11313 C 1108.9 3.12371 4.80845 0
M  V30 11314 N 1108.39 3.89533 5.72919 0
M  V30 11315 N 1110.19 3.01486 4.74407 0
M  V30 11316 H 1102.34 1.84988 1.04371 0
M  V30 11317 H 1104.6 0.793132 0.519274 0
M  V30 11318 H 1104.31 2.57651 2.39393 0
M  V30 11319 H 1104.18 1.26543 3.5534 0
M  V30 11320 H 1106.57 0.514127 2.90587 0
M  V30 11321 H 1106.65 1.85821 1.75796 0
M  V30 11322 H 1106.29 3.49577 3.68454 0
M  V30 11323 H 1106.22 2.12375 4.81876 0
M  V30 11324 H 1108.71 1.88464 3.27551 0
M  V30 11325 H 1109.03 4.3834 6.36457 0
M  V30 11326 H 1107.37 3.93639 5.72777 0
M  V30 11327 H 1110.56 2.40713 4.01466 0
M  V30 11328 H 1110.73 3.5464 5.42342 0
M  V30 11329 N 1104.14 -1.42577 0.671525 0
M  V30 11330 C 1105.07 -2.28124 -0.0589347 0
M  V30 11331 C 1106.05 -1.40878 -0.811915 0
M  V30 11332 O 1107.24 -1.70318 -0.807717 0
M  V30 11333 C 1104.36 -3.20662 -1.09057 0
M  V30 11334 C 1103.41 -4.24291 -0.43355 0
M  V30 11335 S 1104.24 -5.29393 0.806442 0
M  V30 11336 C 1105.4 -6.25498 -0.224204 0
M  V30 11337 H 1105.63 -2.89728 0.666689 0
M  V30 11338 H 1103.16 -1.47359 0.460959 0
M  V30 11339 H 1105.12 -3.74516 -1.68071 0
M  V30 11340 H 1103.78 -2.582 -1.78862 0
M  V30 11341 H 1102.98 -4.89213 -1.21186 0
M  V30 11342 H 1102.58 -3.73908 0.0829136 0
M  V30 11343 H 1104.87 -6.68757 -1.08492 0
M  V30 11344 H 1105.81 -7.07023 0.390469 0
M  V30 11345 H 1106.22 -5.61633 -0.568214 0
M  V30 11346 N 1105.62 -0.414636 -1.52048 0
M  V30 11347 C 1106.84 0.161137 -2.06773 0
M  V30 11348 C 1107.27 1.37628 -1.2822 0
M  V30 11349 O 1106.63 1.78562 -0.313915 0
M  V30 11350 C 1106.67 0.48452 -3.5733 0
M  V30 11351 O 1105.78 1.57466 -3.81154 0
M  V30 11352 H 1105.12 0.0118003 -0.663895 0
M  V30 11353 H 1107.65 -0.589424 -1.95926 0
M  V30 11354 H 1107.66 0.741567 -4.01204 0
M  V30 11355 H 1106.33 -0.403733 -4.13936 0
M  V30 11356 H 1104.91 1.30935 -3.49157 0
M  V30 11357 N 1107.1 1.56929 -0.145233 0
M  V30 11358 C 1108.34 1.96358 0.50707 0
M  V30 11359 C 1108.68 1.03005 1.64632 0
M  V30 11360 O 1107.95 0.0721045 1.94366 0
M  V30 11361 C 1108.23 3.45502 1.01492 0
M  V30 11362 C 1108.09 4.49633 -0.122708 0
M  V30 11363 C 1109.41 3.97103 1.89729 0
M  V30 11364 H 1106.52 0.713958 0.182848 0
M  V30 11365 H 1109.17 1.8865 -0.226102 0
M  V30 11366 H 1107.32 3.52202 1.6397 0
M  V30 11367 H 1108.99 4.55013 -0.758988 0
M  V30 11368 H 1107.23 4.26691 -0.782109 0
M  V30 11369 H 1107.9 5.51318 0.27432 0
M  V30 11370 H 1110.38 3.92871 1.37082 0
M  V30 11371 H 1109.25 5.01927 2.22173 0
M  V30 11372 H 1109.52 3.39354 2.83357 0
M  V30 11373 N 1108.58 -0.128553 1.57075 0
M  V30 11374 C 1109.99 -0.686713 1.73612 0
M  V30 11375 C 1110.34 -1.80778 0.762478 0
M  V30 11376 O 1109.46 -2.16297 -0.0667779 0
M  V30 11377 C 1110.06 -1.25246 3.148 0
M  V30 11378 C 1108.62 -1.757 3.32876 0
M  V30 11379 C 1107.76 -0.652844 2.69506 0
M  V30 11380 H 1110.71 0.0972859 1.58402 0
M  V30 11381 H 1110.74 -2.1222 3.15821 0
M  V30 11382 H 1110.25 -0.436308 3.8564 0
M  V30 11383 H 1108.35 -2.59824 2.67063 0
M  V30 11384 H 1108.46 -1.87302 4.4097 0
M  V30 11385 H 1106.83 -1.08408 2.30477 0
M  V30 11386 H 1107.61 0.15217 3.42963 0
M  V30 11387 N 1110.05 -1.5248 -0.398459 0
M  V30 11388 C 1111.3 -1.67061 -1.14441 0
M  V30 11389 C 1111.63 -0.405821 -1.90219 0
M  V30 11390 O 1110.88 0.611532 -1.859 0
M  V30 11391 C 1111.18 -2.85038 -2.15611 0
M  V30 11392 C 1110.85 -4.22847 -1.56561 0
M  V30 11393 C 1109.51 -4.60329 -1.40182 0
M  V30 11394 C 1111.86 -5.08683 -1.1354 0
M  V30 11395 C 1109.19 -5.81314 -0.793149 0
M  V30 11396 C 1111.54 -6.30284 -0.540866 0
M  V30 11397 C 1110.21 -6.66505 -0.364297 0
M  V30 11398 H 1109.48 -0.611321 -0.418769 0
M  V30 11399 H 1112.12 -1.86604 -0.430241 0
M  V30 11400 H 1110.43 -2.59873 -2.93212 0
M  V30 11401 H 1112.13 -2.93516 -2.73221 0
M  V30 11402 H 1108.72 -3.93316 -1.70295 0
M  V30 11403 H 1112.9 -4.80301 -1.24999 0
M  V30 11404 H 1108.16 -6.07994 -0.64446 0
M  V30 11405 H 1112.33 -6.96115 -0.199167 0
M  V30 11406 H 1109.96 -7.60121 0.109439 0
M  V30 11407 N 1111.53 0.65634 -1.43283 0
M  V30 11408 C 1112.46 1.78101 -1.51004 0
M  V30 11409 C 1113.44 1.66138 -0.36498 0
M  V30 11410 O 1114.63 1.85281 -0.581778 0
M  V30 11411 C 1111.76 3.16511 -1.42961 0
M  V30 11412 C 1110.71 3.43233 -2.55685 0
M  V30 11413 C 1110.04 4.81411 -2.32696 0
M  V30 11414 C 1111.34 3.38288 -3.97943 0
M  V30 11415 H 1113.03 1.71896 -2.45137 0
M  V30 11416 H 1110.58 0.825575 -1.17984 0
M  V30 11417 H 1112.53 3.94941 -1.46968 0
M  V30 11418 H 1111.25 3.23439 -0.45332 0
M  V30 11419 H 1109.91 2.67173 -2.51026 0
M  V30 11420 H 1109.56 4.85011 -1.33317 0
M  V30 11421 H 1109.26 5.00251 -3.08257 0
M  V30 11422 H 1110.79 5.62102 -2.38481 0
M  V30 11423 H 1112.2 4.06659 -4.04106 0
M  V30 11424 H 1110.6 3.68664 -4.73505 0
M  V30 11425 H 1111.67 2.36525 -4.23301 0
M  V30 11426 N 1113.01 1.29761 0.894412 0
M  V30 11427 C 1114.23 1.21064 1.68399 0
M  V30 11428 C 1114.66 -0.224608 1.86754 0
M  V30 11429 O 1114.02 -1.16199 1.39167 0
M  V30 11430 C 1114.07 1.93468 3.04306 0
M  V30 11431 O 1113.17 1.25533 3.9283 0
M  V30 11432 H 1112.51 0.419223 0.514925 0
M  V30 11433 H 1115.04 1.71421 1.11696 0
M  V30 11434 H 1115.05 2.02127 3.54413 0
M  V30 11435 H 1113.73 2.97857 2.90265 0
M  V30 11436 H 1112.3 1.25168 3.51266 0
M  V30 11437 N 1114.49 -1.10549 1.12324 0
M  V30 11438 C 1115.74 -1.81851 0.872531 0
M  V30 11439 C 1116.05 -1.86058 -0.603468 0
M  V30 11440 O 1117.26 -2.53553 -0.970736 0
M  V30 11441 C 1115.71 -3.26631 1.51131 0
M  V30 11442 C 1115.32 -3.30725 3.02201 0
M  V30 11443 C 1117.06 -4.02768 1.34082 0
M  V30 11444 C 1114.97 -4.69957 3.59018 0
M  V30 11445 H 1113.9 -0.681422 0.322769 0
M  V30 11446 H 1116.55 -1.24332 1.34959 0
M  V30 11447 H 1114.93 -3.8414 0.961913 0
M  V30 11448 H 1116.11 -2.83046 3.63623 0
M  V30 11449 H 1114.42 -2.68072 3.18632 0
M  V30 11450 H 1117.02 -5.05612 1.73955 0
M  V30 11451 H 1117.36 -4.15328 0.284369 0
M  V30 11452 H 1117.9 -3.51671 1.85937 0
M  V30 11453 H 1114.63 -4.62597 4.64418 0
M  V30 11454 H 1114.15 -5.18008 3.02371 0
M  V30 11455 H 1115.83 -5.38925 3.58007 0
M  V30 11456 N 1115.97 -0.914965 -1.28321 0
M  V30 11457 C 1117.21 -0.547665 -1.94538 0
M  V30 11458 C 1117.53 0.911834 -1.72368 0
M  V30 11459 O 1116.8 1.64481 -1.06408 0
M  V30 11460 H 1115.38 -0.199549 -0.719853 0
M  V30 11461 H 1118.05 -1.16459 -1.5628 0
M  V30 11462 H 1117.14 -0.743138 -3.03124 0
M  V30 11463 N 1117.44 1.42219 -0.679077 0
M  V30 11464 C 1118.39 2.32599 0.00820028 0
M  V30 11465 C 1119.39 1.50059 0.786046 0
M  V30 11466 O 1120.59 1.66103 0.693528 0
M  V30 11467 H 1116.97 0.751694 0.0214483 0
M  V30 11468 H 1118.94 2.88257 -0.77138 0
M  V30 11469 C 1117.69 3.3468 0.942581 0
M  V30 11470 H 1117.01 3.98234 0.353463 0
M  V30 11471 H 1118.45 4.00496 1.39208 0
M  V30 11472 C 1116.91 2.67275 2.05099 0
M  V30 11473 O 1117.44 2.50793 3.13793 0
M  V30 11474 N 1115.64 2.26232 1.82394 0
M  V30 11475 H 1115.19 2.39838 0.939983 0
M  V30 11476 H 1115.15 1.81465 2.56744 0
M  V30 11477 N 1118.92 0.422693 1.51826 0
M  V30 11478 C 1119.88 -0.384307 2.25955 0
M  V30 11479 C 1120.88 -0.962184 1.28836 0
M  V30 11480 O 1122.07 -0.838931 1.52668 0
M  V30 11481 C 1119.21 -1.54228 3.04018 0
M  V30 11482 H 1120.4 0.265157 2.98726 0
M  V30 11483 H 1117.95 0.175515 1.55311 0
M  V30 11484 H 1118.69 -2.22822 2.35629 0
M  V30 11485 H 1118.47 -1.13425 3.75336 0
M  V30 11486 H 1119.96 -2.1128 3.60209 0
M  V30 11487 N 1120.4 -1.5685 0.153553 0
M  V30 11488 C 1121.63 -2.0041 -0.501949 0
M  V30 11489 C 1122.04 -1.03272 -1.58529 0
M  V30 11490 O 1121.38 -0.0227479 -1.83686 0
M  V30 11491 C 1121.44 -3.40402 -1.15613 0
M  V30 11492 C 1121.11 -4.56486 -0.216596 0
M  V30 11493 C 1122.1 -5.16894 0.558267 0
M  V30 11494 C 1119.79 -5.02162 -0.117592 0
M  V30 11495 C 1121.78 -6.21392 1.41951 0
M  V30 11496 C 1119.47 -6.06514 0.747255 0
M  V30 11497 C 1120.47 -6.65999 1.51441 0
M  V30 11498 O 1120.16 -7.6833 2.36483 0
M  V30 11499 H 1119.89 -0.66247 -0.134574 0
M  V30 11500 H 1122.44 -2.03908 0.247086 0
M  V30 11501 H 1120.67 -3.33762 -1.95294 0
M  V30 11502 H 1122.36 -3.68028 -1.71202 0
M  V30 11503 H 1123.13 -4.825 0.491851 0
M  V30 11504 H 1119.01 -4.55586 -0.704462 0
M  V30 11505 H 1122.55 -6.67751 2.01877 0
M  V30 11506 H 1118.45 -6.40335 0.81494 0
M  V30 11507 H 1119.21 -7.85578 2.29803 0
M  V30 11508 N 1121.88 0.120221 -1.57141 0
M  V30 11509 C 1123.1 0.84637 -1.89344 0
M  V30 11510 C 1123.53 1.72702 -0.745365 0
M  V30 11511 O 1122.89 1.7873 0.304155 0
M  V30 11512 C 1122.93 1.65671 -3.20289 0
M  V30 11513 O 1122.04 2.76353 -3.06109 0
M  V30 11514 H 1121.38 0.234132 -0.621352 0
M  V30 11515 H 1123.91 0.102986 -2.04341 0
M  V30 11516 H 1123.92 2.04621 -3.52979 0
M  V30 11517 H 1122.59 1.01023 -4.03444 0
M  V30 11518 H 1121.17 2.40615 -2.84884 0
M  V30 11519 N 1123.36 1.52689 0.390367 0
M  V30 11520 C 1124.3 1.78007 1.4972 0
M  V30 11521 C 1125.3 0.647948 1.56518 0
M  V30 11522 O 1126.5 0.830398 1.59701 0
M  V30 11523 H 1122.88 0.56322 0.498284 0
M  V30 11524 H 1124.85 2.70698 1.25559 0
M  V30 11525 C 1123.6 1.96469 2.86872 0
M  V30 11526 H 1122.92 2.83012 2.82391 0
M  V30 11527 H 1124.36 2.18174 3.6356 0
M  V30 11528 C 1122.82 0.736847 3.28743 0
M  V30 11529 O 1123.35 -0.0863743 4.01607 0
M  V30 11530 N 1121.56 0.56735 2.85008 0
M  V30 11531 H 1121.1 1.23838 2.2588 0
M  V30 11532 H 1121.06 -0.252831 3.13382 0
M  V30 11533 N 1124.83 -0.648732 1.43629 0
M  V30 11534 C 1126.08 -1.40857 1.45483 0
M  V30 11535 C 1126.41 -1.94332 0.0807963 0
M  V30 11536 O 1125.66 -1.72999 -0.914875 0
M  V30 11537 C 1125.96 -2.60394 2.44806 0
M  V30 11538 C 1125.63 -2.25311 3.90571 0
M  V30 11539 C 1124.29 -2.15456 4.3027 0
M  V30 11540 C 1126.64 -1.97307 4.8241 0
M  V30 11541 C 1123.97 -1.75759 5.59755 0
M  V30 11542 C 1126.32 -1.59108 6.12264 0
M  V30 11543 C 1124.99 -1.47781 6.50936 0
M  V30 11544 H 1124.26 -0.515434 0.532362 0
M  V30 11545 H 1126.9 -0.737339 1.76736 0
M  V30 11546 H 1125.21 -3.3267 2.06973 0
M  V30 11547 H 1126.91 -3.18609 2.43494 0
M  V30 11548 H 1123.5 -2.33894 3.59154 0
M  V30 11549 H 1127.68 -2.0384 4.52507 0
M  V30 11550 H 1122.94 -1.65579 5.88552 0
M  V30 11551 H 1127.11 -1.36472 6.82897 0
M  V30 11552 H 1124.74 -1.16792 7.51175 0
M  V30 11553 N 1126.31 -1.30234 -0.887518 0
M  V30 11554 C 1127.54 -1.21652 -1.66986 0
M  V30 11555 C 1127.95 0.223473 -1.87876 0
M  V30 11556 O 1127.29 1.15993 -1.42448 0
M  V30 11557 C 1127.36 -1.87173 -3.06931 0
M  V30 11558 C 1127.02 -3.36496 -3.09224 0
M  V30 11559 C 1128.02 -4.3253 -2.88469 0
M  V30 11560 C 1125.7 -3.77901 -3.30902 0
M  V30 11561 C 1127.7 -5.67942 -2.89344 0
M  V30 11562 C 1125.38 -5.13432 -3.31407 0
M  V30 11563 C 1126.38 -6.08263 -3.10653 0
M  V30 11564 O 1126.07 -7.41318 -3.1097 0
M  V30 11565 H 1125.8 -0.422224 -0.527923 0
M  V30 11566 H 1128.35 -1.72349 -1.11736 0
M  V30 11567 H 1126.58 -1.31002 -3.63834 0
M  V30 11568 H 1128.27 -1.72745 -3.67306 0
M  V30 11569 H 1129.04 -4.01873 -2.7152 0
M  V30 11570 H 1124.92 -3.04534 -3.46093 0
M  V30 11571 H 1128.46 -6.41936 -2.73063 0
M  V30 11572 H 1124.36 -5.4373 -3.47891 0
M  V30 11573 H 1125.13 -7.50275 -3.27153 0
M  V30 11574 N 1127.79 1.09952 -1.12909 0
M  V30 11575 C 1129.07 1.78547 -0.798767 0
M  V30 11576 C 1129.45 1.9878 0.710624 0
M  V30 11577 O 1128.8 1.58485 1.64604 0
M  V30 11578 C 1129.01 3.1121 -1.57953 0
M  V30 11579 C 1130.35 3.86006 -1.76874 0
M  V30 11580 O 1131.38 3.20946 -1.54506 0
M  V30 11581 O 1130.24 5.02791 -2.14158 0
M  V30 11582 H 1127.33 0.774084 -0.291072 0
M  V30 11583 H 1129.88 1.16557 -1.2334 0
M  V30 11584 H 1128.65 2.91935 -2.60557 0
M  V30 11585 H 1128.27 3.80922 -1.13948 0
M  V30 11586 N 1129.27 0.921757 1.27833 0
M  V30 11587 C 1130.52 0.557974 1.94245 0
M  V30 11588 C 1130.84 -0.90268 1.72849 0
M  V30 11589 O 1130.11 -1.63915 1.07279 0
M  V30 11590 H 1128.69 0.203364 0.718785 0
M  V30 11591 H 1131.35 1.17286 1.5566 0
M  V30 11592 H 1130.45 0.759202 3.02725 0
M  V30 11593 N 1130.75 -1.41857 0.686609 0
M  V30 11594 C 1131.99 -2.02176 0.22284 0
M  V30 11595 C 1132.35 -1.53373 -1.16165 0
M  V30 11596 O 1131.64 -0.73123 -1.77098 0
M  V30 11597 C 1131.83 -3.56783 0.209951 0
M  V30 11598 C 1131.66 -4.20591 1.59166 0
M  V30 11599 C 1130.43 -4.55264 2.19232 0
M  V30 11600 C 1132.63 -4.47394 2.53659 0
M  V30 11601 N 1130.61 -5.04313 3.5006 0
M  V30 11602 C 1131.98 -4.98121 3.69155 0
M  V30 11603 C 1134.04 -4.29396 2.52039 0
M  V30 11604 C 1132.74 -5.32741 4.83301 0
M  V30 11605 C 1134.77 -4.65099 3.65291 0
M  V30 11606 C 1134.13 -5.15988 4.79516 0
M  V30 11607 H 1130.23 -0.771663 0.126731 0
M  V30 11608 H 1132.81 -1.72538 0.902153 0
M  V30 11609 H 1130.98 -3.85913 -0.438816 0
M  V30 11610 H 1132.72 -4.03813 -0.267806 0
M  V30 11611 H 1129.47 -4.41417 1.71604 0
M  V30 11612 H 1129.9 -5.33253 4.17098 0
M  V30 11613 H 1134.54 -3.89296 1.64949 0
M  V30 11614 H 1132.26 -5.71767 5.71058 0
M  V30 11615 H 1135.84 -4.52839 3.65279 0
M  V30 11616 H 1134.72 -5.43098 5.65698 0
M  V30 11617 N 1132.22 -0.430739 -1.51599 0
M  V30 11618 C 1133.45 0.139197 -2.06932 0
M  V30 11619 C 1133.87 1.3626 -1.29672 0
M  V30 11620 O 1133.23 1.78219 -0.332836 0
M  V30 11621 C 1133.28 0.446593 -3.57824 0
M  V30 11622 O 1132.38 1.53414 -3.82803 0
M  V30 11623 H 1131.73 0.00475812 -0.663983 0
M  V30 11624 H 1134.26 -0.610171 -1.9529 0
M  V30 11625 H 1134.27 0.698972 -4.01968 0
M  V30 11626 H 1132.94 -0.447613 -4.13484 0
M  V30 11627 H 1131.52 1.27224 -3.50526 0
M  V30 11628 N 1133.7 1.56767 -0.161869 0
M  V30 11629 C 1134.61 2.21083 0.784814 0
M  V30 11630 C 1135.63 1.19959 1.26039 0
M  V30 11631 O 1136.8 1.52588 1.31449 0
M  V30 11632 C 1133.87 2.83153 2.00063 0
M  V30 11633 C 1132.93 3.9945 1.57285 0
M  V30 11634 C 1132.16 4.5855 2.7307 0
M  V30 11635 O 1132.39 4.16534 3.89686 0
M  V30 11636 O 1131.32 5.48575 2.47688 0
M  V30 11637 H 1135.15 3.02522 0.267243 0
M  V30 11638 H 1132.73 1.49255 0.0658783 0
M  V30 11639 H 1134.61 3.22546 2.71186 0
M  V30 11640 H 1133.29 2.04718 2.50744 0
M  V30 11641 H 1132.2 3.64745 0.831393 0
M  V30 11642 H 1133.53 4.7945 1.11304 0
M  V30 11643 N 1135.18 -0.111886 1.57202 0
M  V30 11644 C 1136.43 -0.818411 1.85225 0
M  V30 11645 C 1136.76 -1.79542 0.747991 0
M  V30 11646 O 1136.01 -1.93965 -0.260013 0
M  V30 11647 C 1136.31 -1.59644 3.19763 0
M  V30 11648 C 1135.98 -0.76308 4.44396 0
M  V30 11649 C 1134.64 -0.53329 4.78236 0
M  V30 11650 C 1136.99 -0.18266 5.2088 0
M  V30 11651 C 1134.32 0.287056 5.85997 0
M  V30 11652 C 1136.67 0.624916 6.29506 0
M  V30 11653 C 1135.33 0.864955 6.61872 0
M  V30 11654 H 1134.6 -0.299478 0.677786 0
M  V30 11655 H 1137.25 -0.0805082 1.91331 0
M  V30 11656 H 1135.56 -2.40545 3.09266 0
M  V30 11657 H 1137.25 -2.1472 3.38669 0
M  V30 11658 H 1133.84 -0.952278 4.17887 0
M  V30 11659 H 1138.03 -0.34739 4.95083 0
M  V30 11660 H 1133.28 0.482179 6.09496 0
M  V30 11661 H 1137.46 1.08162 6.87949 0
M  V30 11662 H 1135.08 1.50244 7.45205 0
M  V30 11663 N 1136.66 -1.52894 -0.382264 0
M  V30 11664 C 1137.88 -1.72453 -1.15216 0
M  V30 11665 C 1138.31 -0.444925 -1.82762 0
M  V30 11666 O 1137.67 0.599825 -1.7109 0
M  V30 11667 C 1137.71 -2.87939 -2.17079 0
M  V30 11668 O 1136.82 -2.55383 -3.23811 0
M  V30 11669 H 1136.16 -0.57324 -0.335099 0
M  V30 11670 H 1138.69 -1.99713 -0.444495 0
M  V30 11671 H 1138.7 -3.13628 -2.60963 0
M  V30 11672 H 1137.37 -3.80765 -1.67305 0
M  V30 11673 H 1135.95 -2.40457 -2.85018 0
M  V30 11674 N 1138.14 0.641106 -1.43971 0
M  V30 11675 C 1139.55 0.958161 -1.27638 0
M  V30 11676 C 1139.75 2.00456 -0.204885 0
M  V30 11677 O 1138.81 2.49106 0.412606 0
M  V30 11678 C 1140.12 1.43091 -2.64472 0
M  V30 11679 C 1141.67 1.54692 -2.72102 0
M  V30 11680 C 1142.15 2.05353 -4.09382 0
M  V30 11681 N 1143.64 2.12638 -4.11509 0
M  V30 11682 C 1144.37 2.52987 -5.14573 0
M  V30 11683 N 1143.87 2.92544 -6.28005 0
M  V30 11684 N 1145.66 2.53033 -5.01927 0
M  V30 11685 H 1137.81 -0.0510973 -2.12339 0
M  V30 11686 H 1140.07 0.039748 -0.947166 0
M  V30 11687 H 1139.78 0.736389 -3.43904 0
M  V30 11688 H 1139.65 2.40375 -2.90688 0
M  V30 11689 H 1142.04 2.23242 -1.92994 0
M  V30 11690 H 1142.12 0.558083 -2.49638 0
M  V30 11691 H 1141.77 1.37401 -4.88962 0
M  V30 11692 H 1141.7 3.0509 -4.29218 0
M  V30 11693 H 1144.19 1.84792 -3.29636 0
M  V30 11694 H 1144.5 3.22116 -7.02468 0
M  V30 11695 H 1142.85 2.90319 -6.31458 0
M  V30 11696 H 1146.04 2.21514 -4.1237 0
M  V30 11697 H 1146.21 2.84155 -5.82375 0
M  V30 11698 N 1139.62 1.30703 0.880598 0
M  V30 11699 C 1140.56 1.17369 2.00817 0
M  V30 11700 C 1141.56 0.0845159 1.69189 0
M  V30 11701 O 1142.76 0.245673 1.78316 0
M  V30 11702 H 1139.14 0.363107 0.658527 0
M  V30 11703 H 1141.11 2.12789 2.09197 0
M  V30 11704 C 1139.86 0.886851 3.362 0
M  V30 11705 H 1139.18 1.71704 3.61051 0
M  V30 11706 H 1140.62 0.83368 4.15723 0
M  V30 11707 C 1139.08 -0.410293 3.34392 0
M  V30 11708 O 1139.61 -1.43044 3.75368 0
M  V30 11709 N 1137.82 -0.423023 2.87505 0
M  V30 11710 H 1137.36 0.407637 2.54354 0
M  V30 11711 H 1137.32 -1.29086 2.86678 0
M  V30 11712 N 1141.09 -1.09351 1.1349 0
M  V30 11713 C 1142.34 -1.81185 0.89535 0
M  V30 11714 C 1142.66 -1.86173 -0.580048 0
M  V30 11715 O 1141.93 -1.34784 -1.42162 0
M  V30 11716 H 1140.51 -0.671011 0.328257 0
M  V30 11717 H 1143.17 -1.32255 1.43159 0
M  V30 11718 H 1142.27 -2.84339 1.28676 0
M  V30 11719 N 1142.57 -0.928524 -1.27343 0
M  V30 11720 C 1143.82 -0.570235 -1.94618 0
M  V30 11721 C 1144.15 0.886381 -1.72792 0
M  V30 11722 O 1143.43 1.63242 -1.05747 0
M  V30 11723 C 1143.71 -0.897964 -3.48724 0
M  V30 11724 C 1143.56 -2.40839 -3.7989 0
M  V30 11725 C 1144.88 -0.404429 -4.38238 0
M  V30 11726 H 1142 -0.208645 -0.70685 0
M  V30 11727 H 1144.64 -1.16045 -1.50444 0
M  V30 11728 H 1142.79 -0.395679 -3.8648 0
M  V30 11729 H 1144.46 -2.98243 -3.51921 0
M  V30 11730 H 1142.71 -2.85723 -3.26412 0
M  V30 11731 H 1143.38 -2.58823 -4.8756 0
M  V30 11732 H 1145.85 -0.834918 -4.07637 0
M  V30 11733 H 1144.73 -0.662684 -5.44885 0
M  V30 11734 H 1144.99 0.695507 -4.36595 0
M  V30 11735 N 1144.05 1.41491 -0.694123 0
M  V30 11736 C 1145.28 2.0528 -0.233128 0
M  V30 11737 C 1145.69 1.52329 1.12217 0
M  V30 11738 O 1145.03 0.66579 1.7121 0
M  V30 11739 C 1145.09 3.59326 -0.111718 0
M  V30 11740 C 1144.76 4.35065 -1.39882 0
M  V30 11741 C 1145.75 4.64446 -2.33637 0
M  V30 11742 C 1143.44 4.74364 -1.65179 0
M  V30 11743 C 1145.43 5.32083 -3.50951 0
M  V30 11744 C 1143.12 5.41737 -2.82779 0
M  V30 11745 C 1144.12 5.70524 -3.75488 0
M  V30 11746 O 1143.81 6.36511 -4.91029 0
M  V30 11747 H 1143.54 0.667571 -0.106418 0
M  V30 11748 H 1146.09 1.82276 -0.94682 0
M  V30 11749 H 1144.32 3.81065 0.65773 0
M  V30 11750 H 1146.01 4.047 0.311906 0
M  V30 11751 H 1146.78 4.34568 -2.1535 0
M  V30 11752 H 1142.66 4.5134 -0.93881 0
M  V30 11753 H 1146.2 5.54468 -4.23333 0
M  V30 11754 H 1142.1 5.71033 -3.00984 0
M  V30 11755 H 1142.86 6.55006 -4.90825 0
M  V30 11756 N 1145.53 0.438773 1.51369 0
M  V30 11757 C 1146.78 -0.126962 2.01701 0
M  V30 11758 C 1147.1 -1.43086 1.32481 0
M  V30 11759 O 1146.37 -1.90427 0.459823 0
M  V30 11760 H 1144.95 -0.0499092 0.745331 0
M  V30 11761 H 1147.61 0.581808 1.86013 0
M  V30 11762 H 1146.7 -0.301836 3.10637 0
M  V30 11763 N 1147.01 -1.56678 0.170181 0
M  V30 11764 C 1148.25 -1.96024 -0.475147 0
M  V30 11765 C 1148.57 -1.0588 -1.64465 0
M  V30 11766 O 1149.77 -1.34901 -2.35614 0
M  V30 11767 C 1148.23 -3.4855 -0.896704 0
M  V30 11768 C 1147.84 -4.47318 0.247142 0
M  V30 11769 C 1149.58 -3.96716 -1.51052 0
M  V30 11770 C 1147.49 -5.91082 -0.193982 0
M  V30 11771 H 1146.42 -0.731883 -0.181282 0
M  V30 11772 H 1149.07 -1.81674 0.25823 0
M  V30 11773 H 1147.45 -3.58314 -1.68603 0
M  V30 11774 H 1148.63 -4.49268 1.02445 0
M  V30 11775 H 1146.94 -4.09203 0.770839 0
M  V30 11776 H 1149.54 -5.01581 -1.85258 0
M  V30 11777 H 1149.88 -3.39588 -2.40802 0
M  V30 11778 H 1150.41 -3.89965 -0.785652 0
M  V30 11779 H 1147.15 -6.5208 0.668714 0
M  V30 11780 H 1146.67 -5.92441 -0.936675 0
M  V30 11781 H 1148.35 -6.43844 -0.638237 0
M  V30 11782 N 1148.48 0.103547 -1.57259 0
M  V30 11783 C 1149.43 1.14513 -2.02459 0
M  V30 11784 C 1150.43 1.4197 -0.924163 0
M  V30 11785 O 1151.63 1.41751 -1.10936 0
M  V30 11786 H 1148.01 0.386469 -0.645094 0
M  V30 11787 H 1149.98 0.737531 -2.89142 0
M  V30 11788 C 1148.73 2.45948 -2.45775 0
M  V30 11789 H 1148.05 2.25662 -3.30026 0
M  V30 11790 H 1149.49 3.17351 -2.81184 0
M  V30 11791 C 1147.95 3.09639 -1.32759 0
M  V30 11792 O 1148.48 3.96372 -0.652059 0
M  V30 11793 N 1146.68 2.69757 -1.08072 0
M  V30 11794 H 1146.23 1.9932 -1.63185 0
M  V30 11795 H 1146.19 3.127 -0.326532 0
M  V30 11796 N 1149.96 1.53094 0.37415 0
M  V30 11797 C 1151.19 1.72758 1.13852 0
M  V30 11798 C 1151.6 0.452638 1.83294 0
M  V30 11799 O 1150.96 -0.573906 1.73241 0
M  V30 11800 C 1151.01 2.88724 2.17534 0
M  V30 11801 O 1150.73 4.11284 1.5092 0
M  V30 11802 C 1152.23 3.2019 3.06584 0
M  V30 11803 H 1149.45 0.578028 0.340771 0
M  V30 11804 H 1152 1.99805 0.435683 0
M  V30 11805 H 1150.15 2.64096 2.83429 0
M  V30 11806 H 1150.57 4.76162 2.19932 0
M  V30 11807 H 1152.04 4.04759 3.75332 0
M  V30 11808 H 1152.52 2.35193 3.70919 0
M  V30 11809 H 1153.12 3.46712 2.46315 0
M  V30 11810 N 1151.44 -0.633461 1.44309 0
M  V30 11811 C 1152.37 -1.75676 1.53819 0
M  V30 11812 C 1153.35 -1.65537 0.391365 0
M  V30 11813 O 1154.54 -1.84332 0.611181 0
M  V30 11814 C 1151.67 -3.14197 1.47979 0
M  V30 11815 C 1150.62 -3.39122 2.61113 0
M  V30 11816 C 1149.95 -4.77648 2.40325 0
M  V30 11817 C 1151.25 -3.31914 4.03274 0
M  V30 11818 H 1152.94 -1.67974 2.47841 0
M  V30 11819 H 1150.49 -0.8067 1.19283 0
M  V30 11820 H 1152.44 -3.92553 1.53233 0
M  V30 11821 H 1151.16 -3.22677 0.504718 0
M  V30 11822 H 1149.82 -2.63145 2.55245 0
M  V30 11823 H 1149.47 -4.82829 1.41016 0
M  V30 11824 H 1149.17 -4.95284 3.16177 0
M  V30 11825 H 1150.69 -5.58237 2.47394 0
M  V30 11826 H 1152.11 -4.00178 4.10524 0
M  V30 11827 H 1150.5 -3.61085 4.7931 0
M  V30 11828 H 1151.57 -2.29761 4.2701 0
M  V30 11829 N 1152.92 -1.31168 -0.873655 0
M  V30 11830 C 1153.87 -1.18432 -2.00191 0
M  V30 11831 C 1154.86 -0.0934873 -1.69142 0
M  V30 11832 O 1156.07 -0.255126 -1.78183 0
M  V30 11833 H 1152.44 -0.366594 -0.656592 0
M  V30 11834 H 1154.41 -2.13896 -2.08065 0
M  V30 11835 C 1153.16 -0.904668 -3.35725 0
M  V30 11836 H 1152.48 -1.73617 -3.60135 0
M  V30 11837 H 1153.92 -0.855715 -4.15275 0
M  V30 11838 C 1152.38 0.392554 -3.34605 0
M  V30 11839 O 1152.91 1.41052 -3.76121 0
M  V30 11840 N 1151.12 0.40777 -2.87725 0
M  V30 11841 H 1150.67 -0.42112 -2.54134 0
M  V30 11842 H 1150.62 1.27564 -2.87358 0
M  V30 11843 N 1154.4 1.08748 -1.14068 0
M  V30 11844 C 1155.34 2.17667 -0.819981 0
M  V30 11845 C 1156.34 1.68207 0.200654 0
M  V30 11846 O 1157.54 1.79909 0.0571014 0
M  V30 11847 H 1153.92 0.710129 -0.247427 0
M  V30 11848 H 1155.89 2.41944 -1.74659 0
M  V30 11849 C 1154.64 3.46315 -0.309985 0
M  V30 11850 H 1153.96 3.84748 -1.08669 0
M  V30 11851 H 1155.4 4.23818 -0.124094 0
M  V30 11852 C 1153.86 3.22762 0.965724 0
M  V30 11853 O 1154.39 3.46034 2.04018 0
M  V30 11854 N 1152.6 2.76326 0.899576 0
M  V30 11855 H 1152.14 2.57588 0.0250598 0
M  V30 11856 H 1152.1 2.60945 1.75371 0
M  V30 11857 N 1155.87 0.935264 1.26849 0
M  V30 11858 C 1156.81 0.384563 2.24936 0
M  V30 11859 C 1157.79 -0.523311 1.53949 0
M  V30 11860 O 1158.97 -0.462103 1.82748 0
M  V30 11861 C 1156.1 -0.448043 3.35723 0
M  V30 11862 C 1155.14 0.397466 4.24644 0
M  V30 11863 S 1155.98 1.81773 5.03705 0
M  V30 11864 C 1157.13 0.99302 6.17972 0
M  V30 11865 H 1157.36 1.21588 2.713 0
M  V30 11866 H 1154.9 0.737966 1.35622 0
M  V30 11867 H 1156.86 -0.922541 3.99999 0
M  V30 11868 H 1155.52 -1.25397 2.87983 0
M  V30 11869 H 1154.71 -0.240176 5.03427 0
M  V30 11870 H 1154.31 0.806423 3.65202 0
M  V30 11871 H 1156.6 0.232526 6.77101 0
M  V30 11872 H 1157.55 1.75412 6.86029 0
M  V30 11873 H 1157.95 0.531692 5.6199 0
M  V30 11874 N 1157.35 -1.41121 0.701616 0
M  V30 11875 C 1158.6 -2.00733 0.234682 0
M  V30 11876 C 1158.92 -1.55869 -1.17174 0
M  V30 11877 O 1158.19 -0.791965 -1.79178 0
M  V30 11878 H 1156.77 -0.742288 0.0837745 0
M  V30 11879 H 1159.43 -1.7266 0.904127 0
M  V30 11880 H 1158.53 -3.11041 0.256831 0
M  V30 11881 N 1158.83 -0.446794 -1.51134 0
M  V30 11882 C 1160.06 0.114893 -2.06581 0
M  V30 11883 C 1160.47 1.35642 -1.31327 0
M  V30 11884 O 1159.83 1.78595 -0.375506 0
M  V30 11885 C 1159.88 0.427589 -3.58962 0
M  V30 11886 O 1159.6 -0.764669 -4.31375 0
M  V30 11887 C 1161.1 1.03891 -4.30954 0
M  V30 11888 H 1158.32 0.00373031 -0.67099 0
M  V30 11889 H 1160.87 -0.628596 -1.94599 0
M  V30 11890 H 1159.02 1.12099 -3.70827 0
M  V30 11891 H 1159.44 -0.494605 -5.22163 0
M  V30 11892 H 1160.91 1.20764 -5.38628 0
M  V30 11893 H 1161.39 2.02252 -3.8986 0
M  V30 11894 H 1161.99 0.384623 -4.23557 0
M  V30 11895 N 1160.31 1.56586 -0.178487 0
M  V30 11896 C 1161.24 2.21313 0.744486 0
M  V30 11897 C 1162.22 1.17098 1.23377 0
M  V30 11898 O 1163.4 1.45551 1.28563 0
M  V30 11899 C 1160.53 2.8595 1.97103 0
M  V30 11900 C 1159.49 3.96266 1.61732 0
M  V30 11901 C 1158.81 4.47987 2.91911 0
M  V30 11902 C 1160.11 5.15503 0.839868 0
M  V30 11903 H 1161.81 2.98698 0.204938 0
M  V30 11904 H 1159.35 1.43672 0.0971306 0
M  V30 11905 H 1161.31 3.29909 2.6218 0
M  V30 11906 H 1160.03 2.05946 2.53484 0
M  V30 11907 H 1158.69 3.52974 0.990208 0
M  V30 11908 H 1158.34 3.64765 3.46346 0
M  V30 11909 H 1158.04 5.22413 2.68995 0
M  V30 11910 H 1159.56 4.94637 3.58004 0
M  V30 11911 H 1160.98 5.5611 1.39337 0
M  V30 11912 H 1159.37 5.95891 0.709473 0
M  V30 11913 H 1160.44 4.84628 -0.162396 0
M  V30 11914 N 1161.79 -0.095206 1.57312 0
M  V30 11915 C 1163.02 -0.811092 1.90013 0
M  V30 11916 C 1163.42 -1.72807 0.770359 0
M  V30 11917 O 1162.77 -1.81755 -0.266615 0
M  V30 11918 C 1162.83 -1.67744 3.17966 0
M  V30 11919 C 1162.49 -0.932301 4.47389 0
M  V30 11920 C 1163.49 -0.262161 5.19239 0
M  V30 11921 C 1161.18 -0.906414 4.94054 0
M  V30 11922 C 1163.17 0.423898 6.35989 0
M  V30 11923 C 1160.86 -0.216569 6.10716 0
M  V30 11924 C 1161.85 0.447408 6.81533 0
M  V30 11925 O 1161.54 1.12619 7.95972 0
M  V30 11926 H 1161.27 -0.237154 0.633035 0
M  V30 11927 H 1163.83 -0.0768976 2.05256 0
M  V30 11928 H 1162.06 -2.45387 2.98868 0
M  V30 11929 H 1163.75 -2.26988 3.36498 0
M  V30 11930 H 1164.51 -0.273621 4.84228 0
M  V30 11931 H 1160.39 -1.41267 4.38822 0
M  V30 11932 H 1163.94 0.942727 6.91201 0
M  V30 11933 H 1159.83 -0.202955 6.45181 0
M  V30 11934 H 1160.6 1.03308 8.11954 0
M  V30 11935 N 1163.26 -1.53291 -0.366026 0
M  V30 11936 C 1164.23 -1.79025 -1.43117 0
M  V30 11937 C 1165.23 -0.660676 -1.46601 0
M  V30 11938 O 1166.42 -0.928875 -1.47369 0
M  V30 11939 C 1163.55 -1.91192 -2.82238 0
M  V30 11940 H 1164.74 -2.74154 -1.21572 0
M  V30 11941 H 1162.3 -1.44361 -0.599132 0
M  V30 11942 H 1163.03 -0.98129 -3.09097 0
M  V30 11943 H 1162.82 -2.7335 -2.81109 0
M  V30 11944 H 1164.31 -2.12696 -3.59375 0
M  V30 11945 N 1164.74 0.6258 -1.44643 0
M  V30 11946 C 1166.16 0.944569 -1.28647 0
M  V30 11947 C 1166.36 2.00227 -0.226134 0
M  V30 11948 O 1165.41 2.4953 0.386161 0
M  V30 11949 C 1166.73 1.40278 -2.65975 0
M  V30 11950 C 1168.28 1.51797 -2.73727 0
M  V30 11951 C 1168.75 2.01 -4.11537 0
M  V30 11952 N 1170.24 2.08262 -4.13741 0
M  V30 11953 C 1170.98 2.47515 -5.17227 0
M  V30 11954 N 1170.47 2.85867 -6.31072 0
M  V30 11955 N 1172.27 2.47695 -5.04583 0
M  V30 11956 H 1164.42 -0.0736157 -2.12272 0
M  V30 11957 H 1166.68 0.0296998 -0.947535 0
M  V30 11958 H 1166.39 0.699871 -3.44666 0
M  V30 11959 H 1166.26 2.37279 -2.93221 0
M  V30 11960 H 1168.65 2.21183 -1.95351 0
M  V30 11961 H 1168.73 0.531574 -2.50216 0
M  V30 11962 H 1168.37 1.32207 -4.90391 0
M  V30 11963 H 1168.3 3.0052 -4.32429 0
M  V30 11964 H 1170.79 1.81286 -3.31578 0
M  V30 11965 H 1171.11 3.14647 -7.05845 0
M  V30 11966 H 1169.45 2.83605 -6.34502 0
M  V30 11967 H 1172.64 2.17127 -4.14697 0
M  V30 11968 H 1172.81 2.77962 -5.85356 0
M  V30 11969 N 1166.22 1.31629 0.866686 0
M  V30 11970 C 1167.17 1.16149 1.96197 0
M  V30 11971 C 1168.15 0.0716068 1.60741 0
M  V30 11972 O 1169.35 0.296868 1.74493 0
M  V30 11973 C 1166.48 0.874322 3.3198 0
M  V30 11974 C 1165.56 2.00534 3.73693 0
M  V30 11975 N 1165.95 3.25272 3.87339 0
M  V30 11976 C 1164.25 1.90582 4.0323 0
M  V30 11977 C 1164.95 3.99275 4.2303 0
M  V30 11978 N 1163.93 3.27471 4.33894 0
M  V30 11979 H 1167.73 2.10732 2.04864 0
M  V30 11980 H 1165.24 1.23234 1.05769 0
M  V30 11981 H 1167.24 0.7444 4.102 0
M  V30 11982 H 1165.9 -0.0632521 3.24638 0
M  V30 11983 H 1166.91 3.60349 3.71979 0
M  V30 11984 H 1163.59 1.0431 4.0426 0
M  V30 11985 H 1164.98 5.06784 4.41157 0
M  V30 11986 N 1167.7 -1.08142 1.14644 0
M  V30 11987 C 1168.95 -1.80849 0.917685 0
M  V30 11988 C 1169.28 -1.86123 -0.554249 0
M  V30 11989 O 1168.55 -1.33907 -1.41065 0
M  V30 11990 C 1168.84 -3.26325 1.52264 0
M  V30 11991 C 1168.69 -3.29244 3.06461 0
M  V30 11992 C 1170.01 -4.23375 1.20175 0
M  V30 11993 H 1167.13 -0.656559 0.334812 0
M  V30 11994 H 1169.77 -1.26595 1.41682 0
M  V30 11995 H 1167.92 -3.72656 1.09817 0
M  V30 11996 H 1169.59 -2.91216 3.57758 0
M  V30 11997 H 1167.83 -2.68438 3.40769 0
M  V30 11998 H 1168.51 -4.31785 3.43897 0
M  V30 11999 H 1170.98 -3.85394 1.56877 0
M  V30 12000 H 1169.86 -5.23472 1.65132 0
M  V30 12001 H 1170.12 -4.41944 0.117474 0
M  V30 12002 N 1169.18 -0.941978 -1.26351 0
M  V30 12003 C 1170.13 -0.443011 -2.28342 0
M  V30 12004 C 1171.12 0.48013 -1.62453 0
M  V30 12005 O 1172.33 0.358255 -1.76399 0
M  V30 12006 H 1168.7 -0.124728 -0.741584 0
M  V30 12007 H 1170.67 -1.31573 -2.67827 0
M  V30 12008 C 1169.42 0.275675 -3.46605 0
M  V30 12009 H 1168.74 -0.425504 -3.97529 0
M  V30 12010 H 1170.18 0.589012 -4.19889 0
M  V30 12011 C 1168.64 1.49376 -3.01974 0
M  V30 12012 O 1169.17 2.59203 -3.06883 0
M  V30 12013 N 1167.38 1.35061 -2.57307 0
M  V30 12014 H 1166.93 0.457045 -2.53513 0
M  V30 12015 H 1166.88 2.16681 -2.27809 0
M  V30 12016 N 1170.66 1.40747 -0.709091 0
M  V30 12017 C 1171.62 2.29118 -0.0611607 0
M  V30 12018 C 1172.62 1.45049 0.694081 0
M  V30 12019 O 1173.81 1.66039 0.526952 0
M  V30 12020 C 1170.94 3.28154 0.923447 0
M  V30 12021 H 1172.13 2.87913 -0.839413 0
M  V30 12022 H 1169.69 1.4896 -0.473363 0
M  V30 12023 H 1170.42 2.74366 1.72899 0
M  V30 12024 H 1170.21 3.90207 0.384862 0
M  V30 12025 H 1171.7 3.94343 1.37417 0
M  V30 12026 N 1172.13 0.454803 1.50895 0
M  V30 12027 C 1173.38 -0.105562 2.01824 0
M  V30 12028 C 1173.7 -1.41673 1.33992 0
M  V30 12029 O 1172.97 -1.89929 0.479994 0
M  V30 12030 H 1171.55 -0.0420011 0.745818 0
M  V30 12031 H 1174.21 0.601504 1.85386 0
M  V30 12032 H 1173.31 -0.268872 3.1094 0
M  V30 12033 N 1173.61 -1.56489 0.186789 0
M  V30 12034 C 1174.84 -2.02163 -0.463126 0
M  V30 12035 C 1175.26 -1.06612 -1.54969 0
M  V30 12036 O 1174.62 -0.0482139 -1.81236 0
M  V30 12037 C 1174.67 -3.46337 -1.00416 0
M  V30 12038 O 1173.77 -3.53889 -2.11747 0
M  V30 12039 H 1173.11 -0.65496 -0.109194 0
M  V30 12040 H 1175.64 -2.02459 0.295227 0
M  V30 12041 H 1175.65 -3.85959 -1.32287 0
M  V30 12042 H 1174.33 -4.15376 -0.208693 0
M  V30 12043 H 1172.9 -3.26136 -1.80803 0
M  V30 12044 N 1175.09 0.086862 -1.5736 0
M  V30 12045 C 1176.32 0.802167 -1.90717 0
M  V30 12046 C 1176.73 1.71875 -0.781304 0
M  V30 12047 O 1176.09 1.80831 0.246255 0
M  V30 12048 C 1176.14 1.60858 -3.23739 0
M  V30 12049 O 1175.86 0.728851 -4.31995 0
M  V30 12050 C 1177.36 2.42621 -3.71012 0
M  V30 12051 H 1174.58 0.228914 -0.630745 0
M  V30 12052 H 1177.13 0.061634 -2.04407 0
M  V30 12053 H 1175.28 2.30153 -3.11622 0
M  V30 12054 H 1175.7 1.2882 -5.08435 0
M  V30 12055 H 1177.17 2.94683 -4.66761 0
M  V30 12056 H 1177.65 3.21462 -2.99264 0
M  V30 12057 H 1178.25 1.78509 -3.86024 0
M  V30 12058 N 1176.57 1.53483 0.357892 0
M  V30 12059 C 1177.82 1.69701 1.09754 0
M  V30 12060 C 1178.14 0.455389 1.89608 0
M  V30 12061 O 1177.41 -0.530623 1.88577 0
M  V30 12062 H 1175.99 0.62562 0.408178 0
M  V30 12063 H 1178.65 1.90696 0.402641 0
M  V30 12064 H 1177.74 2.56154 1.78302 0
M  V30 12065 N 1178.05 -0.61812 1.44973 0
M  V30 12066 C 1179.46 -1.19994 1.43033 0
M  V30 12067 C 1179.81 -1.95607 0.152422 0
M  V30 12068 O 1178.93 -2.03114 -0.746571 0
M  V30 12069 C 1179.53 -2.18269 2.59122 0
M  V30 12070 C 1178.09 -2.7185 2.60336 0
M  V30 12071 C 1177.23 -1.4707 2.35086 0
M  V30 12072 H 1180.18 -0.408034 1.53365 0
M  V30 12073 H 1180.21 -3.01113 2.32619 0
M  V30 12074 H 1179.72 -1.63208 3.52115 0
M  V30 12075 H 1177.82 -3.30878 1.7132 0
M  V30 12076 H 1177.93 -3.17001 3.59231 0
M  V30 12077 H 1176.3 -1.75658 1.84435 0
M  V30 12078 H 1177.08 -0.938928 3.30211 0
M  V30 12079 N 1179.52 -1.32087 -0.859693 0
M  V30 12080 C 1180.77 -1.21716 -1.60836 0
M  V30 12081 C 1181.09 0.220904 -1.94349 0
M  V30 12082 O 1182.29 0.446422 -2.67805 0
M  V30 12083 C 1180.75 -2.13143 -2.89997 0
M  V30 12084 C 1180.36 -3.62003 -2.63928 0
M  V30 12085 C 1182.1 -2.11596 -3.68004 0
M  V30 12086 C 1180.01 -4.45407 -3.89059 0
M  V30 12087 H 1178.94 -0.45199 -0.603507 0
M  V30 12088 H 1181.59 -1.57013 -0.949687 0
M  V30 12089 H 1179.97 -1.70755 -3.57294 0
M  V30 12090 H 1181.14 -4.12701 -2.04974 0
M  V30 12091 H 1179.46 -3.6563 -1.99258 0
M  V30 12092 H 1182.06 -2.71149 -4.6085 0
M  V30 12093 H 1182.4 -1.10568 -4.01348 0
M  V30 12094 H 1182.93 -2.52238 -3.07605 0
M  V30 12095 H 1179.67 -5.4723 -3.60859 0
M  V30 12096 H 1179.19 -3.99462 -4.47427 0
M  V30 12097 H 1180.87 -4.58149 -4.56846 0
M  V30 12098 N 1181 1.07532 -1.15215 0
M  V30 12099 C 1181.95 2.14687 -0.847243 0
M  V30 12100 C 1182.92 1.64903 0.199043 0
M  V30 12101 O 1184.1 1.90682 0.0669986 0
M  V30 12102 C 1181.24 3.43414 -0.340673 0
M  V30 12103 C 1180.36 4.06999 -1.44831 0
M  V30 12104 C 1179.49 5.23554 -0.898059 0
M  V30 12105 C 1178.53 5.79097 -1.98276 0
M  V30 12106 N 1177.67 6.86985 -1.44902 0
M  V30 12107 H 1182.51 2.4011 -1.76498 0
M  V30 12108 H 1180.04 1.17823 -0.880689 0
M  V30 12109 H 1182 4.1719 -0.0286956 0
M  V30 12110 H 1180.63 3.18249 0.540144 0
M  V30 12111 H 1179.68 3.30895 -1.87651 0
M  V30 12112 H 1181 4.44289 -2.26735 0
M  V30 12113 H 1180.15 6.04305 -0.538514 0
M  V30 12114 H 1178.89 4.87676 -0.0481752 0
M  V30 12115 H 1177.89 4.96992 -2.35115 0
M  V30 12116 H 1179.12 6.1703 -2.83639 0
M  V30 12117 H 1177.07 6.5305 -0.621468 0
M  V30 12118 H 1176.98 7.23149 -2.20434 0
M  V30 12119 H 1178.25 7.71446 -1.11767 0
M  V30 12120 N 1182.48 0.948665 1.2585 0
M  V30 12121 C 1183.71 0.616741 1.98018 0
M  V30 12122 C 1184.13 -0.803005 1.70098 0
M  V30 12123 O 1183.49 -1.54208 0.953392 0
M  V30 12124 C 1183.54 0.874429 3.49837 0
M  V30 12125 O 1182.64 -0.0497568 4.1237 0
M  V30 12126 H 1181.98 0.235112 0.620982 0
M  V30 12127 H 1184.51 1.27364 1.60124 0
M  V30 12128 H 1184.52 0.798309 4.00114 0
M  V30 12129 H 1183.2 1.90922 3.69488 0
M  V30 12130 H 1181.77 0.0780591 3.72818 0
M  V30 12131 N 1183.96 -1.40369 0.716545 0
M  V30 12132 C 1185.19 -2.05181 0.266143 0
M  V30 12133 C 1185.6 -1.53988 -1.09239 0
M  V30 12134 O 1184.96 -0.696859 -1.68672 0
M  V30 12135 C 1185.01 -3.60713 0.238384 0
M  V30 12136 O 1184.73 -4.10018 1.54328 0
M  V30 12137 C 1186.23 -4.42701 -0.230453 0
M  V30 12138 H 1183.45 -0.66028 0.119463 0
M  V30 12139 H 1186 -1.7976 0.97502 0
M  V30 12140 H 1184.15 -3.85101 -0.421466 0
M  V30 12141 H 1184.56 -5.0422 1.4444 0
M  V30 12142 H 1186.04 -5.51642 -0.198728 0
M  V30 12143 H 1186.52 -4.20354 -1.27276 0
M  V30 12144 H 1187.12 -4.23423 0.399155 0
M  V30 12145 N 1185.44 -0.462799 -1.50652 0
M  V30 12146 C 1186.69 0.0966838 -2.01468 0
M  V30 12147 C 1187 1.41529 -1.35014 0
M  V30 12148 O 1188.2 2.05923 -1.76941 0
M  V30 12149 C 1186.66 0.222826 -3.5921 0
M  V30 12150 C 1186.27 -1.08686 -4.34616 0
M  V30 12151 C 1188.01 0.734711 -4.18094 0
M  V30 12152 C 1185.92 -0.924964 -5.84122 0
M  V30 12153 H 1184.85 0.0399078 -0.752943 0
M  V30 12154 H 1187.5 -0.596437 -1.73536 0
M  V30 12155 H 1185.88 0.979539 -3.83694 0
M  V30 12156 H 1187.06 -1.85388 -4.21862 0
M  V30 12157 H 1185.37 -1.52922 -3.87303 0
M  V30 12158 H 1187.97 0.872734 -5.2753 0
M  V30 12159 H 1188.31 1.72389 -3.7893 0
M  V30 12160 H 1188.84 0.0356139 -3.97784 0
M  V30 12161 H 1185.58 -1.88727 -6.27744 0
M  V30 12162 H 1185.1 -0.198181 -5.99473 0
M  V30 12163 H 1186.78 -0.588262 -6.4432 0
M  V30 12164 N 1186.91 1.56388 -0.195085 0
M  V30 12165 C 1188.33 1.58788 0.160758 0
M  V30 12166 C 1188.53 1.21125 1.61031 0
M  V30 12167 O 1187.59 0.933994 2.34591 0
M  V30 12168 C 1188.9 3.00366 -0.141588 0
M  V30 12169 C 1190.45 3.12893 -0.0816947 0
M  V30 12170 C 1190.92 4.56604 -0.35735 0
M  V30 12171 N 1192.41 4.62188 -0.305968 0
M  V30 12172 C 1193.15 5.71276 -0.493108 0
M  V30 12173 N 1192.64 6.8883 -0.740595 0
M  V30 12174 N 1194.44 5.60473 -0.427365 0
M  V30 12175 H 1186.59 1.79151 -1.14099 0
M  V30 12176 H 1188.85 0.831446 -0.455413 0
M  V30 12177 H 1188.56 3.32483 -1.14666 0
M  V30 12178 H 1188.43 3.73082 0.555834 0
M  V30 12179 H 1190.82 2.80589 0.913978 0
M  V30 12180 H 1190.9 2.42564 -0.812193 0
M  V30 12181 H 1190.54 4.8962 -1.35034 0
M  V30 12182 H 1190.47 5.25124 0.394036 0
M  V30 12183 H 1192.96 3.77705 -0.121298 0
M  V30 12184 H 1193.28 7.67862 -0.872201 0
M  V30 12185 H 1191.62 6.90637 -0.777488 0
M  V30 12186 H 1194.81 4.67513 -0.234436 0
M  V30 12187 H 1194.99 6.45429 -0.576627 0
M  V30 12188 N 1188.39 -0.0785156 1.57404 0
M  V30 12189 C 1189.64 -0.777722 1.86103 0
M  V30 12190 C 1189.95 -1.79079 0.786771 0
M  V30 12191 O 1191.16 -2.53908 0.961393 0
M  V30 12192 C 1189.62 -1.43407 3.30095 0
M  V30 12193 C 1189.22 -0.459912 4.45633 0
M  V30 12194 C 1190.97 -2.11603 3.68 0
M  V30 12195 C 1188.88 -1.12179 5.80663 0
M  V30 12196 H 1187.81 -0.294205 0.694233 0
M  V30 12197 H 1190.46 -0.0309003 1.83474 0
M  V30 12198 H 1188.84 -2.22892 3.27315 0
M  V30 12199 H 1190.01 0.304642 4.59792 0
M  V30 12200 H 1188.33 0.117242 4.16235 0
M  V30 12201 H 1190.92 -2.61887 4.66175 0
M  V30 12202 H 1191.27 -2.91244 2.9746 0
M  V30 12203 H 1191.8 -1.38958 3.72741 0
M  V30 12204 H 1188.54 -0.365842 6.54478 0
M  V30 12205 H 1188.06 -1.85737 5.70317 0
M  V30 12206 H 1189.74 -1.64355 6.25777 0
M  V30 12207 N 1189.87 -1.5367 -0.349747 0
M  V30 12208 C 1191.1 -1.74294 -1.10928 0
M  V30 12209 C 1191.51 -0.479102 -1.83033 0
M  V30 12210 O 1190.85 0.558621 -1.75 0
M  V30 12211 C 1190.91 -2.86457 -2.17216 0
M  V30 12212 C 1190.58 -4.26274 -1.6474 0
M  V30 12213 C 1191.57 -5.08065 -1.10302 0
M  V30 12214 C 1189.26 -4.72739 -1.69774 0
M  V30 12215 C 1191.25 -6.34417 -0.615938 0
M  V30 12216 C 1188.94 -5.99066 -1.20678 0
M  V30 12217 C 1189.94 -6.79737 -0.6668 0
M  V30 12218 O 1189.63 -8.03691 -0.183143 0
M  V30 12219 H 1189.36 -0.586046 -0.336937 0
M  V30 12220 H 1191.91 -2.01274 -0.409645 0
M  V30 12221 H 1190.14 -2.54988 -2.9072 0
M  V30 12222 H 1191.83 -2.95109 -2.78686 0
M  V30 12223 H 1192.6 -4.73333 -1.05739 0
M  V30 12224 H 1188.48 -4.1001 -2.10744 0
M  V30 12225 H 1192.02 -6.97331 -0.193795 0
M  V30 12226 H 1187.92 -6.33293 -1.24939 0
M  V30 12227 H 1188.69 -8.17946 -0.301008 0
M  V30 12228 N 1191.35 0.610423 -1.45298 0
M  V30 12229 C 1192.6 1.36951 -1.49167 0
M  V30 12230 C 1192.92 1.9405 -0.132292 0
M  V30 12231 O 1192.18 1.75363 0.868686 0
M  V30 12232 C 1192.48 2.53812 -2.51623 0
M  V30 12233 C 1192.14 2.14877 -3.96407 0
M  V30 12234 C 1190.81 2.03972 -4.35831 0
M  V30 12235 C 1193.16 1.84448 -4.87472 0
M  V30 12236 C 1190.49 1.60856 -5.64218 0
M  V30 12237 C 1192.84 1.42818 -6.16268 0
M  V30 12238 C 1191.5 1.3047 -6.54625 0
M  V30 12239 H 1190.77 0.501138 -0.54584 0
M  V30 12240 H 1193.42 0.690221 -1.78629 0
M  V30 12241 H 1191.72 3.27066 -2.1572 0
M  V30 12242 H 1193.42 3.12041 -2.51856 0
M  V30 12243 H 1190.01 2.2429 -3.65229 0
M  V30 12244 H 1194.19 1.91771 -4.57753 0
M  V30 12245 H 1189.45 1.49916 -5.92735 0
M  V30 12246 H 1193.62 1.18318 -6.86275 0
M  V30 12247 H 1191.25 0.968347 -7.54007 0
M  V30 12248 N 1192.83 1.32541 0.852676 0
M  V30 12249 C 1193.77 1.21643 1.96142 0
M  V30 12250 C 1194.74 0.0981496 1.6581 0
M  V30 12251 O 1195.93 0.27404 1.88822 0
M  V30 12252 C 1193.07 0.947483 3.31838 0
M  V30 12253 C 1192.18 2.15074 3.74656 0
M  V30 12254 C 1191.32 1.81711 4.99154 0
M  V30 12255 C 1190.36 2.98346 5.34468 0
M  V30 12256 N 1189.49 2.65062 6.50143 0
M  V30 12257 H 1194.33 2.16479 2.04795 0
M  V30 12258 H 1191.87 1.07664 1.00234 0
M  V30 12259 H 1193.83 0.772038 4.09994 0
M  V30 12260 H 1192.46 0.0359112 3.2278 0
M  V30 12261 H 1191.51 2.43639 2.92137 0
M  V30 12262 H 1192.82 3.02314 3.96747 0
M  V30 12263 H 1191.98 1.60729 5.85022 0
M  V30 12264 H 1190.71 0.916875 4.79004 0
M  V30 12265 H 1189.72 3.19956 4.47111 0
M  V30 12266 H 1190.94 3.89104 5.56574 0
M  V30 12267 H 1188.89 1.77582 6.31507 0
M  V30 12268 H 1188.81 3.45832 6.72262 0
M  V30 12269 H 1190.08 2.47516 7.39159 0
M  V30 12270 N 1194.3 -1.0692 1.15784 0
M  V30 12271 C 1195.72 -1.61069 0.944123 0
M  V30 12272 C 1196.07 -1.8936 -0.513522 0
M  V30 12273 O 1195.19 -1.66232 -1.38549 0
M  V30 12274 C 1195.79 -2.9263 1.70743 0
M  V30 12275 C 1194.35 -3.43505 1.53887 0
M  V30 12276 C 1193.49 -2.17495 1.72021 0
M  V30 12277 H 1196.44 -0.89951 1.30746 0
M  V30 12278 H 1196.46 -3.61757 1.17951 0
M  V30 12279 H 1195.98 -2.72007 2.76828 0
M  V30 12280 H 1194.08 -3.69201 0.502153 0
M  V30 12281 H 1194.19 -4.19254 2.31868 0
M  V30 12282 H 1192.55 -2.27407 1.1471 0
M  V30 12283 H 1193.34 -1.99362 2.79481 0
M  V30 12284 N 1195.78 -0.955326 -1.25345 0
M  V30 12285 C 1196.73 -0.474888 -2.25862 0
M  V30 12286 C 1197.7 0.472996 -1.59223 0
M  V30 12287 O 1198.88 0.386094 -1.86853 0
M  V30 12288 C 1196.02 0.240554 -3.44261 0
M  V30 12289 C 1195.14 -0.74465 -4.25534 0
M  V30 12290 C 1194.27 -0.00657513 -5.312 0
M  V30 12291 C 1193.31 -0.982666 -6.04161 0
M  V30 12292 N 1192.45 -0.275418 -7.0156 0
M  V30 12293 H 1197.29 -1.33693 -2.66327 0
M  V30 12294 H 1194.83 -0.670439 -1.30933 0
M  V30 12295 H 1196.78 0.671933 -4.11753 0
M  V30 12296 H 1195.41 1.06664 -3.04668 0
M  V30 12297 H 1194.47 -1.29451 -3.57696 0
M  V30 12298 H 1195.78 -1.48948 -4.76042 0
M  V30 12299 H 1194.93 0.483404 -6.04771 0
M  V30 12300 H 1193.67 0.771035 -4.81567 0
M  V30 12301 H 1192.68 -1.48364 -5.29404 0
M  V30 12302 H 1193.9 -1.76052 -6.55883 0
M  V30 12303 H 1191.85 0.483441 -6.54216 0
M  V30 12304 H 1191.76 -0.959324 -7.49889 0
M  V30 12305 H 1193.03 0.193002 -7.79261 0
M  V30 12306 N 1197.26 1.39987 -0.723979 0
M  V30 12307 C 1198.21 2.27938 -0.0531058 0
M  V30 12308 C 1199.2 1.43693 0.723965 0
M  V30 12309 O 1200.39 1.66707 0.594785 0
M  V30 12310 C 1197.52 3.32311 0.861659 0
M  V30 12311 C 1196.6 4.24026 0.079327 0
M  V30 12312 N 1196.99 4.96954 -0.941805 0
M  V30 12313 C 1195.29 4.44917 0.310637 0
M  V30 12314 C 1195.99 5.64287 -1.41261 0
M  V30 12315 N 1194.97 5.38632 -0.733217 0
M  V30 12316 H 1198.77 2.81771 -0.835608 0
M  V30 12317 H 1196.28 1.52538 -0.557315 0
M  V30 12318 H 1198.28 3.94174 1.35766 0
M  V30 12319 H 1196.94 2.80038 1.64344 0
M  V30 12320 H 1197.95 5.0072 -1.32288 0
M  V30 12321 H 1194.63 4.03606 1.06809 0
M  V30 12322 H 1196.02 6.32695 -2.26155 0
M  V30 12323 N 1198.74 0.470782 1.50404 0
M  V30 12324 C 1199.99 -0.0844409 2.02624 0
M  V30 12325 C 1200.32 -1.39398 1.3521 0
M  V30 12326 O 1199.59 -1.88542 0.477707 0
M  V30 12327 C 1199.88 -0.268563 3.59097 0
M  V30 12328 C 1199.73 1.06198 4.37084 0
M  V30 12329 C 1201.05 -1.02324 4.28039 0
M  V30 12330 H 1198.17 -0.0292141 0.736421 0
M  V30 12331 H 1200.81 0.616312 1.79726 0
M  V30 12332 H 1198.96 -0.865441 3.78738 0
M  V30 12333 H 1200.63 1.69541 4.29015 0
M  V30 12334 H 1198.87 1.65868 4.00837 0
M  V30 12335 H 1199.55 0.886795 5.4483 0
M  V30 12336 H 1202.02 -0.517325 4.12872 0
M  V30 12337 H 1200.9 -1.12087 5.37334 0
M  V30 12338 H 1201.16 -2.05974 3.91187 0
M  V30 12339 N 1200.22 -1.56282 0.203376 0
M  V30 12340 C 1201.16 -2.19473 -0.714164 0
M  V30 12341 C 1202.13 -1.14454 -1.20372 0
M  V30 12342 O 1203.32 -1.42739 -1.26611 0
M  V30 12343 C 1200.46 -2.86451 -1.92457 0
M  V30 12344 C 1199.57 -4.06017 -1.47561 0
M  V30 12345 C 1198.71 -4.60829 -2.64216 0
M  V30 12346 C 1197.75 -5.72734 -2.15967 0
M  V30 12347 N 1196.88 -6.21916 -3.25829 0
M  V30 12348 H 1201.72 -2.97523 -0.168558 0
M  V30 12349 H 1199.26 -1.46926 -0.0714525 0
M  V30 12350 H 1201.22 -3.23459 -2.63496 0
M  V30 12351 H 1199.85 -2.10951 -2.44335 0
M  V30 12352 H 1198.9 -3.74617 -0.660784 0
M  V30 12353 H 1200.21 -4.8693 -1.08168 0
M  V30 12354 H 1199.37 -5.00185 -3.43366 0
M  V30 12355 H 1198.11 -3.7904 -3.06887 0
M  V30 12356 H 1197.11 -5.32899 -1.35273 0
M  V30 12357 H 1198.34 -6.56346 -1.74316 0
M  V30 12358 H 1196.28 -5.43047 -3.68016 0
M  V30 12359 H 1196.2 -6.97904 -2.90631 0
M  V30 12360 H 1197.47 -6.65927 -4.05168 0
M  V30 12361 N 1201.7 0.070167 -1.57444 0
M  V30 12362 C 1202.66 1.06761 -2.02817 0
M  V30 12363 C 1203.66 1.31498 -0.925462 0
M  V30 12364 O 1204.85 1.27192 -1.19029 0
M  V30 12365 C 1201.98 2.41086 -2.41019 0
M  V30 12366 H 1203.17 0.67651 -2.9217 0
M  V30 12367 H 1200.73 0.315936 -1.53074 0
M  V30 12368 H 1201.46 2.85025 -1.54697 0
M  V30 12369 H 1201.25 2.24472 -3.21488 0
M  V30 12370 H 1202.74 3.12778 -2.76694 0
M  V30 12371 N 1203.17 1.53854 0.341593 0
M  V30 12372 C 1204.42 1.72388 1.07954 0
M  V30 12373 C 1204.77 0.482184 1.8626 0
M  V30 12374 O 1204.07 -0.525232 1.8426 0
M  V30 12375 C 1204.26 2.92844 2.04884 0
M  V30 12376 C 1204.09 4.28609 1.36105 0
M  V30 12377 C 1202.86 4.93068 1.10508 0
M  V30 12378 C 1205.06 5.08254 0.786255 0
M  V30 12379 N 1203.04 6.12702 0.383319 0
M  V30 12380 C 1204.41 6.19693 0.195147 0
M  V30 12381 C 1206.47 4.93134 0.687293 0
M  V30 12382 C 1205.17 7.17661 -0.485298 0
M  V30 12383 C 1207.2 5.91396 0.0205841 0
M  V30 12384 C 1206.56 7.02174 -0.559545 0
M  V30 12385 H 1202.66 0.683826 0.37935 0
M  V30 12386 H 1205.24 1.91288 0.36289 0
M  V30 12387 H 1203.41 2.7544 2.73838 0
M  V30 12388 H 1205.14 3.00088 2.71531 0
M  V30 12389 H 1201.9 4.52659 1.39271 0
M  V30 12390 H 1202.32 6.7699 0.0371033 0
M  V30 12391 H 1206.96 4.07653 1.12155 0
M  V30 12392 H 1204.68 8.02714 -0.931438 0
M  V30 12393 H 1208.27 5.81774 -0.0553832 0
M  V30 12394 H 1207.15 7.76904 -1.06726 0
M  V30 12395 N 1204.65 -0.602709 1.4562 0
M  V30 12396 C 1205.9 -1.35769 1.49163 0
M  V30 12397 C 1206.21 -1.95102 0.139485 0
M  V30 12398 O 1207.42 -2.71449 0.0525919 0
M  V30 12399 C 1205.88 -2.45959 2.62739 0
M  V30 12400 C 1205.48 -1.93017 4.04288 0
M  V30 12401 C 1207.23 -3.22926 2.75534 0
M  V30 12402 C 1205.13 -3.00718 5.09237 0
M  V30 12403 H 1204.06 -0.510317 0.555061 0
M  V30 12404 H 1206.72 -0.645434 1.71774 0
M  V30 12405 H 1205.1 -3.19892 2.3342 0
M  V30 12406 H 1206.27 -1.2576 4.43307 0
M  V30 12407 H 1204.59 -1.2878 3.95986 0
M  V30 12408 H 1207.18 -4.03267 3.51112 0
M  V30 12409 H 1207.53 -3.74243 1.82339 0
M  V30 12410 H 1208.06 -2.56095 3.04402 0
M  V30 12411 H 1204.8 -2.54312 6.04157 0
M  V30 12412 H 1204.32 -3.66526 4.74783 0
M  V30 12413 H 1206 -3.65016 5.34202 0
M  V30 12414 N 1206.13 -1.32992 -0.845635 0
M  V30 12415 C 1207.54 -1.21616 -1.41656 0
M  V30 12416 C 1207.89 0.167687 -1.95482 0
M  V30 12417 O 1207.02 1.06692 -1.8827 0
M  V30 12418 C 1207.61 -2.2018 -2.575 0
M  V30 12419 C 1206.17 -2.12664 -3.10565 0
M  V30 12420 C 1205.32 -2.08042 -1.83341 0
M  V30 12421 H 1208.27 -1.44688 -0.651993 0
M  V30 12422 H 1208.29 -1.80558 -3.34931 0
M  V30 12423 H 1207.8 -3.20888 -2.18294 0
M  V30 12424 H 1205.9 -1.15235 -3.54333 0
M  V30 12425 H 1206.02 -3.02902 -3.71197 0
M  V30 12426 H 1204.38 -1.53416 -2.03312 0
M  V30 12427 H 1205.16 -3.10547 -1.46339 0
M  V30 12428 N 1207.61 1.06304 -1.1635 0
M  V30 12429 C 1209.02 1.31227 -0.90838 0
M  V30 12430 C 1209.22 1.96665 0.438779 0
M  V30 12431 O 1208.28 2.2332 1.17833 0
M  V30 12432 C 1209.59 2.19303 -2.05734 0
M  V30 12433 C 1211.14 2.3272 -2.09309 0
M  V30 12434 C 1211.62 3.24151 -3.23559 0
M  V30 12435 N 1213.11 3.31734 -3.23275 0
M  V30 12436 C 1213.84 4.02572 -4.08318 0
M  V30 12437 N 1213.34 4.75933 -5.03448 0
M  V30 12438 N 1215.13 3.98621 -3.96305 0
M  V30 12439 H 1207.28 0.622228 -2.03081 0
M  V30 12440 H 1209.54 0.336892 -0.886119 0
M  V30 12441 H 1209.25 1.78497 -3.03037 0
M  V30 12442 H 1209.12 3.19888 -1.99879 0
M  V30 12443 H 1211.51 2.72774 -1.12599 0
M  V30 12444 H 1211.59 1.31804 -2.19229 0
M  V30 12445 H 1211.24 2.84813 -4.20528 0
M  V30 12446 H 1211.17 4.25046 -3.10875 0
M  V30 12447 H 1213.66 2.79453 -2.5439 0
M  V30 12448 H 1213.97 5.27512 -5.64758 0
M  V30 12449 H 1212.32 4.74913 -5.07427 0
M  V30 12450 H 1215.51 3.40427 -3.21289 0
M  V30 12451 H 1215.68 4.5356 -4.62804 0
M  V30 12452 N 1209.09 0.96196 1.24836 0
M  V30 12453 C 1210.5 0.660388 1.7463 0
M  V30 12454 C 1210.85 -0.824064 1.78055 0
M  V30 12455 O 1209.97 -1.64485 1.40619 0
M  V30 12456 C 1210.57 1.19205 3.17137 0
M  V30 12457 C 1209.13 0.940493 3.64461 0
M  V30 12458 C 1208.27 1.33076 2.43282 0
M  V30 12459 H 1211.22 1.13794 1.1062 0
M  V30 12460 H 1211.25 0.555595 3.76422 0
M  V30 12461 H 1210.76 2.27247 3.14612 0
M  V30 12462 H 1208.86 -0.124645 3.72391 0
M  V30 12463 H 1208.97 1.5821 4.52224 0
M  V30 12464 H 1207.34 0.749139 2.43434 0
M  V30 12465 H 1208.12 2.42055 2.43442 0
M  V30 12466 N 1210.56 -1.39601 0.731392 0
M  V30 12467 C 1211.97 -1.83424 0.348194 0
M  V30 12468 C 1212.33 -1.61106 -1.11979 0
M  V30 12469 O 1211.45 -1.1003 -1.86339 0
M  V30 12470 C 1212.05 -3.32982 0.6252 0
M  V30 12471 C 1210.6 -3.75238 0.295536 0
M  V30 12472 C 1209.75 -2.62642 0.88964 0
M  V30 12473 H 1212.7 -1.28644 0.929318 0
M  V30 12474 H 1212.72 -3.80357 -0.104254 0
M  V30 12475 H 1212.24 -3.49193 1.69368 0
M  V30 12476 H 1210.34 -3.64615 -0.767254 0
M  V30 12477 H 1210.45 -4.72781 0.775576 0
M  V30 12478 H 1208.81 -2.52726 0.316529 0
M  V30 12479 H 1209.6 -2.81661 1.96271 0
M  V30 12480 N 1212.04 -0.478751 -1.50152 0
M  V30 12481 C 1213.46 -0.133356 -1.59042 0
M  V30 12482 C 1213.66 1.36069 -1.48618 0
M  V30 12483 O 1212.71 2.13468 -1.34862 0
M  V30 12484 C 1214.03 -0.690369 -2.92668 0
M  V30 12485 C 1215.58 -0.654481 -3.06081 0
M  V30 12486 C 1216.05 -1.18917 -4.42293 0
M  V30 12487 N 1217.54 -1.14891 -4.48725 0
M  V30 12488 C 1218.28 -1.53305 -5.52526 0
M  V30 12489 N 1217.77 -1.99205 -6.63543 0
M  V30 12490 N 1219.57 -1.4486 -5.43113 0
M  V30 12491 H 1211.72 -1.45037 -1.55171 0
M  V30 12492 H 1213.98 -0.600254 -0.733757 0
M  V30 12493 H 1213.69 -1.7373 -3.05795 0
M  V30 12494 H 1213.56 -0.138227 -3.76947 0
M  V30 12495 H 1215.95 0.383564 -2.92597 0
M  V30 12496 H 1216.03 -1.24352 -2.2354 0
M  V30 12497 H 1215.67 -2.22588 -4.56527 0
M  V30 12498 H 1215.6 -0.57628 -5.23437 0
M  V30 12499 H 1218.09 -0.812344 -3.69066 0
M  V30 12500 H 1218.41 -2.26645 -7.38818 0
M  V30 12501 H 1216.75 -2.03164 -6.64642 0
M  V30 12502 H 1219.94 -1.08836 -4.55272 0
M  V30 12503 H 1220.11 -1.75123 -6.23888 0
M  V30 12504 N 1213.52 1.56172 -0.211661 0
M  V30 12505 C 1214.45 2.22843 0.697375 0
M  V30 12506 C 1215.43 1.19689 1.20866 0
M  V30 12507 O 1216.62 1.48245 1.25447 0
M  V30 12508 C 1213.75 2.90067 1.90993 0
M  V30 12509 C 1212.7 3.99608 1.5329 0
M  V30 12510 C 1212.03 4.54078 2.82343 0
M  V30 12511 C 1213.33 5.17169 0.730333 0
M  V30 12512 H 1215.02 2.99065 0.141533 0
M  V30 12513 H 1212.57 1.43846 0.0666337 0
M  V30 12514 H 1214.52 3.35396 2.55123 0
M  V30 12515 H 1213.24 2.11276 2.49058 0
M  V30 12516 H 1211.9 3.54995 0.915115 0
M  V30 12517 H 1211.55 3.72029 3.38531 0
M  V30 12518 H 1211.25 5.28001 2.57853 0
M  V30 12519 H 1212.77 5.02119 3.47432 0
M  V30 12520 H 1214.19 5.5894 1.2751 0
M  V30 12521 H 1212.59 5.97262 0.582916 0
M  V30 12522 H 1213.66 4.84174 -0.265157 0
M  V30 12523 N 1215 -0.0618163 1.57479 0
M  V30 12524 C 1216.24 -0.764296 1.89573 0
M  V30 12525 C 1216.6 -1.74235 0.806605 0
M  V30 12526 O 1217.8 -2.49067 1.0109 0
M  V30 12527 C 1216.07 -1.44503 3.26885 0
M  V30 12528 S 1217.63 -2.1812 3.80748 0
M  V30 12529 H 1214.45 -0.253946 0.664103 0
M  V30 12530 H 1217.05 -0.0200064 1.9549 0
M  V30 12531 H 1215.76 -0.719525 4.04043 0
M  V30 12532 H 1215.29 -2.22855 3.2419 0
M  V30 12533 H 1217.3 -3.44793 3.56837 0
M  V30 12534 N 1216.48 -1.54033 -0.333429 0
M  V30 12535 C 1217.41 -1.79056 -1.43079 0
M  V30 12536 C 1218.42 -0.672176 -1.48276 0
M  V30 12537 O 1219.61 -0.949103 -1.51176 0
M  V30 12538 C 1216.71 -1.88443 -2.81678 0
M  V30 12539 C 1215.88 -3.18493 -2.99802 0
M  V30 12540 C 1214.94 -3.18708 -4.18702 0
M  V30 12541 O 1213.97 -3.92389 -4.12334 0
M  V30 12542 N 1215.17 -2.41792 -5.27747 0
M  V30 12543 H 1217.94 -2.73753 -1.21981 0
M  V30 12544 H 1215.5 -1.53207 -0.523365 0
M  V30 12545 H 1217.49 -1.86027 -3.59411 0
M  V30 12546 H 1216.06 -1.00887 -2.95872 0
M  V30 12547 H 1215.28 -3.33951 -2.09453 0
M  V30 12548 H 1216.57 -4.04376 -3.088 0
M  V30 12549 H 1215.96 -1.81501 -5.35793 0
M  V30 12550 H 1214.52 -2.45163 -6.03936 0
M  V30 12551 N 1217.95 0.594978 -1.45938 0
M  V30 12552 C 1219.18 1.37794 -1.53936 0
M  V30 12553 C 1219.59 1.88388 -0.175091 0
M  V30 12554 O 1218.94 1.63587 0.835757 0
M  V30 12555 C 1219 2.60906 -2.47322 0
M  V30 12556 C 1218.66 2.31865 -3.93812 0
M  V30 12557 C 1219.66 1.91451 -4.83366 0
M  V30 12558 C 1217.34 2.44387 -4.3884 0
M  V30 12559 C 1219.34 1.63938 -6.15957 0
M  V30 12560 C 1217.02 2.16487 -5.71469 0
M  V30 12561 C 1218.02 1.76326 -6.59847 0
M  V30 12562 O 1217.71 1.4876 -7.90016 0
M  V30 12563 H 1217.44 0.42775 -0.523456 0
M  V30 12564 H 1220 0.731487 -1.91933 0
M  V30 12565 H 1218.23 3.28315 -2.04319 0
M  V30 12566 H 1219.92 3.22964 -2.45863 0
M  V30 12567 H 1220.68 1.81301 -4.49839 0
M  V30 12568 H 1216.56 2.74612 -3.70283 0
M  V30 12569 H 1220.1 1.32516 -6.84898 0
M  V30 12570 H 1216 2.26257 -6.04548 0
M  V30 12571 H 1216.77 1.62708 -8.02165 0
M  V30 12572 N 1219.43 1.33438 0.838571 0
M  V30 12573 C 1220.34 1.25753 1.98049 0
M  V30 12574 C 1221.36 0.168051 1.73187 0
M  V30 12575 O 1222.53 0.391691 1.97554 0
M  V30 12576 C 1219.6 0.997148 3.32051 0
M  V30 12577 C 1218.66 2.17667 3.70027 0
M  V30 12578 C 1217.89 1.92861 4.97635 0
M  V30 12579 O 1218.12 0.879072 5.63585 0
M  V30 12580 O 1217.05 2.79402 5.33121 0
M  V30 12581 H 1220.88 2.21786 2.07472 0
M  V30 12582 H 1218.46 1.13488 0.971645 0
M  V30 12583 H 1220.34 0.869099 4.1234 0
M  V30 12584 H 1219.02 0.0671036 3.2363 0
M  V30 12585 H 1217.93 2.36025 2.90246 0
M  V30 12586 H 1219.26 3.09006 3.83114 0
M  V30 12587 N 1220.91 -1.05686 1.16912 0
M  V30 12588 C 1221.86 -2.13312 0.88129 0
M  V30 12589 C 1222.83 -1.65199 -0.172783 0
M  V30 12590 O 1224.01 -1.90765 -0.0366542 0
M  V30 12591 C 1221.15 -3.42829 0.395264 0
M  V30 12592 C 1220.27 -4.04643 1.51288 0
M  V30 12593 C 1219.4 -5.22059 0.981238 0
M  V30 12594 C 1218.44 -5.75869 2.07464 0
M  V30 12595 N 1217.58 -6.84592 1.55813 0
M  V30 12596 H 1222.42 -2.37271 1.80295 0
M  V30 12597 H 1219.95 -1.16407 0.899322 0
M  V30 12598 H 1221.91 -4.17092 0.0950633 0
M  V30 12599 H 1220.54 -3.19068 -0.489445 0
M  V30 12600 H 1219.59 -3.27867 1.92891 0
M  V30 12601 H 1220.91 -4.40626 2.33774 0
M  V30 12602 H 1220.06 -6.03372 0.634586 0
M  V30 12603 H 1218.8 -4.87538 0.125754 0
M  V30 12604 H 1217.8 -4.93188 2.42992 0
M  V30 12605 H 1219.03 -6.12439 2.93419 0
M  V30 12606 H 1216.97 -6.51978 0.725283 0
M  V30 12607 H 1216.89 -7.19551 2.31911 0
M  V30 12608 H 1218.16 -7.6957 1.24025 0
M  V30 12609 N 1222.39 -0.968567 -1.24324 0
M  V30 12610 C 1223.35 -0.504307 -2.23583 0
M  V30 12611 C 1224.35 0.399626 -1.55755 0
M  V30 12612 O 1225.54 0.194966 -1.73106 0
M  V30 12613 C 1222.67 0.26956 -3.39833 0
M  V30 12614 H 1223.87 -1.3818 -2.6617 0
M  V30 12615 H 1221.42 -0.753241 -1.36952 0
M  V30 12616 H 1222.15 1.16411 -3.02686 0
M  V30 12617 H 1221.94 -0.379133 -3.90263 0
M  V30 12618 H 1223.43 0.583376 -4.13505 0
M  V30 12619 N 1223.87 1.39211 -0.738786 0
M  V30 12620 C 1224.81 2.30578 -0.10129 0
M  V30 12621 C 1225.78 1.49412 0.725616 0
M  V30 12622 O 1226.97 1.78087 0.684799 0
M  V30 12623 C 1224.11 3.35767 0.797161 0
M  V30 12624 C 1223.22 4.31979 -0.0427701 0
M  V30 12625 C 1222.36 5.24236 0.857306 0
M  V30 12626 C 1221.4 6.12099 0.0128501 0
M  V30 12627 N 1220.53 6.96701 0.869067 0
M  V30 12628 H 1225.37 2.84522 -0.88606 0
M  V30 12629 H 1222.91 1.40093 -0.448602 0
M  V30 12630 H 1224.87 3.95347 1.33255 0
M  V30 12631 H 1223.5 2.83268 1.54787 0
M  V30 12632 H 1222.55 3.73986 -0.695622 0
M  V30 12633 H 1223.86 4.93927 -0.69555 0
M  V30 12634 H 1223.02 5.88861 1.4604 0
M  V30 12635 H 1221.75 4.62619 1.54386 0
M  V30 12636 H 1220.76 5.46483 -0.603018 0
M  V30 12637 H 1221.98 6.75781 -0.67054 0
M  V30 12638 H 1219.93 6.37647 1.54084 0
M  V30 12639 H 1219.85 7.55507 0.272852 0
M  V30 12640 H 1221.12 7.65751 1.4576 0
M  V30 12641 N 1225.34 0.486708 1.49896 0
M  V30 12642 C 1226.29 -0.313156 2.30482 0
M  V30 12643 C 1227.29 -0.976043 1.38455 0
M  V30 12644 O 1228.49 -0.905364 1.55574 0
M  V30 12645 H 1224.87 -0.119839 0.74239 0
M  V30 12646 H 1226.84 0.386701 2.95884 0
M  V30 12647 C 1225.59 -1.37334 3.19429 0
M  V30 12648 H 1224.91 -0.87265 3.9016 0
M  V30 12649 H 1226.35 -1.90526 3.78782 0
M  V30 12650 C 1224.81 -2.38378 2.38071 0
M  V30 12651 O 1225.34 -3.43972 2.07476 0
M  V30 12652 N 1223.55 -2.10486 2.00359 0
M  V30 12653 H 1223.09 -1.24638 2.2544 0
M  V30 12654 H 1223.05 -2.78324 1.46229 0
M  V30 12655 N 1226.82 -1.56058 0.219941 0
M  V30 12656 C 1228.07 -1.98554 -0.412808 0
M  V30 12657 C 1228.4 -1.10742 -1.5953 0
M  V30 12658 O 1227.68 -0.164757 -1.93801 0
M  V30 12659 C 1227.96 -3.4995 -0.848923 0
M  V30 12660 C 1227.81 -4.48535 0.337094 0
M  V30 12661 C 1229.13 -4.05703 -1.70567 0
M  V30 12662 H 1226.25 -0.721869 -0.148576 0
M  V30 12663 H 1228.89 -1.87356 0.315852 0
M  V30 12664 H 1227.04 -3.59624 -1.46979 0
M  V30 12665 H 1228.72 -4.50874 0.975216 0
M  V30 12666 H 1226.96 -4.22474 0.984798 0
M  V30 12667 H 1227.63 -5.51999 -0.0109665 0
M  V30 12668 H 1230.11 -3.98964 -1.18182 0
M  V30 12669 H 1228.98 -5.11955 -1.97972 0
M  V30 12670 H 1229.24 -3.52487 -2.66844 0
M  V30 12671 N 1228.3 0.053464 -1.57509 0
M  V30 12672 C 1229.25 1.08014 -2.05999 0
M  V30 12673 C 1230.24 1.38958 -0.968862 0
M  V30 12674 O 1231.45 1.3815 -1.15389 0
M  V30 12675 H 1227.82 0.36575 -0.657062 0
M  V30 12676 H 1229.8 0.645169 -2.91342 0
M  V30 12677 C 1228.54 2.38004 -2.53475 0
M  V30 12678 H 1227.87 2.15048 -3.37038 0
M  V30 12679 H 1229.31 3.08244 -2.91138 0
M  V30 12680 C 1227.77 3.05259 -1.42543 0
M  V30 12681 O 1228.3 3.94097 -0.777832 0
M  V30 12682 N 1226.5 2.66182 -1.16599 0
M  V30 12683 H 1226.05 1.94027 -1.69444 0
M  V30 12684 H 1226.01 3.11503 -0.42585 0
M  V30 12685 N 1229.78 1.54207 0.325255 0
M  V30 12686 C 1231.03 1.72331 1.0634 0
M  V30 12687 C 1231.35 0.496115 1.88066 0
M  V30 12688 O 1230.61 -0.52214 1.88606 0
M  V30 12689 C 1230.91 2.95 2.01766 0
M  V30 12690 C 1230.57 4.29835 1.36208 0
M  V30 12691 C 1229.24 4.66493 1.18059 0
M  V30 12692 C 1231.59 5.13521 0.891404 0
M  V30 12693 C 1228.92 5.84436 0.514894 0
M  V30 12694 C 1231.27 6.32146 0.239534 0
M  V30 12695 C 1229.93 6.67484 0.0458839 0
M  V30 12696 H 1229.2 0.630605 0.389125 0
M  V30 12697 H 1231.85 1.88445 0.34072 0
M  V30 12698 H 1230.15 2.73567 2.80479 0
M  V30 12699 H 1231.85 3.06217 2.58906 0
M  V30 12700 H 1228.44 4.00993 1.51335 0
M  V30 12701 H 1232.63 4.85718 1.01941 0
M  V30 12702 H 1227.88 6.10376 0.353644 0
M  V30 12703 H 1232.06 6.96273 -0.133185 0
M  V30 12704 H 1229.68 7.58733 -0.471978 0
M  V30 12705 N 1231.26 -0.58723 1.46251 0
M  V30 12706 C 1232.19 -1.71103 1.52501 0
M  V30 12707 C 1233.2 -1.57454 0.413772 0
M  V30 12708 O 1234.39 -1.64962 0.681902 0
M  V30 12709 C 1231.49 -3.0931 1.38493 0
M  V30 12710 C 1230.66 -3.49005 2.63655 0
M  V30 12711 C 1229.72 -4.66255 2.43911 0
M  V30 12712 O 1228.75 -4.72344 3.17616 0
M  V30 12713 N 1229.95 -5.60843 1.49784 0
M  V30 12714 H 1232.72 -1.66198 2.49396 0
M  V30 12715 H 1230.28 -0.773087 1.4225 0
M  V30 12716 H 1232.27 -3.85535 1.23064 0
M  V30 12717 H 1230.84 -3.08608 0.497963 0
M  V30 12718 H 1230.06 -2.62533 2.94058 0
M  V30 12719 H 1231.35 -3.72291 3.4681 0
M  V30 12720 H 1230.75 -5.58656 0.889972 0
M  V30 12721 H 1229.3 -6.36517 1.4032 0
M  V30 12722 N 1232.74 -1.33881 -0.831482 0
M  V30 12723 C 1234.15 -1.23112 -1.40358 0
M  V30 12724 C 1234.5 0.146944 -1.95649 0
M  V30 12725 O 1233.62 1.04689 -1.89391 0
M  V30 12726 C 1234.22 -2.22899 -2.5515 0
M  V30 12727 C 1232.78 -2.15946 -3.08292 0
M  V30 12728 C 1231.92 -2.09975 -1.81124 0
M  V30 12729 H 1234.87 -1.45372 -0.63661 0
M  V30 12730 H 1234.9 -1.841 -3.32997 0
M  V30 12731 H 1234.41 -3.23186 -2.14878 0
M  V30 12732 H 1232.51 -1.18987 -3.53091 0
M  V30 12733 H 1232.62 -3.06822 -3.67964 0
M  V30 12734 H 1230.99 -1.55564 -2.01673 0
M  V30 12735 H 1231.77 -3.12082 -1.43037 0
M  V30 12736 N 1234.21 1.05064 -1.1747 0
M  V30 12737 C 1235.44 1.82299 -0.98903 0
M  V30 12738 C 1235.86 1.82441 0.457907 0
M  V30 12739 O 1235.22 1.23433 1.32793 0
M  V30 12740 C 1235.27 3.26239 -1.53624 0
M  V30 12741 O 1234.37 4.05507 -0.750857 0
M  V30 12742 H 1233.71 0.563601 -0.35107 0
M  V30 12743 H 1236.24 1.32386 -1.55997 0
M  V30 12744 H 1236.25 3.77038 -1.55906 0
M  V30 12745 H 1234.93 3.25451 -2.58949 0
M  V30 12746 H 1233.51 3.64227 -0.799548 0
M  V30 12747 N 1235.69 0.975146 1.23809 0
M  V30 12748 C 1236.94 0.639858 1.91704 0
M  V30 12749 C 1237.26 -0.828557 1.76522 0
M  V30 12750 O 1236.53 -1.59217 1.14135 0
M  V30 12751 H 1235.11 0.233667 0.709513 0
M  V30 12752 H 1237.77 1.23782 1.50545 0
M  V30 12753 H 1236.87 0.886915 2.99233 0
M  V30 12754 N 1237.17 -1.38817 0.746158 0
M  V30 12755 C 1238.42 -2.00577 0.299458 0
M  V30 12756 C 1238.75 -1.59087 -1.11378 0
M  V30 12757 O 1238.02 -0.824932 -1.7614 0
M  V30 12758 C 1238.31 -3.57713 0.413932 0
M  V30 12759 C 1238.16 -4.09189 1.86774 0
M  V30 12760 C 1239.48 -4.39659 -0.197082 0
M  V30 12761 H 1236.6 -0.728702 0.110285 0
M  V30 12762 H 1239.24 -1.64866 0.944408 0
M  V30 12763 H 1237.39 -3.88265 -0.135155 0
M  V30 12764 H 1239.06 -3.89311 2.47456 0
M  V30 12765 H 1237.3 -3.62333 2.38532 0
M  V30 12766 H 1237.98 -5.18305 1.89904 0
M  V30 12767 H 1240.45 -4.15216 0.271121 0
M  V30 12768 H 1239.33 -5.48832 -0.0867011 0
M  V30 12769 H 1239.59 -4.23028 -1.2845 0
M  V30 12770 N 1238.65 -0.49465 -1.49636 0
M  V30 12771 C 1239.88 0.0491129 -2.06842 0
M  V30 12772 C 1240.29 1.31395 -1.35576 0
M  V30 12773 O 1239.65 1.7731 -0.432135 0
M  V30 12774 C 1239.7 0.313171 -3.60141 0
M  V30 12775 O 1239.42 -0.90152 -4.28724 0
M  V30 12776 C 1240.92 0.901284 -4.34041 0
M  V30 12777 H 1238.14 -0.0176186 -0.670769 0
M  V30 12778 H 1240.68 -0.690188 -1.92501 0
M  V30 12779 H 1238.84 1.00244 -3.74206 0
M  V30 12780 H 1239.25 -0.660477 -5.20325 0
M  V30 12781 H 1240.73 1.03567 -5.42197 0
M  V30 12782 H 1241.2 1.89746 -3.96097 0
M  V30 12783 H 1241.81 0.249677 -4.24566 0
M  V30 12784 N 1240.13 1.55939 -0.228214 0
M  V30 12785 C 1241.35 2.0287 0.406348 0
M  V30 12786 C 1241.77 1.1079 1.52876 0
M  V30 12787 O 1241.13 0.118747 1.82113 0
M  V30 12788 C 1241.18 3.49286 0.931734 0
M  V30 12789 O 1240.9 4.37857 -0.145933 0
M  V30 12790 C 1242.4 4.11893 1.63887 0
M  V30 12791 H 1239.62 0.663696 0.0987358 0
M  V30 12792 H 1242.16 2.01541 -0.346616 0
M  V30 12793 H 1240.32 3.5121 1.63494 0
M  V30 12794 H 1240.73 5.23904 0.250005 0
M  V30 12795 H 1242.21 5.16091 1.95841 0
M  V30 12796 H 1242.68 3.57281 2.55435 0
M  V30 12797 H 1243.29 4.13839 0.980697 0
M  V30 12798 N 1241.6 -0.0451101 1.57535 0
M  V30 12799 C 1242.83 -0.75132 1.92777 0
M  V30 12800 C 1243.25 -1.69743 0.826599 0
M  V30 12801 O 1242.6 -1.8142 -0.198224 0
M  V30 12802 C 1242.66 -1.52218 3.2789 0
M  V30 12803 O 1242.38 -0.614059 4.33775 0
M  V30 12804 C 1243.88 -2.32699 3.77314 0
M  V30 12805 H 1241.1 -0.21211 0.636593 0
M  V30 12806 H 1243.64 -0.0074174 2.04499 0
M  V30 12807 H 1241.8 -2.2181 3.17614 0
M  V30 12808 H 1242.21 -1.15294 5.11671 0
M  V30 12809 H 1243.68 -2.82205 4.7441 0
M  V30 12810 H 1244.16 -3.13414 3.07682 0
M  V30 12811 H 1244.77 -1.68212 3.90621 0
M  V30 12812 N 1243.08 -1.54377 -0.317073 0
M  V30 12813 C 1244.5 -1.45232 -0.6618 0
M  V30 12814 C 1244.7 -0.630457 -1.91383 0
M  V30 12815 O 1243.75 -0.13181 -2.52156 0
M  V30 12816 C 1245.07 -2.89025 -0.829761 0
M  V30 12817 C 1246.62 -2.98967 -0.926685 0
M  V30 12818 C 1247.09 -4.43923 -1.12677 0
M  V30 12819 N 1248.58 -4.47564 -1.19335 0
M  V30 12820 C 1249.32 -5.56887 -1.36617 0
M  V30 12821 N 1248.81 -6.76167 -1.50899 0
M  V30 12822 N 1250.61 -5.44546 -1.39377 0
M  V30 12823 H 1242.76 -2.0629 0.505766 0
M  V30 12824 H 1245.02 -0.933615 0.164522 0
M  V30 12825 H 1244.73 -3.51695 0.0190945 0
M  V30 12826 H 1244.6 -3.35515 -1.72364 0
M  V30 12827 H 1246.99 -2.36421 -1.76604 0
M  V30 12828 H 1247.07 -2.55798 -0.00913402 0
M  V30 12829 H 1246.71 -5.07059 -0.29224 0
M  V30 12830 H 1246.64 -4.84708 -2.05829 0
M  V30 12831 H 1249.13 -3.61623 -1.09715 0
M  V30 12832 H 1249.45 -7.55242 -1.63796 0
M  V30 12833 H 1247.79 -6.79062 -1.47985 0
M  V30 12834 H 1250.98 -4.50311 -1.27819 0
M  V30 12835 H 1251.15 -6.29799 -1.52502 0
M  V30 12836 N 1244.56 0.579466 -1.4656 0
M  V30 12837 C 1245.49 1.70291 -1.53406 0
M  V30 12838 C 1246.51 1.57232 -0.422116 0
M  V30 12839 O 1247.69 1.64598 -0.69064 0
M  V30 12840 C 1244.79 3.08572 -1.40131 0
M  V30 12841 C 1243.97 3.47602 -2.65502 0
M  V30 12842 C 1243.03 4.64955 -2.4638 0
M  V30 12843 O 1242.05 4.70653 -3.20116 0
M  V30 12844 N 1243.25 5.60041 -1.52756 0
M  V30 12845 H 1246.02 1.64873 -2.50274 0
M  V30 12846 H 1243.58 0.765533 -1.42658 0
M  V30 12847 H 1245.57 3.84877 -1.25106 0
M  V30 12848 H 1244.14 3.0834 -0.514322 0
M  V30 12849 H 1243.36 2.60969 -2.95446 0
M  V30 12850 H 1244.65 3.70446 -3.48779 0
M  V30 12851 H 1244.05 5.58176 -0.919587 0
M  V30 12852 H 1242.61 6.35764 -1.43693 0
M  V30 12853 N 1246.04 1.3432 0.824371 0
M  V30 12854 C 1247.26 1.2982 1.61745 0
M  V30 12855 C 1247.69 -0.125298 1.87682 0
M  V30 12856 O 1247.05 -1.08658 1.45131 0
M  V30 12857 C 1247.09 2.09327 2.93623 0
M  V30 12858 O 1246.2 1.4618 3.85623 0
M  V30 12859 H 1245.54 0.445929 0.491979 0
M  V30 12860 H 1248.07 1.77101 1.02452 0
M  V30 12861 H 1248.08 2.20629 3.43201 0
M  V30 12862 H 1246.75 3.12825 2.74069 0
M  V30 12863 H 1245.33 1.43611 3.44137 0
M  V30 12864 N 1247.52 -1.0444 1.18026 0
M  V30 12865 C 1248.77 -1.7697 0.9677 0
M  V30 12866 C 1249.08 -1.88995 -0.503994 0
M  V30 12867 O 1250.28 -2.58342 -0.834968 0
M  V30 12868 C 1248.74 -3.1816 1.68232 0
M  V30 12869 C 1248.35 -3.14241 3.19307 0
M  V30 12870 C 1250.09 -3.95095 1.55244 0
M  V30 12871 C 1248 -4.50266 3.83425 0
M  V30 12872 H 1246.93 -0.663355 0.358436 0
M  V30 12873 H 1249.58 -1.17003 1.4136 0
M  V30 12874 H 1247.96 -3.78501 1.16418 0
M  V30 12875 H 1249.14 -2.63373 3.78115 0
M  V30 12876 H 1247.45 -2.50805 3.32394 0
M  V30 12877 H 1250.05 -4.95681 2.00511 0
M  V30 12878 H 1250.39 -4.13236 0.504125 0
M  V30 12879 H 1250.92 -3.4132 2.04317 0
M  V30 12880 H 1247.66 -4.37329 4.88286 0
M  V30 12881 H 1247.18 -5.01251 3.29404 0
M  V30 12882 H 1248.86 -5.1919 3.86071 0
M  V30 12883 N 1248.99 -0.981699 -1.2329 0
M  V30 12884 C 1250.22 -0.66937 -1.95773 0
M  V30 12885 C 1250.64 0.763898 -1.72656 0
M  V30 12886 O 1249.99 1.51418 -1.01876 0
M  V30 12887 C 1250.05 -0.951863 -3.48743 0
M  V30 12888 O 1249.77 -2.3288 -3.71078 0
M  V30 12889 C 1251.27 -0.655668 -4.38424 0
M  V30 12890 H 1248.49 -0.248545 -0.623271 0
M  V30 12891 H 1251.03 -1.31343 -1.56746 0
M  V30 12892 H 1249.19 -0.353787 -3.85781 0
M  V30 12893 H 1249.6 -2.41948 -4.65362 0
M  V30 12894 H 1251.07 -0.903683 -5.44553 0
M  V30 12895 H 1251.55 0.410269 -4.3728 0
M  V30 12896 H 1252.16 -1.23428 -4.06996 0
M  V30 12897 N 1250.47 1.3842 -0.753509 0
M  V30 12898 C 1251.7 2.04403 -0.320449 0
M  V30 12899 C 1252.12 1.5683 1.05118 0
M  V30 12900 O 1251.47 0.741335 1.66765 0
M  V30 12901 C 1251.52 3.59954 -0.333937 0
M  V30 12902 O 1251.24 4.05782 -1.65144 0
M  V30 12903 C 1252.75 4.43156 0.112997 0
M  V30 12904 H 1249.97 0.656881 -0.136927 0
M  V30 12905 H 1252.51 1.77112 -1.02234 0
M  V30 12906 H 1250.66 3.86083 0.319215 0
M  V30 12907 H 1251.08 5.00213 -1.57757 0
M  V30 12908 H 1252.55 5.51975 0.0523995 0
M  V30 12909 H 1253.03 4.23581 1.16087 0
M  V30 12910 H 1253.64 4.22216 -0.511278 0
M  V30 12911 N 1251.95 0.502579 1.49372 0
M  V30 12912 C 1252.88 -0.321683 2.25921 0
M  V30 12913 C 1253.86 -0.968999 1.30572 0
M  V30 12914 O 1255.05 -0.998788 1.59864 0
M  V30 12915 C 1252.17 -1.45318 3.05942 0
M  V30 12916 C 1251.22 -0.920076 4.16457 0
M  V30 12917 S 1252.05 0.190402 5.35161 0
M  V30 12918 C 1253.21 -0.944222 6.18737 0
M  V30 12919 H 1253.44 0.328036 2.95485 0
M  V30 12920 H 1250.97 0.287903 1.51692 0
M  V30 12921 H 1252.93 -2.1015 3.52629 0
M  V30 12922 H 1251.59 -2.07452 2.35844 0
M  V30 12923 H 1250.79 -1.76808 4.71969 0
M  V30 12924 H 1250.39 -0.348944 3.72369 0
M  V30 12925 H 1252.68 -1.8491 6.51778 0
M  V30 12926 H 1253.62 -0.42769 7.06807 0
M  V30 12927 H 1254.03 -1.21227 5.5133 0
M  V30 12928 N 1253.43 -1.55816 0.23648 0
M  V30 12929 C 1254.66 -2.03083 -0.395584 0
M  V30 12930 C 1255.07 -1.11599 -1.52286 0
M  V30 12931 O 1254.43 -0.128403 -1.82048 0
M  V30 12932 C 1254.48 -3.49776 -0.913197 0
M  V30 12933 O 1254.2 -4.37773 0.169151 0
M  V30 12934 C 1255.7 -4.12756 -1.617 0
M  V30 12935 H 1252.92 -0.66421 -0.0952146 0
M  V30 12936 H 1255.47 -2.01354 0.357299 0
M  V30 12937 H 1253.62 -3.52072 -1.6163 0
M  V30 12938 H 1254.03 -5.24029 -0.222217 0
M  V30 12939 H 1255.51 -5.17123 -1.93101 0
M  V30 12940 H 1255.99 -3.58631 -2.53537 0
M  V30 12941 H 1256.59 -4.14353 -0.958736 0
M  V30 12942 N 1254.91 0.036755 -1.57557 0
M  V30 12943 C 1255.85 1.05823 -2.07133 0
M  V30 12944 C 1256.85 1.37923 -0.983546 0
M  V30 12945 O 1258.05 1.36918 -1.16848 0
M  V30 12946 H 1254.43 0.358761 -0.660905 0
M  V30 12947 H 1256.4 0.614232 -2.9201 0
M  V30 12948 C 1255.15 2.35302 -2.55985 0
M  V30 12949 H 1254.47 2.11461 -3.393 0
M  V30 12950 H 1255.91 3.05139 -2.94391 0
M  V30 12951 C 1254.37 3.0373 -1.45773 0
M  V30 12952 O 1254.9 3.9325 -0.819587 0
M  V30 12953 N 1253.11 2.64931 -1.19416 0
M  V30 12954 H 1252.65 1.92219 -1.71492 0
M  V30 12955 H 1252.61 3.11033 -0.458865 0
M  V30 12956 N 1256.39 1.54543 0.308881 0
M  V30 12957 C 1257.61 1.77431 1.06422 0
M  V30 12958 C 1258.03 0.529972 1.81209 0
M  V30 12959 O 1257.39 -0.499912 1.7552 0
M  V30 12960 C 1257.44 2.9769 2.05092 0
M  V30 12961 O 1257.16 4.17315 1.33341 0
M  V30 12962 C 1258.66 3.32905 2.92727 0
M  V30 12963 H 1255.88 0.591961 0.315948 0
M  V30 12964 H 1258.42 2.01473 0.350547 0
M  V30 12965 H 1256.58 2.7588 2.71973 0
M  V30 12966 H 1256.99 4.85061 1.99539 0
M  V30 12967 H 1258.47 4.20314 3.57827 0
M  V30 12968 H 1258.94 2.50713 3.6061 0
M  V30 12969 H 1259.55 3.56847 2.31388 0
M  V30 12970 N 1257.86 -0.571685 1.46866 0
M  V30 12971 C 1259.11 -1.32685 1.52444 0
M  V30 12972 C 1259.43 -1.94147 0.182225 0
M  V30 12973 O 1258.7 -1.79159 -0.792385 0
M  V30 12974 H 1257.28 -0.492679 0.561495 0
M  V30 12975 H 1259.94 -0.668694 1.8307 0
M  V30 12976 H 1259.04 -2.12788 2.28315 0
M  V30 12977 N 1259.34 -1.34755 -0.817236 0
M  V30 12978 C 1260.3 -1.26687 -1.91006 0
M  V30 12979 C 1261.3 -0.180745 -1.59781 0
M  V30 12980 O 1262.49 -0.433748 -1.68714 0
M  V30 12981 C 1259.63 -0.957293 -3.27183 0
M  V30 12982 H 1260.82 -2.23846 -1.99582 0
M  V30 12983 H 1258.37 -1.19125 -1.01187 0
M  V30 12984 H 1259.11 0.0108917 -3.24298 0
M  V30 12985 H 1258.89 -1.74297 -3.5123 0
M  V30 12986 H 1260.38 -0.926161 -4.072 0
M  V30 12987 N 1260.82 1.03812 -1.18578 0
M  V30 12988 C 1262.07 1.77056 -0.982718 0
M  V30 12989 C 1262.39 1.88294 0.487421 0
M  V30 12990 O 1261.65 1.38946 1.37813 0
M  V30 12991 C 1261.95 3.20297 -1.5857 0
M  V30 12992 C 1261.61 3.29088 -3.0824 0
M  V30 12993 C 1260.28 3.31194 -3.4909 0
M  V30 12994 C 1262.63 3.28981 -4.04253 0
M  V30 12995 C 1259.96 3.30839 -4.84523 0
M  V30 12996 C 1262.31 3.30166 -5.39605 0
M  V30 12997 C 1260.97 3.30565 -5.79899 0
M  V30 12998 H 1260.24 0.647895 -0.359602 0
M  V30 12999 H 1262.89 1.21911 -1.47682 0
M  V30 13000 H 1261.19 3.7846 -1.01367 0
M  V30 13001 H 1262.89 3.75619 -1.40398 0
M  V30 13002 H 1259.48 3.28171 -2.75685 0
M  V30 13003 H 1263.67 3.26543 -3.73743 0
M  V30 13004 H 1258.92 3.29467 -5.15035 0
M  V30 13005 H 1263.1 3.29033 -6.13767 0
M  V30 13006 H 1260.72 3.30044 -6.84818 0
M  V30 13007 N 1262.3 0.988223 1.22768 0
M  V30 13008 C 1263.55 0.660154 1.91014 0
M  V30 13009 C 1263.87 -0.809788 1.77391 0
M  V30 13010 O 1263.14 -1.57998 1.15817 0
M  V30 13011 H 1261.72 0.24118 0.706995 0
M  V30 13012 H 1264.38 1.25372 1.49224 0
M  V30 13013 H 1263.47 0.918603 2.98275 0
M  V30 13014 N 1263.78 -1.38018 0.760839 0
M  V30 13015 C 1264.71 -2.2899 0.0980916 0
M  V30 13016 C 1265.72 -1.48102 -0.675985 0
M  V30 13017 O 1266.91 -1.70883 -0.515878 0
M  V30 13018 C 1264.01 -3.27142 -0.884959 0
M  V30 13019 C 1263.18 -4.37081 -0.167 0
M  V30 13020 C 1262.24 -5.15375 -1.06184 0
M  V30 13021 O 1261.27 -5.6673 -0.529667 0
M  V30 13022 N 1262.47 -5.29052 -2.38924 0
M  V30 13023 H 1265.23 -2.86508 0.879403 0
M  V30 13024 H 1262.8 -1.49877 0.612245 0
M  V30 13025 H 1264.79 -3.764 -1.48678 0
M  V30 13026 H 1263.36 -2.70471 -1.5673 0
M  V30 13027 H 1262.58 -3.89363 0.615617 0
M  V30 13028 H 1263.87 -5.07732 0.329525 0
M  V30 13029 H 1263.26 -4.88892 -2.84607 0
M  V30 13030 H 1261.82 -5.81658 -2.94139 0
M  V30 13031 N 1265.25 -0.510493 -1.49103 0
M  V30 13032 C 1266.19 0.299697 -2.27232 0
M  V30 13033 C 1267.2 0.922102 -1.34168 0
M  V30 13034 O 1268.39 0.803836 -1.59376 0
M  V30 13035 C 1265.49 1.43778 -3.06889 0
M  V30 13036 C 1264.66 0.920927 -4.27595 0
M  V30 13037 C 1263.72 1.93777 -4.89221 0
M  V30 13038 O 1262.75 1.5025 -5.49011 0
M  V30 13039 N 1263.95 3.2688 -4.79718 0
M  V30 13040 H 1266.71 -0.37028 -2.97404 0
M  V30 13041 H 1264.27 -0.343617 -1.58212 0
M  V30 13042 H 1266.27 2.11577 -3.44988 0
M  V30 13043 H 1264.84 2.01175 -2.39264 0
M  V30 13044 H 1264.06 0.0675358 -3.94142 0
M  V30 13045 H 1265.34 0.554168 -5.05773 0
M  V30 13046 H 1264.74 3.64924 -4.32258 0
M  V30 13047 H 1263.3 3.90366 -5.21974 0
M  V30 13048 N 1266.73 1.55688 -0.24474 0
M  V30 13049 C 1267.96 2.03743 0.387776 0
M  V30 13050 C 1268.38 1.1229 1.50906 0
M  V30 13051 O 1267.74 0.115445 1.80932 0
M  V30 13052 C 1267.79 3.49825 0.874927 0
M  V30 13053 O 1266.89 3.61504 1.98466 0
M  V30 13054 H 1266.23 0.658561 0.0848107 0
M  V30 13055 H 1268.76 2.01224 -0.370165 0
M  V30 13056 H 1268.77 3.90603 1.17871 0
M  V30 13057 H 1267.45 4.15864 0.0543852 0
M  V30 13058 H 1266.02 3.32622 1.68574 0
M  V30 13059 N 1268.21 -0.0283989 1.57574 0
M  V30 13060 C 1269.46 -0.717656 1.88929 0
M  V30 13061 C 1269.78 -1.7586 0.842517 0
M  V30 13062 O 1269.05 -1.95509 -0.123774 0
M  V30 13063 H 1267.63 -0.268051 0.69725 0
M  V30 13064 H 1270.29 0.00580691 1.94899 0
M  V30 13065 H 1269.39 -1.2068 2.87824 0
M  V30 13066 N 1269.69 -1.54705 -0.300681 0
M  V30 13067 C 1270.65 -1.84934 -1.35395 0
M  V30 13068 C 1271.65 -0.72226 -1.43666 0
M  V30 13069 O 1272.84 -0.990543 -1.43296 0
M  V30 13070 C 1269.97 -2.02991 -2.73875 0
M  V30 13071 H 1271.17 -2.79063 -1.09835 0
M  V30 13072 H 1268.72 -1.46772 -0.537365 0
M  V30 13073 H 1269.45 -1.11151 -3.04657 0
M  V30 13074 H 1269.24 -2.85027 -2.69262 0
M  V30 13075 H 1270.73 -2.27747 -3.5003 0
M  V30 13076 N 1271.17 0.563888 -1.47167 0
M  V30 13077 C 1272.41 1.32331 -1.53676 0
M  V30 13078 C 1272.75 1.93213 -0.195593 0
M  V30 13079 O 1272.02 1.77508 0.795068 0
M  V30 13080 C 1272.3 2.43848 -2.64972 0
M  V30 13081 C 1272.16 1.8788 -4.08682 0
M  V30 13082 C 1273.48 3.45809 -2.72221 0
M  V30 13083 H 1270.59 0.479791 -0.559437 0
M  V30 13084 H 1273.24 0.631669 -1.79192 0
M  V30 13085 H 1271.39 3.02846 -2.43345 0
M  V30 13086 H 1273.06 1.33195 -4.41652 0
M  V30 13087 H 1271.3 1.18593 -4.17275 0
M  V30 13088 H 1271.97 2.68465 -4.82318 0
M  V30 13089 H 1274.45 2.9672 -2.91713 0
M  V30 13090 H 1273.32 4.21272 -3.51882 0
M  V30 13091 H 1273.59 4.04236 -1.79014 0
M  V30 13092 N 1272.64 1.35187 0.810078 0
M  V30 13093 C 1273.87 1.31181 1.59609 0
M  V30 13094 C 1274.28 -0.113556 1.88859 0
M  V30 13095 O 1273.63 -1.07491 1.48968 0
M  V30 13096 C 1273.69 2.04749 2.95496 0
M  V30 13097 C 1273.35 3.53952 2.89079 0
M  V30 13098 C 1274.35 4.48612 2.6276 0
M  V30 13099 C 1272.03 3.96551 3.08306 0
M  V30 13100 C 1274.03 5.83846 2.5574 0
M  V30 13101 C 1271.71 5.31881 3.00909 0
M  V30 13102 C 1272.71 6.2534 2.74661 0
M  V30 13103 O 1272.4 7.58188 2.6722 0
M  V30 13104 H 1272.13 0.452285 0.502408 0
M  V30 13105 H 1274.69 1.78571 1.01497 0
M  V30 13106 H 1272.92 1.51992 3.55577 0
M  V30 13107 H 1274.61 1.93866 3.5661 0
M  V30 13108 H 1275.37 4.1702 2.47628 0
M  V30 13109 H 1271.25 3.24194 3.27749 0
M  V30 13110 H 1274.79 6.56765 2.35172 0
M  V30 13111 H 1270.69 5.63088 3.15598 0
M  V30 13112 H 1271.46 7.68073 2.82853 0
M  V30 13113 N 1274.12 -1.03182 1.19127 0
M  V30 13114 C 1275.37 -1.76794 0.993563 0
M  V30 13115 C 1275.7 -1.88306 -0.474809 0
M  V30 13116 O 1274.98 -1.39769 -1.35258 0
M  V30 13117 C 1275.26 -3.19573 1.65968 0
M  V30 13118 C 1275.11 -3.1595 3.2015 0
M  V30 13119 C 1276.43 -4.17897 1.38023 0
M  V30 13120 H 1273.55 -0.641768 0.362357 0
M  V30 13121 H 1276.19 -1.20472 1.46924 0
M  V30 13122 H 1274.34 -3.67663 1.25524 0
M  V30 13123 H 1276.01 -2.7578 3.69788 0
M  V30 13124 H 1274.26 -2.53743 3.51848 0
M  V30 13125 H 1274.93 -4.16811 3.61901 0
M  V30 13126 H 1277.4 -3.78394 1.73082 0
M  V30 13127 H 1276.28 -5.15997 1.87186 0
M  V30 13128 H 1276.54 -4.41048 0.304812 0
M  V30 13129 N 1275.6 -0.99472 -1.22242 0
M  V30 13130 C 1276.85 -0.670275 -1.90661 0
M  V30 13131 C 1277.17 0.800369 -1.77818 0
M  V30 13132 O 1276.44 1.57381 -1.16653 0
M  V30 13133 H 1275.02 -0.244925 -0.705706 0
M  V30 13134 H 1277.68 -1.26162 -1.48557 0
M  V30 13135 H 1276.78 -0.934408 -2.97784 0
M  V30 13136 N 1277.08 1.37613 -0.768148 0
M  V30 13137 C 1278.03 2.3218 -0.13974 0
M  V30 13138 C 1279.02 1.54754 0.689023 0
M  V30 13139 O 1280.23 1.70177 0.586489 0
M  V30 13140 H 1276.6 0.751536 -0.0264001 0
M  V30 13141 H 1278.57 2.82768 -0.953139 0
M  V30 13142 C 1277.32 3.39997 0.727829 0
M  V30 13143 H 1276.64 3.99676 0.0994851 0
M  V30 13144 H 1278.08 4.08538 1.13456 0
M  V30 13145 C 1276.54 2.79778 1.87686 0
M  V30 13146 O 1277.07 2.70241 2.97208 0
M  V30 13147 N 1275.28 2.37373 1.67637 0
M  V30 13148 H 1274.83 2.4533 0.785552 0
M  V30 13149 H 1274.78 1.97426 2.44684 0
M  V30 13150 N 1278.56 0.518393 1.4883 0
M  V30 13151 C 1279.79 -0.0161765 2.06594 0
M  V30 13152 C 1280.19 -1.29771 1.37681 0
M  V30 13153 O 1279.54 -1.77991 0.454421 0
M  V30 13154 C 1279.6 -0.322505 3.5805 0
M  V30 13155 C 1279.26 0.863848 4.48761 0
M  V30 13156 C 1280.26 1.75912 4.89235 0
M  V30 13157 C 1277.95 1.06757 4.90824 0
M  V30 13158 C 1279.94 2.84211 5.70528 0
M  V30 13159 C 1277.63 2.15372 5.7189 0
M  V30 13160 C 1278.62 3.03932 6.11649 0
M  V30 13161 O 1278.31 4.1067 6.9109 0
M  V30 13162 H 1278.04 0.0251212 0.675533 0
M  V30 13163 H 1280.6 0.720052 1.92365 0
M  V30 13164 H 1278.83 -1.11256 3.7035 0
M  V30 13165 H 1280.52 -0.797764 3.97983 0
M  V30 13166 H 1281.28 1.61362 4.5737 0
M  V30 13167 H 1277.16 0.387566 4.59368 0
M  V30 13168 H 1280.71 3.53364 6.01481 0
M  V30 13169 H 1276.6 2.2991 6.03168 0
M  V30 13170 H 1277.37 4.08237 7.09426 0
M  V30 13171 N 1280.03 -1.55556 0.252993 0
M  V30 13172 C 1281.45 -1.59276 -0.101714 0
M  V30 13173 C 1281.65 -1.27018 -1.56424 0
M  V30 13174 O 1280.71 -1.02042 -2.30963 0
M  V30 13175 C 1282.02 -2.99634 0.252969 0
M  V30 13176 C 1283.57 -3.12375 0.197767 0
M  V30 13177 C 1284.04 -4.54963 0.52657 0
M  V30 13178 N 1285.53 -4.60734 0.477296 0
M  V30 13179 C 1286.27 -5.69052 0.704793 0
M  V30 13180 N 1285.76 -6.85607 0.99574 0
M  V30 13181 N 1287.56 -5.58501 0.635086 0
M  V30 13182 H 1279.71 -1.74793 1.2067 0
M  V30 13183 H 1281.97 -0.813971 0.485958 0
M  V30 13184 H 1281.68 -3.27998 1.26926 0
M  V30 13185 H 1281.55 -3.74888 -0.416984 0
M  V30 13186 H 1283.94 -2.83788 -0.809209 0
M  V30 13187 H 1284.02 -2.39382 0.901659 0
M  V30 13188 H 1283.66 -4.84271 1.53113 0
M  V30 13189 H 1283.59 -5.26224 -0.198869 0
M  V30 13190 H 1286.08 -3.76995 0.261398 0
M  V30 13191 H 1286.4 -7.64096 1.15659 0
M  V30 13192 H 1284.74 -6.87276 1.03328 0
M  V30 13193 H 1287.93 -4.6632 0.407789 0
M  V30 13194 H 1288.11 -6.42845 0.815777 0
M  V30 13195 N 1281.51 0.0200419 -1.57587 0
M  V30 13196 C 1282.76 0.710078 -1.89962 0
M  V30 13197 C 1283.09 1.74521 -0.851829 0
M  V30 13198 O 1282.37 1.94052 0.132005 0
M  V30 13199 C 1282.65 1.37145 -3.32961 0
M  V30 13200 C 1282.5 0.349221 -4.48442 0
M  V30 13201 C 1283.82 2.30304 -3.75031 0
M  V30 13202 H 1280.94 0.25667 -0.690862 0
M  V30 13203 H 1283.58 -0.0271362 -1.89981 0
M  V30 13204 H 1281.73 1.99981 -3.33076 0
M  V30 13205 H 1283.4 -0.277916 -4.60462 0
M  V30 13206 H 1281.65 -0.330594 -4.32538 0
M  V30 13207 H 1282.32 0.850636 -5.45406 0
M  V30 13208 H 1284.79 1.77503 -3.7634 0
M  V30 13209 H 1283.67 2.73555 -4.75877 0
M  V30 13210 H 1283.93 3.17364 -3.07786 0
M  V30 13211 N 1282.99 1.54862 0.292472 0
M  V30 13212 C 1284.24 1.74807 1.02813 0
M  V30 13213 C 1284.57 0.536935 1.8663 0
M  V30 13214 O 1283.84 -0.465854 1.88839 0
M  V30 13215 C 1284.13 3.04202 1.927 0
M  V30 13216 C 1283.98 4.35631 1.12006 0
M  V30 13217 C 1285.3 3.29514 2.91734 0
M  V30 13218 H 1282.42 0.636015 0.372362 0
M  V30 13219 H 1285.06 1.87583 0.302069 0
M  V30 13220 H 1283.21 2.9344 2.54608 0
M  V30 13221 H 1284.88 4.58323 0.52319 0
M  V30 13222 H 1283.13 4.31733 0.42298 0
M  V30 13223 H 1283.8 5.22454 1.78172 0
M  V30 13224 H 1286.27 3.39941 2.39957 0
M  V30 13225 H 1285.15 4.21352 3.51786 0
M  V30 13226 H 1285.41 2.48216 3.65843 0
M  V30 13227 N 1284.47 -0.556076 1.47464 0
M  V30 13228 C 1285.42 -1.68406 1.60444 0
M  V30 13229 C 1286.41 -1.627 0.471713 0
M  V30 13230 O 1287.62 -1.67871 0.649551 0
M  V30 13231 H 1283.99 -0.557255 0.504946 0
M  V30 13232 H 1285.96 -1.54595 2.55231 0
M  V30 13233 C 1284.71 -3.06756 1.63695 0
M  V30 13234 H 1284.03 -3.11829 2.50206 0
M  V30 13235 H 1285.47 -3.85368 1.76827 0
M  V30 13236 C 1283.93 -3.34857 0.370485 0
M  V30 13237 O 1284.46 -3.98216 -0.527942 0
M  V30 13238 N 1282.67 -2.89521 0.250163 0
M  V30 13239 H 1282.22 -2.3814 0.982204 0
M  V30 13240 H 1282.17 -3.08694 -0.596268 0
M  V30 13241 N 1285.95 -1.35615 -0.802897 0
M  V30 13242 C 1287.36 -1.15733 -1.099 0
M  V30 13243 C 1287.56 0.0277094 -2.01481 0
M  V30 13244 O 1286.62 0.697196 -2.42684 0
M  V30 13245 C 1287.93 -2.46201 -1.72643 0
M  V30 13246 C 1289.48 -2.52442 -1.85046 0
M  V30 13247 C 1289.96 -3.82962 -2.51205 0
M  V30 13248 N 1291.45 -3.84234 -2.58686 0
M  V30 13249 C 1292.18 -4.81956 -3.10654 0
M  V30 13250 N 1291.68 -5.90068 -3.63032 0
M  V30 13251 N 1293.47 -4.69389 -3.09241 0
M  V30 13252 H 1285.62 -2.11511 -0.194177 0
M  V30 13253 H 1287.88 -0.936259 -0.148739 0
M  V30 13254 H 1287.59 -3.33114 -1.12817 0
M  V30 13255 H 1287.46 -2.6102 -2.72302 0
M  V30 13256 H 1289.85 -1.65955 -2.44014 0
M  V30 13257 H 1289.93 -2.41534 -0.842316 0
M  V30 13258 H 1289.58 -4.69848 -1.92885 0
M  V30 13259 H 1289.51 -3.9116 -3.52564 0
M  V30 13260 H 1292 -3.0612 -2.21582 0
M  V30 13261 H 1292.31 -6.60623 -4.00996 0
M  V30 13262 H 1290.66 -5.93755 -3.6122 0
M  V30 13263 H 1293.85 -3.84066 -2.67602 0
M  V30 13264 H 1294.02 -5.4571 -3.49435 0
M  V30 13265 N 1287.43 1.02549 -1.19673 0
M  V30 13266 C 1288.38 2.09257 -0.905282 0
M  V30 13267 C 1289.36 1.60363 0.131302 0
M  V30 13268 O 1290.55 1.76842 -0.0748563 0
M  V30 13269 C 1287.68 3.40345 -0.449474 0
M  V30 13270 C 1286.77 3.95964 -1.51899 0
M  V30 13271 N 1287.16 4.25203 -2.73926 0
M  V30 13272 C 1285.46 4.24013 -1.38307 0
M  V30 13273 C 1286.16 4.69925 -3.42849 0
M  V30 13274 N 1285.13 4.71664 -2.70248 0
M  V30 13275 H 1288.93 2.29761 -1.83268 0
M  V30 13276 H 1286.45 1.2044 -1.0894 0
M  V30 13277 H 1288.45 4.16308 -0.222121 0
M  V30 13278 H 1287.11 3.2126 0.471402 0
M  V30 13279 H 1288.12 4.14381 -3.10658 0
M  V30 13280 H 1284.79 4.14174 -0.52592 0
M  V30 13281 H 1286.18 5.01442 -4.4722 0
M  V30 13282 N 1288.9 1.00119 1.21713 0
M  V30 13283 C 1289.83 0.578504 2.2622 0
M  V30 13284 C 1290.81 -0.398777 1.6536 0
M  V30 13285 O 1292 -0.287596 1.92059 0
M  V30 13286 C 1289.13 -0.0994508 3.47158 0
M  V30 13287 C 1288.08 0.79722 4.2051 0
M  V30 13288 C 1287.41 -0.0141125 5.34698 0
M  V30 13289 C 1288.71 2.09802 4.7831 0
M  V30 13290 H 1290.4 1.45208 2.6183 0
M  V30 13291 H 1287.95 0.699656 1.2586 0
M  V30 13292 H 1289.9 -0.406605 4.19434 0
M  V30 13293 H 1288.63 -1.00763 3.10667 0
M  V30 13294 H 1287.29 1.08814 3.50079 0
M  V30 13295 H 1286.93 -0.923468 4.9445 0
M  V30 13296 H 1286.63 0.582883 5.84702 0
M  V30 13297 H 1288.16 -0.31517 6.09786 0
M  V30 13298 H 1289.57 1.85427 5.42485 0
M  V30 13299 H 1287.97 2.64455 5.38687 0
M  V30 13300 H 1289.04 2.77132 3.97902 0
M  V30 13301 N 1290.38 -1.37203 0.775435 0
M  V30 13302 C 1291.34 -2.28566 0.170406 0
M  V30 13303 C 1292.34 -1.48195 -0.624085 0
M  V30 13304 O 1293.53 -1.68364 -0.447132 0
M  V30 13305 C 1290.67 -3.32186 -0.765829 0
M  V30 13306 H 1291.86 -2.8358 0.975824 0
M  V30 13307 H 1289.41 -1.46531 0.543895 0
M  V30 13308 H 1290.15 -2.82303 -1.59611 0
M  V30 13309 H 1289.93 -3.91598 -0.198251 0
M  V30 13310 H 1291.42 -4.0045 -1.18446 0
M  V30 13311 N 1291.86 -0.526279 -1.48553 0
M  V30 13312 C 1293.09 0.0052277 -2.06899 0
M  V30 13313 C 1293.5 1.2849 -1.38332 0
M  V30 13314 O 1292.86 1.76354 -0.469648 0
M  V30 13315 C 1292.91 0.236709 -3.60724 0
M  V30 13316 O 1292.63 -0.992256 -4.26715 0
M  V30 13317 C 1294.13 0.809014 -4.35855 0
M  V30 13318 H 1291.35 -0.0318426 -0.670244 0
M  V30 13319 H 1293.9 -0.730865 -1.90994 0
M  V30 13320 H 1292.05 0.922842 -3.76248 0
M  V30 13321 H 1292.47 -0.770697 -5.18807 0
M  V30 13322 H 1293.94 0.920428 -5.44272 0
M  V30 13323 H 1294.42 1.81302 -4.00033 0
M  V30 13324 H 1295.02 0.159564 -4.25001 0
M  V30 13325 N 1293.34 1.5542 -0.261239 0
M  V30 13326 C 1294.56 2.04142 0.366144 0
M  V30 13327 C 1294.99 1.13884 1.49706 0
M  V30 13328 O 1294.35 0.134629 1.80799 0
M  V30 13329 C 1294.39 3.50733 0.837774 0
M  V30 13330 O 1293.5 3.63588 1.94621 0
M  V30 13331 H 1292.84 0.659424 0.077821 0
M  V30 13332 H 1295.37 2.0082 -0.391487 0
M  V30 13333 H 1295.38 3.91831 1.13721 0
M  V30 13334 H 1294.05 4.15899 0.0102742 0
M  V30 13335 H 1292.63 3.34391 1.65037 0
M  V30 13336 N 1294.82 -0.0116844 1.57596 0
M  V30 13337 C 1295.78 -0.991601 2.0664 0
M  V30 13338 C 1296.78 -1.27973 0.973629 0
M  V30 13339 O 1297.97 -1.22686 1.23668 0
M  V30 13340 C 1295.1 -2.31975 2.49801 0
M  V30 13341 H 1296.29 -0.567607 2.9448 0
M  V30 13342 H 1293.85 -0.258906 1.54141 0
M  V30 13343 H 1294.58 -2.79087 1.65169 0
M  V30 13344 H 1294.37 -2.12386 3.29598 0
M  V30 13345 H 1295.86 -3.02294 2.88112 0
M  V30 13346 N 1296.29 -1.55015 -0.284256 0
M  V30 13347 C 1297.57 -1.6579 -1.03794 0
M  V30 13348 C 1297.95 -0.517029 -2.04671 0
M  V30 13349 O 1297.3 0.484287 -2.23309 0
M  V30 13350 C 1297.51 -3.04527 -1.70483 0
M  V30 13351 C 1298.86 -3.61903 -2.22062 0
M  V30 13352 O 1299.88 -3.07087 -1.80488 0
M  V30 13353 O 1298.74 -4.57917 -2.98286 0
M  V30 13354 H 1295.83 -0.672906 -0.480757 0
M  V30 13355 H 1298.38 -1.67357 -0.281009 0
M  V30 13356 H 1297.15 -3.79004 -0.973238 0
M  V30 13357 H 1296.77 -3.0681 -2.5289 0
M  V30 13358 N 1297.77 0.548248 -1.47757 0
M  V30 13359 C 1299.02 1.30458 -1.56052 0
M  V30 13360 C 1299.37 1.91096 -0.22363 0
M  V30 13361 O 1298.67 1.75375 0.771644 0
M  V30 13362 C 1298.86 2.42911 -2.62162 0
M  V30 13363 C 1298.69 1.93293 -4.06039 0
M  V30 13364 C 1297.46 1.76727 -4.73387 0
M  V30 13365 C 1299.66 1.47214 -4.9278 0
M  V30 13366 N 1297.64 1.21543 -6.01748 0
M  V30 13367 C 1299.01 1.03855 -6.1124 0
M  V30 13368 C 1301.06 1.35348 -4.79151 0
M  V30 13369 C 1299.77 0.498086 -7.17573 0
M  V30 13370 C 1301.79 0.827023 -5.85589 0
M  V30 13371 C 1301.16 0.40341 -7.03244 0
M  V30 13372 H 1297.25 0.469075 -0.625694 0
M  V30 13373 H 1299.84 0.620405 -1.84551 0
M  V30 13374 H 1298.01 3.08847 -2.35516 0
M  V30 13375 H 1299.74 3.09924 -2.60249 0
M  V30 13376 H 1296.5 1.99709 -4.29433 0
M  V30 13377 H 1296.92 0.960132 -6.70157 0
M  V30 13378 H 1301.56 1.66708 -3.88546 0
M  V30 13379 H 1299.28 0.172123 -8.07917 0
M  V30 13380 H 1302.87 0.738641 -5.77092 0
M  V30 13381 H 1301.75 0.00236338 -7.842 0
M  V30 13382 N 1299.25 1.36039 0.795694 0
M  V30 13383 C 1300.18 1.25713 1.91648 0
M  V30 13384 C 1301.19 0.177993 1.61824 0
M  V30 13385 O 1302.38 0.432186 1.73189 0
M  V30 13386 C 1299.48 0.915546 3.26299 0
M  V30 13387 C 1298.66 2.09528 3.83949 0
M  V30 13388 C 1297.72 1.72775 4.97026 0
M  V30 13389 O 1296.74 2.44786 5.13876 0
M  V30 13390 N 1297.94 0.65775 5.76762 0
M  V30 13391 H 1300.71 2.22277 2.01029 0
M  V30 13392 H 1298.27 1.2935 0.973657 0
M  V30 13393 H 1300.26 0.650958 3.9943 0
M  V30 13394 H 1298.83 0.0392343 3.12575 0
M  V30 13395 H 1298.05 2.52304 3.0288 0
M  V30 13396 H 1299.34 2.88361 4.19196 0
M  V30 13397 H 1298.74 0.0596875 5.65669 0
M  V30 13398 H 1297.29 0.45297 6.50224 0
M  V30 13399 N 1300.73 -1.01913 1.20215 0
M  V30 13400 C 1301.68 -2.12516 0.945493 0
M  V30 13401 C 1302.67 -1.69091 -0.102243 0
M  V30 13402 O 1303.88 -1.79936 0.047888 0
M  V30 13403 H 1300.25 -0.694496 0.288409 0
M  V30 13404 H 1302.22 -2.31349 1.88468 0
M  V30 13405 C 1300.97 -3.43919 0.51137 0
M  V30 13406 H 1300.29 -3.77758 1.30916 0
M  V30 13407 H 1301.73 -4.22374 0.370981 0
M  V30 13408 C 1300.19 -3.27844 -0.775902 0
M  V30 13409 O 1300.72 -3.5734 -1.83496 0
M  V30 13410 N 1298.93 -2.81101 -0.73694 0
M  V30 13411 H 1298.48 -2.57296 0.125164 0
M  V30 13412 H 1298.43 -2.70726 -1.59859 0
M  V30 13413 N 1302.21 -1.00763 -1.2118 0
M  V30 13414 C 1303.45 -0.700238 -1.92031 0
M  V30 13415 C 1303.81 0.755344 -1.76518 0
M  V30 13416 O 1305.01 1.17484 -2.41766 0
M  V30 13417 C 1303.28 -1.11294 -3.3963 0
M  V30 13418 S 1304.84 -0.926151 -4.28915 0
M  V30 13419 H 1301.66 -0.255559 -0.663484 0
M  V30 13420 H 1304.26 -1.29301 -1.46634 0
M  V30 13421 H 1302.97 -2.16838 -3.48439 0
M  V30 13422 H 1302.5 -0.51257 -3.90047 0
M  V30 13423 H 1304.51 0.175301 -4.9589 0
M  V30 13424 N 1303.68 1.3679 -0.7827 0
M  V30 13425 C 1304.93 1.99712 -0.352533 0
M  V30 13426 C 1305.26 1.61984 1.0712 0
M  V30 13427 O 1304.54 0.871342 1.7389 0
M  V30 13428 C 1304.82 3.5649 -0.508628 0
M  V30 13429 C 1304.67 4.04093 -1.97557 0
M  V30 13430 C 1305.99 4.40026 0.0804447 0
M  V30 13431 H 1303.11 0.725522 -0.129566 0
M  V30 13432 H 1305.75 1.62305 -0.987788 0
M  V30 13433 H 1303.9 3.88487 0.0321664 0
M  V30 13434 H 1305.58 3.82613 -2.57691 0
M  V30 13435 H 1303.82 3.55881 -2.48055 0
M  V30 13436 H 1304.49 5.13088 -2.03579 0
M  V30 13437 H 1306.97 4.14351 -0.381113 0
M  V30 13438 H 1305.84 5.48868 -0.0588424 0
M  V30 13439 H 1306.1 4.26285 1.17189 0
M  V30 13440 N 1305.16 0.53415 1.48272 0
M  V30 13441 C 1306.41 0.00971554 2.03398 0
M  V30 13442 C 1306.76 -1.316 1.40353 0
M  V30 13443 O 1306.06 -1.83786 0.541589 0
M  V30 13444 C 1306.25 -0.165144 3.57018 0
M  V30 13445 C 1306.08 1.14208 4.34956 0
M  V30 13446 C 1304.85 1.70309 4.75734 0
M  V30 13447 C 1307.05 2.05371 4.71516 0
M  V30 13448 N 1305.03 2.95276 5.38224 0
M  V30 13449 C 1306.4 3.14915 5.34068 0
M  V30 13450 C 1308.46 2.05647 4.53447 0
M  V30 13451 C 1307.16 4.24804 5.8046 0
M  V30 13452 C 1309.18 3.14533 5.00823 0
M  V30 13453 C 1308.55 4.22795 5.63404 0
M  V30 13454 H 1304.65 0.0451562 0.780695 0
M  V30 13455 H 1307.23 0.71635 1.81043 0
M  V30 13456 H 1305.4 -0.840869 3.79189 0
M  V30 13457 H 1307.13 -0.68956 3.98782 0
M  V30 13458 H 1303.89 1.24395 4.56971 0
M  V30 13459 H 1304.31 3.58911 5.74031 0
M  V30 13460 H 1308.95 1.23239 4.0444 0
M  V30 13461 H 1306.67 5.07987 6.2847 0
M  V30 13462 H 1310.26 3.15806 4.88629 0
M  V30 13463 H 1309.14 5.05661 5.99397 0
M  V30 13464 N 1306.64 -1.55279 0.269478 0
M  V30 13465 C 1307.55 -2.25965 -0.63065 0
M  V30 13466 C 1308.57 -1.28357 -1.17476 0
M  V30 13467 O 1309.74 -1.61281 -1.20625 0
M  V30 13468 C 1306.81 -2.96263 -1.80081 0
M  V30 13469 C 1305.87 -4.09336 -1.29394 0
M  V30 13470 C 1305.1 -4.76272 -2.40833 0
M  V30 13471 O 1305.32 -4.42389 -3.60066 0
M  V30 13472 O 1304.26 -5.64334 -2.09309 0
M  V30 13473 H 1308.08 -3.03644 -0.0582069 0
M  V30 13474 H 1305.67 -1.49354 0.0370966 0
M  V30 13475 H 1307.55 -3.40461 -2.48322 0
M  V30 13476 H 1306.23 -2.21505 -2.36045 0
M  V30 13477 H 1305.13 -3.69605 -0.578154 0
M  V30 13478 H 1306.47 -4.85978 -0.780117 0
M  V30 13479 N 1308.12 0.00332656 -1.576 0
M  V30 13480 C 1309.07 1.01406 -2.09331 0
M  V30 13481 C 1310.06 1.35806 -1.01258 0
M  V30 13482 O 1311.27 1.34409 -1.19726 0
M  V30 13483 H 1307.64 0.344661 -0.668366 0
M  V30 13484 H 1309.61 0.552154 -2.93247 0
M  V30 13485 C 1308.36 2.29819 -2.60918 0
M  V30 13486 H 1307.68 2.04216 -3.43709 0
M  V30 13487 H 1309.12 2.98826 -3.00797 0
M  V30 13488 C 1307.58 3.0057 -1.52182 0
M  V30 13489 O 1308.11 3.91423 -0.902817 0
M  V30 13490 N 1306.32 2.62338 -1.25009 0
M  V30 13491 H 1305.87 1.88538 -1.75531 0
M  V30 13492 H 1305.82 3.0999 -0.524736 0
M  V30 13493 N 1309.6 1.55164 0.276031 0
M  V30 13494 C 1310.83 1.79388 1.02486 0
M  V30 13495 C 1311.23 0.565884 1.80539 0
M  V30 13496 O 1310.58 -0.47449 1.77466 0
M  V30 13497 C 1310.64 2.96494 2.03302 0
M  V30 13498 C 1310.3 4.33649 1.44214 0
M  V30 13499 C 1311.3 5.12749 0.859355 0
M  V30 13500 C 1308.99 4.80301 1.47026 0
M  V30 13501 C 1310.98 6.36633 0.312548 0
M  V30 13502 C 1308.67 6.04141 0.919587 0
M  V30 13503 C 1309.66 6.82145 0.341729 0
M  V30 13504 O 1309.35 8.0365 -0.200517 0
M  V30 13505 H 1309.08 0.601454 0.308592 0
M  V30 13506 H 1311.64 2.02999 0.313148 0
M  V30 13507 H 1309.87 2.68568 2.78223 0
M  V30 13508 H 1311.56 3.08069 2.64288 0
M  V30 13509 H 1312.32 4.77839 0.830353 0
M  V30 13510 H 1308.2 4.19597 1.90942 0
M  V30 13511 H 1311.75 6.97461 -0.139131 0
M  V30 13512 H 1307.64 6.38533 0.945819 0
M  V30 13513 H 1308.41 8.18451 -0.0895877 0
M  V30 13514 N 1311.07 -0.540404 1.48045 0
M  V30 13515 C 1312.02 -1.66695 1.62221 0
M  V30 13516 C 1313.02 -1.6219 0.488943 0
M  V30 13517 O 1314.22 -1.67173 0.66732 0
M  V30 13518 H 1310.6 -0.551868 0.510828 0
M  V30 13519 H 1312.57 -1.51879 2.56856 0
M  V30 13520 C 1311.32 -3.05002 1.6694 0
M  V30 13521 H 1310.64 -3.09157 2.53499 0
M  V30 13522 H 1312.08 -3.8347 1.80904 0
M  V30 13523 C 1310.54 -3.34445 0.40598 0
M  V30 13524 O 1311.07 -3.98753 -0.485676 0
M  V30 13525 N 1309.28 -2.8924 0.280857 0
M  V30 13526 H 1308.82 -2.37085 1.00741 0
M  V30 13527 H 1308.78 -3.09309 -0.563493 0
M  V30 13528 N 1312.55 -1.36459 -0.788468 0
M  V30 13529 C 1313.97 -1.16893 -1.08666 0
M  V30 13530 C 1314.17 0.00633808 -2.01499 0
M  V30 13531 O 1313.22 0.671417 -2.4341 0
M  V30 13532 C 1314.54 -2.48018 -1.70022 0
M  V30 13533 C 1316.09 -2.5439 -1.82358 0
M  V30 13534 C 1316.56 -3.85605 -2.47129 0
M  V30 13535 N 1318.05 -3.86956 -2.54597 0
M  V30 13536 C 1318.79 -4.85224 -3.05525 0
M  V30 13537 N 1318.28 -5.93885 -3.56753 0
M  V30 13538 N 1320.08 -4.72643 -3.04246 0
M  V30 13539 H 1312.23 -2.11705 -0.171733 0
M  V30 13540 H 1314.49 -0.937784 -0.1388 0
M  V30 13541 H 1314.2 -3.34292 -1.09277 0
M  V30 13542 H 1314.07 -2.63894 -2.69518 0
M  V30 13543 H 1316.46 -1.68534 -2.4224 0
M  V30 13544 H 1316.54 -2.42414 -0.816651 0
M  V30 13545 H 1316.18 -4.71868 -1.87891 0
M  V30 13546 H 1316.11 -3.94878 -3.48395 0
M  V30 13547 H 1318.6 -3.08453 -2.18323 0
M  V30 13548 H 1318.92 -6.64839 -3.93966 0
M  V30 13549 H 1317.26 -5.97553 -3.54902 0
M  V30 13550 H 1320.45 -3.86883 -2.63513 0
M  V30 13551 H 1320.62 -5.49385 -3.43627 0
M  V30 13552 N 1314.03 1.01274 -1.20754 0
M  V30 13553 C 1315.31 1.7213 -0.929008 0
M  V30 13554 C 1315.69 2.03503 0.561217 0
M  V30 13555 O 1315.04 1.70259 1.52395 0
M  V30 13556 C 1315.25 2.98636 -1.80603 0
M  V30 13557 C 1316.59 3.71823 -2.0502 0
M  V30 13558 O 1317.62 3.08601 -1.77888 0
M  V30 13559 O 1316.48 4.8552 -2.50864 0
M  V30 13560 H 1313.57 0.750361 -0.347689 0
M  V30 13561 H 1316.12 1.07086 -1.31646 0
M  V30 13562 H 1314.89 2.71803 -2.81494 0
M  V30 13563 H 1314.51 3.7142 -1.4189 0
M  V30 13564 N 1315.51 1.01404 1.20644 0
M  V30 13565 C 1316.44 0.602465 2.25594 0
M  V30 13566 C 1317.42 -0.381216 1.65773 0
M  V30 13567 O 1318.61 -0.267209 1.92353 0
M  V30 13568 C 1315.74 -0.0626245 3.47244 0
M  V30 13569 C 1314.69 0.841776 4.1964 0
M  V30 13570 C 1314.02 0.0426002 5.34683 0
M  V30 13571 C 1315.32 2.14864 4.76058 0
M  V30 13572 H 1317.01 1.47977 2.60275 0
M  V30 13573 H 1314.56 0.712966 1.25111 0
M  V30 13574 H 1316.51 -0.362095 4.19841 0
M  V30 13575 H 1315.23 -0.974627 3.11719 0
M  V30 13576 H 1313.89 1.12521 3.48905 0
M  V30 13577 H 1313.54 -0.870973 4.95402 0
M  V30 13578 H 1313.24 0.644866 5.84051 0
M  V30 13579 H 1314.76 -0.250476 6.10086 0
M  V30 13580 H 1316.18 1.9117 5.40488 0
M  V30 13581 H 1314.57 2.70153 5.35852 0
M  V30 13582 H 1315.64 2.81336 3.9494 0
M  V30 13583 N 1316.99 -1.36373 0.789944 0
M  V30 13584 C 1317.92 -2.32616 0.202944 0
M  V30 13585 C 1318.9 -1.56674 -0.662364 0
M  V30 13586 O 1320.08 -1.84826 -0.596078 0
M  V30 13587 C 1317.21 -3.4092 -0.662646 0
M  V30 13588 C 1316.17 -4.27877 0.102811 0
M  V30 13589 C 1315.49 -5.27352 -0.883407 0
M  V30 13590 C 1316.79 -5.0606 1.29231 0
M  V30 13591 H 1318.49 -2.81958 1.00699 0
M  V30 13592 H 1316.03 -1.35562 0.48568 0
M  V30 13593 H 1317.99 -4.07239 -1.08324 0
M  V30 13594 H 1316.71 -2.90147 -1.4994 0
M  V30 13595 H 1315.37 -3.63114 0.504389 0
M  V30 13596 H 1315.02 -4.72853 -1.71521 0
M  V30 13597 H 1314.72 -5.86398 -0.375669 0
M  V30 13598 H 1316.24 -5.96545 -1.30256 0
M  V30 13599 H 1317.66 -5.65417 0.947446 0
M  V30 13600 H 1316.05 -5.74521 1.73338 0
M  V30 13601 H 1317.12 -4.37671 2.08739 0
M  V30 13602 N 1318.47 -0.542005 -1.47987 0
M  V30 13603 C 1319.71 -0.0123299 -2.02796 0
M  V30 13604 C 1320.04 1.32789 -1.41707 0
M  V30 13605 O 1319.32 1.86048 -0.567119 0
M  V30 13606 C 1319.6 0.0969277 -3.5997 0
M  V30 13607 C 1319.46 -1.26931 -4.31519 0
M  V30 13608 C 1320.77 0.817854 -4.32434 0
M  V30 13609 H 1317.89 -0.00595479 -0.736976 0
M  V30 13610 H 1320.54 -0.70136 -1.76581 0
M  V30 13611 H 1318.69 0.683755 -3.82436 0
M  V30 13612 H 1320.36 -1.89817 -4.20437 0
M  V30 13613 H 1318.6 -1.84804 -3.92467 0
M  V30 13614 H 1319.27 -1.14573 -5.39979 0
M  V30 13615 H 1321.75 0.319749 -4.1487 0
M  V30 13616 H 1320.62 0.863225 -5.4207 0
M  V30 13617 H 1320.88 1.87075 -4.00569 0
M  V30 13618 N 1319.94 1.55134 -0.277709 0
M  V30 13619 C 1321.17 2.04519 0.344472 0
M  V30 13620 C 1321.59 1.15466 1.4849 0
M  V30 13621 O 1320.95 0.153798 1.80646 0
M  V30 13622 C 1321 3.51602 0.800527 0
M  V30 13623 O 1320.1 3.65632 1.90754 0
M  V30 13624 H 1319.44 0.660212 0.0708226 0
M  V30 13625 H 1321.97 2.00393 -0.412764 0
M  V30 13626 H 1321.98 3.93015 1.09559 0
M  V30 13627 H 1320.66 4.15886 -0.033838 0
M  V30 13628 H 1319.24 3.36122 1.61481 0
M  V30 13629 N 1321.42 0.00503138 1.57599 0
M  V30 13630 C 1322.65 -0.689609 1.95069 0
M  V30 13631 C 1323.06 -1.67028 0.880183 0
M  V30 13632 O 1322.42 -1.81959 -0.140406 0
M  V30 13633 C 1322.47 -1.41709 3.32567 0
M  V30 13634 O 1322.19 -0.475746 4.35509 0
M  V30 13635 C 1323.69 -2.20578 3.84526 0
M  V30 13636 H 1320.91 -0.19175 0.643019 0
M  V30 13637 H 1323.46 0.057646 2.04419 0
M  V30 13638 H 1321.61 -2.11593 3.2451 0
M  V30 13639 H 1322.03 -0.989573 5.1508 0
M  V30 13640 H 1323.5 -2.66969 4.83148 0
M  V30 13641 H 1323.98 -3.03467 3.17497 0
M  V30 13642 H 1324.58 -1.557 3.95775 0
M  V30 13643 N 1322.9 -1.55308 -0.267798 0
M  V30 13644 C 1324.13 -1.80191 -1.01681 0
M  V30 13645 C 1324.54 -0.57783 -1.7974 0
M  V30 13646 O 1323.9 0.4532 -1.76783 0
M  V30 13647 C 1323.95 -3.03023 -1.97127 0
M  V30 13648 O 1323.67 -4.20704 -1.22229 0
M  V30 13649 C 1325.17 -3.40549 -2.83798 0
M  V30 13650 H 1322.39 -0.60013 -0.300142 0
M  V30 13651 H 1324.94 -2.02332 -0.297007 0
M  V30 13652 H 1323.09 -2.82993 -2.64563 0
M  V30 13653 H 1323.51 -4.90181 -1.86608 0
M  V30 13654 H 1324.98 -4.29653 -3.46557 0
M  V30 13655 H 1325.46 -2.60186 -3.53836 0
M  V30 13656 H 1326.06 -3.62856 -2.21846 0
M  V30 13657 N 1324.38 0.532545 -1.4833 0
M  V30 13658 C 1325.61 1.31331 -1.59874 0
M  V30 13659 C 1326.02 1.87028 -0.258037 0
M  V30 13660 O 1325.38 1.66272 0.752317 0
M  V30 13661 C 1325.43 2.46596 -2.64334 0
M  V30 13662 O 1325.15 1.93195 -3.93201 0
M  V30 13663 C 1326.65 3.38454 -2.86294 0
M  V30 13664 H 1323.87 0.399476 -0.539129 0
M  V30 13665 H 1326.41 0.642696 -1.94138 0
M  V30 13666 H 1324.57 3.09548 -2.32936 0
M  V30 13667 H 1324.98 2.68627 -4.50489 0
M  V30 13668 H 1326.46 4.15687 -3.63192 0
M  V30 13669 H 1326.93 3.93526 -1.95022 0
M  V30 13670 H 1327.54 2.81297 -3.18986 0
M  V30 13671 N 1325.86 1.36875 0.78122 0
M  V30 13672 C 1326.82 1.31706 1.8758 0
M  V30 13673 C 1327.82 0.223044 1.59246 0
M  V30 13674 O 1329.01 0.478327 1.67504 0
M  V30 13675 C 1326.14 1.0437 3.2453 0
M  V30 13676 H 1327.33 2.29059 1.93576 0
M  V30 13677 H 1324.89 1.21766 0.979931 0
M  V30 13678 H 1325.62 0.0750941 3.24213 0
M  V30 13679 H 1325.41 1.83548 3.46486 0
M  V30 13680 H 1326.9 1.0338 4.04602 0
M  V30 13681 N 1327.33 -1.00632 1.21289 0
M  V30 13682 C 1328.28 -2.07791 0.938459 0
M  V30 13683 C 1329.27 -1.60552 -0.105773 0
M  V30 13684 O 1330.46 -1.767 0.102981 0
M  V30 13685 C 1327.59 -3.39587 0.503563 0
M  V30 13686 C 1326.67 -3.93497 1.58179 0
M  V30 13687 N 1327.07 -4.20792 2.80656 0
M  V30 13688 C 1325.36 -4.21759 1.45035 0
M  V30 13689 C 1326.06 -4.64411 3.50281 0
M  V30 13690 N 1325.04 -4.67305 2.77717 0
M  V30 13691 H 1328.84 -2.26816 1.869 0
M  V30 13692 H 1326.36 -1.18692 1.10842 0
M  V30 13693 H 1328.35 -4.15902 0.288323 0
M  V30 13694 H 1327.01 -3.21969 -0.420233 0
M  V30 13695 H 1328.02 -4.09386 3.17212 0
M  V30 13696 H 1324.7 -4.13285 0.591745 0
M  V30 13697 H 1326.09 -4.94263 4.55141 0
M  V30 13698 N 1328.81 -1.02043 -1.20104 0
M  V30 13699 C 1330.06 -0.710566 -1.89197 0
M  V30 13700 C 1330.38 0.762471 -1.79475 0
M  V30 13701 O 1329.65 1.54871 -1.19965 0
M  V30 13702 H 1328.23 -0.259839 -0.700352 0
M  V30 13703 H 1330.89 -1.29285 -1.45848 0
M  V30 13704 H 1329.99 -0.997363 -2.95735 0
M  V30 13705 N 1330.29 1.35952 -0.797165 0
M  V30 13706 C 1331.53 2.00862 -0.378652 0
M  V30 13707 C 1331.89 1.61886 1.03233 0
M  V30 13708 O 1333.1 2.19444 1.55234 0
M  V30 13709 C 1331.37 3.53207 -0.545845 0
M  V30 13710 S 1332.93 4.38266 -0.216358 0
M  V30 13711 H 1329.74 0.69621 -0.144268 0
M  V30 13712 H 1332.35 1.65708 -1.03735 0
M  V30 13713 H 1331.05 3.79062 -1.57291 0
M  V30 13714 H 1330.58 3.9319 0.128514 0
M  V30 13715 H 1332.6 4.86439 0.979344 0
M  V30 13716 N 1331.77 0.549846 1.47697 0
M  V30 13717 C 1333.05 -0.0422793 1.95554 0
M  V30 13718 C 1333.43 -1.49303 1.49238 0
M  V30 13719 O 1332.77 -2.16598 0.727844 0
M  V30 13720 C 1332.98 0.0955552 3.48869 0
M  V30 13721 C 1334.33 -0.0535698 4.24566 0
M  V30 13722 O 1335.36 0.0227365 3.56193 0
M  V30 13723 O 1334.21 -0.21645 5.46071 0
M  V30 13724 H 1331.31 -0.0682465 0.824179 0
M  V30 13725 H 1333.85 0.615849 1.58131 0
M  V30 13726 H 1332.63 1.10536 3.75363 0
M  V30 13727 H 1332.25 -0.600522 3.93039 0
M  V30 13728 N 1333.25 -1.54984 0.285932 0
M  V30 13729 C 1334.5 -1.99008 -0.328433 0
M  V30 13730 C 1334.81 -1.17787 -1.56158 0
M  V30 13731 O 1336.01 -1.52006 -2.24959 0
M  V30 13732 C 1334.47 -3.54241 -0.635688 0
M  V30 13733 C 1334.08 -4.44252 0.578271 0
M  V30 13734 C 1335.82 -4.06828 -1.21208 0
M  V30 13735 C 1333.73 -5.90892 0.245003 0
M  V30 13736 H 1332.66 -0.743314 -0.126494 0
M  V30 13737 H 1335.31 -1.79258 0.39228 0
M  V30 13738 H 1333.69 -3.69834 -1.41559 0
M  V30 13739 H 1334.87 -4.40431 1.35489 0
M  V30 13740 H 1333.18 -4.02358 1.07225 0
M  V30 13741 H 1335.78 -5.13941 -1.47542 0
M  V30 13742 H 1336.12 -3.56515 -2.14948 0
M  V30 13743 H 1336.65 -3.94718 -0.494222 0
M  V30 13744 H 1333.39 -6.45323 1.15057 0
M  V30 13745 H 1332.91 -5.97757 -0.494636 0
M  V30 13746 H 1334.59 -6.46805 -0.158891 0
M  V30 13747 N 1334.72 -0.0133892 -1.57594 0
M  V30 13748 C 1335.97 0.667896 -1.90321 0
M  V30 13749 C 1336.29 1.74187 -0.88984 0
M  V30 13750 O 1337.49 2.47871 -1.10779 0
M  V30 13751 C 1335.95 1.23917 -3.37894 0
M  V30 13752 C 1335.56 0.199313 -4.47556 0
M  V30 13753 C 1337.3 1.89788 -3.79712 0
M  V30 13754 C 1335.21 0.781339 -5.86216 0
M  V30 13755 H 1334.14 0.253229 -0.710205 0
M  V30 13756 H 1336.79 -0.0761229 -1.83342 0
M  V30 13757 H 1335.17 2.03429 -3.39754 0
M  V30 13758 H 1336.34 -0.572196 -4.57234 0
M  V30 13759 H 1334.66 -0.359719 -4.14843 0
M  V30 13760 H 1337.26 2.34262 -4.80651 0
M  V30 13761 H 1337.6 2.73406 -3.13934 0
M  V30 13762 H 1338.13 1.16989 -3.80208 0
M  V30 13763 H 1334.87 -0.0163598 -6.55498 0
M  V30 13764 H 1334.39 1.5217 -5.80176 0
M  V30 13765 H 1336.07 1.2759 -6.34295 0
M  V30 13766 N 1336.2 1.55448 0.259558 0
M  V30 13767 C 1337.17 1.88459 1.30445 0
M  V30 13768 C 1338.17 0.760096 1.41701 0
M  V30 13769 O 1339.36 1.02819 1.4062 0
M  V30 13770 C 1336.49 2.10181 2.68397 0
M  V30 13771 H 1337.68 2.81877 1.02398 0
M  V30 13772 H 1335.23 1.48145 0.498262 0
M  V30 13773 H 1335.97 1.19189 3.01603 0
M  V30 13774 H 1335.75 2.92066 2.6161 0
M  V30 13775 H 1337.24 2.36947 3.43869 0
M  V30 13776 N 1337.68 -0.524672 1.4861 0
M  V30 13777 C 1339.1 -0.853703 1.34848 0
M  V30 13778 C 1339.3 -1.98194 0.363529 0
M  V30 13779 O 1338.35 -2.51597 -0.213348 0
M  V30 13780 C 1339.67 -1.21622 2.75006 0
M  V30 13781 C 1341.21 -1.3258 2.83534 0
M  V30 13782 C 1341.69 -1.72172 4.24406 0
M  V30 13783 N 1343.18 -1.79265 4.27105 0
M  V30 13784 C 1343.91 -2.11296 5.33049 0
M  V30 13785 N 1343.41 -2.41714 6.49266 0
M  V30 13786 N 1345.2 -2.12347 5.20447 0
M  V30 13787 H 1337.35 0.219671 2.11261 0
M  V30 13788 H 1339.62 0.0356444 0.94733 0
M  V30 13789 H 1339.32 -0.460776 3.48669 0
M  V30 13790 H 1339.2 -2.16516 3.0887 0
M  V30 13791 H 1341.58 -2.072 2.10124 0
M  V30 13792 H 1341.67 -0.357943 2.53283 0
M  V30 13793 H 1341.31 -0.981108 4.98334 0
M  V30 13794 H 1341.24 -2.70017 4.52104 0
M  V30 13795 H 1343.73 -1.58013 3.43279 0
M  V30 13796 H 1344.04 -2.65276 7.25843 0
M  V30 13797 H 1342.39 -2.39222 6.52532 0
M  V30 13798 H 1345.58 -1.88044 4.28669 0
M  V30 13799 H 1345.75 -2.36978 6.03113 0
M  V30 13800 N 1339.16 -1.37287 -0.77395 0
M  V30 13801 C 1340.4 -1.33771 -1.54547 0
M  V30 13802 C 1340.76 0.0778134 -1.91842 0
M  V30 13803 O 1341.96 0.237682 -2.67747 0
M  V30 13804 C 1340.23 -2.24859 -2.77801 0
M  V30 13805 S 1341.79 -2.39172 -3.67889 0
M  V30 13806 H 1338.61 -0.474918 -0.529126 0
M  V30 13807 H 1341.21 -1.73015 -0.910287 0
M  V30 13808 H 1339.92 -3.2663 -2.48478 0
M  V30 13809 H 1339.45 -1.86691 -3.4628 0
M  V30 13810 H 1341.46 -1.60068 -4.69673 0
M  V30 13811 N 1340.64 0.999871 -1.21821 0
M  V30 13812 C 1342.05 1.26228 -0.976664 0
M  V30 13813 C 1342.25 1.98714 0.333915 0
M  V30 13814 O 1341.31 2.29252 1.05829 0
M  V30 13815 C 1342.62 2.08089 -2.1707 0
M  V30 13816 C 1344.17 2.21298 -2.21351 0
M  V30 13817 C 1344.64 3.06544 -3.40287 0
M  V30 13818 N 1346.14 3.14131 -3.40405 0
M  V30 13819 C 1346.87 3.80362 -4.29083 0
M  V30 13820 N 1346.37 4.48577 -5.27968 0
M  V30 13821 N 1348.16 3.77053 -4.16878 0
M  V30 13822 H 1340.31 0.513704 -2.06094 0
M  V30 13823 H 1342.57 0.289447 -0.902732 0
M  V30 13824 H 1342.28 1.62183 -3.12073 0
M  V30 13825 H 1342.15 3.08843 -2.16554 0
M  V30 13826 H 1344.54 2.66422 -1.269 0
M  V30 13827 H 1344.62 1.19997 -2.25908 0
M  V30 13828 H 1344.27 2.62122 -4.35034 0
M  V30 13829 H 1344.2 4.0797 -3.32969 0
M  V30 13830 H 1346.69 2.65576 -2.68846 0
M  V30 13831 H 1347 4.96833 -5.91926 0
M  V30 13832 H 1345.34 4.47348 -5.31888 0
M  V30 13833 H 1348.54 3.22918 -3.38883 0
M  V30 13834 H 1348.71 4.2839 -4.86195 0
M  V30 13835 N 1342.11 1.02678 1.19562 0
M  V30 13836 C 1343.35 0.7307 1.90893 0
M  V30 13837 C 1343.72 -0.727166 1.77697 0
M  V30 13838 O 1344.92 -1.13623 2.43605 0
M  V30 13839 C 1343.19 1.16683 3.37816 0
M  V30 13840 S 1344.75 0.994271 4.27387 0
M  V30 13841 H 1341.57 0.266082 0.659334 0
M  V30 13842 H 1344.17 1.31617 1.44558 0
M  V30 13843 H 1342.87 2.22354 3.44945 0
M  V30 13844 H 1342.4 0.574559 3.89182 0
M  V30 13845 H 1344.42 -0.0963871 4.96106 0
M  V30 13846 N 1343.59 -1.35528 0.804364 0
M  V30 13847 C 1344.82 -2.03073 0.396091 0
M  V30 13848 C 1345.24 -1.60623 -0.992252 0
M  V30 13849 O 1344.59 -0.802718 -1.63898 0
M  V30 13850 C 1344.64 -3.58467 0.467301 0
M  V30 13851 O 1344.36 -3.99373 1.80091 0
M  V30 13852 C 1345.87 -4.4327 0.0515549 0
M  V30 13853 H 1343.09 -0.651346 0.161212 0
M  V30 13854 H 1345.63 -1.73195 1.08737 0
M  V30 13855 H 1343.78 -3.87001 -0.175703 0
M  V30 13856 H 1344.2 -4.94013 1.76214 0
M  V30 13857 H 1345.67 -5.51789 0.152499 0
M  V30 13858 H 1346.15 -4.27597 -1.00286 0
M  V30 13859 H 1346.76 -4.20027 0.667628 0
M  V30 13860 N 1345.07 -0.557671 -1.47404 0
M  V30 13861 C 1346.3 -0.0386599 -2.06864 0
M  V30 13862 C 1346.71 1.25527 -1.41027 0
M  V30 13863 O 1346.07 1.75318 -0.506949 0
M  V30 13864 C 1346.12 0.160141 -3.61145 0
M  V30 13865 O 1345.84 -1.08255 -4.24515 0
M  V30 13866 C 1347.34 0.716381 -4.37473 0
M  V30 13867 H 1344.56 -0.0460523 -0.669418 0
M  V30 13868 H 1347.11 -0.771214 -1.894 0
M  V30 13869 H 1345.26 0.842826 -3.78121 0
M  V30 13870 H 1345.68 -0.88057 -5.17055 0
M  V30 13871 H 1347.15 0.804773 -5.46102 0
M  V30 13872 H 1347.63 1.72776 -4.03788 0
M  V30 13873 H 1348.23 0.0693787 -4.25243 0
M  V30 13874 N 1346.55 1.54831 -0.294147 0
M  V30 13875 C 1347.8 1.99606 0.316509 0
M  V30 13876 C 1348.12 1.18405 1.54936 0
M  V30 13877 O 1347.39 0.278289 1.93913 0
M  V30 13878 H 1345.97 0.737309 0.119938 0
M  V30 13879 H 1348.63 1.90669 -0.403891 0
M  V30 13880 H 1347.73 3.06409 0.593282 0
M  V30 13881 N 1348.03 0.0217466 1.57585 0
M  V30 13882 C 1349.27 -0.659463 1.91778 0
M  V30 13883 C 1349.61 -1.72201 0.897801 0
M  V30 13884 O 1348.88 -1.94333 -0.080509 0
M  V30 13885 C 1349.16 -1.28269 3.36481 0
M  V30 13886 C 1349.02 -0.230201 4.49211 0
M  V30 13887 C 1350.34 -2.20279 3.81005 0
M  V30 13888 H 1347.46 -0.238263 0.697424 0
M  V30 13889 H 1350.1 0.0774967 1.89842 0
M  V30 13890 H 1348.25 -1.9108 3.38262 0
M  V30 13891 H 1349.92 0.399901 4.59563 0
M  V30 13892 H 1348.16 0.445157 4.3151 0
M  V30 13893 H 1348.83 -0.705732 5.4747 0
M  V30 13894 H 1351.31 -1.67463 3.80914 0
M  V30 13895 H 1350.19 -2.60842 4.82962 0
M  V30 13896 H 1350.45 -3.09092 3.16093 0
M  V30 13897 N 1349.51 -1.55583 -0.251311 0
M  V30 13898 C 1350.74 -1.80996 -0.99619 0
M  V30 13899 C 1351.14 -0.594534 -1.79616 0
M  V30 13900 O 1350.49 0.446197 -1.78199 0
M  V30 13901 C 1350.55 -2.99691 -1.98559 0
M  V30 13902 C 1350.21 -4.35888 -1.37297 0
M  V30 13903 C 1351.21 -5.14051 -0.777672 0
M  V30 13904 C 1348.89 -4.82579 -1.39366 0
M  V30 13905 C 1350.89 -6.3705 -0.211225 0
M  V30 13906 C 1348.58 -6.05528 -0.823357 0
M  V30 13907 C 1349.57 -6.82602 -0.233163 0
M  V30 13908 O 1349.26 -8.03229 0.328345 0
M  V30 13909 H 1348.99 -0.606287 -0.298985 0
M  V30 13910 H 1351.55 -2.03471 -0.280813 0
M  V30 13911 H 1349.78 -2.7296 -2.73915 0
M  V30 13912 H 1351.47 -3.12235 -2.59354 0
M  V30 13913 H 1352.23 -4.791 -0.754228 0
M  V30 13914 H 1348.11 -4.22582 -1.84243 0
M  V30 13915 H 1351.66 -6.97152 0.250073 0
M  V30 13916 H 1347.55 -6.39957 -0.844114 0
M  V30 13917 H 1348.32 -8.18205 0.219785 0
M  V30 13918 N 1350.98 0.516783 -1.48886 0
M  V30 13919 C 1352.23 1.27187 -1.57574 0
M  V30 13920 C 1352.56 1.92815 -0.255432 0
M  V30 13921 O 1351.81 1.80533 0.755403 0
M  V30 13922 C 1352.11 2.37296 -2.67256 0
M  V30 13923 C 1351.78 1.89232 -4.0927 0
M  V30 13924 C 1350.44 1.75842 -4.47921 0
M  V30 13925 C 1352.79 1.53073 -4.98215 0
M  V30 13926 C 1350.12 1.24648 -5.73306 0
M  V30 13927 C 1352.47 1.03337 -6.24103 0
M  V30 13928 C 1351.14 0.885744 -6.61597 0
M  V30 13929 H 1350.41 0.46541 -0.576606 0
M  V30 13930 H 1353.05 0.575223 -1.82657 0
M  V30 13931 H 1351.36 3.12685 -2.36084 0
M  V30 13932 H 1353.06 2.95393 -2.7119 0
M  V30 13933 H 1349.65 2.00608 -3.78754 0
M  V30 13934 H 1353.83 1.62272 -4.69022 0
M  V30 13935 H 1349.09 1.11917 -6.0107 0
M  V30 13936 H 1353.26 0.744338 -6.92411 0
M  V30 13937 H 1350.89 0.486866 -7.58639 0
M  V30 13938 N 1352.46 1.37696 0.766659 0
M  V30 13939 C 1353.7 1.34588 1.53836 0
M  V30 13940 C 1354.07 -0.0676384 1.91881 0
M  V30 13941 O 1355.27 -0.223479 2.67869 0
M  V30 13942 C 1353.54 2.26329 2.76604 0
M  V30 13943 S 1355.1 2.4112 3.66615 0
M  V30 13944 H 1351.91 0.477717 0.5266 0
M  V30 13945 H 1354.52 1.73495 0.901099 0
M  V30 13946 H 1353.22 3.27943 2.46742 0
M  V30 13947 H 1352.75 1.88525 3.45285 0
M  V30 13948 H 1354.77 1.62556 4.68818 0
M  V30 13949 N 1353.94 -0.993397 1.22349 0
M  V30 13950 C 1354.9 -2.065 0.994506 0
M  V30 13951 C 1355.9 -1.60753 -0.0388766 0
M  V30 13952 O 1357.09 -1.73053 0.199578 0
M  V30 13953 C 1354.22 -3.37182 0.502088 0
M  V30 13954 H 1355.42 -2.28248 1.94533 0
M  V30 13955 H 1352.97 -1.16489 1.04211 0
M  V30 13956 H 1353.71 -3.21119 -0.453114 0
M  V30 13957 H 1353.49 -3.71721 1.24763 0
M  V30 13958 H 1354.98 -4.16027 0.362108 0
M  V30 13959 N 1355.42 -1.03311 -1.19015 0
M  V30 13960 C 1356.64 -0.751686 -1.93299 0
M  V30 13961 C 1357.07 0.68392 -1.75226 0
M  V30 13962 O 1356.43 1.47274 -1.05736 0
M  V30 13963 C 1356.47 -1.11335 -3.42982 0
M  V30 13964 O 1355.58 -0.234434 -4.11733 0
M  V30 13965 H 1354.92 -0.277331 -0.60331 0
M  V30 13966 H 1357.45 -1.38092 -1.5097 0
M  V30 13967 H 1357.46 -1.07204 -3.93664 0
M  V30 13968 H 1356.13 -2.15922 -3.55458 0
M  V30 13969 H 1354.71 -0.3347 -3.71395 0
M  V30 13970 N 1356.9 1.35099 -0.81154 0
M  V30 13971 C 1357.84 2.29717 -0.223372 0
M  V30 13972 C 1358.81 1.53049 0.645396 0
M  V30 13973 O 1360 1.81467 0.589436 0
M  V30 13974 C 1357.14 3.3952 0.618057 0
M  V30 13975 C 1356.25 4.31145 -0.271693 0
M  V30 13976 C 1355.39 5.28044 0.578214 0
M  V30 13977 C 1354.42 6.11306 -0.311628 0
M  V30 13978 N 1353.56 7.00328 0.498539 0
M  V30 13979 H 1358.4 2.79426 -1.03563 0
M  V30 13980 H 1355.94 1.37518 -0.522231 0
M  V30 13981 H 1357.9 4.01854 1.12111 0
M  V30 13982 H 1356.53 2.91075 1.39554 0
M  V30 13983 H 1355.58 3.69773 -0.892885 0
M  V30 13984 H 1356.89 4.89545 -0.956392 0
M  V30 13985 H 1356.04 5.95774 1.1462 0
M  V30 13986 H 1354.78 4.70152 1.29646 0
M  V30 13987 H 1353.79 5.42518 -0.891849 0
M  V30 13988 H 1355.01 6.71277 -1.02781 0
M  V30 13989 H 1352.96 6.44919 1.20067 0
M  V30 13990 H 1352.88 7.55892 -0.12801 0
M  V30 13991 H 1354.14 7.72401 1.04965 0
M  V30 13992 N 1358.37 0.56548 1.47106 0
M  V30 13993 C 1359.32 -0.190542 2.31818 0
M  V30 13994 C 1360.32 -0.901279 1.43434 0
M  V30 13995 O 1361.52 -0.821625 1.60154 0
M  V30 13996 H 1357.9 -0.0803183 0.747698 0
M  V30 13997 H 1359.87 0.542999 2.93418 0
M  V30 13998 C 1358.62 -1.20208 3.2626 0
M  V30 13999 H 1357.94 -0.664608 3.94237 0
M  V30 14000 H 1359.38 -1.7018 3.88349 0
M  V30 14001 C 1357.84 -2.25423 2.50372 0
M  V30 14002 O 1358.37 -3.3249 2.25418 0
M  V30 14003 N 1356.57 -1.9957 2.11235 0
M  V30 14004 H 1356.12 -1.12513 2.31729 0
M  V30 14005 H 1356.08 -2.70182 1.60777 0
M  V30 14006 N 1359.85 -1.54672 0.302354 0
M  V30 14007 C 1360.8 -2.2357 -0.573141 0
M  V30 14008 C 1361.77 -1.21878 -1.12849 0
M  V30 14009 O 1362.95 -1.50502 -1.17277 0
M  V30 14010 C 1360.09 -2.98111 -1.7385 0
M  V30 14011 C 1359.21 -4.14579 -1.21441 0
M  V30 14012 C 1358.34 -4.76699 -2.34374 0
M  V30 14013 C 1357.38 -5.8531 -1.79106 0
M  V30 14014 N 1356.52 -6.41379 -2.85618 0
M  V30 14015 H 1361.36 -2.97993 0.0209969 0
M  V30 14016 H 1358.9 -1.47083 0.0221318 0
M  V30 14017 H 1360.85 -3.39561 -2.42392 0
M  V30 14018 H 1359.48 -2.26063 -2.30425 0
M  V30 14019 H 1358.54 -3.78061 -0.421204 0
M  V30 14020 H 1359.85 -4.92824 -0.769821 0
M  V30 14021 H 1359 -5.21009 -3.10861 0
M  V30 14022 H 1357.74 -3.9779 -2.8216 0
M  V30 14023 H 1356.75 -5.40423 -1.01109 0
M  V30 14024 H 1357.97 -6.66104 -1.32222 0
M  V30 14025 H 1355.92 -5.65352 -3.32735 0
M  V30 14026 H 1355.83 -7.14974 -2.45659 0
M  V30 14027 H 1357.1 -6.90346 -3.61998 0
M  V30 14028 N 1361.33 -0.0301034 -1.57571 0
M  V30 14029 C 1362.28 0.960604 -2.06776 0
M  V30 14030 C 1363.26 1.28488 -0.968483 0
M  V30 14031 O 1364.46 1.27083 -1.23203 0
M  V30 14032 C 1361.59 2.24268 -2.59921 0
M  V30 14033 C 1360.67 1.94673 -3.7678 0
M  V30 14034 N 1361.06 1.3535 -4.87354 0
M  V30 14035 C 1359.36 2.24658 -3.85285 0
M  V30 14036 C 1360.06 1.22909 -5.68567 0
M  V30 14037 N 1359.04 1.72493 -5.15507 0
M  V30 14038 H 1362.84 0.496931 -2.89668 0
M  V30 14039 H 1360.35 0.174886 -1.61456 0
M  V30 14040 H 1362.35 2.96116 -2.93463 0
M  V30 14041 H 1361.01 2.71261 -1.78459 0
M  V30 14042 H 1362.02 1.02839 -5.07587 0
M  V30 14043 H 1358.7 2.74318 -3.14731 0
M  V30 14044 H 1360.09 0.7703 -6.6747 0
M  V30 14045 N 1362.81 1.55714 0.243056 0
M  V30 14046 C 1364.04 1.81522 0.986577 0
M  V30 14047 C 1364.45 0.604051 1.79298 0
M  V30 14048 O 1363.79 -0.43674 1.78433 0
M  V30 14049 C 1363.85 3.0074 1.96967 0
M  V30 14050 C 1363.52 4.3661 1.34983 0
M  V30 14051 C 1364.51 5.14456 0.7504 0
M  V30 14052 C 1362.2 4.83311 1.36805 0
M  V30 14053 C 1364.19 6.37153 0.177438 0
M  V30 14054 C 1361.88 6.05956 0.791233 0
M  V30 14055 C 1362.88 6.82716 0.196959 0
M  V30 14056 O 1362.56 8.03044 -0.370938 0
M  V30 14057 H 1362.3 0.607864 0.295765 0
M  V30 14058 H 1364.85 2.03617 0.270018 0
M  V30 14059 H 1363.08 2.74409 2.72464 0
M  V30 14060 H 1364.77 3.13606 2.57694 0
M  V30 14061 H 1365.54 4.79493 0.728809 0
M  V30 14062 H 1361.41 4.23553 1.81999 0
M  V30 14063 H 1364.96 6.97009 -0.287042 0
M  V30 14064 H 1360.86 6.40396 0.810164 0
M  V30 14065 H 1361.62 8.18077 -0.263173 0
M  V30 14066 N 1364.29 -0.50888 1.49158 0
M  V30 14067 C 1365.7 -1.09054 1.51539 0
M  V30 14068 C 1366.05 -1.93938 0.297099 0
M  V30 14069 O 1365.17 -2.08092 -0.593849 0
M  V30 14070 C 1365.77 -1.98447 2.74599 0
M  V30 14071 C 1364.33 -2.5179 2.79783 0
M  V30 14072 C 1363.47 -1.29227 2.45348 0
M  V30 14073 H 1366.43 -0.293148 1.55969 0
M  V30 14074 H 1366.45 -2.83028 2.54314 0
M  V30 14075 H 1365.96 -1.3664 3.63251 0
M  V30 14076 H 1364.06 -3.17258 1.95392 0
M  V30 14077 H 1364.17 -2.89481 3.81756 0
M  V30 14078 H 1362.54 -1.61494 1.96957 0
M  V30 14079 H 1363.32 -0.6914 3.36266 0
M  V30 14080 N 1365.76 -1.381 -0.759346 0
M  V30 14081 C 1367.01 -1.33311 -1.51364 0
M  V30 14082 C 1367.33 0.0761325 -1.95452 0
M  V30 14083 O 1368.53 0.246541 -2.70378 0
M  V30 14084 C 1366.99 -2.34067 -2.73387 0
M  V30 14085 C 1366.6 -3.80583 -2.36348 0
M  V30 14086 C 1368.34 -2.38311 -3.51295 0
M  V30 14087 C 1366.25 -4.73039 -3.54948 0
M  V30 14088 H 1365.18 -0.495512 -0.568317 0
M  V30 14089 H 1367.83 -1.63625 -0.830602 0
M  V30 14090 H 1366.21 -1.96788 -3.43643 0
M  V30 14091 H 1367.38 -4.26769 -1.73796 0
M  V30 14092 H 1365.7 -3.79403 -1.71587 0
M  V30 14093 H 1368.3 -3.04586 -4.39467 0
M  V30 14094 H 1368.64 -1.40034 -3.92041 0
M  V30 14095 H 1369.17 -2.74361 -2.88047 0
M  V30 14096 H 1365.91 -5.7249 -3.19273 0
M  V30 14097 H 1365.43 -4.3155 -4.16563 0
M  V30 14098 H 1367.11 -4.90775 -4.21603 0
M  V30 14099 N 1367.24 0.986894 -1.22875 0
M  V30 14100 C 1368.47 1.768 -1.08427 0
M  V30 14101 C 1368.89 1.84612 0.360555 0
M  V30 14102 O 1368.25 1.30299 1.26063 0
M  V30 14103 C 1368.3 3.17638 -1.70701 0
M  V30 14104 O 1367.4 4.00957 -0.964752 0
M  V30 14105 H 1366.74 0.544199 -0.380451 0
M  V30 14106 H 1369.27 1.23931 -1.62795 0
M  V30 14107 H 1369.28 3.68243 -1.75672 0
M  V30 14108 H 1367.96 3.11267 -2.75837 0
M  V30 14109 H 1366.54 3.59477 -0.991493 0
M  V30 14110 N 1368.72 1.0394 1.18466 0
M  V30 14111 C 1369.97 0.742042 1.88414 0
M  V30 14112 C 1370.3 -0.730138 1.80275 0
M  V30 14113 O 1369.55 -1.54844 1.19674 0
M  V30 14114 C 1369.85 1.15198 3.38326 0
M  V30 14115 C 1369.52 2.62422 3.66668 0
M  V30 14116 C 1368.18 3.02643 3.74113 0
M  V30 14117 C 1370.53 3.5762 3.79153 0
M  V30 14118 C 1367.86 4.36953 3.91522 0
M  V30 14119 C 1370.21 4.91647 3.98077 0
M  V30 14120 C 1368.87 5.31541 4.03758 0
M  V30 14121 H 1368.14 0.271532 0.689457 0
M  V30 14122 H 1370.79 1.30419 1.40225 0
M  V30 14123 H 1369.1 0.508607 3.88485 0
M  V30 14124 H 1370.79 0.899269 3.90787 0
M  V30 14125 H 1367.38 2.30268 3.61489 0
M  V30 14126 H 1371.57 3.27693 3.72735 0
M  V30 14127 H 1366.82 4.67382 3.94163 0
M  V30 14128 H 1371 5.65318 4.0668 0
M  V30 14129 H 1368.62 6.35622 4.16999 0
M  V30 14130 N 1370.2 -1.34667 0.818693 0
M  V30 14131 C 1371.11 -2.33375 0.239429 0
M  V30 14132 C 1372.12 -1.62428 -0.623957 0
M  V30 14133 O 1373.3 -1.94223 -0.532854 0
M  V30 14134 C 1370.37 -3.41598 -0.59258 0
M  V30 14135 C 1369.43 -4.28301 0.292712 0
M  V30 14136 C 1368.66 -5.31356 -0.499682 0
M  V30 14137 O 1368.88 -5.43426 -1.73334 0
M  V30 14138 O 1367.82 -6.01789 0.115778 0
M  V30 14139 H 1371.64 -2.84738 1.05631 0
M  V30 14140 H 1369.23 -1.37651 0.58074 0
M  V30 14141 H 1371.11 -4.07692 -1.06607 0
M  V30 14142 H 1369.78 -2.92486 -1.38685 0
M  V30 14143 H 1368.69 -3.65145 0.81361 0
M  V30 14144 H 1370.02 -4.80843 1.05123 0
M  V30 14145 N 1371.68 -0.573274 -1.46804 0
M  V30 14146 C 1372.92 -0.0551522 -2.02025 0
M  V30 14147 C 1373.25 1.30577 -1.44826 0
M  V30 14148 O 1372.52 1.85514 -0.629403 0
M  V30 14149 H 1371.1 -0.0173982 -0.746797 0
M  V30 14150 H 1373.76 -0.746919 -1.8002 0
M  V30 14151 H 1372.85 0.0209326 -3.12093 0
M  V30 14152 N 1373.15 1.5451 -0.310553 0
M  V30 14153 C 1374.57 1.85829 0.180166 0
M  V30 14154 C 1374.92 1.23239 1.52665 0
M  V30 14155 O 1374.04 0.53359 2.09718 0
M  V30 14156 C 1374.64 3.37153 0.333687 0
M  V30 14157 C 1373.2 3.68469 0.768625 0
M  V30 14158 C 1372.34 2.77051 -0.117399 0
M  V30 14159 H 1375.29 1.49544 -0.531262 0
M  V30 14160 H 1375.31 3.62171 1.16673 0
M  V30 14161 H 1374.83 3.82678 -0.646455 0
M  V30 14162 H 1372.93 3.28467 1.75898 0
M  V30 14163 H 1373.04 4.75559 0.581392 0
M  V30 14164 H 1371.4 2.51461 0.404905 0
M  V30 14165 H 1372.19 3.254 -1.09407 0
M  V30 14166 N 1374.63 0.0384594 1.57553 0
M  V30 14167 C 1375.88 -0.636879 1.91803 0
M  V30 14168 C 1376.2 -1.72128 0.916347 0
M  V30 14169 O 1375.47 -1.95858 -0.0407405 0
M  V30 14170 H 1374.05 -0.238237 0.707992 0
M  V30 14171 H 1376.71 0.0884651 1.94699 0
M  V30 14172 H 1375.81 -1.08364 2.92683 0
M  V30 14173 N 1376.11 -1.55841 -0.234795 0
M  V30 14174 C 1377.36 -1.77438 -0.959094 0
M  V30 14175 C 1377.67 -0.604621 -1.86021 0
M  V30 14176 O 1378.88 -0.703897 -2.62217 0
M  V30 14177 C 1377.34 -3.14182 -1.7555 0
M  V30 14178 C 1376.94 -4.38843 -0.90118 0
M  V30 14179 C 1378.69 -3.45112 -2.47181 0
M  V30 14180 C 1376.59 -5.66614 -1.69417 0
M  V30 14181 H 1375.52 -0.661503 -0.361843 0
M  V30 14182 H 1378.18 -1.82255 -0.213364 0
M  V30 14183 H 1376.56 -3.03505 -2.54364 0
M  V30 14184 H 1377.73 -4.60541 -0.154515 0
M  V30 14185 H 1376.05 -4.15335 -0.297631 0
M  V30 14186 H 1378.64 -4.37794 -3.06986 0
M  V30 14187 H 1378.99 -2.66995 -3.19405 0
M  V30 14188 H 1379.52 -3.57059 -1.75368 0
M  V30 14189 H 1376.26 -6.47587 -1.01545 0
M  V30 14190 H 1375.78 -5.48998 -2.4158 0
M  V30 14191 H 1377.46 -6.06311 -2.25824 0
M  V30 14192 N 1377.59 0.500963 -1.49426 0
M  V30 14193 C 1378.84 1.25694 -1.5915 0
M  V30 14194 C 1379.17 1.92209 -0.277365 0
M  V30 14195 O 1378.44 1.8072 0.719065 0
M  V30 14196 C 1378.73 2.32391 -2.75076 0
M  V30 14197 C 1378.58 1.70377 -4.16283 0
M  V30 14198 C 1379.9 3.33952 -2.86643 0
M  V30 14199 H 1377.02 0.455631 -0.579283 0
M  V30 14200 H 1379.66 0.555099 -1.8171 0
M  V30 14201 H 1377.81 2.92252 -2.55971 0
M  V30 14202 H 1379.48 1.14343 -4.46904 0
M  V30 14203 H 1377.72 1.00789 -4.21929 0
M  V30 14204 H 1378.4 2.47767 -4.9327 0
M  V30 14205 H 1380.87 2.84081 -3.04035 0
M  V30 14206 H 1379.75 4.05969 -3.69433 0
M  V30 14207 H 1380.01 3.96279 -1.95998 0
M  V30 14208 N 1379.07 1.38501 0.752011 0
M  V30 14209 C 1379.98 1.38094 1.8965 0
M  V30 14210 C 1380.99 0.277851 1.71767 0
M  V30 14211 O 1382.17 0.516536 1.94663 0
M  V30 14212 C 1379.23 1.2063 3.25037 0
M  V30 14213 C 1378.3 2.40758 3.55435 0
M  V30 14214 C 1377.53 2.24118 4.84362 0
M  V30 14215 O 1377.75 1.23571 5.56854 0
M  V30 14216 O 1376.69 3.12741 5.14273 0
M  V30 14217 H 1380.51 2.34532 1.92947 0
M  V30 14218 H 1378.1 1.19437 0.897504 0
M  V30 14219 H 1379.98 1.12957 4.05979 0
M  V30 14220 H 1378.65 0.272785 3.22549 0
M  V30 14221 H 1377.56 2.54006 2.74648 0
M  V30 14222 H 1378.89 3.32745 3.62686 0
M  V30 14223 N 1380.55 -0.980364 1.23396 0
M  V30 14224 C 1381.79 -1.72421 1.06765 0
M  V30 14225 C 1382.12 -1.90151 -0.394515 0
M  V30 14226 O 1381.4 -1.4538 -1.29209 0
M  V30 14227 C 1381.68 -3.12246 1.79372 0
M  V30 14228 C 1381.54 -3.02087 3.33262 0
M  V30 14229 C 1382.85 -4.11667 1.55624 0
M  V30 14230 H 1379.97 -0.625822 0.389251 0
M  V30 14231 H 1382.62 -1.14132 1.51901 0
M  V30 14232 H 1380.77 -3.62008 1.41004 0
M  V30 14233 H 1382.44 -2.59848 3.81152 0
M  V30 14234 H 1380.68 -2.38592 3.62293 0
M  V30 14235 H 1381.35 -4.01087 3.79254 0
M  V30 14236 H 1383.83 -3.70712 1.88975 0
M  V30 14237 H 1382.7 -5.07593 2.08902 0
M  V30 14238 H 1382.96 -4.39358 0.491601 0
M  V30 14239 N 1382.02 -1.04567 -1.17913 0
M  V30 14240 C 1382.96 -0.599154 -2.2123 0
M  V30 14241 C 1383.97 0.333824 -1.59341 0
M  V30 14242 O 1385.16 0.127548 -1.78044 0
M  V30 14243 C 1382.26 0.144045 -3.38594 0
M  V30 14244 C 1381.43 -0.798061 -4.30058 0
M  V30 14245 C 1380.49 -0.0972548 -5.2611 0
M  V30 14246 O 1379.52 -0.729318 -5.64508 0
M  V30 14247 N 1380.72 1.16759 -5.68637 0
M  V30 14248 H 1383.48 -1.48781 -2.60162 0
M  V30 14249 H 1381.04 -0.926787 -1.32749 0
M  V30 14250 H 1383.04 0.622843 -3.99878 0
M  V30 14251 H 1381.61 0.934292 -2.98311 0
M  V30 14252 H 1380.83 -1.45662 -3.66301 0
M  V30 14253 H 1382.11 -1.43777 -4.88063 0
M  V30 14254 H 1381.51 1.70155 -5.39503 0
M  V30 14255 H 1380.07 1.59057 -6.32095 0
M  V30 14256 N 1383.5 1.34231 -0.825823 0
M  V30 14257 C 1384.41 2.33245 -0.251803 0
M  V30 14258 C 1385.43 1.62756 0.615334 0
M  V30 14259 O 1386.6 1.94503 0.522547 0
M  V30 14260 C 1383.67 3.41908 0.574456 0
M  V30 14261 C 1382.73 4.2814 -0.315422 0
M  V30 14262 C 1381.96 5.31613 0.471496 0
M  V30 14263 O 1382.19 5.44337 1.70449 0
M  V30 14264 O 1381.12 6.01719 -0.147691 0
M  V30 14265 H 1384.95 2.84174 -1.07139 0
M  V30 14266 H 1382.53 1.37341 -0.588032 0
M  V30 14267 H 1384.41 4.08252 1.04444 0
M  V30 14268 H 1383.09 2.93217 1.37132 0
M  V30 14269 H 1381.99 3.64709 -0.832963 0
M  V30 14270 H 1383.33 4.80279 -1.07672 0
M  V30 14271 N 1384.98 0.581051 1.46498 0
M  V30 14272 C 1386.2 0.0696654 2.07283 0
M  V30 14273 C 1386.63 -1.22525 1.42721 0
M  V30 14274 O 1385.99 -1.73967 0.510421 0
M  V30 14275 C 1386.04 -0.0843864 3.60501 0
M  V30 14276 O 1385.14 -1.14129 3.96293 0
M  V30 14277 H 1384.48 0.0620572 0.661094 0
M  V30 14278 H 1387.01 0.803522 1.88161 0
M  V30 14279 H 1387.02 -0.29108 4.0696 0
M  V30 14280 H 1385.7 0.861274 4.06884 0
M  V30 14281 H 1384.27 -0.913186 3.61546 0
M  V30 14282 N 1386.46 -1.54343 0.318742 0
M  V30 14283 C 1387.37 -2.27856 -0.558442 0
M  V30 14284 C 1388.38 -1.32029 -1.13333 0
M  V30 14285 O 1389.56 -1.65037 -1.15433 0
M  V30 14286 C 1386.62 -3.01842 -1.70565 0
M  V30 14287 C 1385.69 -4.13245 -1.16305 0
M  V30 14288 C 1384.92 -4.83693 -2.25559 0
M  V30 14289 O 1385.14 -4.53621 -3.4581 0
M  V30 14290 O 1384.08 -5.70708 -1.91249 0
M  V30 14291 H 1387.9 -3.03676 0.0384247 0
M  V30 14292 H 1385.49 -1.4916 0.0845936 0
M  V30 14293 H 1387.37 -3.48189 -2.37365 0
M  V30 14294 H 1386.04 -2.28902 -2.28879 0
M  V30 14295 H 1384.95 -3.71258 -0.460274 0
M  V30 14296 H 1386.28 -4.88214 -0.625111 0
M  V30 14297 N 1387.94 -0.0468143 -1.5753 0
M  V30 14298 C 1389.17 0.636723 -1.96544 0
M  V30 14299 C 1389.57 1.65169 -0.922814 0
M  V30 14300 O 1388.92 1.83417 0.101892 0
M  V30 14301 C 1388.98 1.38435 -3.31777 0
M  V30 14302 C 1388.64 0.525714 -4.53966 0
M  V30 14303 C 1389.64 -0.206392 -5.1949 0
M  V30 14304 C 1387.32 0.457919 -5.00208 0
M  V30 14305 C 1389.32 -0.994779 -6.29589 0
M  V30 14306 C 1387.01 -0.334159 -6.10186 0
M  V30 14307 C 1388 -1.0592 -6.74737 0
M  V30 14308 O 1387.69 -1.83826 -7.826 0
M  V30 14309 H 1387.42 0.179197 -0.651816 0
M  V30 14310 H 1389.98 -0.108214 -2.05115 0
M  V30 14311 H 1388.21 2.17482 -3.19748 0
M  V30 14312 H 1389.9 1.9577 -3.55568 0
M  V30 14313 H 1390.66 -0.163457 -4.84724 0
M  V30 14314 H 1386.54 1.01185 -4.49758 0
M  V30 14315 H 1390.09 -1.56121 -6.79906 0
M  V30 14316 H 1385.98 -0.378748 -6.44388 0
M  V30 14317 H 1386.75 -1.75991 -7.99356 0
M  V30 14318 N 1389.41 1.55964 0.226527 0
M  V30 14319 C 1390.64 1.82558 0.967269 0
M  V30 14320 C 1391.05 0.623034 1.78647 0
M  V30 14321 O 1390.4 -0.41779 1.78886 0
M  V30 14322 C 1390.46 3.02812 1.93766 0
M  V30 14323 C 1390.12 4.38017 1.30345 0
M  V30 14324 C 1391.12 5.15223 0.695793 0
M  V30 14325 C 1388.8 4.84735 1.31671 0
M  V30 14326 C 1390.8 6.37305 0.109849 0
M  V30 14327 C 1388.48 6.06761 0.726919 0
M  V30 14328 C 1389.48 6.82886 0.124537 0
M  V30 14329 O 1389.17 8.02605 -0.45609 0
M  V30 14330 H 1388.9 0.610967 0.289301 0
M  V30 14331 H 1391.46 2.03892 0.248407 0
M  V30 14332 H 1389.69 2.77283 2.69538 0
M  V30 14333 H 1391.38 3.16321 2.54353 0
M  V30 14334 H 1392.14 4.80239 0.677912 0
M  V30 14335 H 1388.02 4.2546 1.77496 0
M  V30 14336 H 1391.56 6.96666 -0.360953 0
M  V30 14337 H 1387.46 6.41219 0.742196 0
M  V30 14338 H 1388.23 8.17752 -0.349926 0
M  V30 14339 N 1390.89 -0.493031 1.4969 0
M  V30 14340 C 1392.3 -1.0744 1.52688 0
M  V30 14341 C 1392.65 -1.93612 0.317652 0
M  V30 14342 O 1391.78 -2.0871 -0.571745 0
M  V30 14343 C 1392.37 -1.95523 2.76688 0
M  V30 14344 C 1390.93 -2.48808 2.82438 0
M  V30 14345 C 1390.08 -1.26617 2.46705 0
M  V30 14346 H 1393.03 -0.276589 1.56271 0
M  V30 14347 H 1393.05 -2.80315 2.57301 0
M  V30 14348 H 1392.56 -1.32779 3.6468 0
M  V30 14349 H 1390.67 -3.15168 1.98746 0
M  V30 14350 H 1390.78 -2.85416 3.84805 0
M  V30 14351 H 1389.14 -1.59396 1.98658 0
M  V30 14352 H 1389.93 -0.655695 3.3698 0
M  V30 14353 N 1392.37 -1.38898 -0.744656 0
M  V30 14354 C 1393.79 -1.20291 -1.04892 0
M  V30 14355 C 1393.99 -0.0577705 -2.01417 0
M  V30 14356 O 1393.04 0.593638 -2.45422 0
M  V30 14357 C 1394.36 -2.53302 -1.62045 0
M  V30 14358 C 1395.9 -2.60063 -1.74173 0
M  V30 14359 C 1396.38 -3.93272 -2.34736 0
M  V30 14360 N 1397.87 -3.9486 -2.42157 0
M  V30 14361 C 1398.6 -4.94698 -2.89933 0
M  V30 14362 N 1398.1 -6.04934 -3.37678 0
M  V30 14363 N 1399.89 -4.82083 -2.89055 0
M  V30 14364 H 1392.04 -2.12144 -0.104294 0
M  V30 14365 H 1394.31 -0.941725 -0.108895 0
M  V30 14366 H 1394.01 -3.376 -0.985868 0
M  V30 14367 H 1393.89 -2.72335 -2.60986 0
M  V30 14368 H 1396.27 -1.76155 -2.36756 0
M  V30 14369 H 1396.36 -2.44889 -0.739115 0
M  V30 14370 H 1396 -4.77607 -1.72784 0
M  V30 14371 H 1395.93 -4.05762 -3.35656 0
M  V30 14372 H 1398.42 -3.15243 -2.08399 0
M  V30 14373 H 1398.73 -6.77036 -3.72616 0
M  V30 14374 H 1397.08 -6.08541 -3.35712 0
M  V30 14375 H 1400.27 -3.9507 -2.51072 0
M  V30 14376 H 1400.44 -5.60039 -3.25975 0
M  V30 14377 N 1393.85 0.973806 -1.23914 0
M  V30 14378 C 1395.26 1.24128 -1.00322 0
M  V30 14379 C 1395.46 1.99378 0.29169 0
M  V30 14380 O 1394.52 2.31445 1.00943 0
M  V30 14381 C 1395.83 2.03438 -2.21435 0
M  V30 14382 C 1397.38 2.16553 -2.25995 0
M  V30 14383 C 1397.86 2.99257 -3.46712 0
M  V30 14384 N 1399.35 3.0684 -3.46992 0
M  V30 14385 C 1400.08 3.71174 -4.37055 0
M  V30 14386 N 1399.58 4.37277 -5.37364 0
M  V30 14387 N 1401.37 3.68126 -4.24782 0
M  V30 14388 H 1393.52 0.469872 -2.07138 0
M  V30 14389 H 1395.79 0.270234 -0.908668 0
M  V30 14390 H 1395.49 1.55527 -3.15443 0
M  V30 14391 H 1395.37 3.0418 -2.23057 0
M  V30 14392 H 1397.75 2.6367 -1.32522 0
M  V30 14393 H 1397.83 1.15179 -2.28402 0
M  V30 14394 H 1397.48 2.52835 -4.40496 0
M  V30 14395 H 1397.41 4.00815 -3.41547 0
M  V30 14396 H 1399.9 2.59813 -2.74419 0
M  V30 14397 H 1400.21 4.84166 -6.02331 0
M  V30 14398 H 1398.56 4.35965 -5.41257 0
M  V30 14399 H 1401.75 3.15657 -3.45656 0
M  V30 14400 H 1401.92 4.17981 -4.95173 0
M  V30 14401 N 1395.33 1.05191 1.17357 0
M  V30 14402 C 1396.56 0.781238 1.9126 0
M  V30 14403 C 1396.96 -0.66688 1.77057 0
M  V30 14404 O 1396.31 -1.4673 1.10526 0
M  V30 14405 C 1396.37 1.08225 3.42823 0
M  V30 14406 C 1396.03 2.52655 3.80808 0
M  V30 14407 C 1397.03 3.50864 3.83654 0
M  V30 14408 C 1394.72 2.87664 4.11771 0
M  V30 14409 C 1396.71 4.82127 4.16932 0
M  V30 14410 C 1394.4 4.1913 4.44717 0
M  V30 14411 C 1395.39 5.16172 4.47276 0
M  V30 14412 O 1395.08 6.4528 4.79447 0
M  V30 14413 H 1394.81 0.283516 0.613673 0
M  V30 14414 H 1397.37 1.40577 1.49758 0
M  V30 14415 H 1395.6 0.400623 3.84619 0
M  V30 14416 H 1397.29 0.797593 3.97987 0
M  V30 14417 H 1398.05 3.25158 3.59857 0
M  V30 14418 H 1393.93 2.12793 4.0895 0
M  V30 14419 H 1397.48 5.57867 4.18844 0
M  V30 14420 H 1393.37 4.44599 4.67976 0
M  V30 14421 H 1394.14 6.50101 4.97304 0
M  V30 14422 N 1396.8 -1.33791 0.83293 0
M  V30 14423 C 1397.74 -2.28148 0.219336 0
M  V30 14424 C 1398.75 -1.51477 -0.596529 0
M  V30 14425 O 1399.94 -1.73377 -0.424571 0
M  V30 14426 C 1397.04 -3.31373 -0.710305 0
M  V30 14427 C 1396.21 -4.37352 0.0649215 0
M  V30 14428 C 1395.27 -5.20279 -0.78716 0
M  V30 14429 O 1394.3 -5.68741 -0.228511 0
M  V30 14430 N 1395.5 -5.40973 -2.10544 0
M  V30 14431 H 1398.26 -2.81443 1.03004 0
M  V30 14432 H 1395.82 -1.46421 0.690831 0
M  V30 14433 H 1397.82 -3.83752 -1.28517 0
M  V30 14434 H 1396.39 -2.78398 -1.42173 0
M  V30 14435 H 1395.61 -3.85553 0.821144 0
M  V30 14436 H 1396.89 -5.05271 0.598199 0
M  V30 14437 H 1396.29 -5.03291 -2.58292 0
M  V30 14438 H 1394.85 -5.96432 -2.62893 0
M  V30 14439 N 1398.28 -0.588812 -1.46187 0
M  V30 14440 C 1399.51 -0.0806571 -2.07243 0
M  V30 14441 C 1399.93 1.21766 -1.43369 0
M  V30 14442 O 1399.29 1.73694 -0.51964 0
M  V30 14443 C 1399.34 0.065267 -3.60541 0
M  V30 14444 O 1398.44 1.12026 -3.96893 0
M  V30 14445 H 1397.78 -0.0655622 -0.660755 0
M  V30 14446 H 1400.31 -0.813489 -1.87733 0
M  V30 14447 H 1400.32 0.269494 -4.07109 0
M  V30 14448 H 1399 -0.88284 -4.06422 0
M  V30 14449 H 1397.58 0.894 -3.62025 0
M  V30 14450 N 1399.76 1.54172 -0.326923 0
M  V30 14451 C 1400.71 2.21189 0.553126 0
M  V30 14452 C 1401.69 1.19356 1.07903 0
M  V30 14453 O 1402.89 1.44972 1.01549 0
M  V30 14454 C 1400.02 2.97573 1.71188 0
M  V30 14455 C 1399.1 4.06748 1.20071 0
M  V30 14456 N 1399.49 5.0414 0.409473 0
M  V30 14457 C 1397.79 4.20759 1.47913 0
M  V30 14458 C 1398.49 5.81546 0.134036 0
M  V30 14459 N 1397.47 5.38796 0.721097 0
M  V30 14460 H 1401.27 2.93841 -0.0586462 0
M  V30 14461 H 1398.78 1.61855 -0.132947 0
M  V30 14462 H 1400.78 3.44072 2.35415 0
M  V30 14463 H 1399.44 2.26443 2.32709 0
M  V30 14464 H 1400.45 5.17874 0.0520181 0
M  V30 14465 H 1397.13 3.60844 2.09995 0
M  V30 14466 H 1398.52 6.70013 -0.503156 0
M  V30 14467 N 1401.24 0.0551678 1.57503 0
M  V30 14468 C 1402.48 -0.618636 1.93134 0
M  V30 14469 C 1402.82 -1.70258 0.934125 0
M  V30 14470 O 1402.09 -1.9446 -0.0392699 0
M  V30 14471 C 1402.38 -1.21103 3.39126 0
M  V30 14472 C 1402.23 -0.134865 4.49598 0
M  V30 14473 C 1403.55 -2.12148 3.85592 0
M  V30 14474 H 1400.67 -0.223416 0.702321 0
M  V30 14475 H 1403.31 0.117748 1.89635 0
M  V30 14476 H 1401.46 -1.83862 3.42238 0
M  V30 14477 H 1403.13 0.497292 4.58612 0
M  V30 14478 H 1401.37 0.536587 4.30469 0
M  V30 14479 H 1402.04 -0.589447 5.48844 0
M  V30 14480 H 1404.52 -1.59346 3.8438 0
M  V30 14481 H 1403.4 -2.50539 4.88387 0
M  V30 14482 H 1403.66 -3.02318 3.22578 0
M  V30 14483 N 1402.72 -1.56081 -0.218252 0
M  V30 14484 C 1403.65 -1.95706 -1.27364 0
M  V30 14485 C 1404.63 -0.825731 -1.48713 0
M  V30 14486 O 1405.81 -1.08829 -1.60841 0
M  V30 14487 C 1402.94 -2.2766 -2.62275 0
M  V30 14488 C 1401.9 -3.43314 -2.55576 0
M  V30 14489 C 1401.22 -3.60883 -3.94547 0
M  V30 14490 C 1402.52 -4.7819 -2.10075 0
M  V30 14491 H 1404.22 -2.84113 -0.944459 0
M  V30 14492 H 1401.76 -1.36693 -0.452882 0
M  V30 14493 H 1403.72 -2.53973 -3.36268 0
M  V30 14494 H 1402.44 -1.3611 -2.96887 0
M  V30 14495 H 1401.1 -3.17056 -1.8404 0
M  V30 14496 H 1400.75 -2.66703 -4.26472 0
M  V30 14497 H 1400.45 -4.38674 -3.90946 0
M  V30 14498 H 1401.97 -3.89547 -4.70197 0
M  V30 14499 H 1403.38 -5.03686 -2.73813 0
M  V30 14500 H 1401.78 -5.59287 -2.17527 0
M  V30 14501 H 1402.85 -4.73325 -1.05314 0
M  V30 14502 N 1404.2 0.485086 -1.49949 0
M  V30 14503 C 1405.13 1.59312 -1.7071 0
M  V30 14504 C 1406.11 1.6076 -0.555896 0
M  V30 14505 O 1407.29 1.77249 -0.793504 0
M  V30 14506 C 1404.42 2.97718 -1.78834 0
M  V30 14507 C 1403.38 3.11136 -2.93902 0
M  V30 14508 C 1402.7 4.51051 -2.87154 0
M  V30 14509 C 1404 2.89665 -4.34617 0
M  V30 14510 H 1405.7 1.42192 -2.6348 0
M  V30 14511 H 1403.24 0.68262 -1.26792 0
M  V30 14512 H 1405.19 3.75148 -1.91943 0
M  V30 14513 H 1403.92 3.15963 -0.826744 0
M  V30 14514 H 1402.58 2.36135 -2.80421 0
M  V30 14515 H 1402.23 4.66195 -1.88869 0
M  V30 14516 H 1401.93 4.60967 -3.64394 0
M  V30 14517 H 1403.45 5.3052 -3.02293 0
M  V30 14518 H 1404.86 3.56853 -4.48697 0
M  V30 14519 H 1403.26 3.11039 -5.13201 0
M  V30 14520 H 1404.33 1.85642 -4.47956 0
M  V30 14521 N 1405.67 1.39291 0.737279 0
M  V30 14522 C 1406.64 1.37607 1.83294 0
M  V30 14523 C 1407.64 0.273594 1.58455 0
M  V30 14524 O 1408.83 0.531375 1.65898 0
M  V30 14525 C 1405.96 1.14642 3.21045 0
M  V30 14526 H 1407.15 2.35102 1.86191 0
M  V30 14527 H 1404.7 1.24822 0.940696 0
M  V30 14528 H 1405.44 0.178202 3.2381 0
M  V30 14529 H 1405.22 1.94479 3.40471 0
M  V30 14530 H 1406.71 1.162 4.01108 0
M  V30 14531 N 1407.15 -0.967221 1.24429 0
M  V30 14532 C 1408.11 -2.04344 1.03808 0
M  V30 14533 C 1409.11 -1.60799 -0.00476972 0
M  V30 14534 O 1410.3 -1.72591 0.236241 0
M  V30 14535 C 1407.44 -3.36041 0.573496 0
M  V30 14536 H 1408.63 -2.2407 1.9933 0
M  V30 14537 H 1406.18 -1.14253 1.06658 0
M  V30 14538 H 1406.92 -3.22008 -0.384898 0
M  V30 14539 H 1406.7 -3.68991 1.32619 0
M  V30 14540 H 1408.19 -4.15165 0.450272 0
M  V30 14541 N 1408.63 -1.05812 -1.16797 0
M  V30 14542 C 1409.88 -0.770398 -1.8684 0
M  V30 14543 C 1410.2 0.704986 -1.8181 0
M  V30 14544 O 1409.47 1.50977 -1.24832 0
M  V30 14545 H 1408.05 -0.281989 -0.691731 0
M  V30 14546 H 1410.71 -1.33859 -1.41661 0
M  V30 14547 H 1409.81 -1.09094 -2.92412 0
M  V30 14548 N 1410.11 1.33347 -0.840014 0
M  V30 14549 C 1411.35 1.97745 -0.436274 0
M  V30 14550 C 1411.68 1.66538 1.00475 0
M  V30 14551 O 1410.94 0.938137 1.71748 0
M  V30 14552 C 1411.24 3.52239 -0.605173 0
M  V30 14553 C 1410.9 4.03398 -2.01446 0
M  V30 14554 C 1409.56 4.1708 -2.39994 0
M  V30 14555 C 1411.92 4.3071 -2.93494 0
M  V30 14556 C 1409.24 4.55409 -3.69891 0
M  V30 14557 C 1411.6 4.70491 -4.22873 0
M  V30 14558 C 1410.26 4.82379 -4.61375 0
M  V30 14559 H 1409.53 0.723599 -0.159644 0
M  V30 14560 H 1412.18 1.59003 -1.06725 0
M  V30 14561 H 1410.48 3.91648 0.109116 0
M  V30 14562 H 1412.18 4.00069 -0.273056 0
M  V30 14563 H 1408.77 3.93224 -1.70508 0
M  V30 14564 H 1412.95 4.19661 -2.64949 0
M  V30 14565 H 1408.21 4.62806 -3.99525 0
M  V30 14566 H 1412.38 4.9058 -4.94271 0
M  V30 14567 H 1410.01 5.11835 -5.62075 0
M  V30 14568 N 1411.59 0.596556 1.45873 0
M  V30 14569 C 1412.81 0.0916466 2.07197 0
M  V30 14570 C 1413.24 -1.21004 1.44012 0
M  V30 14571 O 1412.59 -1.73415 0.528844 0
M  V30 14572 C 1412.64 -0.0461457 3.6057 0
M  V30 14573 O 1411.75 -1.09919 3.97481 0
M  V30 14574 H 1411.09 0.0690655 0.660398 0
M  V30 14575 H 1413.62 0.823434 1.87299 0
M  V30 14576 H 1413.63 -0.2479 4.07246 0
M  V30 14577 H 1412.3 0.904381 4.05948 0
M  V30 14578 H 1410.88 -0.874788 3.62494 0
M  V30 14579 N 1413.06 -1.53996 0.335095 0
M  V30 14580 C 1413.97 -2.28436 -0.534244 0
M  V30 14581 C 1414.99 -1.33224 -1.11926 0
M  V30 14582 O 1416.17 -1.66252 -1.13676 0
M  V30 14583 C 1413.23 -3.03634 -1.67354 0
M  V30 14584 C 1412.29 -4.14455 -1.11916 0
M  V30 14585 C 1411.52 -4.86058 -2.20416 0
M  V30 14586 O 1411.75 -4.57263 -3.40979 0
M  V30 14587 O 1410.68 -5.72704 -1.85185 0
M  V30 14588 H 1414.51 -3.03618 0.0706314 0
M  V30 14589 H 1412.09 -1.49062 0.100409 0
M  V30 14590 H 1413.97 -3.50687 -2.33659 0
M  V30 14591 H 1412.65 -2.31317 -2.26438 0
M  V30 14592 H 1411.56 -3.71725 -0.420871 0
M  V30 14593 H 1412.89 -4.8885 -0.573295 0
M  V30 14594 N 1414.54 -0.0635198 -1.57472 0
M  V30 14595 C 1415.95 0.470372 -1.80678 0
M  V30 14596 C 1416.3 1.70158 -0.976771 0
M  V30 14597 O 1415.43 2.15502 -0.196893 0
M  V30 14598 C 1416.02 0.860129 -3.277 0
M  V30 14599 C 1414.58 1.33893 -3.51781 0
M  V30 14600 C 1413.73 0.320078 -2.75447 0
M  V30 14601 H 1416.68 -0.289295 -1.56041 0
M  V30 14602 H 1416.7 1.72216 -3.39296 0
M  V30 14603 H 1416.21 -0.0361525 -3.88083 0
M  V30 14604 H 1414.31 2.25399 -2.96692 0
M  V30 14605 H 1414.43 1.32257 -4.60483 0
M  V30 14606 H 1412.79 0.795601 -2.41955 0
M  V30 14607 H 1413.57 -0.568332 -3.38563 0
M  V30 14608 N 1416.02 1.56195 0.209972 0
M  V30 14609 C 1417.27 1.7939 0.930796 0
M  V30 14610 C 1417.59 0.634038 1.84404 0
M  V30 14611 O 1416.86 -0.348467 1.92776 0
M  V30 14612 H 1415.44 0.661676 0.346689 0
M  V30 14613 H 1418.1 1.93665 0.219049 0
M  V30 14614 H 1417.2 2.71982 1.53075 0
M  V30 14615 N 1417.5 -0.477127 1.50204 0
M  V30 14616 C 1418.77 -1.23837 1.51406 0
M  V30 14617 C 1419.15 -2.09551 0.255278 0
M  V30 14618 O 1418.5 -2.15437 -0.761535 0
M  V30 14619 C 1418.71 -2.0746 2.80644 0
M  V30 14620 C 1420.06 -2.65852 3.31071 0
M  V30 14621 O 1421.08 -2.17708 2.81925 0
M  V30 14622 O 1419.94 -3.53556 4.16726 0
M  V30 14623 H 1417.04 -0.561638 0.607036 0
M  V30 14624 H 1419.58 -0.489442 1.62489 0
M  V30 14625 H 1418.36 -1.44258 3.63738 0
M  V30 14626 H 1417.98 -2.895 2.72536 0
M  V30 14627 N 1418.98 -1.3968 -0.729882 0
M  V30 14628 C 1420.22 -1.3862 -1.50213 0
M  V30 14629 C 1420.58 0.0167409 -1.91993 0
M  V30 14630 O 1421.78 0.15238 -2.68368 0
M  V30 14631 C 1420.05 -2.33583 -2.70507 0
M  V30 14632 S 1421.61 -2.50756 -3.60093 0
M  V30 14633 H 1418.43 -0.491511 -0.513749 0
M  V30 14634 H 1421.03 -1.75823 -0.854783 0
M  V30 14635 H 1419.74 -3.34369 -2.37961 0
M  V30 14636 H 1419.27 -1.97613 -3.40166 0
M  V30 14637 H 1421.28 -1.74929 -4.64343 0
M  V30 14638 N 1420.45 0.960609 -1.2494 0
M  V30 14639 C 1421.7 1.70111 -1.09117 0
M  V30 14640 C 1422.02 1.91466 0.369544 0
M  V30 14641 O 1421.29 1.49749 1.26302 0
M  V30 14642 H 1419.87 0.630372 -0.400799 0
M  V30 14643 H 1422.54 1.15525 -1.56971 0
M  V30 14644 H 1421.63 2.68277 -1.5948 0
M  V30 14645 N 1421.93 1.0643 1.16234 0
M  V30 14646 C 1423.18 0.780296 1.86429 0
M  V30 14647 C 1423.5 -0.695335 1.82181 0
M  V30 14648 O 1422.77 -1.50312 1.2563 0
M  V30 14649 H 1421.35 0.285654 0.690225 0
M  V30 14650 H 1424.01 1.34609 1.40949 0
M  V30 14651 H 1423.11 1.10644 2.91829 0
M  V30 14652 N 1423.41 -1.329 0.847073 0
M  V30 14653 C 1424.66 -1.96774 0.443022 0
M  V30 14654 C 1424.97 -1.67813 -1.0049 0
M  V30 14655 O 1426.18 -2.25366 -1.51402 0
M  V30 14656 C 1424.63 -3.52184 0.741268 0
M  V30 14657 C 1424.24 -3.90013 2.20441 0
M  V30 14658 C 1425.99 -4.22568 0.404569 0
M  V30 14659 C 1423.89 -5.38434 2.44627 0
M  V30 14660 H 1422.82 -0.736406 0.161932 0
M  V30 14661 H 1425.47 -1.51402 1.0368 0
M  V30 14662 H 1423.86 -3.95925 0.0770158 0
M  V30 14663 H 1425.03 -3.57304 2.90982 0
M  V30 14664 H 1423.35 -3.32633 2.50489 0
M  V30 14665 H 1425.94 -5.3173 0.562795 0
M  V30 14666 H 1426.29 -4.11144 -0.653172 0
M  V30 14667 H 1426.82 -3.84384 1.0244 0
M  V30 14668 H 1423.56 -5.5487 3.48997 0
M  V30 14669 H 1423.08 -5.72575 1.78656 0
M  V30 14670 H 1424.76 -6.05423 2.28194 0
M  V30 14671 N 1424.89 -0.604284 -1.45555 0
M  V30 14672 C 1425.82 0.103859 -2.33269 0
M  V30 14673 C 1426.8 0.862104 -1.46635 0
M  V30 14674 O 1427.98 0.833308 -1.75413 0
M  V30 14675 C 1425.11 1.104 -3.29286 0
M  V30 14676 C 1424.07 0.459189 -4.2553 0
M  V30 14677 C 1423.39 1.56734 -5.11213 0
M  V30 14678 C 1424.69 -0.617509 -5.18637 0
M  V30 14679 H 1426.39 -0.628538 -2.92728 0
M  V30 14680 H 1423.93 -0.303711 -1.40761 0
M  V30 14681 H 1425.89 1.60794 -3.89517 0
M  V30 14682 H 1424.61 1.86695 -2.67979 0
M  V30 14683 H 1423.27 -0.0238508 -3.66592 0
M  V30 14684 H 1422.92 2.32049 -4.46276 0
M  V30 14685 H 1422.62 1.14142 -5.76407 0
M  V30 14686 H 1424.14 2.07361 -5.74312 0
M  V30 14687 H 1425.56 -0.197784 -5.72959 0
M  V30 14688 H 1423.95 -0.96499 -5.9229 0
M  V30 14689 H 1425.02 -1.49541 -4.61265 0
M  V30 14690 N 1426.37 1.53816 -0.343257 0
M  V30 14691 C 1427.78 1.59598 0.00867849 0
M  V30 14692 C 1427.98 1.35922 1.48753 0
M  V30 14693 O 1427.04 1.15334 2.2462 0
M  V30 14694 C 1428.35 2.97649 -0.427234 0
M  V30 14695 C 1429.9 3.1069 -0.379554 0
M  V30 14696 C 1430.37 4.51119 -0.79093 0
M  V30 14697 N 1431.87 4.57168 -0.745105 0
M  V30 14698 C 1432.6 5.63975 -1.03537 0
M  V30 14699 N 1432.1 6.78635 -1.39377 0
M  V30 14700 N 1433.89 5.53848 -0.959628 0
M  V30 14701 H 1426.04 1.6746 -1.30656 0
M  V30 14702 H 1428.3 0.784254 -0.532588 0
M  V30 14703 H 1428.01 3.2004 -1.45834 0
M  V30 14704 H 1427.88 3.76682 0.197704 0
M  V30 14705 H 1430.27 2.88024 0.642376 0
M  V30 14706 H 1430.35 2.33718 -1.03969 0
M  V30 14707 H 1430 4.74521 -1.81087 0
M  V30 14708 H 1429.93 5.26489 -0.108274 0
M  V30 14709 H 1432.42 3.7483 -0.480752 0
M  V30 14710 H 1432.73 7.56053 -1.60011 0
M  V30 14711 H 1431.07 6.80083 -1.43222 0
M  V30 14712 H 1434.27 4.6315 -0.678974 0
M  V30 14713 H 1434.44 6.36995 -1.18919 0
M  V30 14714 N 1427.84 0.0718701 1.57436 0
M  V30 14715 C 1429.08 -0.600882 1.95368 0
M  V30 14716 C 1429.45 -1.66772 0.951368 0
M  V30 14717 O 1430.65 -2.39603 1.21835 0
M  V30 14718 C 1428.92 -1.1628 3.37955 0
M  V30 14719 S 1430.48 -1.85067 3.97864 0
M  V30 14720 H 1427.3 -0.196749 0.683235 0
M  V30 14721 H 1429.9 0.145744 1.94956 0
M  V30 14722 H 1428.6 -0.374507 4.08688 0
M  V30 14723 H 1428.13 -1.94578 3.41911 0
M  V30 14724 H 1430.15 -3.1331 3.84774 0
M  V30 14725 N 1429.32 -1.56304 -0.201686 0
M  V30 14726 C 1430.23 -1.97215 -1.27057 0
M  V30 14727 C 1431.25 -0.878834 -1.50175 0
M  V30 14728 O 1432.42 -1.18405 -1.62918 0
M  V30 14729 C 1429.49 -2.29772 -2.59626 0
M  V30 14730 C 1428.55 -3.52776 -2.44637 0
M  V30 14731 C 1427.78 -3.83771 -3.70885 0
M  V30 14732 O 1428.01 -3.16149 -4.7477 0
M  V30 14733 O 1426.94 -4.77216 -3.66808 0
M  V30 14734 H 1430.77 -2.88347 -0.953393 0
M  V30 14735 H 1428.35 -1.43773 -0.406158 0
M  V30 14736 H 1430.23 -2.51817 -3.37885 0
M  V30 14737 H 1428.91 -1.41809 -2.90984 0
M  V30 14738 H 1427.82 -3.35986 -1.64512 0
M  V30 14739 H 1429.15 -4.41184 -2.18214 0
M  V30 14740 N 1430.8 0.469154 -1.50455 0
M  V30 14741 C 1431.75 1.56456 -1.65848 0
M  V30 14742 C 1432.73 1.52501 -0.513048 0
M  V30 14743 O 1433.93 1.59492 -0.767542 0
M  V30 14744 C 1431.06 2.94887 -1.75774 0
M  V30 14745 C 1430.14 3.03719 -2.96 0
M  V30 14746 N 1430.53 2.8236 -4.1965 0
M  V30 14747 C 1428.83 3.34856 -2.94597 0
M  V30 14748 C 1429.53 2.96208 -5.00635 0
M  V30 14749 N 1428.51 3.26494 -4.3463 0
M  V30 14750 H 1432.31 1.38646 -2.59142 0
M  V30 14751 H 1429.82 0.675918 -1.47666 0
M  V30 14752 H 1431.82 3.73652 -1.84905 0
M  V30 14753 H 1430.48 3.13743 -0.836396 0
M  V30 14754 H 1431.49 2.57904 -4.49117 0
M  V30 14755 H 1428.17 3.59687 -2.1197 0
M  V30 14756 H 1429.56 2.83918 -6.08966 0
M  V30 14757 N 1432.28 1.40065 0.722464 0
M  V30 14758 C 1433.53 1.37698 1.47932 0
M  V30 14759 C 1433.85 -0.0222608 1.94987 0
M  V30 14760 O 1433.12 -0.975795 1.69868 0
M  V30 14761 H 1431.7 0.506766 0.548815 0
M  V30 14762 H 1434.36 1.75053 0.856884 0
M  V30 14763 H 1433.46 2.04756 2.35545 0
M  V30 14764 N 1433.76 -0.95397 1.25448 0
M  V30 14765 C 1435 -1.70118 1.10399 0
M  V30 14766 C 1435.34 -1.90945 -0.354093 0
M  V30 14767 O 1434.61 -1.48088 -1.26096 0
M  V30 14768 C 1434.89 -3.08371 1.85955 0
M  V30 14769 C 1434.75 -2.9495 3.39595 0
M  V30 14770 C 1436.07 -4.08273 1.64321 0
M  V30 14771 H 1433.19 -0.617424 0.402438 0
M  V30 14772 H 1435.83 -1.10884 1.54288 0
M  V30 14773 H 1433.98 -3.58936 1.48651 0
M  V30 14774 H 1435.65 -2.51705 3.86578 0
M  V30 14775 H 1433.89 -2.30853 3.67273 0
M  V30 14776 H 1434.56 -3.92952 3.87676 0
M  V30 14777 H 1437.04 -3.6662 1.96796 0
M  V30 14778 H 1435.92 -5.03048 2.19622 0
M  V30 14779 H 1436.18 -4.38217 0.584685 0
M  V30 14780 N 1435.24 -1.07045 -1.15668 0
M  V30 14781 C 1436.48 -0.786751 -1.85723 0
M  V30 14782 C 1436.8 0.689604 -1.83041 0
M  V30 14783 O 1438 1.08796 -2.48748 0
M  V30 14784 C 1436.46 -1.35729 -3.33325 0
M  V30 14785 C 1436.07 -2.86444 -3.44462 0
M  V30 14786 C 1437.81 -1.15148 -4.08584 0
M  V30 14787 C 1435.72 -3.36705 -4.86193 0
M  V30 14788 H 1434.65 -0.29063 -0.695737 0
M  V30 14789 H 1437.3 -1.29012 -1.30492 0
M  V30 14790 H 1435.68 -0.781671 -3.88209 0
M  V30 14791 H 1436.86 -3.50023 -2.997 0
M  V30 14792 H 1435.17 -3.0578 -2.82644 0
M  V30 14793 H 1437.77 -1.50179 -5.13177 0
M  V30 14794 H 1438.11 -0.0903159 -4.16202 0
M  V30 14795 H 1438.64 -1.6933 -3.59962 0
M  V30 14796 H 1435.38 -4.42333 -4.83758 0
M  V30 14797 H 1434.9 -2.77877 -5.31549 0
M  V30 14798 H 1436.58 -3.32478 -5.55038 0
M  V30 14799 N 1436.71 1.32449 -0.85411 0
M  V30 14800 C 1437.96 1.96881 -0.45632 0
M  V30 14801 C 1438.28 1.67926 0.991248 0
M  V30 14802 O 1437.55 0.986195 1.69266 0
M  V30 14803 H 1436.13 0.728378 -0.165752 0
M  V30 14804 H 1438.79 1.61542 -1.09042 0
M  V30 14805 H 1437.89 3.0626 -0.600927 0
M  V30 14806 N 1438.19 0.611994 1.45232 0
M  V30 14807 C 1439.44 0.106467 2.01419 0
M  V30 14808 C 1439.75 -1.2723 1.48566 0
M  V30 14809 O 1440.96 -1.8708 1.96757 0
M  V30 14810 C 1439.42 0.139639 3.59629 0
M  V30 14811 C 1439.02 1.51853 4.21479 0
M  V30 14812 C 1440.77 -0.310417 4.23364 0
M  V30 14813 C 1438.67 1.50785 5.71855 0
M  V30 14814 H 1437.6 0.0360345 0.753138 0
M  V30 14815 H 1440.26 0.767974 1.66657 0
M  V30 14816 H 1438.64 -0.588606 3.91601 0
M  V30 14817 H 1439.81 2.26884 4.01074 0
M  V30 14818 H 1438.13 1.91105 3.69956 0
M  V30 14819 H 1440.72 -0.337656 5.33633 0
M  V30 14820 H 1441.07 -1.33398 3.94348 0
M  V30 14821 H 1441.6 0.364704 3.96125 0
M  V30 14822 H 1438.34 2.50916 6.05575 0
M  V30 14823 H 1437.86 0.800195 5.94438 0
M  V30 14824 H 1439.54 1.23341 6.35135 0
M  V30 14825 N 1439.67 -1.53632 0.351409 0
M  V30 14826 C 1440.92 -2.01338 -0.243047 0
M  V30 14827 C 1441.25 -1.23864 -1.4957 0
M  V30 14828 O 1440.52 -0.328412 -1.91707 0
M  V30 14829 C 1440.81 -3.55886 -0.549284 0
M  V30 14830 C 1440.66 -4.44064 0.716016 0
M  V30 14831 C 1441.98 -4.18699 -1.35569 0
M  V30 14832 H 1439.1 -0.731863 -0.0868627 0
M  V30 14833 H 1441.74 -1.84005 0.473501 0
M  V30 14834 H 1439.89 -3.70787 -1.15972 0
M  V30 14835 H 1441.56 -4.40987 1.35383 0
M  V30 14836 H 1439.8 -4.12608 1.3393 0
M  V30 14837 H 1440.48 -5.50106 0.456895 0
M  V30 14838 H 1442.95 -4.07545 -0.839441 0
M  V30 14839 H 1441.83 -5.26892 -1.53871 0
M  V30 14840 H 1442.09 -3.73834 -2.3601 0
M  V30 14841 N 1441.15 -0.0802183 -1.57396 0
M  V30 14842 C 1442.38 0.595754 -1.98137 0
M  V30 14843 C 1442.79 1.62638 -0.958871 0
M  V30 14844 O 1442.15 1.82422 0.0534316 0
M  V30 14845 C 1442.2 1.2568 -3.38949 0
M  V30 14846 O 1441.92 0.267417 -4.37283 0
M  V30 14847 C 1443.42 2.0198 -3.94612 0
M  V30 14848 H 1440.64 0.160853 -0.651435 0
M  V30 14849 H 1443.18 -0.155111 -2.03911 0
M  V30 14850 H 1441.34 1.9587 -3.34236 0
M  V30 14851 H 1441.75 0.742695 -5.19215 0
M  V30 14852 H 1443.23 2.43613 -4.95335 0
M  V30 14853 H 1443.7 2.87973 -3.31614 0
M  V30 14854 H 1444.31 1.36639 -4.02753 0
M  V30 14855 N 1442.63 1.56409 0.193394 0
M  V30 14856 C 1443.56 1.89745 1.26776 0
M  V30 14857 C 1444.54 0.75773 1.43865 0
M  V30 14858 O 1445.72 1.0089 1.59228 0
M  V30 14859 C 1442.85 2.12913 2.63412 0
M  V30 14860 C 1441.89 3.35614 2.63183 0
M  V30 14861 S 1442.73 4.90686 2.14448 0
M  V30 14862 C 1443.88 5.16923 3.52904 0
M  V30 14863 H 1444.12 2.80575 0.983105 0
M  V30 14864 H 1441.65 1.4921 0.396965 0
M  V30 14865 H 1443.61 2.26943 3.42063 0
M  V30 14866 H 1442.27 1.2283 2.89088 0
M  V30 14867 H 1441.46 3.48957 3.63655 0
M  V30 14868 H 1441.06 3.20586 1.92615 0
M  V30 14869 H 1443.35 5.07548 4.48778 0
M  V30 14870 H 1444.3 6.18673 3.44455 0
M  V30 14871 H 1444.71 4.44555 3.47895 0
M  V30 14872 N 1444.1 -0.461169 1.50702 0
M  V30 14873 C 1445.35 -1.21012 1.61866 0
M  V30 14874 C 1445.67 -1.9226 0.325736 0
M  V30 14875 O 1444.94 -1.84543 -0.657306 0
M  V30 14876 H 1443.52 -0.449671 0.596494 0
M  V30 14877 H 1446.18 -0.531056 1.87525 0
M  V30 14878 H 1445.28 -1.95266 2.4347 0
M  V30 14879 N 1445.58 -1.40446 -0.715026 0
M  V30 14880 C 1446.83 -1.3848 -1.47199 0
M  V30 14881 C 1447.15 0.0119198 -1.94996 0
M  V30 14882 O 1446.42 0.966772 -1.70383 0
M  V30 14883 H 1445 -0.509669 -0.54612 0
M  V30 14884 H 1447.66 -1.75505 -0.847588 0
M  V30 14885 H 1446.76 -2.06002 -2.34456 0
M  V30 14886 N 1447.06 0.947303 -1.25952 0
M  V30 14887 C 1447.97 2.07878 -1.08738 0
M  V30 14888 C 1448.99 1.73985 -0.0225212 0
M  V30 14889 O 1450.16 2.00139 -0.224984 0
M  V30 14890 C 1447.23 3.39231 -0.715756 0
M  V30 14891 C 1446.29 3.86945 -1.85935 0
M  V30 14892 C 1445.52 5.1203 -1.50537 0
M  V30 14893 O 1445.74 5.68965 -0.404323 0
M  V30 14894 O 1444.68 5.54634 -2.33805 0
M  V30 14895 H 1448.5 2.25305 -2.03645 0
M  V30 14896 H 1446.09 1.06321 -1.04958 0
M  V30 14897 H 1447.97 4.18167 -0.520962 0
M  V30 14898 H 1446.65 3.23057 0.203978 0
M  V30 14899 H 1445.55 3.08981 -2.10906 0
M  V30 14900 H 1446.89 4.0763 -2.75859 0
M  V30 14901 N 1448.54 1.07657 1.15099 0
M  V30 14902 C 1449.79 0.800025 1.85591 0
M  V30 14903 C 1450.11 -0.675973 1.82909 0
M  V30 14904 O 1449.38 -1.48971 1.27218 0
M  V30 14905 H 1447.96 0.292958 0.687157 0
M  V30 14906 H 1450.62 1.36096 1.39513 0
M  V30 14907 H 1449.72 1.13733 2.90639 0
M  V30 14908 N 1450.02 -1.31994 0.861122 0
M  V30 14909 C 1451.26 -1.97317 0.468371 0
M  V30 14910 C 1451.6 -1.67954 -0.974941 0
M  V30 14911 O 1450.87 -0.971243 -1.68514 0
M  V30 14912 C 1451.15 -3.52918 0.715607 0
M  V30 14913 C 1451.01 -3.91888 2.20781 0
M  V30 14914 C 1452.33 -4.39747 0.17624 0
M  V30 14915 H 1449.44 -0.716733 0.171646 0
M  V30 14916 H 1452.09 -1.56269 1.08074 0
M  V30 14917 H 1450.24 -3.88013 0.194387 0
M  V30 14918 H 1451.91 -3.66938 2.7956 0
M  V30 14919 H 1450.15 -3.40813 2.68382 0
M  V30 14920 H 1450.82 -5.00346 2.33147 0
M  V30 14921 H 1453.3 -4.11424 0.622043 0
M  V30 14922 H 1452.17 -5.47592 0.378748 0
M  V30 14923 H 1452.44 -4.32393 -0.921358 0
M  V30 14924 N 1451.49 -0.619688 -1.44906 0
M  V30 14925 C 1452.74 -0.11981 -2.02446 0
M  V30 14926 C 1453.07 1.2509 -1.48546 0
M  V30 14927 O 1452.35 1.82781 -0.664942 0
M  V30 14928 C 1452.63 -0.0940205 -3.59977 0
M  V30 14929 C 1452.48 -1.49626 -4.24184 0
M  V30 14930 C 1453.8 0.58748 -4.36161 0
M  V30 14931 H 1450.92 -0.0450119 -0.735624 0
M  V30 14932 H 1453.56 -0.793975 -1.72615 0
M  V30 14933 H 1451.71 0.480073 -3.85522 0
M  V30 14934 H 1453.39 -2.11836 -4.09784 0
M  V30 14935 H 1451.63 -2.05348 -3.82119 0
M  V30 14936 H 1452.3 -1.43035 -5.33146 0
M  V30 14937 H 1454.78 0.0993863 -4.15981 0
M  V30 14938 H 1453.65 0.574672 -5.45883 0
M  V30 14939 H 1453.91 1.65579 -4.09922 0
M  V30 14940 N 1452.97 1.53444 -0.359552 0
M  V30 14941 C 1454.22 2.00769 0.231564 0
M  V30 14942 C 1454.54 1.2487 1.49775 0
M  V30 14943 O 1453.81 0.360284 1.92558 0
M  V30 14944 H 1452.39 0.741732 0.0885581 0
M  V30 14945 H 1455.05 1.88785 -0.484397 0
M  V30 14946 H 1454.15 3.0865 0.462789 0
M  V30 14947 N 1454.45 0.0885642 1.57351 0
M  V30 14948 C 1455.7 -0.576675 1.94115 0
M  V30 14949 C 1456.03 -1.68595 0.969842 0
M  V30 14950 O 1455.28 -1.95697 -0.0116998 0
M  V30 14951 C 1455.58 -1.17764 3.37441 0
M  V30 14952 C 1455.25 -0.192813 4.50488 0
M  V30 14953 C 1453.91 0.0780722 4.81137 0
M  V30 14954 C 1456.26 0.479997 5.18985 0
M  V30 14955 C 1453.59 1.02857 5.77613 0
M  V30 14956 C 1455.94 1.41892 6.16481 0
M  V30 14957 C 1454.6 1.69811 6.45539 0
M  V30 14958 H 1453.87 -0.21102 0.710318 0
M  V30 14959 H 1456.52 0.163009 1.90805 0
M  V30 14960 H 1454.83 -1.99343 3.37298 0
M  V30 14961 H 1456.52 -1.69994 3.63185 0
M  V30 14962 H 1453.11 -0.41413 4.26595 0
M  V30 14963 H 1457.3 0.283854 4.95488 0
M  V30 14964 H 1452.55 1.25194 5.98445 0
M  V30 14965 H 1456.73 1.94612 6.68655 0
M  V30 14966 H 1454.35 2.43621 7.20106 0
M  V30 14967 N 1455.93 -1.56509 -0.185096 0
M  V30 14968 C 1456.89 -1.94468 -1.21305 0
M  V30 14969 C 1457.89 -0.826838 -1.37913 0
M  V30 14970 O 1459.08 -1.09411 -1.35554 0
M  V30 14971 C 1456.21 -2.22747 -2.58063 0
M  V30 14972 H 1457.41 -2.86442 -0.888323 0
M  V30 14973 H 1454.96 -1.50354 -0.427012 0
M  V30 14974 H 1455.69 -1.33443 -2.95573 0
M  V30 14975 H 1455.48 -3.04215 -2.47378 0
M  V30 14976 H 1456.97 -2.53084 -3.32172 0
M  V30 14977 N 1457.41 0.45317 -1.50944 0
M  V30 14978 C 1458.68 1.21413 -1.53357 0
M  V30 14979 C 1459.06 2.09118 -0.288584 0
M  V30 14980 O 1458.41 2.16621 0.727164 0
M  V30 14981 C 1458.62 2.02969 -2.83909 0
M  V30 14982 C 1459.97 2.60551 -3.35258 0
M  V30 14983 O 1460.99 2.13196 -2.85353 0
M  V30 14984 O 1459.85 3.46881 -4.22298 0
M  V30 14985 H 1456.95 0.551909 -0.615894 0
M  V30 14986 H 1459.49 0.463529 -1.63247 0
M  V30 14987 H 1458.26 1.38453 -3.65987 0
M  V30 14988 H 1457.89 2.85127 -2.77107 0
M  V30 14989 N 1458.88 1.40823 0.707568 0
M  V30 14990 C 1460.13 1.38837 1.46312 0
M  V30 14991 C 1460.45 -0.00353939 1.956 0
M  V30 14992 O 1461.65 -0.146022 2.71107 0
M  V30 14993 C 1460.11 2.44052 2.64512 0
M  V30 14994 C 1459.72 3.89093 2.2206 0
M  V30 14995 C 1461.46 2.51185 3.42208 0
M  V30 14996 C 1459.37 4.85887 3.37147 0
M  V30 14997 H 1458.3 0.516263 0.549535 0
M  V30 14998 H 1460.95 1.66595 0.769302 0
M  V30 14999 H 1459.33 2.09406 3.36103 0
M  V30 15000 H 1460.5 4.32925 1.57837 0
M  V30 15001 H 1458.82 3.8551 1.57388 0
M  V30 15002 H 1461.42 3.20687 4.2786 0
M  V30 15003 H 1461.76 1.54488 3.86574 0
M  V30 15004 H 1462.29 2.84862 2.77666 0
M  V30 15005 H 1459.03 5.83946 2.97805 0
M  V30 15006 H 1458.55 4.46713 4.00259 0
M  V30 15007 H 1460.23 5.06084 4.03098 0
M  V30 15008 N 1460.36 -0.94061 1.26453 0
M  V30 15009 C 1461.78 -1.21424 1.03578 0
M  V30 15010 C 1461.98 -2.00081 -0.238726 0
M  V30 15011 O 1461.03 -2.3404 -0.947709 0
M  V30 15012 C 1462.35 -1.97496 2.26751 0
M  V30 15013 C 1463.9 -2.10485 2.31657 0
M  V30 15014 C 1464.37 -2.89959 3.54525 0
M  V30 15015 N 1465.86 -2.97533 3.55005 0
M  V30 15016 C 1466.6 -3.59456 4.46742 0
M  V30 15017 N 1466.09 -4.22876 5.48769 0
M  V30 15018 N 1467.89 -3.56734 4.34393 0
M  V30 15019 H 1460.04 -0.414788 2.08311 0
M  V30 15020 H 1462.3 -0.246047 0.915513 0
M  V30 15021 H 1462.01 -1.47109 3.19456 0
M  V30 15022 H 1461.88 -2.98159 2.31043 0
M  V30 15023 H 1464.27 -2.60064 1.39466 0
M  V30 15024 H 1464.35 -1.09082 2.31376 0
M  V30 15025 H 1463.99 -2.41067 4.47045 0
M  V30 15026 H 1463.92 -3.91619 3.52054 0
M  V30 15027 H 1466.41 -2.52446 2.81211 0
M  V30 15028 H 1466.73 -4.68026 6.14956 0
M  V30 15029 H 1465.07 -4.21461 5.52626 0
M  V30 15030 H 1468.26 -3.06381 3.53904 0
M  V30 15031 H 1468.43 -4.04706 5.0608 0
M  V30 15032 N 1461.84 -1.08266 -1.14527 0
M  V30 15033 C 1463.12 -0.724254 -1.81697 0
M  V30 15034 C 1463.5 0.792212 -1.95671 0
M  V30 15035 O 1462.85 1.71017 -1.51543 0
M  V30 15036 C 1463.06 -1.44949 -3.17475 0
M  V30 15037 C 1464.4 -1.60761 -3.9299 0
M  V30 15038 O 1465.43 -1.41103 -3.2706 0
M  V30 15039 O 1464.29 -1.93184 -5.11216 0
M  V30 15040 H 1461.38 -0.258814 -0.785458 0
M  V30 15041 H 1463.93 -1.18414 -1.21557 0
M  V30 15042 H 1462.7 -2.48262 -3.02459 0
M  V30 15043 H 1462.32 -0.980993 -3.85308 0
M  V30 15044 N 1463.32 1.31536 -0.86811 0
M  V30 15045 C 1464.25 2.31037 -0.33822 0
M  V30 15046 C 1465.23 1.60269 0.569892 0
M  V30 15047 O 1466.42 1.87987 0.487305 0
M  V30 15048 C 1463.55 3.44203 0.462753 0
M  V30 15049 C 1462.5 4.26549 -0.3521 0
M  V30 15050 C 1461.83 5.31605 0.574443 0
M  V30 15051 C 1463.13 4.97665 -1.58516 0
M  V30 15052 H 1464.82 2.75607 -1.16967 0
M  V30 15053 H 1462.37 1.325 -0.56389 0
M  V30 15054 H 1464.32 4.12862 0.843967 0
M  V30 15055 H 1463.04 2.98396 1.32769 0
M  V30 15056 H 1461.7 3.59555 -0.715237 0
M  V30 15057 H 1461.35 4.82048 1.43661 0
M  V30 15058 H 1461.05 5.87591 0.0331436 0
M  V30 15059 H 1462.57 6.03124 0.952541 0
M  V30 15060 H 1463.99 5.58931 -1.27549 0
M  V30 15061 H 1462.38 5.63437 -2.06539 0
M  V30 15062 H 1463.45 4.24756 -2.33902 0
M  V30 15063 N 1464.8 0.627364 1.44575 0
M  V30 15064 C 1465.73 -0.066735 2.33405 0
M  V30 15065 C 1466.71 -0.838666 1.47988 0
M  V30 15066 O 1467.89 -0.805296 1.76716 0
M  V30 15067 C 1465.02 -1.05148 3.31 0
M  V30 15068 C 1463.98 -0.391433 4.26206 0
M  V30 15069 C 1463.3 -1.48581 5.13642 0
M  V30 15070 C 1464.6 0.699942 5.17589 0
M  V30 15071 H 1466.3 0.675029 2.91691 0
M  V30 15072 H 1463.84 0.326066 1.4026 0
M  V30 15073 H 1465.8 -1.54576 3.92026 0
M  V30 15074 H 1464.52 -1.82408 2.70915 0
M  V30 15075 H 1463.18 0.0821694 3.66508 0
M  V30 15076 H 1462.83 -2.2492 4.49911 0
M  V30 15077 H 1462.53 -1.04957 5.7815 0
M  V30 15078 H 1464.05 -1.98198 5.77538 0
M  V30 15079 H 1465.47 0.288911 5.72572 0
M  V30 15080 H 1463.86 1.0591 5.9068 0
M  V30 15081 H 1464.93 1.5686 4.58828 0
M  V30 15082 N 1466.28 -1.53251 0.367684 0
M  V30 15083 C 1467.52 -2.02269 -0.214246 0
M  V30 15084 C 1467.88 -1.25014 -1.46251 0
M  V30 15085 O 1467.17 -0.335984 -1.88631 0
M  V30 15086 C 1467.36 -3.53031 -0.557149 0
M  V30 15087 C 1467.19 -4.44885 0.656332 0
M  V30 15088 C 1465.96 -4.91591 1.16905 0
M  V30 15089 C 1468.16 -4.91258 1.52218 0
M  V30 15090 N 1466.14 -5.67457 2.34233 0
M  V30 15091 C 1467.51 -5.65488 2.5421 0
M  V30 15092 C 1469.57 -4.73329 1.54481 0
M  V30 15093 C 1468.27 -6.23696 3.58324 0
M  V30 15094 C 1470.3 -5.32403 2.5749 0
M  V30 15095 C 1469.66 -6.06521 3.58206 0
M  V30 15096 H 1465.76 -0.780921 -0.0410579 0
M  V30 15097 H 1468.34 -1.87828 0.512703 0
M  V30 15098 H 1466.51 -3.67628 -1.25317 0
M  V30 15099 H 1468.25 -3.88768 -1.12435 0
M  V30 15100 H 1465 -4.67888 0.733353 0
M  V30 15101 H 1465.42 -6.10052 2.9354 0
M  V30 15102 H 1470.07 -4.15549 0.779688 0
M  V30 15103 H 1467.78 -6.8057 4.35717 0
M  V30 15104 H 1471.37 -5.20423 2.60098 0
M  V30 15105 H 1470.25 -6.51418 4.36606 0
M  V30 15106 N 1467.75 -0.0969077 -1.57302 0
M  V30 15107 C 1468.68 0.858443 -2.17147 0
M  V30 15108 C 1469.66 1.29294 -1.10531 0
M  V30 15109 O 1470.85 1.3595 -1.38676 0
M  V30 15110 C 1467.98 2.11691 -2.75326 0
M  V30 15111 C 1466.93 1.82097 -3.8733 0
M  V30 15112 C 1466.26 3.14787 -4.32219 0
M  V30 15113 C 1467.56 1.10651 -5.10444 0
M  V30 15114 H 1469.25 0.35982 -2.9723 0
M  V30 15115 H 1466.8 0.17163 -1.42974 0
M  V30 15116 H 1468.75 2.78963 -3.15844 0
M  V30 15117 H 1467.48 2.63839 -1.925 0
M  V30 15118 H 1466.14 1.17222 -3.47354 0
M  V30 15119 H 1465.78 3.64826 -3.46281 0
M  V30 15120 H 1465.48 2.95769 -5.07735 0
M  V30 15121 H 1467.01 3.83215 -4.75372 0
M  V30 15122 H 1468.42 1.68036 -5.48121 0
M  V30 15123 H 1466.82 1.01805 -5.91401 0
M  V30 15124 H 1467.89 0.0895634 -4.84817 0
M  V30 15125 N 1469.23 1.56605 0.176793 0
M  V30 15126 C 1470.14 1.99211 1.23903 0
M  V30 15127 C 1471.16 0.902614 1.48758 0
M  V30 15128 O 1472.33 1.20982 1.61014 0
M  V30 15129 C 1469.4 2.33873 2.55938 0
M  V30 15130 C 1468.46 3.56624 2.38994 0
M  V30 15131 C 1467.69 3.89623 3.64733 0
M  V30 15132 O 1467.92 3.23662 4.6968 0
M  V30 15133 O 1466.85 4.82992 3.5917 0
M  V30 15134 H 1470.68 2.89827 0.907398 0
M  V30 15135 H 1468.26 1.44401 0.383234 0
M  V30 15136 H 1470.14 2.57161 3.33836 0
M  V30 15137 H 1468.82 1.46421 2.88691 0
M  V30 15138 H 1467.72 3.38561 1.59146 0
M  V30 15139 H 1469.06 4.446 2.11167 0
M  V30 15140 N 1470.71 -0.445159 1.51182 0
M  V30 15141 C 1471.99 -1.20598 1.53998 0
M  V30 15142 C 1472.37 -2.08962 0.29967 0
M  V30 15143 O 1471.71 -2.17003 -0.715666 0
M  V30 15144 C 1471.92 -2.01461 2.84982 0
M  V30 15145 C 1473.27 -2.5877 3.36635 0
M  V30 15146 O 1474.3 -2.11679 2.86479 0
M  V30 15147 O 1473.16 -3.44637 4.24132 0
M  V30 15148 H 1470.25 -0.548635 0.618812 0
M  V30 15149 H 1472.8 -0.454865 1.6349 0
M  V30 15150 H 1471.57 -1.36511 3.66716 0
M  V30 15151 H 1471.19 -2.83654 2.78615 0
M  V30 15152 N 1472.19 -1.41197 -0.700089 0
M  V30 15153 C 1473.46 -1.30803 -1.4543 0
M  V30 15154 C 1473.84 0.0664987 -2.10995 0
M  V30 15155 O 1473.19 1.08043 -2.01343 0
M  V30 15156 C 1473.4 -2.45815 -2.47742 0
M  V30 15157 C 1474.75 -2.86771 -3.13126 0
M  V30 15158 O 1475.77 -2.45521 -2.58065 0
M  V30 15159 O 1474.63 -3.58086 -4.1284 0
M  V30 15160 H 1471.73 -0.514523 -0.647453 0
M  V30 15161 H 1474.27 -1.53151 -0.73095 0
M  V30 15162 H 1473.05 -3.37557 -1.97917 0
M  V30 15163 H 1472.67 -2.25319 -3.27593 0
M  V30 15164 N 1473.67 0.933891 -1.2695 0
M  V30 15165 C 1474.63 2.0152 -1.0919 0
M  V30 15166 C 1475.63 1.60755 -0.037865 0
M  V30 15167 O 1476.82 1.71904 -0.281917 0
M  V30 15168 C 1473.95 3.34403 -0.66239 0
M  V30 15169 H 1475.14 2.18706 -2.05201 0
M  V30 15170 H 1472.7 1.11385 -1.0965 0
M  V30 15171 H 1473.43 3.22915 0.299388 0
M  V30 15172 H 1473.22 3.65345 -1.42356 0
M  V30 15173 H 1474.71 4.13826 -0.560187 0
M  V30 15174 N 1475.14 1.08871 1.13951 0
M  V30 15175 C 1476.08 0.666975 2.18235 0
M  V30 15176 C 1477.05 -0.323664 1.59346 0
M  V30 15177 O 1478.24 -0.226394 1.87136 0
M  V30 15178 C 1475.37 -0.018268 3.38695 0
M  V30 15179 C 1474.41 0.933273 4.16164 0
M  V30 15180 S 1475.24 2.44241 4.76557 0
M  V30 15181 C 1476.4 1.76941 6.00369 0
M  V30 15182 H 1476.63 1.55042 2.53672 0
M  V30 15183 H 1474.17 0.904149 1.25158 0
M  V30 15184 H 1476.12 -0.407339 4.08474 0
M  V30 15185 H 1474.79 -0.878272 3.01571 0
M  V30 15186 H 1473.98 0.400793 5.02404 0
M  V30 15187 H 1473.58 1.26347 3.52012 0
M  V30 15188 H 1475.87 1.09012 6.68672 0
M  V30 15189 H 1476.82 2.61074 6.58214 0
M  V30 15190 H 1477.22 1.24075 5.50696 0
M  V30 15191 N 1476.62 -1.31073 0.875073 0
M  V30 15192 C 1477.53 -2.3215 0.338196 0
M  V30 15193 C 1478.55 -1.64928 -0.554504 0
M  V30 15194 O 1479.72 -1.96308 -0.449998 0
M  V30 15195 C 1476.79 -3.43804 -0.447163 0
M  V30 15196 C 1475.85 -4.26674 0.474106 0
M  V30 15197 C 1475.08 -5.32997 -0.273867 0
M  V30 15198 O 1475.31 -5.50288 -1.50129 0
M  V30 15199 O 1474.24 -6.00756 0.370913 0
M  V30 15200 H 1478.07 -2.80002 1.17612 0
M  V30 15201 H 1475.65 -1.35064 0.6386 0
M  V30 15202 H 1477.53 -4.11847 -0.892199 0
M  V30 15203 H 1476.21 -2.98105 -1.26155 0
M  V30 15204 H 1475.11 -3.61366 0.967748 0
M  V30 15205 H 1476.45 -4.75952 1.25423 0
M  V30 15206 N 1478.1 -0.635022 -1.4424 0
M  V30 15207 C 1479.03 0.106038 -2.28955 0
M  V30 15208 C 1480.05 0.805076 -1.415 0
M  V30 15209 O 1481.23 0.665872 -1.65615 0
M  V30 15210 C 1478.33 1.17252 -3.1797 0
M  V30 15211 C 1477.51 0.555225 -4.33862 0
M  V30 15212 C 1476.57 1.51618 -5.03883 0
M  V30 15213 O 1475.59 1.03181 -5.5977 0
M  V30 15214 N 1476.79 2.85048 -5.05696 0
M  V30 15215 H 1479.56 -0.620999 -2.93196 0
M  V30 15216 H 1477.12 -0.476466 -1.5473 0
M  V30 15217 H 1479.11 1.81578 -3.61679 0
M  V30 15218 H 1477.68 1.80174 -2.55453 0
M  V30 15219 H 1476.9 -0.266745 -3.93296 0
M  V30 15220 H 1478.19 0.123529 -5.0865 0
M  V30 15221 H 1477.59 3.26977 -4.6163 0
M  V30 15222 H 1476.15 3.44724 -5.5318 0
M  V30 15223 N 1479.58 1.53054 -0.375806 0
M  V30 15224 C 1480.83 2.01003 0.210257 0
M  V30 15225 C 1481.15 1.26451 1.48442 0
M  V30 15226 O 1480.42 0.380687 1.92166 0
M  V30 15227 H 1479 0.74263 0.0806861 0
M  V30 15228 H 1481.66 1.8826 -0.504393 0
M  V30 15229 H 1480.76 3.09123 0.430027 0
M  V30 15230 N 1481.06 0.105248 1.57248 0
M  V30 15231 C 1482.3 -0.556878 1.95004 0
M  V30 15232 C 1482.64 -1.672 0.987818 0
M  V30 15233 O 1481.91 -1.94487 0.022616 0
M  V30 15234 C 1482.19 -1.10252 3.42807 0
M  V30 15235 C 1482.05 0.00823908 4.49799 0
M  V30 15236 C 1483.37 -1.99774 3.92146 0
M  V30 15237 H 1480.48 -0.200959 0.709073 0
M  V30 15238 H 1483.13 0.178019 1.89164 0
M  V30 15239 H 1481.28 -1.7288 3.47915 0
M  V30 15240 H 1482.95 0.642944 4.56797 0
M  V30 15241 H 1481.19 0.673265 4.28544 0
M  V30 15242 H 1481.86 -0.414538 5.50441 0
M  V30 15243 H 1484.34 -1.47036 3.89255 0
M  V30 15244 H 1483.21 -2.34874 4.9611 0
M  V30 15245 H 1483.48 -2.91902 3.32033 0
M  V30 15246 N 1482.53 -1.56697 -0.168486 0
M  V30 15247 C 1483.48 -1.96628 -1.20855 0
M  V30 15248 C 1484.45 -0.830623 -1.4384 0
M  V30 15249 O 1485.64 -1.09097 -1.56533 0
M  V30 15250 C 1482.78 -2.3338 -2.5422 0
M  V30 15251 C 1481.89 -3.60137 -2.3859 0
M  V30 15252 C 1481.02 -3.86088 -3.64842 0
M  V30 15253 C 1480.06 -5.06184 -3.44157 0
M  V30 15254 N 1479.2 -5.28254 -4.62485 0
M  V30 15255 H 1484.04 -2.8529 -0.86102 0
M  V30 15256 H 1481.58 -1.41162 -0.413741 0
M  V30 15257 H 1483.54 -2.52711 -3.31953 0
M  V30 15258 H 1482.17 -1.47825 -2.86963 0
M  V30 15259 H 1481.22 -3.48704 -1.52019 0
M  V30 15260 H 1482.53 -4.48028 -2.19254 0
M  V30 15261 H 1481.68 -4.05802 -4.5101 0
M  V30 15262 H 1480.42 -2.96578 -3.8716 0
M  V30 15263 H 1479.43 -4.86366 -2.56376 0
M  V30 15264 H 1480.65 -5.97228 -3.23258 0
M  V30 15265 H 1478.6 -4.41695 -4.85017 0
M  V30 15266 H 1478.52 -6.10373 -4.46072 0
M  V30 15267 H 1479.78 -5.52448 -5.49928 0
M  V30 15268 N 1484.01 0.437135 -1.51416 0
M  V30 15269 C 1485.29 1.1978 -1.54636 0
M  V30 15270 C 1485.67 2.088 -0.310747 0
M  V30 15271 O 1485.02 2.1738 0.704148 0
M  V30 15272 C 1485.23 1.99947 -2.86046 0
M  V30 15273 C 1486.58 2.56981 -3.38003 0
M  V30 15274 O 1487.6 2.10157 -2.87598 0
M  V30 15275 O 1486.46 3.42383 -4.25953 0
M  V30 15276 H 1483.55 0.545346 -0.621713 0
M  V30 15277 H 1486.1 0.446189 -1.63729 0
M  V30 15278 H 1484.87 1.34564 -3.67435 0
M  V30 15279 H 1484.49 2.82172 -2.80115 0
M  V30 15280 N 1485.49 1.41566 0.692592 0
M  V30 15281 C 1486.72 1.44236 1.47917 0
M  V30 15282 C 1487.13 0.0469112 1.89142 0
M  V30 15283 O 1486.47 -0.944788 1.57542 0
M  V30 15284 C 1486.53 2.29056 2.7708 0
M  V30 15285 C 1486.2 3.77179 2.58041 0
M  V30 15286 C 1487.19 4.69267 2.23795 0
M  V30 15287 C 1484.88 4.21253 2.73589 0
M  V30 15288 C 1486.87 6.03419 2.05338 0
M  V30 15289 C 1484.56 5.55469 2.54749 0
M  V30 15290 C 1485.56 6.46368 2.20675 0
M  V30 15291 O 1485.25 7.78107 2.02002 0
M  V30 15292 H 1484.98 0.493237 0.462269 0
M  V30 15293 H 1487.53 1.8653 0.859984 0
M  V30 15294 H 1485.76 1.8158 3.41417 0
M  V30 15295 H 1487.45 2.23392 3.38897 0
M  V30 15296 H 1488.22 4.36506 2.11395 0
M  V30 15297 H 1484.1 3.50804 2.99094 0
M  V30 15298 H 1487.64 6.74333 1.78665 0
M  V30 15299 H 1483.54 5.87809 2.66741 0
M  V30 15300 H 1484.31 7.89282 2.16741 0
M  V30 15301 N 1486.97 -0.927146 1.27443 0
M  V30 15302 C 1488.21 -1.67738 1.13982 0
M  V30 15303 C 1488.55 -1.91653 -0.313511 0
M  V30 15304 O 1487.82 -1.50729 -1.22926 0
M  V30 15305 C 1488.11 -3.04357 1.92454 0
M  V30 15306 C 1487.96 -2.8768 3.45775 0
M  V30 15307 C 1489.28 -4.04696 1.72944 0
M  V30 15308 H 1486.4 -0.608749 0.415444 0
M  V30 15309 H 1489.04 -1.07587 1.56605 0
M  V30 15310 H 1487.19 -3.55702 1.56232 0
M  V30 15311 H 1488.86 -2.43449 3.9183 0
M  V30 15312 H 1487.1 -2.23011 3.72087 0
M  V30 15313 H 1487.77 -3.8464 3.95924 0
M  V30 15314 H 1490.25 -3.62364 2.04528 0
M  V30 15315 H 1489.13 -4.98276 2.30243 0
M  V30 15316 H 1489.39 -4.36878 0.677505 0
M  V30 15317 N 1488.45 -1.09474 -1.13372 0
M  V30 15318 C 1489.36 -0.746674 -2.224 0
M  V30 15319 C 1490.37 0.251572 -1.72172 0
M  V30 15320 O 1491.55 0.092793 -2.01186 0
M  V30 15321 C 1488.61 -0.172965 -3.46268 0
M  V30 15322 C 1487.67 -1.22722 -4.11385 0
M  V30 15323 C 1486.91 -0.680794 -5.2934 0
M  V30 15324 O 1487.13 0.496135 -5.68238 0
M  V30 15325 O 1486.06 -1.43605 -5.84518 0
M  V30 15326 H 1489.89 -1.65649 -2.54547 0
M  V30 15327 H 1487.48 -0.869172 -1.21514 0
M  V30 15328 H 1489.36 0.143629 -4.21155 0
M  V30 15329 H 1488.03 0.709853 -3.15821 0
M  V30 15330 H 1486.94 -1.59652 -3.38323 0
M  V30 15331 H 1488.27 -2.0827 -4.45965 0
M  V30 15332 N 1489.92 1.30607 -0.882012 0
M  V30 15333 C 1490.86 2.27177 -0.303861 0
M  V30 15334 C 1491.87 1.53587 0.539898 0
M  V30 15335 O 1493.06 1.74833 0.359931 0
M  V30 15336 C 1490.16 3.33781 0.586828 0
M  V30 15337 C 1489.33 4.3681 -0.227197 0
M  V30 15338 C 1488.39 5.22842 0.593519 0
M  V30 15339 O 1487.42 5.69197 0.0172694 0
M  V30 15340 N 1488.62 5.48414 1.90321 0
M  V30 15341 H 1491.38 2.77426 -1.13378 0
M  V30 15342 H 1488.94 1.43756 -0.744698 0
M  V30 15343 H 1490.94 3.88257 1.14186 0
M  V30 15344 H 1489.51 2.83483 1.31743 0
M  V30 15345 H 1488.73 3.82239 -0.963674 0
M  V30 15346 H 1490.01 5.02703 -0.785315 0
M  V30 15347 H 1489.41 5.1253 2.39435 0
M  V30 15348 H 1487.97 6.05778 2.40575 0
M  V30 15349 N 1491.4 0.642663 1.43901 0
M  V30 15350 C 1492.33 -0.0419756 2.33462 0
M  V30 15351 C 1493.31 -0.822923 1.48869 0
M  V30 15352 O 1494.5 -0.786508 1.7756 0
M  V30 15353 C 1491.63 -1.01631 3.32097 0
M  V30 15354 C 1490.58 -0.346206 4.26597 0
M  V30 15355 C 1489.91 -1.43125 5.15189 0
M  V30 15356 C 1491.21 0.754799 5.16817 0
M  V30 15357 H 1492.9 0.705929 2.90959 0
M  V30 15358 H 1490.45 0.340924 1.39906 0
M  V30 15359 H 1492.4 -1.5041 3.93643 0
M  V30 15360 H 1491.13 -1.79525 2.72834 0
M  V30 15361 H 1489.78 0.121038 3.664 0
M  V30 15362 H 1489.43 -2.20135 4.52271 0
M  V30 15363 H 1489.13 -0.988194 5.79231 0
M  V30 15364 H 1490.66 -1.92061 5.79607 0
M  V30 15365 H 1492.07 0.349624 5.72233 0
M  V30 15366 H 1490.47 1.12169 5.89524 0
M  V30 15367 H 1491.54 1.61718 4.57138 0
M  V30 15368 N 1492.88 -1.52852 0.383918 0
M  V30 15369 C 1494.13 -2.01112 -0.199594 0
M  V30 15370 C 1494.45 -1.27237 -1.47769 0
M  V30 15371 O 1493.72 -0.390873 -1.91961 0
M  V30 15372 H 1492.3 -0.743047 -0.0767466 0
M  V30 15373 H 1494.96 -1.8799 0.51437 0
M  V30 15374 H 1494.06 -3.09347 -0.413627 0
M  V30 15375 N 1494.36 -0.113586 -1.5719 0
M  V30 15376 C 1495.31 0.855985 -2.16277 0
M  V30 15377 C 1496.3 1.2792 -1.11053 0
M  V30 15378 O 1497.51 1.25158 -1.29366 0
M  V30 15379 H 1493.88 0.294134 -0.692091 0
M  V30 15380 H 1495.85 0.333109 -2.96535 0
M  V30 15381 C 1494.6 2.09832 -2.77247 0
M  V30 15382 H 1493.93 1.78158 -3.5791 0
M  V30 15383 H 1495.37 2.7569 -3.22135 0
M  V30 15384 C 1493.82 2.88453 -1.74059 0
M  V30 15385 O 1494.35 3.83648 -1.19068 0
M  V30 15386 N 1492.56 2.52342 -1.44124 0
M  V30 15387 H 1492.11 1.74998 -1.89033 0
M  V30 15388 H 1492.07 3.05244 -0.753234 0
M  V30 15389 N 1495.84 1.56784 0.160173 0
M  V30 15390 C 1496.8 1.96373 1.18195 0
M  V30 15391 C 1497.8 0.848674 1.3658 0
M  V30 15392 O 1498.99 1.11553 1.33796 0
M  V30 15393 C 1496.12 2.26824 2.54487 0
M  V30 15394 H 1497.32 2.87819 0.842641 0
M  V30 15395 H 1494.87 1.51014 0.403038 0
M  V30 15396 H 1495.6 1.38129 2.93413 0
M  V30 15397 H 1495.39 3.08112 2.42507 0
M  V30 15398 H 1496.88 2.58337 3.28104 0
M  V30 15399 N 1497.32 -0.429099 1.51646 0
M  V30 15400 C 1498.56 -1.17784 1.64722 0
M  V30 15401 C 1498.89 -1.90998 0.367415 0
M  V30 15402 O 1498.15 -1.8463 -0.648862 0
M  V30 15403 C 1498.44 -2.2131 2.80636 0
M  V30 15404 C 1498.11 -1.65048 4.19607 0
M  V30 15405 C 1496.77 -1.49428 4.57411 0
M  V30 15406 C 1499.12 -1.23765 5.06292 0
M  V30 15407 C 1496.45 -0.910109 5.79598 0
M  V30 15408 C 1498.8 -0.667743 6.29066 0
M  V30 15409 C 1497.47 -0.498507 6.65636 0
M  V30 15410 H 1496.74 -0.431001 0.60276 0
M  V30 15411 H 1499.39 -0.46775 1.857 0
M  V30 15412 H 1497.69 -2.98388 2.53913 0
M  V30 15413 H 1499.39 -2.79079 2.87951 0
M  V30 15414 H 1495.98 -1.78185 3.89805 0
M  V30 15415 H 1500.16 -1.3465 4.77685 0
M  V30 15416 H 1495.42 -0.766825 6.06572 0
M  V30 15417 H 1499.59 -0.339377 6.95573 0
M  V30 15418 H 1497.22 -0.0437292 7.60187 0
M  V30 15419 N 1498.79 -1.41931 -0.685074 0
M  V30 15420 C 1500.04 -1.41571 -1.44229 0
M  V30 15421 C 1500.36 -0.0294445 -1.94978 0
M  V30 15422 O 1499.63 0.930414 -1.72395 0
M  V30 15423 H 1498.21 -0.521138 -0.535186 0
M  V30 15424 H 1500.87 -1.77263 -0.81017 0
M  V30 15425 H 1499.97 -2.10929 -2.30034 0
M  V30 15426 N 1500.27 0.920374 -1.27933 0
M  V30 15427 C 1501.5 1.70804 -1.17647 0
M  V30 15428 C 1501.92 1.86264 0.262189 0
M  V30 15429 O 1501.28 1.36798 1.18979 0
M  V30 15430 C 1501.33 3.08142 -1.87298 0
M  V30 15431 O 1500.43 3.95279 -1.17593 0
M  V30 15432 H 1499.77 0.523267 -0.408763 0
M  V30 15433 H 1502.3 1.15127 -1.69136 0
M  V30 15434 H 1502.31 3.58414 -1.94945 0
M  V30 15435 H 1500.99 2.96208 -2.91948 0
M  V30 15436 H 1499.56 3.53716 -1.18065 0
M  V30 15437 N 1501.75 1.10074 1.1279 0
M  V30 15438 C 1503 0.839212 1.83852 0
M  V30 15439 C 1503.32 -0.637023 1.84301 0
M  V30 15440 O 1502.59 -1.46239 1.30349 0
M  V30 15441 H 1501.17 0.307468 0.680788 0
M  V30 15442 H 1503.83 1.39025 1.36595 0
M  V30 15443 H 1502.93 1.19872 2.88162 0
M  V30 15444 N 1503.23 -1.30138 0.888926 0
M  V30 15445 C 1504.47 -1.95989 0.509365 0
M  V30 15446 C 1504.8 -1.70153 -0.942249 0
M  V30 15447 O 1504.06 -1.00123 -1.68148 0
M  V30 15448 C 1504.36 -3.4975 0.735488 0
M  V30 15449 C 1504.02 -3.95644 2.1628 0
M  V30 15450 C 1502.68 -4.07886 2.55309 0
M  V30 15451 C 1505.04 -4.1952 3.09277 0
M  V30 15452 C 1502.36 -4.41367 3.86539 0
M  V30 15453 C 1504.72 -4.54472 4.40043 0
M  V30 15454 C 1503.38 -4.64923 4.7896 0
M  V30 15455 H 1502.65 -0.717175 0.18639 0
M  V30 15456 H 1505.3 -1.54932 1.12553 0
M  V30 15457 H 1503.6 -3.91783 0.0363165 0
M  V30 15458 H 1505.3 -3.9878 0.421351 0
M  V30 15459 H 1501.89 -3.86624 1.84985 0
M  V30 15460 H 1506.07 -4.09539 2.80342 0
M  V30 15461 H 1501.33 -4.47659 4.16427 0
M  V30 15462 H 1505.5 -4.71897 5.12138 0
M  V30 15463 H 1503.13 -4.90622 5.80685 0
M  V30 15464 N 1504.71 -0.650285 -1.43559 0
M  V30 15465 C 1505.93 -0.170139 -2.06199 0
M  V30 15466 C 1506.35 1.16304 -1.48724 0
M  V30 15467 O 1505.71 1.71739 -0.617418 0
M  V30 15468 C 1505.76 -0.0698577 -3.61432 0
M  V30 15469 O 1505.48 -1.35033 -4.16771 0
M  V30 15470 C 1506.98 0.436714 -4.41144 0
M  V30 15471 H 1504.2 -0.0885316 -0.665134 0
M  V30 15472 H 1506.74 -0.890104 -1.84112 0
M  V30 15473 H 1504.9 0.60065 -3.82715 0
M  V30 15474 H 1505.31 -1.20762 -5.10409 0
M  V30 15475 H 1506.79 0.455843 -5.50115 0
M  V30 15476 H 1507.26 1.46747 -4.13959 0
M  V30 15477 H 1507.87 -0.201201 -4.24824 0
M  V30 15478 N 1506.18 1.52647 -0.392018 0
M  V30 15479 C 1507.13 2.28073 0.456674 0
M  V30 15480 C 1508.13 1.3208 1.06071 0
M  V30 15481 O 1509.33 1.49608 1.00088 0
M  V30 15482 H 1505.71 0.733443 0.166029 0
M  V30 15483 H 1507.68 2.97723 -0.200916 0
M  V30 15484 C 1506.43 3.10216 1.5704 0
M  V30 15485 H 1505.75 3.83939 1.11493 0
M  V30 15486 H 1507.19 3.66126 2.1384 0
M  V30 15487 C 1505.65 2.22698 2.52799 0
M  V30 15488 O 1506.18 1.8556 3.56273 0
M  V30 15489 N 1504.38 1.86804 2.22604 0
M  V30 15490 H 1503.93 2.17204 1.38492 0
M  V30 15491 H 1503.89 1.28538 2.86924 0
M  V30 15492 N 1507.66 0.121921 1.57128 0
M  V30 15493 C 1508.59 -0.857725 2.12546 0
M  V30 15494 C 1509.61 -1.22797 1.06886 0
M  V30 15495 O 1510.8 -1.17641 1.34249 0
M  V30 15496 C 1507.9 -2.15869 2.61254 0
M  V30 15497 C 1507.07 -1.95969 3.91043 0
M  V30 15498 C 1506.13 -3.09822 4.2532 0
M  V30 15499 O 1505.15 -2.82608 4.94087 0
M  V30 15500 N 1506.36 -4.36333 3.82875 0
M  V30 15501 H 1509.12 -0.384239 2.97227 0
M  V30 15502 H 1506.68 -0.062416 1.6178 0
M  V30 15503 H 1508.67 -2.91035 2.81213 0
M  V30 15504 H 1507.24 -2.54557 1.81437 0
M  V30 15505 H 1506.46 -1.04979 3.79965 0
M  V30 15506 H 1507.75 -1.79981 4.75904 0
M  V30 15507 H 1507.15 -4.61318 3.27417 0
M  V30 15508 H 1505.71 -5.08362 4.07936 0
M  V30 15509 N 1509.14 -1.56867 -0.151857 0
M  V30 15510 C 1510.39 -1.82273 -0.863689 0
M  V30 15511 C 1510.7 -0.702377 -1.82554 0
M  V30 15512 O 1511.91 -0.841903 -2.58117 0
M  V30 15513 C 1510.36 -3.23046 -1.58649 0
M  V30 15514 C 1509.97 -4.43003 -0.667292 0
M  V30 15515 C 1511.72 -3.57729 -2.28539 0
M  V30 15516 C 1509.62 -5.74798 -1.39144 0
M  V30 15517 H 1508.55 -0.679753 -0.326269 0
M  V30 15518 H 1511.2 -1.8313 -0.116454 0
M  V30 15519 H 1509.59 -3.16561 -2.37918 0
M  V30 15520 H 1510.76 -4.60712 0.0898254 0
M  V30 15521 H 1509.08 -4.16329 -0.0770521 0
M  V30 15522 H 1511.67 -4.53451 -2.83348 0
M  V30 15523 H 1512.02 -2.8355 -3.04803 0
M  V30 15524 H 1512.55 -3.65853 -1.56194 0
M  V30 15525 H 1509.29 -6.52059 -0.670747 0
M  V30 15526 H 1508.81 -5.61032 -2.12139 0
M  V30 15527 H 1510.49 -6.17429 -1.93367 0
M  V30 15528 N 1510.62 0.421051 -1.51871 0
M  V30 15529 C 1511.86 1.17838 -1.67013 0
M  V30 15530 C 1512.22 1.88083 -0.385861 0
M  V30 15531 O 1513.42 2.65605 -0.41324 0
M  V30 15532 C 1511.69 2.15567 -2.85071 0
M  V30 15533 S 1513.25 2.99568 -3.20631 0
M  V30 15534 H 1510.07 0.399375 -0.588235 0
M  V30 15535 H 1512.67 0.46746 -1.89829 0
M  V30 15536 H 1511.38 1.62629 -3.76802 0
M  V30 15537 H 1510.91 2.91216 -2.64493 0
M  V30 15538 H 1512.92 4.1739 -2.68328 0
M  V30 15539 N 1512.1 1.42293 0.677538 0
M  V30 15540 C 1513.01 1.47953 1.82063 0
M  V30 15541 C 1514.02 0.36851 1.70053 0
M  V30 15542 O 1515.2 0.618996 1.91652 0
M  V30 15543 C 1512.26 1.3769 3.18186 0
M  V30 15544 C 1511.32 2.59261 3.42173 0
M  V30 15545 C 1510.56 2.49478 4.71801 0
M  V30 15546 O 1510.78 1.52915 5.49521 0
M  V30 15547 O 1509.71 3.39562 4.96972 0
M  V30 15548 H 1513.54 2.4443 1.80244 0
M  V30 15549 H 1511.13 1.24027 0.832932 0
M  V30 15550 H 1513.01 1.34319 3.9942 0
M  V30 15551 H 1511.68 0.443377 3.20649 0
M  V30 15552 H 1510.59 2.68207 2.60798 0
M  V30 15553 H 1511.92 3.51503 3.44538 0
M  V30 15554 N 1513.57 -0.913576 1.28419 0
M  V30 15555 C 1514.51 -2.02073 1.08163 0
M  V30 15556 C 1515.52 -1.62766 0.0333064 0
M  V30 15557 O 1516.71 -1.76347 0.27638 0
M  V30 15558 C 1513.81 -3.33151 0.621596 0
M  V30 15559 C 1512.98 -4.01068 1.74536 0
M  V30 15560 C 1512.04 -5.10428 1.27868 0
M  V30 15561 O 1511.07 -5.33617 1.98094 0
M  V30 15562 N 1512.27 -5.80326 0.141976 0
M  V30 15563 H 1515.03 -2.20009 2.0351 0
M  V30 15564 H 1512.59 -1.08488 1.20174 0
M  V30 15565 H 1514.59 -4.03638 0.292989 0
M  V30 15566 H 1513.16 -3.11685 -0.239031 0
M  V30 15567 H 1512.38 -3.24127 2.24355 0
M  V30 15568 H 1513.66 -4.4319 2.49919 0
M  V30 15569 H 1513.06 -5.63956 -0.443845 0
M  V30 15570 H 1511.62 -6.51676 -0.127354 0
M  V30 15571 N 1515.05 -1.1067 -1.12204 0
M  V30 15572 C 1516.3 -0.85189 -1.8404 0
M  V30 15573 C 1516.63 0.620988 -1.84004 0
M  V30 15574 O 1515.91 1.45801 -1.28734 0
M  V30 15575 C 1516.19 -1.40401 -3.31602 0
M  V30 15576 C 1516.04 -2.94392 -3.40078 0
M  V30 15577 C 1517.36 -1.04834 -4.27432 0
M  V30 15578 H 1514.48 -0.310924 -0.668203 0
M  V30 15579 H 1517.12 -1.37026 -1.3162 0
M  V30 15580 H 1515.27 -0.963107 -3.76373 0
M  V30 15581 H 1516.94 -3.47027 -3.03924 0
M  V30 15582 H 1515.19 -3.3087 -2.80548 0
M  V30 15583 H 1515.86 -3.28107 -4.43903 0
M  V30 15584 H 1518.33 -1.42882 -3.90799 0
M  V30 15585 H 1517.21 -1.46153 -5.29085 0
M  V30 15586 H 1517.47 0.0419272 -4.4208 0
M  V30 15587 N 1516.53 1.29665 -0.895815 0
M  V30 15588 C 1517.48 2.29791 -0.360404 0
M  V30 15589 C 1518.47 1.60617 0.538384 0
M  V30 15590 O 1519.68 1.74993 0.421616 0
M  V30 15591 H 1516.05 0.745599 -0.0979118 0
M  V30 15592 H 1518.02 2.72396 -1.21832 0
M  V30 15593 C 1516.77 3.45386 0.400451 0
M  V30 15594 H 1516.1 3.98805 -0.281915 0
M  V30 15595 H 1517.54 4.17492 0.740003 0
M  V30 15596 C 1516 2.96393 1.60165 0
M  V30 15597 O 1516.53 2.97339 2.70097 0
M  V30 15598 N 1514.73 2.52271 1.44249 0
M  V30 15599 H 1514.28 2.51701 0.548142 0
M  V30 15600 H 1514.24 2.19849 2.24753 0
M  V30 15601 N 1518.01 0.657889 1.43212 0
M  V30 15602 C 1518.94 -0.0172114 2.33494 0
M  V30 15603 C 1519.92 -0.807087 1.49733 0
M  V30 15604 O 1521.1 -0.767631 1.78385 0
M  V30 15605 C 1518.23 -0.981029 3.33156 0
M  V30 15606 C 1517.19 -0.30094 4.26941 0
M  V30 15607 C 1516.51 -1.37653 5.16678 0
M  V30 15608 C 1517.81 0.809572 5.15988 0
M  V30 15609 H 1519.51 0.736749 2.90194 0
M  V30 15610 H 1517.05 0.355744 1.39537 0
M  V30 15611 H 1519.01 -1.46226 3.95216 0
M  V30 15612 H 1517.73 -1.76621 2.74723 0
M  V30 15613 H 1516.39 0.159893 3.66251 0
M  V30 15614 H 1516.04 -2.15326 4.54581 0
M  V30 15615 H 1515.74 -0.926704 5.80246 0
M  V30 15616 H 1517.26 -1.85903 5.81612 0
M  V30 15617 H 1518.68 0.410297 5.7183 0
M  V30 15618 H 1517.07 1.18415 5.88301 0
M  V30 15619 H 1518.14 1.66558 4.55397 0
M  V30 15620 N 1519.49 -1.52437 0.400108 0
M  V30 15621 C 1520.42 -2.29672 -0.421054 0
M  V30 15622 C 1521.4 -1.33506 -1.05405 0
M  V30 15623 O 1522.58 -1.62408 -1.06477 0
M  V30 15624 C 1519.71 -3.1115 -1.54281 0
M  V30 15625 C 1518.67 -4.1529 -1.0353 0
M  V30 15626 C 1517.99 -4.85058 -2.24996 0
M  V30 15627 C 1519.29 -5.22212 -0.0956529 0
M  V30 15628 H 1520.99 -2.98565 0.2234 0
M  V30 15629 H 1518.53 -1.43588 0.108883 0
M  V30 15630 H 1520.49 -3.63945 -2.12419 0
M  V30 15631 H 1519.21 -2.4001 -2.21501 0
M  V30 15632 H 1517.87 -3.63492 -0.476383 0
M  V30 15633 H 1517.52 -4.10455 -2.9075 0
M  V30 15634 H 1517.22 -5.55452 -1.91694 0
M  V30 15635 H 1518.74 -5.40661 -2.83756 0
M  V30 15636 H 1520.15 -5.70302 -0.585548 0
M  V30 15637 H 1518.55 -5.99917 0.148121 0
M  V30 15638 H 1519.62 -4.77351 0.852296 0
M  V30 15639 N 1520.96 -0.130252 -1.57061 0
M  V30 15640 C 1521.91 0.815767 -2.15902 0
M  V30 15641 C 1522.88 1.2558 -1.08715 0
M  V30 15642 O 1524.07 1.33132 -1.36677 0
M  V30 15643 C 1521.21 2.0561 -2.77162 0
M  V30 15644 C 1520.32 1.6634 -3.98692 0
M  V30 15645 C 1519.45 2.85425 -4.48002 0
M  V30 15646 C 1518.49 2.42449 -5.62036 0
M  V30 15647 N 1517.63 3.54486 -6.0604 0
M  V30 15648 H 1522.47 0.307164 -2.96413 0
M  V30 15649 H 1520.01 0.139913 -1.46433 0
M  V30 15650 H 1521.97 2.78298 -3.10815 0
M  V30 15651 H 1520.6 2.5391 -1.99323 0
M  V30 15652 H 1519.65 0.834817 -3.71127 0
M  V30 15653 H 1520.96 1.30765 -4.81354 0
M  V30 15654 H 1520.11 3.66325 -4.83623 0
M  V30 15655 H 1518.85 3.24235 -3.64312 0
M  V30 15656 H 1517.86 1.59985 -5.26008 0
M  V30 15657 H 1519.08 2.04744 -6.475 0
M  V30 15658 H 1517.03 3.92948 -5.25289 0
M  V30 15659 H 1516.95 3.22871 -6.83586 0
M  V30 15660 H 1518.21 4.35792 -6.46302 0
M  V30 15661 N 1522.44 1.56945 0.143535 0
M  V30 15662 C 1523.35 2.01795 1.1965 0
M  V30 15663 C 1524.37 0.933965 1.4681 0
M  V30 15664 O 1525.55 1.2437 1.58411 0
M  V30 15665 C 1522.61 2.39249 2.5092 0
M  V30 15666 C 1521.67 3.61613 2.31376 0
M  V30 15667 C 1520.9 3.97271 3.56386 0
M  V30 15668 O 1521.13 3.33552 4.62709 0
M  V30 15669 O 1520.06 4.90501 3.48844 0
M  V30 15670 H 1523.89 2.91687 0.845718 0
M  V30 15671 H 1521.47 1.45182 0.352518 0
M  V30 15672 H 1523.35 2.64184 3.28306 0
M  V30 15673 H 1522.03 1.52511 2.85521 0
M  V30 15674 H 1520.94 3.4186 1.51929 0
M  V30 15675 H 1522.27 4.48979 2.01689 0
M  V30 15676 N 1523.92 -0.412991 1.52093 0
M  V30 15677 C 1525.15 -1.18667 1.70096 0
M  V30 15678 C 1525.57 -1.83622 0.408012 0
M  V30 15679 O 1524.93 -1.69847 -0.634174 0
M  V30 15680 C 1524.98 -2.22837 2.83507 0
M  V30 15681 O 1524.08 -3.2889 2.48807 0
M  V30 15682 H 1523.42 -0.346581 0.566373 0
M  V30 15683 H 1525.95 -0.484642 1.98777 0
M  V30 15684 H 1525.96 -2.67229 3.08306 0
M  V30 15685 H 1524.64 -1.74942 3.77317 0
M  V30 15686 H 1523.21 -2.89804 2.34665 0
M  V30 15687 N 1525.4 -1.4265 -0.669982 0
M  V30 15688 C 1526.33 -1.49298 -1.79534 0
M  V30 15689 C 1527.31 -0.34911 -1.66479 0
M  V30 15690 O 1528.5 -0.564072 -1.85828 0
M  V30 15691 C 1525.63 -1.39935 -3.17861 0
M  V30 15692 C 1524.58 -2.52398 -3.45657 0
M  V30 15693 C 1523.91 -2.28092 -4.8361 0
M  V30 15694 C 1525.21 -3.94697 -3.4207 0
M  V30 15695 H 1526.9 -2.43486 -1.74227 0
M  V30 15696 H 1524.45 -1.17191 -0.836796 0
M  V30 15697 H 1526.4 -1.43193 -3.96325 0
M  V30 15698 H 1525.12 -0.422436 -3.23857 0
M  V30 15699 H 1523.78 -2.48465 -2.69556 0
M  V30 15700 H 1523.43 -1.28683 -4.86261 0
M  V30 15701 H 1523.13 -3.03469 -5.0317 0
M  V30 15702 H 1524.65 -2.33107 -5.64352 0
M  V30 15703 H 1526.07 -4.00207 -4.10496 0
M  V30 15704 H 1524.46 -4.69965 -3.73166 0
M  V30 15705 H 1525.53 -4.21025 -2.40554 0
M  V30 15706 N 1526.88 0.906753 -1.28902 0
M  V30 15707 C 1528.12 1.65903 -1.16636 0
M  V30 15708 C 1528.46 1.92127 0.282981 0
M  V30 15709 O 1527.73 1.52666 1.20513 0
M  V30 15710 C 1528.01 3.01257 -1.97272 0
M  V30 15711 C 1527.87 2.82143 -3.50308 0
M  V30 15712 C 1529.19 4.01893 -1.7936 0
M  V30 15713 H 1526.31 0.602063 -0.425076 0
M  V30 15714 H 1528.95 1.05081 -1.58297 0
M  V30 15715 H 1527.1 3.53172 -1.61871 0
M  V30 15716 H 1528.77 2.37184 -3.95653 0
M  V30 15717 H 1527.01 2.17063 -3.75588 0
M  V30 15718 H 1527.68 3.78293 -4.01993 0
M  V30 15719 H 1530.16 3.59064 -2.10267 0
M  V30 15720 H 1529.04 4.9455 -2.38141 0
M  V30 15721 H 1529.3 4.35745 -0.746923 0
M  V30 15722 N 1528.36 1.11264 1.11616 0
M  V30 15723 C 1529.6 0.858664 1.82952 0
M  V30 15724 C 1529.92 -0.617439 1.84967 0
M  V30 15725 O 1529.19 -1.44849 1.31893 0
M  V30 15726 H 1527.77 0.314671 0.677489 0
M  V30 15727 H 1530.44 1.40466 1.35113 0
M  V30 15728 H 1529.53 1.22921 2.86874 0
M  V30 15729 N 1529.83 -1.29188 0.902679 0
M  V30 15730 C 1530.77 -2.26665 0.339964 0
M  V30 15731 C 1531.78 -1.54426 -0.515396 0
M  V30 15732 O 1532.97 -1.75384 -0.332071 0
M  V30 15733 C 1530.07 -3.34672 -0.533653 0
M  V30 15734 C 1529.24 -4.36393 0.296661 0
M  V30 15735 C 1528.3 -5.2372 -0.510264 0
M  V30 15736 O 1527.33 -5.69153 0.0732871 0
M  V30 15737 N 1528.53 -5.51373 -1.81572 0
M  V30 15738 H 1531.29 -2.75588 1.17778 0
M  V30 15739 H 1528.85 -1.42553 0.767474 0
M  V30 15740 H 1530.85 -3.90025 -1.07995 0
M  V30 15741 H 1529.42 -2.85543 -1.27216 0
M  V30 15742 H 1528.64 -3.80658 1.02436 0
M  V30 15743 H 1529.92 -5.0139 0.865191 0
M  V30 15744 H 1529.32 -5.16275 -2.31251 0
M  V30 15745 H 1527.88 -6.09528 -2.30908 0
M  V30 15746 N 1531.31 -0.665475 -1.42861 0
M  V30 15747 C 1532.59 -0.113252 -1.95272 0
M  V30 15748 C 1532.97 1.36972 -1.6063 0
M  V30 15749 O 1532.32 2.10129 -0.897662 0
M  V30 15750 C 1532.53 -0.372482 -3.47007 0
M  V30 15751 C 1533.87 -0.283982 -4.23649 0
M  V30 15752 O 1534.9 -0.305714 -3.54886 0
M  V30 15753 O 1533.76 -0.218171 -5.46064 0
M  V30 15754 H 1530.85 0.00253712 -0.826996 0
M  V30 15755 H 1533.4 -0.739561 -1.52737 0
M  V30 15756 H 1532.17 -1.40015 -3.65392 0
M  V30 15757 H 1531.79 0.286294 -3.96568 0
M  V30 15758 N 1532.79 1.52222 -0.408187 0
M  V30 15759 C 1534.01 2.06703 0.169901 0
M  V30 15760 C 1534.44 1.27635 1.3817 0
M  V30 15761 O 1533.8 0.306343 1.78693 0
M  V30 15762 C 1533.85 3.57121 0.499663 0
M  V30 15763 O 1532.95 3.80483 1.5908 0
M  V30 15764 H 1532.29 0.663839 0.0146145 0
M  V30 15765 H 1534.82 1.96174 -0.581113 0
M  V30 15766 H 1534.83 4.00886 0.758567 0
M  V30 15767 H 1533.51 4.14103 -0.386182 0
M  V30 15768 H 1532.08 3.48599 1.32413 0
M  V30 15769 N 1534.27 0.138579 1.5699 0
M  V30 15770 C 1535.52 -0.514545 1.95026 0
M  V30 15771 C 1535.83 -1.66565 1.02544 0
M  V30 15772 O 1537.04 -2.38284 1.30126 0
M  V30 15773 C 1535.49 -0.966746 3.46673 0
M  V30 15774 C 1535.1 0.156969 4.47725 0
M  V30 15775 C 1536.84 -1.59014 3.93592 0
M  V30 15776 C 1534.75 -0.313031 5.90571 0
M  V30 15777 H 1533.68 -0.195991 0.728082 0
M  V30 15778 H 1536.33 0.221575 1.82157 0
M  V30 15779 H 1534.71 -1.75788 3.54845 0
M  V30 15780 H 1535.89 0.933728 4.51241 0
M  V30 15781 H 1534.2 0.688238 4.10673 0
M  V30 15782 H 1536.8 -1.95326 4.97747 0
M  V30 15783 H 1537.14 -2.47595 3.34668 0
M  V30 15784 H 1537.68 -0.864061 3.88302 0
M  V30 15785 H 1534.41 0.5372 6.53295 0
M  V30 15786 H 1533.93 -1.05585 5.90434 0
M  V30 15787 H 1535.61 -0.767826 6.42428 0
M  V30 15788 N 1535.75 -1.57019 -0.13521 0
M  V30 15789 C 1536.68 -2.02182 -1.16811 0
M  V30 15790 C 1537.66 -0.9034 -1.44127 0
M  V30 15791 O 1538.84 -1.17202 -1.54846 0
M  V30 15792 C 1535.97 -2.41243 -2.49838 0
M  V30 15793 C 1534.93 -3.56379 -2.37018 0
M  V30 15794 C 1534.25 -3.8129 -3.74863 0
M  V30 15795 C 1535.55 -4.88653 -1.84432 0
M  V30 15796 H 1537.25 -2.8872 -0.792529 0
M  V30 15797 H 1534.79 -1.38901 -0.379788 0
M  V30 15798 H 1536.74 -2.7144 -3.22332 0
M  V30 15799 H 1535.47 -1.51656 -2.89254 0
M  V30 15800 H 1534.13 -3.26366 -1.66975 0
M  V30 15801 H 1533.78 -2.88934 -4.11735 0
M  V30 15802 H 1533.48 -4.58781 -3.67143 0
M  V30 15803 H 1535 -4.13924 -4.48887 0
M  V30 15804 H 1536.41 -5.17492 -2.46729 0
M  V30 15805 H 1534.81 -5.70032 -1.87574 0
M  V30 15806 H 1535.88 -4.78242 -0.800759 0
M  V30 15807 N 1537.22 0.404919 -1.52309 0
M  V30 15808 C 1538.13 1.51822 -1.7885 0
M  V30 15809 C 1539.15 1.60403 -0.674307 0
M  V30 15810 O 1540.33 1.77038 -0.960175 0
M  V30 15811 C 1537.39 2.87516 -1.9374 0
M  V30 15812 C 1536.45 2.88787 -3.17648 0
M  V30 15813 C 1535.69 4.18009 -3.31819 0
M  V30 15814 O 1535.91 5.12129 -2.51158 0
M  V30 15815 O 1534.84 4.26222 -4.24992 0
M  V30 15816 H 1538.67 1.32329 -2.73354 0
M  V30 15817 H 1536.25 0.591193 -1.37205 0
M  V30 15818 H 1538.14 3.6799 -2.05333 0
M  V30 15819 H 1536.81 3.07068 -1.02425 0
M  V30 15820 H 1535.72 2.07152 -3.11511 0
M  V30 15821 H 1537.05 2.74185 -4.08758 0
M  V30 15822 N 1538.7 1.43003 0.662408 0
M  V30 15823 C 1539.65 1.47448 1.77561 0
M  V30 15824 C 1540.62 0.325121 1.62887 0
M  V30 15825 O 1541.8 0.530971 1.83263 0
M  V30 15826 C 1538.94 1.3946 3.15666 0
M  V30 15827 C 1538.06 2.64529 3.41539 0
M  V30 15828 C 1537.19 2.48594 4.69441 0
M  V30 15829 C 1536.23 3.68976 4.88388 0
M  V30 15830 N 1535.37 3.51908 6.0754 0
M  V30 15831 H 1540.21 2.42573 1.73097 0
M  V30 15832 H 1537.75 1.2042 0.84484 0
M  V30 15833 H 1539.7 1.32824 3.95492 0
M  V30 15834 H 1538.33 0.479227 3.19223 0
M  V30 15835 H 1537.39 2.81481 2.55877 0
M  V30 15836 H 1538.7 3.53977 3.51429 0
M  V30 15837 H 1537.85 2.39614 5.57378 0
M  V30 15838 H 1536.59 1.56656 4.61855 0
M  V30 15839 H 1535.6 3.78374 3.9889 0
M  V30 15840 H 1536.82 4.61911 4.9781 0
M  V30 15841 H 1534.77 2.62697 6.01104 0
M  V30 15842 H 1534.68 4.34951 6.18347 0
M  V30 15843 H 1535.95 3.46763 6.98123 0
M  V30 15844 N 1540.18 -0.899904 1.29381 0
M  V30 15845 C 1541.41 -1.68911 1.20349 0
M  V30 15846 C 1541.83 -1.86657 -0.232523 0
M  V30 15847 O 1541.19 -1.38674 -1.16787 0
M  V30 15848 C 1541.24 -3.05124 1.92177 0
M  V30 15849 O 1540.34 -3.93358 1.23867 0
M  V30 15850 H 1539.68 -0.516698 0.417036 0
M  V30 15851 H 1542.21 -1.12422 1.70946 0
M  V30 15852 H 1542.22 -3.55267 2.00623 0
M  V30 15853 H 1540.9 -2.91525 2.96624 0
M  V30 15854 H 1539.47 -3.51793 1.23677 0
M  V30 15855 N 1541.66 -1.11854 -1.11024 0
M  V30 15856 C 1542.59 -0.803129 -2.19253 0
M  V30 15857 C 1543.57 0.230417 -1.68532 0
M  V30 15858 O 1544.75 0.0929421 -1.93977 0
M  V30 15859 C 1541.88 -0.250265 -3.46397 0
M  V30 15860 C 1540.84 -1.21617 -4.10357 0
M  V30 15861 C 1540.16 -0.523821 -5.32128 0
M  V30 15862 C 1541.46 -2.56852 -4.54779 0
M  V30 15863 H 1543.16 -1.7081 -2.45895 0
M  V30 15864 H 1540.7 -0.822712 -1.18184 0
M  V30 15865 H 1542.66 -0.0173732 -4.21396 0
M  V30 15866 H 1541.38 0.690018 -3.19228 0
M  V30 15867 H 1540.04 -1.43477 -3.37357 0
M  V30 15868 H 1539.69 0.421408 -5.01232 0
M  V30 15869 H 1539.39 -1.16809 -5.75873 0
M  V30 15870 H 1540.91 -0.299823 -6.09863 0
M  V30 15871 H 1542.33 -2.39056 -5.21081 0
M  V30 15872 H 1540.72 -3.17301 -5.09353 0
M  V30 15873 H 1541.79 -3.15751 -3.68007 0
M  V30 15874 N 1543.14 1.28707 -0.909517 0
M  V30 15875 C 1544.08 2.27427 -0.393155 0
M  V30 15876 C 1545.05 1.57414 0.53009 0
M  V30 15877 O 1546.24 1.85339 0.453205 0
M  V30 15878 C 1543.38 3.4317 0.364507 0
M  V30 15879 C 1542.49 4.27942 -0.590757 0
M  V30 15880 C 1541.63 5.30878 0.184931 0
M  V30 15881 C 1540.67 6.07311 -0.764222 0
M  V30 15882 N 1539.8 7.02096 -0.0223203 0
M  V30 15883 H 1544.64 2.70974 -1.24005 0
M  V30 15884 H 1542.18 1.33265 -0.6228 0
M  V30 15885 H 1544.14 4.09063 0.819937 0
M  V30 15886 H 1542.77 3.00625 1.17578 0
M  V30 15887 H 1541.82 3.62131 -1.16471 0
M  V30 15888 H 1543.13 4.81102 -1.31689 0
M  V30 15889 H 1542.29 6.02635 0.701116 0
M  V30 15890 H 1541.02 4.78474 0.944143 0
M  V30 15891 H 1540.03 5.34408 -1.29182 0
M  V30 15892 H 1541.25 6.61804 -1.52292 0
M  V30 15893 H 1539.2 6.52048 0.718978 0
M  V30 15894 H 1539.12 7.5286 -0.688359 0
M  V30 15895 H 1540.39 7.78059 0.473807 0
M  V30 15896 N 1544.61 0.673042 1.42506 0
M  V30 15897 C 1545.58 0.00283156 2.292 0
M  V30 15898 C 1546.58 -0.73077 1.43235 0
M  V30 15899 O 1547.77 -0.569037 1.64644 0
M  V30 15900 C 1544.9 -1.00666 3.25698 0
M  V30 15901 H 1546.09 0.765869 2.89956 0
M  V30 15902 H 1543.65 0.435301 1.50116 0
M  V30 15903 H 1544.38 -1.79825 2.69877 0
M  V30 15904 H 1544.17 -0.484043 3.89101 0
M  V30 15905 H 1545.66 -1.47409 3.90718 0
M  V30 15906 N 1546.09 -1.52004 0.416254 0
M  V30 15907 C 1547.02 -2.30106 -0.396671 0
M  V30 15908 C 1548 -1.34616 -1.03983 0
M  V30 15909 O 1549.19 -1.63528 -1.04749 0
M  V30 15910 C 1546.32 -3.12769 -1.50972 0
M  V30 15911 C 1545.27 -4.16365 -0.99119 0
M  V30 15912 C 1544.6 -4.87417 -2.19838 0
M  V30 15913 C 1545.9 -5.22284 -0.0402599 0
M  V30 15914 H 1547.59 -2.98312 0.255054 0
M  V30 15915 H 1545.14 -1.43464 0.124106 0
M  V30 15916 H 1547.09 -3.66178 -2.08547 0
M  V30 15917 H 1545.82 -2.42346 -2.18943 0
M  V30 15918 H 1544.47 -3.63976 -0.437803 0
M  V30 15919 H 1544.12 -4.13516 -2.8638 0
M  V30 15920 H 1543.82 -5.57454 -1.85792 0
M  V30 15921 H 1545.35 -5.43641 -2.78006 0
M  V30 15922 H 1546.76 -5.70891 -0.525027 0
M  V30 15923 H 1545.16 -5.99726 0.211742 0
M  V30 15924 H 1546.23 -4.7642 0.902877 0
M  V30 15925 N 1547.57 -0.146903 -1.56914 0
M  V30 15926 C 1548.82 0.504981 -1.96412 0
M  V30 15927 C 1549.15 1.64522 -1.0318 0
M  V30 15928 O 1548.42 1.94359 -0.0741728 0
M  V30 15929 C 1548.71 1.01125 -3.45609 0
M  V30 15930 C 1548.56 -0.127493 -4.49619 0
M  V30 15931 C 1549.88 1.89306 -3.97305 0
M  V30 15932 H 1547 0.182088 -0.714152 0
M  V30 15933 H 1549.64 -0.22811 -1.88626 0
M  V30 15934 H 1547.79 1.63595 -3.52376 0
M  V30 15935 H 1549.46 -0.763829 -4.54932 0
M  V30 15936 H 1547.71 -0.786649 -4.26608 0
M  V30 15937 H 1548.38 0.268453 -5.51347 0
M  V30 15938 H 1550.85 1.36664 -3.93017 0
M  V30 15939 H 1549.73 2.21638 -5.02163 0
M  V30 15940 H 1549.99 2.82996 -3.39655 0
M  V30 15941 N 1549.05 1.57088 0.126881 0
M  V30 15942 C 1550 1.99764 1.15599 0
M  V30 15943 C 1550.97 0.868468 1.41587 0
M  V30 15944 O 1552.15 1.13209 1.53585 0
M  V30 15945 C 1549.29 2.40038 2.47943 0
M  V30 15946 C 1548.4 3.66336 2.28958 0
M  V30 15947 C 1547.54 3.95626 3.54477 0
M  V30 15948 C 1546.58 5.15131 3.30616 0
M  V30 15949 N 1545.71 5.4033 4.48317 0
M  V30 15950 H 1550.55 2.87473 0.785078 0
M  V30 15951 H 1548.09 1.42209 0.376169 0
M  V30 15952 H 1550.05 2.61423 3.25136 0
M  V30 15953 H 1548.68 1.55382 2.82942 0
M  V30 15954 H 1547.73 3.52612 1.4272 0
M  V30 15955 H 1549.04 4.53684 2.07298 0
M  V30 15956 H 1548.2 4.17617 4.40092 0
M  V30 15957 H 1546.94 3.06738 3.79161 0
M  V30 15958 H 1545.94 4.92992 2.43391 0
M  V30 15959 H 1547.17 6.05588 3.0731 0
M  V30 15960 H 1545.11 4.54399 4.73136 0
M  V30 15961 H 1545.03 6.21985 4.29733 0
M  V30 15962 H 1546.3 5.66835 5.35088 0
M  V30 15963 N 1550.53 -0.396836 1.52522 0
M  V30 15964 C 1551.78 -1.13978 1.66409 0
M  V30 15965 C 1552.09 -1.91333 0.406326 0
M  V30 15966 O 1553.29 -2.6815 0.425195 0
M  V30 15967 C 1551.75 -2.07512 2.94052 0
M  V30 15968 C 1551.36 -1.35616 4.2698 0
M  V30 15969 C 1553.1 -2.8199 3.17304 0
M  V30 15970 C 1551.01 -2.2787 5.45737 0
M  V30 15971 H 1549.94 -0.429181 0.619935 0
M  V30 15972 H 1552.59 -0.403207 1.79015 0
M  V30 15973 H 1550.97 -2.84773 2.75174 0
M  V30 15974 H 1552.15 -0.636349 4.56385 0
M  V30 15975 H 1550.46 -0.731297 4.09928 0
M  V30 15976 H 1553.06 -3.5118 4.03208 0
M  V30 15977 H 1553.4 -3.45629 2.32048 0
M  V30 15978 H 1553.93 -2.11824 3.36712 0
M  V30 15979 H 1550.67 -1.68858 6.33378 0
M  V30 15980 H 1550.19 -2.97789 5.20655 0
M  V30 15981 H 1551.87 -2.88126 5.79303 0
M  V30 15982 N 1552.01 -1.43353 -0.654814 0
M  V30 15983 C 1553.25 -1.44172 -1.41058 0
M  V30 15984 C 1553.57 -0.0690586 -1.95478 0
M  V30 15985 O 1554.77 0.0453021 -2.71462 0
M  V30 15986 C 1553.23 -2.53701 -2.55272 0
M  V30 15987 C 1552.84 -3.97066 -2.07466 0
M  V30 15988 C 1554.58 -2.63713 -3.3265 0
M  V30 15989 C 1552.49 -4.98065 -3.18881 0
M  V30 15990 H 1551.42 -0.536303 -0.529995 0
M  V30 15991 H 1554.07 -1.69336 -0.706941 0
M  V30 15992 H 1552.45 -2.21736 -3.28099 0
M  V30 15993 H 1553.63 -4.38485 -1.4166 0
M  V30 15994 H 1551.94 -3.91086 -1.42972 0
M  V30 15995 H 1554.54 -3.36346 -4.15663 0
M  V30 15996 H 1554.88 -1.68729 -3.80574 0
M  V30 15997 H 1555.41 -2.94971 -2.66902 0
M  V30 15998 H 1552.15 -5.94596 -2.75927 0
M  V30 15999 H 1551.67 -4.61261 -3.83404 0
M  V30 16000 H 1553.35 -5.20696 -3.84037 0
M  V30 16001 N 1553.48 0.89303 -1.29857 0
M  V30 16002 C 1554.71 1.6827 -1.21243 0
M  V30 16003 C 1555.13 1.86778 0.222621 0
M  V30 16004 O 1554.49 1.39291 1.1605 0
M  V30 16005 C 1554.54 3.041 -1.93792 0
M  V30 16006 O 1553.64 3.92696 -1.25951 0
M  V30 16007 H 1552.98 0.514479 -0.419771 0
M  V30 16008 H 1555.51 1.11513 -1.7154 0
M  V30 16009 H 1555.52 3.54198 -2.02504 0
M  V30 16010 H 1554.2 2.89948 -2.98166 0
M  V30 16011 H 1552.78 3.51132 -1.25541 0
M  V30 16012 N 1554.96 1.12442 1.10429 0
M  V30 16013 C 1555.92 0.795443 2.14954 0
M  V30 16014 C 1556.92 -0.19022 1.59671 0
M  V30 16015 O 1558.11 0.0355797 1.74164 0
M  V30 16016 C 1555.25 0.182043 3.40414 0
M  V30 16017 H 1556.44 1.72153 2.45567 0
M  V30 16018 H 1553.99 0.927672 1.25793 0
M  V30 16019 H 1554.73 -0.753766 3.15419 0
M  V30 16020 H 1554.51 0.891708 3.81826 0
M  V30 16021 H 1556 -0.0316286 4.17588 0
M  V30 16022 N 1556.44 -1.28223 0.91633 0
M  V30 16023 C 1557.37 -2.29623 0.423735 0
M  V30 16024 C 1558.35 -1.62274 -0.510016 0
M  V30 16025 O 1559.54 -1.89666 -0.4172 0
M  V30 16026 C 1556.67 -3.45684 -0.334686 0
M  V30 16027 C 1555.62 -4.24949 0.510169 0
M  V30 16028 C 1554.95 -5.33371 -0.376745 0
M  V30 16029 C 1556.25 -4.91438 1.76877 0
M  V30 16030 H 1557.94 -2.71076 1.27115 0
M  V30 16031 H 1555.49 -1.30316 0.612678 0
M  V30 16032 H 1557.44 -4.1571 -0.690154 0
M  V30 16033 H 1556.16 -3.03118 -1.21603 0
M  V30 16034 H 1554.82 -3.56653 0.848191 0
M  V30 16035 H 1554.47 -4.87048 -1.25671 0
M  V30 16036 H 1554.17 -5.87309 0.18496 0
M  V30 16037 H 1555.69 -6.06244 -0.728039 0
M  V30 16038 H 1557.11 -5.53812 1.48205 0
M  V30 16039 H 1555.5 -5.55384 2.27308 0
M  V30 16040 H 1556.57 -4.15783 2.49505 0
M  V30 16041 N 1557.92 -0.68059 -1.42147 0
M  V30 16042 C 1559.16 -0.205567 -2.01755 0
M  V30 16043 C 1559.5 1.18677 -1.53718 0
M  V30 16044 O 1558.77 1.79796 -0.741867 0
M  V30 16045 C 1559.05 -0.246615 -3.59255 0
M  V30 16046 C 1558.91 -1.67483 -4.17456 0
M  V30 16047 C 1560.23 0.40196 -4.38261 0
M  V30 16048 H 1557.35 -0.0761717 -0.733053 0
M  V30 16049 H 1559.99 -0.866473 -1.69092 0
M  V30 16050 H 1558.14 0.316127 -3.87212 0
M  V30 16051 H 1559.81 -2.29026 -4.00431 0
M  V30 16052 H 1558.05 -2.2137 -3.73065 0
M  V30 16053 H 1558.72 -1.65519 -5.266 0
M  V30 16054 H 1561.2 -0.077135 -4.16028 0
M  V30 16055 H 1560.08 0.342627 -5.4783 0
M  V30 16056 H 1560.34 1.48044 -4.16576 0
M  V30 16057 N 1559.4 1.51781 -0.424309 0
M  V30 16058 C 1560.64 2.01157 0.147925 0
M  V30 16059 C 1560.96 1.31369 1.44919 0
M  V30 16060 O 1562.16 1.71643 2.10359 0
M  V30 16061 C 1560.62 3.58526 0.31417 0
M  V30 16062 C 1560.23 4.37242 -0.975898 0
M  V30 16063 C 1561.97 4.16088 0.840876 0
M  V30 16064 C 1559.88 5.86287 -0.776009 0
M  V30 16065 H 1558.81 0.751684 0.0590568 0
M  V30 16066 H 1561.46 1.74998 -0.552079 0
M  V30 16067 H 1559.84 3.81077 1.07687 0
M  V30 16068 H 1561.02 4.26444 -1.74592 0
M  V30 16069 H 1559.33 3.9107 -1.43015 0
M  V30 16070 H 1561.93 5.25138 1.0067 0
M  V30 16071 H 1562.27 3.7442 1.81977 0
M  V30 16072 H 1562.8 3.97565 0.136836 0
M  V30 16073 H 1559.54 6.32343 -1.7269 0
M  V30 16074 H 1559.06 5.99783 -0.0455544 0
M  V30 16075 H 1560.74 6.45609 -0.424095 0
M  V30 16076 N 1560.87 0.155222 1.56834 0
M  V30 16077 C 1562.12 -0.494557 1.96677 0
M  V30 16078 C 1562.45 -1.63973 1.04051 0
M  V30 16079 O 1561.73 -1.94316 0.0844791 0
M  V30 16080 C 1562.01 -0.992902 3.46141 0
M  V30 16081 C 1561.86 0.151335 4.49545 0
M  V30 16082 C 1563.18 -1.87197 3.98303 0
M  V30 16083 H 1560.3 -0.178298 0.715107 0
M  V30 16084 H 1562.94 0.23811 1.88502 0
M  V30 16085 H 1561.09 -1.61724 3.53239 0
M  V30 16086 H 1562.77 0.787945 4.54521 0
M  V30 16087 H 1561.01 0.809262 4.26185 0
M  V30 16088 H 1561.68 -0.23921 5.51481 0
M  V30 16089 H 1564.16 -1.34578 3.93736 0
M  V30 16090 H 1563.03 -2.18972 5.03331 0
M  V30 16091 H 1563.29 -2.81191 3.41151 0
M  V30 16092 N 1562.35 -1.57153 -0.118549 0
M  V30 16093 C 1563.6 -1.8515 -0.82748 0
M  V30 16094 C 1563.93 -0.741026 -1.79506 0
M  V30 16095 O 1563.21 0.253095 -1.92846 0
M  V30 16096 C 1563.49 -3.23734 -1.57698 0
M  V30 16097 C 1563.34 -4.45381 -0.628967 0
M  V30 16098 C 1564.66 -3.59895 -2.53305 0
M  V30 16099 H 1561.78 -0.673459 -0.29937 0
M  V30 16100 H 1564.42 -1.89778 -0.0917198 0
M  V30 16101 H 1562.57 -3.19919 -2.20418 0
M  V30 16102 H 1564.24 -4.61299 -0.0105746 0
M  V30 16103 H 1562.49 -4.33759 0.059462 0
M  V30 16104 H 1563.16 -5.3902 -1.19004 0
M  V30 16105 H 1565.63 -3.64503 -2.0069 0
M  V30 16106 H 1564.51 -4.57839 -3.02778 0
M  V30 16107 H 1564.77 -2.87338 -3.3599 0
M  V30 16108 N 1563.83 0.388742 -1.5273 0
M  V30 16109 C 1565.25 0.728828 -1.41987 0
M  V30 16110 C 1565.45 1.94116 -0.540493 0
M  V30 16111 O 1564.5 2.52496 -0.0140397 0
M  V30 16112 C 1565.81 0.963683 -2.8484 0
M  V30 16113 C 1567.36 1.06514 -2.94319 0
M  V30 16114 C 1567.84 1.33262 -4.38184 0
M  V30 16115 N 1569.33 1.40083 -4.4151 0
M  V30 16116 C 1570.06 1.62446 -5.49908 0
M  V30 16117 N 1569.56 1.82277 -6.68391 0
M  V30 16118 N 1571.35 1.64627 -5.37452 0
M  V30 16119 H 1563.5 -0.408984 -2.08425 0
M  V30 16120 H 1565.77 -0.120791 -0.940273 0
M  V30 16121 H 1565.47 0.144986 -3.51401 0
M  V30 16122 H 1565.35 1.87828 -3.27109 0
M  V30 16123 H 1567.73 1.8744 -2.27926 0
M  V30 16124 H 1567.81 0.12845 -2.55477 0
M  V30 16125 H 1567.46 0.528457 -5.05143 0
M  V30 16126 H 1567.39 2.28216 -4.74579 0
M  V30 16127 H 1569.88 1.26465 -3.56111 0
M  V30 16128 H 1570.19 1.98848 -7.46779 0
M  V30 16129 H 1568.54 1.79501 -6.7142 0
M  V30 16130 H 1571.73 1.48686 -4.43858 0
M  V30 16131 H 1571.9 1.81715 -6.22 0
M  V30 16132 N 1565.31 1.43698 0.647203 0
M  V30 16133 C 1566.26 1.49599 1.78109 0
M  V30 16134 C 1567.25 0.369047 1.65331 0
M  V30 16135 O 1568.46 0.543303 1.71605 0
M  V30 16136 H 1564.83 0.46911 0.587741 0
M  V30 16137 H 1566.8 2.45064 1.70253 0
M  V30 16138 C 1565.55 1.44192 3.16392 0
M  V30 16139 H 1564.87 2.30216 3.26865 0
M  V30 16140 H 1566.31 1.52382 3.95671 0
M  V30 16141 C 1564.77 0.16036 3.36518 0
M  V30 16142 O 1565.3 -0.77593 3.94135 0
M  V30 16143 N 1563.51 0.0686236 2.90519 0
M  V30 16144 H 1563.06 0.831363 2.43816 0
M  V30 16145 H 1563.01 -0.78814 3.04361 0
M  V30 16146 N 1566.79 -0.886131 1.30328 0
M  V30 16147 C 1567.74 -1.979 1.13224 0
M  V30 16148 C 1568.72 -1.60829 0.0477368 0
M  V30 16149 O 1569.91 -1.74914 0.270932 0
M  V30 16150 C 1567.04 -3.33241 0.824943 0
M  V30 16151 C 1566.13 -3.76629 1.94965 0
M  V30 16152 N 1566.52 -3.92125 3.19486 0
M  V30 16153 C 1564.82 -4.06015 1.84575 0
M  V30 16154 C 1565.52 -4.2891 3.92951 0
M  V30 16155 N 1564.49 -4.38707 3.20993 0
M  V30 16156 H 1568.3 -2.07969 2.07668 0
M  V30 16157 H 1565.81 -1.07587 1.21651 0
M  V30 16158 H 1567.81 -4.1126 0.683423 0
M  V30 16159 H 1566.47 -3.24509 -0.111438 0
M  V30 16160 H 1567.48 -3.77288 3.54788 0
M  V30 16161 H 1564.15 -4.05763 0.982969 0
M  V30 16162 H 1565.54 -4.48632 5.00179 0
M  V30 16163 N 1568.26 -1.13026 -1.09832 0
M  V30 16164 C 1569.54 -0.800667 -1.78462 0
M  V30 16165 C 1569.92 0.708508 -1.98855 0
M  V30 16166 O 1569.27 1.64436 -1.58661 0
M  V30 16167 C 1569.48 -1.58284 -3.11042 0
M  V30 16168 C 1570.83 -1.77285 -3.85818 0
M  V30 16169 O 1571.85 -1.54848 -3.20781 0
M  V30 16170 O 1570.71 -2.14693 -5.02563 0
M  V30 16171 H 1567.8 -0.291895 -0.773774 0
M  V30 16172 H 1570.35 -1.23464 -1.16425 0
M  V30 16173 H 1569.12 -2.60867 -2.91657 0
M  V30 16174 H 1568.75 -1.14353 -3.80801 0
M  V30 16175 N 1569.74 1.27735 -0.923117 0
M  V30 16176 C 1571.02 1.89626 -0.479724 0
M  V30 16177 C 1571.4 1.83592 1.04197 0
M  V30 16178 O 1570.75 1.27808 1.89413 0
M  V30 16179 C 1570.96 3.33742 -1.02064 0
M  V30 16180 C 1572.31 4.10678 -1.07837 0
M  V30 16181 O 1573.33 3.4274 -0.969943 0
M  V30 16182 O 1572.19 5.32135 -1.24476 0
M  V30 16183 H 1569.28 0.812615 -0.153575 0
M  V30 16184 H 1571.83 1.36036 -1.01451 0
M  V30 16185 H 1570.6 3.32404 -2.06454 0
M  V30 16186 H 1570.22 3.94845 -0.467234 0
M  V30 16187 N 1571.22 0.688118 1.41784 0
M  V30 16188 C 1572.15 0.0323199 2.33478 0
M  V30 16189 C 1573.13 -0.775145 1.51412 0
M  V30 16190 O 1574.32 -0.72962 1.79973 0
M  V30 16191 C 1571.45 -0.910141 3.35162 0
M  V30 16192 C 1570.4 -0.210312 4.27483 0
M  V30 16193 C 1569.73 -1.26662 5.19481 0
M  V30 16194 C 1571.03 0.918839 5.14154 0
M  V30 16195 H 1572.72 0.798138 2.88566 0
M  V30 16196 H 1570.27 0.385262 1.38751 0
M  V30 16197 H 1572.22 -1.3781 3.98229 0
M  V30 16198 H 1570.94 -1.70754 2.78408 0
M  V30 16199 H 1569.6 0.237544 3.6583 0
M  V30 16200 H 1569.25 -2.05635 4.59046 0
M  V30 16201 H 1568.95 -0.803416 5.82082 0
M  V30 16202 H 1570.47 -1.73524 5.85424 0
M  V30 16203 H 1571.89 0.531499 5.70831 0
M  V30 16204 H 1570.29 1.30867 5.85657 0
M  V30 16205 H 1571.36 1.7618 4.51762 0
M  V30 16206 N 1572.7 -1.51554 0.432352 0
M  V30 16207 C 1573.95 -2.01232 -0.137255 0
M  V30 16208 C 1574.26 -1.32135 -1.44221 0
M  V30 16209 O 1575.47 -1.72756 -2.09446 0
M  V30 16210 C 1573.92 -3.58688 -0.295152 0
M  V30 16211 C 1573.53 -4.36718 0.999072 0
M  V30 16212 C 1575.27 -4.16528 -0.818798 0
M  V30 16213 C 1573.18 -5.85867 0.80709 0
M  V30 16214 H 1572.11 -0.751986 -0.0550696 0
M  V30 16215 H 1574.76 -1.74703 0.561352 0
M  V30 16216 H 1573.14 -3.81643 -1.05664 0
M  V30 16217 H 1574.32 -4.25512 1.76851 0
M  V30 16218 H 1572.63 -3.90306 1.45087 0
M  V30 16219 H 1575.23 -5.25664 -0.978841 0
M  V30 16220 H 1575.57 -3.75379 -1.79989 0
M  V30 16221 H 1576.11 -3.97632 -0.11575 0
M  V30 16222 H 1572.85 -6.31419 1.76041 0
M  V30 16223 H 1572.37 -5.9975 0.0773617 0
M  V30 16224 H 1574.04 -6.45375 0.458328 0
M  V30 16225 N 1574.18 -0.163538 -1.56749 0
M  V30 16226 C 1575.4 0.489888 -2.01017 0
M  V30 16227 C 1575.82 1.57327 -1.04373 0
M  V30 16228 O 1575.18 1.82449 -0.0433414 0
M  V30 16229 C 1575.23 1.07537 -3.45135 0
M  V30 16230 O 1574.95 0.0352465 -4.38086 0
M  V30 16231 C 1576.45 1.80779 -4.04764 0
M  V30 16232 H 1573.67 0.126095 -0.659046 0
M  V30 16233 H 1576.21 -0.262982 -2.02802 0
M  V30 16234 H 1574.37 1.77877 -3.44149 0
M  V30 16235 H 1574.78 0.466426 -5.22422 0
M  V30 16236 H 1576.26 2.17014 -5.07552 0
M  V30 16237 H 1576.73 2.6999 -3.46413 0
M  V30 16238 H 1577.34 1.15098 -4.09429 0
M  V30 16239 N 1575.65 1.57214 0.110213 0
M  V30 16240 C 1576.9 1.85586 0.817649 0
M  V30 16241 C 1577.23 0.750536 1.79111 0
M  V30 16242 O 1576.51 -0.242864 1.92978 0
M  V30 16243 C 1576.79 3.24565 1.55979 0
M  V30 16244 C 1576.64 4.45708 0.605339 0
M  V30 16245 C 1577.96 3.61233 2.51393 0
M  V30 16246 H 1575.08 0.675037 0.295794 0
M  V30 16247 H 1577.72 1.89824 0.0816541 0
M  V30 16248 H 1575.87 3.21083 2.18718 0
M  V30 16249 H 1577.55 4.61298 -0.0138894 0
M  V30 16250 H 1575.79 4.33722 -0.0824644 0
M  V30 16251 H 1576.46 5.39643 1.16143 0
M  V30 16252 H 1578.94 3.65563 1.98754 0
M  V30 16253 H 1577.81 4.59438 3.00346 0
M  V30 16254 H 1578.07 2.89116 3.34461 0
M  V30 16255 N 1577.13 -0.380637 1.52934 0
M  V30 16256 C 1578.36 -1.14583 1.72274 0
M  V30 16257 C 1578.78 -1.83484 0.444864 0
M  V30 16258 O 1578.13 -1.72997 -0.581245 0
M  V30 16259 C 1578.18 -2.18756 2.87799 0
M  V30 16260 O 1577.9 -1.52662 4.10641 0
M  V30 16261 C 1579.41 -3.07938 3.18887 0
M  V30 16262 H 1576.63 -0.343218 0.576578 0
M  V30 16263 H 1579.17 -0.444149 1.99619 0
M  V30 16264 H 1577.32 -2.84546 2.62892 0
M  V30 16265 H 1577.74 -2.21949 4.75225 0
M  V30 16266 H 1579.21 -3.77045 4.03164 0
M  V30 16267 H 1579.69 -3.71913 2.33618 0
M  V30 16268 H 1580.3 -2.47783 3.45664 0
M  V30 16269 N 1578.61 -1.44039 -0.639573 0
M  V30 16270 C 1579.57 -1.49907 -1.7338 0
M  V30 16271 C 1580.57 -0.382101 -1.56194 0
M  V30 16272 O 1581.76 -0.644396 -1.61843 0
M  V30 16273 C 1578.9 -1.36486 -3.12385 0
M  V30 16274 H 1580.09 -2.4737 -1.69553 0
M  V30 16275 H 1577.64 -1.31006 -0.852474 0
M  V30 16276 H 1578.38 -0.400845 -3.21813 0
M  V30 16277 H 1578.16 -2.17471 -3.26265 0
M  V30 16278 H 1579.65 -1.43555 -3.9215 0
M  V30 16279 N 1580.09 0.879207 -1.30796 0
M  V30 16280 C 1581.32 1.66449 -1.22891 0
M  V30 16281 C 1581.73 1.87658 0.207306 0
M  V30 16282 O 1581.09 1.42818 1.13619 0
M  V30 16283 C 1581.14 3.03765 -1.95982 0
M  V30 16284 O 1580.86 2.8351 -3.33997 0
M  V30 16285 C 1582.36 3.98204 -1.94804 0
M  V30 16286 H 1579.58 0.51922 -0.425031 0
M  V30 16287 H 1582.13 1.09807 -1.72519 0
M  V30 16288 H 1580.28 3.57124 -1.50138 0
M  V30 16289 H 1580.69 3.70663 -3.71092 0
M  V30 16290 H 1582.17 4.91901 -2.50474 0
M  V30 16291 H 1582.65 4.29277 -0.928336 0
M  V30 16292 H 1583.25 3.50781 -2.40485 0
M  V30 16293 N 1581.57 1.13606 1.09231 0
M  V30 16294 C 1582.5 0.837908 2.17948 0
M  V30 16295 C 1583.48 -0.203575 1.68877 0
M  V30 16296 O 1584.66 -0.0620702 1.94101 0
M  V30 16297 C 1581.79 0.305342 3.45955 0
M  V30 16298 C 1580.75 1.2813 4.08371 0
M  V30 16299 C 1580.07 0.608412 5.31227 0
M  V30 16300 C 1581.37 2.64055 4.50636 0
M  V30 16301 H 1583.07 1.747 2.43147 0
M  V30 16302 H 1580.61 0.84141 1.1686 0
M  V30 16303 H 1582.57 0.0844116 4.21315 0
M  V30 16304 H 1581.29 -0.639144 3.20285 0
M  V30 16305 H 1579.95 1.48826 3.35032 0
M  V30 16306 H 1579.6 -0.341613 5.01839 0
M  V30 16307 H 1579.3 1.25956 5.73942 0
M  V30 16308 H 1580.82 0.396809 6.09309 0
M  V30 16309 H 1582.24 2.47316 5.17212 0
M  V30 16310 H 1580.63 3.25364 5.0424 0
M  V30 16311 H 1581.7 3.21566 3.62937 0
M  V30 16312 N 1583.05 -1.27244 0.929878 0
M  V30 16313 C 1584.01 -2.25028 0.435315 0
M  V30 16314 C 1585.01 -1.54453 -0.447332 0
M  V30 16315 O 1586.2 -1.72424 -0.248105 0
M  V30 16316 C 1583.33 -3.38843 -0.373933 0
M  V30 16317 H 1584.52 -2.70293 1.2993 0
M  V30 16318 H 1582.08 -1.39204 0.710771 0
M  V30 16319 H 1582.81 -2.98963 -1.25664 0
M  V30 16320 H 1582.6 -3.91244 0.258946 0
M  V30 16321 H 1584.09 -4.11516 -0.710255 0
M  V30 16322 N 1584.52 -0.695628 -1.41417 0
M  V30 16323 C 1585.45 -0.0447013 -2.33457 0
M  V30 16324 C 1586.43 0.767104 -1.51821 0
M  V30 16325 O 1587.62 0.720066 -1.80357 0
M  V30 16326 C 1584.75 0.892353 -3.3564 0
M  V30 16327 C 1583.7 0.187638 -4.27588 0
M  V30 16328 C 1583.03 1.23906 -5.20146 0
M  V30 16329 C 1584.33 -0.946093 -5.1366 0
M  V30 16330 H 1586.02 -0.81343 -2.88138 0
M  V30 16331 H 1583.57 -0.392614 -1.38544 0
M  V30 16332 H 1585.52 1.35696 -3.98954 0
M  V30 16333 H 1584.25 1.69275 -2.79309 0
M  V30 16334 H 1582.91 -0.256942 -3.65698 0
M  V30 16335 H 1582.55 2.03198 -4.6013 0
M  V30 16336 H 1582.25 0.772536 -5.82499 0
M  V30 16337 H 1583.78 1.70417 -5.86336 0
M  V30 16338 H 1585.19 -0.561764 -5.70541 0
M  V30 16339 H 1583.59 -1.33971 -5.84954 0
M  V30 16340 H 1584.66 -1.78573 -4.50821 0
M  V30 16341 N 1586 1.51322 -0.440383 0
M  V30 16342 C 1587.25 2.01302 0.126581 0
M  V30 16343 C 1587.56 1.32898 1.43518 0
M  V30 16344 O 1588.77 1.73864 2.08527 0
M  V30 16345 C 1587.23 3.58839 0.276126 0
M  V30 16346 C 1586.83 4.36182 -1.02222 0
M  V30 16347 C 1588.58 4.16957 0.796697 0
M  V30 16348 C 1586.48 5.85431 -0.838148 0
M  V30 16349 H 1585.41 0.752268 0.0510809 0
M  V30 16350 H 1588.07 1.74403 -0.570609 0
M  V30 16351 H 1586.45 3.82198 1.03639 0
M  V30 16352 H 1587.62 4.24568 -1.79105 0
M  V30 16353 H 1585.94 3.89531 -1.47155 0
M  V30 16354 H 1588.53 5.26176 0.95095 0
M  V30 16355 H 1588.88 3.76329 1.77996 0
M  V30 16356 H 1589.41 3.97687 0.0946613 0
M  V30 16357 H 1586.15 6.30476 -1.79387 0
M  V30 16358 H 1585.67 5.99701 -0.109167 0
M  V30 16359 H 1587.35 6.45122 -0.492547 0
M  V30 16360 N 1587.48 0.171848 1.5666 0
M  V30 16361 C 1588.73 -0.472034 1.9651 0
M  V30 16362 C 1589.05 -1.63743 1.05893 0
M  V30 16363 O 1588.32 -1.95498 0.125396 0
M  V30 16364 H 1586.9 -0.177377 0.725635 0
M  V30 16365 H 1589.56 0.253155 1.93249 0
M  V30 16366 H 1588.66 -0.831693 3.00814 0
M  V30 16367 N 1588.96 -1.5727 -0.101874 0
M  V30 16368 C 1590.2 -1.87566 -0.812293 0
M  V30 16369 C 1590.56 -0.762001 -1.76231 0
M  V30 16370 O 1591.76 -0.947191 -2.51559 0
M  V30 16371 C 1590.03 -3.23101 -1.52776 0
M  V30 16372 S 1591.59 -3.75074 -2.27739 0
M  V30 16373 H 1588.41 -0.657425 -0.270765 0
M  V30 16374 H 1591.01 -1.95376 -0.0697509 0
M  V30 16375 H 1589.72 -4.02081 -0.822118 0
M  V30 16376 H 1589.25 -3.18414 -2.31033 0
M  V30 16377 H 1591.26 -3.47947 -3.53762 0
M  V30 16378 N 1590.44 0.372521 -1.53134 0
M  V30 16379 C 1591.66 1.13668 -1.72879 0
M  V30 16380 C 1592.08 1.83246 -0.454588 0
M  V30 16381 O 1591.44 1.73302 0.572062 0
M  V30 16382 C 1591.49 2.17226 -2.88955 0
M  V30 16383 O 1591.21 1.50483 -4.11445 0
M  V30 16384 C 1592.71 3.06243 -3.20516 0
M  V30 16385 H 1589.93 0.340156 -0.57839 0
M  V30 16386 H 1592.47 0.433557 -1.99851 0
M  V30 16387 H 1590.63 2.83148 -2.64397 0
M  V30 16388 H 1591.04 2.19425 -4.76396 0
M  V30 16389 H 1592.52 3.74901 -4.05158 0
M  V30 16390 H 1592.99 3.70669 -2.35587 0
M  V30 16391 H 1593.6 2.45946 -3.46973 0
M  V30 16392 N 1591.91 1.44376 0.631925 0
M  V30 16393 C 1593.14 1.5082 1.42366 0
M  V30 16394 C 1593.56 0.133858 1.87623 0
M  V30 16395 O 1592.92 -0.876789 1.58689 0
M  V30 16396 C 1592.97 2.47698 2.62065 0
M  V30 16397 O 1592.07 1.97796 3.61871 0
M  V30 16398 H 1591.41 0.509318 0.426018 0
M  V30 16399 H 1593.94 1.89502 0.771376 0
M  V30 16400 H 1593.95 2.65708 3.09618 0
M  V30 16401 H 1592.63 3.47526 2.2847 0
M  V30 16402 H 1591.21 1.89549 3.21131 0
M  V30 16403 N 1593.39 -0.872258 1.31261 0
M  V30 16404 C 1594.62 -1.6632 1.23905 0
M  V30 16405 C 1595.04 -1.87109 -0.192878 0
M  V30 16406 O 1594.4 -1.4112 -1.1382 0
M  V30 16407 C 1594.45 -3.00979 1.98606 0
M  V30 16408 O 1593.55 -3.90642 1.32183 0
M  V30 16409 H 1592.89 -0.507736 0.427902 0
M  V30 16410 H 1595.42 -1.0877 1.73292 0
M  V30 16411 H 1595.43 -3.50931 2.08113 0
M  V30 16412 H 1594.11 -2.85168 3.02741 0
M  V30 16413 H 1592.68 -3.4909 1.31112 0
M  V30 16414 N 1594.87 -1.14184 -1.08627 0
M  V30 16415 C 1596.28 -0.920108 -1.62453 0
M  V30 16416 C 1596.63 0.541577 -1.88577 0
M  V30 16417 O 1595.76 1.41002 -1.64157 0
M  V30 16418 C 1596.35 -1.6638 -2.95132 0
M  V30 16419 C 1594.91 -1.48771 -3.45752 0
M  V30 16420 C 1594.06 -1.68774 -2.20024 0
M  V30 16421 H 1597.01 -1.29396 -0.91882 0
M  V30 16422 H 1597.03 -1.12568 -3.63468 0
M  V30 16423 H 1596.54 -2.72759 -2.76087 0
M  V30 16424 H 1594.64 -0.44729 -3.69905 0
M  V30 16425 H 1594.76 -2.25619 -4.2265 0
M  V30 16426 H 1593.12 -1.11321 -2.29084 0
M  V30 16427 H 1593.9 -2.76491 -2.03489 0
M  V30 16428 N 1596.35 1.26749 -0.936613 0
M  V30 16429 C 1597.59 1.9459 -0.592128 0
M  V30 16430 C 1597.95 1.72177 0.858649 0
M  V30 16431 O 1597.24 1.0455 1.60561 0
M  V30 16432 C 1597.44 3.4678 -0.864789 0
M  V30 16433 C 1597.27 3.83992 -2.34052 0
M  V30 16434 C 1596.04 4.06985 -2.99485 0
M  V30 16435 C 1598.23 3.92897 -3.31868 0
M  V30 16436 N 1596.22 4.31046 -4.37118 0
M  V30 16437 C 1597.59 4.21437 -4.54743 0
M  V30 16438 C 1599.64 3.75506 -3.26955 0
M  V30 16439 C 1598.34 4.34396 -5.73317 0
M  V30 16440 C 1600.37 3.89695 -4.4485 0
M  V30 16441 C 1599.73 4.1863 -5.66505 0
M  V30 16442 H 1595.83 0.73502 -0.266965 0
M  V30 16443 H 1598.42 1.52925 -1.20508 0
M  V30 16444 H 1596.59 3.87383 -0.280926 0
M  V30 16445 H 1598.32 4.01819 -0.482033 0
M  V30 16446 H 1595.07 4.02165 -2.5012 0
M  V30 16447 H 1595.5 4.47118 -5.08345 0
M  V30 16448 H 1600.14 3.52168 -2.3396 0
M  V30 16449 H 1597.86 4.56557 -6.66769 0
M  V30 16450 H 1601.44 3.77648 -4.42576 0
M  V30 16451 H 1600.32 4.29369 -6.5621 0
M  V30 16452 N 1597.83 0.703118 1.41046 0
M  V30 16453 C 1599.24 0.375417 1.55122 0
M  V30 16454 C 1599.44 -1.11696 1.67709 0
M  V30 16455 O 1598.5 -1.90289 1.65971 0
M  V30 16456 C 1599.81 1.13056 2.78638 0
M  V30 16457 C 1601.36 1.11564 2.92442 0
M  V30 16458 C 1601.83 1.85268 4.18855 0
M  V30 16459 N 1603.33 1.82275 4.25829 0
M  V30 16460 C 1604.06 2.36137 5.2252 0
M  V30 16461 N 1603.56 2.98502 6.25195 0
M  V30 16462 N 1605.35 2.26349 5.14512 0
M  V30 16463 H 1597.5 1.67096 1.31121 0
M  V30 16464 H 1599.76 0.705573 0.633144 0
M  V30 16465 H 1599.47 2.18524 2.75572 0
M  V30 16466 H 1599.34 0.714037 3.7038 0
M  V30 16467 H 1601.73 0.0691901 2.95019 0
M  V30 16468 H 1601.81 1.57128 2.01853 0
M  V30 16469 H 1601.46 2.89896 4.1704 0
M  V30 16470 H 1601.39 1.37133 5.08431 0
M  V30 16471 H 1603.88 1.36812 3.52265 0
M  V30 16472 H 1604.19 3.37149 6.95378 0
M  V30 16473 H 1602.53 3.02582 6.25675 0
M  V30 16474 H 1605.73 1.77294 4.33226 0
M  V30 16475 H 1605.9 2.68629 5.89697 0
M  V30 16476 N 1599.3 -1.51086 0.448402 0
M  V30 16477 C 1600.55 -2.0312 -0.106726 0
M  V30 16478 C 1600.91 -1.3259 -1.39419 0
M  V30 16479 O 1600.2 -0.435501 -1.86585 0
M  V30 16480 C 1600.39 -3.55488 -0.369232 0
M  V30 16481 C 1600.22 -4.4078 0.891233 0
M  V30 16482 C 1598.99 -4.84703 1.42798 0
M  V30 16483 C 1601.19 -4.82498 1.78044 0
M  V30 16484 N 1599.17 -5.54243 2.63984 0
M  V30 16485 C 1600.54 -5.51218 2.83828 0
M  V30 16486 C 1602.6 -4.64474 1.79354 0
M  V30 16487 C 1601.3 -6.03825 3.90881 0
M  V30 16488 C 1603.33 -5.18005 2.8535 0
M  V30 16489 C 1602.69 -5.86681 3.89853 0
M  V30 16490 H 1598.79 -0.782 0.000394759 0
M  V30 16491 H 1601.37 -1.84846 0.611546 0
M  V30 16492 H 1599.54 -3.73754 -1.05654 0
M  V30 16493 H 1601.27 -3.94181 -0.916694 0
M  V30 16494 H 1598.03 -4.63343 0.980339 0
M  V30 16495 H 1598.45 -5.93634 3.25465 0
M  V30 16496 H 1603.1 -4.10832 0.998865 0
M  V30 16497 H 1600.81 -6.56517 4.7118 0
M  V30 16498 H 1604.4 -5.05905 2.87318 0
M  V30 16499 H 1603.28 -6.27358 4.70522 0
M  V30 16500 N 1600.78 -0.180154 -1.56567 0
M  V30 16501 C 1601.71 0.742131 -2.21393 0
M  V30 16502 C 1602.69 1.23253 -1.1723 0
M  V30 16503 O 1603.88 1.28408 -1.45688 0
M  V30 16504 C 1601.01 1.96799 -2.8616 0
M  V30 16505 C 1599.96 1.6131 -3.96438 0
M  V30 16506 C 1599.29 2.91434 -4.48297 0
M  V30 16507 C 1600.59 0.834382 -5.15592 0
M  V30 16508 H 1602.28 0.201759 -2.98719 0
M  V30 16509 H 1599.83 0.0956016 -1.43682 0
M  V30 16510 H 1601.78 2.61828 -3.30188 0
M  V30 16511 H 1600.51 2.53264 -2.06215 0
M  V30 16512 H 1599.16 0.986451 -3.53079 0
M  V30 16513 H 1598.81 3.45958 -3.65133 0
M  V30 16514 H 1598.51 2.68439 -5.22699 0
M  V30 16515 H 1600.04 3.57478 -4.95017 0
M  V30 16516 H 1601.45 1.38745 -5.56258 0
M  V30 16517 H 1599.85 0.703132 -5.95966 0
M  V30 16518 H 1600.92 -0.167554 -4.8461 0
M  V30 16519 N 1602.26 1.57322 0.0935319 0
M  V30 16520 C 1603.21 2.02171 1.11336 0
M  V30 16521 C 1604.18 0.898305 1.39713 0
M  V30 16522 O 1605.36 1.16441 1.51149 0
M  V30 16523 C 1602.5 2.45243 2.42796 0
M  V30 16524 C 1601.62 3.7111 2.21136 0
M  V30 16525 C 1600.75 4.03056 3.46005 0
M  V30 16526 C 1599.79 5.22028 3.19615 0
M  V30 16527 N 1598.93 5.49718 4.36755 0
M  V30 16528 H 1603.77 2.89073 0.723924 0
M  V30 16529 H 1601.3 1.42975 0.345919 0
M  V30 16530 H 1603.26 2.68261 3.19518 0
M  V30 16531 H 1601.89 1.61348 2.79583 0
M  V30 16532 H 1600.94 3.5556 1.35209 0
M  V30 16533 H 1602.26 4.57979 1.97628 0
M  V30 16534 H 1601.41 4.26858 4.31135 0
M  V30 16535 H 1600.15 3.14712 3.72569 0
M  V30 16536 H 1599.15 4.98044 2.32879 0
M  V30 16537 H 1600.38 6.11971 2.94396 0
M  V30 16538 H 1598.32 4.64333 4.63391 0
M  V30 16539 H 1598.24 6.30961 4.16443 0
M  V30 16540 H 1599.51 5.78057 5.22944 0
M  V30 16541 N 1603.74 -0.364395 1.53329 0
M  V30 16542 C 1604.67 -1.46658 1.76137 0
M  V30 16543 C 1605.68 -1.496 0.642166 0
M  V30 16544 O 1606.87 -1.53058 0.918452 0
M  V30 16545 C 1603.97 -2.85417 1.8273 0
M  V30 16546 C 1603.15 -3.06158 3.12388 0
M  V30 16547 C 1602.2 -4.25038 3.10208 0
M  V30 16548 O 1601.23 -4.20156 3.84002 0
M  V30 16549 N 1602.43 -5.32511 2.31111 0
M  V30 16550 H 1605.2 -1.27471 2.7124 0
M  V30 16551 H 1602.76 -0.554127 1.52122 0
M  V30 16552 H 1604.75 -3.63086 1.78748 0
M  V30 16553 H 1603.32 -2.97845 0.949058 0
M  V30 16554 H 1602.54 -2.16139 3.29663 0
M  V30 16555 H 1603.83 -3.16885 3.98072 0
M  V30 16556 H 1603.23 -5.39341 1.70669 0
M  V30 16557 H 1601.78 -6.08752 2.32946 0
M  V30 16558 N 1605.22 -1.44709 -0.62426 0
M  V30 16559 C 1606.16 -1.52104 -1.73589 0
M  V30 16560 C 1607.13 -0.368193 -1.61968 0
M  V30 16561 O 1608.32 -0.579374 -1.81791 0
M  V30 16562 C 1605.46 -1.4778 -3.11857 0
M  V30 16563 C 1604.57 -2.73491 -3.34405 0
M  V30 16564 C 1603.71 -2.60953 -4.62685 0
M  V30 16565 C 1602.75 -3.81795 -4.78434 0
M  V30 16566 N 1601.88 -3.67892 -5.97997 0
M  V30 16567 H 1606.72 -2.47077 -1.66604 0
M  V30 16568 H 1604.26 -1.22617 -0.812616 0
M  V30 16569 H 1606.22 -1.43263 -3.91831 0
M  V30 16570 H 1604.85 -0.563694 -3.1784 0
M  V30 16571 H 1603.9 -2.88166 -2.48324 0
M  V30 16572 H 1605.21 -3.6317 -3.4192 0
M  V30 16573 H 1604.37 -2.54308 -5.50829 0
M  V30 16574 H 1603.1 -1.68846 -4.57539 0
M  V30 16575 H 1602.11 -3.88817 -3.88717 0
M  V30 16576 H 1603.33 -4.74947 -4.85388 0
M  V30 16577 H 1601.28 -2.78541 -5.93928 0
M  V30 16578 H 1601.2 -4.51193 -6.06598 0
M  V30 16579 H 1602.47 -3.6515 -6.88684 0
M  V30 16580 N 1606.69 0.865285 -1.31722 0
M  V30 16581 C 1607.94 1.62108 -1.21855 0
M  V30 16582 C 1608.27 1.9293 0.221714 0
M  V30 16583 O 1607.55 1.56423 1.15595 0
M  V30 16584 C 1607.83 2.94828 -2.06756 0
M  V30 16585 C 1607.68 2.70855 -3.59107 0
M  V30 16586 C 1609 3.95983 -1.92055 0
M  V30 16587 H 1606.12 0.588234 -0.444015 0
M  V30 16588 H 1608.76 0.999922 -1.6156 0
M  V30 16589 H 1606.91 3.47843 -1.73025 0
M  V30 16590 H 1608.59 2.24477 -4.02999 0
M  V30 16591 H 1606.83 2.05004 -3.82303 0
M  V30 16592 H 1607.5 3.65312 -4.13825 0
M  V30 16593 H 1609.98 3.52193 -2.21584 0
M  V30 16594 H 1608.85 4.86724 -2.53754 0
M  V30 16595 H 1609.11 4.33148 -0.885174 0
M  V30 16596 N 1608.17 1.14759 1.0802 0
M  V30 16597 C 1609.4 0.942316 1.84757 0
M  V30 16598 C 1609.82 -0.504188 1.81217 0
M  V30 16599 O 1609.18 -1.35891 1.20014 0
M  V30 16600 C 1609.23 1.45271 3.30043 0
M  V30 16601 O 1608.33 0.647414 4.07287 0
M  V30 16602 H 1607.67 0.336613 0.572353 0
M  V30 16603 H 1610.2 1.52578 1.36313 0
M  V30 16604 H 1610.21 1.4626 3.80883 0
M  V30 16605 H 1608.89 2.50583 3.31935 0
M  V30 16606 H 1607.47 0.706595 3.66144 0
M  V30 16607 N 1609.65 -1.26251 0.943322 0
M  V30 16608 C 1610.58 -2.25468 0.411904 0
M  V30 16609 C 1611.6 -1.55988 -0.466005 0
M  V30 16610 O 1612.78 -1.76352 -0.276106 0
M  V30 16611 C 1609.88 -3.362 -0.426909 0
M  V30 16612 C 1609.06 -4.35228 0.435346 0
M  V30 16613 C 1608.12 -5.25078 -0.343388 0
M  V30 16614 O 1607.14 -5.68632 0.254322 0
M  V30 16615 N 1608.34 -5.5687 -1.63939 0
M  V30 16616 H 1611.11 -2.71701 1.26486 0
M  V30 16617 H 1608.67 -1.40039 0.812438 0
M  V30 16618 H 1610.66 -3.93263 -0.955316 0
M  V30 16619 H 1609.23 -2.89446 -1.18067 0
M  V30 16620 H 1608.45 -3.77206 1.14495 0
M  V30 16621 H 1609.74 -4.98384 1.02427 0
M  V30 16622 H 1609.14 -5.2337 -2.14709 0
M  V30 16623 H 1607.7 -6.16566 -2.11399 0
M  V30 16624 N 1611.13 -0.710588 -1.40671 0
M  V30 16625 C 1612.36 -0.257069 -2.04994 0
M  V30 16626 C 1612.77 1.10431 -1.53628 0
M  V30 16627 O 1612.11 1.70422 -0.685726 0
M  V30 16628 C 1612.17 -0.153646 -3.59172 0
M  V30 16629 C 1611.84 -1.4495 -4.33403 0
M  V30 16630 C 1612.83 -2.39042 -4.61687 0
M  V30 16631 C 1610.52 -1.70704 -4.72404 0
M  V30 16632 C 1612.51 -3.57137 -5.27951 0
M  V30 16633 C 1610.2 -2.89082 -5.384 0
M  V30 16634 C 1611.2 -3.82121 -5.66103 0
M  V30 16635 O 1610.89 -4.98424 -6.30737 0
M  V30 16636 H 1610.62 -0.114202 -0.666284 0
M  V30 16637 H 1613.17 -0.968028 -1.81158 0
M  V30 16638 H 1611.4 0.613213 -3.81807 0
M  V30 16639 H 1613.09 0.264655 -4.05036 0
M  V30 16640 H 1613.86 -2.20407 -4.32025 0
M  V30 16641 H 1609.74 -0.99142 -4.50213 0
M  V30 16642 H 1613.28 -4.29775 -5.4949 0
M  V30 16643 H 1609.18 -3.07627 -5.67482 0
M  V30 16644 H 1609.94 -4.98436 -6.49233 0
M  V30 16645 N 1612.61 1.50847 -0.456408 0
M  V30 16646 C 1613.84 2.0635 0.10159 0
M  V30 16647 C 1614.25 1.32198 1.35353 0
M  V30 16648 O 1613.59 0.380433 1.79718 0
M  V30 16649 C 1613.65 3.56411 0.470283 0
M  V30 16650 C 1613.31 4.51949 -0.677546 0
M  V30 16651 C 1614.31 4.96091 -1.55531 0
M  V30 16652 C 1612 4.94819 -0.863701 0
M  V30 16653 C 1613.99 5.81793 -2.60377 0
M  V30 16654 C 1611.68 5.80306 -1.9154 0
M  V30 16655 C 1612.68 6.23693 -2.78381 0
M  V30 16656 O 1612.36 7.0748 -3.81742 0
M  V30 16657 H 1612.1 0.675994 0.00283373 0
M  V30 16658 H 1614.65 1.95178 -0.639893 0
M  V30 16659 H 1612.88 3.65433 1.26475 0
M  V30 16660 H 1614.57 3.94344 0.961649 0
M  V30 16661 H 1615.33 4.63651 -1.42311 0
M  V30 16662 H 1611.21 4.60578 -0.197285 0
M  V30 16663 H 1614.76 6.15578 -3.2819 0
M  V30 16664 H 1610.65 6.12159 -2.04773 0
M  V30 16665 H 1611.42 7.257 -3.78553 0
M  V30 16666 N 1614.09 0.188454 1.56469 0
M  V30 16667 C 1615.33 -0.451165 1.97 0
M  V30 16668 C 1615.65 -1.6261 1.07624 0
M  V30 16669 O 1614.92 -1.95354 0.146125 0
M  V30 16670 H 1613.5 -0.16967 0.727476 0
M  V30 16671 H 1616.17 0.273638 1.9297 0
M  V30 16672 H 1615.26 -0.799741 3.0168 0
M  V30 16673 N 1615.56 -1.5737 -0.0851874 0
M  V30 16674 C 1616.81 -1.85772 -0.785604 0
M  V30 16675 C 1617.13 -0.779172 -1.79411 0
M  V30 16676 O 1618.33 -0.950621 -2.54314 0
M  V30 16677 C 1616.79 -3.29484 -1.44805 0
M  V30 16678 C 1616.4 -4.45434 -0.478799 0
M  V30 16679 C 1618.14 -3.671 -2.13161 0
M  V30 16680 C 1616.05 -5.80183 -1.1464 0
M  V30 16681 H 1614.98 -0.69298 -0.297145 0
M  V30 16682 H 1617.63 -1.83459 -0.0386776 0
M  V30 16683 H 1616.01 -3.26367 -2.24278 0
M  V30 16684 H 1617.18 -4.59917 0.285148 0
M  V30 16685 H 1615.5 -4.16281 0.0995964 0
M  V30 16686 H 1618.1 -4.65061 -2.6386 0
M  V30 16687 H 1618.44 -2.96223 -2.92503 0
M  V30 16688 H 1618.97 -3.72148 -1.40536 0
M  V30 16689 H 1615.71 -6.54317 -0.393583 0
M  V30 16690 H 1615.23 -5.69525 -1.88153 0
M  V30 16691 H 1616.91 -6.25074 -1.67006 0
M  V30 16692 N 1617.04 0.356258 -1.53521 0
M  V30 16693 C 1618.45 0.932569 -1.61741 0
M  V30 16694 C 1618.8 1.89965 -0.490677 0
M  V30 16695 O 1617.93 2.1301 0.381514 0
M  V30 16696 C 1618.52 1.69818 -2.93168 0
M  V30 16697 C 1617.08 2.22369 -3.03692 0
M  V30 16698 C 1616.23 1.03891 -2.57103 0
M  V30 16699 H 1619.18 0.134769 -1.58127 0
M  V30 16700 H 1619.2 2.56011 -2.81494 0
M  V30 16701 H 1618.71 0.994065 -3.75153 0
M  V30 16702 H 1616.81 2.95994 -2.26314 0
M  V30 16703 H 1616.93 2.49611 -4.08939 0
M  V30 16704 H 1615.29 1.40862 -2.12202 0
M  V30 16705 H 1616.07 0.349637 -3.41515 0
M  V30 16706 N 1618.52 1.45038 0.616577 0
M  V30 16707 C 1619.45 1.47504 1.7412 0
M  V30 16708 C 1620.43 0.332321 1.59168 0
M  V30 16709 O 1621.61 0.531483 1.80852 0
M  V30 16710 C 1618.74 1.32155 3.11854 0
M  V30 16711 C 1617.79 2.50176 3.45419 0
M  V30 16712 S 1618.62 4.12673 3.41265 0
M  V30 16713 C 1619.78 3.99773 4.81594 0
M  V30 16714 H 1620.01 2.42661 1.71764 0
M  V30 16715 H 1617.54 1.32512 0.792457 0
M  V30 16716 H 1619.5 1.23987 3.91328 0
M  V30 16717 H 1618.16 0.384839 3.11734 0
M  V30 16718 H 1617.35 2.35339 4.45681 0
M  V30 16719 H 1616.96 2.5516 2.7344 0
M  V30 16720 H 1619.25 3.64362 5.7118 0
M  V30 16721 H 1620.19 4.99916 5.01487 0
M  V30 16722 H 1620.6 3.31581 4.56852 0
M  V30 16723 N 1620 -0.858287 1.32179 0
M  V30 16724 C 1620.96 -1.94811 1.20753 0
M  V30 16725 C 1621.96 -1.60261 0.131526 0
M  V30 16726 O 1623.15 -1.69968 0.381662 0
M  V30 16727 C 1620.28 -3.29972 0.856229 0
M  V30 16728 H 1621.48 -2.06371 2.17603 0
M  V30 16729 H 1619.03 -1.04802 1.15958 0
M  V30 16730 H 1619.76 -3.24111 -0.11061 0
M  V30 16731 H 1619.55 -3.56424 1.63414 0
M  V30 16732 H 1621.04 -4.09856 0.800507 0
M  V30 16733 N 1621.48 -1.1533 -1.07409 0
M  V30 16734 C 1622.39 -0.863514 -2.1813 0
M  V30 16735 C 1623.4 0.159954 -1.73263 0
M  V30 16736 O 1624.58 -0.0139818 -2.01395 0
M  V30 16737 C 1621.64 -0.356271 -3.44865 0
M  V30 16738 C 1620.7 -1.44356 -4.04302 0
M  V30 16739 C 1619.94 -0.960429 -5.24987 0
M  V30 16740 O 1620.16 0.194227 -5.70069 0
M  V30 16741 O 1619.09 -1.74387 -5.76084 0
M  V30 16742 H 1622.92 -1.78909 -2.45408 0
M  V30 16743 H 1620.5 -0.932362 -1.16736 0
M  V30 16744 H 1622.39 -0.0798183 -4.21324 0
M  V30 16745 H 1621.06 0.541445 -3.1914 0
M  V30 16746 H 1619.97 -1.77361 -3.29384 0
M  V30 16747 H 1621.3 -2.31617 -4.34298 0
M  V30 16748 N 1622.95 1.25748 -0.950004 0
M  V30 16749 C 1624.37 1.45599 -0.653697 0
M  V30 16750 C 1624.57 1.85357 0.790245 0
M  V30 16751 O 1623.63 1.98071 1.56601 0
M  V30 16752 C 1624.94 2.5316 -1.62267 0
M  V30 16753 C 1626.49 2.67004 -1.63334 0
M  V30 16754 C 1626.96 3.77745 -2.58984 0
M  V30 16755 N 1628.45 3.8515 -2.57321 0
M  V30 16756 C 1629.19 4.70315 -3.28011 0
M  V30 16757 N 1628.68 5.59802 -4.08159 0
M  V30 16758 N 1630.48 4.64239 -3.16921 0
M  V30 16759 H 1622.63 0.982321 -1.88319 0
M  V30 16760 H 1624.89 0.492917 -0.809776 0
M  V30 16761 H 1624.6 2.30792 -2.65382 0
M  V30 16762 H 1624.47 3.50988 -1.38158 0
M  V30 16763 H 1626.86 2.88739 -0.609388 0
M  V30 16764 H 1626.94 1.69591 -1.915 0
M  V30 16765 H 1626.58 3.56761 -3.61502 0
M  V30 16766 H 1626.51 4.74633 -2.28103 0
M  V30 16767 H 1629 3.21178 -1.99131 0
M  V30 16768 H 1629.32 6.21701 -4.59029 0
M  V30 16769 H 1627.66 5.59525 -4.12258 0
M  V30 16770 H 1630.85 3.93335 -2.53782 0
M  V30 16771 H 1631.03 5.30389 -3.72279 0
M  V30 16772 N 1624.43 0.718038 1.40292 0
M  V30 16773 C 1625.36 0.0276294 2.29183 0
M  V30 16774 C 1626.38 -0.721208 1.45954 0
M  V30 16775 O 1627.57 -0.568181 1.69216 0
M  V30 16776 C 1624.67 -0.985139 3.24266 0
M  V30 16777 C 1623.84 -0.301327 4.36361 0
M  V30 16778 C 1622.9 -1.21982 5.11866 0
M  V30 16779 O 1621.92 -0.70369 5.64833 0
M  V30 16780 N 1623.13 -2.55079 5.21455 0
M  V30 16781 H 1625.89 0.790884 2.89076 0
M  V30 16782 H 1623.45 0.565867 1.51689 0
M  V30 16783 H 1625.44 -1.60183 3.7165 0
M  V30 16784 H 1624.01 -1.64973 2.65523 0
M  V30 16785 H 1623.23 0.495594 3.91072 0
M  V30 16786 H 1624.52 0.173238 5.08505 0
M  V30 16787 H 1623.92 -2.99506 4.79909 0
M  V30 16788 H 1622.48 -3.11886 5.72338 0
M  V30 16789 N 1625.91 -1.50602 0.464402 0
M  V30 16790 C 1626.86 -2.29992 -0.347337 0
M  V30 16791 C 1627.85 -1.36991 -0.996489 0
M  V30 16792 O 1629.06 -1.54213 -0.928359 0
M  V30 16793 H 1625.43 -0.740529 -0.130847 0
M  V30 16794 H 1627.4 -2.96425 0.342734 0
M  V30 16795 C 1626.15 -3.17355 -1.4206 0
M  V30 16796 H 1625.48 -3.88822 -0.930473 0
M  V30 16797 H 1626.92 -3.75912 -1.96129 0
M  V30 16798 C 1625.38 -2.34506 -2.41886 0
M  V30 16799 O 1625.91 -2.02347 -3.47014 0
M  V30 16800 N 1624.11 -1.97212 -2.13438 0
M  V30 16801 H 1623.66 -2.23564 -1.27971 0
M  V30 16802 H 1623.62 -1.42081 -2.80464 0
M  V30 16803 N 1627.39 -0.19675 -1.56367 0
M  V30 16804 C 1628.34 0.740138 -2.2051 0
M  V30 16805 C 1629.33 1.21854 -1.17677 0
M  V30 16806 O 1630.54 1.18124 -1.35819 0
M  V30 16807 H 1626.91 0.257034 -0.706709 0
M  V30 16808 H 1628.88 0.175454 -2.97884 0
M  V30 16809 C 1627.63 1.94841 -2.8798 0
M  V30 16810 H 1626.95 1.58936 -3.66851 0
M  V30 16811 H 1628.39 2.58227 -3.36296 0
M  V30 16812 C 1626.85 2.78821 -1.89104 0
M  V30 16813 O 1627.38 3.76797 -1.39237 0
M  V30 16814 N 1625.59 2.44348 -1.57297 0
M  V30 16815 H 1625.14 1.64732 -1.98043 0
M  V30 16816 H 1625.09 3.00822 -0.913978 0
M  V30 16817 N 1628.87 1.57413 0.0768405 0
M  V30 16818 C 1630.11 1.86633 0.775414 0
M  V30 16819 C 1630.44 0.788041 1.78367 0
M  V30 16820 O 1629.71 -0.183835 1.95036 0
M  V30 16821 H 1628.29 0.688678 0.289365 0
M  V30 16822 H 1630.95 1.94825 0.0541285 0
M  V30 16823 H 1630.04 2.83977 1.29474 0
M  V30 16824 N 1630.34 -0.348112 1.53707 0
M  V30 16825 C 1631.59 -1.08684 1.71929 0
M  V30 16826 C 1631.95 -1.86463 0.474284 0
M  V30 16827 O 1631.24 -1.84036 -0.533038 0
M  V30 16828 C 1631.43 -2.06123 2.91973 0
M  V30 16829 C 1631.26 -1.37921 4.28028 0
M  V30 16830 C 1630.03 -1.12598 4.92595 0
M  V30 16831 C 1632.23 -0.807794 5.07917 0
M  V30 16832 N 1630.21 -0.409288 6.12534 0
M  V30 16833 C 1631.58 -0.221415 6.19605 0
M  V30 16834 C 1633.64 -0.708191 4.92838 0
M  V30 16835 C 1632.34 0.454872 7.1786 0
M  V30 16836 C 1634.37 -0.0456537 5.91382 0
M  V30 16837 C 1633.73 0.529774 7.02405 0
M  V30 16838 H 1629.83 -0.382246 0.682211 0
M  V30 16839 H 1632.41 -0.370996 1.91133 0
M  V30 16840 H 1630.58 -2.75003 2.74277 0
M  V30 16841 H 1632.31 -2.72801 2.98935 0
M  V30 16842 H 1629.07 -1.41188 4.52065 0
M  V30 16843 H 1629.49 -0.0658012 6.76968 0
M  V30 16844 H 1634.14 -1.13882 4.07174 0
M  V30 16845 H 1631.85 0.897401 8.03102 0
M  V30 16846 H 1635.44 0.0307208 5.81792 0
M  V30 16847 H 1634.32 1.03432 7.77349 0
M  V30 16848 N 1631.82 -1.45363 -0.608876 0
M  V30 16849 C 1632.75 -1.56778 -1.7304 0
M  V30 16850 C 1633.73 -0.419405 -1.64848 0
M  V30 16851 O 1634.92 -0.64238 -1.83268 0
M  V30 16852 C 1632.05 -1.5329 -3.1164 0
M  V30 16853 C 1631 -2.66832 -3.34641 0
M  V30 16854 C 1630.33 -2.48398 -4.735 0
M  V30 16855 C 1631.63 -4.0885 -3.25021 0
M  V30 16856 H 1633.32 -2.50656 -1.63743 0
M  V30 16857 H 1630.87 -1.20635 -0.786338 0
M  V30 16858 H 1632.82 -1.59873 -3.89895 0
M  V30 16859 H 1631.55 -0.559414 -3.21773 0
M  V30 16860 H 1630.2 -2.59675 -2.58775 0
M  V30 16861 H 1629.85 -1.49191 -4.80366 0
M  V30 16862 H 1629.55 -3.24537 -4.89846 0
M  V30 16863 H 1631.08 -2.56833 -5.53958 0
M  V30 16864 H 1632.49 -4.17257 -3.93153 0
M  V30 16865 H 1630.89 -4.85369 -3.52897 0
M  V30 16866 H 1631.96 -4.30849 -2.2248 0
M  V30 16867 N 1633.3 0.851265 -1.32632 0
M  V30 16868 C 1634.25 1.96012 -1.21852 0
M  V30 16869 C 1635.22 1.65799 -0.0999141 0
M  V30 16870 O 1636.4 1.88793 -0.276049 0
M  V30 16871 C 1633.54 3.31737 -0.951014 0
M  V30 16872 C 1632.66 3.74427 -2.15472 0
M  V30 16873 C 1631.79 4.9896 -1.82242 0
M  V30 16874 C 1630.83 5.3415 -2.98914 0
M  V30 16875 N 1629.97 6.49861 -2.65754 0
M  V30 16876 H 1634.81 2.04565 -2.16696 0
M  V30 16877 H 1632.34 1.00119 -1.07771 0
M  V30 16878 H 1634.3 4.09912 -0.776401 0
M  V30 16879 H 1632.93 3.22776 -0.0393461 0
M  V30 16880 H 1631.98 2.91878 -2.4395 0
M  V30 16881 H 1633.3 3.96425 -3.02736 0
M  V30 16882 H 1632.45 5.84851 -1.61352 0
M  V30 16883 H 1631.19 4.78906 -0.921971 0
M  V30 16884 H 1630.19 4.4677 -3.20432 0
M  V30 16885 H 1631.42 5.5616 -3.89696 0
M  V30 16886 H 1629.36 6.31317 -1.78254 0
M  V30 16887 H 1629.28 6.71894 -3.46547 0
M  V30 16888 H 1630.55 7.38895 -2.48302 0
M  V30 16889 N 1634.78 1.15898 1.06796 0
M  V30 16890 C 1635.73 0.860895 2.14143 0
M  V30 16891 C 1636.7 -0.188539 1.65026 0
M  V30 16892 O 1637.88 -0.0548558 1.90721 0
M  V30 16893 C 1635.02 0.362533 3.4319 0
M  V30 16894 C 1634.13 1.4742 4.06068 0
M  V30 16895 C 1633.27 0.931377 5.22971 0
M  V30 16896 C 1632.31 2.0196 5.77822 0
M  V30 16897 N 1631.44 1.49274 6.86048 0
M  V30 16898 H 1636.28 1.78023 2.38981 0
M  V30 16899 H 1633.82 0.888173 1.1726 0
M  V30 16900 H 1635.78 0.0552592 4.17163 0
M  V30 16901 H 1634.41 -0.519869 3.18586 0
M  V30 16902 H 1633.46 1.89754 3.29693 0
M  V30 16903 H 1634.77 2.29559 4.42836 0
M  V30 16904 H 1633.93 0.576982 6.0395 0
M  V30 16905 H 1632.67 0.0792265 4.87636 0
M  V30 16906 H 1631.67 2.38275 4.95485 0
M  V30 16907 H 1632.9 2.87562 6.15211 0
M  V30 16908 H 1630.84 0.663037 6.52641 0
M  V30 16909 H 1630.76 2.25035 7.21731 0
M  V30 16910 H 1632.03 1.16676 7.70718 0
M  V30 16911 N 1636.26 -1.25243 0.956659 0
M  V30 16912 C 1637.5 -1.93014 0.612538 0
M  V30 16913 C 1637.83 -1.74908 -0.85073 0
M  V30 16914 O 1637.09 -1.08896 -1.62604 0
M  V30 16915 C 1637.39 -3.4536 0.919849 0
M  V30 16916 C 1637.05 -3.83623 2.36948 0
M  V30 16917 C 1635.71 -3.93779 2.76571 0
M  V30 16918 C 1638.07 -4.02536 3.3108 0
M  V30 16919 C 1635.39 -4.20257 4.09391 0
M  V30 16920 C 1637.75 -4.30507 4.63515 0
M  V30 16921 C 1636.41 -4.3888 5.02932 0
M  V30 16922 H 1635.68 -0.706286 0.224144 0
M  V30 16923 H 1638.33 -1.48748 1.20608 0
M  V30 16924 H 1636.63 -3.9104 0.243941 0
M  V30 16925 H 1638.33 -3.95986 0.632143 0
M  V30 16926 H 1634.92 -3.76275 2.05219 0
M  V30 16927 H 1639.1 -3.94102 3.01657 0
M  V30 16928 H 1634.36 -4.24956 4.39571 0
M  V30 16929 H 1638.53 -4.44087 5.36433 0
M  V30 16930 H 1636.16 -4.59151 6.05875 0
M  V30 16931 N 1637.73 -0.725468 -1.3991 0
M  V30 16932 C 1638.96 -0.279202 -2.05007 0
M  V30 16933 C 1639.38 1.08257 -1.5468 0
M  V30 16934 O 1638.73 1.68224 -0.707585 0
M  V30 16935 C 1638.79 -0.261347 -3.60554 0
M  V30 16936 O 1638.51 -1.56935 -4.09027 0
M  V30 16937 C 1640.01 0.202259 -4.42838 0
M  V30 16938 H 1637.23 -0.123664 -0.659506 0
M  V30 16939 H 1639.77 -0.986447 -1.79135 0
M  V30 16940 H 1637.93 0.396936 -3.85361 0
M  V30 16941 H 1638.34 -1.47647 -5.0329 0
M  V30 16942 H 1639.81 0.163598 -5.51758 0
M  V30 16943 H 1640.29 1.24597 -4.21156 0
M  V30 16944 H 1640.9 -0.426108 -4.2316 0
M  V30 16945 N 1639.21 1.50354 -0.472382 0
M  V30 16946 C 1640.12 2.32318 0.326405 0
M  V30 16947 C 1641.14 1.4276 0.994771 0
M  V30 16948 O 1642.31 1.75811 0.98246 0
M  V30 16949 C 1639.38 3.17468 1.39337 0
M  V30 16950 C 1638.44 4.22848 0.741465 0
M  V30 16951 C 1637.67 5.03929 1.75759 0
M  V30 16952 O 1637.9 4.86105 2.98425 0
M  V30 16953 O 1636.83 5.87051 1.32871 0
M  V30 16954 H 1640.66 3.01749 -0.343702 0
M  V30 16955 H 1638.24 1.47553 -0.234207 0
M  V30 16956 H 1640.12 3.703 2.01136 0
M  V30 16957 H 1638.8 2.50764 2.04692 0
M  V30 16958 H 1637.71 3.74005 0.0844848 0
M  V30 16959 H 1639.04 4.92026 0.130838 0
M  V30 16960 N 1640.69 0.205039 1.56261 0
M  V30 16961 C 1641.62 -0.751391 2.15475 0
M  V30 16962 C 1642.6 -1.20265 1.09431 0
M  V30 16963 O 1643.79 -1.28837 1.37598 0
M  V30 16964 C 1640.91 -2.01598 2.72169 0
M  V30 16965 C 1639.96 -1.70605 3.90892 0
M  V30 16966 S 1640.79 -0.845372 5.28785 0
M  V30 16967 C 1641.95 -2.11989 5.88907 0
M  V30 16968 H 1642.18 -0.248043 2.96263 0
M  V30 16969 H 1639.71 -0.0100808 1.54397 0
M  V30 16970 H 1641.67 -2.74217 3.05475 0
M  V30 16971 H 1640.33 -2.49045 1.91403 0
M  V30 16972 H 1639.53 -2.6452 4.29005 0
M  V30 16973 H 1639.13 -1.0606 3.58646 0
M  V30 16974 H 1641.42 -3.0715 6.03875 0
M  V30 16975 H 1642.36 -1.78292 6.85286 0
M  V30 16976 H 1642.77 -2.25289 5.17596 0
M  V30 16977 N 1642.17 -1.57451 -0.0684915 0
M  V30 16978 C 1643.4 -1.9164 -0.779855 0
M  V30 16979 C 1643.81 -0.801309 -1.70952 0
M  V30 16980 O 1643.17 0.225134 -1.81106 0
M  V30 16981 C 1643.22 -3.25594 -1.57068 0
M  V30 16982 O 1642.94 -4.32816 -0.678385 0
M  V30 16983 C 1644.44 -3.73818 -2.38275 0
M  V30 16984 H 1641.66 -0.633374 -0.221537 0
M  V30 16985 H 1644.21 -2.04465 -0.0377746 0
M  V30 16986 H 1642.36 -3.14287 -2.26501 0
M  V30 16987 H 1642.78 -5.09903 -1.22877 0
M  V30 16988 H 1644.25 -4.70168 -2.89216 0
M  V30 16989 H 1644.73 -3.02995 -3.17947 0
M  V30 16990 H 1645.33 -3.88081 -1.73992 0
M  V30 16991 N 1643.65 0.339955 -1.5389 0
M  V30 16992 C 1644.6 1.43787 -1.82833 0
M  V30 16993 C 1645.59 1.54303 -0.699058 0
M  V30 16994 O 1646.8 1.56884 -0.882455 0
M  V30 16995 H 1643.17 0.479497 -0.579298 0
M  V30 16996 H 1645.14 1.16592 -2.7468 0
M  V30 16997 C 1643.89 2.80257 -2.05794 0
M  V30 16998 H 1643.21 2.72933 -2.92143 0
M  V30 16999 H 1644.65 3.56191 -2.30009 0
M  V30 17000 C 1643.11 3.26143 -0.844532 0
M  V30 17001 O 1643.64 4.01674 -0.0457121 0
M  V30 17002 N 1641.85 2.82988 -0.660748 0
M  V30 17003 H 1641.4 2.21687 -1.31198 0
M  V30 17004 H 1641.35 3.14044 0.149661 0
M  V30 17005 N 1645.13 1.45684 0.601159 0
M  V30 17006 C 1646.09 1.54451 1.69344 0
M  V30 17007 C 1647.09 0.423379 1.55126 0
M  V30 17008 O 1648.28 0.687079 1.60078 0
M  V30 17009 C 1645.41 1.4472 3.08657 0
M  V30 17010 H 1646.6 2.51778 1.62935 0
M  V30 17011 H 1644.16 1.3322 0.81744 0
M  V30 17012 H 1644.89 0.486027 3.20637 0
M  V30 17013 H 1644.68 2.26045 3.20384 0
M  V30 17014 H 1646.17 1.53902 3.88206 0
M  V30 17015 N 1646.6 -0.84422 1.33082 0
M  V30 17016 C 1647.84 -1.61287 1.25562 0
M  V30 17017 C 1648.21 -1.91179 -0.177361 0
M  V30 17018 O 1649.41 -2.66151 -0.376442 0
M  V30 17019 C 1647.68 -2.89106 2.10125 0
M  V30 17020 S 1649.24 -3.79816 2.1974 0
M  V30 17021 H 1646.06 -0.553081 0.446791 0
M  V30 17022 H 1648.66 -0.998931 1.68052 0
M  V30 17023 H 1647.36 -2.65109 3.13281 0
M  V30 17024 H 1646.89 -3.55511 1.68451 0
M  V30 17025 H 1648.91 -4.77354 1.35454 0
M  V30 17026 N 1648.08 -1.16463 -1.0618 0
M  V30 17027 C 1649.03 -0.87224 -2.13683 0
M  V30 17028 C 1650 0.179784 -1.65124 0
M  V30 17029 O 1651.18 0.0447406 -1.90748 0
M  V30 17030 C 1648.32 -0.380728 -3.42993 0
M  V30 17031 C 1647.44 -1.49571 -4.05281 0
M  V30 17032 C 1646.57 -0.959099 -5.2247 0
M  V30 17033 C 1645.61 -2.05021 -5.76743 0
M  V30 17034 N 1644.75 -1.5291 -6.85247 0
M  V30 17035 H 1649.59 -1.79288 -2.38033 0
M  V30 17036 H 1647.12 -0.894379 -1.16787 0
M  V30 17037 H 1649.08 -0.0773816 -4.17128 0
M  V30 17038 H 1647.71 0.502966 -3.18857 0
M  V30 17039 H 1646.76 -1.915 -3.28682 0
M  V30 17040 H 1648.08 -2.31904 -4.41613 0
M  V30 17041 H 1647.23 -0.609003 -6.03636 0
M  V30 17042 H 1645.97 -0.105086 -4.87587 0
M  V30 17043 H 1644.97 -2.40899 -4.94214 0
M  V30 17044 H 1646.2 -2.90821 -6.13678 0
M  V30 17045 H 1644.15 -0.697639 -6.5228 0
M  V30 17046 H 1644.06 -2.28859 -7.20527 0
M  V30 17047 H 1645.33 -1.20762 -7.70089 0
M  V30 17048 N 1649.56 1.24734 -0.963288 0
M  V30 17049 C 1650.81 1.92305 -0.621536 0
M  V30 17050 C 1651.13 1.75723 0.845363 0
M  V30 17051 O 1650.4 1.1261 1.60299 0
M  V30 17052 H 1648.98 0.71171 -0.226886 0
M  V30 17053 H 1651.64 1.5172 -1.2234 0
M  V30 17054 H 1650.74 3.00065 -0.858322 0
M  V30 17055 N 1651.04 0.732878 1.39523 0
M  V30 17056 C 1651.97 0.0403016 2.28164 0
M  V30 17057 C 1652.95 -0.749899 1.44275 0
M  V30 17058 O 1654.13 -0.732905 1.73669 0
M  V30 17059 C 1651.26 -0.95013 3.251 0
M  V30 17060 C 1650.31 -0.248672 4.25774 0
M  V30 17061 S 1651.14 1.03584 5.25386 0
M  V30 17062 C 1652.29 0.0479532 6.25882 0
M  V30 17063 H 1652.53 0.792023 2.86556 0
M  V30 17064 H 1650.06 0.524589 1.45215 0
M  V30 17065 H 1652.02 -1.51629 3.81469 0
M  V30 17066 H 1650.68 -1.67467 2.65732 0
M  V30 17067 H 1649.87 -0.998025 4.9402 0
M  V30 17068 H 1649.47 0.245398 3.73194 0
M  V30 17069 H 1651.77 -0.793145 6.72841 0
M  V30 17070 H 1652.71 0.69749 7.04656 0
M  V30 17071 H 1653.12 -0.323498 5.63572 0
M  V30 17072 N 1652.52 -1.50101 0.480349 0
M  V30 17073 C 1653.43 -2.32488 -0.31408 0
M  V30 17074 C 1654.44 -1.43285 -0.987186 0
M  V30 17075 O 1655.62 -1.7633 -0.973123 0
M  V30 17076 C 1652.68 -3.18203 -1.37651 0
M  V30 17077 C 1651.74 -4.23236 -0.71903 0
M  V30 17078 C 1650.98 -5.04854 -1.73084 0
M  V30 17079 O 1651.2 -4.87681 -2.95843 0
M  V30 17080 O 1650.13 -5.87748 -1.29755 0
M  V30 17081 H 1653.96 -3.01562 0.3597 0
M  V30 17082 H 1651.54 -1.47427 0.242029 0
M  V30 17083 H 1653.43 -3.71362 -1.9917 0
M  V30 17084 H 1652.1 -2.51846 -2.0336 0
M  V30 17085 H 1651.01 -3.74044 -0.0646492 0
M  V30 17086 H 1652.34 -4.92089 -0.104743 0
M  V30 17087 N 1653.99 -0.213323 -1.5615 0
M  V30 17088 C 1655.24 0.414505 -1.99132 0
M  V30 17089 C 1655.59 1.57968 -1.09836 0
M  V30 17090 O 1654.89 1.91039 -0.146566 0
M  V30 17091 C 1655.08 0.905764 -3.45732 0
M  V30 17092 C 1654.91 -0.210267 -4.49208 0
M  V30 17093 C 1653.68 -0.673947 -5.00785 0
M  V30 17094 C 1655.88 -1.02566 -5.03969 0
M  V30 17095 N 1653.86 -1.76589 -5.87954 0
M  V30 17096 C 1655.23 -1.96663 -5.87983 0
M  V30 17097 C 1657.29 -1.06602 -4.86354 0
M  V30 17098 C 1655.99 -2.94467 -6.56263 0
M  V30 17099 C 1658.02 -2.0322 -5.55388 0
M  V30 17100 C 1657.38 -2.96058 -6.39163 0
M  V30 17101 H 1653.48 0.118581 -0.772957 0
M  V30 17102 H 1656.06 -0.323206 -1.91999 0
M  V30 17103 H 1654.23 1.61286 -3.53329 0
M  V30 17104 H 1655.96 1.50572 -3.75646 0
M  V30 17105 H 1652.72 -0.26401 -4.72864 0
M  V30 17106 H 1653.14 -2.31362 -6.36239 0
M  V30 17107 H 1657.78 -0.362209 -4.21246 0
M  V30 17108 H 1655.5 -3.65815 -7.20559 0
M  V30 17109 H 1659.09 -2.07007 -5.43727 0
M  V30 17110 H 1657.97 -3.696 -6.91639 0
M  V30 17111 N 1655.47 1.57485 0.0601405 0
M  V30 17112 C 1656.72 1.86998 0.75595 0
M  V30 17113 C 1657.03 0.807616 1.78149 0
M  V30 17114 O 1658.24 0.99096 2.52769 0
M  V30 17115 C 1656.7 3.31746 1.39545 0
M  V30 17116 C 1656.3 4.46139 0.407874 0
M  V30 17117 C 1658.05 3.70445 2.07294 0
M  V30 17118 C 1655.96 5.81933 1.05395 0
M  V30 17119 H 1654.89 0.697619 0.286083 0
M  V30 17120 H 1657.54 1.83498 0.00948593 0
M  V30 17121 H 1655.92 3.29894 2.19057 0
M  V30 17122 H 1657.09 4.59405 -0.358281 0
M  V30 17123 H 1655.41 4.1607 -0.16581 0
M  V30 17124 H 1658 4.692 2.56428 0
M  V30 17125 H 1658.35 3.00839 2.87753 0
M  V30 17126 H 1658.88 3.74337 1.34598 0
M  V30 17127 H 1655.62 6.54861 0.289437 0
M  V30 17128 H 1655.14 5.72446 1.79068 0
M  V30 17129 H 1656.82 6.27652 1.5704 0
M  V30 17130 N 1656.95 -0.331789 1.54068 0
M  V30 17131 C 1657.91 -1.39094 1.82169 0
M  V30 17132 C 1658.91 -1.45092 0.693168 0
M  V30 17133 O 1660.1 -1.45263 0.961471 0
M  V30 17134 C 1657.24 -2.77909 1.97432 0
M  V30 17135 H 1658.43 -1.15435 2.76794 0
M  V30 17136 H 1655.98 -0.566827 1.4566 0
M  V30 17137 H 1656.72 -3.06835 1.0499 0
M  V30 17138 H 1656.5 -2.7495 2.79544 0
M  V30 17139 H 1657.99 -3.54548 2.20649 0
M  V30 17140 N 1658.43 -1.46001 -0.593424 0
M  V30 17141 C 1659.68 -1.50025 -1.34816 0
M  V30 17142 C 1659.99 -0.151905 -1.95009 0
M  V30 17143 O 1661.2 -0.0698751 -2.7141 0
M  V30 17144 C 1659.65 -2.643 -2.44282 0
M  V30 17145 C 1659.26 -4.05509 -1.90438 0
M  V30 17146 C 1661 -2.77584 -3.21165 0
M  V30 17147 C 1658.91 -5.11142 -2.97469 0
M  V30 17148 H 1657.84 -0.558299 -0.506772 0
M  V30 17149 H 1660.49 -1.72182 -0.634484 0
M  V30 17150 H 1658.87 -2.35453 -3.18399 0
M  V30 17151 H 1660.05 -4.44099 -1.22935 0
M  V30 17152 H 1658.36 -3.96798 -1.26256 0
M  V30 17153 H 1660.96 -3.53673 -4.01023 0
M  V30 17154 H 1661.3 -1.84718 -3.73075 0
M  V30 17155 H 1661.84 -3.06026 -2.54151 0
M  V30 17156 H 1658.58 -6.05764 -2.5046 0
M  V30 17157 H 1658.1 -4.77107 -3.63495 0
M  V30 17158 H 1659.77 -5.36516 -3.61607 0
M  V30 17159 N 1659.91 0.83715 -1.33527 0
M  V30 17160 C 1660.85 1.94709 -1.23924 0
M  V30 17161 C 1661.82 1.65684 -0.117494 0
M  V30 17162 O 1663.01 1.88489 -0.296057 0
M  V30 17163 C 1660.15 3.3071 -0.986146 0
M  V30 17164 C 1659.26 3.72121 -2.19432 0
M  V30 17165 C 1658.4 4.96999 -1.87524 0
M  V30 17166 C 1657.44 5.3095 -3.04563 0
M  V30 17167 N 1656.57 6.47006 -2.72632 0
M  V30 17168 H 1661.41 2.02255 -2.18854 0
M  V30 17169 H 1658.95 0.989703 -1.08827 0
M  V30 17170 H 1660.91 4.09065 -0.819834 0
M  V30 17171 H 1659.54 3.22716 -0.0735786 0
M  V30 17172 H 1658.59 2.89274 -2.47032 0
M  V30 17173 H 1659.9 3.93192 -3.06923 0
M  V30 17174 H 1659.06 5.83107 -1.67546 0
M  V30 17175 H 1657.79 4.77901 -0.972714 0
M  V30 17176 H 1656.8 4.43346 -3.25153 0
M  V30 17177 H 1658.02 5.51995 -3.95573 0
M  V30 17178 H 1655.97 6.29391 -1.8494 0
M  V30 17179 H 1655.89 6.6818 -3.53654 0
M  V30 17180 H 1657.16 7.3622 -2.56125 0
M  V30 17181 N 1661.38 1.17024 1.05561 0
M  V30 17182 C 1662.63 0.950769 1.77886 0
M  V30 17183 C 1662.95 -0.522005 1.88506 0
M  V30 17184 O 1664.15 -0.859582 2.57533 0
M  V30 17185 C 1662.61 1.65189 3.19751 0
M  V30 17186 C 1662.22 3.16294 3.17273 0
M  V30 17187 C 1663.96 1.51466 3.96558 0
M  V30 17188 C 1661.87 3.79111 4.53904 0
M  V30 17189 H 1660.8 0.352089 0.666745 0
M  V30 17190 H 1663.45 1.40237 1.18346 0
M  V30 17191 H 1661.83 1.12801 3.79594 0
M  V30 17192 H 1663 3.75585 2.66969 0
M  V30 17193 H 1661.32 3.29986 2.53966 0
M  V30 17194 H 1663.92 1.95772 4.97571 0
M  V30 17195 H 1664.26 0.46467 4.13699 0
M  V30 17196 H 1664.79 2.0105 3.43254 0
M  V30 17197 H 1661.53 4.84091 4.41969 0
M  V30 17198 H 1661.05 3.24606 5.04372 0
M  V30 17199 H 1662.73 3.81099 5.2285 0
M  V30 17200 N 1662.86 -1.24221 0.969889 0
M  V30 17201 C 1663.79 -2.24544 0.459636 0
M  V30 17202 C 1664.81 -1.56941 -0.432813 0
M  V30 17203 O 1666 -1.76898 -0.238637 0
M  V30 17204 C 1663.1 -3.3703 -0.3555 0
M  V30 17205 C 1662.27 -4.34207 0.527566 0
M  V30 17206 C 1661.33 -5.25689 -0.231934 0
M  V30 17207 O 1660.35 -5.67964 0.37488 0
M  V30 17208 N 1661.56 -5.60222 -1.5209 0
M  V30 17209 H 1664.32 -2.68957 1.3222 0
M  V30 17210 H 1661.88 -1.38285 0.84196 0
M  V30 17211 H 1663.87 -3.95201 -0.871685 0
M  V30 17212 H 1662.44 -2.91885 -1.11901 0
M  V30 17213 H 1661.66 -3.74693 1.2247 0
M  V30 17214 H 1662.95 -4.96099 1.12975 0
M  V30 17215 H 1662.35 -5.27807 -2.03559 0
M  V30 17216 H 1660.91 -6.20911 -1.98273 0
M  V30 17217 N 1664.34 -0.740267 -1.39132 0
M  V30 17218 C 1665.29 -0.103744 -2.30567 0
M  V30 17219 C 1666.26 0.724026 -1.49489 0
M  V30 17220 O 1667.44 0.682904 -1.7816 0
M  V30 17221 C 1664.58 0.793587 -3.35851 0
M  V30 17222 C 1663.7 -0.0473671 -4.31974 0
M  V30 17223 C 1662.83 0.851726 -5.24327 0
M  V30 17224 C 1661.87 0.00633633 -6.121 0
M  V30 17225 N 1661.01 0.861652 -6.96793 0
M  V30 17226 H 1665.85 -0.889087 -2.84428 0
M  V30 17227 H 1663.38 -0.450093 -1.40045 0
M  V30 17228 H 1665.34 1.32834 -3.95488 0
M  V30 17229 H 1663.97 1.54485 -2.83433 0
M  V30 17230 H 1663.02 -0.699601 -3.73911 0
M  V30 17231 H 1664.34 -0.700806 -4.93852 0
M  V30 17232 H 1663.49 1.45413 -5.89016 0
M  V30 17233 H 1662.23 1.53893 -4.62783 0
M  V30 17234 H 1661.23 -0.608833 -5.46419 0
M  V30 17235 H 1662.46 -0.677731 -6.7571 0
M  V30 17236 H 1660.4 1.53405 -6.37811 0
M  V30 17237 H 1660.32 0.264812 -7.55536 0
M  V30 17238 H 1661.59 1.44945 -7.65905 0
M  V30 17239 N 1665.82 1.49844 -0.488302 0
M  V30 17240 C 1667.07 2.02409 0.0606981 0
M  V30 17241 C 1667.39 1.36901 1.38161 0
M  V30 17242 O 1666.65 0.48951 1.89479 0
M  V30 17243 C 1666.95 3.56342 0.274851 0
M  V30 17244 C 1666.61 4.4042 -0.966481 0
M  V30 17245 C 1665.28 4.63116 -1.30678 0
M  V30 17246 C 1667.63 4.89418 -1.79218 0
M  V30 17247 C 1664.96 5.32055 -2.47253 0
M  V30 17248 C 1667.31 5.59639 -2.94935 0
M  V30 17249 C 1665.97 5.80584 -3.2936 0
M  V30 17250 H 1665.24 0.740667 0.022211 0
M  V30 17251 H 1667.89 1.80279 -0.645882 0
M  V30 17252 H 1666.19 3.7708 1.06384 0
M  V30 17253 H 1667.89 3.94594 0.71388 0
M  V30 17254 H 1664.48 4.22987 -0.691388 0
M  V30 17255 H 1668.66 4.71723 -1.54244 0
M  V30 17256 H 1663.92 5.46477 -2.74177 0
M  V30 17257 H 1668.09 5.96583 -3.59251 0
M  V30 17258 H 1665.72 6.33779 -4.19795 0
M  V30 17259 N 1667.3 0.221601 1.56034 0
M  V30 17260 C 1668.55 -0.410442 1.9748 0
M  V30 17261 C 1668.86 -1.60895 1.1123 0
M  V30 17262 O 1670.06 -2.31052 1.42574 0
M  V30 17263 C 1668.52 -0.781624 3.5131 0
M  V30 17264 C 1668.13 0.394077 4.46263 0
M  V30 17265 C 1669.87 -1.37927 4.01468 0
M  V30 17266 C 1667.78 0.000458181 5.914 0
M  V30 17267 H 1666.71 -0.157122 0.737447 0
M  V30 17268 H 1669.36 0.317821 1.80727 0
M  V30 17269 H 1667.74 -1.56731 3.63664 0
M  V30 17270 H 1668.92 1.17161 4.45657 0
M  V30 17271 H 1667.23 0.904959 4.06447 0
M  V30 17272 H 1669.83 -1.68667 5.07401 0
M  V30 17273 H 1670.17 -2.29507 3.47322 0
M  V30 17274 H 1670.7 -0.657015 3.92337 0
M  V30 17275 H 1667.44 0.882743 6.49529 0
M  V30 17276 H 1666.96 -0.741386 5.952 0
M  V30 17277 H 1668.64 -0.42621 6.45595 0
M  V30 17278 N 1668.77 -1.57515 -0.0517878 0
M  V30 17279 C 1669.68 -2.08427 -1.07681 0
M  V30 17280 C 1670.7 -1.01797 -1.41115 0
M  V30 17281 O 1671.88 -1.33394 -1.50891 0
M  V30 17282 C 1668.94 -2.53472 -2.36544 0
M  V30 17283 C 1668 -3.74488 -2.09899 0
M  V30 17284 C 1667.24 -4.17374 -3.32618 0
M  V30 17285 O 1667.46 -3.59962 -4.42475 0
M  V30 17286 O 1666.39 -5.10006 -3.19653 0
M  V30 17287 H 1670.22 -2.96122 -0.674217 0
M  V30 17288 H 1667.8 -1.4699 -0.267274 0
M  V30 17289 H 1669.69 -2.82876 -3.12345 0
M  V30 17290 H 1668.36 -1.68899 -2.76143 0
M  V30 17291 H 1667.27 -3.50137 -1.31739 0
M  V30 17292 H 1668.6 -4.59975 -1.75169 0
M  V30 17293 N 1670.25 0.323614 -1.54242 0
M  V30 17294 C 1671.5 1.05935 -1.73636 0
M  V30 17295 C 1671.85 1.85684 -0.503888 0
M  V30 17296 O 1671.15 1.84861 0.503692 0
M  V30 17297 C 1671.34 2.01452 -2.95215 0
M  V30 17298 C 1671.17 1.31094 -4.30168 0
M  V30 17299 C 1669.94 1.04747 -4.94324 0
M  V30 17300 C 1672.14 0.726886 -5.09137 0
M  V30 17301 N 1670.12 0.311788 -6.13108 0
M  V30 17302 C 1671.49 0.122813 -6.19878 0
M  V30 17303 C 1673.55 0.629696 -4.93902 0
M  V30 17304 C 1672.25 -0.569019 -7.17046 0
M  V30 17305 C 1674.28 -0.0484359 -5.9138 0
M  V30 17306 C 1673.64 -0.641453 -7.01473 0
M  V30 17307 H 1669.74 0.371344 -0.688206 0
M  V30 17308 H 1672.32 0.340541 -1.91699 0
M  V30 17309 H 1670.49 2.70605 -2.78617 0
M  V30 17310 H 1672.22 2.6801 -3.03237 0
M  V30 17311 H 1668.98 1.33979 -4.54254 0
M  V30 17312 H 1669.4 -0.0419069 -6.76987 0
M  V30 17313 H 1674.04 1.0739 -4.08934 0
M  V30 17314 H 1671.76 -1.02505 -8.01572 0
M  V30 17315 H 1675.35 -0.123275 -5.81669 0
M  V30 17316 H 1674.23 -1.15786 -7.75605 0
M  V30 17317 N 1671.73 1.46313 0.585673 0
M  V30 17318 C 1672.66 1.59511 1.70524 0
M  V30 17319 C 1673.64 0.445578 1.6416 0
M  V30 17320 O 1674.83 0.671455 1.82223 0
M  V30 17321 C 1671.96 1.58229 3.09162 0
M  V30 17322 C 1670.91 2.72122 3.30354 0
M  V30 17323 C 1670.24 2.559 4.69489 0
M  V30 17324 C 1671.54 4.13969 3.18476 0
M  V30 17325 H 1673.23 2.53229 1.59735 0
M  V30 17326 H 1670.78 1.2187 0.767046 0
M  V30 17327 H 1672.73 1.66056 3.87303 0
M  V30 17328 H 1671.45 0.610535 3.20843 0
M  V30 17329 H 1670.11 2.63759 2.54611 0
M  V30 17330 H 1669.76 1.56814 4.77931 0
M  V30 17331 H 1669.46 3.32289 4.84621 0
M  V30 17332 H 1670.99 2.65613 5.49802 0
M  V30 17333 H 1672.4 4.23459 3.86465 0
M  V30 17334 H 1670.8 4.90922 3.45131 0
M  V30 17335 H 1671.87 4.34334 2.15598 0
M  V30 17336 N 1673.21 -0.830057 1.33969 0
M  V30 17337 C 1674.16 -1.94049 1.24955 0
M  V30 17338 C 1675.13 -1.65619 0.126279 0
M  V30 17339 O 1676.31 -1.88329 0.306049 0
M  V30 17340 C 1673.45 -3.30182 1.00367 0
M  V30 17341 C 1672.56 -3.70952 2.21402 0
M  V30 17342 C 1671.7 -4.95998 1.90157 0
M  V30 17343 C 1670.74 -5.29327 3.07374 0
M  V30 17344 N 1669.88 -6.45551 2.76059 0
M  V30 17345 H 1674.72 -2.01091 2.19923 0
M  V30 17346 H 1672.25 -0.983918 1.0935 0
M  V30 17347 H 1674.21 -4.08625 0.841516 0
M  V30 17348 H 1672.84 -3.22673 0.090692 0
M  V30 17349 H 1671.89 -2.8796 2.48563 0
M  V30 17350 H 1673.2 -3.91558 3.09004 0
M  V30 17351 H 1672.36 -5.8221 1.70636 0
M  V30 17352 H 1671.1 -4.77379 0.998045 0
M  V30 17353 H 1670.1 -4.41616 3.27499 0
M  V30 17354 H 1671.33 -5.4989 3.98495 0
M  V30 17355 H 1669.27 -6.28401 1.88275 0
M  V30 17356 H 1669.19 -6.66295 3.57193 0
M  V30 17357 H 1670.46 -7.34851 2.60026 0
M  V30 17358 N 1674.69 -1.17582 -1.04939 0
M  V30 17359 C 1675.93 -0.967208 -1.7825 0
M  V30 17360 C 1676.27 0.502711 -1.87581 0
M  V30 17361 O 1675.54 1.37318 -1.37746 0
M  V30 17362 C 1675.82 -1.61205 -3.22001 0
M  V30 17363 C 1675.68 -3.15424 -3.20667 0
M  V30 17364 C 1677 -1.31804 -4.199 0
M  V30 17365 H 1674.12 -0.35279 -0.647077 0
M  V30 17366 H 1676.76 -1.45119 -1.2264 0
M  V30 17367 H 1674.91 -1.20052 -3.69486 0
M  V30 17368 H 1676.58 -3.65653 -2.8124 0
M  V30 17369 H 1674.82 -3.48042 -2.58938 0
M  V30 17370 H 1675.49 -3.55674 -4.22138 0
M  V30 17371 H 1677.97 -1.67446 -3.80921 0
M  V30 17372 H 1676.85 -1.79505 -5.18719 0
M  V30 17373 H 1677.11 -0.239304 -4.41452 0
M  V30 17374 N 1676.17 1.23705 -0.976463 0
M  V30 17375 C 1677.11 2.25023 -0.513156 0
M  V30 17376 C 1678.08 1.60003 0.445903 0
M  V30 17377 O 1679.27 1.87481 0.354323 0
M  V30 17378 C 1676.41 3.44619 0.182088 0
M  V30 17379 C 1675.52 4.24209 -0.816769 0
M  V30 17380 C 1674.66 5.31112 -0.0967355 0
M  V30 17381 C 1673.69 6.02406 -1.08507 0
M  V30 17382 N 1672.83 7.00991 -0.394455 0
M  V30 17383 H 1677.67 2.64019 -1.38194 0
M  V30 17384 H 1675.21 1.29777 -0.692566 0
M  V30 17385 H 1677.17 4.12835 0.601948 0
M  V30 17386 H 1675.8 3.06435 1.01477 0
M  V30 17387 H 1674.85 3.55448 -1.35503 0
M  V30 17388 H 1676.16 4.73445 -1.57006 0
M  V30 17389 H 1675.31 6.05504 0.380686 0
M  V30 17390 H 1674.05 4.82806 0.689187 0
M  V30 17391 H 1673.06 5.26809 -1.57328 0
M  V30 17392 H 1674.28 6.528 -1.87159 0
M  V30 17393 H 1672.23 6.54943 0.372331 0
M  V30 17394 H 1672.15 7.48152 -1.08647 0
M  V30 17395 H 1673.41 7.79476 0.0607087 0
M  V30 17396 N 1677.64 0.747635 1.38738 0
M  V30 17397 C 1678.89 0.297962 1.99487 0
M  V30 17398 C 1679.21 -1.1249 1.60016 0
M  V30 17399 O 1680.41 -1.67474 2.13693 0
M  V30 17400 C 1678.87 0.48178 3.56661 0
M  V30 17401 C 1678.48 1.91335 4.05086 0
M  V30 17402 C 1680.22 0.0945202 4.24395 0
M  V30 17403 C 1678.13 2.04604 5.54879 0
M  V30 17404 H 1677.06 0.107655 0.746275 0
M  V30 17405 H 1679.71 0.923325 1.58578 0
M  V30 17406 H 1678.09 -0.212676 3.95428 0
M  V30 17407 H 1679.26 2.64079 3.77623 0
M  V30 17408 H 1677.58 2.25497 3.50057 0
M  V30 17409 H 1680.18 0.172508 5.34422 0
M  V30 17410 H 1680.52 -0.952037 4.05268 0
M  V30 17411 H 1681.05 0.740606 3.90845 0
M  V30 17412 H 1677.79 3.07493 5.78903 0
M  V30 17413 H 1677.31 1.36313 5.84105 0
M  V30 17414 H 1678.99 1.83317 6.20487 0
M  V30 17415 N 1679.12 -1.49583 0.496242 0
M  V30 17416 C 1680.05 -2.31885 -0.274139 0
M  V30 17417 C 1681.03 -1.39939 -0.96701 0
M  V30 17418 O 1682.22 -1.6885 -0.959333 0
M  V30 17419 C 1679.35 -3.20332 -1.34181 0
M  V30 17420 C 1678.3 -4.21033 -0.769091 0
M  V30 17421 C 1677.63 -4.98385 -1.93693 0
M  V30 17422 C 1678.93 -5.21764 0.236648 0
M  V30 17423 H 1680.62 -2.9654 0.412824 0
M  V30 17424 H 1678.17 -1.42605 0.199979 0
M  V30 17425 H 1680.12 -3.76718 -1.88843 0
M  V30 17426 H 1678.84 -2.53611 -2.05789 0
M  V30 17427 H 1677.5 -3.65785 -0.244252 0
M  V30 17428 H 1677.15 -4.28115 -2.64058 0
M  V30 17429 H 1676.85 -5.66519 -1.55981 0
M  V30 17430 H 1678.38 -5.57613 -2.48798 0
M  V30 17431 H 1679.79 -5.72871 -0.221672 0
M  V30 17432 H 1678.19 -5.97761 0.529346 0
M  V30 17433 H 1679.26 -4.70964 1.15415 0
M  V30 17434 N 1680.6 -0.229873 -1.55915 0
M  V30 17435 C 1682.01 0.276452 -1.84642 0
M  V30 17436 C 1682.36 1.58861 -1.15142 0
M  V30 17437 O 1681.49 2.12207 -0.423932 0
M  V30 17438 C 1682.08 0.508371 -3.34964 0
M  V30 17439 C 1680.64 0.958989 -3.63979 0
M  V30 17440 C 1679.79 0.0266738 -2.77287 0
M  V30 17441 H 1682.74 -0.452864 -1.52101 0
M  V30 17442 H 1682.76 1.35328 -3.55621 0
M  V30 17443 H 1682.27 -0.4468 -3.8552 0
M  V30 17444 H 1680.37 1.92722 -3.18887 0
M  V30 17445 H 1680.49 0.827637 -4.71897 0
M  V30 17446 H 1678.85 0.53498 -2.49018 0
M  V30 17447 H 1679.63 -0.923563 -3.30644 0
M  V30 17448 N 1682.08 1.5754 0.0434337 0
M  V30 17449 C 1682.99 2.08996 1.06574 0
M  V30 17450 C 1684 1.02544 1.40573 0
M  V30 17451 O 1685.18 1.34192 1.50181 0
M  V30 17452 C 1682.24 2.54723 2.35196 0
M  V30 17453 C 1681.31 3.75595 2.0791 0
M  V30 17454 C 1680.54 4.19132 3.304 0
M  V30 17455 O 1680.76 3.62303 4.40559 0
M  V30 17456 O 1679.7 5.11694 3.16944 0
M  V30 17457 H 1683.52 2.96475 0.658503 0
M  V30 17458 H 1681.11 1.47129 0.259475 0
M  V30 17459 H 1682.99 2.84529 3.1084 0
M  V30 17460 H 1681.66 1.70361 2.75243 0
M  V30 17461 H 1680.57 3.5083 1.2988 0
M  V30 17462 H 1681.9 4.60897 1.72727 0
M  V30 17463 N 1683.56 -0.31543 1.54411 0
M  V30 17464 C 1684.8 -1.05396 1.73261 0
M  V30 17465 C 1685.13 -1.87406 0.509171 0
M  V30 17466 O 1684.41 -1.88126 -0.493836 0
M  V30 17467 C 1684.69 -1.97195 3.01308 0
M  V30 17468 C 1684.55 -1.18461 4.33921 0
M  V30 17469 C 1685.86 -2.96594 3.25146 0
M  V30 17470 H 1682.98 -0.381763 0.630417 0
M  V30 17471 H 1685.63 -0.329882 1.87114 0
M  V30 17472 H 1683.78 -2.58936 2.89628 0
M  V30 17473 H 1685.45 -0.591171 4.57496 0
M  V30 17474 H 1683.69 -0.487025 4.31057 0
M  V30 17475 H 1684.36 -1.85909 5.19752 0
M  V30 17476 H 1686.84 -2.44977 3.36341 0
M  V30 17477 H 1685.71 -3.58002 4.16084 0
M  V30 17478 H 1685.97 -3.69487 2.42758 0
M  V30 17479 N 1685.03 -1.46622 -0.577906 0
M  V30 17480 C 1686.45 -1.31683 -0.901762 0
M  V30 17481 C 1686.65 -0.291842 -1.99375 0
M  V30 17482 O 1685.71 0.303913 -2.50664 0
M  V30 17483 C 1687.02 -2.70443 -1.31457 0
M  V30 17484 C 1688.57 -2.7857 -1.42715 0
M  V30 17485 C 1689.04 -4.17923 -1.87361 0
M  V30 17486 N 1690.53 -4.20364 -1.94546 0
M  V30 17487 C 1691.27 -5.25085 -2.30376 0
M  V30 17488 N 1690.76 -6.4013 -2.64964 0
M  V30 17489 N 1692.56 -5.12453 -2.30972 0
M  V30 17490 H 1684.71 -2.11916 0.143367 0
M  V30 17491 H 1686.97 -0.947999 0.00146914 0
M  V30 17492 H 1686.68 -3.46781 -0.586174 0
M  V30 17493 H 1686.55 -3.00864 -2.2751 0
M  V30 17494 H 1688.94 -2.02518 -2.14641 0
M  V30 17495 H 1689.02 -2.51828 -0.449021 0
M  V30 17496 H 1688.66 -4.94473 -1.16012 0
M  V30 17497 H 1688.59 -4.42076 -2.8614 0
M  V30 17498 H 1691.08 -3.37359 -1.70286 0
M  V30 17499 H 1691.4 -7.15808 -2.91271 0
M  V30 17500 H 1689.74 -6.43483 -2.62591 0
M  V30 17501 H 1692.93 -4.21611 -2.03376 0
M  V30 17502 H 1693.11 -5.94178 -2.58566 0
M  V30 17503 N 1686.51 0.822941 -1.34408 0
M  V30 17504 C 1687.42 1.96567 -1.28056 0
M  V30 17505 C 1688.44 1.72979 -0.188251 0
M  V30 17506 O 1689.61 1.97084 -0.41472 0
M  V30 17507 C 1686.68 3.30865 -1.03583 0
M  V30 17508 C 1685.74 3.67461 -2.2197 0
M  V30 17509 C 1684.97 4.9535 -1.98655 0
M  V30 17510 O 1685.2 5.62521 -0.944785 0
M  V30 17511 O 1684.13 5.29824 -2.85605 0
M  V30 17512 H 1687.96 2.0487 -2.24192 0
M  V30 17513 H 1685.54 0.958334 -1.14614 0
M  V30 17514 H 1687.42 4.11298 -0.917162 0
M  V30 17515 H 1686.1 3.2353 -0.104868 0
M  V30 17516 H 1685.01 2.87472 -2.39396 0
M  V30 17517 H 1686.34 3.79481 -3.13456 0
M  V30 17518 N 1687.99 1.18137 1.04314 0
M  V30 17519 C 1688.94 0.906125 2.12269 0
M  V30 17520 C 1689.91 -0.153492 1.65389 0
M  V30 17521 O 1691.09 -0.0143887 1.90795 0
M  V30 17522 C 1688.23 0.435247 3.42344 0
M  V30 17523 C 1687.35 1.56 4.0285 0
M  V30 17524 C 1686.48 1.0421 5.20878 0
M  V30 17525 C 1685.52 2.14171 5.73409 0
M  V30 17526 N 1684.66 1.63792 6.82727 0
M  V30 17527 H 1689.5 1.83052 2.35151 0
M  V30 17528 H 1687.03 0.912846 1.1535 0
M  V30 17529 H 1688.99 0.143733 4.16952 0
M  V30 17530 H 1687.62 -0.452175 3.19617 0
M  V30 17531 H 1686.67 1.96705 3.25594 0
M  V30 17532 H 1687.99 2.389 4.37868 0
M  V30 17533 H 1687.14 0.704959 6.0259 0
M  V30 17534 H 1685.88 0.182643 4.87358 0
M  V30 17535 H 1684.88 2.48732 4.90319 0
M  V30 17536 H 1686.11 3.00547 6.08973 0
M  V30 17537 H 1684.05 0.801323 6.51087 0
M  V30 17538 H 1683.97 2.40293 7.16795 0
M  V30 17539 H 1685.24 1.32998 7.6807 0
M  V30 17540 N 1689.47 -1.23186 0.98301 0
M  V30 17541 C 1690.42 -2.22529 0.496484 0
M  V30 17542 C 1691.4 -1.5505 -0.429923 0
M  V30 17543 O 1692.59 -1.75104 -0.258352 0
M  V30 17544 C 1689.72 -3.42733 -0.197237 0
M  V30 17545 C 1688.81 -4.17435 0.748894 0
M  V30 17546 N 1689.2 -4.69056 1.89261 0
M  V30 17547 C 1687.5 -4.42435 0.562753 0
M  V30 17548 C 1688.2 -5.25918 2.48566 0
M  V30 17549 N 1687.18 -5.14001 1.76929 0
M  V30 17550 H 1690.98 -2.60072 1.36893 0
M  V30 17551 H 1688.49 -1.38745 0.844014 0
M  V30 17552 H 1690.49 -4.1308 -0.56311 0
M  V30 17553 H 1689.15 -3.06705 -1.06593 0
M  V30 17554 H 1690.16 -4.6532 2.27372 0
M  V30 17555 H 1686.84 -4.16685 -0.260705 0
M  V30 17556 H 1688.23 -5.76462 3.45168 0
M  V30 17557 N 1690.95 -0.754982 -1.38339 0
M  V30 17558 C 1691.86 -0.130303 -2.34238 0
M  V30 17559 C 1692.87 0.699048 -1.5934 0
M  V30 17560 O 1694.05 0.622876 -1.91526 0
M  V30 17561 C 1691.11 0.751285 -3.38462 0
M  V30 17562 C 1690.17 -0.0925987 -4.292 0
M  V30 17563 C 1689.41 0.747007 -5.28446 0
M  V30 17564 O 1689.63 1.98495 -5.34749 0
M  V30 17565 O 1688.56 0.165072 -6.01674 0
M  V30 17566 H 1692.39 -0.92233 -2.89356 0
M  V30 17567 H 1689.98 -0.515896 -1.4021 0
M  V30 17568 H 1691.86 1.2551 -4.02275 0
M  V30 17569 H 1690.53 1.52178 -2.85698 0
M  V30 17570 H 1689.44 -0.64239 -3.68543 0
M  V30 17571 H 1690.77 -0.825784 -4.85223 0
M  V30 17572 N 1692.42 1.49318 -0.504168 0
M  V30 17573 C 1693.67 2.02462 0.0392265 0
M  V30 17574 C 1694 1.38359 1.36701 0
M  V30 17575 O 1693.25 0.509579 1.88949 0
M  V30 17576 C 1693.55 3.56613 0.237041 0
M  V30 17577 C 1693.22 4.3937 -1.01314 0
M  V30 17578 C 1691.88 4.61704 -1.35583 0
M  V30 17579 C 1694.23 4.8749 -1.84399 0
M  V30 17580 C 1691.56 5.29403 -2.52882 0
M  V30 17581 C 1693.91 5.56479 -3.00854 0
M  V30 17582 C 1692.58 5.77058 -3.35499 0
M  V30 17583 H 1691.85 0.740861 0.014354 0
M  V30 17584 H 1694.49 1.79584 -0.664967 0
M  V30 17585 H 1692.8 3.78188 1.02379 0
M  V30 17586 H 1694.5 3.95329 0.671987 0
M  V30 17587 H 1691.09 4.2223 -0.736213 0
M  V30 17588 H 1695.27 4.7006 -1.59238 0
M  V30 17589 H 1690.53 5.43538 -2.79958 0
M  V30 17590 H 1694.7 5.9274 -3.65558 0
M  V30 17591 H 1692.33 6.29291 -4.26494 0
M  V30 17592 N 1693.9 0.238138 1.5579 0
M  V30 17593 C 1694.83 -0.659451 2.23994 0
M  V30 17594 C 1695.81 -1.18817 1.21723 0
M  V30 17595 O 1697 -1.22913 1.50353 0
M  V30 17596 C 1694.13 -1.86043 2.93267 0
M  V30 17597 C 1693.08 -1.46485 4.02152 0
M  V30 17598 C 1692.41 -2.74595 4.58805 0
M  V30 17599 C 1693.71 -0.642448 5.18334 0
M  V30 17600 H 1695.4 -0.0907522 2.99262 0
M  V30 17601 H 1692.95 -0.042209 1.43938 0
M  V30 17602 H 1694.9 -2.49393 3.39678 0
M  V30 17603 H 1693.63 -2.45436 2.15473 0
M  V30 17604 H 1692.28 -0.854729 3.56497 0
M  V30 17605 H 1691.93 -3.32168 3.77721 0
M  V30 17606 H 1691.63 -2.48854 5.32302 0
M  V30 17607 H 1693.16 -3.38859 5.07944 0
M  V30 17608 H 1694.57 -1.18005 5.61024 0
M  V30 17609 H 1692.97 -0.481458 5.98166 0
M  V30 17610 H 1694.04 0.347298 4.83655 0
M  V30 17611 N 1695.38 -1.57561 -0.0350783 0
M  V30 17612 C 1696.33 -2.07246 -1.05602 0
M  V30 17613 C 1697.32 -0.985013 -1.37818 0
M  V30 17614 O 1698.53 -1.16993 -1.36794 0
M  V30 17615 H 1694.9 -0.661286 -0.358057 0
M  V30 17616 H 1696.87 -2.92075 -0.611124 0
M  V30 17617 C 1695.62 -2.56235 -2.3503 0
M  V30 17618 H 1694.95 -3.39525 -2.111 0
M  V30 17619 H 1696.39 -2.94716 -3.04826 0
M  V30 17620 C 1694.85 -1.46096 -3.03575 0
M  V30 17621 O 1695.38 -0.823772 -3.93163 0
M  V30 17622 N 1693.58 -1.19698 -2.64803 0
M  V30 17623 H 1693.13 -1.71697 -1.92036 0
M  V30 17624 H 1693.09 -0.462174 -3.10984 0
M  V30 17625 N 1696.86 0.307236 -1.54576 0
M  V30 17626 C 1698.27 0.652539 -1.45651 0
M  V30 17627 C 1698.47 1.90978 -0.64263 0
M  V30 17628 O 1697.53 2.52067 -0.147863 0
M  V30 17629 C 1698.84 0.811341 -2.89547 0
M  V30 17630 C 1700.39 0.90763 -2.99551 0
M  V30 17631 C 1700.87 1.09848 -4.44632 0
M  V30 17632 N 1702.36 1.16483 -4.48315 0
M  V30 17633 C 1703.09 1.33068 -5.57746 0
M  V30 17634 N 1702.59 1.46591 -6.77114 0
M  V30 17635 N 1704.38 1.35906 -5.45423 0
M  V30 17636 H 1696.53 -0.518891 -2.05964 0
M  V30 17637 H 1698.8 -0.170463 -0.932548 0
M  V30 17638 H 1698.5 -0.0414879 -3.51676 0
M  V30 17639 H 1698.38 1.70224 -3.36606 0
M  V30 17640 H 1700.76 1.75095 -2.37541 0
M  V30 17641 H 1700.84 -0.00715386 -2.55799 0
M  V30 17642 H 1700.49 0.259948 -5.07234 0
M  V30 17643 H 1700.42 2.02739 -4.86009 0
M  V30 17644 H 1702.91 1.07411 -3.62314 0
M  V30 17645 H 1703.22 1.58983 -7.5627 0
M  V30 17646 H 1701.57 1.43658 -6.79991 0
M  V30 17647 H 1704.76 1.24949 -4.51116 0
M  V30 17648 H 1704.93 1.48489 -6.30758 0
M  V30 17649 N 1698.34 1.46926 0.570122 0
M  V30 17650 C 1699.27 1.61311 1.68822 0
M  V30 17651 C 1700.25 0.462964 1.63678 0
M  V30 17652 O 1701.43 0.690745 1.815 0
M  V30 17653 C 1698.56 1.61499 3.07466 0
M  V30 17654 C 1697.52 2.7561 3.27449 0
M  V30 17655 C 1696.84 2.60865 4.66748 0
M  V30 17656 C 1698.14 4.17324 3.14067 0
M  V30 17657 H 1699.84 2.54909 1.5704 0
M  V30 17658 H 1697.38 1.22677 0.754077 0
M  V30 17659 H 1699.34 1.70155 3.8552 0
M  V30 17660 H 1698.06 0.64453 3.20177 0
M  V30 17661 H 1696.72 2.66444 2.51799 0
M  V30 17662 H 1696.37 1.61875 4.76241 0
M  V30 17663 H 1696.07 3.37411 4.81069 0
M  V30 17664 H 1697.59 2.7143 5.46954 0
M  V30 17665 H 1699 4.27534 3.81952 0
M  V30 17666 H 1697.4 4.94555 3.39905 0
M  V30 17667 H 1698.47 4.36596 2.10979 0
M  V30 17668 N 1699.82 -0.815801 1.34842 0
M  V30 17669 C 1700.76 -1.92713 1.27006 0
M  V30 17670 C 1701.73 -1.65476 0.143838 0
M  V30 17671 O 1702.92 -1.87994 0.326007 0
M  V30 17672 C 1700.06 -3.29099 1.03863 0
M  V30 17673 C 1699.17 -3.68583 2.25324 0
M  V30 17674 C 1698.31 -4.93953 1.95407 0
M  V30 17675 C 1697.34 -5.26037 3.12971 0
M  V30 17676 N 1696.48 -6.42586 2.82891 0
M  V30 17677 H 1701.32 -1.98747 2.22044 0
M  V30 17678 H 1698.86 -0.972265 1.10388 0
M  V30 17679 H 1700.82 -4.07709 0.884809 0
M  V30 17680 H 1699.45 -3.22558 0.124911 0
M  V30 17681 H 1698.5 -2.85307 2.51603 0
M  V30 17682 H 1699.81 -3.88259 3.1314 0
M  V30 17683 H 1698.96 -5.80367 1.76801 0
M  V30 17684 H 1697.7 -4.76293 1.04862 0
M  V30 17685 H 1696.71 -4.38117 3.32165 0
M  V30 17686 H 1697.93 -5.45632 4.04305 0
M  V30 17687 H 1695.88 -6.26369 1.9493 0
M  V30 17688 H 1695.8 -6.62469 3.64239 0
M  V30 17689 H 1697.06 -7.32052 2.67805 0
M  V30 17690 N 1701.29 -1.18689 -1.03686 0
M  V30 17691 C 1702.23 -0.875126 -2.11835 0
M  V30 17692 C 1703.24 0.128865 -1.62289 0
M  V30 17693 O 1704.43 -0.0994835 -1.78223 0
M  V30 17694 C 1701.53 -0.286914 -3.37683 0
M  V30 17695 C 1700.7 -1.3375 -4.16449 0
M  V30 17696 C 1699.76 -0.764286 -5.2062 0
M  V30 17697 O 1698.79 -1.43998 -5.50684 0
M  V30 17698 N 1699.99 0.436345 -5.78858 0
M  V30 17699 H 1702.75 -1.80601 -2.39172 0
M  V30 17700 H 1700.31 -1.0878 -1.19911 0
M  V30 17701 H 1702.31 0.110219 -4.0455 0
M  V30 17702 H 1700.88 0.548073 -3.07758 0
M  V30 17703 H 1700.1 -1.9098 -3.44848 0
M  V30 17704 H 1701.38 -2.04566 -4.65865 0
M  V30 17705 H 1700.78 1.00296 -5.56738 0
M  V30 17706 H 1699.34 0.775353 -6.47172 0
M  V30 17707 N 1702.77 1.22662 -0.989529 0
M  V30 17708 C 1703.7 2.26762 -0.556891 0
M  V30 17709 C 1704.68 1.64971 0.414538 0
M  V30 17710 O 1705.87 1.91775 0.305909 0
M  V30 17711 C 1703 3.47047 0.132573 0
M  V30 17712 C 1701.95 4.21251 -0.757058 0
M  V30 17713 C 1701.28 5.3466 0.065134 0
M  V30 17714 C 1702.58 4.8029 -2.05229 0
M  V30 17715 H 1704.27 2.63204 -1.42703 0
M  V30 17716 H 1701.82 1.26522 -0.687614 0
M  V30 17717 H 1703.77 4.19027 0.446609 0
M  V30 17718 H 1702.49 3.09692 1.03723 0
M  V30 17719 H 1701.15 3.51101 -1.05469 0
M  V30 17720 H 1700.8 4.93547 0.970607 0
M  V30 17721 H 1700.5 5.85231 -0.527063 0
M  V30 17722 H 1702.03 6.09458 0.373342 0
M  V30 17723 H 1703.44 5.44229 -1.80242 0
M  V30 17724 H 1701.84 5.41186 -2.59302 0
M  V30 17725 H 1702.91 4.00529 -2.73322 0
M  V30 17726 N 1704.25 0.762308 1.37937 0
M  V30 17727 C 1705.66 0.388966 1.82603 0
M  V30 17728 C 1706.01 -1.08362 1.63561 0
M  V30 17729 O 1705.14 -1.83842 1.14154 0
M  V30 17730 C 1705.73 0.699218 3.31506 0
M  V30 17731 C 1704.29 0.379048 3.74487 0
M  V30 17732 C 1703.44 0.947924 2.60595 0
M  V30 17733 H 1706.39 0.957743 1.26542 0
M  V30 17734 H 1706.41 -0.019502 3.80495 0
M  V30 17735 H 1705.92 1.77105 3.45334 0
M  V30 17736 H 1704.02 -0.685844 3.66233 0
M  V30 17737 H 1704.14 0.880697 4.70936 0
M  V30 17738 H 1702.5 0.372746 2.51958 0
M  V30 17739 H 1703.28 2.02496 2.77219 0
M  V30 17740 N 1705.73 -1.49049 0.51208 0
M  V30 17741 C 1706.66 -2.32163 -0.249529 0
M  V30 17742 C 1707.64 -1.40957 -0.952114 0
M  V30 17743 O 1708.82 -1.69858 -0.94137 0
M  V30 17744 C 1705.95 -3.21737 -1.30776 0
M  V30 17745 C 1704.91 -4.21825 -0.724392 0
M  V30 17746 C 1704.23 -5.00411 -1.88396 0
M  V30 17747 C 1705.53 -5.21483 0.291975 0
M  V30 17748 H 1707.23 -2.96086 0.444253 0
M  V30 17749 H 1704.77 -1.42385 0.215093 0
M  V30 17750 H 1706.73 -3.78699 -1.84837 0
M  V30 17751 H 1705.45 -2.55779 -2.03088 0
M  V30 17752 H 1704.11 -3.66024 -0.205441 0
M  V30 17753 H 1703.76 -4.30891 -2.59502 0
M  V30 17754 H 1703.46 -5.68141 -1.49964 0
M  V30 17755 H 1704.98 -5.6022 -2.42869 0
M  V30 17756 H 1706.4 -5.73074 -0.160899 0
M  V30 17757 H 1704.79 -5.97166 0.592717 0
M  V30 17758 H 1705.86 -4.69714 1.20404 0
M  V30 17759 N 1707.21 -0.246397 -1.55662 0
M  V30 17760 C 1708.14 0.647563 -2.24341 0
M  V30 17761 C 1709.12 1.1817 -1.22352 0
M  V30 17762 O 1710.3 1.22114 -1.51003 0
M  V30 17763 C 1707.43 1.84485 -2.94249 0
M  V30 17764 C 1706.39 1.4435 -4.02923 0
M  V30 17765 C 1705.71 2.72158 -4.60255 0
M  V30 17766 C 1707.01 0.614951 -5.18667 0
M  V30 17767 H 1708.71 0.0748803 -2.99306 0
M  V30 17768 H 1706.25 0.034575 -1.43958 0
M  V30 17769 H 1708.2 2.47588 -3.40995 0
M  V30 17770 H 1706.93 2.4429 -2.16772 0
M  V30 17771 H 1705.59 0.835811 -3.56945 0
M  V30 17772 H 1705.24 3.3016 -3.79478 0
M  V30 17773 H 1704.94 2.46028 -5.33614 0
M  V30 17774 H 1706.46 3.36161 -5.09734 0
M  V30 17775 H 1707.87 1.15028 -5.61642 0
M  V30 17776 H 1706.27 0.449729 -5.98412 0
M  V30 17777 H 1707.34 -0.372943 -4.83464 0
M  V30 17778 N 1708.68 1.57577 0.026722 0
M  V30 17779 C 1709.59 2.10114 1.04351 0
M  V30 17780 C 1710.61 1.04029 1.39477 0
M  V30 17781 O 1711.79 1.35778 1.48749 0
M  V30 17782 C 1708.85 2.57203 2.32481 0
M  V30 17783 C 1707.91 3.77779 2.03915 0
M  V30 17784 C 1707.14 4.22613 3.25936 0
M  V30 17785 O 1707.37 3.66955 4.36692 0
M  V30 17786 O 1706.3 5.15026 3.11499 0
M  V30 17787 H 1710.13 2.97157 0.627021 0
M  V30 17788 H 1707.71 1.47396 0.243855 0
M  V30 17789 H 1709.59 2.87809 3.07805 0
M  V30 17790 H 1708.27 1.7327 2.73421 0
M  V30 17791 H 1707.18 3.52188 1.26152 0
M  V30 17792 H 1708.51 4.62703 1.67829 0
M  V30 17793 N 1710.16 -0.299034 1.54737 0
M  V30 17794 C 1711.39 -1.05723 1.7843 0
M  V30 17795 C 1711.81 -1.80089 0.543094 0
M  V30 17796 O 1711.17 -1.74083 -0.506438 0
M  V30 17797 C 1711.22 -2.01193 2.99255 0
M  V30 17798 O 1710.32 -3.09528 2.72518 0
M  V30 17799 H 1709.66 -0.303614 0.590521 0
M  V30 17800 H 1712.19 -0.335859 2.01825 0
M  V30 17801 H 1712.2 -2.43623 3.27279 0
M  V30 17802 H 1710.88 -1.46472 3.89254 0
M  V30 17803 H 1709.45 -2.71599 2.55516 0
M  V30 17804 N 1711.64 -1.47227 -0.562322 0
M  V30 17805 C 1712.57 -1.55383 -1.6849 0
M  V30 17806 C 1713.58 -0.440437 -1.56729 0
M  V30 17807 O 1714.77 -0.709803 -1.63781 0
M  V30 17808 C 1711.87 -1.43723 -3.06915 0
M  V30 17809 C 1711.05 -2.69541 -3.4448 0
M  V30 17810 C 1710.11 -2.5179 -4.62048 0
M  V30 17811 O 1709.13 -3.25587 -4.66885 0
M  V30 17812 N 1710.33 -1.59282 -5.5822 0
M  V30 17813 H 1713.1 -2.52181 -1.61941 0
M  V30 17814 H 1710.66 -1.43541 -0.748832 0
M  V30 17815 H 1712.65 -1.2959 -3.83391 0
M  V30 17816 H 1711.22 -0.550272 -3.07719 0
M  V30 17817 H 1710.44 -2.98472 -2.57504 0
M  V30 17818 H 1711.73 -3.53079 -3.66351 0
M  V30 17819 H 1711.13 -0.984666 -5.57064 0
M  V30 17820 H 1709.68 -1.51103 -6.34043 0
M  V30 17821 N 1713.12 0.808639 -1.35273 0
M  V30 17822 C 1714.37 1.56071 -1.27768 0
M  V30 17823 C 1714.68 1.9505 0.146545 0
M  V30 17824 O 1715.89 2.69314 0.343855 0
M  V30 17825 C 1714.34 2.81648 -2.24059 0
M  V30 17826 C 1713.95 2.49915 -3.71815 0
M  V30 17827 C 1715.69 3.59658 -2.25492 0
M  V30 17828 C 1713.6 3.7177 -4.59936 0
M  V30 17829 H 1712.53 0.585811 -0.474701 0
M  V30 17830 H 1715.18 0.889051 -1.60525 0
M  V30 17831 H 1713.56 3.50514 -1.84271 0
M  V30 17832 H 1714.74 1.89068 -4.20226 0
M  V30 17833 H 1713.05 1.85154 -3.72971 0
M  V30 17834 H 1715.65 4.50162 -2.88545 0
M  V30 17835 H 1715.99 3.96835 -1.2581 0
M  V30 17836 H 1716.53 2.97751 -2.63798 0
M  V30 17837 H 1713.26 3.39704 -5.60608 0
M  V30 17838 H 1712.78 4.3185 -4.16252 0
M  V30 17839 H 1714.46 4.39022 -4.75256 0
M  V30 17840 N 1714.6 1.19237 1.03055 0
M  V30 17841 C 1715.56 0.930536 2.0946 0
M  V30 17842 C 1716.56 -0.0882907 1.60557 0
M  V30 17843 O 1717.75 0.146269 1.73585 0
M  V30 17844 C 1714.88 0.398165 3.38567 0
M  V30 17845 H 1716.07 1.87422 2.34122 0
M  V30 17846 H 1713.63 1.00579 1.19639 0
M  V30 17847 H 1714.36 -0.551646 3.19574 0
M  V30 17848 H 1714.15 1.13273 3.75382 0
M  V30 17849 H 1715.64 0.234006 4.16944 0
M  V30 17850 N 1716.07 -1.22136 0.99602 0
M  V30 17851 C 1717.3 -1.94978 0.692172 0
M  V30 17852 C 1717.72 -1.73536 -0.743696 0
M  V30 17853 O 1717.07 -1.03637 -1.50219 0
M  V30 17854 C 1717.13 -3.47609 0.992498 0
M  V30 17855 O 1716.85 -3.68334 2.37195 0
M  V30 17856 C 1718.35 -4.37629 0.70679 0
M  V30 17857 H 1715.57 -0.620327 0.255802 0
M  V30 17858 H 1718.11 -1.55202 1.33164 0
M  V30 17859 H 1716.27 -3.85342 0.398785 0
M  V30 17860 H 1716.68 -4.62506 2.47362 0
M  V30 17861 H 1718.15 -5.43461 0.967173 0
M  V30 17862 H 1718.63 -4.37729 -0.359208 0
M  V30 17863 H 1719.24 -4.05528 1.2817 0
M  V30 17864 N 1717.55 -0.769612 -1.37531 0
M  V30 17865 C 1718.8 -0.329661 -1.98988 0
M  V30 17866 C 1719.11 1.0993 -1.61786 0
M  V30 17867 O 1720.32 1.64053 -2.1633 0
M  V30 17868 C 1718.78 -0.538461 -3.55849 0
M  V30 17869 C 1718.38 -1.97755 -4.01991 0
M  V30 17870 C 1720.13 -0.162026 -4.24191 0
M  V30 17871 C 1718.04 -2.13406 -5.51554 0
M  V30 17872 H 1716.97 -0.119514 -0.744468 0
M  V30 17873 H 1719.62 -0.948436 -1.57089 0
M  V30 17874 H 1718 0.14974 -3.95717 0
M  V30 17875 H 1719.17 -2.70053 -3.73374 0
M  V30 17876 H 1717.49 -2.31038 -3.46425 0
M  V30 17877 H 1720.08 -0.257508 -5.3408 0
M  V30 17878 H 1720.43 0.887442 -4.06731 0
M  V30 17879 H 1720.96 -0.802692 -3.89617 0
M  V30 17880 H 1717.7 -3.16664 -5.73937 0
M  V30 17881 H 1717.22 -1.45589 -5.81862 0
M  V30 17882 H 1718.9 -1.93165 -6.17492 0
M  V30 17883 N 1719.03 1.48775 -0.519977 0
M  V30 17884 C 1719.94 2.33239 0.252329 0
M  V30 17885 C 1720.96 1.45852 0.948849 0
M  V30 17886 O 1722.13 1.78848 0.92603 0
M  V30 17887 C 1719.2 3.2174 1.29166 0
M  V30 17888 C 1718.26 4.24993 0.606564 0
M  V30 17889 C 1717.49 5.09266 1.59638 0
M  V30 17890 O 1717.71 4.95353 2.82809 0
M  V30 17891 O 1716.65 5.90981 1.14127 0
M  V30 17892 H 1720.47 3.00503 -0.439527 0
M  V30 17893 H 1718.06 1.46733 -0.281032 0
M  V30 17894 H 1719.94 3.76512 1.89254 0
M  V30 17895 H 1718.62 2.5715 1.96611 0
M  V30 17896 H 1717.52 3.74084 -0.0345447 0
M  V30 17897 H 1718.86 4.92193 -0.0257627 0
M  V30 17898 N 1720.51 0.254649 1.55529 0
M  V30 17899 C 1721.44 -0.674506 2.1905 0
M  V30 17900 C 1722.45 -1.13297 1.16909 0
M  V30 17901 O 1723.64 -1.0584 1.43736 0
M  V30 17902 C 1720.74 -1.92951 2.78609 0
M  V30 17903 C 1719.92 -1.62123 4.06245 0
M  V30 17904 C 1718.97 -2.72661 4.50047 0
M  V30 17905 O 1718 -2.39717 5.1626 0
M  V30 17906 N 1719.2 -4.02315 4.18477 0
M  V30 17907 H 1721.97 -0.130956 2.99414 0
M  V30 17908 H 1719.53 0.0749176 1.61727 0
M  V30 17909 H 1721.52 -2.66155 3.04866 0
M  V30 17910 H 1720.09 -2.38265 2.02358 0
M  V30 17911 H 1719.31 -0.723991 3.87495 0
M  V30 17912 H 1720.6 -1.39 4.89445 0
M  V30 17913 H 1720 -4.3191 3.65336 0
M  V30 17914 H 1718.55 -4.7196 4.49552 0
M  V30 17915 N 1721.99 -1.57589 -0.0183649 0
M  V30 17916 C 1723.21 -1.94421 -0.722172 0
M  V30 17917 C 1723.64 -0.855471 -1.67521 0
M  V30 17918 O 1722.99 0.187954 -1.80323 0
M  V30 17919 C 1723.04 -3.30331 -1.44615 0
M  V30 17920 O 1722.15 -3.23337 -2.55982 0
M  V30 17921 H 1721.49 -0.63519 -0.193466 0
M  V30 17922 H 1724.02 -2.04579 0.0293527 0
M  V30 17923 H 1724.03 -3.65471 -1.8137 0
M  V30 17924 H 1722.7 -4.09132 -0.747256 0
M  V30 17925 H 1721.28 -2.99845 -2.21692 0
M  V30 17926 N 1723.46 0.290824 -1.54893 0
M  V30 17927 C 1724.43 1.34215 -1.85793 0
M  V30 17928 C 1725.43 1.43204 -0.731393 0
M  V30 17929 O 1726.62 1.42663 -0.999647 0
M  V30 17930 C 1723.75 2.72577 -2.0473 0
M  V30 17931 H 1724.94 1.08056 -2.79757 0
M  V30 17932 H 1722.5 0.528008 -1.47111 0
M  V30 17933 H 1723.23 3.03943 -1.13088 0
M  V30 17934 H 1723.02 2.67442 -2.86736 0
M  V30 17935 H 1724.51 3.48573 -2.29971 0
M  V30 17936 N 1724.94 1.47523 0.554506 0
M  V30 17937 C 1726.35 1.48114 1.13662 0
M  V30 17938 C 1726.7 0.237321 1.94759 0
M  V30 17939 O 1725.83 -0.657558 2.06168 0
M  V30 17940 C 1726.42 2.68366 2.06797 0
M  V30 17941 C 1724.98 2.71908 2.60274 0
M  V30 17942 C 1724.13 2.41258 1.3671 0
M  V30 17943 H 1727.08 1.54994 0.34097 0
M  V30 17944 H 1727.1 2.4549 2.90714 0
M  V30 17945 H 1726.61 3.58877 1.47745 0
M  V30 17946 H 1724.72 1.85543 3.23117 0
M  V30 17947 H 1724.83 3.72673 3.01084 0
M  V30 17948 H 1723.19 1.91897 1.67474 0
M  V30 17949 H 1723.98 3.3398 0.794476 0
M  V30 17950 N 1726.42 -0.801453 1.357 0
M  V30 17951 C 1727.65 -1.59518 1.32547 0
M  V30 17952 C 1728.07 -1.87868 -0.0934243 0
M  V30 17953 O 1727.43 -1.46955 -1.06179 0
M  V30 17954 C 1727.48 -2.90028 2.14281 0
M  V30 17955 O 1726.58 -3.83086 1.52704 0
M  V30 17956 H 1725.92 -0.48434 0.454215 0
M  V30 17957 H 1728.45 -0.994315 1.78814 0
M  V30 17958 H 1728.46 -3.39406 2.26423 0
M  V30 17959 H 1727.14 -2.6872 3.17431 0
M  V30 17960 H 1725.71 -3.4165 1.49432 0
M  V30 17961 N 1727.9 -1.19782 -1.02421 0
M  V30 17962 C 1728.83 -0.897544 -2.10895 0
M  V30 17963 C 1729.84 0.111644 -1.62417 0
M  V30 17964 O 1731.03 -0.118381 -1.78107 0
M  V30 17965 C 1728.13 -0.322714 -3.3736 0
M  V30 17966 C 1727.31 -1.38159 -4.15007 0
M  V30 17967 C 1726.36 -0.819462 -5.1978 0
M  V30 17968 O 1725.39 -1.4983 -5.49126 0
M  V30 17969 N 1726.59 0.374925 -5.79288 0
M  V30 17970 H 1729.36 -1.83127 -2.37243 0
M  V30 17971 H 1726.92 -1.10045 -1.1875 0
M  V30 17972 H 1728.91 0.0673046 -4.04644 0
M  V30 17973 H 1727.48 0.5154 -3.08322 0
M  V30 17974 H 1726.7 -1.94627 -3.42803 0
M  V30 17975 H 1727.99 -2.09496 -4.63669 0
M  V30 17976 H 1727.39 0.943856 -5.5777 0
M  V30 17977 H 1725.94 0.706668 -6.47958 0
M  V30 17978 N 1729.38 1.21606 -1.00248 0
M  V30 17979 C 1730.6 1.95149 -0.702249 0
M  V30 17980 C 1731.03 1.73429 0.728293 0
M  V30 17981 O 1730.39 1.01953 1.49917 0
M  V30 17982 C 1730.43 3.45705 -1.0257 0
M  V30 17983 O 1729.54 4.12196 -0.129575 0
M  V30 17984 H 1728.88 0.610173 -0.261888 0
M  V30 17985 H 1731.41 1.54435 -1.34205 0
M  V30 17986 H 1731.42 3.96265 -0.97151 0
M  V30 17987 H 1730.09 3.60838 -2.06806 0
M  V30 17988 H 1728.67 3.72126 -0.240074 0
M  V30 17989 N 1730.86 0.776895 1.37121 0
M  V30 17990 C 1732.13 0.268067 1.93754 0
M  V30 17991 C 1732.51 -1.23774 1.71007 0
M  V30 17992 O 1731.86 -2.02331 1.0618 0
M  V30 17993 C 1732.07 0.647054 3.42949 0
M  V30 17994 C 1733.42 0.619737 4.20053 0
M  V30 17995 O 1734.44 0.586757 3.51334 0
M  V30 17996 O 1733.3 0.651412 5.42604 0
M  V30 17997 H 1730.4 0.0631883 0.824582 0
M  V30 17998 H 1732.94 0.858594 1.46377 0
M  V30 17999 H 1731.71 1.68608 3.5311 0
M  V30 18000 H 1731.34 0.0297448 3.97589 0
M  V30 18001 N 1732.33 -1.48497 0.527859 0
M  V30 18002 C 1733.27 -2.27566 -0.273157 0
M  V30 18003 C 1734.28 -1.35235 -0.906381 0
M  V30 18004 O 1735.47 -1.60303 -0.785182 0
M  V30 18005 C 1732.57 -3.08546 -1.40187 0
M  V30 18006 C 1731.74 -4.28641 -0.870962 0
M  V30 18007 C 1730.8 -4.91449 -1.88054 0
M  V30 18008 O 1729.83 -5.50727 -1.43833 0
M  V30 18009 N 1731.03 -4.83501 -3.21259 0
M  V30 18010 H 1733.79 -2.96951 0.404963 0
M  V30 18011 H 1731.35 -1.578 0.362057 0
M  V30 18012 H 1733.35 -3.47434 -2.07537 0
M  V30 18013 H 1731.92 -2.41596 -1.98369 0
M  V30 18014 H 1731.14 -3.94194 -0.0215331 0
M  V30 18015 H 1732.42 -5.06385 -0.495105 0
M  V30 18016 H 1731.82 -4.36487 -3.59855 0
M  V30 18017 H 1730.38 -5.26495 -3.84248 0
M  V30 18018 N 1733.81 -0.262893 -1.55392 0
M  V30 18019 C 1734.72 0.640223 -2.25695 0
M  V30 18020 C 1735.74 1.18019 -1.27857 0
M  V30 18021 O 1736.91 1.21308 -1.60768 0
M  V30 18022 C 1733.98 1.81336 -2.95497 0
M  V30 18023 C 1733.04 1.31128 -4.08784 0
M  V30 18024 C 1732.27 2.4285 -4.75247 0
M  V30 18025 O 1732.5 3.61939 -4.40859 0
M  V30 18026 O 1731.43 2.11699 -5.63442 0
M  V30 18027 H 1735.26 0.0710781 -3.03617 0
M  V30 18028 H 1732.84 -0.030765 -1.49368 0
M  V30 18029 H 1734.72 2.49764 -3.39406 0
M  V30 18030 H 1733.4 2.36982 -2.20502 0
M  V30 18031 H 1732.3 0.593816 -3.69357 0
M  V30 18032 H 1733.64 0.800711 -4.85643 0
M  V30 18033 N 1735.29 1.57597 0.0100073 0
M  V30 18034 C 1736.22 2.04622 1.0326 0
M  V30 18035 C 1737.23 0.962343 1.31312 0
M  V30 18036 O 1738.42 1.23933 1.28464 0
M  V30 18037 C 1735.52 2.42271 2.36976 0
M  V30 18038 C 1734.7 3.73271 2.28008 0
M  V30 18039 C 1733.76 3.97899 3.4433 0
M  V30 18040 O 1732.78 4.68702 3.22966 0
M  V30 18041 N 1733.98 3.45015 4.66846 0
M  V30 18042 H 1736.75 2.92968 0.63164 0
M  V30 18043 H 1734.31 1.6069 0.197591 0
M  V30 18044 H 1736.3 2.55869 3.13549 0
M  V30 18045 H 1734.87 1.59496 2.68849 0
M  V30 18046 H 1734.09 3.69846 1.3641 0
M  V30 18047 H 1735.38 4.59172 2.19178 0
M  V30 18048 H 1734.78 2.87661 4.87101 0
M  V30 18049 H 1733.33 3.6396 5.40718 0
M  V30 18050 N 1736.77 -0.282606 1.55045 0
M  V30 18051 C 1737.7 -1.35347 1.90272 0
M  V30 18052 C 1738.68 -1.52001 0.763532 0
M  V30 18053 O 1739.86 -1.65204 1.02085 0
M  V30 18054 C 1736.99 -2.71464 2.16621 0
M  V30 18055 C 1735.95 -2.69554 3.32453 0
M  V30 18056 C 1735.27 -4.09132 3.4426 0
M  V30 18057 C 1736.57 -2.29669 4.69094 0
M  V30 18058 H 1738.27 -1.06113 2.79965 0
M  V30 18059 H 1735.81 -0.509018 1.34703 0
M  V30 18060 H 1737.77 -3.46482 2.39851 0
M  V30 18061 H 1736.49 -3.02261 1.23717 0
M  V30 18062 H 1735.15 -1.96993 3.09175 0
M  V30 18063 H 1734.8 -4.37136 2.4884 0
M  V30 18064 H 1734.5 -4.08751 4.22133 0
M  V30 18065 H 1736.02 -4.85903 3.69771 0
M  V30 18066 H 1737.44 -2.94407 4.91932 0
M  V30 18067 H 1735.83 -2.40467 5.49814 0
M  V30 18068 H 1736.9 -1.24796 4.68566 0
M  V30 18069 N 1738.25 -1.47815 -0.546675 0
M  V30 18070 C 1739.49 -1.5498 -1.30336 0
M  V30 18071 C 1739.82 -0.216533 -1.93291 0
M  V30 18072 O 1739.08 0.791622 -1.78974 0
M  V30 18073 C 1739.37 -2.6242 -2.42632 0
M  V30 18074 C 1739.04 -4.05375 -1.97439 0
M  V30 18075 C 1737.7 -4.44287 -1.84831 0
M  V30 18076 C 1740.05 -4.9503 -1.6308 0
M  V30 18077 C 1737.38 -5.70678 -1.36174 0
M  V30 18078 C 1739.73 -6.21894 -1.1589 0
M  V30 18079 C 1738.4 -6.59678 -1.01886 0
M  V30 18080 H 1737.67 -0.567112 -0.476933 0
M  V30 18081 H 1740.32 -1.81461 -0.611907 0
M  V30 18082 H 1738.62 -2.29736 -3.17378 0
M  V30 18083 H 1740.32 -2.65184 -3.00796 0
M  V30 18084 H 1736.91 -3.74635 -2.08199 0
M  V30 18085 H 1741.09 -4.65657 -1.71689 0
M  V30 18086 H 1736.35 -5.98693 -1.24004 0
M  V30 18087 H 1740.52 -6.9077 -0.883691 0
M  V30 18088 H 1738.15 -7.57504 -0.639614 0
M  V30 18089 N 1739.72 0.794246 -1.36123 0
M  V30 18090 C 1740.95 1.58813 -1.33391 0
M  V30 18091 C 1741.37 1.87915 0.0834599 0
M  V30 18092 O 1740.73 1.47516 1.05398 0
M  V30 18093 C 1740.78 2.88887 -2.15816 0
M  V30 18094 O 1739.88 3.82271 -1.54734 0
M  V30 18095 H 1739.22 0.481924 -0.456777 0
M  V30 18096 H 1741.75 0.984818 -1.79339 0
M  V30 18097 H 1741.76 3.38201 -2.2822 0
M  V30 18098 H 1740.44 2.67032 -3.18852 0
M  V30 18099 H 1739.02 3.40852 -1.51242 0
M  V30 18100 N 1741.2 1.20323 1.01785 0
M  V30 18101 C 1742.15 0.947754 2.12416 0
M  V30 18102 C 1743.14 -0.100443 1.69102 0
M  V30 18103 O 1744.35 0.0498028 1.79931 0
M  V30 18104 H 1740.72 0.289148 0.694188 0
M  V30 18105 H 1742.7 1.88714 2.31149 0
M  V30 18106 C 1741.44 0.51503 3.43864 0
M  V30 18107 H 1740.77 1.31318 3.77618 0
M  V30 18108 H 1742.21 0.375476 4.22334 0
M  V30 18109 C 1740.67 -0.772413 3.27926 0
M  V30 18110 O 1741.2 -1.83115 3.57536 0
M  V30 18111 N 1739.4 -0.733948 2.81179 0
M  V30 18112 H 1738.95 0.127902 2.57282 0
M  V30 18113 H 1738.91 -1.59571 2.70896 0
M  V30 18114 N 1742.68 -1.21073 1.00892 0
M  V30 18115 C 1743.93 -1.90524 0.694879 0
M  V30 18116 C 1744.26 -1.78161 -0.772802 0
M  V30 18117 O 1743.53 -1.1608 -1.56063 0
M  V30 18118 C 1743.82 -3.42188 1.12156 0
M  V30 18119 C 1743.67 -3.63523 2.64898 0
M  V30 18120 C 1744.99 -4.34706 0.68694 0
M  V30 18121 H 1742.11 -0.69188 0.253912 0
M  V30 18122 H 1744.75 -1.42626 1.2553 0
M  V30 18123 H 1742.9 -3.83113 0.644742 0
M  V30 18124 H 1744.57 -3.31901 3.20374 0
M  V30 18125 H 1742.81 -3.07255 3.0623 0
M  V30 18126 H 1743.49 -4.69805 2.89806 0
M  V30 18127 H 1745.96 -4.01386 1.09674 0
M  V30 18128 H 1744.84 -5.3946 1.01361 0
M  V30 18129 H 1745.1 -4.40178 -0.411757 0
M  V30 18130 N 1744.16 -0.784156 -1.36707 0
M  V30 18131 C 1745.09 -0.136944 -2.28791 0
M  V30 18132 C 1746.1 0.65075 -1.49228 0
M  V30 18133 O 1747.29 0.486799 -1.71734 0
M  V30 18134 C 1744.39 0.829306 -3.28597 0
M  V30 18135 C 1743.57 0.09279 -4.37302 0
M  V30 18136 C 1742.62 0.974213 -5.17103 0
M  V30 18137 O 1741.65 0.433399 -5.67548 0
M  V30 18138 N 1742.85 2.29909 -5.33031 0
M  V30 18139 H 1745.62 -0.927906 -2.84974 0
M  V30 18140 H 1743.18 -0.637596 -1.48816 0
M  V30 18141 H 1745.17 1.42268 -3.78869 0
M  V30 18142 H 1743.74 1.52117 -2.73092 0
M  V30 18143 H 1742.96 -0.681615 -3.88262 0
M  V30 18144 H 1744.25 -0.415655 -5.07099 0
M  V30 18145 H 1743.65 2.76268 -4.93652 0
M  V30 18146 H 1742.2 2.84224 -5.86566 0
M  V30 18147 N 1745.64 1.48215 -0.535727 0
M  V30 18148 C 1746.87 2.06598 -0.00793498 0
M  V30 18149 C 1747.27 1.39186 1.28155 0
M  V30 18150 O 1746.62 0.475163 1.77448 0
M  V30 18151 C 1746.68 3.58402 0.280696 0
M  V30 18152 C 1746.34 4.47723 -0.916162 0
M  V30 18153 C 1747.34 4.87149 -1.81609 0
M  V30 18154 C 1745.03 4.89545 -1.12478 0
M  V30 18155 C 1747.02 5.67173 -2.9085 0
M  V30 18156 C 1744.71 5.69337 -2.22032 0
M  V30 18157 C 1745.7 6.0806 -3.1105 0
M  V30 18158 O 1745.39 6.8625 -4.18707 0
M  V30 18159 H 1745.12 0.675194 -0.0330032 0
M  V30 18160 H 1747.68 1.91512 -0.742453 0
M  V30 18161 H 1745.91 3.71623 1.06926 0
M  V30 18162 H 1747.6 3.98887 0.751264 0
M  V30 18163 H 1748.36 4.55456 -1.66688 0
M  V30 18164 H 1744.24 4.58884 -0.44115 0
M  V30 18165 H 1747.79 5.97316 -3.6036 0
M  V30 18166 H 1743.68 6.00444 -2.36934 0
M  V30 18167 H 1744.45 7.04613 -4.16488 0
M  V30 18168 N 1747.11 0.27113 1.5525 0
M  V30 18169 C 1748.36 -0.346791 1.99508 0
M  V30 18170 C 1748.69 -1.56159 1.15951 0
M  V30 18171 O 1747.94 -1.94502 0.216185 0
M  V30 18172 C 1748.24 -0.776823 3.48856 0
M  V30 18173 C 1747.91 0.332899 4.49669 0
M  V30 18174 C 1746.57 0.63762 4.76957 0
M  V30 18175 C 1748.92 1.08087 5.09869 0
M  V30 18176 C 1746.25 1.69396 5.61713 0
M  V30 18177 C 1748.6 2.12691 5.95773 0
M  V30 18178 C 1747.27 2.43802 6.21383 0
M  V30 18179 H 1746.54 -0.1269 0.730053 0
M  V30 18180 H 1749.18 0.384012 1.8761 0
M  V30 18181 H 1747.49 -1.58723 3.5821 0
M  V30 18182 H 1749.19 -1.26561 3.80504 0
M  V30 18183 H 1745.78 0.0852733 4.28515 0
M  V30 18184 H 1749.96 0.858708 4.88815 0
M  V30 18185 H 1745.22 1.94007 5.79803 0
M  V30 18186 H 1749.39 2.71125 6.41455 0
M  V30 18187 H 1747.02 3.2579 6.86851 0
M  V30 18188 N 1748.59 -1.576 -0.00164943 0
M  V30 18189 C 1749.56 -2.07267 -0.978423 0
M  V30 18190 C 1750.56 -0.981758 -1.27351 0
M  V30 18191 O 1751.75 -1.24446 -1.21896 0
M  V30 18192 C 1748.88 -2.51273 -2.30379 0
M  V30 18193 H 1750.07 -2.94835 -0.548845 0
M  V30 18194 H 1747.62 -1.54302 -0.249086 0
M  V30 18195 H 1748.36 -1.66943 -2.7803 0
M  V30 18196 H 1748.14 -3.30943 -2.10283 0
M  V30 18197 H 1749.63 -2.90031 -3.00453 0
M  V30 18198 N 1750.07 0.274379 -1.55193 0
M  V30 18199 C 1751.02 1.34139 -1.84366 0
M  V30 18200 C 1752 1.44755 -0.702475 0
M  V30 18201 O 1753.2 1.48459 -0.963785 0
M  V30 18202 C 1750.33 2.7019 -2.11784 0
M  V30 18203 C 1749.41 2.63689 -3.32158 0
M  V30 18204 N 1749.8 2.26808 -4.52097 0
M  V30 18205 C 1748.1 2.94752 -3.34719 0
M  V30 18206 C 1748.8 2.30264 -5.34185 0
M  V30 18207 N 1747.78 2.68683 -4.72557 0
M  V30 18208 H 1751.58 1.0463 -2.74645 0
M  V30 18209 H 1749.09 0.483012 -1.55051 0
M  V30 18210 H 1751.09 3.47158 -2.30839 0
M  V30 18211 H 1749.75 3.00588 -1.22788 0
M  V30 18212 H 1750.76 1.98809 -4.78221 0
M  V30 18213 H 1747.44 3.29871 -2.55912 0
M  V30 18214 H 1748.83 2.04323 -6.4008 0
M  V30 18215 N 1751.55 1.48103 0.538828 0
M  V30 18216 C 1752.78 1.59085 1.31816 0
M  V30 18217 C 1753.19 0.246886 1.87582 0
M  V30 18218 O 1752.53 -0.772694 1.66659 0
M  V30 18219 C 1752.59 2.57102 2.51274 0
M  V30 18220 C 1752.26 4.02377 2.16661 0
M  V30 18221 C 1753.25 4.90323 1.72857 0
M  V30 18222 C 1750.94 4.4785 2.27455 0
M  V30 18223 C 1752.93 6.21767 1.40302 0
M  V30 18224 C 1750.62 5.79317 1.94512 0
M  V30 18225 C 1751.62 6.66098 1.51006 0
M  V30 18226 O 1751.3 7.9512 1.18491 0
M  V30 18227 H 1751.04 0.539404 0.407454 0
M  V30 18228 H 1753.59 1.94586 0.657678 0
M  V30 18229 H 1751.82 2.16705 3.20275 0
M  V30 18230 H 1753.51 2.58014 3.13342 0
M  V30 18231 H 1754.28 4.56432 1.63995 0
M  V30 18232 H 1750.15 3.80497 2.60275 0
M  V30 18233 H 1753.7 6.89458 1.06271 0
M  V30 18234 H 1749.6 6.12745 2.03012 0
M  V30 18235 H 1750.36 8.07792 1.31964 0
M  V30 18236 N 1753.03 -0.787016 1.36542 0
M  V30 18237 C 1754.27 -1.55817 1.3229 0
M  V30 18238 C 1754.63 -1.91759 -0.0961159 0
M  V30 18239 O 1755.83 -2.67508 -0.26322 0
M  V30 18240 C 1754.1 -2.79934 2.22198 0
M  V30 18241 S 1755.66 -3.70154 2.35651 0
M  V30 18242 H 1752.48 -0.533633 0.469847 0
M  V30 18243 H 1755.08 -0.926755 1.72138 0
M  V30 18244 H 1753.79 -2.51583 3.24244 0
M  V30 18245 H 1753.32 -3.48046 1.83378 0
M  V30 18246 H 1755.33 -4.71179 1.55579 0
M  V30 18247 N 1754.5 -1.20861 -1.01145 0
M  V30 18248 C 1755.92 -0.964575 -1.27154 0
M  V30 18249 C 1756.12 0.352861 -1.98386 0
M  V30 18250 O 1755.18 1.08012 -2.28232 0
M  V30 18251 C 1756.49 -2.15074 -2.10151 0
M  V30 18252 C 1758.04 -2.19229 -2.234 0
M  V30 18253 C 1758.51 -3.37346 -3.09777 0
M  V30 18254 N 1760 -3.37392 -3.17365 0
M  V30 18255 C 1760.74 -4.25434 -3.84439 0
M  V30 18256 N 1760.23 -5.23664 -4.53595 0
M  V30 18257 N 1762.03 -4.13261 -3.81014 0
M  V30 18258 H 1754.18 -2.05595 -0.533346 0
M  V30 18259 H 1756.44 -0.899928 -0.298048 0
M  V30 18260 H 1756.15 -3.10511 -1.65153 0
M  V30 18261 H 1756.02 -2.13598 -3.10895 0
M  V30 18262 H 1758.41 -1.24352 -2.6762 0
M  V30 18263 H 1758.49 -2.24752 -1.22148 0
M  V30 18264 H 1758.13 -4.32513 -2.66261 0
M  V30 18265 H 1758.06 -3.29061 -4.11128 0
M  V30 18266 H 1760.55 -2.66299 -2.68129 0
M  V30 18267 H 1760.87 -5.87158 -5.02459 0
M  V30 18268 H 1759.21 -5.27595 -4.52403 0
M  V30 18269 H 1762.4 -3.35786 -3.26137 0
M  V30 18270 H 1762.58 -4.82085 -4.3301 0
M  V30 18271 N 1755.98 1.20536 -1.01532 0
M  V30 18272 C 1756.93 2.23277 -0.584486 0
M  V30 18273 C 1757.9 1.6134 0.394773 0
M  V30 18274 O 1759.08 1.88514 0.294498 0
M  V30 18275 C 1756.22 3.45024 0.0723574 0
M  V30 18276 C 1755.34 4.21395 -0.951314 0
M  V30 18277 C 1754.47 5.30535 -0.265656 0
M  V30 18278 C 1753.51 5.98649 -1.27617 0
M  V30 18279 N 1752.65 6.99381 -0.61727 0
M  V30 18280 H 1757.49 2.59489 -1.46524 0
M  V30 18281 H 1755.03 1.27507 -0.733502 0
M  V30 18282 H 1756.98 4.14541 0.470303 0
M  V30 18283 H 1755.61 3.09508 0.916768 0
M  V30 18284 H 1754.67 3.50957 -1.46743 0
M  V30 18285 H 1755.98 4.68211 -1.71989 0
M  V30 18286 H 1755.13 6.06409 0.187857 0
M  V30 18287 H 1753.87 4.84754 0.535237 0
M  V30 18288 H 1752.88 5.21537 -1.74008 0
M  V30 18289 H 1754.1 6.46516 -2.07832 0
M  V30 18290 H 1752.05 6.55796 0.163777 0
M  V30 18291 H 1751.96 7.44317 -1.32393 0
M  V30 18292 H 1753.23 7.79275 -0.187306 0
M  V30 18293 N 1757.46 0.791395 1.36289 0
M  V30 18294 C 1758.69 0.376149 2.03147 0
M  V30 18295 C 1759.1 -1.01287 1.59805 0
M  V30 18296 O 1758.44 -1.66134 0.78392 0
M  V30 18297 C 1758.5 0.362792 3.57665 0
M  V30 18298 C 1758.17 1.69972 4.24215 0
M  V30 18299 C 1759.16 2.65553 4.46965 0
M  V30 18300 C 1756.85 1.97956 4.61648 0
M  V30 18301 C 1758.84 3.87311 5.0623 0
M  V30 18302 C 1756.53 3.19981 5.2063 0
M  V30 18303 C 1757.53 4.14477 5.42861 0
M  V30 18304 O 1757.22 5.3435 6.00604 0
M  V30 18305 H 1756.95 0.152854 0.658492 0
M  V30 18306 H 1759.5 1.072 1.75206 0
M  V30 18307 H 1757.73 -0.389566 3.84733 0
M  V30 18308 H 1759.42 -0.0280568 4.0589 0
M  V30 18309 H 1760.19 2.4522 4.1844 0
M  V30 18310 H 1756.07 1.25222 4.43667 0
M  V30 18311 H 1759.61 4.61081 5.23498 0
M  V30 18312 H 1755.51 3.4019 5.48581 0
M  V30 18313 H 1756.28 5.3544 6.19069 0
M  V30 18314 N 1758.94 -1.47929 0.54358 0
M  V30 18315 C 1759.9 -2.28316 -0.201107 0
M  V30 18316 C 1760.9 -1.36165 -0.855313 0
M  V30 18317 O 1762.09 -1.58928 -0.71327 0
M  V30 18318 C 1759.22 -3.1545 -1.29245 0
M  V30 18319 H 1760.42 -2.9562 0.504848 0
M  V30 18320 H 1757.97 -1.53394 0.300011 0
M  V30 18321 H 1758.71 -2.52807 -2.03124 0
M  V30 18322 H 1758.49 -3.83251 -0.82832 0
M  V30 18323 H 1759.98 -3.76053 -1.81587 0
M  V30 18324 N 1760.42 -0.27936 -1.55104 0
M  V30 18325 C 1761.83 0.217569 -1.85428 0
M  V30 18326 C 1762.18 1.55117 -1.20138 0
M  V30 18327 O 1761.3 2.10751 -0.491229 0
M  V30 18328 C 1761.9 0.401547 -3.36412 0
M  V30 18329 C 1760.46 0.842706 -3.66845 0
M  V30 18330 C 1759.61 -0.0615565 -2.77232 0
M  V30 18331 H 1762.56 -0.501025 -1.50584 0
M  V30 18332 H 1762.58 1.23946 -3.59747 0
M  V30 18333 H 1762.09 -0.569224 -3.83903 0
M  V30 18334 H 1760.19 1.8248 -3.24857 0
M  V30 18335 H 1760.3 0.677088 -4.74291 0
M  V30 18336 H 1758.67 0.455486 -2.50594 0
M  V30 18337 H 1759.45 -1.02829 -3.27538 0
M  V30 18338 N 1761.9 1.57599 -0.0067085 0
M  V30 18339 C 1762.83 2.11878 0.981331 0
M  V30 18340 C 1763.81 1.02949 1.35408 0
M  V30 18341 O 1764.99 1.30667 1.43665 0
M  V30 18342 C 1762.12 2.62757 2.27104 0
M  V30 18343 C 1761.08 3.76272 2.0397 0
M  V30 18344 C 1760.4 4.13491 3.39012 0
M  V30 18345 C 1761.7 5.03274 1.39688 0
M  V30 18346 H 1763.4 2.94683 0.529366 0
M  V30 18347 H 1760.94 1.41757 0.253187 0
M  V30 18348 H 1762.89 2.99359 2.96585 0
M  V30 18349 H 1761.62 1.77082 2.74426 0
M  V30 18350 H 1760.28 3.40074 1.36913 0
M  V30 18351 H 1759.93 3.24831 3.8405 0
M  V30 18352 H 1759.63 4.89972 3.24347 0
M  V30 18353 H 1761.15 4.52657 4.09797 0
M  V30 18354 H 1762.56 5.37604 1.99136 0
M  V30 18355 H 1760.96 5.84604 1.3549 0
M  V30 18356 H 1762.03 4.8351 0.366928 0
M  V30 18357 N 1763.37 -0.266145 1.55336 0
M  V30 18358 C 1764.6 -1.01342 1.80037 0
M  V30 18359 C 1765.01 -1.80175 0.577368 0
M  V30 18360 O 1764.35 -1.77765 -0.46318 0
M  V30 18361 C 1764.42 -2.0141 2.97782 0
M  V30 18362 C 1764.08 -1.4145 4.34558 0
M  V30 18363 C 1765.08 -0.826689 5.13285 0
M  V30 18364 C 1762.76 -1.43964 4.81227 0
M  V30 18365 C 1764.76 -0.272004 6.36819 0
M  V30 18366 C 1762.44 -0.881101 6.04715 0
M  V30 18367 C 1763.44 -0.298287 6.82348 0
M  V30 18368 O 1763.13 0.251684 8.03506 0
M  V30 18369 H 1762.86 -0.304756 0.603407 0
M  V30 18370 H 1765.42 -0.300216 2.03194 0
M  V30 18371 H 1763.65 -2.76508 2.70334 0
M  V30 18372 H 1765.33 -2.62321 3.09746 0
M  V30 18373 H 1766.1 -0.79991 4.78358 0
M  V30 18374 H 1761.98 -1.88267 4.20805 0
M  V30 18375 H 1765.52 0.183538 6.97359 0
M  V30 18376 H 1761.42 -0.905142 6.39122 0
M  V30 18377 H 1762.19 0.1417 8.18377 0
M  V30 18378 N 1764.85 -1.48386 -0.530967 0
M  V30 18379 C 1765.81 -1.62355 -1.61782 0
M  V30 18380 C 1766.81 -0.496909 -1.5293 0
M  V30 18381 O 1768 -0.762672 -1.56617 0
M  V30 18382 C 1765.14 -1.59282 -3.014 0
M  V30 18383 H 1766.33 -2.59265 -1.50737 0
M  V30 18384 H 1763.88 -1.36969 -0.752948 0
M  V30 18385 H 1764.62 -0.638453 -3.17953 0
M  V30 18386 H 1764.4 -2.41073 -3.09235 0
M  V30 18387 H 1765.89 -1.72248 -3.80421 0
M  V30 18388 N 1766.33 0.779763 -1.36958 0
M  V30 18389 C 1767.55 1.57389 -1.35068 0
M  V30 18390 C 1767.98 1.87993 0.0635244 0
M  V30 18391 O 1767.34 1.48625 1.03828 0
M  V30 18392 C 1767.39 2.86582 -2.18868 0
M  V30 18393 O 1766.49 3.80609 -1.58779 0
M  V30 18394 H 1765.83 0.477052 -0.461863 0
M  V30 18395 H 1768.36 0.965741 -1.80373 0
M  V30 18396 H 1768.37 3.35761 -2.31794 0
M  V30 18397 H 1767.05 2.63635 -3.21666 0
M  V30 18398 H 1765.62 3.39229 -1.54848 0
M  V30 18399 N 1767.81 1.21396 1.00503 0
M  V30 18400 C 1768.72 0.989221 2.12724 0
M  V30 18401 C 1769.73 -0.0586646 1.73901 0
M  V30 18402 O 1770.91 0.131377 2.00971 0
M  V30 18403 C 1767.97 0.556731 3.42201 0
M  V30 18404 C 1767.04 1.67683 3.95197 0
M  V30 18405 C 1766.27 1.26488 5.18494 0
M  V30 18406 O 1766.49 0.13847 5.70232 0
M  V30 18407 O 1765.43 2.07678 5.64937 0
M  V30 18408 H 1769.25 1.92913 2.3456 0
M  V30 18409 H 1766.84 0.998837 1.11102 0
M  V30 18410 H 1768.72 0.325327 4.20142 0
M  V30 18411 H 1767.39 -0.354457 3.21753 0
M  V30 18412 H 1766.3 1.96263 3.18483 0
M  V30 18413 H 1767.63 2.56544 4.20055 0
M  V30 18414 N 1769.29 -1.19996 1.0217 0
M  V30 18415 C 1770.25 -2.21179 0.601036 0
M  V30 18416 C 1771.25 -1.57345 -0.331531 0
M  V30 18417 O 1772.44 -1.73789 -0.119521 0
M  V30 18418 C 1769.57 -3.40683 -0.121557 0
M  V30 18419 H 1770.76 -2.5991 1.49622 0
M  V30 18420 H 1768.32 -1.33548 0.812071 0
M  V30 18421 H 1769.05 -3.07461 -1.03142 0
M  V30 18422 H 1768.84 -3.88245 0.548448 0
M  V30 18423 H 1770.33 -4.1565 -0.403046 0
M  V30 18424 N 1770.76 -0.798611 -1.35867 0
M  V30 18425 C 1771.71 -0.201442 -2.29919 0
M  V30 18426 C 1772.68 0.659971 -1.52426 0
M  V30 18427 O 1773.87 0.606726 -1.80896 0
M  V30 18428 C 1771.01 0.650427 -3.38915 0
M  V30 18429 C 1770.12 -0.230539 -4.31384 0
M  V30 18430 C 1769.25 0.628575 -5.27468 0
M  V30 18431 C 1768.29 -0.253282 -6.11576 0
M  V30 18432 N 1767.43 0.565343 -6.9982 0
M  V30 18433 H 1772.27 -1.00892 -2.80401 0
M  V30 18434 H 1769.81 -0.509085 -1.3801 0
M  V30 18435 H 1771.76 1.15941 -4.00766 0
M  V30 18436 H 1770.39 1.42325 -2.8973 0
M  V30 18437 H 1769.45 -0.85756 -3.70608 0
M  V30 18438 H 1770.76 -0.909635 -4.90436 0
M  V30 18439 H 1769.91 1.203 -5.94653 0
M  V30 18440 H 1768.65 1.34127 -4.68894 0
M  V30 18441 H 1767.66 -0.84004 -5.43345 0
M  V30 18442 H 1768.88 -0.963713 -6.72227 0
M  V30 18443 H 1766.83 1.26216 -6.43743 0
M  V30 18444 H 1766.74 -0.0558752 -7.55979 0
M  V30 18445 H 1768.01 1.1233 -7.71364 0
M  V30 18446 N 1772.24 1.47639 -0.551417 0
M  V30 18447 C 1773.66 1.58202 -0.210768 0
M  V30 18448 C 1773.86 1.55078 1.28659 0
M  V30 18449 O 1772.91 1.45113 2.06636 0
M  V30 18450 C 1774.23 2.88952 -0.832294 0
M  V30 18451 C 1775.77 3.02524 -0.80299 0
M  V30 18452 C 1776.25 4.35966 -1.40348 0
M  V30 18453 N 1777.74 4.42587 -1.3664 0
M  V30 18454 C 1778.48 5.44391 -1.80072 0
M  V30 18455 N 1777.97 6.53037 -2.31332 0
M  V30 18456 N 1779.76 5.35401 -1.71178 0
M  V30 18457 H 1771.92 1.47912 -1.52433 0
M  V30 18458 H 1774.18 0.703607 -0.635328 0
M  V30 18459 H 1773.88 2.96958 -1.88439 0
M  V30 18460 H 1773.76 3.75824 -0.321915 0
M  V30 18461 H 1776.15 2.94119 0.240395 0
M  V30 18462 H 1776.23 2.17209 -1.35107 0
M  V30 18463 H 1775.87 4.45127 -2.4459 0
M  V30 18464 H 1775.8 5.20004 -0.830897 0
M  V30 18465 H 1778.29 3.64664 -0.991386 0
M  V30 18466 H 1778.6 7.26884 -2.62411 0
M  V30 18467 H 1776.95 6.53942 -2.35339 0
M  V30 18468 H 1780.14 4.49421 -1.30912 0
M  V30 18469 H 1780.31 6.14604 -2.05344 0
M  V30 18470 N 1773.72 0.287581 1.54954 0
M  V30 18471 C 1774.97 -0.326093 2.00161 0
M  V30 18472 C 1775.3 -1.54564 1.17574 0
M  V30 18473 O 1774.57 -1.92901 0.248859 0
M  V30 18474 C 1774.86 -0.695974 3.5331 0
M  V30 18475 C 1774.71 0.531783 4.46645 0
M  V30 18476 C 1776.03 -1.52767 4.12735 0
M  V30 18477 H 1773.15 -0.117051 0.727646 0
M  V30 18478 H 1775.79 0.39701 1.85806 0
M  V30 18479 H 1773.94 -1.31205 3.65674 0
M  V30 18480 H 1775.61 1.17032 4.46208 0
M  V30 18481 H 1773.86 1.16754 4.17793 0
M  V30 18482 H 1774.53 0.229034 5.51525 0
M  V30 18483 H 1777 -1.00724 4.03725 0
M  V30 18484 H 1775.88 -1.75527 5.20078 0
M  V30 18485 H 1776.14 -2.51267 3.63755 0
M  V30 18486 N 1775.2 -1.57593 0.0150662 0
M  V30 18487 C 1776.45 -1.91214 -0.666599 0
M  V30 18488 C 1776.77 -0.890139 -1.72936 0
M  V30 18489 O 1776.03 0.102976 -1.95429 0
M  V30 18490 C 1776.33 -3.3158 -1.33376 0
M  V30 18491 C 1775.99 -4.49098 -0.402748 0
M  V30 18492 C 1774.66 -4.80977 -0.146455 0
M  V30 18493 C 1777.01 -5.20659 0.237376 0
M  V30 18494 C 1774.34 -5.81783 0.758003 0
M  V30 18495 C 1776.69 -6.22429 1.1298 0
M  V30 18496 C 1775.35 -6.52758 1.39513 0
M  V30 18497 H 1774.62 -0.699701 -0.243926 0
M  V30 18498 H 1777.27 -1.91358 0.073824 0
M  V30 18499 H 1775.57 -3.27632 -2.1486 0
M  V30 18500 H 1777.27 -3.54859 -1.86751 0
M  V30 18501 H 1773.86 -4.24198 -0.612678 0
M  V30 18502 H 1778.04 -4.96272 0.052408 0
M  V30 18503 H 1773.3 -6.03634 0.971415 0
M  V30 18504 H 1777.47 -6.77005 1.63208 0
M  V30 18505 H 1775.1 -7.30687 2.09764 0
M  V30 18506 N 1776.68 0.257904 -1.55475 0
M  V30 18507 C 1777.9 1.00955 -1.81171 0
M  V30 18508 C 1778.33 1.78586 -0.590651 0
M  V30 18509 O 1777.68 1.75365 0.460105 0
M  V30 18510 C 1777.73 1.93188 -3.04485 0
M  V30 18511 O 1776.84 3.02194 -2.80628 0
M  V30 18512 H 1776.18 0.28785 -0.598363 0
M  V30 18513 H 1778.71 0.28223 -2.02644 0
M  V30 18514 H 1778.72 2.3486 -3.33624 0
M  V30 18515 H 1777.39 1.361 -3.93001 0
M  V30 18516 H 1775.97 2.64729 -2.62627 0
M  V30 18517 N 1778.15 1.48666 0.52309 0
M  V30 18518 C 1779.08 1.666 1.63605 0
M  V30 18519 C 1780.07 0.514803 1.62123 0
M  V30 18520 O 1781.25 0.748138 1.79211 0
M  V30 18521 C 1778.38 1.71199 3.02172 0
M  V30 18522 C 1777.33 2.85888 3.18515 0
M  V30 18523 C 1776.66 2.75582 4.58213 0
M  V30 18524 C 1777.96 4.27104 3.00631 0
M  V30 18525 H 1779.65 2.59776 1.48851 0
M  V30 18526 H 1777.2 1.25014 0.714667 0
M  V30 18527 H 1779.15 1.82333 3.79911 0
M  V30 18528 H 1777.88 0.746066 3.17964 0
M  V30 18529 H 1776.54 2.7432 2.43195 0
M  V30 18530 H 1776.18 1.76944 4.7085 0
M  V30 18531 H 1775.88 3.52545 4.70091 0
M  V30 18532 H 1777.41 2.88693 5.38041 0
M  V30 18533 H 1778.82 4.3947 3.68157 0
M  V30 18534 H 1777.22 5.05119 3.23999 0
M  V30 18535 H 1778.29 4.43087 1.96982 0
M  V30 18536 N 1779.63 -0.772489 1.37369 0
M  V30 18537 C 1780.54 -1.91679 1.35263 0
M  V30 18538 C 1781.56 -1.72161 0.252321 0
M  V30 18539 O 1782.73 -1.95409 0.487581 0
M  V30 18540 C 1779.8 -3.26792 1.15792 0
M  V30 18541 C 1778.86 -3.5897 2.35455 0
M  V30 18542 C 1778.09 -4.87636 2.16903 0
M  V30 18543 O 1778.32 -5.58627 1.15291 0
M  V30 18544 O 1777.25 -5.18859 3.05072 0
M  V30 18545 H 1781.08 -1.96408 2.31641 0
M  V30 18546 H 1778.66 -0.915136 1.18092 0
M  V30 18547 H 1780.54 -4.07611 1.06918 0
M  V30 18548 H 1779.22 -3.22918 0.224872 0
M  V30 18549 H 1778.13 -2.78389 2.49901 0
M  V30 18550 H 1779.46 -3.67586 3.27325 0
M  V30 18551 N 1781.11 -1.21927 -0.998575 0
M  V30 18552 C 1782.06 -0.984283 -2.08759 0
M  V30 18553 C 1783.03 0.0920029 -1.65845 0
M  V30 18554 O 1784.21 -0.0564334 -1.90717 0
M  V30 18555 C 1781.35 -0.562006 -3.40493 0
M  V30 18556 C 1780.47 -1.70844 -3.96783 0
M  V30 18557 C 1779.6 -1.2347 -5.16651 0
M  V30 18558 C 1778.64 -2.35305 -5.65065 0
M  V30 18559 N 1777.78 -1.89018 -6.76178 0
M  V30 18560 H 1782.62 -1.91653 -2.28195 0
M  V30 18561 H 1780.15 -0.955028 -1.11882 0
M  V30 18562 H 1782.11 -0.298383 -4.16132 0
M  V30 18563 H 1780.74 0.33324 -3.21075 0
M  V30 18564 H 1779.79 -2.08653 -3.18069 0
M  V30 18565 H 1781.11 -2.54987 -4.28699 0
M  V30 18566 H 1780.26 -0.928121 -5.99559 0
M  V30 18567 H 1779 -0.363397 -4.86344 0
M  V30 18568 H 1778 -2.66758 -4.8075 0
M  V30 18569 H 1779.23 -3.22941 -5.97399 0
M  V30 18570 H 1777.17 -1.04242 -6.47665 0
M  V30 18571 H 1777.09 -2.66731 -7.07383 0
M  V30 18572 H 1778.36 -1.61413 -7.62605 0
M  V30 18573 N 1782.59 1.19452 -1.02805 0
M  V30 18574 C 1783.54 2.22644 -0.608134 0
M  V30 18575 C 1784.51 1.6175 0.377639 0
M  V30 18576 O 1785.69 1.88815 0.274487 0
M  V30 18577 C 1782.83 3.45081 0.0357589 0
M  V30 18578 C 1781.94 4.20363 -0.995955 0
M  V30 18579 C 1781.08 5.30224 -0.321911 0
M  V30 18580 C 1780.12 5.97261 -1.33959 0
M  V30 18581 N 1779.25 6.98687 -0.691414 0
M  V30 18582 H 1784.09 2.57921 -1.49268 0
M  V30 18583 H 1781.63 1.26722 -0.746985 0
M  V30 18584 H 1783.59 4.15016 0.426309 0
M  V30 18585 H 1782.22 3.10463 0.883889 0
M  V30 18586 H 1781.27 3.49381 -1.50457 0
M  V30 18587 H 1782.58 4.6636 -1.76945 0
M  V30 18588 H 1781.74 6.06574 0.123528 0
M  V30 18589 H 1780.48 4.85294 0.483792 0
M  V30 18590 H 1779.48 5.19662 -1.7953 0
M  V30 18591 H 1780.71 6.44275 -2.14678 0
M  V30 18592 H 1778.65 6.55932 0.0942121 0
M  V30 18593 H 1778.57 7.42871 -1.40281 0
M  V30 18594 H 1779.84 7.79032 -0.269948 0
M  V30 18595 N 1784.07 0.805805 1.35442 0
M  V30 18596 C 1785 0.16119 2.2763 0
M  V30 18597 C 1785.98 -0.672367 1.48047 0
M  V30 18598 O 1787.16 -0.639817 1.77309 0
M  V30 18599 C 1784.29 -0.776465 3.2968 0
M  V30 18600 C 1783.33 -0.022629 4.26494 0
M  V30 18601 S 1784.17 1.31288 5.19157 0
M  V30 18602 C 1785.32 0.379652 6.24748 0
M  V30 18603 H 1785.56 0.942806 2.81955 0
M  V30 18604 H 1783.09 0.600827 1.4223 0
M  V30 18605 H 1785.05 -1.31195 3.88971 0
M  V30 18606 H 1783.71 -1.53146 2.74235 0
M  V30 18607 H 1782.9 -0.734753 4.98615 0
M  V30 18608 H 1782.5 0.442875 3.71369 0
M  V30 18609 H 1784.8 -0.435371 6.761 0
M  V30 18610 H 1785.74 1.07003 6.99969 0
M  V30 18611 H 1786.15 -0.024306 5.64495 0
M  V30 18612 N 1785.54 -1.47344 0.559239 0
M  V30 18613 C 1786.77 -2.07364 0.0388864 0
M  V30 18614 C 1787.19 -1.40886 -1.2463 0
M  V30 18615 O 1786.55 -0.48454 -1.74705 0
M  V30 18616 C 1786.6 -3.60336 -0.137894 0
M  V30 18617 O 1785.7 -3.94555 -1.2 0
M  V30 18618 H 1785.05 -0.661942 0.0522363 0
M  V30 18619 H 1787.58 -1.89333 0.7755 0
M  V30 18620 H 1787.59 -4.06483 -0.351462 0
M  V30 18621 H 1786.26 -4.08118 0.800776 0
M  V30 18622 H 1784.84 -3.6015 -0.966757 0
M  V30 18623 N 1787.02 -0.295795 -1.54799 0
M  V30 18624 C 1787.97 0.598403 -2.24771 0
M  V30 18625 C 1788.96 1.14123 -1.25189 0
M  V30 18626 O 1790.17 1.09248 -1.43056 0
M  V30 18627 H 1786.55 0.21157 -0.721625 0
M  V30 18628 H 1788.52 -0.0143437 -2.98397 0
M  V30 18629 C 1787.27 1.76132 -2.99788 0
M  V30 18630 H 1786.59 1.35284 -3.76216 0
M  V30 18631 H 1788.03 2.36317 -3.52037 0
M  V30 18632 C 1786.49 2.6623 -2.06453 0
M  V30 18633 O 1787.02 3.67179 -1.62918 0
M  V30 18634 N 1785.22 2.3385 -1.72518 0
M  V30 18635 H 1784.77 1.51804 -2.08119 0
M  V30 18636 H 1784.73 2.944 -1.10344 0
M  V30 18637 N 1788.5 1.57583 -0.0234236 0
M  V30 18638 C 1789.73 1.95577 0.66583 0
M  V30 18639 C 1790.14 0.898193 1.66521 0
M  V30 18640 O 1789.48 -0.129109 1.83246 0
M  V30 18641 C 1789.54 3.29685 1.43345 0
M  V30 18642 C 1789.21 4.53136 0.593048 0
M  V30 18643 C 1790.21 5.19739 -0.129251 0
M  V30 18644 C 1787.89 4.99473 0.532125 0
M  V30 18645 C 1789.88 6.30997 -0.901206 0
M  V30 18646 C 1787.57 6.10615 -0.24354 0
M  V30 18647 C 1788.57 6.76235 -0.958917 0
M  V30 18648 O 1788.26 7.85243 -1.72188 0
M  V30 18649 H 1787.99 0.649084 0.188853 0
M  V30 18650 H 1790.54 2.05253 -0.0777525 0
M  V30 18651 H 1788.77 3.16484 2.22205 0
M  V30 18652 H 1790.46 3.52623 2.01027 0
M  V30 18653 H 1791.23 4.84914 -0.0914812 0
M  V30 18654 H 1787.11 4.48207 1.0785 0
M  V30 18655 H 1790.65 6.82149 -1.46011 0
M  V30 18656 H 1786.55 6.44879 -0.283046 0
M  V30 18657 H 1787.32 8.0188 -1.64105 0
M  V30 18658 N 1789.98 -0.249655 1.5561 0
M  V30 18659 C 1791.23 -0.975982 1.76515 0
M  V30 18660 C 1791.54 -1.86589 0.586843 0
M  V30 18661 O 1792.75 -2.62876 0.678844 0
M  V30 18662 C 1791.2 -1.7854 3.12492 0
M  V30 18663 C 1790.81 -0.943014 4.37963 0
M  V30 18664 C 1792.56 -2.50462 3.42737 0
M  V30 18665 C 1790.46 -1.74816 5.64972 0
M  V30 18666 H 1789.39 -0.368139 0.65802 0
M  V30 18667 H 1792.04 -0.230745 1.82043 0
M  V30 18668 H 1790.43 -2.57248 3.01064 0
M  V30 18669 H 1791.6 -0.198453 4.60372 0
M  V30 18670 H 1789.91 -0.337249 4.15032 0
M  V30 18671 H 1792.51 -3.1115 4.34845 0
M  V30 18672 H 1792.85 -3.21938 2.63935 0
M  V30 18673 H 1793.39 -1.78767 3.55369 0
M  V30 18674 H 1790.13 -1.07719 6.46589 0
M  V30 18675 H 1789.65 -2.46807 5.46668 0
M  V30 18676 H 1791.33 -2.31599 6.04128 0
M  V30 18677 N 1791.46 -1.48941 -0.515198 0
M  V30 18678 C 1792.39 -1.60665 -1.63461 0
M  V30 18679 C 1793.4 -0.490076 -1.55248 0
M  V30 18680 O 1794.59 -0.761549 -1.61439 0
M  V30 18681 C 1791.69 -1.53414 -3.02187 0
M  V30 18682 C 1790.86 -2.80364 -3.3573 0
M  V30 18683 C 1789.92 -2.66362 -4.53804 0
M  V30 18684 O 1788.95 -3.40276 -4.5629 0
M  V30 18685 N 1790.15 -1.76961 -5.5287 0
M  V30 18686 H 1792.92 -2.57206 -1.53836 0
M  V30 18687 H 1790.48 -1.45851 -0.702786 0
M  V30 18688 H 1792.47 -1.41721 -3.79074 0
M  V30 18689 H 1791.04 -0.647891 -3.05812 0
M  V30 18690 H 1790.26 -3.06513 -2.47878 0
M  V30 18691 H 1791.55 -3.64555 -3.54932 0
M  V30 18692 H 1790.95 -1.16139 -5.5365 0
M  V30 18693 H 1789.5 -1.71198 -6.28915 0
M  V30 18694 N 1792.94 0.765193 -1.37777 0
M  V30 18695 C 1794.18 1.52397 -1.33347 0
M  V30 18696 C 1794.51 1.94335 0.0800559 0
M  V30 18697 O 1793.77 1.64847 1.05469 0
M  V30 18698 C 1794.06 2.79732 -2.22452 0
M  V30 18699 C 1793.73 2.56814 -3.70618 0
M  V30 18700 C 1792.39 2.50272 -4.10996 0
M  V30 18701 C 1794.74 2.36494 -4.64457 0
M  V30 18702 C 1792.07 2.2141 -5.43318 0
M  V30 18703 C 1794.42 2.09155 -5.97024 0
M  V30 18704 C 1793.09 2.01062 -6.36499 0
M  V30 18705 H 1792.36 0.55766 -0.487951 0
M  V30 18706 H 1795.01 0.880853 -1.70039 0
M  V30 18707 H 1793.31 3.48635 -1.78777 0
M  V30 18708 H 1795.01 3.37639 -2.16335 0
M  V30 18709 H 1791.6 2.62771 -3.38599 0
M  V30 18710 H 1795.78 2.40534 -4.34117 0
M  V30 18711 H 1791.04 2.13644 -5.72858 0
M  V30 18712 H 1795.21 1.92433 -6.69285 0
M  V30 18713 H 1792.84 1.78462 -7.38956 0
M  V30 18714 N 1794.41 1.22455 0.992094 0
M  V30 18715 C 1795.36 0.99534 2.08235 0
M  V30 18716 C 1796.33 -0.0832064 1.65891 0
M  V30 18717 O 1797.52 0.0665468 1.90684 0
M  V30 18718 C 1794.66 0.580055 3.4019 0
M  V30 18719 C 1793.77 1.72946 3.95871 0
M  V30 18720 C 1792.9 1.26208 5.15989 0
M  V30 18721 C 1791.94 2.38298 5.63809 0
M  V30 18722 N 1791.08 1.92602 6.75166 0
M  V30 18723 H 1795.92 1.92861 2.27175 0
M  V30 18724 H 1793.46 0.960948 1.11374 0
M  V30 18725 H 1795.41 0.320448 4.15968 0
M  V30 18726 H 1794.04 -0.316208 3.21248 0
M  V30 18727 H 1793.1 2.10337 3.16958 0
M  V30 18728 H 1794.41 2.57257 4.27341 0
M  V30 18729 H 1793.56 0.959904 5.99058 0
M  V30 18730 H 1792.3 0.389184 4.86145 0
M  V30 18731 H 1791.31 2.69304 4.79328 0
M  V30 18732 H 1792.53 3.26105 5.95678 0
M  V30 18733 H 1790.48 1.07675 6.47103 0
M  V30 18734 H 1790.39 2.70478 7.05959 0
M  V30 18735 H 1791.66 1.65455 7.61738 0
M  V30 18736 N 1795.89 -1.18905 1.03437 0
M  V30 18737 C 1797.12 -1.93219 0.753743 0
M  V30 18738 C 1797.54 -1.75299 -0.682055 0
M  V30 18739 O 1796.9 -1.05892 -1.47161 0
M  V30 18740 C 1796.95 -3.42864 1.117 0
M  V30 18741 O 1796.05 -4.11708 0.238816 0
M  V30 18742 H 1795.39 -0.603015 0.277973 0
M  V30 18743 H 1797.92 -1.50823 1.38252 0
M  V30 18744 H 1797.93 -3.9355 1.07623 0
M  V30 18745 H 1796.61 -3.55228 2.163 0
M  V30 18746 H 1795.18 -3.71359 0.338652 0
M  V30 18747 N 1797.37 -0.812977 -1.35013 0
M  V30 18748 C 1798.32 -0.225816 -2.29693 0
M  V30 18749 C 1799.29 0.643767 -1.53117 0
M  V30 18750 O 1800.47 0.587505 -1.8153 0
M  V30 18751 C 1797.61 0.614444 -3.39586 0
M  V30 18752 C 1796.72 -0.276281 -4.31116 0
M  V30 18753 C 1795.86 0.572595 -5.28105 0
M  V30 18754 C 1794.9 -0.318133 -6.11273 0
M  V30 18755 N 1794.04 0.491086 -7.0038 0
M  V30 18756 H 1798.88 -1.03861 -2.79315 0
M  V30 18757 H 1796.41 -0.523695 -1.37462 0
M  V30 18758 H 1798.37 1.11683 -4.01973 0
M  V30 18759 H 1797 1.39244 -2.91223 0
M  V30 18760 H 1796.05 -0.89682 -3.69677 0
M  V30 18761 H 1797.36 -0.961601 -4.89443 0
M  V30 18762 H 1796.52 1.13986 -5.95896 0
M  V30 18763 H 1795.26 1.29146 -4.7029 0
M  V30 18764 H 1794.26 -0.897622 -5.42423 0
M  V30 18765 H 1795.49 -1.03496 -6.71167 0
M  V30 18766 H 1793.43 1.19381 -6.45046 0
M  V30 18767 H 1793.35 -0.136054 -7.55878 0
M  V30 18768 H 1794.62 1.04143 -7.72512 0
M  V30 18769 N 1798.85 1.47045 -0.567045 0
M  V30 18770 C 1800.09 2.04341 -0.0491613 0
M  V30 18771 C 1800.45 1.4308 1.28031 0
M  V30 18772 O 1801.65 1.91481 1.88649 0
M  V30 18773 C 1799.92 3.57386 0.0319732 0
M  V30 18774 S 1801.48 4.36004 0.494555 0
M  V30 18775 H 1798.3 0.710371 -0.0298915 0
M  V30 18776 H 1800.9 1.80291 -0.756004 0
M  V30 18777 H 1799.61 3.99494 -0.93983 0
M  V30 18778 H 1799.14 3.85948 0.76207 0
M  V30 18779 H 1801.15 4.64226 1.75238 0
M  V30 18780 N 1800.33 0.304 1.5464 0
M  V30 18781 C 1801.74 -0.0492924 1.59524 0
M  V30 18782 C 1801.94 -1.52164 1.32093 0
M  V30 18783 O 1801 -2.27483 1.0958 0
M  V30 18784 C 1802.31 0.351346 2.9864 0
M  V30 18785 C 1803.86 0.300362 3.11555 0
M  V30 18786 C 1804.33 0.675867 4.52986 0
M  V30 18787 N 1805.82 0.628517 4.58916 0
M  V30 18788 C 1806.56 0.891504 5.66427 0
M  V30 18789 N 1806.06 1.22061 6.81962 0
M  V30 18790 N 1807.85 0.818366 5.56111 0
M  V30 18791 H 1800 1.26351 1.70731 0
M  V30 18792 H 1802.26 0.512457 0.797554 0
M  V30 18793 H 1801.97 1.37642 3.23647 0
M  V30 18794 H 1801.84 -0.293504 3.76056 0
M  V30 18795 H 1804.23 -0.715468 2.86295 0
M  V30 18796 H 1804.31 0.979876 2.36288 0
M  V30 18797 H 1803.95 1.68952 4.78976 0
M  V30 18798 H 1803.88 -0.0257498 5.26594 0
M  V30 18799 H 1806.38 0.385204 3.75932 0
M  V30 18800 H 1806.69 1.40718 7.5988 0
M  V30 18801 H 1805.03 1.25868 6.83507 0
M  V30 18802 H 1808.22 0.560885 4.64728 0
M  V30 18803 H 1808.4 1.02669 6.39815 0
M  V30 18804 N 1801.8 -1.57568 0.0317802 0
M  V30 18805 C 1803.05 -1.91087 -0.645639 0
M  V30 18806 C 1803.37 -0.910108 -1.73137 0
M  V30 18807 O 1804.57 -1.13665 -2.46562 0
M  V30 18808 C 1803.03 -3.39317 -1.19966 0
M  V30 18809 C 1802.64 -4.47759 -0.147068 0
M  V30 18810 C 1804.38 -3.81901 -1.85343 0
M  V30 18811 C 1802.29 -5.87088 -0.712872 0
M  V30 18812 H 1801.22 -0.713112 -0.244923 0
M  V30 18813 H 1803.87 -1.83241 0.0975145 0
M  V30 18814 H 1802.25 -3.42105 -1.99451 0
M  V30 18815 H 1803.42 -4.56535 0.625518 0
M  V30 18816 H 1801.74 -4.14395 0.408109 0
M  V30 18817 H 1804.34 -4.83352 -2.28636 0
M  V30 18818 H 1804.68 -3.17104 -2.69724 0
M  V30 18819 H 1805.21 -3.81548 -1.12544 0
M  V30 18820 H 1801.95 -6.55434 0.0928582 0
M  V30 18821 H 1801.47 -5.81913 -1.45388 0
M  V30 18822 H 1803.15 -6.3574 -1.20179 0
M  V30 18823 N 1803.28 0.241399 -1.5574 0
M  V30 18824 C 1804.19 1.32034 -1.93918 0
M  V30 18825 C 1805.21 1.52363 -0.840331 0
M  V30 18826 O 1806.38 1.65879 -1.1422 0
M  V30 18827 C 1803.45 2.6539 -2.2309 0
M  V30 18828 C 1802.51 2.53536 -3.46436 0
M  V30 18829 C 1801.74 3.80532 -3.74208 0
M  V30 18830 O 1801.97 4.82662 -3.03964 0
M  V30 18831 O 1800.9 3.78834 -4.67727 0
M  V30 18832 H 1804.73 1.02647 -2.85827 0
M  V30 18833 H 1802.31 0.442616 -1.42693 0
M  V30 18834 H 1804.19 3.44184 -2.43137 0
M  V30 18835 H 1802.87 2.94499 -1.34358 0
M  V30 18836 H 1801.78 1.73009 -3.3169 0
M  V30 18837 H 1803.11 2.29371 -4.35488 0
M  V30 18838 N 1804.76 1.49212 0.507292 0
M  V30 18839 C 1806.17 1.51655 1.08892 0
M  V30 18840 C 1806.52 0.299163 1.93906 0
M  V30 18841 O 1805.65 -0.591635 2.08155 0
M  V30 18842 C 1806.24 2.7481 1.98154 0
M  V30 18843 C 1804.8 2.80051 2.51492 0
M  V30 18844 C 1803.95 2.45486 1.28966 0
M  V30 18845 H 1806.9 1.56 0.291488 0
M  V30 18846 H 1806.92 2.54615 2.82757 0
M  V30 18847 H 1806.43 3.63396 1.36253 0
M  V30 18848 H 1804.53 1.95729 3.1705 0
M  V30 18849 H 1804.65 3.82064 2.89075 0
M  V30 18850 H 1803.01 1.97128 1.61284 0
M  V30 18851 H 1803.79 3.36339 0.687821 0
M  V30 18852 N 1806.24 -0.757876 1.38181 0
M  V30 18853 C 1807.48 -1.51912 1.34352 0
M  V30 18854 C 1807.82 -1.94082 -0.0677003 0
M  V30 18855 O 1807.09 -1.65114 -1.02799 0
M  V30 18856 C 1807.38 -2.77466 2.29531 0
M  V30 18857 C 1807.23 -2.41462 3.79495 0
M  V30 18858 C 1808.55 -3.79469 2.22915 0
M  V30 18859 H 1805.67 -0.551091 0.489355 0
M  V30 18860 H 1808.31 -0.868376 1.68995 0
M  V30 18861 H 1806.46 -3.32994 2.00119 0
M  V30 18862 H 1808.13 -1.91742 4.19562 0
M  V30 18863 H 1806.37 -1.73976 3.97385 0
M  V30 18864 H 1807.04 -3.31272 4.41546 0
M  V30 18865 H 1809.52 -3.33471 2.48871 0
M  V30 18866 H 1808.4 -4.6502 2.91629 0
M  V30 18867 H 1808.66 -4.24744 1.22658 0
M  V30 18868 N 1807.72 -1.22979 -0.985586 0
M  V30 18869 C 1808.96 -1.07044 -1.74129 0
M  V30 18870 C 1809.32 0.386735 -1.88065 0
M  V30 18871 O 1810.52 0.667136 -2.6039 0
M  V30 18872 C 1808.79 -1.77023 -3.1048 0
M  V30 18873 S 1810.35 -1.76594 -4.01697 0
M  V30 18874 H 1807.17 -0.383192 -0.598903 0
M  V30 18875 H 1809.77 -1.56035 -1.17785 0
M  V30 18876 H 1808.48 -2.82194 -2.97984 0
M  V30 18877 H 1808.01 -1.28293 -3.71893 0
M  V30 18878 H 1810.02 -0.820835 -4.89364 0
M  V30 18879 N 1809.19 1.18355 -1.04066 0
M  V30 18880 C 1810.12 2.24196 -0.652568 0
M  V30 18881 C 1811.11 1.66581 0.344195 0
M  V30 18882 O 1812.29 1.929 0.224296 0
M  V30 18883 C 1809.42 3.47297 -0.0147409 0
M  V30 18884 C 1808.37 4.17661 -0.935044 0
M  V30 18885 C 1807.7 5.34455 -0.161692 0
M  V30 18886 C 1809 4.71153 -2.25415 0
M  V30 18887 H 1810.69 2.56914 -1.53738 0
M  V30 18888 H 1808.24 1.23492 -0.740658 0
M  V30 18889 H 1810.19 4.20544 0.268484 0
M  V30 18890 H 1808.92 3.13812 0.904949 0
M  V30 18891 H 1807.58 3.46312 -1.20265 0
M  V30 18892 H 1807.22 4.97219 0.760404 0
M  V30 18893 H 1806.92 5.82469 -0.774805 0
M  V30 18894 H 1808.45 6.10493 0.114515 0
M  V30 18895 H 1809.86 5.36095 -2.03163 0
M  V30 18896 H 1808.26 5.29701 -2.82022 0
M  V30 18897 H 1809.33 3.88576 -2.90064 0
M  V30 18898 N 1810.67 0.820125 1.3458 0
M  V30 18899 C 1811.6 0.254709 2.32107 0
M  V30 18900 C 1812.58 -0.6273 1.58111 0
M  V30 18901 O 1813.77 -0.554759 1.86108 0
M  V30 18902 C 1810.9 -0.586541 3.42311 0
M  V30 18903 C 1809.85 0.198096 4.27541 0
M  V30 18904 C 1809.18 -0.765718 5.29189 0
M  V30 18905 C 1810.48 1.40472 5.03056 0
M  V30 18906 H 1812.17 1.06955 2.79644 0
M  V30 18907 H 1809.72 0.515756 1.34447 0
M  V30 18908 H 1811.67 -0.992259 4.09551 0
M  V30 18909 H 1810.4 -1.4344 2.93415 0
M  V30 18910 H 1809.05 0.585149 3.619 0
M  V30 18911 H 1808.7 -1.60946 4.76556 0
M  V30 18912 H 1808.4 -0.244954 5.87089 0
M  V30 18913 H 1809.93 -1.16935 5.99298 0
M  V30 18914 H 1811.34 1.07316 5.63166 0
M  V30 18915 H 1809.74 1.86092 5.70517 0
M  V30 18916 H 1810.81 2.18437 4.32913 0
M  V30 18917 N 1812.15 -1.46743 0.574835 0
M  V30 18918 C 1813.08 -2.33012 -0.150836 0
M  V30 18919 C 1814.06 -1.44868 -0.891472 0
M  V30 18920 O 1815.25 -1.73698 -0.868481 0
M  V30 18921 C 1812.38 -3.26995 -1.17012 0
M  V30 18922 C 1811.33 -4.24518 -0.544829 0
M  V30 18923 C 1810.66 -5.07951 -1.67002 0
M  V30 18924 C 1811.96 -5.19776 0.512891 0
M  V30 18925 H 1813.65 -2.93935 0.569433 0
M  V30 18926 H 1811.2 -1.41344 0.275289 0
M  V30 18927 H 1813.15 -3.86198 -1.68609 0
M  V30 18928 H 1811.87 -2.64163 -1.92056 0
M  V30 18929 H 1810.53 -3.66566 -0.0500133 0
M  V30 18930 H 1810.18 -4.4151 -2.40993 0
M  V30 18931 H 1809.88 -5.73991 -1.25732 0
M  V30 18932 H 1811.4 -5.70017 -2.1889 0
M  V30 18933 H 1812.82 -5.73241 0.0823064 0
M  V30 18934 H 1811.22 -5.94114 0.845462 0
M  V30 18935 H 1812.29 -4.64184 1.40217 0
M  V30 18936 N 1813.63 -0.312197 -1.54477 0
M  V30 18937 C 1814.58 0.574207 -2.20651 0
M  V30 18938 C 1815.56 1.09037 -1.18321 0
M  V30 18939 O 1816.75 1.02928 -1.43996 0
M  V30 18940 C 1813.88 1.74019 -2.95926 0
M  V30 18941 C 1812.97 1.23946 -4.05584 0
M  V30 18942 N 1813.36 0.457561 -5.03726 0
M  V30 18943 C 1811.66 1.51921 -4.19328 0
M  V30 18944 C 1812.36 0.189523 -5.81391 0
M  V30 18945 N 1811.34 0.772477 -5.38083 0
M  V30 18946 H 1815.14 -0.0306045 -2.93884 0
M  V30 18947 H 1812.65 -0.117497 -1.61974 0
M  V30 18948 H 1814.65 2.38687 -3.4181 0
M  V30 18949 H 1813.31 2.34859 -2.24212 0
M  V30 18950 H 1814.32 0.101432 -5.17801 0
M  V30 18951 H 1811 2.13428 -3.58824 0
M  V30 18952 H 1812.39 -0.439199 -6.70463 0
M  V30 18953 N 1815.11 1.57549 -0.040136 0
M  V30 18954 C 1816.35 1.9187 0.634838 0
M  V30 18955 C 1816.68 0.918178 1.7203 0
M  V30 18956 O 1815.95 -0.0386563 1.95862 0
M  V30 18957 H 1814.53 0.708245 0.237483 0
M  V30 18958 H 1817.19 1.9469 -0.0905369 0
M  V30 18959 H 1816.28 2.92799 1.08053 0
M  V30 18960 N 1816.58 -0.233136 1.55866 0
M  V30 18961 C 1817.81 -0.980602 1.82754 0
M  V30 18962 C 1818.23 -1.77624 0.618988 0
M  V30 18963 O 1817.59 -1.76074 -0.432148 0
M  V30 18964 C 1817.64 -1.88319 3.07519 0
M  V30 18965 O 1816.74 -2.97692 2.85401 0
M  V30 18966 H 1816.09 -0.278295 0.602867 0
M  V30 18967 H 1818.62 -0.249956 2.03067 0
M  V30 18968 H 1818.63 -2.29523 3.37318 0
M  V30 18969 H 1817.3 -1.29831 3.95116 0
M  V30 18970 H 1815.88 -2.60517 2.66805 0
M  V30 18971 N 1818.06 -1.49479 -0.499372 0
M  V30 18972 C 1819.47 -1.52231 -1.08087 0
M  V30 18973 C 1819.83 -0.309442 -1.93744 0
M  V30 18974 O 1818.95 0.580587 -2.08466 0
M  V30 18975 C 1819.55 -2.75857 -1.96694 0
M  V30 18976 C 1818.1 -2.81381 -2.50003 0
M  V30 18977 C 1817.25 -2.46166 -1.27662 0
M  V30 18978 H 1820.2 -1.56153 -0.283211 0
M  V30 18979 H 1820.22 -2.56111 -2.81403 0
M  V30 18980 H 1819.74 -3.64114 -1.34324 0
M  V30 18981 H 1817.84 -1.97408 -3.16008 0
M  V30 18982 H 1817.95 -3.83591 -2.87045 0
M  V30 18983 H 1816.31 -1.97981 -1.60236 0
M  V30 18984 H 1817.1 -3.36699 -0.669974 0
M  V30 18985 N 1819.54 0.750537 -1.38581 0
M  V30 18986 C 1820.79 1.50676 -1.34689 0
M  V30 18987 C 1821.11 1.94903 0.0615414 0
M  V30 18988 O 1820.38 1.67867 1.00982 0
M  V30 18989 H 1818.96 0.558914 -0.495605 0
M  V30 18990 H 1821.62 0.891979 -1.73291 0
M  V30 18991 H 1820.72 2.39623 -1.99969 0
M  V30 18992 N 1821.02 1.235 0.979051 0
M  V30 18993 C 1821.98 1.01854 2.05325 0
M  V30 18994 C 1822.98 -0.0201133 1.60787 0
M  V30 18995 O 1824.17 0.219761 1.72808 0
M  V30 18996 C 1821.3 0.541404 3.36573 0
M  V30 18997 H 1822.5 1.97183 2.25962 0
M  V30 18998 H 1820.05 1.05563 1.15265 0
M  V30 18999 H 1820.79 -0.415607 3.21626 0
M  V30 19000 H 1820.57 1.29092 3.7024 0
M  V30 19001 H 1822.06 0.410635 4.15576 0
M  V30 19002 N 1822.5 -1.17802 1.04693 0
M  V30 19003 C 1823.75 -1.87567 0.752534 0
M  V30 19004 C 1824.07 -1.81129 -0.722303 0
M  V30 19005 O 1823.34 -1.23385 -1.52161 0
M  V30 19006 H 1821.92 -0.69439 0.275376 0
M  V30 19007 H 1824.58 -1.42932 1.32501 0
M  V30 19008 H 1823.67 -2.9344 1.06299 0
M  V30 19009 N 1823.98 -0.827251 -1.34143 0
M  V30 19010 C 1824.92 -0.250166 -2.2944 0
M  V30 19011 C 1825.89 0.62749 -1.53791 0
M  V30 19012 O 1827.08 0.568218 -1.82143 0
M  V30 19013 C 1824.22 0.578392 -3.40219 0
M  V30 19014 C 1823.33 -0.321991 -4.30798 0
M  V30 19015 C 1822.47 0.51655 -5.28683 0
M  V30 19016 C 1821.5 -0.382949 -6.10901 0
M  V30 19017 N 1820.64 0.416774 -7.00862 0
M  V30 19018 H 1825.48 -1.06817 -2.78198 0
M  V30 19019 H 1823.02 -0.538245 -1.36899 0
M  V30 19020 H 1824.98 1.07414 -4.03135 0
M  V30 19021 H 1823.61 1.36147 -2.92684 0
M  V30 19022 H 1822.66 -0.935979 -3.68705 0
M  V30 19023 H 1823.97 -1.01346 -4.88396 0
M  V30 19024 H 1823.12 1.0766 -5.97071 0
M  V30 19025 H 1821.86 1.2415 -4.71633 0
M  V30 19026 H 1820.87 -0.955103 -5.41441 0
M  V30 19027 H 1822.09 -1.10609 -6.70032 0
M  V30 19028 H 1820.04 1.12532 -6.46276 0
M  V30 19029 H 1819.96 -0.216217 -7.55691 0
M  V30 19030 H 1821.22 0.959432 -7.73573 0
M  V30 19031 N 1825.45 1.46436 -0.582609 0
M  V30 19032 C 1826.68 2.07275 -0.0718712 0
M  V30 19033 C 1827.1 1.42851 1.22373 0
M  V30 19034 O 1826.46 0.512272 1.73912 0
M  V30 19035 C 1826.51 3.6051 0.08055 0
M  V30 19036 O 1825.61 3.96414 1.13707 0
M  V30 19037 H 1824.95 0.661027 -0.0627607 0
M  V30 19038 H 1827.48 1.88076 -0.805524 0
M  V30 19039 H 1827.49 4.06991 0.286749 0
M  V30 19040 H 1826.17 4.06792 -0.865603 0
M  V30 19041 H 1824.75 3.61643 0.909338 0
M  V30 19042 N 1826.93 0.320385 1.54309 0
M  V30 19043 C 1828.18 -0.283562 2.00808 0
M  V30 19044 C 1828.51 -1.52036 1.20826 0
M  V30 19045 O 1827.79 -1.9233 0.289721 0
M  V30 19046 C 1828.07 -0.620875 3.54707 0
M  V30 19047 C 1827.92 0.626403 4.45417 0
M  V30 19048 C 1829.24 -1.43978 4.15883 0
M  V30 19049 H 1826.36 -0.10159 0.729965 0
M  V30 19050 H 1829 0.436332 1.84922 0
M  V30 19051 H 1827.15 -1.23419 3.68375 0
M  V30 19052 H 1828.82 1.2647 4.43625 0
M  V30 19053 H 1827.07 1.2559 4.15222 0
M  V30 19054 H 1827.74 0.345969 5.50915 0
M  V30 19055 H 1830.21 -0.921381 4.05771 0
M  V30 19056 H 1829.09 -1.64456 5.23685 0
M  V30 19057 H 1829.35 -2.43494 3.69003 0
M  V30 19058 N 1828.41 -1.57525 0.0484906 0
M  V30 19059 C 1829.37 -2.10275 -0.911987 0
M  V30 19060 C 1830.37 -1.02178 -1.24163 0
M  V30 19061 O 1831.56 -1.28262 -1.17875 0
M  V30 19062 C 1828.69 -2.58475 -2.22269 0
M  V30 19063 H 1829.89 -2.96432 -0.454768 0
M  V30 19064 H 1827.44 -1.55017 -0.19987 0
M  V30 19065 H 1828.18 -1.75704 -2.72578 0
M  V30 19066 H 1827.96 -3.37466 -1.99648 0
M  V30 19067 H 1829.45 -2.99443 -2.91074 0
M  V30 19068 N 1829.89 0.224867 -1.55988 0
M  V30 19069 C 1831.12 0.966727 -1.82926 0
M  V30 19070 C 1831.53 1.78078 -0.627177 0
M  V30 19071 O 1830.89 1.77966 0.404277 0
M  V30 19072 C 1830.94 1.88696 -3.08344 0
M  V30 19073 O 1830.66 1.10581 -4.23914 0
M  V30 19074 C 1832.16 2.74299 -3.48246 0
M  V30 19075 H 1829.38 0.283479 -0.608178 0
M  V30 19076 H 1831.92 0.241097 -2.03074 0
M  V30 19077 H 1830.08 2.56658 -2.90182 0
M  V30 19078 H 1830.49 1.73019 -4.95141 0
M  V30 19079 H 1831.97 3.34577 -4.39047 0
M  V30 19080 H 1832.44 3.46526 -2.69845 0
M  V30 19081 H 1833.05 2.11755 -3.68836 0
M  V30 19082 N 1831.37 1.49742 0.491438 0
M  V30 19083 C 1832.31 1.67614 1.61271 0
M  V30 19084 C 1833.31 0.542004 1.60495 0
M  V30 19085 O 1834.51 0.721922 1.64889 0
M  V30 19086 H 1830.89 0.528696 0.534775 0
M  V30 19087 H 1832.86 2.61711 1.43352 0
M  V30 19088 C 1831.61 1.76877 2.99349 0
M  V30 19089 H 1830.93 2.63526 3.00656 0
M  V30 19090 H 1832.37 1.93414 3.77315 0
M  V30 19091 C 1830.83 0.515719 3.32929 0
M  V30 19092 O 1831.36 -0.354312 4.00134 0
M  V30 19093 N 1829.57 0.3758 2.8816 0
M  V30 19094 H 1829.11 1.08481 2.33644 0
M  V30 19095 H 1829.07 -0.461494 3.10995 0
M  V30 19096 N 1832.84 -0.743177 1.38977 0
M  V30 19097 C 1833.77 -1.87047 1.3977 0
M  V30 19098 C 1834.76 -1.68068 0.262161 0
M  V30 19099 O 1835.94 -1.88507 0.466782 0
M  V30 19100 C 1833.07 -3.24701 1.23234 0
M  V30 19101 C 1832.02 -3.58302 2.34102 0
M  V30 19102 C 1831.35 -4.94805 2.02663 0
M  V30 19103 C 1832.65 -3.62111 3.76395 0
M  V30 19104 H 1834.34 -1.8664 2.34107 0
M  V30 19105 H 1831.89 -0.896541 1.12686 0
M  V30 19106 H 1833.84 -4.03228 1.22412 0
M  V30 19107 H 1832.57 -3.25614 0.253638 0
M  V30 19108 H 1831.23 -2.82099 2.34128 0
M  V30 19109 H 1830.87 -4.92289 1.0325 0
M  V30 19110 H 1830.57 -5.18254 2.76922 0
M  V30 19111 H 1832.1 -5.75699 2.03477 0
M  V30 19112 H 1833.51 -4.30731 3.78343 0
M  V30 19113 H 1831.91 -3.97075 4.49946 0
M  V30 19114 H 1832.98 -2.62099 4.07961 0
M  V30 19115 N 1834.32 -1.24018 -0.972487 0
M  V30 19116 C 1835.57 -1.07105 -1.70913 0
M  V30 19117 C 1835.88 0.390908 -1.91654 0
M  V30 19118 O 1837.09 0.68013 -2.62843 0
M  V30 19119 C 1835.55 -1.86823 -3.07612 0
M  V30 19120 C 1835.15 -3.37399 -2.94731 0
M  V30 19121 C 1836.9 -1.78425 -3.85182 0
M  V30 19122 C 1834.81 -4.09479 -4.2671 0
M  V30 19123 H 1833.74 -0.397184 -0.640907 0
M  V30 19124 H 1836.39 -1.48056 -1.08405 0
M  V30 19125 H 1834.77 -1.38683 -3.70922 0
M  V30 19126 H 1835.94 -3.93084 -2.40462 0
M  V30 19127 H 1834.26 -3.46697 -2.3063 0
M  V30 19128 H 1836.85 -2.29584 -4.82903 0
M  V30 19129 H 1837.2 -0.748555 -4.09515 0
M  V30 19130 H 1837.73 -2.24219 -3.28589 0
M  V30 19131 H 1834.47 -5.13387 -4.07571 0
M  V30 19132 H 1833.99 -3.5858 -4.80812 0
M  V30 19133 H 1835.67 -4.16212 -4.95355 0
M  V30 19134 N 1835.8 1.17245 -1.05316 0
M  V30 19135 C 1837.05 1.87165 -0.762471 0
M  V30 19136 C 1837.37 1.8151 0.712687 0
M  V30 19137 O 1836.64 1.2419 1.51504 0
M  V30 19138 H 1835.22 0.69292 -0.279054 0
M  V30 19139 H 1837.88 1.42227 -1.33257 0
M  V30 19140 H 1836.98 2.92872 -1.07854 0
M  V30 19141 N 1837.28 0.834353 1.33702 0
M  V30 19142 C 1838.69 0.52156 1.50837 0
M  V30 19143 C 1838.89 -0.95203 1.77591 0
M  V30 19144 O 1837.95 -1.73603 1.83353 0
M  V30 19145 C 1839.26 1.39099 2.66593 0
M  V30 19146 C 1840.81 1.3893 2.80477 0
M  V30 19147 C 1841.29 2.24347 3.9929 0
M  V30 19148 N 1842.78 2.22032 4.06517 0
M  V30 19149 C 1843.51 2.84865 4.97634 0
M  V30 19150 N 1843.01 3.56732 5.93897 0
M  V30 19151 N 1844.8 2.74359 4.90595 0
M  V30 19152 H 1836.95 1.78832 1.14598 0
M  V30 19153 H 1839.22 0.762708 0.563011 0
M  V30 19154 H 1838.92 2.43795 2.53489 0
M  V30 19155 H 1838.8 1.06381 3.61888 0
M  V30 19156 H 1841.18 0.350069 2.93016 0
M  V30 19157 H 1841.26 1.75652 1.85957 0
M  V30 19158 H 1840.91 3.28326 3.8751 0
M  V30 19159 H 1840.84 1.84969 4.93046 0
M  V30 19160 H 1843.33 1.69765 3.37621 0
M  V30 19161 H 1843.64 4.01893 6.60077 0
M  V30 19162 H 1841.99 3.6084 5.93986 0
M  V30 19163 H 1845.18 2.17779 4.14355 0
M  V30 19164 H 1845.35 3.23612 5.61408 0
M  V30 19165 N 1838.76 -1.46125 0.590367 0
M  V30 19166 C 1839.98 -2.07234 0.0828625 0
M  V30 19167 C 1840.41 -1.43498 -1.21614 0
M  V30 19168 O 1839.76 -0.521488 -1.73638 0
M  V30 19169 C 1839.81 -3.60548 -0.0614302 0
M  V30 19170 O 1838.92 -3.97012 -1.11603 0
M  V30 19171 H 1838.26 -0.660685 0.0662654 0
M  V30 19172 H 1840.79 -1.87646 0.815486 0
M  V30 19173 H 1840.8 -4.07137 -0.265161 0
M  V30 19174 H 1839.47 -4.06328 0.887164 0
M  V30 19175 H 1838.05 -3.6212 -0.890146 0
M  V30 19176 N 1840.23 -0.328564 -1.54137 0
M  V30 19177 C 1841.16 0.527734 -2.27458 0
M  V30 19178 C 1842.15 1.11518 -1.28444 0
M  V30 19179 O 1843.33 1.13938 -1.57264 0
M  V30 19180 C 1840.46 1.68628 -3.03615 0
M  V30 19181 C 1839.41 1.22789 -4.10008 0
M  V30 19182 C 1838.74 2.47378 -4.74034 0
M  V30 19183 C 1840.04 0.339152 -5.21198 0
M  V30 19184 H 1841.73 -0.0838808 -2.99282 0
M  V30 19185 H 1839.28 -0.0417829 -1.43939 0
M  V30 19186 H 1841.23 2.29165 -3.5364 0
M  V30 19187 H 1839.96 2.32456 -2.29416 0
M  V30 19188 H 1838.62 0.645427 -3.60874 0
M  V30 19189 H 1838.26 3.09581 -3.96445 0
M  V30 19190 H 1837.96 2.17396 -5.45905 0
M  V30 19191 H 1839.49 3.08668 -5.26836 0
M  V30 19192 H 1840.9 0.850947 -5.6695 0
M  V30 19193 H 1839.3 0.131892 -5.99955 0
M  V30 19194 H 1840.37 -0.628692 -4.80807 0
M  V30 19195 N 1841.71 1.57497 -0.0568439 0
M  V30 19196 C 1842.68 2.10755 0.900823 0
M  V30 19197 C 1843.68 1.02835 1.23619 0
M  V30 19198 O 1844.87 1.28885 1.17194 0
M  V30 19199 C 1842 2.5965 2.20895 0
M  V30 19200 H 1843.19 2.96669 0.439041 0
M  V30 19201 H 1840.74 1.55121 0.191646 0
M  V30 19202 H 1841.48 1.77147 2.71642 0
M  V30 19203 H 1841.26 3.3852 1.97855 0
M  V30 19204 H 1842.75 3.00982 2.89482 0
M  V30 19205 N 1843.19 -0.216591 1.56105 0
M  V30 19206 C 1844.1 -1.28933 1.95994 0
M  V30 19207 C 1845.12 -1.51007 0.864464 0
M  V30 19208 O 1846.29 -1.6404 1.16845 0
M  V30 19209 C 1843.36 -2.61807 2.27284 0
M  V30 19210 C 1842.42 -2.47992 3.50426 0
M  V30 19211 C 1841.65 -3.7453 3.80214 0
M  V30 19212 O 1841.87 -4.77765 3.11604 0
M  V30 19213 O 1840.81 -3.71345 4.73694 0
M  V30 19214 H 1844.63 -0.980864 2.87424 0
M  V30 19215 H 1842.22 -0.419859 1.43379 0
M  V30 19216 H 1844.1 -3.40272 2.48582 0
M  V30 19217 H 1842.78 -2.92324 1.39026 0
M  V30 19218 H 1841.68 -1.67711 3.34401 0
M  V30 19219 H 1843.02 -2.22413 4.39082 0
M  V30 19220 N 1844.67 -1.5 -0.48349 0
M  V30 19221 C 1845.62 -1.67957 -1.58301 0
M  V30 19222 C 1846.59 -0.520895 -1.57721 0
M  V30 19223 O 1847.77 -0.750008 -1.75441 0
M  V30 19224 C 1844.91 -1.76832 -2.96352 0
M  V30 19225 C 1844.02 -3.04119 -3.06815 0
M  V30 19226 C 1843.16 -3.03865 -4.35706 0
M  V30 19227 C 1842.2 -4.25658 -4.39865 0
M  V30 19228 N 1841.33 -4.23214 -5.60209 0
M  V30 19229 H 1846.17 -2.61832 -1.42296 0
M  V30 19230 H 1843.71 -1.29804 -0.692045 0
M  V30 19231 H 1845.67 -1.79958 -3.76392 0
M  V30 19232 H 1844.3 -0.864074 -3.1102 0
M  V30 19233 H 1843.35 -3.10523 -2.19727 0
M  V30 19234 H 1844.66 -3.94106 -3.05748 0
M  V30 19235 H 1843.82 -3.05652 -5.24082 0
M  V30 19236 H 1842.56 -2.11687 -4.39363 0
M  V30 19237 H 1841.56 -4.24097 -3.49888 0
M  V30 19238 H 1842.79 -5.19049 -4.37909 0
M  V30 19239 H 1840.73 -3.33883 -5.64675 0
M  V30 19240 H 1840.65 -5.06956 -5.60832 0
M  V30 19241 H 1841.92 -4.29129 -6.50744 0
M  V30 19242 N 1846.15 0.735796 -1.39369 0
M  V30 19243 C 1847.08 1.86303 -1.4076 0
M  V30 19244 C 1848.06 1.67926 -0.27107 0
M  V30 19245 O 1849.24 1.88257 -0.476773 0
M  V30 19246 C 1846.37 3.24043 -1.24955 0
M  V30 19247 C 1845.33 3.57055 -2.35999 0
M  V30 19248 C 1844.65 4.93723 -2.05284 0
M  V30 19249 C 1845.95 3.60109 -3.7831 0
M  V30 19250 H 1847.65 1.85396 -2.35093 0
M  V30 19251 H 1845.19 0.890552 -1.1316 0
M  V30 19252 H 1847.15 4.02574 -1.24549 0
M  V30 19253 H 1845.87 3.25475 -0.270902 0
M  V30 19254 H 1844.53 2.80853 -2.35621 0
M  V30 19255 H 1844.18 4.91734 -1.05859 0
M  V30 19256 H 1843.88 5.16779 -2.79667 0
M  V30 19257 H 1845.4 5.74612 -2.06527 0
M  V30 19258 H 1846.81 4.28718 -3.80622 0
M  V30 19259 H 1845.21 3.94683 -4.52046 0
M  V30 19260 H 1846.28 2.59932 -4.09345 0
M  V30 19261 N 1847.63 1.24532 0.965897 0
M  V30 19262 C 1848.57 1.03699 2.08205 0
M  V30 19263 C 1849.57 -0.0286308 1.69376 0
M  V30 19264 O 1850.77 0.126073 1.79558 0
M  V30 19265 H 1847.15 0.318331 0.6813 0
M  V30 19266 H 1849.12 1.98348 2.22937 0
M  V30 19267 C 1847.87 0.660411 3.41371 0
M  V30 19268 H 1847.19 1.47216 3.71709 0
M  V30 19269 H 1848.63 0.554264 4.20362 0
M  V30 19270 C 1847.09 -0.632633 3.30907 0
M  V30 19271 O 1847.62 -1.67786 3.6498 0
M  V30 19272 N 1845.83 -0.61403 2.84039 0
M  V30 19273 H 1845.37 0.236909 2.56508 0
M  V30 19274 H 1845.33 -1.47938 2.7742 0
M  V30 19275 N 1849.1 -1.16685 1.05936 0
M  V30 19276 C 1850.33 -1.91576 0.794558 0
M  V30 19277 C 1850.75 -1.76706 -0.644718 0
M  V30 19278 O 1850.11 -1.0899 -1.44882 0
M  V30 19279 C 1850.16 -3.40417 1.18947 0
M  V30 19280 O 1849.26 -4.11109 0.326091 0
M  V30 19281 H 1848.6 -0.596983 0.290702 0
M  V30 19282 H 1851.13 -1.47856 1.4142 0
M  V30 19283 H 1851.14 -3.91178 1.15947 0
M  V30 19284 H 1849.82 -3.5056 2.23786 0
M  V30 19285 H 1848.4 -3.70557 0.417347 0
M  V30 19286 N 1850.58 -0.841432 -1.33258 0
M  V30 19287 C 1851.81 -0.45101 -2.02437 0
M  V30 19288 C 1852.23 0.940811 -1.62881 0
M  V30 19289 O 1851.59 1.61559 -0.82271 0
M  V30 19290 C 1851.64 -0.58237 -3.55866 0
M  V30 19291 O 1850.74 0.390326 -4.10549 0
M  V30 19292 H 1850.08 -0.182996 -0.638285 0
M  V30 19293 H 1852.61 -1.13697 -1.701 0
M  V30 19294 H 1852.62 -0.464967 -4.05342 0
M  V30 19295 H 1851.3 -1.59739 -3.84 0
M  V30 19296 H 1849.87 0.230266 -3.72188 0
M  V30 19297 N 1852.06 1.4581 -0.598108 0
M  V30 19298 C 1853.31 2.02601 -0.089744 0
M  V30 19299 C 1853.64 1.46673 1.27282 0
M  V30 19300 O 1852.91 0.637735 1.83748 0
M  V30 19301 C 1853.2 3.60077 -0.0405712 0
M  V30 19302 C 1853.05 4.26358 -1.43313 0
M  V30 19303 C 1854.37 4.35241 0.652164 0
M  V30 19304 H 1851.49 0.736211 -0.0340865 0
M  V30 19305 H 1854.13 1.73775 -0.768263 0
M  V30 19306 H 1852.28 3.84767 0.537251 0
M  V30 19307 H 1853.95 4.12884 -2.0573 0
M  V30 19308 H 1852.19 3.85125 -1.99653 0
M  V30 19309 H 1852.87 5.35211 -1.35105 0
M  V30 19310 H 1855.34 4.15788 0.161128 0
M  V30 19311 H 1854.22 5.4497 0.655646 0
M  V30 19312 H 1854.48 4.07419 1.71646 0
M  V30 19313 N 1853.54 0.336733 1.53961 0
M  V30 19314 C 1854.77 -0.263064 2.04918 0
M  V30 19315 C 1855.18 -1.45301 1.21178 0
M  V30 19316 O 1854.52 -1.82147 0.238356 0
M  V30 19317 C 1854.58 -0.748277 3.51626 0
M  V30 19318 C 1854.24 0.321112 4.5587 0
M  V30 19319 C 1855.24 1.16157 5.06758 0
M  V30 19320 C 1852.93 0.473083 5.00067 0
M  V30 19321 C 1854.92 2.1396 6.00416 0
M  V30 19322 C 1852.61 1.45452 5.93538 0
M  V30 19323 C 1853.61 2.28624 6.43599 0
M  V30 19324 O 1853.29 3.25098 7.35232 0
M  V30 19325 H 1853.03 -0.0558258 0.673691 0
M  V30 19326 H 1855.58 0.484895 1.99594 0
M  V30 19327 H 1853.81 -1.54737 3.54392 0
M  V30 19328 H 1855.5 -1.26787 3.8559 0
M  V30 19329 H 1856.26 1.05521 4.73382 0
M  V30 19330 H 1852.14 -0.164435 4.60707 0
M  V30 19331 H 1855.69 2.78916 6.39415 0
M  V30 19332 H 1851.58 1.56146 6.26329 0
M  V30 19333 H 1852.35 3.2049 7.53146 0
M  V30 19334 N 1855.02 -1.57465 0.0651956 0
M  V30 19335 C 1856.24 -1.97975 -0.618099 0
M  V30 19336 C 1856.67 -0.943068 -1.62751 0
M  V30 19337 O 1856.02 0.0921045 -1.81066 0
M  V30 19338 C 1856.07 -3.37533 -1.26902 0
M  V30 19339 O 1855.18 -3.36451 -2.38483 0
M  V30 19340 H 1854.52 -0.644553 -0.159524 0
M  V30 19341 H 1857.05 -2.04136 0.137754 0
M  V30 19342 H 1857.06 -3.74571 -1.61742 0
M  V30 19343 H 1855.73 -4.12518 -0.529334 0
M  V30 19344 H 1854.31 -3.11175 -2.05486 0
M  V30 19345 N 1856.49 0.20831 -1.56217 0
M  V30 19346 C 1857.42 1.26115 -1.96513 0
M  V30 19347 C 1858.4 1.48185 -0.835183 0
M  V30 19348 O 1859.59 1.60145 -1.09851 0
M  V30 19349 C 1856.72 2.6082 -2.29326 0
M  V30 19350 C 1855.67 2.53385 -3.44935 0
M  V30 19351 C 1855 3.92241 -3.63388 0
M  V30 19352 C 1856.3 2.07026 -4.79518 0
M  V30 19353 H 1857.99 0.92635 -2.84709 0
M  V30 19354 H 1855.54 0.444169 -1.36979 0
M  V30 19355 H 1857.49 3.34644 -2.56109 0
M  V30 19356 H 1856.22 2.96014 -1.37997 0
M  V30 19357 H 1854.88 1.82018 -3.18222 0
M  V30 19358 H 1854.52 4.24766 -2.69413 0
M  V30 19359 H 1854.22 3.88145 -4.41154 0
M  V30 19360 H 1855.75 4.67707 -3.92533 0
M  V30 19361 H 1857.16 2.70601 -5.05419 0
M  V30 19362 H 1855.56 2.13961 -5.60661 0
M  V30 19363 H 1856.63 1.02298 -4.73986 0
M  V30 19364 N 1857.97 1.50255 0.475528 0
M  V30 19365 C 1859.38 1.53931 1.05651 0
M  V30 19366 C 1859.73 0.340226 1.93228 0
M  V30 19367 O 1858.86 -0.547349 2.09363 0
M  V30 19368 C 1859.45 2.78951 1.92281 0
M  V30 19369 C 1858.01 2.85323 2.45495 0
M  V30 19370 C 1857.16 2.48166 1.2373 0
M  V30 19371 H 1860.11 1.56583 0.258332 0
M  V30 19372 H 1860.13 2.60555 2.77293 0
M  V30 19373 H 1859.64 3.66205 1.28514 0
M  V30 19374 H 1857.74 2.0241 3.12827 0
M  V30 19375 H 1857.86 3.88109 2.80906 0
M  V30 19376 H 1856.22 2.00505 1.57066 0
M  V30 19377 H 1857 3.37722 0.616324 0
M  V30 19378 N 1859.45 -0.728395 1.39758 0
M  V30 19379 C 1860.86 -1.30697 1.33323 0
M  V30 19380 C 1861.21 -1.962 0.000676614 0
M  V30 19381 O 1860.34 -1.96731 -0.90143 0
M  V30 19382 C 1860.93 -2.37656 2.41464 0
M  V30 19383 C 1859.49 -2.91171 2.3853 0
M  V30 19384 C 1858.64 -1.64812 2.23007 0
M  V30 19385 H 1861.59 -0.525429 1.4975 0
M  V30 19386 H 1861.61 -3.18202 2.08633 0
M  V30 19387 H 1861.12 -1.89953 3.38437 0
M  V30 19388 H 1859.22 -3.43137 1.45216 0
M  V30 19389 H 1859.34 -3.43836 3.33637 0
M  V30 19390 H 1857.7 -1.89397 1.70296 0
M  V30 19391 H 1858.48 -1.19151 3.21959 0
M  V30 19392 N 1860.93 -1.25042 -0.959279 0
M  V30 19393 C 1862.2 -1.00297 -1.67928 0
M  V30 19394 C 1862.58 0.47221 -2.05751 0
M  V30 19395 O 1861.93 1.44849 -1.76723 0
M  V30 19396 C 1862.14 -1.93416 -2.90502 0
M  V30 19397 C 1863.49 -2.20992 -3.62557 0
M  V30 19398 O 1864.51 -1.91136 -3.00575 0
M  V30 19399 O 1863.37 -2.71735 -4.74154 0
M  V30 19400 H 1860.47 -0.379984 -0.734535 0
M  V30 19401 H 1863.01 -1.36177 -1.01262 0
M  V30 19402 H 1861.79 -2.93045 -2.59308 0
M  V30 19403 H 1861.41 -1.57904 -3.649 0
M  V30 19404 N 1862.41 1.16121 -1.06553 0
M  V30 19405 C 1863.82 1.68319 -0.807804 0
M  V30 19406 C 1864.17 1.8447 0.668234 0
M  V30 19407 O 1863.29 1.54215 1.51811 0
M  V30 19408 C 1863.89 3.05738 -1.45979 0
M  V30 19409 C 1862.45 3.55046 -1.24977 0
M  V30 19410 C 1861.59 2.30965 -1.53462 0
M  V30 19411 H 1864.55 1.00447 -1.22866 0
M  V30 19412 H 1864.57 3.70266 -0.876556 0
M  V30 19413 H 1864.08 2.93951 -2.53405 0
M  V30 19414 H 1862.18 3.72087 -0.195367 0
M  V30 19415 H 1862.29 4.36979 -1.96433 0
M  V30 19416 H 1860.66 2.36107 -0.955268 0
M  V30 19417 H 1861.44 2.21773 -2.62052 0
M  V30 19418 N 1863.88 0.848487 1.3281 0
M  V30 19419 C 1865.16 0.370395 1.92061 0
M  V30 19420 C 1865.54 -1.14535 1.77327 0
M  V30 19421 O 1864.89 -1.96419 1.16756 0
M  V30 19422 C 1865.1 0.827934 3.39037 0
M  V30 19423 C 1866.45 0.841527 4.16177 0
M  V30 19424 O 1867.47 0.772167 3.4773 0
M  V30 19425 O 1866.33 0.938119 5.38388 0
M  V30 19426 H 1863.42 0.106809 0.820074 0
M  V30 19427 H 1865.97 0.934979 1.4162 0
M  V30 19428 H 1864.74 1.87089 3.43676 0
M  V30 19429 H 1864.37 0.240456 3.96872 0
M  V30 19430 N 1865.36 -1.4549 0.605832 0
M  V30 19431 C 1866.31 -2.27597 -0.13542 0
M  V30 19432 C 1867.3 -1.37219 -0.840222 0
M  V30 19433 O 1868.49 -1.61222 -0.730501 0
M  V30 19434 C 1865.62 -3.24054 -1.1333 0
M  V30 19435 C 1864.7 -4.2192 -0.429427 0
M  V30 19436 N 1865.09 -5.03037 0.527952 0
M  V30 19437 C 1863.39 -4.40829 -0.677207 0
M  V30 19438 C 1864.09 -5.7403 0.941511 0
M  V30 19439 N 1863.07 -5.42849 0.28564 0
M  V30 19440 H 1866.87 -2.87712 0.599924 0
M  V30 19441 H 1864.39 -1.56621 0.429367 0
M  V30 19442 H 1866.38 -3.81608 -1.67872 0
M  V30 19443 H 1865.04 -2.655 -1.86922 0
M  V30 19444 H 1866.05 -5.09938 0.904614 0
M  V30 19445 H 1862.73 -3.93401 -1.39794 0
M  V30 19446 H 1864.12 -6.49219 1.73103 0
M  V30 19447 N 1866.84 -0.344893 -1.5378 0
M  V30 19448 C 1868.09 0.251208 -2.00936 0
M  V30 19449 C 1868.42 1.50449 -1.23269 0
M  V30 19450 O 1867.67 1.93249 -0.308738 0
M  V30 19451 C 1867.97 0.609495 -3.52165 0
M  V30 19452 C 1867.64 -0.547063 -4.47569 0
M  V30 19453 C 1866.3 -0.864456 -4.73372 0
M  V30 19454 C 1868.65 -1.3229 -5.04132 0
M  V30 19455 C 1865.98 -1.96003 -5.52991 0
M  V30 19456 C 1868.33 -2.40874 -5.84947 0
M  V30 19457 C 1866.99 -2.73171 -6.09043 0
M  V30 19458 H 1866.26 0.0919233 -0.735276 0
M  V30 19459 H 1868.91 -0.473086 -1.85564 0
M  V30 19460 H 1867.22 1.41452 -3.65375 0
M  V30 19461 H 1868.91 1.08262 -3.86109 0
M  V30 19462 H 1865.5 -0.289626 -4.2762 0
M  V30 19463 H 1869.69 -1.09095 -4.84161 0
M  V30 19464 H 1864.94 -2.21449 -5.69886 0
M  V30 19465 H 1869.12 -3.01421 -6.27789 0
M  V30 19466 H 1866.74 -3.5819 -6.70525 0
M  V30 19467 N 1868.32 1.57428 -0.0735454 0
M  V30 19468 C 1869.6 1.84962 0.636265 0
M  V30 19469 C 1869.98 0.966341 1.87683 0
M  V30 19470 O 1869.32 0.0330837 2.28476 0
M  V30 19471 C 1869.53 3.35184 0.972251 0
M  V30 19472 C 1870.88 4.02735 1.34499 0
M  V30 19473 O 1871.91 3.3994 1.06393 0
M  V30 19474 O 1870.76 5.13495 1.87043 0
M  V30 19475 H 1867.86 0.764169 0.316187 0
M  V30 19476 H 1870.4 1.69377 -0.104609 0
M  V30 19477 H 1869.18 3.91194 0.0912319 0
M  V30 19478 H 1868.8 3.56038 1.76983 0
M  V30 19479 N 1869.8 -0.200022 1.56326 0
M  V30 19480 C 1871.04 -0.919355 1.79979 0
M  V30 19481 C 1871.37 -1.83997 0.645767 0
M  V30 19482 O 1870.64 -1.92994 -0.336186 0
M  V30 19483 H 1869.22 -0.342469 0.66387 0
M  V30 19484 H 1871.88 -0.206713 1.93801 0
M  V30 19485 H 1870.97 -1.51341 2.72951 0
M  V30 19486 N 1871.27 -1.50505 -0.467553 0
M  V30 19487 C 1872.5 -1.65193 -1.24076 0
M  V30 19488 C 1872.91 -0.336102 -1.86191 0
M  V30 19489 O 1872.26 0.692299 -1.70156 0
M  V30 19490 C 1872.32 -2.68798 -2.38721 0
M  V30 19491 C 1871.98 -4.12256 -1.97216 0
M  V30 19492 C 1872.98 -4.98012 -1.49267 0
M  V30 19493 C 1870.66 -4.58192 -2.05829 0
M  V30 19494 C 1872.66 -6.27753 -1.10477 0
M  V30 19495 C 1870.34 -5.87938 -1.66651 0
M  V30 19496 C 1871.34 -6.72544 -1.19053 0
M  V30 19497 O 1871.03 -7.99867 -0.804197 0
M  V30 19498 H 1870.76 -0.55823 -0.381254 0
M  V30 19499 H 1873.32 -1.97502 -0.564089 0
M  V30 19500 H 1871.55 -2.31739 -3.09571 0
M  V30 19501 H 1873.24 -2.7267 -3.00675 0
M  V30 19502 H 1874 -4.63737 -1.42031 0
M  V30 19503 H 1869.88 -3.92482 -2.41825 0
M  V30 19504 H 1873.42 -6.93743 -0.732554 0
M  V30 19505 H 1869.32 -6.21733 -1.73546 0
M  V30 19506 H 1870.09 -8.13168 -0.932733 0
M  V30 19507 N 1872.75 0.720973 -1.40142 0
M  V30 19508 C 1873.7 1.83506 -1.3998 0
M  V30 19509 C 1874.67 1.64092 -0.257489 0
M  V30 19510 O 1875.85 1.85302 -0.454738 0
M  V30 19511 C 1872.99 3.21163 -1.26288 0
M  V30 19512 C 1872.11 3.52185 -2.5018 0
M  V30 19513 C 1871.24 4.79318 -2.2897 0
M  V30 19514 C 1870.28 5.03228 -3.48465 0
M  V30 19515 N 1869.42 6.21572 -3.26485 0
M  V30 19516 H 1874.26 1.82979 -2.35208 0
M  V30 19517 H 1871.8 0.893911 -1.16823 0
M  V30 19518 H 1873.75 4.00646 -1.16357 0
M  V30 19519 H 1872.38 3.20931 -0.346817 0
M  V30 19520 H 1871.44 2.67297 -2.70659 0
M  V30 19521 H 1872.75 3.65765 -3.39142 0
M  V30 19522 H 1871.9 5.66809 -2.16362 0
M  V30 19523 H 1870.64 4.67938 -1.37424 0
M  V30 19524 H 1869.65 4.14194 -3.61557 0
M  V30 19525 H 1870.87 5.16484 -4.40932 0
M  V30 19526 H 1868.82 6.11453 -2.37616 0
M  V30 19527 H 1868.73 6.35804 -4.0901 0
M  V30 19528 H 1870 7.11865 -3.17599 0
M  V30 19529 N 1874.23 1.25549 0.952634 0
M  V30 19530 C 1875.16 1.01898 2.05304 0
M  V30 19531 C 1876.18 -0.0167609 1.62791 0
M  V30 19532 O 1877.36 0.222021 1.77114 0
M  V30 19533 C 1874.46 0.518856 3.34905 0
M  V30 19534 C 1873.64 1.62121 4.06246 0
M  V30 19535 C 1872.7 1.12111 5.14118 0
M  V30 19536 O 1871.72 1.81591 5.39456 0
M  V30 19537 N 1872.92 -0.0365454 5.80488 0
M  V30 19538 H 1875.69 1.96648 2.26163 0
M  V30 19539 H 1873.25 1.16782 1.12132 0
M  V30 19540 H 1875.24 0.168729 4.04348 0
M  V30 19541 H 1873.81 -0.334763 3.10802 0
M  V30 19542 H 1873.03 2.14282 3.30873 0
M  V30 19543 H 1874.32 2.36173 4.50666 0
M  V30 19544 H 1873.72 -0.617055 5.62325 0
M  V30 19545 H 1872.28 -0.327688 6.50976 0
M  V30 19546 N 1875.71 -1.15554 1.07168 0
M  V30 19547 C 1876.64 -2.19841 0.648285 0
M  V30 19548 C 1877.65 -1.60045 -0.298247 0
M  V30 19549 O 1878.84 -1.78284 -0.0878565 0
M  V30 19550 C 1875.94 -3.38831 -0.068586 0
M  V30 19551 C 1875.12 -4.28173 0.89366 0
M  V30 19552 C 1874.17 -5.25763 0.214424 0
M  V30 19553 O 1873.2 -5.62744 0.854883 0
M  V30 19554 N 1874.4 -5.71096 -1.04063 0
M  V30 19555 H 1877.17 -2.56784 1.54539 0
M  V30 19556 H 1874.73 -1.30652 0.956127 0
M  V30 19557 H 1876.72 -4.01167 -0.533614 0
M  V30 19558 H 1875.29 -3.00319 -0.86761 0
M  V30 19559 H 1874.51 -3.62965 1.53785 0
M  V30 19560 H 1875.8 -4.84739 1.54613 0
M  V30 19561 H 1875.2 -5.4316 -1.58095 0
M  V30 19562 H 1873.75 -6.35481 -1.44937 0
M  V30 19563 N 1877.19 -0.855519 -1.32358 0
M  V30 19564 C 1878.15 -0.305794 -2.27151 0
M  V30 19565 C 1879.15 0.535008 -1.51639 0
M  V30 19566 O 1880.34 0.346394 -1.70721 0
M  V30 19567 C 1877.47 0.567275 -3.36147 0
M  V30 19568 H 1878.67 -1.14245 -2.77287 0
M  V30 19569 H 1876.22 -0.629924 -1.43044 0
M  V30 19570 H 1876.95 1.42571 -2.9128 0
M  V30 19571 H 1876.74 -0.0345714 -3.92085 0
M  V30 19572 H 1878.23 0.944644 -4.06775 0
M  V30 19573 N 1878.67 1.45167 -0.61354 0
M  V30 19574 C 1879.91 2.02495 -0.111227 0
M  V30 19575 C 1880.24 1.48015 1.25719 0
M  V30 19576 O 1879.52 0.657188 1.83061 0
M  V30 19577 C 1879.8 3.60014 -0.07876 0
M  V30 19578 C 1879.66 4.24814 -1.47827 0
M  V30 19579 C 1880.97 4.35908 0.605964 0
M  V30 19580 H 1878.09 0.735808 -0.0418931 0
M  V30 19581 H 1880.74 1.7295 -0.786651 0
M  V30 19582 H 1878.89 3.85315 0.496411 0
M  V30 19583 H 1880.56 4.10678 -2.10097 0
M  V30 19584 H 1878.8 3.82986 -2.03726 0
M  V30 19585 H 1879.47 5.33748 -1.40774 0
M  V30 19586 H 1881.95 4.15935 0.117019 0
M  V30 19587 H 1880.82 5.45635 0.597808 0
M  V30 19588 H 1881.08 4.09216 1.67315 0
M  V30 19589 N 1880.14 0.353044 1.53595 0
M  V30 19590 C 1881.39 -0.240904 2.01364 0
M  V30 19591 C 1881.72 -1.49438 1.24023 0
M  V30 19592 O 1881 -1.91672 0.330451 0
M  V30 19593 C 1881.28 -0.545497 3.55944 0
M  V30 19594 C 1881.13 0.720742 4.43988 0
M  V30 19595 C 1882.45 -1.35124 4.18843 0
M  V30 19596 H 1879.57 -0.0860838 0.731955 0
M  V30 19597 H 1882.21 0.475459 1.83955 0
M  V30 19598 H 1880.36 -1.15578 3.7091 0
M  V30 19599 H 1882.04 1.35852 4.40842 0
M  V30 19600 H 1880.28 1.34369 4.12465 0
M  V30 19601 H 1880.95 0.462749 5.50057 0
M  V30 19602 H 1883.43 -0.835104 4.07634 0
M  V30 19603 H 1882.3 -1.53311 5.27055 0
M  V30 19604 H 1882.56 -2.35612 3.74085 0
M  V30 19605 N 1881.62 -1.57387 0.0818932 0
M  V30 19606 C 1882.87 -1.93045 -0.584519 0
M  V30 19607 C 1883.18 -0.96473 -1.70154 0
M  V30 19608 O 1884.39 -1.21451 -2.42821 0
M  V30 19609 C 1882.85 -3.42962 -1.0911 0
M  V30 19610 C 1882.45 -4.48 -0.00454233 0
M  V30 19611 C 1884.2 -3.87604 -1.731 0
M  V30 19612 C 1882.1 -5.89059 -0.525733 0
M  V30 19613 H 1881.03 -0.720543 -0.222112 0
M  V30 19614 H 1883.69 -1.82838 0.155762 0
M  V30 19615 H 1882.07 -3.48277 -1.88466 0
M  V30 19616 H 1883.24 -4.54314 0.770444 0
M  V30 19617 H 1881.56 -4.12887 0.539739 0
M  V30 19618 H 1884.15 -4.90382 -2.13143 0
M  V30 19619 H 1884.5 -3.25524 -2.59499 0
M  V30 19620 H 1885.03 -3.84935 -1.00349 0
M  V30 19621 H 1881.77 -6.54807 0.301333 0
M  V30 19622 H 1881.29 -5.86243 -1.26802 0
M  V30 19623 H 1882.97 -6.39242 -0.998928 0
M  V30 19624 N 1883.1 0.191729 -1.56429 0
M  V30 19625 C 1884.03 1.26574 -1.8988 0
M  V30 19626 C 1885.01 1.43785 -0.759261 0
M  V30 19627 O 1886.19 1.5912 -1.01059 0
M  V30 19628 C 1883.32 2.63185 -2.13193 0
M  V30 19629 C 1882.37 2.62826 -3.35894 0
M  V30 19630 S 1883.2 2.13925 -4.90914 0
M  V30 19631 C 1884.36 3.52354 -5.17298 0
M  V30 19632 H 1884.59 0.980119 -2.80679 0
M  V30 19633 H 1882.12 0.395377 -1.49252 0
M  V30 19634 H 1884.08 3.41821 -2.27307 0
M  V30 19635 H 1882.74 2.88957 -1.23137 0
M  V30 19636 H 1881.93 3.63284 -3.49343 0
M  V30 19637 H 1881.54 1.92273 -3.20791 0
M  V30 19638 H 1883.83 4.48238 -5.08025 0
M  V30 19639 H 1884.77 3.43797 -6.19039 0
M  V30 19640 H 1885.18 3.47422 -4.44925 0
M  V30 19641 N 1884.58 1.50751 0.459565 0
M  V30 19642 C 1885.85 1.5284 1.22062 0
M  V30 19643 C 1886.23 0.279716 2.09239 0
M  V30 19644 O 1885.58 -0.73634 2.16311 0
M  V30 19645 C 1885.79 2.83046 2.04171 0
M  V30 19646 C 1887.14 3.34151 2.6197 0
M  V30 19647 O 1888.16 2.84446 2.14403 0
M  V30 19648 O 1887.02 4.20824 3.48668 0
M  V30 19649 H 1884.12 0.613549 0.554515 0
M  V30 19650 H 1886.66 1.63049 0.470445 0
M  V30 19651 H 1885.44 3.65397 1.40004 0
M  V30 19652 H 1885.06 2.75896 2.86299 0
M  V30 19653 N 1886.06 -0.713531 1.40522 0
M  V30 19654 C 1887.33 -1.46672 1.29409 0
M  V30 19655 C 1887.71 -2.10922 -0.0866293 0
M  V30 19656 O 1887.06 -2.00303 -1.09959 0
M  V30 19657 C 1887.27 -2.50076 2.4344 0
M  V30 19658 C 1888.62 -3.15848 2.8377 0
M  V30 19659 O 1889.64 -2.60396 2.43048 0
M  V30 19660 O 1888.5 -4.16238 3.5413 0
M  V30 19661 H 1885.6 -0.652333 0.508322 0
M  V30 19662 H 1888.14 -0.745531 1.52446 0
M  V30 19663 H 1886.91 -2.01129 3.35653 0
M  V30 19664 H 1886.54 -3.29728 2.22183 0
M  V30 19665 N 1887.53 -1.26053 -0.945962 0
M  V30 19666 C 1888.46 -1.09687 -2.06134 0
M  V30 19667 C 1889.44 -0.00341513 -1.701 0
M  V30 19668 O 1890.63 -0.174559 -1.93414 0
M  V30 19669 C 1887.76 -0.724007 -3.3967 0
M  V30 19670 C 1886.71 -1.76866 -3.89747 0
M  V30 19671 C 1886.04 -1.25025 -5.19878 0
M  V30 19672 C 1887.34 -3.16923 -4.15159 0
M  V30 19673 H 1889.03 -2.02986 -2.20084 0
M  V30 19674 H 1886.58 -0.977346 -1.05754 0
M  V30 19675 H 1888.53 -0.596411 -4.17158 0
M  V30 19676 H 1887.26 0.244695 -3.25682 0
M  V30 19677 H 1885.92 -1.88485 -3.14435 0
M  V30 19678 H 1885.56 -0.271527 -5.02267 0
M  V30 19679 H 1885.26 -1.94853 -5.54352 0
M  V30 19680 H 1886.79 -1.13523 -5.99954 0
M  V30 19681 H 1888.2 -3.08409 -4.83277 0
M  V30 19682 H 1886.6 -3.84299 -4.60906 0
M  V30 19683 H 1887.67 -3.63337 -3.21114 0
M  V30 19684 N 1889.01 1.14984 -1.07779 0
M  V30 19685 C 1890.25 1.87536 -0.813003 0
M  V30 19686 C 1890.62 1.80691 0.649222 0
M  V30 19687 O 1891.82 2.48314 1.02924 0
M  V30 19688 C 1890.09 3.32424 -1.3126 0
M  V30 19689 S 1891.65 4.2266 -1.17914 0
M  V30 19690 H 1888.46 0.647142 -0.294496 0
M  V30 19691 H 1891.07 1.387 -1.37778 0
M  V30 19692 H 1889.77 3.34952 -2.3714 0
M  V30 19693 H 1889.3 3.86316 -0.743218 0
M  V30 19694 H 1891.32 4.96056 -0.119394 0
M  V30 19695 N 1890.49 0.862526 1.31902 0
M  V30 19696 C 1891.42 0.270103 2.27603 0
M  V30 19697 C 1892.43 -0.562639 1.52768 0
M  V30 19698 O 1893.62 -0.385845 1.7428 0
M  V30 19699 C 1890.72 -0.636314 3.32873 0
M  V30 19700 C 1889.9 0.162327 4.37099 0
M  V30 19701 C 1888.96 -0.67107 5.21903 0
M  V30 19702 O 1887.98 -0.101765 5.69109 0
M  V30 19703 N 1889.18 -1.98441 5.45529 0
M  V30 19704 H 1891.95 1.09248 2.79079 0
M  V30 19705 H 1889.51 0.723275 1.44846 0
M  V30 19706 H 1891.5 -1.19937 3.86519 0
M  V30 19707 H 1890.07 -1.35936 2.81496 0
M  V30 19708 H 1889.29 0.906824 3.83628 0
M  V30 19709 H 1890.58 0.710602 5.03813 0
M  V30 19710 H 1889.98 -2.47017 5.0892 0
M  V30 19711 H 1888.53 -2.49542 6.0214 0
M  V30 19712 N 1891.97 -1.4484 0.62123 0
M  V30 19713 C 1892.92 -2.30626 -0.0895817 0
M  V30 19714 C 1893.89 -1.42906 -0.846593 0
M  V30 19715 O 1895.07 -1.7182 -0.829611 0
M  V30 19716 C 1892.21 -3.28032 -1.07188 0
M  V30 19717 C 1891.32 -4.30855 -0.314319 0
M  V30 19718 C 1890.46 -5.1536 -1.28755 0
M  V30 19719 C 1889.5 -6.09899 -0.518581 0
M  V30 19720 N 1888.63 -6.87137 -1.44178 0
M  V30 19721 H 1893.47 -2.90871 0.64793 0
M  V30 19722 H 1891.01 -1.4332 0.33131 0
M  V30 19723 H 1892.97 -3.82984 -1.65467 0
M  V30 19724 H 1891.6 -2.6951 -1.77664 0
M  V30 19725 H 1890.65 -3.78455 0.38422 0
M  V30 19726 H 1891.96 -4.97985 0.285042 0
M  V30 19727 H 1891.12 -5.7478 -1.94198 0
M  V30 19728 H 1889.86 -4.4828 -1.92084 0
M  V30 19729 H 1888.86 -5.49597 0.149399 0
M  V30 19730 H 1890.09 -6.79011 0.109851 0
M  V30 19731 H 1888.03 -6.22735 -2.06246 0
M  V30 19732 H 1887.95 -7.50669 -0.896192 0
M  V30 19733 H 1889.22 -7.51088 -2.08536 0
M  V30 19734 N 1893.45 -0.361184 -1.53405 0
M  V30 19735 C 1894.86 0.118972 -1.86321 0
M  V30 19736 C 1895.21 1.48531 -1.28191 0
M  V30 19737 O 1894.33 2.07851 -0.602253 0
M  V30 19738 C 1894.93 0.222658 -3.38068 0
M  V30 19739 C 1893.49 0.647065 -3.70796 0
M  V30 19740 C 1892.63 -0.208424 -2.76516 0
M  V30 19741 H 1895.59 -0.580142 -1.47716 0
M  V30 19742 H 1895.61 1.04702 -3.65811 0
M  V30 19743 H 1895.12 -0.771922 -3.80346 0
M  V30 19744 H 1893.22 1.65003 -3.34073 0
M  V30 19745 H 1893.33 0.424724 -4.77214 0
M  V30 19746 H 1891.7 0.322011 -2.52656 0
M  V30 19747 H 1892.48 -1.20046 -3.21627 0
M  V30 19748 N 1894.92 1.57341 -0.0902386 0
M  V30 19749 C 1896.2 1.85627 0.616611 0
M  V30 19750 C 1896.58 0.986193 1.86648 0
M  V30 19751 O 1895.93 0.0573148 2.28428 0
M  V30 19752 C 1896.14 3.36196 0.936645 0
M  V30 19753 C 1897.49 4.04139 1.30219 0
M  V30 19754 O 1898.51 3.41049 1.02781 0
M  V30 19755 O 1897.37 5.1545 1.81586 0
M  V30 19756 H 1894.46 0.76748 0.308065 0
M  V30 19757 H 1897.01 1.69257 -0.122568 0
M  V30 19758 H 1895.78 3.91268 0.0497354 0
M  V30 19759 H 1895.41 3.57895 1.73197 0
M  V30 19760 N 1896.4 -0.183431 1.56529 0
M  V30 19761 C 1897.65 -0.900214 1.80944 0
M  V30 19762 C 1897.97 -1.83302 0.665246 0
M  V30 19763 O 1897.24 -1.9334 -0.315697 0
M  V30 19764 H 1895.82 -0.335409 0.667465 0
M  V30 19765 H 1898.48 -0.186146 1.94009 0
M  V30 19766 H 1897.58 -1.48437 2.74541 0
M  V30 19767 N 1897.88 -1.50992 -0.451564 0
M  V30 19768 C 1898.83 -1.71277 -1.54703 0
M  V30 19769 C 1899.8 -0.554233 -1.56581 0
M  V30 19770 O 1900.98 -0.787053 -1.73811 0
M  V30 19771 C 1898.12 -1.83078 -2.92535 0
M  V30 19772 C 1897.24 -3.10559 -3.00295 0
M  V30 19773 C 1896.37 -3.13039 -4.29162 0
M  V30 19774 C 1895.41 -4.34893 -4.30737 0
M  V30 19775 N 1894.55 -4.35002 -5.51106 0
M  V30 19776 H 1899.39 -2.64791 -1.3671 0
M  V30 19777 H 1896.92 -1.31243 -0.664356 0
M  V30 19778 H 1898.88 -1.87901 -3.7249 0
M  V30 19779 H 1897.51 -0.929851 -3.09117 0
M  V30 19780 H 1896.56 -3.15113 -2.13091 0
M  V30 19781 H 1897.88 -4.00503 -2.9732 0
M  V30 19782 H 1897.03 -3.167 -5.17481 0
M  V30 19783 H 1895.77 -2.20959 -4.34774 0
M  V30 19784 H 1894.77 -4.31423 -3.40814 0
M  V30 19785 H 1896 -5.28221 -4.26801 0
M  V30 19786 H 1893.94 -3.45785 -5.57466 0
M  V30 19787 H 1893.86 -5.18738 -5.49952 0
M  V30 19788 H 1895.13 -4.42836 -6.41496 0
M  V30 19789 N 1899.36 0.706069 -1.40899 0
M  V30 19790 C 1900.64 1.45984 -1.30185 0
M  V30 19791 C 1901.02 2.10965 0.0754423 0
M  V30 19792 O 1900.36 2.00883 1.08896 0
M  V30 19793 C 1900.57 2.48782 -2.44762 0
M  V30 19794 C 1901.92 3.14339 -2.85441 0
M  V30 19795 O 1902.95 2.59104 -2.44425 0
M  V30 19796 O 1901.8 4.14354 -3.56333 0
M  V30 19797 H 1898.9 0.649628 -0.511774 0
M  V30 19798 H 1901.44 0.737436 -1.5284 0
M  V30 19799 H 1900.22 1.99346 -3.36715 0
M  V30 19800 H 1899.84 3.28545 -2.23929 0
M  V30 19801 N 1900.84 1.26553 0.939264 0
M  V30 19802 C 1902.08 1.12376 1.68818 0
M  V30 19803 C 1902.42 -0.331784 1.91345 0
M  V30 19804 O 1901.69 -1.24359 1.4955 0
M  V30 19805 C 1901.97 1.89541 3.0618 0
M  V30 19806 C 1901.83 3.43014 2.90966 0
M  V30 19807 C 1903.15 1.69074 4.06327 0
M  V30 19808 H 1900.26 0.409616 0.612686 0
M  V30 19809 H 1902.91 1.55571 1.09076 0
M  V30 19810 H 1901.06 1.5283 3.57177 0
M  V30 19811 H 1902.73 3.89489 2.47176 0
M  V30 19812 H 1900.97 3.69942 2.26551 0
M  V30 19813 H 1901.64 3.92236 3.88401 0
M  V30 19814 H 1904.12 2.01061 3.64299 0
M  V30 19815 H 1902.99 2.25478 5.00451 0
M  V30 19816 H 1903.26 0.635787 4.37504 0
M  V30 19817 N 1902.31 -1.14411 1.08387 0
M  V30 19818 C 1903.54 -1.89848 0.835015 0
M  V30 19819 C 1903.96 -1.78034 -0.607091 0
M  V30 19820 O 1903.32 -1.12039 -1.42538 0
M  V30 19821 C 1903.37 -3.37818 1.26141 0
M  V30 19822 O 1902.47 -4.10325 0.41322 0
M  V30 19823 H 1901.82 -0.590682 0.303299 0
M  V30 19824 H 1904.35 -1.44823 1.44525 0
M  V30 19825 H 1904.36 -3.88631 1.24218 0
M  V30 19826 H 1903.03 -3.45735 2.31172 0
M  V30 19827 H 1901.61 -3.69589 0.495854 0
M  V30 19828 N 1903.79 -0.869509 -1.31443 0
M  V30 19829 C 1904.72 -0.340679 -2.31001 0
M  V30 19830 C 1905.7 0.568186 -1.6033 0
M  V30 19831 O 1906.89 0.485305 -1.88038 0
M  V30 19832 C 1904.02 0.45909 -3.44252 0
M  V30 19833 C 1902.97 -0.356639 -4.26512 0
M  V30 19834 C 1902.3 0.568786 -5.31666 0
M  V30 19835 C 1903.6 -1.59045 -4.97496 0
M  V30 19836 H 1905.29 -1.1726 -2.75482 0
M  V30 19837 H 1902.84 -0.5653 -1.3244 0
M  V30 19838 H 1904.79 0.839573 -4.12952 0
M  V30 19839 H 1903.52 1.32451 -2.98537 0
M  V30 19840 H 1902.17 -0.719063 -3.59479 0
M  V30 19841 H 1901.82 1.43148 -4.82201 0
M  V30 19842 H 1901.52 0.0268906 -5.87594 0
M  V30 19843 H 1903.05 0.946122 -6.03225 0
M  V30 19844 H 1904.46 -1.28144 -5.58795 0
M  V30 19845 H 1902.86 -2.07139 -5.63217 0
M  V30 19846 H 1903.93 -2.34354 -4.24507 0
M  V30 19847 N 1905.27 1.44508 -0.628902 0
M  V30 19848 C 1906.52 2.02066 -0.132502 0
M  V30 19849 C 1906.85 1.49446 1.24483 0
M  V30 19850 O 1906.1 0.667881 1.83951 0
M  V30 19851 C 1906.4 3.57339 -0.0660437 0
M  V30 19852 C 1906.07 4.29203 -1.38186 0
M  V30 19853 C 1904.73 4.48552 -1.74225 0
M  V30 19854 C 1907.08 4.70108 -2.25051 0
M  V30 19855 C 1904.41 5.06066 -2.96839 0
M  V30 19856 C 1906.76 5.2898 -3.46934 0
M  V30 19857 C 1905.42 5.46549 -3.83198 0
M  V30 19858 H 1904.69 0.739412 -0.048486 0
M  V30 19859 H 1907.34 1.73302 -0.814773 0
M  V30 19860 H 1905.65 3.85504 0.699588 0
M  V30 19861 H 1907.34 3.99602 0.334526 0
M  V30 19862 H 1903.93 4.14471 -1.09141 0
M  V30 19863 H 1908.12 4.54874 -1.98503 0
M  V30 19864 H 1903.37 5.17856 -3.25016 0
M  V30 19865 H 1907.55 5.59626 -4.14478 0
M  V30 19866 H 1905.17 5.90881 -4.78292 0
M  V30 19867 N 1906.75 0.369315 1.53212 0
M  V30 19868 C 1907.99 -0.219233 2.03221 0
M  V30 19869 C 1908.35 -1.45689 1.25055 0
M  V30 19870 O 1909.55 -2.1213 1.65089 0
M  V30 19871 C 1907.83 -0.500368 3.5388 0
M  V30 19872 S 1909.38 -1.06205 4.25753 0
M  V30 19873 H 1906.2 -0.0635239 0.708157 0
M  V30 19874 H 1908.8 0.513044 1.88648 0
M  V30 19875 H 1907.51 0.407823 4.08369 0
M  V30 19876 H 1907.04 -1.26162 3.72622 0
M  V30 19877 H 1909.05 -2.34602 4.37237 0
M  V30 19878 N 1908.23 -1.57291 0.0985816 0
M  V30 19879 C 1909.16 -2.11249 -0.889184 0
M  V30 19880 C 1910.17 -1.05051 -1.24371 0
M  V30 19881 O 1911.36 -1.32488 -1.19621 0
M  V30 19882 C 1908.46 -2.58021 -2.19724 0
M  V30 19883 C 1907.63 -3.88091 -2.01752 0
M  V30 19884 C 1906.69 -4.20674 -3.16101 0
M  V30 19885 O 1905.72 -4.89837 -2.89911 0
M  V30 19886 N 1906.92 -3.76356 -4.41969 0
M  V30 19887 H 1909.69 -2.96624 -0.42832 0
M  V30 19888 H 1907.25 -1.61669 -0.0864254 0
M  V30 19889 H 1909.24 -2.76861 -2.95178 0
M  V30 19890 H 1907.81 -1.77638 -2.57223 0
M  V30 19891 H 1907.03 -3.78364 -1.10608 0
M  V30 19892 H 1908.32 -4.7318 -1.87026 0
M  V30 19893 H 1907.72 -3.20533 -4.66128 0
M  V30 19894 H 1906.27 -4.00344 -5.14361 0
M  V30 19895 N 1909.71 0.175127 -1.56624 0
M  V30 19896 C 1910.64 1.24553 -1.91211 0
M  V30 19897 C 1911.62 1.42971 -0.774469 0
M  V30 19898 O 1912.8 1.58039 -1.02741 0
M  V30 19899 C 1909.93 2.60909 -2.15972 0
M  V30 19900 C 1908.97 2.59248 -3.38663 0
M  V30 19901 S 1909.81 2.08707 -4.93155 0
M  V30 19902 C 1910.96 3.46847 -5.21006 0
M  V30 19903 H 1911.2 0.950294 -2.81703 0
M  V30 19904 H 1908.73 0.379524 -1.49663 0
M  V30 19905 H 1910.69 3.39391 -2.30919 0
M  V30 19906 H 1909.35 2.87635 -1.26195 0
M  V30 19907 H 1908.54 3.59558 -3.53177 0
M  V30 19908 H 1908.14 1.8886 -3.22812 0
M  V30 19909 H 1910.43 4.42824 -5.1275 0
M  V30 19910 H 1911.38 3.37211 -6.22651 0
M  V30 19911 H 1911.79 3.42683 -4.48585 0
M  V30 19912 N 1911.18 1.5123 0.44355 0
M  V30 19913 C 1912.43 1.63833 1.19527 0
M  V30 19914 C 1912.76 0.350544 1.9101 0
M  V30 19915 O 1912.04 -0.649546 1.83333 0
M  V30 19916 C 1912.32 2.83747 2.21719 0
M  V30 19917 C 1912.17 4.22484 1.5436 0
M  V30 19918 C 1913.49 2.99184 3.22765 0
M  V30 19919 H 1910.61 0.596256 0.433184 0
M  V30 19920 H 1913.25 1.83697 0.485321 0
M  V30 19921 H 1911.4 2.66942 2.82267 0
M  V30 19922 H 1913.08 4.50944 0.971976 0
M  V30 19923 H 1911.32 4.25469 0.846069 0
M  V30 19924 H 1911.99 5.0237 2.28754 0
M  V30 19925 H 1914.47 3.14659 2.72266 0
M  V30 19926 H 1913.34 3.84663 3.91569 0
M  V30 19927 H 1913.6 2.10984 3.88508 0
M  V30 19928 N 1912.66 -0.698586 1.41271 0
M  V30 19929 C 1913.89 -1.49247 1.44014 0
M  V30 19930 C 1914.31 -1.88043 0.0461888 0
M  V30 19931 O 1913.67 -1.54426 -0.94986 0
M  V30 19932 C 1913.72 -2.73334 2.35204 0
M  V30 19933 O 1912.82 -3.70704 1.807 0
M  V30 19934 H 1912.16 -0.449313 0.488891 0
M  V30 19935 H 1914.69 -0.858936 1.85697 0
M  V30 19936 H 1914.7 -3.21676 2.50975 0
M  V30 19937 H 1913.38 -2.44433 3.3649 0
M  V30 19938 H 1911.95 -3.29624 1.74363 0
M  V30 19939 N 1914.14 -1.27049 -0.93254 0
M  V30 19940 C 1915.36 -1.16011 -1.71919 0
M  V30 19941 C 1915.79 0.279951 -1.86005 0
M  V30 19942 O 1915.15 1.20279 -1.35657 0
M  V30 19943 C 1915.2 -1.84349 -3.09916 0
M  V30 19944 O 1914.3 -1.13816 -3.96383 0
M  V30 19945 H 1913.64 -0.403752 -0.527144 0
M  V30 19946 H 1916.17 -1.6803 -1.16736 0
M  V30 19947 H 1916.18 -1.91516 -3.60258 0
M  V30 19948 H 1914.86 -2.89109 -2.9898 0
M  V30 19949 H 1913.43 -1.14684 -3.54827 0
M  V30 19950 N 1915.62 1.13835 -1.08993 0
M  V30 19951 C 1916.86 1.85284 -0.824476 0
M  V30 19952 C 1917.2 1.83062 0.648235 0
M  V30 19953 O 1916.47 1.26555 1.47696 0
M  V30 19954 C 1916.75 3.33649 -1.35463 0
M  V30 19955 C 1916.61 3.44411 -2.89312 0
M  V30 19956 C 1917.93 4.28941 -0.984768 0
M  V30 19957 H 1915.05 0.672745 -0.300971 0
M  V30 19958 H 1917.69 1.3364 -1.35057 0
M  V30 19959 H 1915.84 3.77761 -0.907128 0
M  V30 19960 H 1917.51 3.09043 -3.42477 0
M  V30 19961 H 1915.75 2.85429 -3.26669 0
M  V30 19962 H 1916.42 4.48724 -3.21481 0
M  V30 19963 H 1918.9 3.92877 -1.37064 0
M  V30 19964 H 1917.78 5.31196 -1.38283 0
M  V30 19965 H 1918.04 4.41969 0.10755 0
M  V30 19966 N 1917.1 0.876467 1.3098 0
M  V30 19967 C 1918.37 0.411051 1.91232 0
M  V30 19968 C 1918.75 -1.10748 1.79717 0
M  V30 19969 O 1918.1 -1.93898 1.20896 0
M  V30 19970 C 1918.31 0.899663 3.37205 0
M  V30 19971 C 1919.66 0.929615 4.14299 0
M  V30 19972 O 1920.68 0.845752 3.46014 0
M  V30 19973 O 1919.54 1.05211 5.36277 0
M  V30 19974 H 1916.64 0.12418 0.817624 0
M  V30 19975 H 1919.18 0.964808 1.39605 0
M  V30 19976 H 1917.95 1.94336 3.39631 0
M  V30 19977 H 1917.58 0.324585 3.96273 0
M  V30 19978 N 1918.57 -1.44173 0.636557 0
M  V30 19979 C 1919.82 -2.01993 0.143216 0
M  V30 19980 C 1920.15 -1.50104 -1.23689 0
M  V30 19981 O 1919.4 -0.677627 -1.83594 0
M  V30 19982 C 1919.7 -3.57299 0.0849933 0
M  V30 19983 C 1919.37 -4.28464 1.40461 0
M  V30 19984 C 1918.03 -4.47622 1.76601 0
M  V30 19985 C 1920.38 -4.68908 2.27541 0
M  V30 19986 C 1917.71 -5.04485 2.99519 0
M  V30 19987 C 1920.06 -5.27133 3.49734 0
M  V30 19988 C 1918.73 -5.44509 3.86091 0
M  V30 19989 H 1918 -0.739144 0.0524066 0
M  V30 19990 H 1920.64 -1.72868 0.823952 0
M  V30 19991 H 1918.95 -3.85869 -0.679134 0
M  V30 19992 H 1920.65 -3.99774 -0.31333 0
M  V30 19993 H 1917.24 -4.13886 1.11337 0
M  V30 19994 H 1921.42 -4.53815 2.00913 0
M  V30 19995 H 1916.68 -5.16125 3.27758 0
M  V30 19996 H 1920.85 -5.5742 4.1744 0
M  V30 19997 H 1918.48 -5.88336 4.81419 0
M  V30 19998 N 1920.05 -0.377435 -1.53014 0
M  V30 19999 C 1921.3 0.208838 -2.01722 0
M  V30 20000 C 1921.63 1.47446 -1.26385 0
M  V30 20001 O 1920.91 1.91122 -0.360903 0
M  V30 20002 C 1921.19 0.4888 -3.56767 0
M  V30 20003 C 1921.04 -0.791285 -4.42785 0
M  V30 20004 C 1922.36 1.28443 -4.2094 0
M  V30 20005 H 1919.48 0.0744281 -0.733232 0
M  V30 20006 H 1922.12 -0.504664 -1.83175 0
M  V30 20007 H 1920.27 1.09662 -3.72702 0
M  V30 20008 H 1921.94 -1.42848 -4.38625 0
M  V30 20009 H 1920.19 -1.40914 -4.10275 0
M  V30 20010 H 1920.86 -0.550199 -5.49251 0
M  V30 20011 H 1923.33 0.770147 -4.08911 0
M  V30 20012 H 1922.21 1.44906 -5.29427 0
M  V30 20013 H 1922.47 2.29631 -3.77786 0
M  V30 20014 N 1921.53 1.57237 -0.106922 0
M  V30 20015 C 1922.94 1.81906 0.420368 0
M  V30 20016 C 1923.29 1.02332 1.67399 0
M  V30 20017 O 1922.42 0.256247 2.14877 0
M  V30 20018 C 1923.01 3.29947 0.769432 0
M  V30 20019 C 1921.57 3.55339 1.24141 0
M  V30 20020 C 1920.72 2.76224 0.243997 0
M  V30 20021 H 1923.67 1.55184 -0.332216 0
M  V30 20022 H 1923.69 3.43916 1.62794 0
M  V30 20023 H 1923.2 3.87836 -0.14316 0
M  V30 20024 H 1921.3 3.02795 2.17131 0
M  V30 20025 H 1921.42 4.63956 1.19508 0
M  V30 20026 H 1919.78 2.44057 0.728574 0
M  V30 20027 H 1920.56 3.36867 -0.661482 0
M  V30 20028 N 1923.01 -0.166818 1.56715 0
M  V30 20029 C 1924.42 -0.728845 1.71886 0
M  V30 20030 C 1924.77 -1.82584 0.718168 0
M  V30 20031 O 1923.9 -2.1607 -0.119503 0
M  V30 20032 C 1924.49 -1.32885 3.11652 0
M  V30 20033 C 1923.05 -1.83766 3.28492 0
M  V30 20034 C 1922.2 -0.718371 2.67833 0
M  V30 20035 H 1925.15 0.0586298 1.58592 0
M  V30 20036 H 1925.17 -2.19858 3.10552 0
M  V30 20037 H 1924.68 -0.530219 3.84461 0
M  V30 20038 H 1922.78 -2.66259 2.60647 0
M  V30 20039 H 1922.89 -1.98 4.36271 0
M  V30 20040 H 1921.26 -1.13996 2.27765 0
M  V30 20041 H 1922.04 0.0684914 3.43232 0
M  V30 20042 N 1924.49 -1.51463 -0.435524 0
M  V30 20043 C 1925.42 -1.67594 -1.54879 0
M  V30 20044 C 1926.4 -0.523516 -1.53942 0
M  V30 20045 O 1927.58 -0.747582 -1.73042 0
M  V30 20046 C 1924.71 -1.69117 -2.93457 0
M  V30 20047 C 1923.75 -2.90346 -3.12413 0
M  V30 20048 S 1924.59 -4.51129 -2.88518 0
M  V30 20049 C 1925.74 -4.554 -4.29374 0
M  V30 20050 H 1925.98 -2.61757 -1.40963 0
M  V30 20051 H 1923.51 -1.4117 -0.625338 0
M  V30 20052 H 1925.47 -1.70679 -3.73335 0
M  V30 20053 H 1924.13 -0.761275 -3.04735 0
M  V30 20054 H 1923.32 -2.87818 -4.13735 0
M  V30 20055 H 1922.92 -2.86534 -2.40362 0
M  V30 20056 H 1925.22 -4.31152 -5.22603 0
M  V30 20057 H 1926.16 -5.5722 -4.36935 0
M  V30 20058 H 1926.57 -3.84704 -4.13113 0
M  V30 20059 N 1925.96 0.691085 -1.4164 0
M  V30 20060 C 1926.93 1.78671 -1.43559 0
M  V30 20061 C 1927.93 1.5747 -0.325543 0
M  V30 20062 O 1929.12 1.64061 -0.585631 0
M  V30 20063 C 1926.25 3.17102 -1.25135 0
M  V30 20064 H 1927.44 1.78361 -2.41096 0
M  V30 20065 H 1925 0.899148 -1.27848 0
M  V30 20066 H 1925.73 3.23049 -0.284567 0
M  V30 20067 H 1925.52 3.33893 -2.05567 0
M  V30 20068 H 1927.01 3.97071 -1.29324 0
M  V30 20069 N 1927.44 1.27542 0.925789 0
M  V30 20070 C 1928.41 1.10471 2.0082 0
M  V30 20071 C 1929.41 0.0481002 1.60728 0
M  V30 20072 O 1930.6 0.292857 1.71721 0
M  V30 20073 C 1927.73 0.683669 3.33974 0
M  V30 20074 H 1928.92 2.0659 2.17395 0
M  V30 20075 H 1926.47 1.10357 1.10684 0
M  V30 20076 H 1927.21 -0.278821 3.23099 0
M  V30 20077 H 1926.99 1.44679 3.64431 0
M  V30 20078 H 1928.48 0.586526 4.13461 0
M  V30 20079 N 1928.92 -1.13255 1.09595 0
M  V30 20080 C 1929.85 -2.20827 0.758791 0
M  V30 20081 C 1930.83 -1.68034 -0.264325 0
M  V30 20082 O 1932.02 -1.93751 -0.132005 0
M  V30 20083 C 1929.15 -3.46831 0.180424 0
M  V30 20084 C 1928.1 -4.12724 1.13325 0
M  V30 20085 C 1927.43 -5.33075 0.416504 0
M  V30 20086 C 1928.73 -4.59862 2.47637 0
M  V30 20087 H 1930.42 -2.49287 1.65821 0
M  V30 20088 H 1927.97 -1.19818 0.798734 0
M  V30 20089 H 1929.92 -4.21346 -0.0675313 0
M  V30 20090 H 1928.64 -3.17773 -0.754194 0
M  V30 20091 H 1927.3 -3.40179 1.36651 0
M  V30 20092 H 1926.95 -5.00281 -0.522308 0
M  V30 20093 H 1926.65 -5.78109 1.05183 0
M  V30 20094 H 1928.17 -6.10344 0.17689 0
M  V30 20095 H 1929.59 -5.25791 2.28509 0
M  V30 20096 H 1927.99 -5.15642 3.06974 0
M  V30 20097 H 1929.06 -3.74294 3.08273 0
M  V30 20098 N 1930.4 -0.883401 -1.30514 0
M  V30 20099 C 1931.31 -0.352971 -2.31929 0
M  V30 20100 C 1932.32 0.543992 -1.65278 0
M  V30 20101 O 1933.5 0.437489 -1.96591 0
M  V30 20102 C 1930.57 0.425263 -3.44082 0
M  V30 20103 C 1929.63 -0.501265 -4.26363 0
M  V30 20104 C 1928.86 0.239923 -5.3316 0
M  V30 20105 O 1929.08 1.46622 -5.51233 0
M  V30 20106 O 1928.02 -0.409158 -6.00508 0
M  V30 20107 H 1931.84 -1.19393 -2.79247 0
M  V30 20108 H 1929.43 -0.647187 -1.34655 0
M  V30 20109 H 1931.31 0.865957 -4.12407 0
M  V30 20110 H 1929.98 1.24255 -2.98902 0
M  V30 20111 H 1928.89 -0.990738 -3.60743 0
M  V30 20112 H 1930.22 -1.28451 -4.75143 0
M  V30 20113 N 1931.88 1.43833 -0.644194 0
M  V30 20114 C 1932.79 2.34538 0.0537504 0
M  V30 20115 C 1933.8 1.53369 0.821825 0
M  V30 20116 O 1934.98 1.86053 0.771123 0
M  V30 20117 C 1932.04 3.3153 1.01434 0
M  V30 20118 C 1931.1 4.28605 0.244198 0
M  V30 20119 C 1930.34 5.20963 1.15903 0
M  V30 20120 O 1930.56 5.1754 2.3981 0
M  V30 20121 O 1929.49 5.98527 0.636302 0
M  V30 20122 H 1933.32 2.95696 -0.692624 0
M  V30 20123 H 1930.91 1.43823 -0.404377 0
M  V30 20124 H 1932.79 3.91196 1.56663 0
M  V30 20125 H 1931.46 2.72887 1.7411 0
M  V30 20126 H 1930.37 3.72445 -0.351459 0
M  V30 20127 H 1931.7 4.90204 -0.442806 0
M  V30 20128 N 1933.35 0.385544 1.52811 0
M  V30 20129 C 1934.3 -0.451417 2.26342 0
M  V30 20130 C 1935.27 -1.06094 1.27801 0
M  V30 20131 O 1936.46 -1.08968 1.56623 0
M  V30 20132 C 1933.6 -1.57477 3.07075 0
M  V30 20133 C 1932.71 -0.988468 4.20539 0
M  V30 20134 C 1931.84 -2.08256 4.88675 0
M  V30 20135 C 1930.88 -1.47196 5.94138 0
M  V30 20136 N 1930.02 -2.5052 6.55884 0
M  V30 20137 H 1934.86 0.182092 2.97443 0
M  V30 20138 H 1932.4 0.101628 1.46749 0
M  V30 20139 H 1934.36 -2.23677 3.52171 0
M  V30 20140 H 1932.99 -2.17864 2.38191 0
M  V30 20141 H 1932.04 -0.216168 3.79785 0
M  V30 20142 H 1933.35 -0.502223 4.96265 0
M  V30 20143 H 1932.5 -2.82235 5.37055 0
M  V30 20144 H 1931.24 -2.60239 4.12464 0
M  V30 20145 H 1930.25 -0.717401 5.45099 0
M  V30 20146 H 1931.47 -0.960124 6.72279 0
M  V30 20147 H 1929.42 -3.0168 5.82516 0
M  V30 20148 H 1929.34 -2.0664 7.27211 0
M  V30 20149 H 1930.6 -3.24141 7.0891 0
M  V30 20150 N 1934.83 -1.57178 0.115259 0
M  V30 20151 C 1936.08 -1.94681 -0.542571 0
M  V30 20152 C 1936.4 -0.999211 -1.67454 0
M  V30 20153 O 1935.67 -0.054836 -1.95823 0
M  V30 20154 H 1934.25 -0.718769 -0.203421 0
M  V30 20155 H 1936.91 -1.94036 0.183323 0
M  V30 20156 H 1936.01 -2.9762 -0.939599 0
M  V30 20157 N 1936.31 0.158505 -1.56801 0
M  V30 20158 C 1937.56 0.871408 -1.81905 0
M  V30 20159 C 1937.87 1.8285 -0.694632 0
M  V30 20160 O 1939.08 2.58471 -0.830953 0
M  V30 20161 C 1937.54 1.60017 -3.2237 0
M  V30 20162 C 1937.14 0.686065 -4.42716 0
M  V30 20163 C 1938.89 2.30054 -3.56757 0
M  V30 20164 C 1936.79 1.41579 -5.74203 0
M  V30 20165 H 1935.72 0.329148 -0.678364 0
M  V30 20166 H 1938.38 0.124216 -1.83079 0
M  V30 20167 H 1936.76 2.39258 -3.1555 0
M  V30 20168 H 1937.93 -0.0702946 -4.60746 0
M  V30 20169 H 1936.25 0.0947 -4.16292 0
M  V30 20170 H 1938.84 2.85268 -4.52246 0
M  V30 20171 H 1939.19 3.06002 -2.82256 0
M  V30 20172 H 1939.72 1.57744 -3.65187 0
M  V30 20173 H 1936.46 0.698382 -6.51769 0
M  V30 20174 H 1935.98 2.14515 -5.60128 0
M  V30 20175 H 1937.66 1.95983 -6.16603 0
M  V30 20176 N 1937.79 1.51692 0.427485 0
M  V30 20177 C 1938.72 1.76668 1.52679 0
M  V30 20178 C 1939.7 0.616865 1.58521 0
M  V30 20179 O 1940.89 0.860595 1.7409 0
M  V30 20180 C 1938.02 1.9007 2.90673 0
M  V30 20181 C 1936.97 3.05566 2.99689 0
M  V30 20182 C 1936.3 3.04165 4.39759 0
M  V30 20183 C 1937.6 4.45359 2.72861 0
M  V30 20184 H 1939.29 2.68717 1.32029 0
M  V30 20185 H 1936.84 1.29306 0.633716 0
M  V30 20186 H 1938.79 2.06125 3.67546 0
M  V30 20187 H 1937.51 0.946769 3.12576 0
M  V30 20188 H 1936.17 2.89231 2.25257 0
M  V30 20189 H 1935.82 2.0653 4.58644 0
M  V30 20190 H 1935.52 3.81727 4.46719 0
M  V30 20191 H 1937.04 3.22326 5.18592 0
M  V30 20192 H 1938.46 4.61993 3.39463 0
M  V30 20193 H 1936.85 5.24701 2.91219 0
M  V30 20194 H 1937.92 4.54717 1.68405 0
M  V30 20195 N 1939.27 -0.683564 1.42004 0
M  V30 20196 C 1940.51 -1.44363 1.42005 0
M  V30 20197 C 1940.84 -1.94471 0.0333832 0
M  V30 20198 O 1940.1 -1.70716 -0.95679 0
M  V30 20199 C 1940.4 -2.66286 2.38383 0
M  V30 20200 C 1940.06 -2.34769 3.8496 0
M  V30 20201 C 1938.72 -2.25884 4.24888 0
M  V30 20202 C 1941.08 -2.09012 4.77455 0
M  V30 20203 C 1938.4 -1.89356 5.55303 0
M  V30 20204 C 1940.76 -1.73991 6.08202 0
M  V30 20205 C 1939.42 -1.6361 6.47138 0
M  V30 20206 H 1938.69 -0.528262 0.519634 0
M  V30 20207 H 1941.34 -0.780217 1.74885 0
M  V30 20208 H 1939.64 -3.37618 1.98799 0
M  V30 20209 H 1941.34 -3.24452 2.35652 0
M  V30 20210 H 1937.93 -2.42583 3.53343 0
M  V30 20211 H 1942.11 -2.14814 4.47402 0
M  V30 20212 H 1937.37 -1.79882 5.84339 0
M  V30 20213 H 1941.54 -1.53084 6.79366 0
M  V30 20214 H 1939.17 -1.35075 7.48103 0
M  V30 20215 N 1940.75 -1.28031 -0.919012 0
M  V30 20216 C 1941.97 -1.17714 -1.7015 0
M  V30 20217 C 1942.39 0.264914 -1.86932 0
M  V30 20218 O 1941.75 1.17957 -1.39256 0
M  V30 20219 C 1941.8 -1.86548 -3.09648 0
M  V30 20220 O 1941.52 -3.25121 -2.93646 0
M  V30 20221 C 1943.02 -1.82467 -4.04006 0
M  V30 20222 H 1940.24 -0.408863 -0.532045 0
M  V30 20223 H 1942.78 -1.69061 -1.1506 0
M  V30 20224 H 1940.94 -1.39085 -3.61572 0
M  V30 20225 H 1941.35 -3.59518 -3.81899 0
M  V30 20226 H 1942.83 -2.35229 -4.99371 0
M  V30 20227 H 1943.3 -0.795892 -4.31928 0
M  V30 20228 H 1943.91 -2.29585 -3.5801 0
M  V30 20229 N 1942.22 1.12672 -1.10194 0
M  V30 20230 C 1943.45 1.88496 -0.865112 0
M  V30 20231 C 1943.87 1.78977 0.578691 0
M  V30 20232 O 1943.23 1.14292 1.40737 0
M  V30 20233 C 1943.28 3.35768 -1.315 0
M  V30 20234 O 1942.38 4.09615 -0.478447 0
M  V30 20235 H 1941.72 0.585782 -0.312658 0
M  V30 20236 H 1944.25 1.42506 -1.46811 0
M  V30 20237 H 1944.26 3.86605 -1.30385 0
M  V30 20238 H 1942.94 3.42013 -2.36643 0
M  V30 20239 H 1941.52 3.68753 -0.554589 0
M  V30 20240 N 1943.7 0.89031 1.30043 0
M  V30 20241 C 1945.11 0.561241 1.78065 0
M  V30 20242 C 1945.46 -0.922791 1.73144 0
M  V30 20243 O 1944.59 -1.72124 1.31157 0
M  V30 20244 C 1945.18 1.01201 3.23332 0
M  V30 20245 C 1943.74 0.734261 3.69169 0
M  V30 20246 C 1942.89 1.19199 2.50373 0
M  V30 20247 H 1945.84 1.074 1.16838 0
M  V30 20248 H 1945.86 0.343251 3.78949 0
M  V30 20249 H 1945.37 2.09213 3.26881 0
M  V30 20250 H 1943.47 -0.33365 3.71103 0
M  V30 20251 H 1943.59 1.32556 4.60397 0
M  V30 20252 H 1941.95 0.6112 2.47258 0
M  V30 20253 H 1942.73 2.27997 2.56656 0
M  V30 20254 N 1945.18 -1.43489 0.651812 0
M  V30 20255 C 1946.43 -2.0183 0.164632 0
M  V30 20256 C 1946.75 -1.51408 -1.2209 0
M  V30 20257 O 1946.01 -0.697062 -1.82865 0
M  V30 20258 C 1946.31 -3.57189 0.122885 0
M  V30 20259 C 1945.97 -4.2695 1.44997 0
M  V30 20260 C 1944.64 -4.45724 1.81339 0
M  V30 20261 C 1946.99 -4.66468 2.32501 0
M  V30 20262 C 1944.32 -5.0128 3.04853 0
M  V30 20263 C 1946.67 -5.23393 3.55306 0
M  V30 20264 C 1945.33 -5.40383 3.91845 0
M  V30 20265 H 1944.6 -0.738547 0.0602433 0
M  V30 20266 H 1947.25 -1.71984 0.842241 0
M  V30 20267 H 1945.55 -3.86568 -0.638169 0
M  V30 20268 H 1947.25 -4.00084 -0.270911 0
M  V30 20269 H 1943.84 -4.12682 1.15721 0
M  V30 20270 H 1948.03 -4.51658 2.05715 0
M  V30 20271 H 1943.28 -5.1262 3.33213 0
M  V30 20272 H 1947.46 -5.52961 4.23329 0
M  V30 20273 H 1945.08 -5.83197 4.87632 0
M  V30 20274 N 1946.66 -0.393643 -1.52605 0
M  V30 20275 C 1947.9 0.187431 -2.01932 0
M  V30 20276 C 1948.24 1.46098 -1.27942 0
M  V30 20277 O 1947.51 1.90729 -0.381154 0
M  V30 20278 C 1947.79 0.450933 -3.57265 0
M  V30 20279 C 1947.65 -0.838204 -4.41921 0
M  V30 20280 C 1948.97 1.23971 -4.22278 0
M  V30 20281 H 1946.09 0.0666471 -0.73398 0
M  V30 20282 H 1948.73 -0.524064 -1.8263 0
M  V30 20283 H 1946.88 1.05703 -3.73844 0
M  V30 20284 H 1948.55 -1.47492 -4.37086 0
M  V30 20285 H 1946.79 -1.45258 -4.08757 0
M  V30 20286 H 1947.46 -0.608424 -5.48637 0
M  V30 20287 H 1949.94 0.726733 -4.09705 0
M  V30 20288 H 1948.82 1.39283 -5.30935 0
M  V30 20289 H 1949.08 2.25611 -3.802 0
M  V30 20290 N 1948.14 1.57115 -0.123593 0
M  V30 20291 C 1949.07 2.18573 0.821462 0
M  V30 20292 C 1950.05 1.1271 1.27399 0
M  V30 20293 O 1951.23 1.40964 1.33577 0
M  V30 20294 C 1948.36 2.78879 2.06987 0
M  V30 20295 C 1947.32 3.90365 1.75497 0
M  V30 20296 C 1946.64 4.37499 3.07406 0
M  V30 20297 C 1947.94 5.12249 1.01972 0
M  V30 20298 H 1949.64 2.97798 0.309319 0
M  V30 20299 H 1947.18 1.43244 0.147338 0
M  V30 20300 H 1949.13 3.20534 2.73562 0
M  V30 20301 H 1947.86 1.96951 2.60534 0
M  V30 20302 H 1946.52 3.49293 1.1131 0
M  V30 20303 H 1946.17 3.52424 3.58896 0
M  V30 20304 H 1945.87 5.12682 2.87108 0
M  V30 20305 H 1947.39 4.81808 3.75091 0
M  V30 20306 H 1948.8 5.50894 1.58709 0
M  V30 20307 H 1947.2 5.93044 0.917526 0
M  V30 20308 H 1948.27 4.84899 0.00726173 0
M  V30 20309 N 1949.61 -0.150187 1.56883 0
M  V30 20310 C 1950.58 -1.16943 1.97122 0
M  V30 20311 C 1951.58 -1.36037 0.857354 0
M  V30 20312 O 1952.77 -1.33083 1.12403 0
M  V30 20313 C 1949.9 -2.53037 2.2844 0
M  V30 20314 H 1951.09 -0.824297 2.88349 0
M  V30 20315 H 1948.64 -0.393414 1.51268 0
M  V30 20316 H 1949.38 -2.92527 1.39994 0
M  V30 20317 H 1949.16 -2.4054 3.0965 0
M  V30 20318 H 1950.65 -3.26452 2.6042 0
M  V30 20319 N 1951.09 -1.51916 -0.419434 0
M  V30 20320 C 1952.32 -1.69592 -1.19387 0
M  V30 20321 C 1952.74 -0.400225 -1.83793 0
M  V30 20322 O 1952.1 0.641368 -1.69576 0
M  V30 20323 C 1952.15 -2.8256 -2.24036 0
M  V30 20324 O 1951.25 -2.4741 -3.29942 0
M  V30 20325 H 1950.59 -0.564898 -0.348978 0
M  V30 20326 H 1953.12 -1.9857 -0.493064 0
M  V30 20327 H 1953.13 -3.07171 -2.68533 0
M  V30 20328 H 1951.81 -3.76572 -1.7654 0
M  V30 20329 H 1950.39 -2.33435 -2.90796 0
M  V30 20330 N 1952.57 0.676023 -1.42365 0
M  V30 20331 C 1953.8 1.46436 -1.46164 0
M  V30 20332 C 1954.21 1.8866 -0.0726092 0
M  V30 20333 O 1953.57 1.58056 0.912395 0
M  V30 20334 C 1953.62 2.71428 -2.38766 0
M  V30 20335 O 1953.34 2.30976 -3.72266 0
M  V30 20336 C 1954.84 3.65001 -2.51573 0
M  V30 20337 H 1952.06 0.450625 -0.49717 0
M  V30 20338 H 1954.61 0.830748 -1.86866 0
M  V30 20339 H 1952.76 3.30981 -2.01321 0
M  V30 20340 H 1953.18 3.11682 -4.21846 0
M  V30 20341 H 1954.65 4.49432 -3.20492 0
M  V30 20342 H 1955.13 4.10818 -1.55322 0
M  V30 20343 H 1955.73 3.11342 -2.89735 0
M  V30 20344 N 1954.05 1.28517 0.912209 0
M  V30 20345 C 1955 1.12437 2.03619 0
M  V30 20346 C 1955.99 0.0432331 1.69345 0
M  V30 20347 O 1957.2 0.202116 1.78862 0
M  V30 20348 H 1953.57 0.34694 0.667185 0
M  V30 20349 H 1955.54 2.07625 2.14323 0
M  V30 20350 C 1954.29 0.804603 3.38262 0
M  V30 20351 H 1953.61 1.62849 3.65131 0
M  V30 20352 H 1955.05 0.732055 4.17633 0
M  V30 20353 C 1953.51 -0.491715 3.33292 0
M  V30 20354 O 1954.04 -1.52155 3.71768 0
M  V30 20355 N 1952.25 -0.493007 2.86388 0
M  V30 20356 H 1951.8 0.34549 2.55273 0
M  V30 20357 H 1951.75 -1.36038 2.83445 0
M  V30 20358 N 1955.53 -1.12086 1.1079 0
M  V30 20359 C 1956.49 -2.16111 0.763446 0
M  V30 20360 C 1957.49 -1.59371 -0.213903 0
M  V30 20361 O 1958.68 -1.74197 0.00972099 0
M  V30 20362 C 1955.81 -3.40646 0.131488 0
M  V30 20363 H 1957 -2.48096 1.68489 0
M  V30 20364 H 1954.56 -1.27156 0.908896 0
M  V30 20365 H 1955.29 -3.14265 -0.800507 0
M  V30 20366 H 1955.08 -3.83108 0.834928 0
M  V30 20367 H 1956.57 -4.17495 -0.0936165 0
M  V30 20368 N 1957 -0.897194 -1.29569 0
M  V30 20369 C 1958.25 -0.520803 -1.95274 0
M  V30 20370 C 1958.57 0.935501 -1.71095 0
M  V30 20371 O 1957.84 1.65932 -1.04131 0
M  V30 20372 H 1956.42 -0.18961 -0.722535 0
M  V30 20373 H 1959.09 -1.14294 -1.5787 0
M  V30 20374 H 1958.18 -0.701293 -3.04119 0
M  V30 20375 N 1958.48 1.43142 -0.659413 0
M  V30 20376 C 1959.71 2.06603 -0.181642 0
M  V30 20377 C 1960.13 1.49137 1.14629 0
M  V30 20378 O 1959.49 0.603739 1.70952 0
M  V30 20379 C 1959.54 3.6043 -0.110662 0
M  V30 20380 O 1958.64 4.01884 0.925344 0
M  V30 20381 H 1957.98 0.656771 -0.097712 0
M  V30 20382 H 1960.51 1.83541 -0.904086 0
M  V30 20383 H 1960.52 4.07939 0.0706089 0
M  V30 20384 H 1959.2 4.01632 -1.08002 0
M  V30 20385 H 1957.78 3.65954 0.716361 0
M  V30 20386 N 1959.96 0.40173 1.52394 0
M  V30 20387 C 1961.21 -0.177771 2.00915 0
M  V30 20388 C 1961.52 -1.46854 1.29203 0
M  V30 20389 O 1962.73 -2.12884 1.68501 0
M  V30 20390 C 1961.18 -0.367359 3.5802 0
M  V30 20391 C 1960.79 0.910882 4.38642 0
M  V30 20392 C 1962.54 -0.902552 4.14794 0
M  V30 20393 C 1960.44 0.688888 5.87374 0
M  V30 20394 H 1959.37 -0.0702091 0.750724 0
M  V30 20395 H 1962.02 0.52604 1.75798 0
M  V30 20396 H 1960.41 -1.13332 3.79436 0
M  V30 20397 H 1961.58 1.68242 4.28989 0
M  V30 20398 H 1959.9 1.37194 3.9315 0
M  V30 20399 H 1962.49 -1.08455 5.23585 0
M  V30 20400 H 1962.84 -1.87515 3.71677 0
M  V30 20401 H 1963.37 -0.19584 3.97318 0
M  V30 20402 H 1960.11 1.63284 6.34837 0
M  V30 20403 H 1959.63 -0.0434889 5.99784 0
M  V30 20404 H 1961.31 0.328207 6.46167 0
M  V30 20405 N 1961.44 -1.57047 0.131923 0
M  V30 20406 C 1962.39 -2.17261 -0.830686 0
M  V30 20407 C 1963.38 -1.12538 -1.26616 0
M  V30 20408 O 1964.59 -1.30818 -1.23639 0
M  V30 20409 H 1960.96 -0.695476 -0.286037 0
M  V30 20410 H 1962.93 -2.96903 -0.29848 0
M  V30 20411 C 1961.68 -2.79677 -2.06582 0
M  V30 20412 H 1961 -3.59965 -1.73969 0
M  V30 20413 H 1962.44 -3.2533 -2.71912 0
M  V30 20414 C 1960.9 -1.77413 -2.86402 0
M  V30 20415 O 1961.43 -1.23537 -3.82232 0
M  V30 20416 N 1959.64 -1.47059 -2.50643 0
M  V30 20417 H 1959.19 -1.91062 -1.7278 0
M  V30 20418 H 1959.14 -0.788806 -3.04344 0
M  V30 20419 N 1962.92 0.141865 -1.5696 0
M  V30 20420 C 1963.88 1.15896 -1.97739 0
M  V30 20421 C 1964.88 1.3558 -0.864556 0
M  V30 20422 O 1966.07 1.32485 -1.13107 0
M  V30 20423 C 1963.2 2.51822 -2.29779 0
M  V30 20424 H 1964.39 0.808993 -2.88782 0
M  V30 20425 H 1961.95 0.385387 -1.51474 0
M  V30 20426 H 1962.68 2.91781 -1.41543 0
M  V30 20427 H 1962.47 2.38894 -3.10921 0
M  V30 20428 H 1963.96 3.25066 -2.62148 0
M  V30 20429 N 1964.39 1.52136 0.411372 0
M  V30 20430 C 1965.81 1.58274 0.990272 0
M  V30 20431 C 1966.16 0.421874 1.91611 0
M  V30 20432 O 1965.28 -0.458058 2.11497 0
M  V30 20433 C 1965.88 2.86855 1.80276 0
M  V30 20434 C 1964.44 2.95478 2.33173 0
M  V30 20435 C 1963.58 2.5319 1.13093 0
M  V30 20436 H 1966.53 1.57538 0.191687 0
M  V30 20437 H 1966.55 2.72082 2.65992 0
M  V30 20438 H 1966.07 3.71326 1.12866 0
M  V30 20439 H 1964.17 2.15496 3.03961 0
M  V30 20440 H 1964.28 3.99674 2.64192 0
M  V30 20441 H 1962.64 2.06986 1.48421 0
M  V30 20442 H 1963.43 3.40032 0.472529 0
M  V30 20443 N 1965.87 -0.668464 1.42721 0
M  V30 20444 C 1967.1 -1.45659 1.46939 0
M  V30 20445 C 1967.52 -1.88619 0.0826133 0
M  V30 20446 O 1966.87 -1.58537 -0.904 0
M  V30 20447 C 1966.92 -2.70158 2.40202 0
M  V30 20448 O 1966.65 -2.28999 3.73485 0
M  V30 20449 C 1968.15 -3.63662 2.53505 0
M  V30 20450 H 1965.37 -0.447982 0.499553 0
M  V30 20451 H 1967.91 -0.820826 1.87304 0
M  V30 20452 H 1966.07 -3.29909 2.03074 0
M  V30 20453 H 1966.48 -3.09441 4.23493 0
M  V30 20454 H 1967.95 -4.47726 3.22871 0
M  V30 20455 H 1968.43 -4.09989 1.57498 0
M  V30 20456 H 1969.04 -3.09801 2.91382 0
M  V30 20457 N 1967.35 -1.28999 -0.905381 0
M  V30 20458 C 1968.6 -1.16813 -1.65779 0
M  V30 20459 C 1968.93 0.280936 -1.92157 0
M  V30 20460 O 1968.21 1.2035 -1.52794 0
M  V30 20461 C 1968.49 -1.97593 -3.01047 0
M  V30 20462 C 1968.34 -3.50608 -2.8177 0
M  V30 20463 C 1969.66 -1.79788 -4.01702 0
M  V30 20464 H 1966.78 -0.425716 -0.60161 0
M  V30 20465 H 1969.42 -1.58409 -1.04913 0
M  V30 20466 H 1967.57 -1.62246 -3.52999 0
M  V30 20467 H 1969.24 -3.95905 -2.36763 0
M  V30 20468 H 1967.49 -3.75818 -2.16663 0
M  V30 20469 H 1968.16 -4.02396 -3.77865 0
M  V30 20470 H 1970.63 -2.10649 -3.5884 0
M  V30 20471 H 1969.51 -2.38667 -4.94297 0
M  V30 20472 H 1969.77 -0.75156 -4.35665 0
M  V30 20473 N 1968.83 1.11497 -1.11383 0
M  V30 20474 C 1970.05 1.87567 -0.885056 0
M  V30 20475 C 1970.48 1.79581 0.559675 0
M  V30 20476 O 1969.84 1.15779 1.39517 0
M  V30 20477 C 1969.89 3.34354 -1.35053 0
M  V30 20478 O 1968.99 4.09085 -0.521865 0
M  V30 20479 H 1968.33 0.582433 -0.318853 0
M  V30 20480 H 1970.86 1.4094 -1.48314 0
M  V30 20481 H 1970.87 3.85201 -1.34478 0
M  V30 20482 H 1969.55 3.39484 -2.40257 0
M  V30 20483 H 1968.12 3.68144 -0.593669 0
M  V30 20484 N 1970.31 0.904053 1.29092 0
M  V30 20485 C 1971.58 0.451521 1.90317 0
M  V30 20486 C 1971.96 -1.06911 1.82025 0
M  V30 20487 O 1971.31 -1.9129 1.24982 0
M  V30 20488 C 1971.52 0.970986 3.35221 0
M  V30 20489 C 1972.87 1.01728 4.12234 0
M  V30 20490 O 1973.89 0.918956 3.44142 0
M  V30 20491 O 1972.75 1.16562 5.33925 0
M  V30 20492 H 1969.85 0.141495 0.814806 0
M  V30 20493 H 1972.39 0.994203 1.37527 0
M  V30 20494 H 1971.17 2.01497 3.35432 0
M  V30 20495 H 1970.79 0.408567 3.95495 0
M  V30 20496 N 1971.79 -1.4279 0.666995 0
M  V30 20497 C 1973.01 -2.06504 0.192596 0
M  V30 20498 C 1973.44 -1.49743 -1.13836 0
M  V30 20499 O 1972.79 -0.612797 -1.7063 0
M  V30 20500 C 1972.84 -3.60366 0.129775 0
M  V30 20501 O 1971.95 -4.0237 -0.904018 0
M  V30 20502 H 1971.29 -0.656244 0.101194 0
M  V30 20503 H 1973.82 -1.83059 0.913807 0
M  V30 20504 H 1973.83 -4.07971 -0.0489739 0
M  V30 20505 H 1972.5 -4.01054 1.1013 0
M  V30 20506 H 1971.08 -3.66329 -0.696943 0
M  V30 20507 N 1973.26 -0.409806 -1.52179 0
M  V30 20508 C 1974.68 -0.0607174 -1.59484 0
M  V30 20509 C 1974.88 1.42703 -1.42261 0
M  V30 20510 O 1973.94 2.19394 -1.24991 0
M  V30 20511 C 1975.25 -0.556238 -2.95511 0
M  V30 20512 C 1976.8 -0.514272 -3.08746 0
M  V30 20513 C 1977.27 -0.986314 -4.47254 0
M  V30 20514 N 1978.76 -0.943162 -4.53496 0
M  V30 20515 C 1979.5 -1.27959 -5.5894 0
M  V30 20516 N 1978.99 -1.6875 -6.71934 0
M  V30 20517 N 1980.79 -1.19951 -5.49152 0
M  V30 20518 H 1972.94 -1.37813 -1.61621 0
M  V30 20519 H 1975.2 -0.566181 -0.760357 0
M  V30 20520 H 1974.91 -1.5961 -3.13397 0
M  V30 20521 H 1974.78 0.033749 -3.77185 0
M  V30 20522 H 1977.17 0.516546 -2.90544 0
M  V30 20523 H 1977.25 -1.14032 -2.28977 0
M  V30 20524 H 1976.89 -2.01546 -4.66199 0
M  V30 20525 H 1976.82 -0.337071 -5.2552 0
M  V30 20526 H 1979.31 -0.64326 -3.72385 0
M  V30 20527 H 1979.63 -1.9273 -7.48381 0
M  V30 20528 H 1977.97 -1.72654 -6.73213 0
M  V30 20529 H 1981.16 -0.879693 -4.5976 0
M  V30 20530 H 1981.34 -1.465 -6.31222 0
M  V30 20531 N 1974.74 1.56975 -0.14025 0
M  V30 20532 C 1975.7 2.15234 0.78784 0
M  V30 20533 C 1976.7 1.09243 1.17994 0
M  V30 20534 O 1977.89 1.34916 1.10197 0
M  V30 20535 C 1975.03 2.70994 2.06821 0
M  V30 20536 H 1976.22 2.98579 0.281166 0
M  V30 20537 H 1973.77 1.55918 0.109151 0
M  V30 20538 H 1974.51 1.91297 2.6187 0
M  V30 20539 H 1974.29 3.48532 1.79633 0
M  V30 20540 H 1975.78 3.15904 2.7312 0
M  V30 20541 N 1976.22 -0.133539 1.57033 0
M  V30 20542 C 1977.15 -1.16595 2.02306 0
M  V30 20543 C 1978.13 -1.44031 0.904933 0
M  V30 20544 O 1979.32 -1.54721 1.17367 0
M  V30 20545 C 1976.45 -2.49581 2.41509 0
M  V30 20546 C 1975.4 -2.36639 3.56631 0
M  V30 20547 C 1974.73 -3.74457 3.81688 0
M  V30 20548 C 1976.03 -1.83912 4.88849 0
M  V30 20549 H 1977.72 -0.789456 2.88804 0
M  V30 20550 H 1975.27 -0.378309 1.38942 0
M  V30 20551 H 1977.22 -3.22043 2.71783 0
M  V30 20552 H 1975.94 -2.89093 1.51964 0
M  V30 20553 H 1974.6 -1.66628 3.26544 0
M  V30 20554 H 1974.25 -4.11428 2.89372 0
M  V30 20555 H 1973.95 -3.66655 4.59171 0
M  V30 20556 H 1975.47 -4.48446 4.14401 0
M  V30 20557 H 1976.89 -2.46178 5.17754 0
M  V30 20558 H 1975.28 -1.86967 5.70231 0
M  V30 20559 H 1976.35 -0.795669 4.78327 0
M  V30 20560 N 1977.7 -1.52352 -0.403298 0
M  V30 20561 C 1978.66 -1.75482 -1.4744 0
M  V30 20562 C 1979.66 -0.62473 -1.48168 0
M  V30 20563 O 1980.85 -0.892662 -1.4959 0
M  V30 20564 C 1977.98 -1.84253 -2.86817 0
M  V30 20565 H 1979.18 -2.71107 -1.28222 0
M  V30 20566 H 1976.73 -1.42857 -0.634157 0
M  V30 20567 H 1977.46 -0.905623 -3.11398 0
M  V30 20568 H 1977.25 -2.66414 -2.87691 0
M  V30 20569 H 1978.74 -2.03869 -3.64454 0
M  V30 20570 N 1979.18 0.660885 -1.43074 0
M  V30 20571 C 1980.59 0.97566 -1.26305 0
M  V30 20572 C 1980.79 2.00719 -0.17724 0
M  V30 20573 O 1979.85 2.48514 0.446896 0
M  V30 20574 C 1981.16 1.46722 -2.62475 0
M  V30 20575 C 1982.71 1.58427 -2.69944 0
M  V30 20576 C 1983.18 2.10976 -4.06514 0
M  V30 20577 N 1984.67 2.18289 -4.08539 0
M  V30 20578 C 1985.41 2.60054 -5.11038 0
M  V30 20579 N 1984.91 3.01171 -6.23913 0
M  V30 20580 N 1986.7 2.59926 -4.98392 0
M  V30 20581 H 1978.85 -0.02183 -2.12389 0
M  V30 20582 H 1981.11 0.0527972 -0.946529 0
M  V30 20583 H 1980.82 0.783712 -3.42857 0
M  V30 20584 H 1980.69 2.44359 -2.87348 0
M  V30 20585 H 1983.08 2.25881 -1.899 0
M  V30 20586 H 1983.16 0.592433 -2.48845 0
M  V30 20587 H 1982.8 1.44126 -4.87022 0
M  V30 20588 H 1982.73 3.10976 -4.24972 0
M  V30 20589 H 1985.23 1.89317 -3.27059 0
M  V30 20590 H 1985.54 3.31766 -6.97962 0
M  V30 20591 H 1983.88 2.98994 -6.27398 0
M  V30 20592 H 1987.07 2.27175 -4.09279 0
M  V30 20593 H 1987.25 2.92154 -5.78403 0
M  V30 20594 N 1980.65 1.29477 0.898527 0
M  V30 20595 C 1982.07 1.07514 1.17953 0
M  V30 20596 C 1982.27 -0.172814 2.00758 0
M  V30 20597 O 1981.33 -0.87025 2.37029 0
M  V30 20598 C 1982.64 2.33121 1.89934 0
M  V30 20599 C 1984.19 2.38452 2.02755 0
M  V30 20600 C 1984.66 3.63866 2.78146 0
M  V30 20601 N 1986.15 3.64595 2.857 0
M  V30 20602 C 1986.89 4.58319 3.44574 0
M  V30 20603 N 1986.38 5.62376 4.04605 0
M  V30 20604 N 1988.18 4.45887 3.42259 0
M  V30 20605 H 1980.33 2.09562 0.346076 0
M  V30 20606 H 1982.59 0.923108 0.215814 0
M  V30 20607 H 1982.3 3.2412 1.36526 0
M  V30 20608 H 1982.17 2.40721 2.90402 0
M  V30 20609 H 1984.56 1.47941 2.55338 0
M  V30 20610 H 1984.64 2.34837 1.01416 0
M  V30 20611 H 1984.28 4.54729 2.26239 0
M  V30 20612 H 1984.21 3.6474 3.79832 0
M  V30 20613 H 1986.7 2.89358 2.43064 0
M  V30 20614 H 1987.02 6.30012 4.47555 0
M  V30 20615 H 1985.36 5.66184 4.03064 0
M  V30 20616 H 1988.55 3.63786 2.9458 0
M  V30 20617 H 1988.73 5.19113 3.87848 0
M  V30 20618 N 1982.13 -1.10905 1.11972 0
M  V30 20619 C 1983.38 -1.82762 0.872019 0
M  V30 20620 C 1983.71 -1.84941 -0.602247 0
M  V30 20621 O 1982.96 -1.30212 -1.46094 0
M  V30 20622 C 1983.26 -3.29439 1.38581 0
M  V30 20623 C 1982.93 -3.47414 2.87427 0
M  V30 20624 C 1981.59 -3.52027 3.2807 0
M  V30 20625 C 1983.94 -3.53209 3.83266 0
M  V30 20626 C 1981.27 -3.59998 4.63269 0
M  V30 20627 C 1983.62 -3.62712 5.18288 0
M  V30 20628 C 1982.29 -3.65588 5.58482 0
M  V30 20629 H 1981.56 -0.668775 0.319094 0
M  V30 20630 H 1984.2 -1.30759 1.39908 0
M  V30 20631 H 1982.51 -3.83976 0.779104 0
M  V30 20632 H 1984.2 -3.83539 1.17042 0
M  V30 20633 H 1980.79 -3.44497 2.5499 0
M  V30 20634 H 1984.98 -3.489 3.52963 0
M  V30 20635 H 1980.23 -3.60504 4.93808 0
M  V30 20636 H 1984.41 -3.6614 5.9238 0
M  V30 20637 H 1982.04 -3.71517 6.63234 0
M  V30 20638 N 1983.61 -0.910886 -1.2861 0
M  V30 20639 C 1984.56 -0.368294 -2.25006 0
M  V30 20640 C 1985.54 0.517969 -1.52335 0
M  V30 20641 O 1986.74 0.358159 -1.73338 0
M  V30 20642 C 1983.87 0.393096 -3.41042 0
M  V30 20643 C 1982.95 -0.508724 -4.21038 0
M  V30 20644 N 1983.34 -1.62102 -4.79121 0
M  V30 20645 C 1981.64 -0.308578 -4.44931 0
M  V30 20646 C 1982.34 -2.18055 -5.39284 0
M  V30 20647 N 1981.32 -1.47217 -5.23286 0
M  V30 20648 H 1985.12 -1.21781 -2.67482 0
M  V30 20649 H 1982.63 -0.763212 -1.43349 0
M  V30 20650 H 1984.63 0.798636 -4.09179 0
M  V30 20651 H 1983.29 1.23975 -3.00101 0
M  V30 20652 H 1984.3 -2.00364 -4.77572 0
M  V30 20653 H 1980.98 0.49879 -4.1451 0
M  V30 20654 H 1982.37 -3.11606 -5.95274 0
M  V30 20655 N 1985.09 1.42434 -0.674558 0
M  V30 20656 C 1986.34 2.01542 -0.196721 0
M  V30 20657 C 1986.66 1.53331 1.19666 0
M  V30 20658 O 1985.92 0.726066 1.81733 0
M  V30 20659 C 1986.22 3.56948 -0.179695 0
M  V30 20660 C 1985.88 4.2459 -1.51771 0
M  V30 20661 C 1984.55 4.42782 -1.88407 0
M  V30 20662 C 1986.9 4.6271 -2.39893 0
M  V30 20663 C 1984.23 4.96367 -3.12789 0
M  V30 20664 C 1986.58 5.17675 -3.63587 0
M  V30 20665 C 1985.24 5.34081 -4.00392 0
M  V30 20666 H 1984.51 0.737495 -0.0719853 0
M  V30 20667 H 1987.16 1.70622 -0.869495 0
M  V30 20668 H 1985.46 3.87534 0.576588 0
M  V30 20669 H 1987.16 4.00464 0.207226 0
M  V30 20670 H 1983.75 4.10789 -1.22271 0
M  V30 20671 H 1987.93 4.48328 -2.12874 0
M  V30 20672 H 1983.19 5.07254 -3.41326 0
M  V30 20673 H 1987.36 5.46156 -4.32072 0
M  V30 20674 H 1984.99 5.75366 -4.96848 0
M  V30 20675 N 1986.57 0.417871 1.51959 0
M  V30 20676 C 1987.84 -0.214034 1.94425 0
M  V30 20677 C 1988.22 -1.61845 1.35534 0
M  V30 20678 O 1987.57 -2.22158 0.534606 0
M  V30 20679 C 1987.78 -0.211518 3.48358 0
M  V30 20680 C 1989.13 -0.426614 4.22451 0
M  V30 20681 O 1990.15 -0.290493 3.55013 0
M  V30 20682 O 1989.01 -0.695682 5.42054 0
M  V30 20683 H 1986.11 -0.140439 0.814988 0
M  V30 20684 H 1988.65 0.474446 1.62933 0
M  V30 20685 H 1987.42 0.771087 3.83627 0
M  V30 20686 H 1987.05 -0.943731 3.86238 0
M  V30 20687 N 1988.04 -1.56898 0.148573 0
M  V30 20688 C 1988.98 -2.12626 -0.828583 0
M  V30 20689 C 1989.96 -1.05024 -1.24132 0
M  V30 20690 O 1991.14 -1.32864 -1.33714 0
M  V30 20691 C 1988.27 -2.64724 -2.11279 0
M  V30 20692 C 1987.31 -3.84487 -1.84586 0
M  V30 20693 S 1988.15 -5.25394 -1.03545 0
M  V30 20694 C 1989.3 -5.80882 -2.33082 0
M  V30 20695 H 1989.53 -2.95177 -0.354688 0
M  V30 20696 H 1987.07 -1.5426 -0.0657356 0
M  V30 20697 H 1989.03 -2.95391 -2.85052 0
M  V30 20698 H 1987.69 -1.82301 -2.55784 0
M  V30 20699 H 1986.88 -4.1919 -2.79814 0
M  V30 20700 H 1986.48 -3.5459 -1.18921 0
M  V30 20701 H 1988.77 -5.9241 -3.28721 0
M  V30 20702 H 1989.72 -6.78413 -2.02882 0
M  V30 20703 H 1990.12 -5.09137 -2.43802 0
M  V30 20704 N 1989.52 0.125209 -1.57102 0
M  V30 20705 C 1990.47 1.17292 -2.00861 0
M  V30 20706 C 1991.46 1.4323 -0.904511 0
M  V30 20707 O 1992.67 1.43266 -1.08972 0
M  V30 20708 H 1989.05 0.395322 -0.639706 0
M  V30 20709 H 1991.02 0.777307 -2.88098 0
M  V30 20710 C 1989.77 2.49311 -2.42362 0
M  V30 20711 H 1989.09 2.30188 -3.26884 0
M  V30 20712 H 1990.53 3.21196 -2.76784 0
M  V30 20713 C 1988.99 3.1144 -1.2848 0
M  V30 20714 O 1989.52 3.97233 -0.597373 0
M  V30 20715 N 1987.72 2.71221 -1.04344 0
M  V30 20716 H 1987.27 2.0155 -1.60423 0
M  V30 20717 H 1987.23 3.1312 -0.283408 0
M  V30 20718 N 1991 1.52564 0.395213 0
M  V30 20719 C 1992.25 1.6653 1.13801 0
M  V30 20720 C 1992.56 0.408362 1.9129 0
M  V30 20721 O 1993.77 0.428049 2.68104 0
M  V30 20722 C 1992.22 2.94273 2.07199 0
M  V30 20723 C 1991.83 4.27125 1.35162 0
M  V30 20724 C 1993.58 3.17604 2.81652 0
M  V30 20725 C 1991.48 5.4598 2.27289 0
M  V30 20726 H 1990.41 0.620392 0.428521 0
M  V30 20727 H 1993.06 1.79058 0.401302 0
M  V30 20728 H 1991.45 2.75477 2.8448 0
M  V30 20729 H 1992.62 4.56452 0.631492 0
M  V30 20730 H 1990.94 4.10006 0.726934 0
M  V30 20731 H 1993.53 4.03582 3.5075 0
M  V30 20732 H 1993.88 2.32415 3.45382 0
M  V30 20733 H 1994.41 3.36938 2.11466 0
M  V30 20734 H 1991.15 6.33557 1.68184 0
M  V30 20735 H 1990.67 5.20972 2.97235 0
M  V30 20736 H 1992.35 5.79609 2.8751 0
M  V30 20737 N 1992.48 -0.653289 1.43422 0
M  V30 20738 C 1993.39 -1.79526 1.51022 0
M  V30 20739 C 1994.4 -1.69403 0.39732 0
M  V30 20740 O 1995.58 -1.90574 0.651437 0
M  V30 20741 C 1992.65 -3.15803 1.43071 0
M  V30 20742 C 1991.71 -3.37723 2.65031 0
M  V30 20743 C 1990.94 -4.67499 2.5745 0
M  V30 20744 O 1991.16 -5.46846 1.6222 0
M  V30 20745 O 1990.1 -4.91137 3.47948 0
M  V30 20746 H 1993.92 -1.76069 2.47454 0
M  V30 20747 H 1991.51 -0.81176 1.25423 0
M  V30 20748 H 1993.39 -3.97083 1.41079 0
M  V30 20749 H 1992.06 -3.1985 0.497738 0
M  V30 20750 H 1990.97 -2.56208 2.72595 0
M  V30 20751 H 1992.3 -3.38523 3.573 0
M  V30 20752 N 1993.96 -1.29952 -0.891648 0
M  V30 20753 C 1995.2 -1.18565 -1.6453 0
M  V30 20754 C 1995.54 0.260539 -1.92444 0
M  V30 20755 O 1994.81 1.18723 -1.54062 0
M  V30 20756 C 1995.09 -2.00774 -2.98934 0
M  V30 20757 C 1994.95 -3.53577 -2.78035 0
M  V30 20758 C 1996.27 -1.84038 -3.99772 0
M  V30 20759 H 1993.38 -0.432073 -0.597061 0
M  V30 20760 H 1996.03 -1.59512 -1.03227 0
M  V30 20761 H 1994.18 -1.65981 -3.51258 0
M  V30 20762 H 1995.85 -3.98394 -2.3255 0
M  V30 20763 H 1994.09 -3.78095 -2.12665 0
M  V30 20764 H 1994.76 -4.06381 -3.73575 0
M  V30 20765 H 1997.24 -2.14444 -3.56585 0
M  V30 20766 H 1996.11 -2.43896 -4.91737 0
M  V30 20767 H 1996.38 -0.797726 -4.34843 0
M  V30 20768 N 1995.44 1.1031 -1.12559 0
M  V30 20769 C 1996.68 1.81665 -0.876399 0
M  V30 20770 C 1997 1.86186 0.599506 0
M  V30 20771 O 1998.2 2.53759 0.965337 0
M  V30 20772 C 1996.66 3.26308 -1.51826 0
M  V30 20773 C 1996.27 3.30081 -3.02904 0
M  V30 20774 C 1998.01 4.02482 -1.34939 0
M  V30 20775 C 1995.92 4.69192 -3.60018 0
M  V30 20776 H 1994.85 0.680734 -0.324218 0
M  V30 20777 H 1997.5 1.24044 -1.35223 0
M  V30 20778 H 1995.88 3.83934 -0.970087 0
M  V30 20779 H 1997.06 2.82272 -3.64224 0
M  V30 20780 H 1995.37 2.67393 -3.19202 0
M  V30 20781 H 1997.97 5.05241 -1.7503 0
M  V30 20782 H 1998.31 4.15266 -0.293208 0
M  V30 20783 H 1998.84 3.51274 -1.86685 0
M  V30 20784 H 1995.58 4.61608 -4.65401 0
M  V30 20785 H 1995.1 5.17363 -3.03473 0
M  V30 20786 H 1996.78 5.38161 -3.59153 0
M  V30 20787 N 1996.91 0.917694 1.28125 0
M  V30 20788 C 1998.14 0.56827 1.99463 0
M  V30 20789 C 1998.56 -0.844246 1.6809 0
M  V30 20790 O 1997.92 -1.56487 0.915504 0
M  V30 20791 C 1997.97 0.788859 3.51866 0
M  V30 20792 O 1997.07 -0.150301 4.12126 0
M  V30 20793 H 1996.41 0.219899 0.626531 0
M  V30 20794 H 1998.94 1.23421 1.63182 0
M  V30 20795 H 1998.95 0.700502 4.01942 0
M  V30 20796 H 1997.63 1.81855 3.74034 0
M  V30 20797 H 1996.21 -0.012878 3.72898 0
M  V30 20798 N 1998.39 -1.42074 0.682102 0
M  V30 20799 C 1999.32 -2.28161 -0.0419799 0
M  V30 20800 C 2000.3 -1.41478 -0.801424 0
M  V30 20801 O 2001.49 -1.70913 -0.795037 0
M  V30 20802 C 1998.61 -3.21464 -1.06671 0
M  V30 20803 C 1997.66 -4.24601 -0.402006 0
M  V30 20804 S 1998.49 -5.28779 0.845762 0
M  V30 20805 C 1999.65 -6.25648 -0.177714 0
M  V30 20806 H 1999.88 -2.89225 0.688202 0
M  V30 20807 H 1997.41 -1.47012 0.471897 0
M  V30 20808 H 1999.37 -3.75755 -1.65283 0
M  V30 20809 H 1998.03 -2.59522 -1.76938 0
M  V30 20810 H 1997.23 -4.90101 -1.17548 0
M  V30 20811 H 1996.83 -3.73836 0.110698 0
M  V30 20812 H 1999.12 -6.69545 -1.03519 0
M  V30 20813 H 2000.06 -7.06713 0.443001 0
M  V30 20814 H 2000.47 -5.6204 -0.526461 0
M  V30 20815 N 1999.87 -0.425924 -1.51735 0
M  V30 20816 C 2001.1 0.143143 -2.06104 0
M  V30 20817 C 2001.51 1.37989 -1.29444 0
M  V30 20818 O 2000.85 1.80448 -0.344147 0
M  V30 20819 C 2000.91 0.541996 -3.55391 0
M  V30 20820 C 2000.58 -0.586352 -4.53223 0
M  V30 20821 C 2001.57 -1.45505 -4.99124 0
M  V30 20822 C 1999.26 -0.763832 -4.96458 0
M  V30 20823 C 2001.25 -2.48602 -5.86921 0
M  V30 20824 C 1998.94 -1.79809 -5.84048 0
M  V30 20825 C 1999.94 -2.65758 -6.29175 0
M  V30 20826 O 1999.63 -3.67411 -7.15028 0
M  V30 20827 H 1999.36 0.0164528 -0.6758 0
M  V30 20828 H 2001.91 -0.60044 -1.96428 0
M  V30 20829 H 2000.14 1.33811 -3.6281 0
M  V30 20830 H 2001.83 1.0409 -3.92326 0
M  V30 20831 H 2002.6 -1.32941 -4.66424 0
M  V30 20832 H 1998.48 -0.10445 -4.60882 0
M  V30 20833 H 2002.02 -3.15721 -6.22066 0
M  V30 20834 H 1997.92 -1.92397 -6.1616 0
M  V30 20835 H 1998.68 -3.63855 -7.33179 0
M  V30 20836 N 2001.35 1.56817 -0.156891 0
M  V30 20837 C 2002.57 2.01242 0.501622 0
M  V30 20838 C 2003 1.03635 1.56976 0
M  V30 20839 O 2002.36 0.0136188 1.81295 0
M  V30 20840 C 2002.4 3.44357 1.07007 0
M  V30 20841 O 2001.51 3.49783 2.18461 0
M  V30 20842 H 2000.85 0.652757 0.121673 0
M  V30 20843 H 2003.38 2.02985 -0.256537 0
M  V30 20844 H 2003.39 3.83364 1.39628 0
M  V30 20845 H 2002.06 4.14902 0.287924 0
M  V30 20846 H 2000.64 3.22626 1.86994 0
M  V30 20847 N 2002.83 -0.116876 1.57166 0
M  V30 20848 C 2003.76 -1.16901 1.97147 0
M  V30 20849 C 2004.77 -1.37537 0.871063 0
M  V30 20850 O 2005.96 -1.36574 1.14934 0
M  V30 20851 C 2003.06 -2.52863 2.2564 0
M  V30 20852 C 2002.23 -2.528 3.56946 0
M  V30 20853 C 2001.29 -3.70525 3.73628 0
M  V30 20854 O 2000.32 -3.54013 4.45717 0
M  V30 20855 N 2001.52 -4.89172 3.12556 0
M  V30 20856 H 2004.28 -0.828895 2.88009 0
M  V30 20857 H 2001.85 -0.306125 1.5898 0
M  V30 20858 H 2003.84 -3.30182 2.34013 0
M  V30 20859 H 2002.41 -2.79048 1.40894 0
M  V30 20860 H 2001.63 -1.61181 3.59742 0
M  V30 20861 H 2002.92 -2.49817 4.43248 0
M  V30 20862 H 2002.31 -5.05491 2.5396 0
M  V30 20863 H 2000.87 -5.64159 3.26447 0
M  V30 20864 N 2004.3 -1.52772 -0.387116 0
M  V30 20865 C 2005.25 -1.78325 -1.49341 0
M  V30 20866 C 2006.25 -0.651278 -1.5638 0
M  V30 20867 O 2007.45 -0.833795 -1.59524 0
M  V30 20868 H 2003.83 -0.56428 -0.497084 0
M  V30 20869 H 2005.8 -2.70965 -1.24983 0
M  V30 20870 C 2004.55 -1.97079 -2.86453 0
M  V30 20871 H 2003.87 -2.83612 -2.81788 0
M  V30 20872 H 2005.31 -2.18947 -3.63095 0
M  V30 20873 C 2003.77 -0.743842 -3.28586 0
M  V30 20874 O 2004.3 0.0778266 -4.01625 0
M  V30 20875 N 2002.5 -0.573415 -2.84886 0
M  V30 20876 H 2002.05 -1.24319 -2.25616 0
M  V30 20877 H 2002.01 0.24616 -3.13435 0
M  V30 20878 N 2005.78 0.645673 -1.43767 0
M  V30 20879 C 2007.03 1.4027 -1.45495 0
M  V30 20880 C 2007.35 1.94822 -0.0832023 0
M  V30 20881 O 2006.62 1.74895 0.882519 0
M  V30 20882 H 2005.2 0.520611 -0.535699 0
M  V30 20883 H 2007.86 0.760978 -1.7943 0
M  V30 20884 H 2006.96 2.24129 -2.17192 0
M  V30 20885 N 2007.26 1.30423 0.884744 0
M  V30 20886 C 2008.21 1.16824 1.9905 0
M  V30 20887 C 2009.18 0.0576868 1.66 0
M  V30 20888 O 2010.36 0.227913 1.89434 0
M  V30 20889 C 2007.5 0.866281 3.3405 0
M  V30 20890 C 2006.61 2.05874 3.79789 0
M  V30 20891 C 2005.75 1.69484 5.03437 0
M  V30 20892 C 2004.79 2.85224 5.41585 0
M  V30 20893 N 2003.93 2.49129 6.56414 0
M  V30 20894 H 2008.77 2.1142 2.10013 0
M  V30 20895 H 2006.3 1.05188 1.02829 0
M  V30 20896 H 2008.26 0.671829 4.11755 0
M  V30 20897 H 2006.89 -0.0428113 3.22772 0
M  V30 20898 H 2005.94 2.36443 2.97992 0
M  V30 20899 H 2007.25 2.92549 4.04001 0
M  V30 20900 H 2006.41 1.46416 5.88768 0
M  V30 20901 H 2005.15 0.799794 4.81097 0
M  V30 20902 H 2004.15 3.08958 4.5478 0
M  V30 20903 H 2005.38 3.75416 5.65897 0
M  V30 20904 H 2003.32 1.6213 6.35649 0
M  V30 20905 H 2003.24 3.29336 6.80495 0
M  V30 20906 H 2004.51 2.29417 7.44975 0
M  V30 20907 N 2008.74 -1.09711 1.13142 0
M  V30 20908 C 2009.99 -1.81198 0.886021 0
M  V30 20909 C 2010.3 -1.86501 -0.589624 0
M  V30 20910 O 2011.51 -2.54267 -0.951866 0
M  V30 20911 C 2009.96 -3.25498 1.53554 0
M  V30 20912 C 2009.57 -3.2847 3.0465 0
M  V30 20913 C 2011.31 -4.01761 1.37072 0
M  V30 20914 C 2009.22 -4.67276 3.62501 0
M  V30 20915 H 2008.15 -0.679005 0.327824 0
M  V30 20916 H 2010.8 -1.23325 1.35879 0
M  V30 20917 H 2009.18 -3.83414 0.990434 0
M  V30 20918 H 2010.36 -2.80336 3.65716 0
M  V30 20919 H 2008.67 -2.65697 3.20615 0
M  V30 20920 H 2011.27 -5.04306 1.77707 0
M  V30 20921 H 2011.61 -4.15105 0.315226 0
M  V30 20922 H 2012.15 -3.50279 1.88545 0
M  V30 20923 H 2008.88 -4.59133 4.67843 0
M  V30 20924 H 2008.4 -5.15746 3.06212 0
M  V30 20925 H 2010.08 -5.36249 3.62002 0
M  V30 20926 N 2010.22 -0.924476 -1.27637 0
M  V30 20927 C 2011.16 -0.411501 -2.28931 0
M  V30 20928 C 2012.16 0.502472 -1.61776 0
M  V30 20929 O 2013.36 0.382531 -1.75888 0
M  V30 20930 H 2009.74 -0.114496 -0.743233 0
M  V30 20931 H 2011.71 -1.27869 -2.69615 0
M  V30 20932 C 2010.46 0.323415 -3.46193 0
M  V30 20933 H 2009.78 -0.37068 -3.98078 0
M  V30 20934 H 2011.22 0.646821 -4.19037 0
M  V30 20935 C 2009.68 1.53523 -2.99887 0
M  V30 20936 O 2010.21 2.63407 -3.03281 0
M  V30 20937 N 2008.42 1.38594 -2.55421 0
M  V30 20938 H 2007.96 0.491939 -2.52859 0
M  V30 20939 H 2007.92 2.198 -2.24801 0
M  V30 20940 N 2011.69 1.41711 -0.689627 0
M  V30 20941 C 2012.63 2.2818 0.0298794 0
M  V30 20942 C 2013.61 1.41901 0.793909 0
M  V30 20943 O 2014.79 1.71333 0.785962 0
M  V30 20944 C 2011.92 3.22025 1.04965 0
M  V30 20945 C 2010.96 4.24808 0.379483 0
M  V30 20946 S 2011.8 5.28323 -0.873793 0
M  V30 20947 C 2012.95 6.25733 0.144532 0
M  V30 20948 H 2013.18 2.88856 -0.703531 0
M  V30 20949 H 2010.72 1.4676 -0.479687 0
M  V30 20950 H 2012.68 3.76626 1.63288 0
M  V30 20951 H 2011.34 2.60457 1.7556 0
M  V30 20952 H 2010.53 4.90717 1.14947 0
M  V30 20953 H 2010.13 3.73772 -0.130522 0
M  V30 20954 H 2012.42 6.70084 0.999673 0
M  V30 20955 H 2013.37 7.06468 -0.480474 0
M  V30 20956 H 2013.77 5.62311 0.496647 0
M  V30 20957 N 2013.17 0.433965 1.51507 0
M  V30 20958 C 2014.58 -0.0299408 1.86676 0
M  V30 20959 C 2014.93 -1.42245 1.35132 0
M  V30 20960 O 2014.06 -2.0474 0.700735 0
M  V30 20961 C 2014.65 -0.0611079 3.38745 0
M  V30 20962 C 2013.21 -0.469416 3.73461 0
M  V30 20963 C 2012.36 0.340116 2.75206 0
M  V30 20964 H 2015.31 0.649958 1.4478 0
M  V30 20965 H 2015.33 -0.871298 3.7039 0
M  V30 20966 H 2014.84 0.952511 3.7623 0
M  V30 20967 H 2012.95 -1.48876 3.41565 0
M  V30 20968 H 2013.06 -0.196556 4.78697 0
M  V30 20969 H 2011.42 -0.201099 2.53905 0
M  V30 20970 H 2012.21 1.35255 3.15533 0
M  V30 20971 N 2014.65 -1.56732 0.165206 0
M  V30 20972 C 2015.58 -2.13493 -0.805985 0
M  V30 20973 C 2016.56 -1.06335 -1.23011 0
M  V30 20974 O 2017.75 -1.34275 -1.32297 0
M  V30 20975 C 2014.87 -2.6695 -2.08459 0
M  V30 20976 C 2013.92 -3.86423 -1.80497 0
M  V30 20977 S 2014.75 -5.26462 -0.979671 0
M  V30 20978 C 2015.91 -5.83321 -2.26908 0
M  V30 20979 H 2016.14 -2.95536 -0.32336 0
M  V30 20980 H 2013.67 -1.54321 -0.0493706 0
M  V30 20981 H 2015.63 -2.98398 -2.81903 0
M  V30 20982 H 2014.29 -1.85003 -2.53836 0
M  V30 20983 H 2013.49 -4.22134 -2.75352 0
M  V30 20984 H 2013.09 -3.55831 -1.15153 0
M  V30 20985 H 2015.38 -5.95863 -3.22419 0
M  V30 20986 H 2016.32 -6.80527 -1.95675 0
M  V30 20987 H 2016.73 -5.11694 -2.38388 0
M  V30 20988 N 2016.13 0.10854 -1.57226 0
M  V30 20989 C 2017.35 0.832276 -1.89968 0
M  V30 20990 C 2017.78 1.72143 -0.758179 0
M  V30 20991 O 2017.14 1.78952 0.290864 0
M  V30 20992 C 2017.18 1.63287 -3.21512 0
M  V30 20993 O 2016.29 2.74071 -3.08154 0
M  V30 20994 H 2015.63 0.229508 -0.623075 0
M  V30 20995 H 2018.16 0.0877974 -2.04412 0
M  V30 20996 H 2018.17 2.01992 -3.5449 0
M  V30 20997 H 2016.84 0.98022 -4.04184 0
M  V30 20998 H 2015.42 2.38492 -2.86664 0
M  V30 20999 N 2017.61 1.52975 0.379009 0
M  V30 21000 C 2018.85 1.68755 1.12471 0
M  V30 21001 C 2019.19 0.431242 1.89351 0
M  V30 21002 O 2018.46 -0.571204 1.85923 0
M  V30 21003 C 2018.74 2.92896 2.09485 0
M  V30 21004 C 2018.6 4.28651 1.36302 0
M  V30 21005 C 2019.92 3.12604 3.09785 0
M  V30 21006 H 2017.03 0.614092 0.407504 0
M  V30 21007 H 2019.68 1.8559 0.406972 0
M  V30 21008 H 2017.83 2.78673 2.70691 0
M  V30 21009 H 2019.5 4.54661 0.779841 0
M  V30 21010 H 2017.74 4.28675 0.664851 0
M  V30 21011 H 2018.41 5.1162 2.07241 0
M  V30 21012 H 2020.89 3.25924 2.58675 0
M  V30 21013 H 2019.76 4.00924 3.74901 0
M  V30 21014 H 2020.03 2.27272 3.79209 0
M  V30 21015 N 2019.08 -0.63804 1.44107 0
M  V30 21016 C 2020.03 -1.75032 1.5044 0
M  V30 21017 C 2021 -1.62312 0.352721 0
M  V30 21018 O 2022.19 -1.82335 0.562 0
M  V30 21019 C 2019.33 -3.13253 1.44798 0
M  V30 21020 C 2018.44 -3.37 2.70287 0
M  V30 21021 C 2017.57 -4.65154 2.56526 0
M  V30 21022 C 2016.61 -4.82055 3.77212 0
M  V30 21023 N 2015.75 -6.0148 3.62169 0
M  V30 21024 H 2020.59 -1.68954 2.45476 0
M  V30 21025 H 2018.13 -0.82428 1.21836 0
M  V30 21026 H 2020.09 -3.9318 1.39518 0
M  V30 21027 H 2018.72 -3.18364 0.53334 0
M  V30 21028 H 2017.77 -2.51062 2.85783 0
M  V30 21029 H 2019.08 -3.4537 3.5989 0
M  V30 21030 H 2018.23 -5.5323 2.4904 0
M  V30 21031 H 2016.97 -4.5913 1.64472 0
M  V30 21032 H 2015.98 -3.9241 3.8509 0
M  V30 21033 H 2017.2 -4.89898 4.70294 0
M  V30 21034 H 2015.15 -5.96559 2.72861 0
M  V30 21035 H 2015.07 -6.10876 4.45384 0
M  V30 21036 H 2016.33 -6.92137 3.58562 0
M  V30 21037 N 2020.56 -1.3089 -0.877815 0
M  V30 21038 C 2021.79 -1.23068 -1.66319 0
M  V30 21039 C 2022.21 0.205309 -1.8768 0
M  V30 21040 O 2021.56 1.13467 -1.42939 0
M  V30 21041 C 2021.61 -1.96305 -3.03557 0
M  V30 21042 O 2021.33 -3.34298 -2.83154 0
M  V30 21043 C 2022.84 -1.95228 -3.97996 0
M  V30 21044 H 2020.06 -0.425583 -0.518768 0
M  V30 21045 H 2022.6 -1.72636 -1.09623 0
M  V30 21046 H 2020.75 -1.50518 -3.56964 0
M  V30 21047 H 2021.17 -3.71486 -3.70268 0
M  V30 21048 H 2022.64 -2.50997 -4.91635 0
M  V30 21049 H 2023.12 -0.932904 -4.29178 0
M  V30 21050 H 2023.73 -2.40858 -3.50525 0
M  V30 21051 N 2022.04 1.0911 -1.13723 0
M  V30 21052 C 2023.28 1.82962 -0.911268 0
M  V30 21053 C 2023.64 1.83878 0.552529 0
M  V30 21054 O 2024.85 2.53421 0.896168 0
M  V30 21055 C 2023.12 3.24999 -1.48696 0
M  V30 21056 S 2024.68 4.15816 -1.40153 0
M  V30 21057 H 2021.49 0.630622 -0.328386 0
M  V30 21058 H 2024.1 1.31201 -1.44936 0
M  V30 21059 H 2022.8 3.2191 -2.54562 0
M  V30 21060 H 2022.33 3.81833 -0.946951 0
M  V30 21061 H 2024.35 4.94726 -0.382175 0
M  V30 21062 N 2023.52 0.931232 1.27145 0
M  V30 21063 C 2024.8 0.491789 1.89317 0
M  V30 21064 C 2025.18 -1.03026 1.84252 0
M  V30 21065 O 2024.52 -1.88596 1.29011 0
M  V30 21066 C 2024.73 1.04187 3.33086 0
M  V30 21067 C 2026.08 1.1045 4.09983 0
M  V30 21068 O 2027.11 0.991747 3.42115 0
M  V30 21069 O 2025.96 1.27861 5.31332 0
M  V30 21070 H 2023.06 0.158746 0.811621 0
M  V30 21071 H 2025.6 1.02315 1.35387 0
M  V30 21072 H 2024.38 2.08566 3.31083 0
M  V30 21073 H 2024 0.492365 3.9454 0
M  V30 21074 N 2025 -1.41343 0.697132 0
M  V30 21075 C 2025.91 -2.34576 0.0333341 0
M  V30 21076 C 2026.92 -1.56313 -0.764337 0
M  V30 21077 O 2028.1 -1.88787 -0.70154 0
M  V30 21078 C 2025.16 -3.35066 -0.890597 0
M  V30 21079 C 2024.23 -4.29216 -0.0849556 0
M  V30 21080 C 2023.46 -5.24905 -0.964881 0
M  V30 21081 O 2023.68 -5.26083 -2.20437 0
M  V30 21082 O 2022.62 -6.00476 -0.413724 0
M  V30 21083 H 2026.44 -2.92922 0.801892 0
M  V30 21084 H 2024.03 -1.42223 0.457478 0
M  V30 21085 H 2025.91 -3.96741 -1.42036 0
M  V30 21086 H 2024.58 -2.79161 -1.63862 0
M  V30 21087 H 2023.49 -3.70884 0.489447 0
M  V30 21088 H 2024.82 -4.88223 0.624437 0
M  V30 21089 N 2026.48 -0.441993 -1.51275 0
M  V30 21090 C 2027.39 0.373145 -2.31613 0
M  V30 21091 C 2028.4 1.02333 -1.40726 0
M  V30 21092 O 2029.58 1.01768 -1.73796 0
M  V30 21093 C 2026.64 1.45705 -3.14597 0
M  V30 21094 C 2025.7 0.826508 -4.21269 0
M  V30 21095 C 2024.94 1.85876 -5.00286 0
M  V30 21096 O 2025.16 3.08159 -4.79994 0
M  V30 21097 O 2024.09 1.44671 -5.84255 0
M  V30 21098 H 2027.92 -0.282837 -3.0238 0
M  V30 21099 H 2025.5 -0.204432 -1.47995 0
M  V30 21100 H 2027.39 2.08556 -3.66172 0
M  V30 21101 H 2026.06 2.09703 -2.46589 0
M  V30 21102 H 2024.97 0.15982 -3.73758 0
M  V30 21103 H 2026.3 0.229942 -4.91663 0
M  V30 21104 N 2027.95 1.56642 -0.173515 0
M  V30 21105 C 2029.19 1.98845 0.473303 0
M  V30 21106 C 2029.56 1.05721 1.60272 0
M  V30 21107 O 2030.76 1.37073 2.31224 0
M  V30 21108 C 2029.03 3.44767 0.94185 0
M  V30 21109 S 2030.59 4.08998 1.58954 0
M  V30 21110 H 2027.41 0.694527 0.152161 0
M  V30 21111 H 2030.01 1.93606 -0.271494 0
M  V30 21112 H 2028.71 4.10254 0.109473 0
M  V30 21113 H 2028.24 3.53776 1.72063 0
M  V30 21114 H 2030.26 4.04227 2.87775 0
M  V30 21115 N 2029.43 -0.1002 1.57281 0
M  V30 21116 C 2030.67 -0.810297 1.87653 0
M  V30 21117 C 2031.04 -1.7615 0.763876 0
M  V30 21118 O 2032.24 -2.51458 0.949868 0
M  V30 21119 C 2030.51 -1.52432 3.23264 0
M  V30 21120 S 2032.07 -2.2734 3.75316 0
M  V30 21121 H 2028.88 -0.270065 0.657713 0
M  V30 21122 H 2031.49 -0.0676718 1.95383 0
M  V30 21123 H 2030.19 -0.817839 4.02169 0
M  V30 21124 H 2029.72 -2.30694 3.18659 0
M  V30 21125 H 2031.74 -3.53392 3.48323 0
M  V30 21126 N 2030.91 -1.53174 -0.370891 0
M  V30 21127 C 2032.32 -1.60843 -0.94796 0
M  V30 21128 C 2032.67 -0.472528 -1.90425 0
M  V30 21129 O 2031.8 0.401822 -2.12637 0
M  V30 21130 C 2032.39 -2.91534 -1.72607 0
M  V30 21131 C 2030.95 -3.01557 -2.25257 0
M  V30 21132 C 2030.1 -2.561 -1.0634 0
M  V30 21133 H 2033.05 -1.57991 -0.149852 0
M  V30 21134 H 2033.07 -2.79038 -2.58685 0
M  V30 21135 H 2032.58 -3.74188 -1.02982 0
M  V30 21136 H 2030.68 -2.23479 -2.9814 0
M  V30 21137 H 2030.8 -4.06538 -2.53502 0
M  V30 21138 H 2029.16 -2.10849 -1.42881 0
M  V30 21139 H 2029.94 -3.41166 -0.38221 0
M  V30 21140 N 2032.39 0.630389 -1.44443 0
M  V30 21141 C 2033.63 1.39199 -1.47484 0
M  V30 21142 C 2033.97 1.93903 -0.107313 0
M  V30 21143 O 2033.24 1.73699 0.875158 0
M  V30 21144 C 2033.52 2.55674 -2.5358 0
M  V30 21145 C 2033.38 2.06314 -3.99693 0
M  V30 21146 C 2034.7 3.57858 -2.56174 0
M  V30 21147 H 2031.82 0.504794 -0.536984 0
M  V30 21148 H 2034.46 0.712698 -1.76127 0
M  V30 21149 H 2032.61 3.13624 -2.29287 0
M  V30 21150 H 2034.28 1.53189 -4.35122 0
M  V30 21151 H 2032.52 1.37492 -4.11435 0
M  V30 21152 H 2033.19 2.90173 -4.69578 0
M  V30 21153 H 2035.67 3.0971 -2.77883 0
M  V30 21154 H 2034.55 4.36875 -3.32312 0
M  V30 21155 H 2034.81 4.11976 -1.60401 0
M  V30 21156 N 2033.87 1.31354 0.870861 0
M  V30 21157 C 2034.81 1.18858 1.99939 0
M  V30 21158 C 2035.81 0.0970869 1.69122 0
M  V30 21159 O 2037.01 0.258917 1.78128 0
M  V30 21160 H 2033.39 0.367991 0.65581 0
M  V30 21161 H 2035.36 2.14338 2.07609 0
M  V30 21162 C 2034.11 0.911812 3.35531 0
M  V30 21163 H 2033.43 1.74383 3.59765 0
M  V30 21164 H 2034.87 0.864551 4.15092 0
M  V30 21165 C 2033.33 -0.385431 3.34688 0
M  V30 21166 O 2033.86 -1.40251 3.76421 0
M  V30 21167 N 2032.07 -0.401645 2.87811 0
M  V30 21168 H 2031.61 0.426528 2.54044 0
M  V30 21169 H 2031.57 -1.26952 2.87629 0
M  V30 21170 N 2035.34 -1.08505 1.143 0
M  V30 21171 C 2036.59 -1.80872 0.910589 0
M  V30 21172 C 2036.92 -1.86177 -0.562883 0
M  V30 21173 O 2036.17 -1.33282 -1.43299 0
M  V30 21174 C 2036.47 -3.26425 1.45538 0
M  V30 21175 C 2036.14 -3.41239 2.94732 0
M  V30 21176 C 2034.8 -3.44989 3.35464 0
M  V30 21177 C 2037.15 -3.45 3.90672 0
M  V30 21178 C 2034.48 -3.5009 4.70801 0
M  V30 21179 C 2036.83 -3.51637 5.25865 0
M  V30 21180 C 2035.5 -3.53659 5.66111 0
M  V30 21181 H 2034.77 -0.661856 0.333208 0
M  V30 21182 H 2037.41 -1.27762 1.4265 0
M  V30 21183 H 2035.72 -3.82237 0.860376 0
M  V30 21184 H 2037.42 -3.8097 1.25151 0
M  V30 21185 H 2034.01 -3.39011 2.6224 0
M  V30 21186 H 2038.19 -3.41334 3.60284 0
M  V30 21187 H 2033.45 -3.49949 5.01344 0
M  V30 21188 H 2037.62 -3.53492 6.00013 0
M  V30 21189 H 2035.25 -3.57365 6.70965 0
M  V30 21190 N 2036.82 -0.937962 -1.26649 0
M  V30 21191 C 2037.77 -0.443717 -2.26495 0
M  V30 21192 C 2038.74 0.494894 -1.58556 0
M  V30 21193 O 2039.92 0.411807 -1.86303 0
M  V30 21194 C 2037.06 0.287974 -3.43896 0
M  V30 21195 C 2036.18 -0.685936 -4.2652 0
M  V30 21196 C 2035.31 0.0666303 -5.31158 0
M  V30 21197 C 2034.35 -0.899313 -6.05457 0
M  V30 21198 N 2033.49 -0.17871 -7.01873 0
M  V30 21199 H 2038.33 -1.3001 -2.68144 0
M  V30 21200 H 2035.86 -0.652331 -1.31845 0
M  V30 21201 H 2037.82 0.728613 -4.10788 0
M  V30 21202 H 2036.45 1.10852 -3.03169 0
M  V30 21203 H 2035.5 -1.24509 -3.59446 0
M  V30 21204 H 2036.82 -1.42373 -4.7805 0
M  V30 21205 H 2035.97 0.566702 -6.04047 0
M  V30 21206 H 2034.71 0.837326 -4.80458 0
M  V30 21207 H 2033.71 -1.41054 -5.31398 0
M  V30 21208 H 2034.94 -1.66996 -6.58247 0
M  V30 21209 H 2032.89 0.573553 -6.53488 0
M  V30 21210 H 2032.8 -0.855891 -7.51139 0
M  V30 21211 H 2034.07 0.300374 -7.78921 0
M  V30 21212 N 2038.3 1.40971 -0.704618 0
M  V30 21213 C 2039.25 2.30756 -0.0450323 0
M  V30 21214 C 2040.22 1.47598 0.761835 0
M  V30 21215 O 2041.4 1.76365 0.728023 0
M  V30 21216 C 2038.54 3.33723 0.878802 0
M  V30 21217 C 2037.65 4.31955 0.0625832 0
M  V30 21218 C 2036.79 5.2199 0.984889 0
M  V30 21219 C 2035.83 6.11885 0.16211 0
M  V30 21220 N 2034.97 6.94374 1.0387 0
M  V30 21221 H 2039.81 2.86598 -0.816414 0
M  V30 21222 H 2037.34 1.41145 -0.414306 0
M  V30 21223 H 2039.3 3.9198 1.42856 0
M  V30 21224 H 2037.93 2.79409 1.61648 0
M  V30 21225 H 2036.98 3.75571 -0.604216 0
M  V30 21226 H 2038.29 4.95476 -0.574897 0
M  V30 21227 H 2037.45 5.85125 1.60356 0
M  V30 21228 H 2036.19 4.58717 1.65621 0
M  V30 21229 H 2035.19 5.47791 -0.469576 0
M  V30 21230 H 2036.42 6.77216 -0.505547 0
M  V30 21231 H 2034.36 6.337 1.69588 0
M  V30 21232 H 2034.28 7.54617 0.457006 0
M  V30 21233 H 2035.55 7.61969 1.6439 0
M  V30 21234 N 2039.78 0.45001 1.51039 0
M  V30 21235 C 2041.02 -0.111202 2.04097 0
M  V30 21236 C 2041.38 -1.38855 1.32602 0
M  V30 21237 O 2042.58 -2.03081 1.76101 0
M  V30 21238 C 2040.85 -0.312081 3.56035 0
M  V30 21239 S 2042.41 -0.834878 4.30784 0
M  V30 21240 H 2039.23 -0.0258967 0.710528 0
M  V30 21241 H 2041.83 0.612321 1.85663 0
M  V30 21242 H 2040.54 0.623717 4.05633 0
M  V30 21243 H 2040.07 -1.06232 3.78785 0
M  V30 21244 H 2042.08 -2.11096 4.49058 0
M  V30 21245 N 2041.26 -1.56548 0.18182 0
M  V30 21246 C 2042.5 -1.99093 -0.462751 0
M  V30 21247 C 2042.86 -1.06569 -1.59709 0
M  V30 21248 O 2044.06 -1.38297 -2.30494 0
M  V30 21249 C 2042.33 -3.45261 -0.923553 0
M  V30 21250 S 2043.89 -4.09835 -1.56783 0
M  V30 21251 H 2040.71 -0.695324 -0.148476 0
M  V30 21252 H 2043.31 -1.93459 0.281758 0
M  V30 21253 H 2042.02 -4.10306 -0.0877151 0
M  V30 21254 H 2041.55 -3.54684 -1.70185 0
M  V30 21255 H 2043.56 -4.05748 -2.85628 0
M  V30 21256 N 2042.73 0.0918577 -1.57332 0
M  V30 21257 C 2044.15 0.646006 -1.75167 0
M  V30 21258 C 2044.5 1.78949 -0.804463 0
M  V30 21259 O 2043.62 2.16394 0.0162775 0
M  V30 21260 C 2044.22 1.17865 -3.17637 0
M  V30 21261 C 2042.78 1.67884 -3.36886 0
M  V30 21262 C 2041.92 0.589766 -2.70956 0
M  V30 21263 H 2044.87 -0.134229 -1.58131 0
M  V30 21264 H 2044.89 2.04791 -3.20688 0
M  V30 21265 H 2044.41 0.346184 -3.86553 0
M  V30 21266 H 2042.51 2.5352 -2.73054 0
M  V30 21267 H 2042.62 1.7696 -4.45221 0
M  V30 21268 H 2040.98 1.03 -2.32945 0
M  V30 21269 H 2041.77 -0.232174 -3.42514 0
M  V30 21270 N 2044.21 1.53368 0.362763 0
M  V30 21271 C 2045.14 1.82984 1.45048 0
M  V30 21272 C 2046.12 0.683544 1.55762 0
M  V30 21273 O 2047.31 0.933658 1.70283 0
M  V30 21274 C 2044.44 2.02227 2.8235 0
M  V30 21275 C 2043.39 3.18002 2.86459 0
M  V30 21276 C 2042.72 3.22543 4.26463 0
M  V30 21277 C 2044.02 4.56531 2.53726 0
M  V30 21278 H 2045.71 2.74075 1.20513 0
M  V30 21279 H 2043.26 1.31877 0.578302 0
M  V30 21280 H 2045.21 2.21529 3.58473 0
M  V30 21281 H 2043.94 1.07849 3.08279 0
M  V30 21282 H 2042.59 2.98525 2.12787 0
M  V30 21283 H 2042.24 2.25797 4.49472 0
M  V30 21284 H 2041.94 4.00331 4.30127 0
M  V30 21285 H 2043.47 3.44032 5.04455 0
M  V30 21286 H 2044.88 4.75975 3.19563 0
M  V30 21287 H 2043.28 5.36581 2.68703 0
M  V30 21288 H 2044.35 4.61451 1.48967 0
M  V30 21289 N 2045.69 -0.62272 1.44776 0
M  V30 21290 C 2046.94 -1.38415 1.4822 0
M  V30 21291 C 2047.27 -1.93844 0.117595 0
M  V30 21292 O 2046.54 -1.7416 -0.865935 0
M  V30 21293 C 2046.83 -2.54325 2.54933 0
M  V30 21294 C 2046.68 -2.04192 4.00782 0
M  V30 21295 C 2048 -3.56495 2.58069 0
M  V30 21296 H 2045.12 -0.501939 0.539654 0
M  V30 21297 H 2047.76 -0.703347 1.76502 0
M  V30 21298 H 2045.91 -3.12403 2.30947 0
M  V30 21299 H 2047.58 -1.50879 4.35928 0
M  V30 21300 H 2045.83 -1.35308 4.12158 0
M  V30 21301 H 2046.5 -2.87679 4.7111 0
M  V30 21302 H 2048.97 -3.08232 2.79522 0
M  V30 21303 H 2047.85 -4.35106 3.34625 0
M  V30 21304 H 2048.11 -4.11119 1.62583 0
M  V30 21305 N 2047.17 -1.31814 -0.863883 0
M  V30 21306 C 2048.41 -1.23154 -1.63133 0
M  V30 21307 C 2048.77 0.205722 -1.90895 0
M  V30 21308 O 2049.97 0.415911 -2.65563 0
M  V30 21309 C 2048.24 -2.0581 -2.92194 0
M  V30 21310 S 2049.8 -2.14077 -3.83036 0
M  V30 21311 H 2046.62 -0.438531 -0.559653 0
M  V30 21312 H 2049.22 -1.66551 -1.02377 0
M  V30 21313 H 2047.93 -3.09311 -2.69731 0
M  V30 21314 H 2047.46 -1.63155 -3.57972 0
M  V30 21315 H 2049.47 -1.28353 -4.79312 0
M  V30 21316 N 2048.65 1.07897 -1.14873 0
M  V30 21317 C 2049.89 1.8003 -0.918351 0
M  V30 21318 C 2050.22 1.86897 0.556293 0
M  V30 21319 O 2049.49 1.36584 1.40434 0
M  V30 21320 H 2048.07 0.666777 -0.336776 0
M  V30 21321 H 2050.73 1.30421 -1.44832 0
M  V30 21322 H 2049.82 2.82678 -1.32287 0
M  V30 21323 N 2050.12 0.944665 1.2615 0
M  V30 21324 C 2051.07 0.455723 2.26256 0
M  V30 21325 C 2052.04 -0.486478 1.58816 0
M  V30 21326 O 2053.23 -0.401921 1.86519 0
M  V30 21327 C 2050.37 -0.269732 3.44044 0
M  V30 21328 C 2049.48 0.708546 4.2615 0
M  V30 21329 C 2048.61 -0.0384607 5.31186 0
M  V30 21330 C 2047.65 0.931409 6.04972 0
M  V30 21331 N 2046.79 0.215929 7.01768 0
M  V30 21332 H 2051.63 1.31431 2.67451 0
M  V30 21333 H 2049.17 0.659314 1.31497 0
M  V30 21334 H 2051.13 -0.706817 4.11169 0
M  V30 21335 H 2049.76 -1.09243 3.03753 0
M  V30 21336 H 2048.81 1.26414 3.58781 0
M  V30 21337 H 2050.12 1.44906 4.77288 0
M  V30 21338 H 2049.27 -0.53466 6.0434 0
M  V30 21339 H 2048.01 -0.811835 4.80896 0
M  V30 21340 H 2047.02 1.4387 5.30642 0
M  V30 21341 H 2048.24 1.70485 6.57352 0
M  V30 21342 H 2046.19 -0.538889 6.53783 0
M  V30 21343 H 2046.11 0.895714 7.50675 0
M  V30 21344 H 2047.37 -0.259061 7.79069 0
M  V30 21345 N 2051.6 -1.40596 0.712085 0
M  V30 21346 C 2052.57 -2.29105 0.0660369 0
M  V30 21347 C 2053.57 -1.45196 -0.690992 0
M  V30 21348 O 2054.76 -1.66151 -0.523417 0
M  V30 21349 C 2051.89 -3.2835 -0.916461 0
M  V30 21350 H 2053.08 -2.87734 0.845539 0
M  V30 21351 H 2050.63 -1.48859 0.476533 0
M  V30 21352 H 2051.37 -2.74733 -1.72314 0
M  V30 21353 H 2051.15 -3.90288 -0.376557 0
M  V30 21354 H 2052.64 -3.94634 -1.36578 0
M  V30 21355 N 2053.08 -0.458013 -1.50798 0
M  V30 21356 C 2054.33 0.10308 -2.01436 0
M  V30 21357 C 2054.64 1.41957 -1.34564 0
M  V30 21358 O 2055.85 2.06484 -1.76286 0
M  V30 21359 C 2054.3 0.234229 -3.59137 0
M  V30 21360 C 2053.91 -1.07305 -4.34959 0
M  V30 21361 C 2055.66 0.747982 -4.17858 0
M  V30 21362 C 2053.56 -0.906414 -5.84413 0
M  V30 21363 H 2052.49 0.0422981 -0.752813 0
M  V30 21364 H 2055.14 -0.590924 -1.73725 0
M  V30 21365 H 2053.53 0.991716 -3.83381 0
M  V30 21366 H 2054.7 -1.84048 -4.22449 0
M  V30 21367 H 2053.02 -1.51691 -3.87787 0
M  V30 21368 H 2055.61 0.889478 -5.2725 0
M  V30 21369 H 2055.96 1.73592 -3.7838 0
M  V30 21370 H 2056.49 0.048243 -3.97771 0
M  V30 21371 H 2053.23 -1.86733 -6.2834 0
M  V30 21372 H 2052.75 -0.179147 -5.99532 0
M  V30 21373 H 2054.43 -0.567802 -6.44504 0
M  V30 21374 N 2054.56 1.56449 -0.190119 0
M  V30 21375 C 2055.49 2.16074 0.764507 0
M  V30 21376 C 2056.5 1.12124 1.18034 0
M  V30 21377 O 2057.69 1.39237 1.11693 0
M  V30 21378 C 2054.79 2.70392 2.04307 0
M  V30 21379 C 2053.97 3.99194 1.78782 0
M  V30 21380 C 2053.03 4.38388 2.91037 0
M  V30 21381 O 2052.05 5.05906 2.60859 0
M  V30 21382 N 2053.25 4.01483 4.19275 0
M  V30 21383 H 2056.02 2.98616 0.254652 0
M  V30 21384 H 2053.58 1.61898 -0.00797932 0
M  V30 21385 H 2055.57 2.936 2.78534 0
M  V30 21386 H 2054.14 1.92333 2.46428 0
M  V30 21387 H 2053.36 3.84169 0.883602 0
M  V30 21388 H 2054.65 4.83279 1.5912 0
M  V30 21389 H 2054.05 3.47164 4.46647 0
M  V30 21390 H 2052.6 4.29652 4.90145 0
M  V30 21391 N 2056.04 -0.0835127 1.57379 0
M  V30 21392 C 2057.28 -0.784868 1.86671 0
M  V30 21393 C 2057.61 -1.78164 0.780253 0
M  V30 21394 O 2056.87 -1.94402 -0.224985 0
M  V30 21395 C 2057.17 -1.53851 3.22591 0
M  V30 21396 C 2056.83 -0.682799 4.457 0
M  V30 21397 C 2055.49 -0.446944 4.7912 0
M  V30 21398 C 2057.85 -0.0886784 5.21125 0
M  V30 21399 C 2055.17 0.392707 5.85384 0
M  V30 21400 C 2057.53 0.73836 6.28276 0
M  V30 21401 C 2056.19 0.984198 6.60204 0
M  V30 21402 H 2055.46 -0.287204 0.683078 0
M  V30 21403 H 2058.11 -0.0459845 1.91445 0
M  V30 21404 H 2056.41 -2.34928 3.13554 0
M  V30 21405 H 2058.11 -2.08576 3.42486 0
M  V30 21406 H 2054.7 -0.876748 4.19537 0
M  V30 21407 H 2058.88 -0.258035 4.95629 0
M  V30 21408 H 2054.14 0.592037 6.08527 0
M  V30 21409 H 2058.31 1.20553 6.85886 0
M  V30 21410 H 2055.94 1.63661 7.42374 0
M  V30 21411 N 2057.52 -1.53558 -0.354624 0
M  V30 21412 C 2058.76 -1.69489 -1.09346 0
M  V30 21413 C 2059.08 -0.458936 -1.9014 0
M  V30 21414 O 2060.28 -0.498981 -2.66875 0
M  V30 21415 C 2058.74 -2.99663 -1.99324 0
M  V30 21416 C 2058.35 -4.30558 -1.2379 0
M  V30 21417 C 2060.09 -3.2496 -2.73132 0
M  V30 21418 C 2058 -5.51814 -2.12733 0
M  V30 21419 H 2056.93 -0.631535 -0.411922 0
M  V30 21420 H 2059.58 -1.80059 -0.353687 0
M  V30 21421 H 2057.96 -2.82922 -2.77076 0
M  V30 21422 H 2059.14 -4.57966 -0.51025 0
M  V30 21423 H 2057.45 -4.11789 -0.617973 0
M  V30 21424 H 2060.05 -4.12739 -3.39927 0
M  V30 21425 H 2060.39 -2.41491 -3.39099 0
M  V30 21426 H 2060.92 -3.42426 -2.02458 0
M  V30 21427 H 2057.66 -6.37793 -1.51327 0
M  V30 21428 H 2057.18 -5.28669 -2.83317 0
M  V30 21429 H 2058.86 -5.87028 -2.72041 0
M  V30 21430 N 2058.99 0.615033 -1.45104 0
M  V30 21431 C 2060.27 1.37409 -1.39206 0
M  V30 21432 C 2060.65 2.11018 -0.0588763 0
M  V30 21433 O 2060 2.07402 0.958997 0
M  V30 21434 C 2060.21 2.32712 -2.60089 0
M  V30 21435 C 2061.56 2.95549 -3.04854 0
M  V30 21436 O 2062.58 2.43035 -2.60408 0
M  V30 21437 O 2061.44 3.90854 -3.81963 0
M  V30 21438 H 2058.53 0.615766 -0.552052 0
M  V30 21439 H 2061.08 0.638743 -1.5722 0
M  V30 21440 H 2059.85 1.77529 -3.48711 0
M  V30 21441 H 2059.47 3.13639 -2.4437 0
M  V30 21442 N 2060.47 1.3227 0.85688 0
M  V30 21443 C 2061.89 1.11212 1.14473 0
M  V30 21444 C 2062.09 -0.108857 2.01206 0
M  V30 21445 O 2061.14 -0.7944 2.39678 0
M  V30 21446 C 2062.46 2.39046 1.82421 0
M  V30 21447 C 2064 2.44782 1.95066 0
M  V30 21448 C 2064.48 3.72531 2.66429 0
M  V30 21449 N 2065.97 3.735 2.73956 0
M  V30 21450 C 2066.71 4.69049 3.29819 0
M  V30 21451 N 2066.2 5.74963 3.86509 0
M  V30 21452 N 2067.99 4.5655 3.27901 0
M  V30 21453 H 2060.15 2.10557 0.279231 0
M  V30 21454 H 2062.41 0.929507 0.186337 0
M  V30 21455 H 2062.11 3.28299 1.26145 0
M  V30 21456 H 2061.99 2.49838 2.82596 0
M  V30 21457 H 2064.38 1.5599 2.50502 0
M  V30 21458 H 2064.46 2.37944 0.938939 0
M  V30 21459 H 2064.1 4.61696 2.11658 0
M  V30 21460 H 2064.03 3.76639 3.68036 0
M  V30 21461 H 2066.52 2.96945 2.33735 0
M  V30 21462 H 2066.83 6.43931 4.27285 0
M  V30 21463 H 2065.18 5.7872 3.84848 0
M  V30 21464 H 2068.37 3.72973 2.82858 0
M  V30 21465 H 2068.54 5.31189 3.71136 0
M  V30 21466 N 2061.95 -1.07287 1.15444 0
M  V30 21467 C 2063.37 -1.31993 0.897222 0
M  V30 21468 C 2063.57 -1.96286 -0.455437 0
M  V30 21469 O 2062.62 -2.22313 -1.19722 0
M  V30 21470 C 2063.93 -2.2104 2.03868 0
M  V30 21471 C 2065.48 -2.34486 2.07329 0
M  V30 21472 C 2065.96 -3.26882 3.20799 0
M  V30 21473 N 2067.45 -3.34463 3.20451 0
M  V30 21474 C 2068.18 -4.06019 4.0489 0
M  V30 21475 N 2067.68 -4.80184 4.99395 0
M  V30 21476 N 2069.47 -4.01967 3.92911 0
M  V30 21477 H 2061.62 -0.639423 2.02547 0
M  V30 21478 H 2063.89 -0.344393 0.883231 0
M  V30 21479 H 2063.59 -1.8106 3.01513 0
M  V30 21480 H 2063.47 -3.21571 1.9716 0
M  V30 21481 H 2065.85 -2.73719 1.10282 0
M  V30 21482 H 2065.93 -1.33658 2.18104 0
M  V30 21483 H 2065.58 -2.88368 4.18098 0
M  V30 21484 H 2065.51 -4.27667 3.0726 0
M  V30 21485 H 2068 -2.816 2.52012 0
M  V30 21486 H 2068.31 -5.32281 5.60265 0
M  V30 21487 H 2066.66 -4.79198 5.03383 0
M  V30 21488 H 2069.85 -3.43139 3.18392 0
M  V30 21489 H 2070.02 -4.57468 4.58942 0
M  V30 21490 N 2063.43 -0.951342 -1.25647 0
M  V30 21491 C 2064.66 -0.621431 -1.97347 0
M  V30 21492 C 2065.07 0.805774 -1.70742 0
M  V30 21493 O 2064.43 1.53857 -0.981537 0
M  V30 21494 C 2064.48 -0.866537 -3.50961 0
M  V30 21495 O 2064.2 -2.23762 -3.76646 0
M  V30 21496 C 2065.7 -0.548561 -4.39893 0
M  V30 21497 H 2062.92 -0.233273 -0.629146 0
M  V30 21498 H 2065.46 -1.27482 -1.59902 0
M  V30 21499 H 2063.62 -0.259607 -3.86529 0
M  V30 21500 H 2064.03 -2.30528 -4.71123 0
M  V30 21501 H 2065.51 -0.770622 -5.46594 0
M  V30 21502 H 2065.98 0.51678 -4.36149 0
M  V30 21503 H 2066.59 -1.13467 -4.09885 0
M  V30 21504 N 2064.91 1.40216 -0.719531 0
M  V30 21505 C 2065.84 2.2918 -0.0300683 0
M  V30 21506 C 2066.85 1.4603 0.719654 0
M  V30 21507 O 2068.04 1.69276 0.56638 0
M  V30 21508 C 2065.14 3.2437 0.981688 0
M  V30 21509 C 2064.31 4.36393 0.296683 0
M  V30 21510 C 2063.37 5.11996 1.21437 0
M  V30 21511 O 2062.4 5.64908 0.697679 0
M  V30 21512 N 2063.6 5.21726 2.54524 0
M  V30 21513 H 2066.36 2.88992 -0.79396 0
M  V30 21514 H 2063.93 1.51629 -0.567481 0
M  V30 21515 H 2065.92 3.7182 1.59787 0
M  V30 21516 H 2064.49 2.65699 1.64691 0
M  V30 21517 H 2063.71 3.91019 -0.499755 0
M  V30 21518 H 2065 5.08486 -0.17865 0
M  V30 21519 H 2064.39 4.80227 2.98996 0
M  V30 21520 H 2062.95 5.72669 3.11277 0
M  V30 21521 N 2066.38 0.466004 1.50553 0
M  V30 21522 C 2067.63 -0.0908736 2.02596 0
M  V30 21523 C 2067.96 -1.39827 1.34767 0
M  V30 21524 O 2067.24 -1.88693 0.471719 0
M  V30 21525 C 2067.52 -0.279963 3.5901 0
M  V30 21526 C 2067.37 1.0481 4.37419 0
M  V30 21527 C 2068.69 -1.03683 4.27712 0
M  V30 21528 H 2065.81 -0.031552 0.736324 0
M  V30 21529 H 2068.45 0.610602 1.79921 0
M  V30 21530 H 2066.6 -0.877461 3.78461 0
M  V30 21531 H 2068.28 1.68178 4.29551 0
M  V30 21532 H 2066.52 1.64595 4.01361 0
M  V30 21533 H 2067.19 0.869493 5.45109 0
M  V30 21534 H 2069.67 -0.53043 4.12705 0
M  V30 21535 H 2068.54 -1.13792 5.36975 0
M  V30 21536 H 2068.8 -2.07215 3.90531 0
M  V30 21537 N 2067.86 -1.56346 0.198413 0
M  V30 21538 C 2069.28 -1.58822 -0.157378 0
M  V30 21539 C 2069.48 -1.21468 -1.60773 0
M  V30 21540 O 2068.53 -0.938985 -2.34391 0
M  V30 21541 C 2069.85 -3.00336 0.14798 0
M  V30 21542 C 2071.39 -3.12875 0.0883539 0
M  V30 21543 C 2071.87 -4.56527 0.367068 0
M  V30 21544 N 2073.36 -4.62122 0.315805 0
M  V30 21545 C 2074.1 -5.7117 0.505265 0
M  V30 21546 N 2073.59 -6.88671 0.755254 0
M  V30 21547 N 2075.38 -5.60381 0.439293 0
M  V30 21548 H 2067.54 -1.78908 1.1448 0
M  V30 21549 H 2069.8 -0.830475 0.457182 0
M  V30 21550 H 2069.5 -3.32238 1.15373 0
M  V30 21551 H 2069.38 -3.732 -0.547892 0
M  V30 21552 H 2071.77 -2.80783 -0.908004 0
M  V30 21553 H 2071.85 -2.4239 0.817354 0
M  V30 21554 H 2071.49 -4.89332 1.36076 0
M  V30 21555 H 2071.42 -5.25206 -0.382859 0
M  V30 21556 H 2073.91 -3.77679 0.129337 0
M  V30 21557 H 2074.22 -7.67675 0.888542 0
M  V30 21558 H 2072.57 -6.9047 0.792186 0
M  V30 21559 H 2075.76 -4.67462 0.244386 0
M  V30 21560 H 2075.93 -6.45305 0.590363 0
M  V30 21561 N 2069.34 0.0751653 -1.57421 0
M  V30 21562 C 2070.57 0.786829 -1.9103 0
M  V30 21563 C 2070.98 1.71812 -0.792303 0
M  V30 21564 O 2070.32 1.8208 0.243447 0
M  V30 21565 C 2070.38 1.63681 -3.20076 0
M  V30 21566 C 2070.05 0.875252 -4.4854 0
M  V30 21567 C 2071.04 0.196017 -5.1953 0
M  V30 21568 C 2068.73 0.843425 -4.95168 0
M  V30 21569 C 2070.72 -0.504853 -6.35398 0
M  V30 21570 C 2068.41 0.13878 -6.10942 0
M  V30 21571 C 2069.41 -0.534162 -6.80908 0
M  V30 21572 O 2069.1 -1.22746 -7.94474 0
M  V30 21573 H 2068.83 0.229074 -0.636004 0
M  V30 21574 H 2071.38 0.0507529 -2.05337 0
M  V30 21575 H 2069.61 2.41561 -3.01969 0
M  V30 21576 H 2071.3 2.22685 -3.39362 0
M  V30 21577 H 2072.07 0.211935 -4.84537 0
M  V30 21578 H 2067.95 1.35667 -4.40585 0
M  V30 21579 H 2071.49 -1.03067 -6.89944 0
M  V30 21580 H 2067.39 0.120778 -6.45387 0
M  V30 21581 H 2068.16 -1.13639 -8.10573 0
M  V30 21582 N 2070.82 1.53744 0.346476 0
M  V30 21583 C 2072.04 1.75095 1.1116 0
M  V30 21584 C 2072.47 0.487459 1.81674 0
M  V30 21585 O 2071.83 -0.55973 1.72443 0
M  V30 21586 C 2071.87 2.92927 2.103 0
M  V30 21587 O 2070.98 2.62871 3.17762 0
M  V30 21588 H 2070.32 0.580905 0.321629 0
M  V30 21589 H 2072.85 2.00696 0.397762 0
M  V30 21590 H 2072.86 3.19633 2.53572 0
M  V30 21591 H 2071.53 3.84566 1.58372 0
M  V30 21592 H 2070.11 2.47043 2.79328 0
M  V30 21593 N 2072.3 -0.607329 1.45428 0
M  V30 21594 C 2073.23 -1.72873 1.56962 0
M  V30 21595 C 2074.21 -1.64804 0.421159 0
M  V30 21596 O 2075.39 -1.83199 0.64433 0
M  V30 21597 C 2072.52 -3.11476 1.53622 0
M  V30 21598 C 2071.48 -3.34357 2.67188 0
M  V30 21599 C 2070.8 -4.73236 2.48902 0
M  V30 21600 C 2072.1 -3.24586 4.09196 0
M  V30 21601 H 2073.8 -1.63477 2.5083 0
M  V30 21602 H 2071.34 -0.785054 1.20718 0
M  V30 21603 H 2073.3 -3.89725 1.60288 0
M  V30 21604 H 2072.02 -3.21714 0.562838 0
M  V30 21605 H 2070.68 -2.58499 2.5995 0
M  V30 21606 H 2070.33 -4.80206 1.49702 0
M  V30 21607 H 2070.03 -4.895 3.25059 0
M  V30 21608 H 2071.55 -5.53684 2.57422 0
M  V30 21609 H 2072.96 -3.92709 4.17676 0
M  V30 21610 H 2071.36 -3.52381 4.85745 0
M  V30 21611 H 2072.43 -2.22022 4.31085 0
M  V30 21612 N 2073.77 -1.32722 -0.849853 0
M  V30 21613 C 2075.05 -1.14168 -1.58824 0
M  V30 21614 C 2075.43 0.296136 -2.09013 0
M  V30 21615 O 2074.78 1.2935 -1.88364 0
M  V30 21616 C 2074.99 -2.1734 -2.73065 0
M  V30 21617 C 2076.34 -2.50923 -3.42524 0
M  V30 21618 O 2077.36 -2.15923 -2.83295 0
M  V30 21619 O 2076.22 -3.10942 -4.49419 0
M  V30 21620 H 2073.31 -0.440869 -0.699688 0
M  V30 21621 H 2075.86 -1.44269 -0.893563 0
M  V30 21622 H 2074.63 -3.13967 -2.33539 0
M  V30 21623 H 2074.26 -1.88261 -3.50205 0
M  V30 21624 N 2075.25 1.06673 -1.16011 0
M  V30 21625 C 2076.19 2.13466 -0.806686 0
M  V30 21626 C 2077.16 1.61105 0.219956 0
M  V30 21627 O 2078.35 1.88208 0.104922 0
M  V30 21628 C 2075.47 3.38104 -0.200765 0
M  V30 21629 C 2074.52 4.09259 -1.2004 0
M  V30 21630 S 2075.35 4.59768 -2.74543 0
M  V30 21631 C 2076.51 5.87672 -2.1539 0
M  V30 21632 H 2076.74 2.43116 -1.71119 0
M  V30 21633 H 2074.28 1.1905 -0.983182 0
M  V30 21634 H 2076.23 4.10253 0.142375 0
M  V30 21635 H 2074.89 3.06619 0.681444 0
M  V30 21636 H 2074.09 4.98761 -0.7248 0
M  V30 21637 H 2073.69 3.43106 -1.48843 0
M  V30 21638 H 2075.98 6.60224 -1.52019 0
M  V30 21639 H 2076.92 6.39956 -3.03087 0
M  V30 21640 H 2077.33 5.41521 -1.59423 0
M  V30 21641 N 2076.73 0.957992 1.25141 0
M  V30 21642 C 2077.66 0.499001 2.28106 0
M  V30 21643 C 2078.64 -0.456388 1.63863 0
M  V30 21644 O 2079.83 -0.354616 1.90935 0
M  V30 21645 C 2076.96 -0.220851 3.46597 0
M  V30 21646 C 2075.91 0.649607 4.23042 0
M  V30 21647 C 2075.24 -0.201181 5.34321 0
M  V30 21648 C 2076.54 1.92939 4.85357 0
M  V30 21649 H 2078.23 1.35959 2.6675 0
M  V30 21650 H 2075.78 0.655192 1.28231 0
M  V30 21651 H 2077.73 -0.553105 4.17754 0
M  V30 21652 H 2076.45 -1.11571 3.06952 0
M  V30 21653 H 2075.11 0.964992 3.53671 0
M  V30 21654 H 2074.76 -1.0959 4.90917 0
M  V30 21655 H 2074.46 0.377954 5.86383 0
M  V30 21656 H 2075.98 -0.528325 6.0831 0
M  V30 21657 H 2077.4 1.66333 5.4864 0
M  V30 21658 H 2075.8 2.45445 5.4761 0
M  V30 21659 H 2076.87 2.6304 4.07355 0
M  V30 21660 N 2078.21 -1.39832 0.726957 0
M  V30 21661 C 2079.45 -2.00971 0.271788 0
M  V30 21662 C 2079.79 -1.57537 -1.13559 0
M  V30 21663 O 2079.06 -0.800579 -1.7726 0
M  V30 21664 C 2079.35 -3.5825 0.364596 0
M  V30 21665 C 2079.2 -4.11724 1.81117 0
M  V30 21666 C 2080.52 -4.39345 -0.257652 0
M  V30 21667 H 2077.64 -0.730152 0.100232 0
M  V30 21668 H 2080.28 -1.66152 0.921599 0
M  V30 21669 H 2078.43 -3.88042 -0.18865 0
M  V30 21670 H 2080.1 -3.92684 2.42068 0
M  V30 21671 H 2078.34 -3.65585 2.33516 0
M  V30 21672 H 2079.01 -5.20873 1.82743 0
M  V30 21673 H 2081.49 -4.1555 0.213875 0
M  V30 21674 H 2080.37 -5.4866 -0.162327 0
M  V30 21675 H 2080.63 -4.21218 -1.34267 0
M  V30 21676 N 2079.69 -0.473982 -1.50304 0
M  V30 21677 C 2080.91 0.0776132 -2.06754 0
M  V30 21678 C 2081.33 1.33251 -1.33752 0
M  V30 21679 O 2080.69 1.77889 -0.407659 0
M  V30 21680 C 2080.74 0.362773 -3.59675 0
M  V30 21681 O 2080.46 -0.842352 -4.29926 0
M  V30 21682 C 2081.96 0.961013 -4.32758 0
M  V30 21683 H 2079.18 -0.00837304 -0.670948 0
M  V30 21684 H 2081.72 -0.663594 -1.93434 0
M  V30 21685 H 2079.88 1.05392 -3.72789 0
M  V30 21686 H 2080.29 -0.588708 -5.21186 0
M  V30 21687 H 2081.77 1.11029 -5.40719 0
M  V30 21688 H 2082.24 1.95187 -3.93445 0
M  V30 21689 H 2082.85 0.308162 -4.24182 0
M  V30 21690 N 2081.16 1.56239 -0.206702 0
M  V30 21691 C 2082.07 2.2324 0.721172 0
M  V30 21692 C 2083.09 1.2352 1.22552 0
M  V30 21693 O 2084.27 1.56291 1.27025 0
M  V30 21694 C 2081.33 2.88767 1.91871 0
M  V30 21695 C 2080.39 4.03791 1.45779 0
M  V30 21696 C 2079.63 4.66183 2.59825 0
M  V30 21697 O 2079.85 4.27524 3.77597 0
M  V30 21698 O 2078.78 5.55444 2.31874 0
M  V30 21699 H 2082.61 3.03163 0.180488 0
M  V30 21700 H 2080.19 1.49382 0.0231036 0
M  V30 21701 H 2082.08 3.30181 2.61837 0
M  V30 21702 H 2080.75 2.11815 2.44777 0
M  V30 21703 H 2079.66 3.66976 0.726587 0
M  V30 21704 H 2080.99 4.82441 0.975269 0
M  V30 21705 N 2082.64 -0.0668159 1.57458 0
M  V30 21706 C 2083.58 -1.11085 1.99337 0
M  V30 21707 C 2084.55 -1.37296 0.871119 0
M  V30 21708 O 2085.74 -1.50586 1.13384 0
M  V30 21709 C 2082.86 -2.45411 2.33433 0
M  V30 21710 C 2081.91 -2.35303 3.55717 0
M  V30 21711 S 2082.74 -1.74238 5.06361 0
M  V30 21712 C 2083.9 -3.10132 5.43662 0
M  V30 21713 H 2084.13 -0.753977 2.8758 0
M  V30 21714 H 2081.67 -0.275523 1.51922 0
M  V30 21715 H 2083.62 -3.22678 2.53751 0
M  V30 21716 H 2082.28 -2.78258 1.4571 0
M  V30 21717 H 2081.48 -3.34374 3.77107 0
M  V30 21718 H 2081.08 -1.66173 3.35056 0
M  V30 21719 H 2083.37 -4.0645 5.42038 0
M  V30 21720 H 2084.31 -2.93517 6.44401 0
M  V30 21721 H 2084.72 -3.10967 4.71126 0
M  V30 21722 N 2084.12 -1.53926 -0.338317 0
M  V30 21723 C 2085.37 -1.71424 -1.07797 0
M  V30 21724 C 2085.7 -0.480153 -1.8848 0
M  V30 21725 O 2084.95 0.538111 -1.88156 0
M  V30 21726 C 2085.25 -2.93279 -2.0426 0
M  V30 21727 C 2084.92 -4.28665 -1.39847 0
M  V30 21728 C 2083.58 -4.65475 -1.2201 0
M  V30 21729 C 2085.93 -5.12746 -0.934908 0
M  V30 21730 C 2083.26 -5.83979 -0.564424 0
M  V30 21731 C 2085.61 -6.31921 -0.293119 0
M  V30 21732 C 2084.27 -6.67421 -0.102472 0
M  V30 21733 H 2083.54 -0.627283 -0.394458 0
M  V30 21734 H 2086.19 -1.88149 -0.356684 0
M  V30 21735 H 2084.5 -2.71179 -2.82788 0
M  V30 21736 H 2086.19 -3.04011 -2.61492 0
M  V30 21737 H 2082.78 -3.99696 -1.54729 0
M  V30 21738 H 2086.97 -4.84836 -1.06055 0
M  V30 21739 H 2082.22 -6.10055 -0.40538 0
M  V30 21740 H 2086.4 -6.96361 0.0741496 0
M  V30 21741 H 2084.02 -7.59106 0.407635 0
M  V30 21742 N 2085.6 0.599608 -1.45748 0
M  V30 21743 C 2087.02 0.921212 -1.3033 0
M  V30 21744 C 2087.22 1.99787 -0.262213 0
M  V30 21745 O 2086.27 2.50186 0.34109 0
M  V30 21746 C 2087.58 1.35457 -2.68462 0
M  V30 21747 C 2089.13 1.46835 -2.76421 0
M  V30 21748 C 2089.61 1.93544 -4.15096 0
M  V30 21749 N 2091.1 2.00765 -4.1743 0
M  V30 21750 C 2091.83 2.38145 -5.21608 0
M  V30 21751 N 2091.33 2.74437 -6.36126 0
M  V30 21752 N 2093.12 2.38554 -5.08968 0
M  V30 21753 H 2085.27 -0.111892 -2.12105 0
M  V30 21754 H 2087.54 0.0126042 -0.947916 0
M  V30 21755 H 2087.24 0.63759 -3.45872 0
M  V30 21756 H 2087.12 2.31951 -2.97453 0
M  V30 21757 H 2089.5 2.17623 -1.99309 0
M  V30 21758 H 2089.58 0.486356 -2.51134 0
M  V30 21759 H 2089.23 1.2334 -4.92696 0
M  V30 21760 H 2089.16 2.92672 -4.3778 0
M  V30 21761 H 2091.65 1.75275 -3.34794 0
M  V30 21762 H 2091.96 3.01865 -7.11405 0
M  V30 21763 H 2090.31 2.72115 -6.39514 0
M  V30 21764 H 2093.5 2.09612 -4.18546 0
M  V30 21765 H 2093.67 2.67359 -5.90274 0
M  V30 21766 N 2087.08 1.33171 0.842803 0
M  V30 21767 C 2087.99 1.25124 1.98447 0
M  V30 21768 C 2089 0.162551 1.73239 0
M  V30 21769 O 2090.18 0.385417 1.97678 0
M  V30 21770 C 2087.24 0.9866 3.32366 0
M  V30 21771 C 2086.31 2.16491 3.70716 0
M  V30 21772 C 2085.54 1.9128 4.98245 0
M  V30 21773 O 2085.76 0.861174 5.63862 0
M  V30 21774 O 2084.7 2.77708 5.34005 0
M  V30 21775 H 2088.52 2.21126 2.08175 0
M  V30 21776 H 2086.11 1.13178 0.975243 0
M  V30 21777 H 2087.99 0.856003 4.12614 0
M  V30 21778 H 2086.66 0.0568283 3.2365 0
M  V30 21779 H 2085.57 2.35103 2.90994 0
M  V30 21780 H 2086.9 3.07788 3.84093 0
M  V30 21781 N 2088.56 -1.06056 1.16576 0
M  V30 21782 C 2089.79 -1.82328 0.971608 0
M  V30 21783 C 2090.19 -1.82919 -0.483446 0
M  V30 21784 O 2089.54 -1.24868 -1.34735 0
M  V30 21785 C 2089.6 -3.30046 1.42513 0
M  V30 21786 C 2089.26 -3.53153 2.90055 0
M  V30 21787 C 2090.26 -3.46001 3.88045 0
M  V30 21788 C 2087.94 -3.80397 3.2803 0
M  V30 21789 C 2089.94 -3.65764 5.22011 0
M  V30 21790 C 2087.63 -3.99809 4.62165 0
M  V30 21791 C 2088.62 -3.9249 5.58964 0
M  V30 21792 O 2088.31 -4.1137 6.90673 0
M  V30 21793 H 2088.04 -0.581675 0.344427 0
M  V30 21794 H 2090.6 -1.34692 1.55071 0
M  V30 21795 H 2088.83 -3.78555 0.789515 0
M  V30 21796 H 2090.52 -3.87817 1.19802 0
M  V30 21797 H 2091.28 -3.24941 3.60053 0
M  V30 21798 H 2087.16 -3.85201 2.53261 0
M  V30 21799 H 2090.71 -3.59967 5.97553 0
M  V30 21800 H 2086.6 -4.20359 4.89866 0
M  V30 21801 H 2087.37 -4.28645 6.97285 0
M  V30 21802 N 2090.03 -0.964615 -1.24631 0
M  V30 21803 C 2090.98 -0.484126 -2.27506 0
M  V30 21804 C 2091.98 0.45075 -1.63293 0
M  V30 21805 O 2093.18 0.32638 -1.77016 0
M  V30 21806 H 2089.56 -0.138083 -0.739214 0
M  V30 21807 H 2091.53 -1.36382 -2.6541 0
M  V30 21808 C 2090.28 0.213113 -3.47046 0
M  V30 21809 H 2089.6 -0.497138 -3.96697 0
M  V30 21810 H 2091.04 0.513181 -4.20883 0
M  V30 21811 C 2089.5 1.43904 -3.0462 0
M  V30 21812 O 2090.03 2.53625 -3.11508 0
M  V30 21813 N 2088.23 1.30398 -2.59701 0
M  V30 21814 H 2087.78 0.411244 -2.54296 0
M  V30 21815 H 2087.74 2.12537 -2.3168 0
M  V30 21816 N 2091.51 1.39445 -0.734362 0
M  V30 21817 C 2092.46 2.27892 -0.0700436 0
M  V30 21818 C 2093.45 1.44227 0.713266 0
M  V30 21819 O 2094.64 1.67145 0.58238 0
M  V30 21820 C 2091.77 3.32942 0.836939 0
M  V30 21821 C 2090.85 4.24073 0.0478132 0
M  V30 21822 N 2091.24 4.96241 -0.97871 0
M  V30 21823 C 2089.54 4.45135 0.277564 0
M  V30 21824 C 2090.24 5.63222 -1.45451 0
M  V30 21825 N 2089.22 5.38073 -0.773226 0
M  V30 21826 H 2093.02 2.81142 -0.856525 0
M  V30 21827 H 2090.53 1.52119 -0.568635 0
M  V30 21828 H 2092.53 3.95172 1.32833 0
M  V30 21829 H 2091.19 2.81251 1.62259 0
M  V30 21830 H 2092.2 4.99723 -1.36006 0
M  V30 21831 H 2088.88 4.04389 1.03807 0
M  V30 21832 H 2090.27 6.30997 -2.30851 0
M  V30 21833 N 2092.99 0.481946 1.5005 0
M  V30 21834 C 2094.41 0.13674 1.59013 0
M  V30 21835 C 2094.61 -1.35753 1.48908 0
M  V30 21836 O 2093.66 -2.1318 1.35316 0
M  V30 21837 C 2094.97 0.696597 2.9252 0
M  V30 21838 C 2096.52 0.660993 3.05941 0
M  V30 21839 C 2097 1.19858 4.42038 0
M  V30 21840 N 2098.49 1.15846 4.4848 0
M  V30 21841 C 2099.22 1.54481 5.52199 0
M  V30 21842 N 2098.72 2.00617 6.63117 0
M  V30 21843 N 2100.51 1.46016 5.42804 0
M  V30 21844 H 2092.66 1.45367 1.54862 0
M  V30 21845 H 2094.93 0.601814 0.732478 0
M  V30 21846 H 2094.63 1.74381 3.05425 0
M  V30 21847 H 2094.51 0.146249 3.76916 0
M  V30 21848 H 2096.89 -0.377335 2.92678 0
M  V30 21849 H 2096.97 1.24827 2.23275 0
M  V30 21850 H 2096.62 2.2356 4.56052 0
M  V30 21851 H 2096.55 0.587419 5.23313 0
M  V30 21852 H 2099.04 0.820197 3.68892 0
M  V30 21853 H 2099.35 2.28217 7.38334 0
M  V30 21854 H 2097.7 2.04578 6.64209 0
M  V30 21855 H 2100.89 1.09805 4.55039 0
M  V30 21856 H 2101.06 1.7645 6.23514 0
M  V30 21857 N 2094.47 -1.56127 0.214985 0
M  V30 21858 C 2095.42 -2.16628 -0.711066 0
M  V30 21859 C 2096.4 -1.11271 -1.16222 0
M  V30 21860 O 2097.59 -1.37278 -1.11731 0
M  V30 21861 C 2094.72 -2.84465 -1.92184 0
M  V30 21862 C 2093.81 -3.97039 -1.49067 0
M  V30 21863 N 2094.2 -4.99879 -0.771666 0
M  V30 21864 C 2092.5 -4.09007 -1.77846 0
M  V30 21865 C 2093.2 -5.79068 -0.55272 0
M  V30 21866 N 2092.17 -5.322 -1.10745 0
M  V30 21867 H 2095.98 -2.935 -0.153234 0
M  V30 21868 H 2093.49 -1.62392 0.0159773 0
M  V30 21869 H 2095.49 -3.26215 -2.59595 0
M  V30 21870 H 2094.15 -2.09087 -2.48421 0
M  V30 21871 H 2095.16 -5.16153 -0.425036 0
M  V30 21872 H 2091.84 -3.44775 -2.35449 0
M  V30 21873 H 2093.23 -6.71897 0.019071 0
M  V30 21874 N 2095.95 0.0584645 -1.57492 0
M  V30 21875 C 2097.17 0.771417 -1.9252 0
M  V30 21876 C 2097.6 1.69644 -0.812561 0
M  V30 21877 O 2096.95 1.79786 0.233784 0
M  V30 21878 C 2097 1.52975 -3.26544 0
M  V30 21879 O 2096.11 2.64128 -3.16718 0
M  V30 21880 H 2095.45 0.209569 -0.630061 0
M  V30 21881 H 2097.98 0.022721 -2.04587 0
M  V30 21882 H 2097.99 1.90612 -3.60737 0
M  V30 21883 H 2096.66 0.851136 -4.07098 0
M  V30 21884 H 2095.24 2.29251 -2.94106 0
M  V30 21885 N 2097.42 1.54103 0.330149 0
M  V30 21886 C 2098.67 1.72248 1.07045 0
M  V30 21887 C 2099 0.491265 1.87884 0
M  V30 21888 O 2098.28 -0.511764 1.87647 0
M  V30 21889 C 2098.56 2.99412 2.00061 0
M  V30 21890 C 2098.41 4.3277 1.22596 0
M  V30 21891 C 2099.73 3.22301 2.99683 0
M  V30 21892 H 2096.85 0.626746 0.387761 0
M  V30 21893 H 2099.49 1.86791 0.347722 0
M  V30 21894 H 2097.64 2.87144 2.61688 0
M  V30 21895 H 2099.32 4.56911 0.634799 0
M  V30 21896 H 2097.56 4.30573 0.528135 0
M  V30 21897 H 2098.23 5.17954 1.9086 0
M  V30 21898 H 2100.71 3.33988 2.48176 0
M  V30 21899 H 2099.58 4.12648 3.61956 0
M  V30 21900 H 2099.84 2.39221 3.71787 0
M  V30 21901 N 2098.9 -0.59187 1.46064 0
M  V30 21902 C 2100.15 -1.34773 1.50601 0
M  V30 21903 C 2100.47 -1.94379 0.155452 0
M  V30 21904 O 2099.74 -1.7805 -0.816999 0
M  V30 21905 H 2098.32 -0.50037 0.554652 0
M  V30 21906 H 2100.98 -0.69386 1.82131 0
M  V30 21907 H 2100.08 -2.15914 2.25361 0
M  V30 21908 N 2100.38 -1.33616 -0.835729 0
M  V30 21909 C 2101.34 -1.24042 -1.92733 0
M  V30 21910 C 2102.34 -0.158708 -1.60015 0
M  V30 21911 O 2103.53 -0.410456 -1.69295 0
M  V30 21912 C 2100.67 -0.912113 -3.28471 0
M  V30 21913 H 2101.86 -2.21075 -2.02647 0
M  V30 21914 H 2099.41 -1.1772 -1.02819 0
M  V30 21915 H 2100.15 0.0555823 -3.24252 0
M  V30 21916 H 2099.93 -1.69441 -3.53599 0
M  V30 21917 H 2101.42 -0.869957 -4.08438 0
M  V30 21918 N 2101.86 1.05436 -1.17136 0
M  V30 21919 C 2103.09 1.82074 -0.982688 0
M  V30 21920 C 2103.5 1.8288 0.469081 0
M  V30 21921 O 2102.86 1.25425 1.3257 0
M  V30 21922 C 2102.91 3.28302 -1.51328 0
M  V30 21923 O 2102.63 3.27651 -2.9082 0
M  V30 21924 C 2104.13 4.21637 -1.36885 0
M  V30 21925 H 2101.35 0.57382 -0.347811 0
M  V30 21926 H 2103.9 1.32971 -1.55367 0
M  V30 21927 H 2102.05 3.74685 -0.984381 0
M  V30 21928 H 2102.46 4.19154 -3.15294 0
M  V30 21929 H 2103.94 5.2223 -1.78828 0
M  V30 21930 H 2104.42 4.38065 -0.315584 0
M  V30 21931 H 2105.02 3.81107 -1.88779 0
M  V30 21932 N 2103.34 0.971211 1.24118 0
M  V30 21933 C 2104.27 0.523167 2.27564 0
M  V30 21934 C 2105.25 -0.438983 1.64338 0
M  V30 21935 O 2106.43 -0.334345 1.913 0
M  V30 21936 C 2103.56 -0.184078 3.46812 0
M  V30 21937 C 2102.52 0.694439 4.22329 0
M  V30 21938 C 2101.84 -0.144498 5.34505 0
M  V30 21939 C 2103.14 1.98076 4.83284 0
M  V30 21940 H 2104.84 1.3878 2.65293 0
M  V30 21941 H 2102.38 0.668756 1.27529 0
M  V30 21942 H 2104.34 -0.508765 4.18318 0
M  V30 21943 H 2103.06 -1.08309 3.08118 0
M  V30 21944 H 2101.72 1.00245 3.52628 0
M  V30 21945 H 2101.37 -1.04377 4.92051 0
M  V30 21946 H 2101.07 0.440127 5.85949 0
M  V30 21947 H 2102.59 -0.463776 6.08836 0
M  V30 21948 H 2104 1.72143 5.46845 0
M  V30 21949 H 2102.4 2.5124 5.44976 0
M  V30 21950 H 2103.47 2.67346 4.04542 0
M  V30 21951 N 2104.81 -1.39054 0.741747 0
M  V30 21952 C 2105.72 -2.34352 0.107946 0
M  V30 21953 C 2106.74 -1.58666 -0.71422 0
M  V30 21954 O 2107.92 -1.90923 -0.641124 0
M  V30 21955 C 2104.98 -3.3773 -0.783547 0
M  V30 21956 C 2104.04 -4.29269 0.0516392 0
M  V30 21957 C 2103.28 -5.27709 -0.797398 0
M  V30 21958 O 2103.5 -5.3283 -2.03588 0
M  V30 21959 O 2102.43 -6.01489 -0.222478 0
M  V30 21960 H 2106.26 -2.90223 0.894677 0
M  V30 21961 H 2103.84 -1.40696 0.502494 0
M  V30 21962 H 2105.73 -4.01059 -1.29342 0
M  V30 21963 H 2104.4 -2.84233 -1.54898 0
M  V30 21964 H 2103.31 -3.6914 0.607193 0
M  V30 21965 H 2104.64 -4.85989 0.779446 0
M  V30 21966 N 2106.29 -0.489897 -1.49792 0
M  V30 21967 C 2107.26 0.283286 -2.27443 0
M  V30 21968 C 2108.26 0.903846 -1.32993 0
M  V30 21969 O 2109.45 0.770101 -1.56253 0
M  V30 21970 C 2106.58 1.40534 -3.10585 0
M  V30 21971 H 2107.77 -0.397946 -2.97248 0
M  V30 21972 H 2105.32 -0.244516 -1.54376 0
M  V30 21973 H 2106.06 2.12106 -2.4532 0
M  V30 21974 H 2105.84 0.965947 -3.80016 0
M  V30 21975 H 2107.33 1.95026 -3.69262 0
M  V30 21976 N 2107.77 1.56011 -0.223262 0
M  V30 21977 C 2108.7 2.23355 0.680795 0
M  V30 21978 C 2109.68 1.20584 1.19973 0
M  V30 21979 O 2110.87 1.49174 1.24342 0
M  V30 21980 C 2108 2.91478 1.88833 0
M  V30 21981 C 2106.95 4.00736 1.50316 0
M  V30 21982 C 2106.28 4.56164 2.7896 0
M  V30 21983 C 2107.58 5.17697 0.69188 0
M  V30 21984 H 2109.27 2.99162 0.119304 0
M  V30 21985 H 2106.82 1.43891 0.055942 0
M  V30 21986 H 2108.77 3.37282 2.52623 0
M  V30 21987 H 2107.49 2.13121 2.47481 0
M  V30 21988 H 2106.15 3.55665 0.888708 0
M  V30 21989 H 2105.8 3.74535 3.35757 0
M  V30 21990 H 2105.5 5.29903 2.53922 0
M  V30 21991 H 2107.02 5.04687 3.43691 0
M  V30 21992 H 2108.44 5.59872 1.23353 0
M  V30 21993 H 2106.84 5.97679 0.538515 0
M  V30 21994 H 2107.91 4.83964 -0.301131 0
M  V30 21995 N 2109.25 -0.0501116 1.5752 0
M  V30 21996 C 2110.5 -0.745096 1.88294 0
M  V30 21997 C 2110.82 -1.76469 0.817869 0
M  V30 21998 O 2110.08 -1.94836 -0.183698 0
M  V30 21999 C 2110.38 -1.46973 3.25782 0
M  V30 22000 C 2110.04 -0.588106 4.47048 0
M  V30 22001 C 2108.71 -0.345215 4.7996 0
M  V30 22002 C 2111.06 0.0218798 5.21195 0
M  V30 22003 C 2108.39 0.516787 5.8442 0
M  V30 22004 C 2110.74 0.87146 6.26569 0
M  V30 22005 C 2109.4 1.12402 6.57968 0
M  V30 22006 H 2108.67 -0.27265 0.689016 0
M  V30 22007 H 2111.32 -0.00536588 1.91499 0
M  V30 22008 H 2109.62 -2.28224 3.18467 0
M  V30 22009 H 2111.32 -2.01265 3.46834 0
M  V30 22010 H 2107.91 -0.787561 4.21302 0
M  V30 22011 H 2112.09 -0.152846 4.96065 0
M  V30 22012 H 2107.35 0.720981 6.07134 0
M  V30 22013 H 2111.52 1.35074 6.83175 0
M  V30 22014 H 2109.15 1.79371 7.38736 0
M  V30 22015 N 2110.73 -1.54276 -0.321972 0
M  V30 22016 C 2111.66 -1.80114 -1.41745 0
M  V30 22017 C 2112.67 -0.683177 -1.47772 0
M  V30 22018 O 2113.86 -0.960312 -1.50467 0
M  V30 22019 C 2110.96 -1.90532 -2.80269 0
M  V30 22020 C 2110.13 -3.20712 -2.97427 0
M  V30 22021 C 2109.19 -3.21811 -4.16322 0
M  V30 22022 O 2108.22 -3.95443 -4.09406 0
M  V30 22023 N 2109.42 -2.45708 -5.25935 0
M  V30 22024 H 2112.19 -2.74652 -1.19943 0
M  V30 22025 H 2109.75 -1.53592 -0.511965 0
M  V30 22026 H 2111.74 -1.88693 -3.58018 0
M  V30 22027 H 2110.31 -1.03083 -2.95115 0
M  V30 22028 H 2109.53 -3.35498 -2.06965 0
M  V30 22029 H 2110.82 -4.0666 -3.05786 0
M  V30 22030 H 2110.21 -1.85477 -5.34429 0
M  V30 22031 H 2108.77 -2.49645 -6.02097 0
M  V30 22032 N 2112.2 0.584116 -1.46376 0
M  V30 22033 C 2113.45 1.33973 -1.51313 0
M  V30 22034 C 2113.77 1.94294 -0.165758 0
M  V30 22035 O 2113.04 1.78481 0.807546 0
M  V30 22036 H 2111.62 0.497422 -0.557298 0
M  V30 22037 H 2114.29 0.684191 -1.82496 0
M  V30 22038 H 2113.38 2.14716 -2.26503 0
M  V30 22039 N 2113.68 1.34058 0.828631 0
M  V30 22040 C 2115.09 1.2341 1.40095 0
M  V30 22041 C 2115.45 -0.142779 1.9568 0
M  V30 22042 O 2114.57 -1.04286 1.89614 0
M  V30 22043 C 2115.17 2.23441 2.54675 0
M  V30 22044 C 2113.72 2.16602 3.07832 0
M  V30 22045 C 2112.87 2.1036 1.80676 0
M  V30 22046 H 2115.82 1.45507 0.633514 0
M  V30 22047 H 2115.84 1.84809 3.32605 0
M  V30 22048 H 2115.36 3.23642 2.1419 0
M  V30 22049 H 2113.46 1.19738 3.52836 0
M  V30 22050 H 2113.57 3.07604 3.6731 0
M  V30 22051 H 2111.93 1.55992 2.01342 0
M  V30 22052 H 2112.72 3.12386 1.42373 0
M  V30 22053 N 2115.16 -1.04814 1.17694 0
M  V30 22054 C 2116.57 -1.5934 0.973022 0
M  V30 22055 C 2116.92 -1.90256 -0.479284 0
M  V30 22056 O 2116.05 -1.68704 -1.35528 0
M  V30 22057 C 2116.64 -2.89503 1.75993 0
M  V30 22058 C 2115.2 -3.40674 1.60058 0
M  V30 22059 C 2114.35 -2.14356 1.75916 0
M  V30 22060 H 2117.3 -0.87578 1.32347 0
M  V30 22061 H 2117.32 -3.5957 1.24457 0
M  V30 22062 H 2116.83 -2.6697 2.81689 0
M  V30 22063 H 2114.93 -3.68235 0.568665 0
M  V30 22064 H 2115.05 -4.15004 2.39393 0
M  V30 22065 H 2113.41 -2.25301 1.18793 0
M  V30 22066 H 2114.19 -1.94288 2.83032 0
M  V30 22067 N 2116.64 -0.977779 -1.23601 0
M  V30 22068 C 2117.89 -0.646167 -1.9223 0
M  V30 22069 C 2118.22 0.817893 -1.76137 0
M  V30 22070 O 2117.49 1.58966 -1.12071 0
M  V30 22071 C 2117.78 -1.03412 -3.44932 0
M  V30 22072 C 2117.63 -2.55561 -3.70147 0
M  V30 22073 C 2118.95 -0.576087 -4.36313 0
M  V30 22074 H 2116.07 -0.236222 -0.698118 0
M  V30 22075 H 2118.71 -1.21859 -1.45775 0
M  V30 22076 H 2116.86 -0.547033 -3.84629 0
M  V30 22077 H 2118.53 -3.11824 -3.39947 0
M  V30 22078 H 2116.77 -2.98312 -3.14949 0
M  V30 22079 H 2117.45 -2.77756 -4.77028 0
M  V30 22080 H 2119.92 -0.994237 -4.04047 0
M  V30 22081 H 2118.8 -0.875993 -5.41865 0
M  V30 22082 H 2119.06 0.523647 -4.38988 0
M  V30 22083 N 2118.12 1.38658 -0.749111 0
M  V30 22084 C 2119.35 2.04208 -0.313503 0
M  V30 22085 C 2119.76 1.56615 1.06153 0
M  V30 22086 O 2119.1 0.732462 1.68466 0
M  V30 22087 C 2119.16 3.58611 -0.252636 0
M  V30 22088 C 2118.82 4.29241 -1.56847 0
M  V30 22089 C 2119.82 4.5492 -2.51683 0
M  V30 22090 C 2117.51 4.67517 -1.83667 0
M  V30 22091 C 2119.5 5.17901 -3.71561 0
M  V30 22092 C 2117.19 5.30223 -3.0382 0
M  V30 22093 C 2118.19 5.5535 -3.97587 0
M  V30 22094 O 2117.87 6.16752 -5.15628 0
M  V30 22095 H 2117.61 0.662881 -0.132533 0
M  V30 22096 H 2120.16 1.7842 -1.01762 0
M  V30 22097 H 2118.39 3.83353 0.507689 0
M  V30 22098 H 2120.08 4.05612 0.152857 0
M  V30 22099 H 2120.84 4.25783 -2.32237 0
M  V30 22100 H 2116.72 4.47308 -1.1152 0
M  V30 22101 H 2120.27 5.37429 -4.44765 0
M  V30 22102 H 2116.16 5.58783 -3.2316 0
M  V30 22103 H 2116.93 6.35241 -5.1615 0
M  V30 22104 N 2119.6 0.497834 1.49531 0
M  V30 22105 C 2121.01 0.153598 1.58859 0
M  V30 22106 C 2121.21 -1.34166 1.50339 0
M  V30 22107 O 2120.27 -2.11733 1.37569 0
M  V30 22108 C 2121.58 0.727583 2.91765 0
M  V30 22109 C 2123.13 0.693405 3.05223 0
M  V30 22110 C 2123.6 1.2454 4.40742 0
M  V30 22111 N 2125.09 1.20596 4.47226 0
M  V30 22112 C 2125.83 1.60329 5.50529 0
M  V30 22113 N 2125.33 2.07639 6.60952 0
M  V30 22114 N 2127.12 1.51765 5.41224 0
M  V30 22115 H 2119.27 1.47001 1.53312 0
M  V30 22116 H 2121.53 0.609549 0.726054 0
M  V30 22117 H 2121.24 1.77611 3.03558 0
M  V30 22118 H 2121.11 0.186218 3.7674 0
M  V30 22119 H 2123.5 -0.346272 2.93061 0
M  V30 22120 H 2123.58 1.27188 2.21939 0
M  V30 22121 H 2123.22 2.28384 4.53655 0
M  V30 22122 H 2123.15 0.642891 5.22661 0
M  V30 22123 H 2125.65 0.859277 3.68001 0
M  V30 22124 H 2125.96 2.36035 7.35872 0
M  V30 22125 H 2124.3 2.11611 6.62001 0
M  V30 22126 H 2127.49 1.14625 4.53849 0
M  V30 22127 H 2127.67 1.83053 6.21607 0
M  V30 22128 N 2121.07 -1.5589 0.231532 0
M  V30 22129 C 2121.98 -2.24359 -0.685566 0
M  V30 22130 C 2123 -1.25454 -1.20571 0
M  V30 22131 O 2124.18 -1.58292 -1.24522 0
M  V30 22132 C 2121.24 -2.91783 -1.87252 0
M  V30 22133 C 2120.3 -4.06059 -1.39337 0
M  V30 22134 C 2119.53 -4.70258 -2.52375 0
M  V30 22135 O 2119.76 -4.33477 -3.70747 0
M  V30 22136 O 2118.69 -5.59063 -2.23008 0
M  V30 22137 H 2122.52 -3.03412 -0.132235 0
M  V30 22138 H 2120.1 -1.494 0.000664697 0
M  V30 22139 H 2121.98 -3.34305 -2.56551 0
M  V30 22140 H 2120.66 -2.15683 -2.41377 0
M  V30 22141 H 2119.57 -3.68086 -0.668112 0
M  V30 22142 H 2120.9 -4.83932 -0.898393 0
M  V30 22143 N 2122.55 0.0417572 -1.57545 0
M  V30 22144 C 2123.8 0.734075 -1.87868 0
M  V30 22145 C 2124.11 1.77194 -0.828352 0
M  V30 22146 O 2125.32 2.51595 -1.02039 0
M  V30 22147 C 2123.78 1.35664 -3.33352 0
M  V30 22148 C 2123.38 0.355779 -4.46585 0
M  V30 22149 C 2125.13 2.02957 -3.72839 0
M  V30 22150 C 2123.03 0.985962 -5.83123 0
M  V30 22151 H 2121.96 0.277922 -0.70091 0
M  V30 22152 H 2124.62 -0.0119297 -1.83496 0
M  V30 22153 H 2123 2.15192 -3.32428 0
M  V30 22154 H 2124.17 -0.411871 -4.58956 0
M  V30 22155 H 2122.49 -0.214356 -4.15848 0
M  V30 22156 H 2125.08 2.50935 -4.72161 0
M  V30 22157 H 2125.43 2.84222 -3.04176 0
M  V30 22158 H 2125.96 1.3022 -3.75882 0
M  V30 22159 H 2122.7 0.212992 -6.55154 0
M  V30 22160 H 2122.22 1.72375 -5.74497 0
M  V30 22161 H 2123.9 1.49705 -6.29442 0
M  V30 22162 N 2124.03 1.54445 0.313786 0
M  V30 22163 C 2124.98 1.8451 1.38654 0
M  V30 22164 C 2125.95 0.692957 1.50955 0
M  V30 22165 O 2127.13 0.940344 1.66019 0
M  V30 22166 C 2124.27 2.08672 2.74863 0
M  V30 22167 C 2123.38 3.36334 2.71115 0
M  V30 22168 C 2122.52 3.50406 3.99235 0
M  V30 22169 C 2121.56 4.71907 3.89833 0
M  V30 22170 N 2120.7 4.82853 5.09703 0
M  V30 22171 H 2125.54 2.76024 1.12315 0
M  V30 22172 H 2123.07 1.36691 0.543496 0
M  V30 22173 H 2125.03 2.20675 3.5406 0
M  V30 22174 H 2123.66 1.20438 2.9949 0
M  V30 22175 H 2122.71 3.33019 1.83855 0
M  V30 22176 H 2124.02 4.25645 2.60054 0
M  V30 22177 H 2123.18 3.62004 4.86865 0
M  V30 22178 H 2121.92 2.59206 4.13115 0
M  V30 22179 H 2120.92 4.60356 3.00587 0
M  V30 22180 H 2122.15 5.64502 3.7751 0
M  V30 22181 H 2120.09 3.94572 5.2407 0
M  V30 22182 H 2120.01 5.66145 5.01015 0
M  V30 22183 H 2121.28 4.98794 5.9902 0
M  V30 22184 N 2125.51 -0.576345 1.46683 0
M  V30 22185 C 2126.76 -1.33056 1.51588 0
M  V30 22186 C 2127.07 -1.94819 0.174653 0
M  V30 22187 O 2128.28 -2.7131 0.101545 0
M  V30 22188 C 2126.73 -2.4118 2.67133 0
M  V30 22189 C 2126.34 -1.85693 4.07703 0
M  V30 22190 C 2128.08 -3.17904 2.81314 0
M  V30 22191 C 2125.99 -2.91484 5.14579 0
M  V30 22192 H 2124.92 -0.500222 0.564175 0
M  V30 22193 H 2127.57 -0.614346 1.7291 0
M  V30 22194 H 2125.95 -3.1563 2.39152 0
M  V30 22195 H 2127.13 -1.17744 4.45503 0
M  V30 22196 H 2125.44 -1.21616 3.98244 0
M  V30 22197 H 2128.04 -3.96868 3.58329 0
M  V30 22198 H 2128.38 -3.70894 1.8906 0
M  V30 22199 H 2128.92 -2.50562 3.08971 0
M  V30 22200 H 2125.65 -2.43373 6.08646 0
M  V30 22201 H 2125.17 -3.57902 4.81317 0
M  V30 22202 H 2126.85 -3.55321 5.40699 0
M  V30 22203 N 2126.99 -1.34495 -0.82151 0
M  V30 22204 C 2128.21 -1.30164 -1.61468 0
M  V30 22205 C 2128.64 0.121303 -1.87708 0
M  V30 22206 O 2127.99 1.08349 -1.45362 0
M  V30 22207 C 2128.04 -2.09951 -2.93177 0
M  V30 22208 O 2127.15 -1.47 -3.85311 0
M  V30 22209 H 2126.49 -0.446975 -0.491029 0
M  V30 22210 H 2129.02 -1.77318 -1.02075 0
M  V30 22211 H 2129.03 -2.21359 -3.4273 0
M  V30 22212 H 2127.7 -3.13407 -2.73402 0
M  V30 22213 H 2126.28 -1.44343 -3.4383 0
M  V30 22214 N 2128.46 1.04188 -1.18248 0
M  V30 22215 C 2129.71 1.7763 -0.978539 0
M  V30 22216 C 2130.04 1.87897 0.490757 0
M  V30 22217 O 2129.32 1.38617 1.36439 0
M  V30 22218 C 2129.6 3.20968 -1.63252 0
M  V30 22219 C 2129.45 3.18653 -3.1746 0
M  V30 22220 C 2130.77 4.19052 -1.34475 0
M  V30 22221 H 2127.89 0.644817 -0.356903 0
M  V30 22222 H 2130.53 1.21713 -1.45897 0
M  V30 22223 H 2128.68 3.68714 -1.22402 0
M  V30 22224 H 2130.36 2.78906 -3.67436 0
M  V30 22225 H 2128.6 2.56717 -3.49684 0
M  V30 22226 H 2129.27 4.19864 -3.58354 0
M  V30 22227 H 2131.75 3.79848 -1.69868 0
M  V30 22228 H 2130.62 5.17565 -1.82804 0
M  V30 22229 H 2130.88 4.41291 -0.267408 0
M  V30 22230 N 2129.94 0.98432 1.23081 0
M  V30 22231 C 2130.91 0.532738 2.22923 0
M  V30 22232 C 2131.91 -0.379759 1.56251 0
M  V30 22233 O 2133.1 -0.172906 1.7334 0
M  V30 22234 C 2130.23 -0.226262 3.40148 0
M  V30 22235 H 2131.42 1.41558 2.64388 0
M  V30 22236 H 2128.97 0.77062 1.35982 0
M  V30 22237 H 2129.71 -1.12547 3.04144 0
M  V30 22238 H 2129.49 0.428801 3.89748 0
M  V30 22239 H 2130.98 -0.530671 4.14214 0
M  V30 22240 N 2131.42 -1.38259 0.756453 0
M  V30 22241 C 2132.83 -1.82766 0.381221 0
M  V30 22242 C 2133.18 -1.631 -1.09054 0
M  V30 22243 O 2132.31 -1.13374 -1.84324 0
M  V30 22244 C 2132.9 -3.318 0.685159 0
M  V30 22245 C 2131.46 -3.74644 0.36317 0
M  V30 22246 C 2130.61 -2.60994 0.936868 0
M  V30 22247 H 2133.56 -1.26947 0.952371 0
M  V30 22248 H 2133.58 -3.80483 -0.0356313 0
M  V30 22249 H 2133.09 -3.46082 1.75639 0
M  V30 22250 H 2131.19 -3.65939 -0.701363 0
M  V30 22251 H 2131.31 -4.71305 0.860726 0
M  V30 22252 H 2129.67 -2.52113 0.362062 0
M  V30 22253 H 2130.45 -2.78075 2.01319 0
M  V30 22254 N 2132.9 -0.505757 -1.49264 0
M  V30 22255 C 2133.81 0.274574 -2.32988 0
M  V30 22256 C 2134.82 0.962724 -1.4494 0
M  V30 22257 O 2136 0.943054 -1.77956 0
M  V30 22258 C 2133.07 1.32231 -3.20493 0
M  V30 22259 C 2132.13 0.64709 -4.24395 0
M  V30 22260 C 2131.36 1.6449 -5.07719 0
M  V30 22261 O 2131.58 2.87523 -4.92632 0
M  V30 22262 O 2130.52 1.19761 -5.89865 0
M  V30 22263 H 2134.34 -0.410833 -3.00908 0
M  V30 22264 H 2131.93 -0.267017 -1.46994 0
M  V30 22265 H 2133.81 1.92838 -3.74689 0
M  V30 22266 H 2132.48 1.99056 -2.55262 0
M  V30 22267 H 2131.39 0.00115278 -3.741 0
M  V30 22268 H 2132.72 0.0212046 -4.92195 0
M  V30 22269 N 2134.38 1.55765 -0.239796 0
M  V30 22270 C 2135.6 2.03167 0.391261 0
M  V30 22271 C 2136.02 1.11923 1.52049 0
M  V30 22272 O 2135.38 0.132278 1.8202 0
M  V30 22273 C 2135.43 3.49969 0.90575 0
M  V30 22274 O 2135.15 4.37736 -0.178468 0
M  V30 22275 C 2136.65 4.131 1.60821 0
M  V30 22276 H 2133.87 0.664411 0.0938007 0
M  V30 22277 H 2136.41 2.01278 -0.361584 0
M  V30 22278 H 2134.57 3.52415 1.6088 0
M  V30 22279 H 2134.98 5.24075 0.211064 0
M  V30 22280 H 2136.46 5.17533 1.92 0
M  V30 22281 H 2136.93 3.59169 2.52773 0
M  V30 22282 H 2137.54 4.14556 0.949915 0
M  V30 22283 N 2135.85 -0.0334016 1.57565 0
M  V30 22284 C 2137.27 -0.580549 1.77444 0
M  V30 22285 C 2137.62 -1.7584 0.870324 0
M  V30 22286 O 2136.74 -2.16305 0.0640468 0
M  V30 22287 C 2137.34 -1.05995 3.21793 0
M  V30 22288 C 2135.9 -1.55265 3.42885 0
M  V30 22289 C 2135.04 -0.488796 2.72958 0
M  V30 22290 H 2137.99 0.192826 1.57524 0
M  V30 22291 H 2138.01 -1.92748 3.28068 0
M  V30 22292 H 2137.53 -0.202479 3.87571 0
M  V30 22293 H 2135.63 -2.43211 2.82275 0
M  V30 22294 H 2135.74 -1.60314 4.51482 0
M  V30 22295 H 2134.1 -0.942831 2.36607 0
M  V30 22296 H 2134.89 0.359136 3.41416 0
M  V30 22297 N 2137.33 -1.54609 -0.305591 0
M  V30 22298 C 2138.74 -1.64719 -0.878888 0
M  V30 22299 C 2139.09 -0.552868 -1.88249 0
M  V30 22300 O 2138.22 0.311274 -2.1415 0
M  V30 22301 C 2138.81 -2.98593 -1.60087 0
M  V30 22302 C 2137.37 -3.10839 -2.12264 0
M  V30 22303 C 2136.52 -2.6038 -0.953822 0
M  V30 22304 H 2139.47 -1.58484 -0.0827074 0
M  V30 22305 H 2139.49 -2.89759 -2.46617 0
M  V30 22306 H 2139 -3.78219 -0.870185 0
M  V30 22307 H 2137.11 -2.35924 -2.88394 0
M  V30 22308 H 2137.22 -4.16924 -2.36031 0
M  V30 22309 H 2135.58 -2.16719 -1.33809 0
M  V30 22310 H 2136.37 -3.4248 -0.237166 0
M  V30 22311 N 2138.81 0.568558 -1.46987 0
M  V30 22312 C 2140.22 1.1507 -1.47023 0
M  V30 22313 C 2140.57 1.94977 -0.218726 0
M  V30 22314 O 2139.7 2.05531 0.677201 0
M  V30 22315 C 2140.29 2.09348 -2.66381 0
M  V30 22316 C 2138.85 2.62857 -2.69413 0
M  V30 22317 C 2138 1.39006 -2.39943 0
M  V30 22318 H 2140.95 0.355745 -1.54661 0
M  V30 22319 H 2140.97 2.93044 -2.42705 0
M  V30 22320 H 2140.48 1.51163 -3.57451 0
M  V30 22321 H 2138.58 3.24872 -1.82452 0
M  V30 22322 H 2138.7 3.04626 -3.69784 0
M  V30 22323 H 2137.06 1.69297 -1.90291 0
M  V30 22324 H 2137.84 0.826309 -3.33207 0
M  V30 22325 N 2140.29 1.34929 0.814366 0
M  V30 22326 C 2141.7 1.24889 1.38779 0
M  V30 22327 C 2142.05 -0.122017 1.9582 0
M  V30 22328 O 2141.18 -1.02269 1.90709 0
M  V30 22329 C 2141.77 2.2613 2.52291 0
M  V30 22330 C 2140.33 2.19855 3.05517 0
M  V30 22331 C 2139.48 2.12265 1.78435 0
M  V30 22332 H 2142.43 1.46171 0.618046 0
M  V30 22333 H 2142.45 1.88326 3.30626 0
M  V30 22334 H 2141.96 3.25896 2.10745 0
M  V30 22335 H 2140.06 1.23474 3.51547 0
M  V30 22336 H 2140.17 3.11482 3.64027 0
M  V30 22337 H 2138.54 1.58119 1.99676 0
M  V30 22338 H 2139.32 3.13878 1.39051 0
M  V30 22339 N 2141.77 -1.0356 1.18799 0
M  V30 22340 C 2143.18 -1.29071 0.938761 0
M  V30 22341 C 2143.38 -1.97635 -0.39276 0
M  V30 22342 O 2142.44 -2.26009 -1.12588 0
M  V30 22343 C 2143.75 -2.14442 2.10797 0
M  V30 22344 C 2145.3 -2.27772 2.14684 0
M  V30 22345 C 2145.77 -3.16511 3.31036 0
M  V30 22346 N 2147.27 -3.24099 3.30929 0
M  V30 22347 C 2148 -3.92932 4.17603 0
M  V30 22348 N 2147.5 -4.64053 5.14419 0
M  V30 22349 N 2149.29 -3.89263 4.05501 0
M  V30 22350 H 2141.44 -0.57466 2.04478 0
M  V30 22351 H 2143.7 -0.316119 0.893741 0
M  V30 22352 H 2143.41 -1.71376 3.07121 0
M  V30 22353 H 2143.28 -3.15136 2.0729 0
M  V30 22354 H 2145.67 -2.70072 1.18934 0
M  V30 22355 H 2145.75 -1.26651 2.22246 0
M  V30 22356 H 2145.4 -2.74921 4.27061 0
M  V30 22357 H 2145.33 -4.17675 3.20711 0
M  V30 22358 H 2147.82 -2.7344 2.60843 0
M  V30 22359 H 2148.13 -5.14187 5.76916 0
M  V30 22360 H 2146.47 -4.62941 5.18373 0
M  V30 22361 H 2149.67 -3.32836 3.29147 0
M  V30 22362 H 2149.84 -4.42635 4.73263 0
M  V30 22363 N 2143.25 -0.990834 -1.22557 0
M  V30 22364 C 2144.49 -0.660998 -1.90562 0
M  V30 22365 C 2144.81 0.810271 -1.78028 0
M  V30 22366 O 2146.01 1.2516 -2.4093 0
M  V30 22367 C 2144.47 -1.13172 -3.41643 0
M  V30 22368 C 2144.08 -2.62807 -3.62817 0
M  V30 22369 C 2145.82 -0.876119 -4.15361 0
M  V30 22370 C 2143.73 -3.03493 -5.07588 0
M  V30 22371 H 2142.66 -0.243531 -0.713589 0
M  V30 22372 H 2145.31 -1.20012 -1.38814 0
M  V30 22373 H 2143.69 -0.520742 -3.92561 0
M  V30 22374 H 2144.87 -3.29233 -3.22401 0
M  V30 22375 H 2143.18 -2.86227 -3.02428 0
M  V30 22376 H 2145.78 -1.15582 -5.22058 0
M  V30 22377 H 2146.12 0.187761 -4.15876 0
M  V30 22378 H 2146.65 -1.44919 -3.70464 0
M  V30 22379 H 2143.39 -4.09048 -5.12211 0
M  V30 22380 H 2142.91 -2.41769 -5.48915 0
M  V30 22381 H 2144.59 -2.94679 -5.75998 0
M  V30 22382 N 2144.72 1.37856 -0.763775 0
M  V30 22383 C 2145.69 2.28702 -0.151022 0
M  V30 22384 C 2146.69 1.47661 0.636627 0
M  V30 22385 O 2147.88 1.67979 0.46139 0
M  V30 22386 C 2145.01 3.31525 0.793965 0
M  V30 22387 H 2146.2 2.84397 -0.951747 0
M  V30 22388 H 2143.75 1.46987 -0.531452 0
M  V30 22389 H 2144.49 2.80939 1.61999 0
M  V30 22390 H 2144.27 3.91416 0.231444 0
M  V30 22391 H 2145.76 3.99432 1.21837 0
M  V30 22392 N 2146.2 0.513665 1.48994 0
M  V30 22393 C 2147.48 -0.0899538 1.95393 0
M  V30 22394 C 2147.86 -1.52898 1.45552 0
M  V30 22395 O 2147.21 -2.18308 0.674808 0
M  V30 22396 C 2147.42 0.010453 3.48998 0
M  V30 22397 C 2148.76 -0.157087 4.24309 0
M  V30 22398 O 2149.79 -0.0641299 3.56142 0
M  V30 22399 O 2148.65 -0.349548 5.45381 0
M  V30 22400 H 2145.74 -0.0883243 0.82227 0
M  V30 22401 H 2148.29 0.577105 1.59586 0
M  V30 22402 H 2147.06 1.0135 3.77947 0
M  V30 22403 H 2146.68 -0.696188 3.91458 0
M  V30 22404 N 2147.68 -1.55636 0.248053 0
M  V30 22405 C 2148.61 -2.2441 -0.645175 0
M  V30 22406 C 2149.59 -1.22477 -1.18039 0
M  V30 22407 O 2150.78 -1.51133 -1.21953 0
M  V30 22408 C 2147.91 -2.94446 -1.84171 0
M  V30 22409 C 2146.86 -4.03076 -1.43922 0
M  V30 22410 C 2146.19 -4.60544 -2.71668 0
M  V30 22411 C 2147.49 -5.18732 -0.609431 0
M  V30 22412 H 2149.18 -2.99314 -0.0716951 0
M  V30 22413 H 2146.73 -1.43962 -0.033043 0
M  V30 22414 H 2148.68 -3.41259 -2.47225 0
M  V30 22415 H 2147.4 -2.17031 -2.44059 0
M  V30 22416 H 2146.06 -3.57034 -0.832012 0
M  V30 22417 H 2145.71 -3.79829 -3.29756 0
M  V30 22418 H 2145.41 -5.33876 -2.4546 0
M  V30 22419 H 2146.93 -5.10091 -3.35618 0
M  V30 22420 H 2148.35 -5.61764 -1.1443 0
M  V30 22421 H 2146.74 -5.9846 -0.443361 0
M  V30 22422 H 2147.81 -4.83424 0.378087 0
M  V30 22423 N 2149.16 0.0250451 -1.5758 0
M  V30 22424 C 2150.09 1.02382 -2.09857 0
M  V30 22425 C 2151.07 1.37455 -1.002 0
M  V30 22426 O 2152.25 1.46269 -1.27746 0
M  V30 22427 C 2149.38 2.32351 -2.58128 0
M  V30 22428 C 2148.34 2.11509 -3.72086 0
M  V30 22429 C 2147.66 3.47274 -4.06577 0
M  V30 22430 C 2148.96 1.49799 -5.00357 0
M  V30 22431 H 2150.66 0.58863 -2.93557 0
M  V30 22432 H 2148.2 0.281696 -1.41218 0
M  V30 22433 H 2150.16 3.02556 -2.93322 0
M  V30 22434 H 2148.88 2.77938 -1.71518 0
M  V30 22435 H 2147.54 1.43737 -3.37247 0
M  V30 22436 H 2147.19 3.90516 -3.17027 0
M  V30 22437 H 2146.89 3.34153 -4.83338 0
M  V30 22438 H 2148.41 4.18834 -4.44309 0
M  V30 22439 H 2149.83 2.09927 -5.33483 0
M  V30 22440 H 2148.22 1.47241 -5.81756 0
M  V30 22441 H 2149.29 0.464269 -4.82672 0
M  V30 22442 N 2150.64 1.54769 0.297388 0
M  V30 22443 C 2151.58 1.8597 1.36689 0
M  V30 22444 C 2152.55 0.708928 1.50211 0
M  V30 22445 O 2153.74 0.9579 1.65012 0
M  V30 22446 C 2150.88 2.11576 2.72635 0
M  V30 22447 C 2149.99 3.39191 2.67533 0
M  V30 22448 C 2149.13 3.54621 3.95496 0
M  V30 22449 C 2148.16 4.76015 3.84806 0
M  V30 22450 N 2147.3 4.88232 5.04553 0
M  V30 22451 H 2152.14 2.772 1.09381 0
M  V30 22452 H 2149.68 1.3726 0.528967 0
M  V30 22453 H 2151.64 2.24418 3.517 0
M  V30 22454 H 2150.27 1.23608 2.98196 0
M  V30 22455 H 2149.32 3.3495 1.80312 0
M  V30 22456 H 2150.63 4.28379 2.55525 0
M  V30 22457 H 2149.78 3.67147 4.82999 0
M  V30 22458 H 2148.52 2.63573 4.10342 0
M  V30 22459 H 2147.53 4.63518 2.95687 0
M  V30 22460 H 2148.75 5.68475 3.71502 0
M  V30 22461 H 2146.7 4.00108 5.19855 0
M  V30 22462 H 2146.62 5.71427 4.94982 0
M  V30 22463 H 2147.88 5.05119 5.93696 0
M  V30 22464 N 2152.11 -0.560755 1.47286 0
M  V30 22465 C 2153.34 -1.34841 1.57584 0
M  V30 22466 C 2153.76 -1.86747 0.22521 0
M  V30 22467 O 2153.12 -1.62776 -0.798346 0
M  V30 22468 C 2153.17 -2.49671 2.60186 0
M  V30 22469 O 2152.27 -3.51793 2.1521 0
M  V30 22470 H 2151.61 -0.400669 0.529491 0
M  V30 22471 H 2154.14 -0.67803 1.93039 0
M  V30 22472 H 2154.15 -2.9629 2.80493 0
M  V30 22473 H 2152.83 -2.11248 3.58256 0
M  V30 22474 H 2151.41 -3.11504 2.04987 0
M  V30 22475 N 2153.59 -1.35359 -0.807199 0
M  V30 22476 C 2154.84 -1.28788 -1.56657 0
M  V30 22477 C 2155.17 0.137625 -1.93712 0
M  V30 22478 O 2154.45 1.08685 -1.61301 0
M  V30 22479 C 2154.73 -2.19379 -2.85561 0
M  V30 22480 C 2154.58 -3.70543 -2.54986 0
M  V30 22481 C 2155.9 -2.0909 -3.87259 0
M  V30 22482 H 2153.02 -0.469169 -0.568374 0
M  V30 22483 H 2155.66 -1.65754 -0.928736 0
M  V30 22484 H 2153.81 -1.87984 -3.39992 0
M  V30 22485 H 2155.48 -4.12377 -2.06743 0
M  V30 22486 H 2153.73 -3.90855 -1.88189 0
M  V30 22487 H 2154.4 -4.29316 -3.46975 0
M  V30 22488 H 2156.87 -2.36687 -3.42226 0
M  V30 22489 H 2155.75 -2.74675 -4.75231 0
M  V30 22490 H 2156.01 -1.07265 -4.2889 0
M  V30 22491 N 2155.07 1.02928 -1.19346 0
M  V30 22492 C 2156.35 1.73394 -0.905199 0
M  V30 22493 C 2156.73 2.02711 0.589208 0
M  V30 22494 O 2156.07 1.68142 1.54727 0
M  V30 22495 C 2156.28 3.01097 -1.7647 0
M  V30 22496 C 2157.63 3.74613 -1.99876 0
M  V30 22497 O 2158.66 3.11023 -1.73618 0
M  V30 22498 O 2157.52 4.88931 -2.44149 0
M  V30 22499 H 2154.61 0.755081 -0.337316 0
M  V30 22500 H 2157.16 1.08891 -1.30157 0
M  V30 22501 H 2155.93 2.75657 -2.77721 0
M  V30 22502 H 2155.55 3.7334 -1.36758 0
M  V30 22503 N 2156.55 0.997319 1.2203 0
M  V30 22504 C 2157.77 0.69397 1.95445 0
M  V30 22505 C 2158.2 -0.735638 1.73118 0
M  V30 22506 O 2157.56 -1.50348 1.01317 0
M  V30 22507 C 2157.6 1.01104 3.46136 0
M  V30 22508 O 2156.71 0.1121 4.12248 0
M  V30 22509 H 2156.05 0.259299 0.611277 0
M  V30 22510 H 2158.58 1.33549 1.55003 0
M  V30 22511 H 2158.59 0.954704 3.96673 0
M  V30 22512 H 2157.26 2.05274 3.61712 0
M  V30 22513 H 2155.84 0.224297 3.72225 0
M  V30 22514 N 2158.03 -1.37449 0.771075 0
M  V30 22515 C 2158.94 -2.3407 0.157631 0
M  V30 22516 C 2159.95 -1.60145 -0.680404 0
M  V30 22517 O 2161.13 -1.9224 -0.600482 0
M  V30 22518 C 2158.19 -3.39316 -0.711733 0
M  V30 22519 C 2157.25 -4.29063 0.142682 0
M  V30 22520 C 2156.49 -5.29282 -0.685284 0
M  V30 22521 O 2156.71 -5.37029 -1.92241 0
M  V30 22522 O 2155.64 -6.01825 -0.0948431 0
M  V30 22523 H 2159.47 -2.8826 0.956036 0
M  V30 22524 H 2157.06 -1.39598 0.532224 0
M  V30 22525 H 2158.94 -4.03713 -1.20806 0
M  V30 22526 H 2157.61 -2.87455 -1.48834 0
M  V30 22527 H 2156.52 -3.67769 0.685357 0
M  V30 22528 H 2157.85 -4.84227 0.882356 0
M  V30 22529 N 2159.5 -0.52156 -1.4872 0
M  V30 22530 C 2160.47 0.234979 -2.27992 0
M  V30 22531 C 2161.47 0.875433 -1.34881 0
M  V30 22532 O 2162.66 0.736784 -1.57852 0
M  V30 22533 C 2159.79 1.33914 -3.13496 0
M  V30 22534 H 2160.98 -0.460907 -2.96337 0
M  V30 22535 H 2158.54 -0.277206 -1.53822 0
M  V30 22536 H 2159.27 2.06854 -2.49763 0
M  V30 22537 H 2159.06 0.885123 -3.81979 0
M  V30 22538 H 2160.55 1.8715 -3.73316 0
M  V30 22539 N 2160.98 1.55502 -0.256304 0
M  V30 22540 C 2162.23 1.99463 0.366354 0
M  V30 22541 C 2162.56 1.14436 1.56902 0
M  V30 22542 O 2161.84 0.209944 1.93364 0
M  V30 22543 C 2162.12 3.51836 0.767016 0
M  V30 22544 C 2161.97 4.47626 -0.441687 0
M  V30 22545 C 2163.29 4.09574 1.61051 0
M  V30 22546 H 2160.41 0.72514 0.131688 0
M  V30 22547 H 2163.05 1.86568 -0.359494 0
M  V30 22548 H 2161.2 3.62956 1.38546 0
M  V30 22549 H 2162.87 4.48475 -1.08018 0
M  V30 22550 H 2161.12 4.2006 -1.08313 0
M  V30 22551 H 2161.79 5.51874 -0.117869 0
M  V30 22552 H 2164.26 4.01614 1.08838 0
M  V30 22553 H 2163.14 5.16436 1.85969 0
M  V30 22554 H 2163.4 3.58619 2.58544 0
M  V30 22555 N 2162.46 -0.0166879 1.57591 0
M  V30 22556 C 2163.88 -0.372531 1.55191 0
M  V30 22557 C 2164.08 -1.75838 0.984042 0
M  V30 22558 O 2163.13 -2.45008 0.610513 0
M  V30 22559 C 2164.45 -0.263043 2.99547 0
M  V30 22560 C 2165.99 -0.339216 3.11156 0
M  V30 22561 C 2166.47 -0.259039 4.57267 0
M  V30 22562 N 2167.96 -0.317455 4.62111 0
M  V30 22563 C 2168.69 -0.278499 5.72723 0
M  V30 22564 N 2168.19 -0.191112 6.92536 0
M  V30 22565 N 2169.98 -0.32914 5.61136 0
M  V30 22566 H 2162.13 0.890086 1.9285 0
M  V30 22567 H 2164.4 0.339637 0.885071 0
M  V30 22568 H 2164.1 0.689794 3.44869 0
M  V30 22569 H 2163.98 -1.0518 3.62239 0
M  V30 22570 H 2166.36 -1.28249 2.65775 0
M  V30 22571 H 2166.45 0.479109 2.51273 0
M  V30 22572 H 2166.09 0.68062 5.03319 0
M  V30 22573 H 2166.02 -1.09563 5.15076 0
M  V30 22574 H 2168.51 -0.387004 3.75913 0
M  V30 22575 H 2168.82 -0.166827 7.7262 0
M  V30 22576 H 2167.17 -0.15698 6.94823 0
M  V30 22577 H 2170.36 -0.395489 4.66426 0
M  V30 22578 H 2170.53 -0.295314 6.47327 0
M  V30 22579 N 2163.94 -1.54924 -0.289176 0
M  V30 22580 C 2164.85 -1.89766 -1.37935 0
M  V30 22581 C 2165.86 -0.793081 -1.54875 0
M  V30 22582 O 2167.04 -1.09065 -1.69312 0
M  V30 22583 C 2164.11 -2.14824 -2.72124 0
M  V30 22584 C 2163.17 -3.38476 -2.64069 0
M  V30 22585 C 2162.4 -3.62329 -3.91859 0
M  V30 22586 O 2162.62 -2.88978 -4.9178 0
M  V30 22587 O 2161.56 -4.55856 -3.93038 0
M  V30 22588 H 2165.38 -2.82536 -1.11387 0
M  V30 22589 H 2162.97 -1.41264 -0.486286 0
M  V30 22590 H 2164.85 -2.32438 -3.51498 0
M  V30 22591 H 2163.52 -1.25238 -2.98491 0
M  V30 22592 H 2162.43 -3.26213 -1.83127 0
M  V30 22593 H 2163.76 -4.28229 -2.42654 0
M  V30 22594 N 2165.42 0.552936 -1.47582 0
M  V30 22595 C 2166.65 1.33329 -1.5782 0
M  V30 22596 C 2167.05 1.87809 -0.228975 0
M  V30 22597 O 2166.4 1.65914 0.788562 0
M  V30 22598 C 2166.46 2.53716 -2.54693 0
M  V30 22599 C 2166.12 2.2049 -4.00291 0
M  V30 22600 C 2167.12 1.77528 -4.88651 0
M  V30 22601 C 2164.81 2.31718 -4.45659 0
M  V30 22602 C 2166.8 1.46229 -6.204 0
M  V30 22603 C 2164.49 2.00031 -5.77435 0
M  V30 22604 C 2165.48 1.57355 -6.64627 0
M  V30 22605 O 2165.17 1.26073 -7.93953 0
M  V30 22606 H 2164.9 0.412583 -0.535492 0
M  V30 22607 H 2167.46 0.676216 -1.9395 0
M  V30 22608 H 2165.69 3.22328 -2.13639 0
M  V30 22609 H 2167.38 3.1579 -2.55012 0
M  V30 22610 H 2168.14 1.68343 -4.54847 0
M  V30 22611 H 2164.02 2.63894 -3.77996 0
M  V30 22612 H 2167.57 1.12845 -6.88412 0
M  V30 22613 H 2163.46 2.0885 -6.1078 0
M  V30 22614 H 2164.23 1.39667 -8.06496 0
M  V30 22615 N 2166.89 1.35785 0.800009 0
M  V30 22616 C 2168.13 1.30797 1.57072 0
M  V30 22617 C 2168.5 -0.11441 1.91659 0
M  V30 22618 O 2169.7 -0.288734 2.67245 0
M  V30 22619 C 2167.97 2.19516 2.82041 0
M  V30 22620 S 2169.53 2.32108 3.72386 0
M  V30 22621 H 2166.35 0.464734 0.538092 0
M  V30 22622 H 2168.95 1.71246 0.943139 0
M  V30 22623 H 2167.65 3.21828 2.54666 0
M  V30 22624 H 2167.18 1.80049 3.4978 0
M  V30 22625 H 2169.2 1.51075 4.72642 0
M  V30 22626 N 2168.37 -1.02294 1.19891 0
M  V30 22627 C 2169.32 -2.107 0.942023 0
M  V30 22628 C 2170.29 -1.65626 -0.125398 0
M  V30 22629 O 2171.47 -1.90792 0.0179973 0
M  V30 22630 C 2168.61 -3.41556 0.493291 0
M  V30 22631 C 2167.73 -4.00144 1.62815 0
M  V30 22632 C 2166.86 -5.19034 1.13036 0
M  V30 22633 C 2165.9 -5.69691 2.23872 0
M  V30 22634 N 2165.04 -6.79849 1.75357 0
M  V30 22635 H 2169.88 -2.3201 1.87017 0
M  V30 22636 H 2167.42 -1.13784 0.932293 0
M  V30 22637 H 2169.37 -4.16648 0.214483 0
M  V30 22638 H 2168 -3.20339 -0.397861 0
M  V30 22639 H 2167.06 -3.22208 2.02203 0
M  V30 22640 H 2168.37 -4.3375 2.46298 0
M  V30 22641 H 2167.52 -6.01307 0.807136 0
M  V30 22642 H 2166.26 -4.86978 0.265337 0
M  V30 22643 H 2165.27 -4.86027 2.57018 0
M  V30 22644 H 2166.49 -6.03784 3.1084 0
M  V30 22645 H 2164.44 -6.49634 0.911717 0
M  V30 22646 H 2164.35 -7.12613 2.52425 0
M  V30 22647 H 2165.62 -7.65702 1.46016 0
M  V30 22648 N 2169.85 -1.00378 -1.21499 0
M  V30 22649 C 2170.76 -0.572425 -2.27509 0
M  V30 22650 C 2171.78 0.383982 -1.6971 0
M  V30 22651 O 2172.95 0.248119 -1.99866 0
M  V30 22652 C 2170.02 0.0953686 -3.46569 0
M  V30 22653 C 2169.08 -0.905366 -4.19645 0
M  V30 22654 C 2168.31 -0.269345 -5.3302 0
M  V30 22655 O 2168.53 0.934144 -5.62699 0
M  V30 22656 O 2167.47 -0.979662 -5.93874 0
M  V30 22657 H 2171.29 -1.45465 -2.66596 0
M  V30 22658 H 2168.88 -0.772585 -1.27873 0
M  V30 22659 H 2170.76 0.468934 -4.18783 0
M  V30 22660 H 2169.44 0.951993 -3.09385 0
M  V30 22661 H 2168.34 -1.33007 -3.49657 0
M  V30 22662 H 2169.68 -1.73154 -4.60737 0
M  V30 22663 N 2171.33 1.37038 -0.778354 0
M  V30 22664 C 2172.28 2.30193 -0.167288 0
M  V30 22665 C 2173.25 1.51429 0.682526 0
M  V30 22666 O 2174.43 1.79976 0.633513 0
M  V30 22667 C 2171.57 3.37912 0.700668 0
M  V30 22668 C 2170.68 4.31679 -0.166475 0
M  V30 22669 C 2169.82 5.26477 0.706809 0
M  V30 22670 C 2168.86 6.11884 -0.162465 0
M  V30 22671 N 2167.99 6.98904 0.66917 0
M  V30 22672 H 2172.83 2.81868 -0.967185 0
M  V30 22673 H 2170.37 1.3875 -0.488542 0
M  V30 22674 H 2172.33 3.99001 1.21877 0
M  V30 22675 H 2170.96 2.87585 1.4661 0
M  V30 22676 H 2170.01 3.7184 -0.802449 0
M  V30 22677 H 2171.32 4.91732 -0.836729 0
M  V30 22678 H 2170.48 5.92802 1.29115 0
M  V30 22679 H 2169.22 4.66851 1.41073 0
M  V30 22680 H 2168.22 5.44532 -0.759288 0
M  V30 22681 H 2169.45 6.73584 -0.863814 0
M  V30 22682 H 2167.39 6.41799 1.35758 0
M  V30 22683 H 2167.31 7.55979 0.0563568 0
M  V30 22684 H 2168.58 7.69611 1.23769 0
M  V30 22685 N 2172.81 0.529439 1.48441 0
M  V30 22686 C 2174.06 -0.00484705 2.02099 0
M  V30 22687 C 2174.38 -1.34819 1.40886 0
M  V30 22688 O 2173.65 -1.873 0.574052 0
M  V30 22689 H 2172.23 -0.00477953 0.746985 0
M  V30 22690 H 2174.89 0.693148 1.82158 0
M  V30 22691 H 2173.98 -0.113574 3.11893 0
M  V30 22692 N 2174.29 -1.55364 0.264547 0
M  V30 22693 C 2175.53 -2.00387 -0.348811 0
M  V30 22694 C 2175.89 -1.14971 -1.54271 0
M  V30 22695 O 2175.18 -0.209296 -1.90453 0
M  V30 22696 C 2175.37 -3.48523 -0.791605 0
M  V30 22697 C 2175.2 -4.48274 0.357843 0
M  V30 22698 C 2173.97 -4.98299 0.83823 0
M  V30 22699 C 2176.17 -5.00324 1.1908 0
M  V30 22700 N 2174.15 -5.8183 1.95825 0
M  V30 22701 C 2175.52 -5.81199 2.15888 0
M  V30 22702 C 2177.58 -4.82586 1.22535 0
M  V30 22703 C 2176.28 -6.46227 3.15884 0
M  V30 22704 C 2178.31 -5.48406 2.2137 0
M  V30 22705 C 2177.67 -6.29083 3.16912 0
M  V30 22706 H 2173.77 -0.776438 -0.0931041 0
M  V30 22707 H 2176.35 -1.90832 0.386157 0
M  V30 22708 H 2174.52 -3.58441 -1.49582 0
M  V30 22709 H 2176.26 -3.80394 -1.3814 0
M  V30 22710 H 2173.01 -4.7174 0.419334 0
M  V30 22711 H 2173.43 -6.28289 2.52155 0
M  V30 22712 H 2178.08 -4.19827 0.50051 0
M  V30 22713 H 2175.79 -7.08142 3.89307 0
M  V30 22714 H 2179.38 -5.36627 2.24771 0
M  V30 22715 H 2178.26 -6.79114 3.9214 0
M  V30 22716 N 2175.76 0.00833021 -1.57598 0
M  V30 22717 C 2176.69 1.0015 -2.10932 0
M  V30 22718 C 2177.67 1.36385 -1.01653 0
M  V30 22719 O 2178.86 1.44906 -1.2929 0
M  V30 22720 C 2175.99 2.296 -2.60578 0
M  V30 22721 C 2174.94 2.07551 -3.74308 0
M  V30 22722 C 2174.27 3.42942 -4.10238 0
M  V30 22723 C 2175.57 1.44484 -5.01918 0
M  V30 22724 H 2177.26 0.557461 -2.94164 0
M  V30 22725 H 2174.81 0.266703 -1.41509 0
M  V30 22726 H 2176.76 2.99428 -2.96515 0
M  V30 22727 H 2175.49 2.76103 -1.74456 0
M  V30 22728 H 2174.15 1.40152 -3.38752 0
M  V30 22729 H 2173.79 3.87132 -3.21151 0
M  V30 22730 H 2173.49 3.29007 -4.86855 0
M  V30 22731 H 2175.02 4.14098 -4.48726 0
M  V30 22732 H 2176.43 2.04256 -5.35679 0
M  V30 22733 H 2174.83 1.41063 -5.83285 0
M  V30 22734 H 2175.9 0.413049 -4.83138 0
M  V30 22735 N 2177.24 1.55075 0.280956 0
M  V30 22736 C 2178.49 1.75566 1.01511 0
M  V30 22737 C 2178.82 0.55079 1.86226 0
M  V30 22738 O 2178.1 -0.451807 1.8918 0
M  V30 22739 C 2178.38 3.05625 1.90434 0
M  V30 22740 C 2178.23 4.36452 1.08766 0
M  V30 22741 C 2179.55 3.31672 2.89277 0
M  V30 22742 H 2176.67 0.638765 0.367626 0
M  V30 22743 H 2179.31 1.87803 0.28812 0
M  V30 22744 H 2177.46 2.95324 2.5242 0
M  V30 22745 H 2179.13 4.587 0.489115 0
M  V30 22746 H 2177.38 4.32035 0.390884 0
M  V30 22747 H 2178.05 5.23764 1.74285 0
M  V30 22748 H 2180.52 3.41715 2.37424 0
M  V30 22749 H 2179.4 4.23955 3.48645 0
M  V30 22750 H 2179.66 2.50928 3.63988 0
M  V30 22751 N 2178.72 -0.545102 1.47873 0
M  V30 22752 C 2180.13 -1.12717 1.48835 0
M  V30 22753 C 2180.48 -1.94604 0.249718 0
M  V30 22754 O 2179.61 -2.06582 -0.644417 0
M  V30 22755 C 2180.2 -2.05084 2.69678 0
M  V30 22756 C 2178.76 -2.58538 2.7356 0
M  V30 22757 C 2177.91 -1.35171 2.42124 0
M  V30 22758 H 2180.86 -0.331094 1.55208 0
M  V30 22759 H 2180.88 -2.89145 2.47336 0
M  V30 22760 H 2180.39 -1.45457 3.59811 0
M  V30 22761 H 2178.49 -3.21929 1.87597 0
M  V30 22762 H 2178.61 -2.98704 3.74583 0
M  V30 22763 H 2176.97 -1.66249 1.9296 0
M  V30 22764 H 2177.75 -0.773194 3.3448 0
M  V30 22765 N 2180.2 -1.36208 -0.792797 0
M  V30 22766 C 2181.11 -1.32403 -1.93666 0
M  V30 22767 C 2182.12 -0.226736 -1.72516 0
M  V30 22768 O 2183.3 -0.458518 -1.96111 0
M  V30 22769 C 2180.36 -1.10928 -3.28475 0
M  V30 22770 C 2179.43 -2.301 -3.62426 0
M  V30 22771 C 2178.66 -2.0964 -4.90802 0
M  V30 22772 O 2178.88 -1.06985 -5.60277 0
M  V30 22773 O 2177.82 -2.97336 -5.23331 0
M  V30 22774 H 2181.64 -2.287 -1.99825 0
M  V30 22775 H 2179.23 -1.1672 -0.932566 0
M  V30 22776 H 2181.11 -1.00855 -4.09153 0
M  V30 22777 H 2179.78 -0.17691 -3.23216 0
M  V30 22778 H 2178.69 -2.45741 -2.82068 0
M  V30 22779 H 2180.02 -3.21832 -3.72405 0
M  V30 22780 N 2181.68 1.01656 -1.20431 0
M  V30 22781 C 2182.92 1.75515 -1.016 0
M  V30 22782 C 2183.25 1.88896 0.450791 0
M  V30 22783 O 2182.53 1.4148 1.33468 0
M  V30 22784 C 2182.81 3.17433 -1.70024 0
M  V30 22785 C 2182.67 3.11847 -3.24147 0
M  V30 22786 C 2183.98 4.16105 -1.43334 0
M  V30 22787 H 2181.1 0.637102 -0.370501 0
M  V30 22788 H 2183.75 1.18591 -1.48446 0
M  V30 22789 H 2181.9 3.66035 -1.30195 0
M  V30 22790 H 2183.57 2.71049 -3.7327 0
M  V30 22791 H 2181.81 2.49242 -3.55051 0
M  V30 22792 H 2182.48 4.12169 -3.6718 0
M  V30 22793 H 2184.96 3.76159 -1.77887 0
M  V30 22794 H 2183.83 5.13571 -1.93741 0
M  V30 22795 H 2184.09 4.40624 -0.360952 0
M  V30 22796 N 2183.15 1.01021 1.20965 0
M  V30 22797 C 2184.1 0.568229 2.25552 0
M  V30 22798 C 2185.1 -0.389834 1.64853 0
M  V30 22799 O 2186.3 -0.260456 1.78106 0
M  V30 22800 H 2182.68 0.165424 0.73358 0
M  V30 22801 H 2184.65 1.46139 2.60165 0
M  V30 22802 C 2183.4 -0.0841621 3.47598 0
M  V30 22803 H 2182.72 0.644027 3.94579 0
M  V30 22804 H 2184.16 -0.356619 4.22498 0
M  V30 22805 C 2182.62 -1.325 3.09751 0
M  V30 22806 O 2183.15 -2.41889 3.20706 0
M  V30 22807 N 2181.35 -1.20669 2.64362 0
M  V30 22808 H 2180.9 -0.316581 2.55647 0
M  V30 22809 H 2180.86 -2.03792 2.39408 0
M  V30 22810 N 2184.63 -1.36623 0.78561 0
M  V30 22811 C 2185.86 -2.04129 0.366917 0
M  V30 22812 C 2186.28 -1.58852 -1.00736 0
M  V30 22813 O 2185.64 -0.755202 -1.64822 0
M  V30 22814 C 2185.69 -3.5797 0.43472 0
M  V30 22815 O 2184.79 -4.08584 -0.559755 0
M  V30 22816 H 2184.13 -0.645306 0.156447 0
M  V30 22817 H 2186.66 -1.74656 1.06566 0
M  V30 22818 H 2186.67 -4.06918 0.296959 0
M  V30 22819 H 2185.35 -3.90277 1.43724 0
M  V30 22820 H 2183.92 -3.70918 -0.38397 0
M  V30 22821 N 2186.11 -0.537304 -1.48158 0
M  V30 22822 C 2187.34 -0.0101482 -2.06898 0
M  V30 22823 C 2187.75 1.27458 -1.39283 0
M  V30 22824 O 2187.11 1.76 -0.48274 0
M  V30 22825 C 2187.16 0.209896 -3.6089 0
M  V30 22826 O 2186.88 -1.02394 -4.25966 0
M  V30 22827 C 2188.38 0.776601 -4.36444 0
M  V30 22828 H 2185.6 -0.0368227 -0.669989 0
M  V30 22829 H 2188.15 -0.745039 -1.90445 0
M  V30 22830 H 2186.3 0.894855 -3.76923 0
M  V30 22831 H 2186.72 -0.809231 -5.1822 0
M  V30 22832 H 2188.19 0.879955 -5.44941 0
M  V30 22833 H 2188.67 1.78324 -4.01369 0
M  V30 22834 H 2189.27 0.127975 -4.25107 0
M  V30 22835 N 2187.59 1.55221 -0.272782 0
M  V30 22836 C 2188.52 2.25408 0.609392 0
M  V30 22837 C 2189.5 1.2434 1.16076 0
M  V30 22838 O 2190.68 1.53054 1.19533 0
M  V30 22839 C 2187.81 2.97338 1.79464 0
M  V30 22840 C 2186.77 4.05315 1.37491 0
M  V30 22841 C 2186.09 4.64808 2.64307 0
M  V30 22842 C 2187.39 5.19636 0.526828 0
M  V30 22843 H 2189.09 2.9939 0.0240678 0
M  V30 22844 H 2186.63 1.43996 0.0101357 0
M  V30 22845 H 2188.59 3.45149 2.41765 0
M  V30 22846 H 2187.31 2.20887 2.40576 0
M  V30 22847 H 2185.97 3.58312 0.775106 0
M  V30 22848 H 2185.62 3.85027 3.23672 0
M  V30 22849 H 2185.32 5.37713 2.36935 0
M  V30 22850 H 2186.84 5.15366 3.2746 0
M  V30 22851 H 2188.26 5.63513 1.05478 0
M  V30 22852 H 2186.65 5.9909 0.348095 0
M  V30 22853 H 2187.72 4.82761 -0.454948 0
M  V30 22854 N 2189.07 2.77022e-05 1.576 0
M  V30 22855 C 2190 -1.01955 2.05275 0
M  V30 22856 C 2191.01 -1.30696 0.970685 0
M  V30 22857 O 2192.2 -1.27672 1.24748 0
M  V30 22858 C 2189.3 -2.35429 2.43775 0
M  V30 22859 C 2188.47 -2.25626 3.74715 0
M  V30 22860 C 2187.53 -3.41789 4.00083 0
M  V30 22861 O 2186.56 -3.19975 4.70749 0
M  V30 22862 N 2187.76 -4.64639 3.47981 0
M  V30 22863 H 2190.53 -0.612973 2.93364 0
M  V30 22864 H 2188.09 -0.187355 1.60812 0
M  V30 22865 H 2190.08 -3.11913 2.57861 0
M  V30 22866 H 2188.65 -2.67828 1.61205 0
M  V30 22867 H 2187.87 -1.34052 3.70707 0
M  V30 22868 H 2189.16 -2.16249 4.60558 0
M  V30 22869 H 2188.55 -4.8526 2.90756 0
M  V30 22870 H 2187.11 -5.3839 3.67396 0
M  V30 22871 N 2190.54 -1.55222 -0.272728 0
M  V30 22872 C 2191.79 -1.75047 -1.00208 0
M  V30 22873 C 2192.11 -0.559079 -1.8744 0
M  V30 22874 O 2193.31 -0.639745 -2.63855 0
M  V30 22875 C 2191.77 -3.09808 -1.83159 0
M  V30 22876 C 2191.38 -4.36514 -1.00793 0
M  V30 22877 C 2193.12 -3.38981 -2.55523 0
M  V30 22878 C 2191.03 -5.62315 -1.83184 0
M  V30 22879 H 2189.96 -0.652482 -0.377866 0
M  V30 22880 H 2192.61 -1.81681 -0.257744 0
M  V30 22881 H 2190.99 -2.97212 -2.61689 0
M  V30 22882 H 2192.16 -4.60027 -0.266774 0
M  V30 22883 H 2190.48 -4.14486 -0.398824 0
M  V30 22884 H 2193.08 -4.30178 -3.17571 0
M  V30 22885 H 2193.42 -2.59126 -3.25821 0
M  V30 22886 H 2193.95 -3.52676 -1.84022 0
M  V30 22887 H 2190.69 -6.44918 -1.17306 0
M  V30 22888 H 2190.21 -5.42944 -2.54896 0
M  V30 22889 H 2191.89 -6.00624 -2.40542 0
M  V30 22890 N 2192.02 0.537252 -1.4816 0
M  V30 22891 C 2192.93 1.66957 -1.6481 0
M  V30 22892 C 2193.95 1.6571 -0.53068 0
M  V30 22893 O 2195.12 1.84794 -0.800816 0
M  V30 22894 C 2192.19 3.03435 -1.67714 0
M  V30 22895 C 2191.25 3.15595 -2.9103 0
M  V30 22896 C 2190.48 4.45562 -2.93786 0
M  V30 22897 O 2190.71 5.32226 -2.05162 0
M  V30 22898 O 2189.64 4.61934 -3.85876 0
M  V30 22899 H 2193.47 1.55849 -2.60662 0
M  V30 22900 H 2191.05 0.709526 -1.31477 0
M  V30 22901 H 2192.93 3.84616 -1.72187 0
M  V30 22902 H 2191.61 3.14884 -0.750333 0
M  V30 22903 H 2190.52 2.33736 -2.92093 0
M  V30 22904 H 2191.85 3.09059 -3.83071 0
M  V30 22905 N 2193.5 1.36626 0.785562 0
M  V30 22906 C 2194.45 1.31267 1.89836 0
M  V30 22907 C 2195.42 0.180662 1.65115 0
M  V30 22908 O 2196.6 0.367802 1.87221 0
M  V30 22909 C 2193.74 1.11168 3.26704 0
M  V30 22910 C 2192.86 2.33478 3.63472 0
M  V30 22911 C 2191.99 2.06361 4.89478 0
M  V30 22912 C 2191.03 3.24611 5.18935 0
M  V30 22913 N 2190.17 2.97134 6.36126 0
M  V30 22914 H 2195.01 2.26416 1.93752 0
M  V30 22915 H 2192.54 1.12526 0.947434 0
M  V30 22916 H 2194.5 0.975408 4.05637 0
M  V30 22917 H 2193.13 0.196731 3.222 0
M  V30 22918 H 2192.18 2.57896 2.79632 0
M  V30 22919 H 2193.5 3.21711 3.81187 0
M  V30 22920 H 2192.65 1.89685 5.76285 0
M  V30 22921 H 2191.39 1.15446 4.73839 0
M  V30 22922 H 2190.39 3.41842 4.30609 0
M  V30 22923 H 2191.62 4.16358 5.36491 0
M  V30 22924 H 2189.56 2.08834 6.21872 0
M  V30 22925 H 2189.48 3.78906 6.54191 0
M  V30 22926 H 2190.75 2.84046 7.25905 0
M  V30 22927 N 2194.98 -1.01016 1.20969 0
M  V30 22928 C 2195.93 -2.08088 0.931857 0
M  V30 22929 C 2196.91 -1.60518 -0.11087 0
M  V30 22930 O 2198.1 -1.76732 0.0973702 0
M  V30 22931 C 2195.23 -3.39745 0.492779 0
M  V30 22932 C 2194.32 -3.93998 1.56929 0
M  V30 22933 N 2194.71 -4.21681 2.79319 0
M  V30 22934 C 2193.01 -4.22217 1.43696 0
M  V30 22935 C 2193.71 -4.65521 3.48805 0
M  V30 22936 N 2192.69 -4.68185 2.76232 0
M  V30 22937 H 2196.49 -2.27408 1.86179 0
M  V30 22938 H 2194 -1.19043 1.10465 0
M  V30 22939 H 2196 -4.15991 0.275117 0
M  V30 22940 H 2194.66 -3.21834 -0.430453 0
M  V30 22941 H 2195.67 -4.10391 3.1591 0
M  V30 22942 H 2192.35 -4.13471 0.57862 0
M  V30 22943 H 2193.74 -4.95706 4.53569 0
M  V30 22944 N 2196.46 -1.01661 -1.20428 0
M  V30 22945 C 2197.7 -0.706996 -1.90077 0
M  V30 22946 C 2198.04 0.761442 -1.7865 0
M  V30 22947 O 2197.31 1.55321 -1.17072 0
M  V30 22948 C 2197.59 -1.14333 -3.41467 0
M  V30 22949 C 2197.45 -2.67208 -3.61829 0
M  V30 22950 C 2198.77 -0.714606 -4.3426 0
M  V30 22951 H 2195.88 -0.258312 -0.690249 0
M  V30 22952 H 2198.53 -1.26435 -1.41824 0
M  V30 22953 H 2196.68 -0.669123 -3.82694 0
M  V30 22954 H 2198.35 -3.22481 -3.29854 0
M  V30 22955 H 2196.59 -3.0818 -3.05299 0
M  V30 22956 H 2197.26 -2.92792 -4.6795 0
M  V30 22957 H 2199.74 -1.12228 -4.0068 0
M  V30 22958 H 2198.61 -1.04794 -5.38804 0
M  V30 22959 H 2198.88 0.383721 -4.40432 0
M  V30 22960 N 2197.93 1.36205 -0.792844 0
M  V30 22961 C 2199.16 2.03931 -0.377737 0
M  V30 22962 C 2199.58 1.59384 0.998919 0
M  V30 22963 O 2198.94 0.763932 1.64419 0
M  V30 22964 C 2198.99 3.57734 -0.453698 0
M  V30 22965 O 2198.09 4.08875 0.538079 0
M  V30 22966 H 2197.44 0.644468 -0.159867 0
M  V30 22967 H 2199.97 1.74089 -1.07491 0
M  V30 22968 H 2199.98 4.06755 -0.318535 0
M  V30 22969 H 2198.65 3.8951 -1.45791 0
M  V30 22970 H 2197.23 3.71116 0.364294 0
M  V30 22971 N 2199.41 0.545154 1.47871 0
M  V30 22972 C 2200.83 0.20406 1.5829 0
M  V30 22973 C 2201.03 -1.29315 1.54531 0
M  V30 22974 O 2200.08 -2.07249 1.44236 0
M  V30 22975 C 2201.4 0.820038 2.89302 0
M  V30 22976 C 2202.95 0.790159 3.02862 0
M  V30 22977 C 2203.42 1.38499 4.36557 0
M  V30 22978 N 2204.91 1.34763 4.43163 0
M  V30 22979 C 2205.65 1.77762 5.4515 0
M  V30 22980 N 2205.14 2.28562 6.54012 0
M  V30 22981 N 2206.94 1.68906 5.36122 0
M  V30 22982 H 2199.09 1.51804 1.48557 0
M  V30 22983 H 2201.35 0.632339 0.706294 0
M  V30 22984 H 2201.06 1.87178 2.97754 0
M  V30 22985 H 2200.93 0.305981 3.75957 0
M  V30 22986 H 2203.32 -0.252861 2.94015 0
M  V30 22987 H 2203.4 1.34185 2.1778 0
M  V30 22988 H 2203.04 2.42701 4.4616 0
M  V30 22989 H 2202.97 0.808846 5.20351 0
M  V30 22990 H 2205.46 0.975919 3.65081 0
M  V30 22991 H 2205.78 2.59327 7.2799 0
M  V30 22992 H 2204.12 2.32565 6.54934 0
M  V30 22993 H 2207.31 1.29006 4.49972 0
M  V30 22994 H 2207.48 2.02737 6.15469 0
M  V30 22995 N 2200.89 -1.55074 0.28101 0
M  V30 22996 C 2201.85 -2.21453 -0.590858 0
M  V30 22997 C 2202.85 -1.19423 -1.07679 0
M  V30 22998 O 2204.04 -1.44289 -0.976025 0
M  V30 22999 C 2201.18 -2.88515 -1.81582 0
M  V30 23000 H 2202.37 -2.99898 -0.0112027 0
M  V30 23001 H 2199.92 -1.56268 0.0316713 0
M  V30 23002 H 2200.66 -2.14097 -2.43584 0
M  V30 23003 H 2200.44 -3.63289 -1.47524 0
M  V30 23004 H 2201.93 -3.39211 -2.43569 0
M  V30 23005 N 2202.37 -0.00838561 -1.57598 0
M  V30 23006 C 2203.62 0.674699 -1.90929 0
M  V30 23007 C 2203.94 1.73312 -0.882801 0
M  V30 23008 O 2203.2 1.95383 0.11126 0
M  V30 23009 C 2203.5 1.34781 -3.31012 0
M  V30 23010 C 2203.16 0.421782 -4.48923 0
M  V30 23011 C 2201.83 0.166843 -4.80911 0
M  V30 23012 C 2204.18 -0.215303 -5.20755 0
M  V30 23013 C 2201.51 -0.733334 -5.82099 0
M  V30 23014 C 2203.86 -1.10341 -6.22903 0
M  V30 23015 C 2202.52 -1.36744 -6.53343 0
M  V30 23016 H 2201.79 0.24689 -0.69866 0
M  V30 23017 H 2204.44 -0.0657115 -1.91387 0
M  V30 23018 H 2202.74 2.16247 -3.26718 0
M  V30 23019 H 2204.44 1.88253 -3.54064 0
M  V30 23020 H 2201.03 0.630655 -4.23935 0
M  V30 23021 H 2205.22 -0.0313701 -4.9629 0
M  V30 23022 H 2200.47 -0.945818 -6.0404 0
M  V30 23023 H 2204.65 -1.60337 -6.77691 0
M  V30 23024 H 2202.27 -2.06665 -7.31569 0
M  V30 23025 N 2203.85 1.55365 0.264492 0
M  V30 23026 C 2205.1 1.75575 0.992781 0
M  V30 23027 C 2205.41 0.569012 1.87141 0
M  V30 23028 O 2206.62 0.653728 2.63512 0
M  V30 23029 C 2205.07 3.10775 1.81514 0
M  V30 23030 C 2204.68 4.37043 0.984762 0
M  V30 23031 C 2206.42 3.40332 2.53721 0
M  V30 23032 C 2204.33 5.63278 1.80199 0
M  V30 23033 H 2203.26 0.654477 0.374401 0
M  V30 23034 H 2205.91 1.81815 0.248106 0
M  V30 23035 H 2204.29 2.98595 2.60109 0
M  V30 23036 H 2205.47 4.60162 0.242374 0
M  V30 23037 H 2203.78 4.14691 0.376837 0
M  V30 23038 H 2206.38 4.31856 3.15285 0
M  V30 23039 H 2206.72 2.60851 3.24442 0
M  V30 23040 H 2207.26 3.53647 1.8215 0
M  V30 23041 H 2203.99 6.45531 1.13884 0
M  V30 23042 H 2203.51 5.44288 2.52013 0
M  V30 23043 H 2205.19 6.01891 2.37353 0
M  V30 23044 N 2205.33 -0.529387 1.48443 0
M  V30 23045 C 2206.57 -1.29566 1.58088 0
M  V30 23046 C 2206.93 -1.90374 0.249335 0
M  V30 23047 O 2208.13 -2.67892 0.220785 0
M  V30 23048 C 2206.4 -2.35548 2.68798 0
M  V30 23049 S 2207.96 -3.21892 2.98213 0
M  V30 23050 H 2204.78 -0.440722 0.55793 0
M  V30 23051 H 2207.38 -0.603026 1.85967 0
M  V30 23052 H 2206.08 -1.89356 3.64105 0
M  V30 23053 H 2205.62 -3.09517 2.42822 0
M  V30 23054 H 2207.63 -4.3564 2.37556 0
M  V30 23055 N 2206.8 -1.37041 -0.778305 0
M  V30 23056 C 2207.73 -1.34965 -1.90543 0
M  V30 23057 C 2208.71 -0.219304 -1.6868 0
M  V30 23058 O 2209.9 -0.418657 -1.89634 0
M  V30 23059 C 2207.03 -1.14931 -3.27732 0
M  V30 23060 C 2205.98 -2.24908 -3.64143 0
M  V30 23061 C 2205.31 -1.90004 -4.99802 0
M  V30 23062 C 2206.61 -3.67058 -3.71572 0
M  V30 23063 H 2208.3 -2.29281 -1.92537 0
M  V30 23064 H 2205.85 -1.10368 -0.924928 0
M  V30 23065 H 2207.8 -1.12111 -4.06213 0
M  V30 23066 H 2206.53 -0.170689 -3.26154 0
M  V30 23067 H 2205.19 -2.26873 -2.87966 0
M  V30 23068 H 2204.83 -0.906883 -4.94757 0
M  V30 23069 H 2204.53 -2.63644 -5.25134 0
M  V30 23070 H 2206.06 -1.88759 -5.80691 0
M  V30 23071 H 2207.47 -3.67259 -4.4022 0
M  V30 23072 H 2205.87 -4.39695 -4.08397 0
M  V30 23073 H 2206.94 -4.01158 -2.72397 0
M  V30 23074 N 2208.28 1.00373 -1.21503 0
M  V30 23075 C 2209.21 2.09341 -0.933211 0
M  V30 23076 C 2210.23 1.62583 0.084061 0
M  V30 23077 O 2211.42 1.7788 -0.148594 0
M  V30 23078 C 2208.52 3.36764 -0.379928 0
M  V30 23079 C 2207.69 4.12602 -1.45184 0
M  V30 23080 C 2206.75 5.18314 -0.907567 0
M  V30 23081 O 2205.77 5.46504 -1.59129 0
M  V30 23082 N 2206.98 5.79841 0.276547 0
M  V30 23083 H 2209.74 2.34101 -1.87128 0
M  V30 23084 H 2207.3 1.16866 -1.12045 0
M  V30 23085 H 2209.29 4.047 -0.00138601 0
M  V30 23086 H 2207.86 3.09152 0.462994 0
M  V30 23087 H 2207.08 3.39451 -2.00417 0
M  V30 23088 H 2208.37 4.60046 -2.17336 0
M  V30 23089 H 2207.77 5.59292 0.849049 0
M  V30 23090 H 2206.33 6.49064 0.596588 0
M  V30 23091 N 2209.76 1.02298 1.19887 0
M  V30 23092 C 2210.72 0.60339 2.21115 0
M  V30 23093 C 2211.72 -0.329856 1.5738 0
M  V30 23094 O 2212.91 -0.117672 1.73802 0
M  V30 23095 C 2210.04 -0.117932 3.40696 0
M  V30 23096 H 2211.24 1.49898 2.59751 0
M  V30 23097 H 2208.79 0.813491 1.33462 0
M  V30 23098 H 2209.53 -1.02814 3.07571 0
M  V30 23099 H 2209.31 0.552579 3.88187 0
M  V30 23100 H 2210.8 -0.398623 4.15693 0
M  V30 23101 N 2211.24 -1.35782 0.800057 0
M  V30 23102 C 2212.49 -1.98204 0.373905 0
M  V30 23103 C 2212.8 -1.64194 -1.06299 0
M  V30 23104 O 2214.01 -2.19931 -1.59194 0
M  V30 23105 C 2212.46 -3.54561 0.617594 0
M  V30 23106 C 2212.07 -3.97486 2.06661 0
M  V30 23107 C 2213.81 -4.23725 0.256476 0
M  V30 23108 C 2211.72 -5.46663 2.25639 0
M  V30 23109 H 2210.65 -0.741621 0.136068 0
M  V30 23110 H 2213.3 -1.54937 0.983193 0
M  V30 23111 H 2211.68 -3.95952 -0.0615552 0
M  V30 23112 H 2212.86 -3.67266 2.78303 0
M  V30 23113 H 2211.17 -3.41193 2.38697 0
M  V30 23114 H 2213.77 -5.33373 0.376412 0
M  V30 23115 H 2214.11 -4.08607 -0.796621 0
M  V30 23116 H 2214.65 -3.87733 0.889282 0
M  V30 23117 H 2211.38 -5.66741 3.2937 0
M  V30 23118 H 2210.9 -5.78475 1.58514 0
M  V30 23119 H 2212.58 -6.13036 2.06872 0
M  V30 23120 N 2212.72 -0.552988 -1.4758 0
M  V30 23121 C 2213.94 -0.0320919 -2.06875 0
M  V30 23122 C 2214.36 1.25974 -1.40627 0
M  V30 23123 O 2213.72 1.75478 -0.50138 0
M  V30 23124 C 2213.77 0.171607 -3.61092 0
M  V30 23125 O 2213.49 -1.06906 -4.24856 0
M  V30 23126 C 2214.99 0.730267 -4.37244 0
M  V30 23127 H 2212.21 -0.0439268 -0.669561 0
M  V30 23128 H 2214.75 -0.765196 -1.89644 0
M  V30 23129 H 2212.91 0.854827 -3.77851 0
M  V30 23130 H 2213.32 -0.86415 -5.17332 0
M  V30 23131 H 2214.8 0.822107 -5.45844 0
M  V30 23132 H 2215.27 1.74057 -4.03238 0
M  V30 23133 H 2215.88 0.0828795 -4.25219 0
M  V30 23134 N 2214.19 1.54923 -0.28923 0
M  V30 23135 C 2215.42 2.04309 0.326427 0
M  V30 23136 C 2215.84 1.16703 1.48411 0
M  V30 23137 O 2215.19 0.190119 1.81507 0
M  V30 23138 C 2215.24 3.52674 0.793952 0
M  V30 23139 O 2214.97 4.36947 -0.317641 0
M  V30 23140 C 2216.47 4.18007 1.47598 0
M  V30 23141 H 2213.69 0.667059 0.0726155 0
M  V30 23142 H 2216.23 2.00026 -0.425436 0
M  V30 23143 H 2214.39 3.57355 1.49587 0
M  V30 23144 H 2214.8 5.24481 0.0442264 0
M  V30 23145 H 2216.27 5.23379 1.75438 0
M  V30 23146 H 2216.75 3.67029 2.41218 0
M  V30 23147 H 2217.36 4.17368 0.817547 0
M  V30 23148 N 2215.67 0.0167433 1.57591 0
M  V30 23149 C 2216.92 -0.664564 1.91285 0
M  V30 23150 C 2217.25 -1.72841 0.891979 0
M  V30 23151 O 2216.5 -1.9544 -0.100896 0
M  V30 23152 C 2216.8 -1.33024 3.31722 0
M  V30 23153 C 2216.47 -0.397968 4.4914 0
M  V30 23154 C 2215.13 -0.141336 4.80992 0
M  V30 23155 C 2217.48 0.242917 5.20634 0
M  V30 23156 C 2214.81 0.764194 5.81702 0
M  V30 23157 C 2217.16 1.13643 6.22309 0
M  V30 23158 C 2215.82 1.40207 6.52609 0
M  V30 23159 H 2215.09 -0.243181 0.69996 0
M  V30 23160 H 2217.74 0.0758603 1.9135 0
M  V30 23161 H 2216.05 -2.14511 3.2786 0
M  V30 23162 H 2217.74 -1.86373 3.55058 0
M  V30 23163 H 2214.33 -0.608164 4.24263 0
M  V30 23164 H 2218.52 0.0576892 4.96266 0
M  V30 23165 H 2213.77 0.977838 6.0353 0
M  V30 23166 H 2217.95 1.63928 6.76831 0
M  V30 23167 H 2215.57 2.10541 7.30463 0
M  V30 23168 N 2217.15 -1.55503 -0.256249 0
M  V30 23169 C 2218.4 -1.77159 -0.987048 0
M  V30 23170 C 2218.73 -0.580347 -1.85326 0
M  V30 23171 O 2218 0.421653 -1.89875 0
M  V30 23172 C 2218.29 -3.08616 -1.85548 0
M  V30 23173 C 2218.14 -4.38127 -1.01808 0
M  V30 23174 C 2219.46 -3.36233 -2.83964 0
M  V30 23175 H 2216.58 -0.644533 -0.357417 0
M  V30 23176 H 2219.22 -1.88237 -0.258206 0
M  V30 23177 H 2217.37 -2.99302 -2.4769 0
M  V30 23178 H 2219.04 -4.5942 -0.416078 0
M  V30 23179 H 2217.29 -4.32603 -0.322102 0
M  V30 23180 H 2217.96 -5.26471 -1.6593 0
M  V30 23181 H 2220.43 -3.45449 -2.31958 0
M  V30 23182 H 2219.31 -4.29448 -3.41856 0
M  V30 23183 H 2219.57 -2.56687 -3.5995 0
M  V30 23184 N 2218.63 0.521507 -1.48721 0
M  V30 23185 C 2219.85 1.30615 -1.61104 0
M  V30 23186 C 2220.28 1.86084 -0.274643 0
M  V30 23187 O 2219.64 1.64836 0.754908 0
M  V30 23188 C 2219.68 2.42685 -2.66714 0
M  V30 23189 O 2218.79 3.45963 -2.24462 0
M  V30 23190 H 2218.13 0.38649 -0.539927 0
M  V30 23191 H 2220.66 0.626611 -1.94768 0
M  V30 23192 H 2220.67 2.88749 -2.8825 0
M  V30 23193 H 2219.34 2.01675 -3.63731 0
M  V30 23194 H 2217.92 3.0596 -2.13174 0
M  V30 23195 N 2220.11 1.37452 0.771027 0
M  V30 23196 C 2221.35 1.32896 1.53187 0
M  V30 23197 C 2221.69 -0.086217 1.94009 0
M  V30 23198 O 2220.96 -1.0437 1.64125 0
M  V30 23199 C 2221.24 2.26873 2.79644 0
M  V30 23200 C 2221.1 3.77173 2.45072 0
M  V30 23201 C 2222.42 2.19284 3.81579 0
M  V30 23202 H 2219.53 0.484074 0.555735 0
M  V30 23203 H 2222.18 1.68158 0.884463 0
M  V30 23204 H 2220.33 1.96932 3.34888 0
M  V30 23205 H 2222 4.17714 1.95737 0
M  V30 23206 H 2220.24 3.95707 1.7776 0
M  V30 23207 H 2220.91 4.38365 3.3547 0
M  V30 23208 H 2223.39 2.45677 3.3583 0
M  V30 23209 H 2222.26 2.87179 4.67782 0
M  V30 23210 H 2222.53 1.18599 4.25895 0
M  V30 23211 N 2221.58 -0.997276 1.22033 0
M  V30 23212 C 2222.55 -2.06815 0.987945 0
M  V30 23213 C 2223.55 -1.6074 -0.0439802 0
M  V30 23214 O 2224.74 -1.73115 0.194083 0
M  V30 23215 C 2221.87 -3.3734 0.49138 0
M  V30 23216 H 2223.06 -2.28864 1.93807 0
M  V30 23217 H 2220.62 -1.1682 1.0384 0
M  V30 23218 H 2221.35 -3.20973 -0.463307 0
M  V30 23219 H 2221.14 -3.72115 1.23582 0
M  V30 23220 H 2222.63 -4.1614 0.348897 0
M  V30 23221 N 2223.06 -1.02932 -1.19343 0
M  V30 23222 C 2224.31 -0.724607 -1.88663 0
M  V30 23223 C 2224.63 0.749112 -1.80037 0
M  V30 23224 O 2223.9 1.53976 -1.21113 0
M  V30 23225 H 2222.48 -0.265037 -0.698401 0
M  V30 23226 H 2225.14 -1.30365 -1.44883 0
M  V30 23227 H 2224.24 -1.01931 -2.94985 0
M  V30 23228 N 2224.54 1.35356 -0.807246 0
M  V30 23229 C 2225.79 1.98003 -0.384411 0
M  V30 23230 C 2226.1 1.64756 1.05427 0
M  V30 23231 O 2227.31 2.20772 1.58025 0
M  V30 23232 C 2225.76 3.54229 -0.636389 0
M  V30 23233 C 2225.37 3.96385 -2.08766 0
M  V30 23234 C 2227.12 4.23583 -0.278943 0
M  V30 23235 C 2225.02 5.45459 -2.28535 0
M  V30 23236 H 2223.95 0.740889 -0.139999 0
M  V30 23237 H 2226.6 1.54414 -0.991396 0
M  V30 23238 H 2224.99 3.95979 0.040556 0
M  V30 23239 H 2226.16 3.65785 -2.80247 0
M  V30 23240 H 2224.48 3.39922 -2.40503 0
M  V30 23241 H 2227.07 5.33166 -0.404693 0
M  V30 23242 H 2227.42 4.09024 0.77494 0
M  V30 23243 H 2227.95 3.87256 -0.909832 0
M  V30 23244 H 2224.69 5.64986 -3.32371 0
M  V30 23245 H 2224.21 5.77626 -1.61579 0
M  V30 23246 H 2225.89 6.1193 -2.1012 0
M  V30 23247 N 2226.02 0.560807 1.47284 0
M  V30 23248 C 2227.27 0.0359304 2.01668 0
M  V30 23249 C 2227.58 -1.3235 1.44024 0
M  V30 23250 O 2228.79 -1.93849 1.90091 0
M  V30 23251 C 2227.24 0.0137292 3.59897 0
M  V30 23252 C 2226.85 1.37014 4.26534 0
M  V30 23253 C 2228.59 -0.458351 4.22018 0
M  V30 23254 C 2226.5 1.30685 5.7678 0
M  V30 23255 H 2225.43 0.00966204 0.753938 0
M  V30 23256 H 2228.08 0.709195 1.69241 0
M  V30 23257 H 2226.46 -0.725257 3.89302 0
M  V30 23258 H 2227.64 2.12712 4.08767 0
M  V30 23259 H 2225.95 1.78045 3.76416 0
M  V30 23260 H 2228.55 -0.524154 5.32125 0
M  V30 23261 H 2228.89 -1.47113 3.8944 0
M  V30 23262 H 2229.43 0.225887 3.97158 0
M  V30 23263 H 2226.17 2.29575 6.13984 0
M  V30 23264 H 2225.69 0.591727 5.96874 0
M  V30 23265 H 2227.36 1.01044 6.39061 0
M  V30 23266 N 2227.5 -1.54768 0.297442 0
M  V30 23267 C 2228.73 -2.04183 -0.315129 0
M  V30 23268 C 2229.13 -1.17441 -1.48338 0
M  V30 23269 O 2228.48 -0.191923 -1.82695 0
M  V30 23270 C 2228.54 -3.49608 -0.837521 0
M  V30 23271 C 2228.2 -4.5654 0.204992 0
M  V30 23272 C 2229.2 -5.0955 1.03222 0
M  V30 23273 C 2226.89 -5.01109 0.345666 0
M  V30 23274 C 2228.88 -6.05667 1.98611 0
M  V30 23275 C 2226.57 -5.97047 1.303 0
M  V30 23276 C 2227.56 -6.49209 2.1217 0
M  V30 23277 O 2227.25 -7.43268 3.06281 0
M  V30 23278 H 2226.98 -0.672052 -0.0729528 0
M  V30 23279 H 2229.54 -2.00764 0.433942 0
M  V30 23280 H 2227.77 -3.50339 -1.63706 0
M  V30 23281 H 2229.46 -3.82239 -1.36559 0
M  V30 23282 H 2230.22 -4.75914 0.934395 0
M  V30 23283 H 2226.1 -4.60139 -0.281629 0
M  V30 23284 H 2229.65 -6.46306 2.62553 0
M  V30 23285 H 2225.54 -6.301 1.40156 0
M  V30 23286 H 2226.31 -7.61058 3.01219 0
M  V30 23287 N 2228.97 -0.0251005 -1.5758 0
M  V30 23288 C 2230.22 0.653733 -1.90812 0
M  V30 23289 C 2230.54 1.73521 -0.902761 0
M  V30 23290 O 2231.74 2.47041 -1.12618 0
M  V30 23291 C 2230.2 1.21403 -3.38806 0
M  V30 23292 C 2229.81 0.166047 -4.47692 0
M  V30 23293 C 2231.55 1.86961 -3.81111 0
M  V30 23294 C 2229.46 0.737752 -5.8678 0
M  V30 23295 H 2228.39 0.247944 -0.712067 0
M  V30 23296 H 2231.04 -0.0897459 -1.8328 0
M  V30 23297 H 2229.42 2.00899 -3.41256 0
M  V30 23298 H 2230.59 -0.606159 -4.56796 0
M  V30 23299 H 2228.91 -0.390539 -4.14565 0
M  V30 23300 H 2231.51 2.30683 -4.82379 0
M  V30 23301 H 2231.85 2.71066 -3.15958 0
M  V30 23302 H 2232.38 1.14161 -3.81067 0
M  V30 23303 H 2229.12 -0.0650729 -6.55468 0
M  V30 23304 H 2228.64 1.47854 -5.81291 0
M  V30 23305 H 2230.32 1.22873 -6.35225 0
M  V30 23306 N 2230.45 1.55637 0.247999 0
M  V30 23307 C 2231.7 1.76619 0.974103 0
M  V30 23308 C 2232.01 0.588829 1.86527 0
M  V30 23309 O 2233.22 0.681641 2.62804 0
M  V30 23310 C 2231.68 3.12682 1.78207 0
M  V30 23311 C 2231.28 4.38063 0.938353 0
M  V30 23312 C 2233.03 3.43004 2.50098 0
M  V30 23313 C 2230.94 5.65158 1.74215 0
M  V30 23314 H 2229.87 0.658411 0.367438 0
M  V30 23315 H 2232.52 1.82068 0.228808 0
M  V30 23316 H 2230.9 3.01337 2.56928 0
M  V30 23317 H 2232.07 4.60393 0.193554 0
M  V30 23318 H 2230.39 4.15068 0.332832 0
M  V30 23319 H 2232.98 4.35176 3.10687 0
M  V30 23320 H 2233.33 2.64277 3.21657 0
M  V30 23321 H 2233.86 3.55559 1.78388 0
M  V30 23322 H 2230.6 6.46703 1.07031 0
M  V30 23323 H 2230.12 5.46931 2.46226 0
M  V30 23324 H 2231.8 6.04374 2.30956 0
M  V30 23325 N 2231.93 -0.513613 1.48996 0
M  V30 23326 C 2233.16 -1.29097 1.61299 0
M  V30 23327 C 2233.57 -1.87136 0.278689 0
M  V30 23328 O 2232.91 -1.67946 -0.744295 0
M  V30 23329 C 2232.97 -2.46874 2.6133 0
M  V30 23330 C 2232.64 -2.098 4.05996 0
M  V30 23331 C 2233.64 -1.6451 4.93186 0
M  V30 23332 C 2231.32 -2.19821 4.51646 0
M  V30 23333 C 2233.31 -1.29729 6.24059 0
M  V30 23334 C 2231 -1.84651 5.82535 0
M  V30 23335 C 2232 -1.39678 6.68565 0
M  V30 23336 O 2231.69 -1.04978 7.97016 0
M  V30 23337 H 2231.42 -0.39824 0.546243 0
M  V30 23338 H 2233.97 -0.624556 1.95674 0
M  V30 23339 H 2232.2 -3.16551 2.2211 0
M  V30 23340 H 2233.89 -3.08918 2.63295 0
M  V30 23341 H 2234.66 -1.56225 4.5915 0
M  V30 23342 H 2230.54 -2.53779 3.8486 0
M  V30 23343 H 2234.08 -0.945537 6.91162 0
M  V30 23344 H 2229.98 -1.92583 6.16102 0
M  V30 23345 H 2230.75 -1.18235 8.09915 0
M  V30 23346 N 2233.41 -1.37859 -0.763727 0
M  V30 23347 C 2234.36 -1.34271 -1.87723 0
M  V30 23348 C 2235.33 -0.206908 -1.64806 0
M  V30 23349 O 2236.51 -0.397541 -1.86613 0
M  V30 23350 C 2233.65 -1.16352 -3.24894 0
M  V30 23351 C 2232.76 -2.39231 -3.59711 0
M  V30 23352 C 2231.9 -2.14122 -4.86133 0
M  V30 23353 C 2230.94 -3.32826 -5.13705 0
M  V30 23354 N 2230.08 -3.07217 -6.31318 0
M  V30 23355 H 2234.92 -2.2947 -1.90125 0
M  V30 23356 H 2232.45 -1.14019 -0.929412 0
M  V30 23357 H 2234.41 -1.03982 -4.04034 0
M  V30 23358 H 2233.04 -0.247965 -3.21846 0
M  V30 23359 H 2232.09 -2.62312 -2.75494 0
M  V30 23360 H 2233.4 -3.27734 -3.76021 0
M  V30 23361 H 2232.56 -1.9883 -5.73194 0
M  V30 23362 H 2231.3 -1.22969 -4.71943 0
M  V30 23363 H 2230.3 -3.48649 -4.25116 0
M  V30 23364 H 2231.53 -4.24841 -5.29799 0
M  V30 23365 H 2229.47 -2.18701 -6.18471 0
M  V30 23366 H 2229.39 -3.89265 -6.48081 0
M  V30 23367 H 2230.66 -2.95558 -7.21294 0
M  V30 23368 N 2234.89 0.990791 -1.22561 0
M  V30 23369 C 2235.82 2.09954 -1.02184 0
M  V30 23370 C 2236.8 1.70001 0.0579095 0
M  V30 23371 O 2237.98 1.93917 -0.104718 0
M  V30 23372 C 2235.11 3.42059 -0.601083 0
M  V30 23373 C 2234.07 3.95869 -1.627 0
M  V30 23374 C 2233.39 5.24047 -1.06202 0
M  V30 23375 C 2234.69 4.26315 -3.0175 0
M  V30 23376 H 2236.39 2.27259 -1.9492 0
M  V30 23377 H 2233.93 1.09209 -0.938585 0
M  V30 23378 H 2235.89 4.19037 -0.445634 0
M  V30 23379 H 2234.61 3.24588 0.361948 0
M  V30 23380 H 2233.27 3.21025 -1.77027 0
M  V30 23381 H 2232.92 5.02919 -0.0902787 0
M  V30 23382 H 2232.62 5.61016 -1.74741 0
M  V30 23383 H 2234.14 6.03657 -0.918198 0
M  V30 23384 H 2235.56 4.94081 -2.90786 0
M  V30 23385 H 2233.95 4.74461 -3.67433 0
M  V30 23386 H 2235.02 3.34004 -3.51524 0
M  V30 23387 N 2236.37 1.03564 1.18795 0
M  V30 23388 C 2237.61 0.736056 1.88649 0
M  V30 23389 C 2237.94 -0.735857 1.80043 0
M  V30 23390 O 2237.2 -1.55223 1.19182 0
M  V30 23391 C 2237.49 1.14123 3.3869 0
M  V30 23392 C 2237.16 2.61256 3.675 0
M  V30 23393 C 2235.82 3.01453 3.75072 0
M  V30 23394 C 2238.17 3.56415 3.80287 0
M  V30 23395 C 2235.5 4.35707 3.92907 0
M  V30 23396 C 2237.85 4.90381 3.99636 0
M  V30 23397 C 2236.52 5.30256 4.05443 0
M  V30 23398 H 2235.79 0.269342 0.690316 0
M  V30 23399 H 2238.44 1.29973 1.40639 0
M  V30 23400 H 2236.74 0.49627 3.88644 0
M  V30 23401 H 2238.44 0.886858 3.9107 0
M  V30 23402 H 2235.03 2.29119 3.62219 0
M  V30 23403 H 2239.21 3.26508 3.73773 0
M  V30 23404 H 2234.47 4.66128 3.95645 0
M  V30 23405 H 2238.64 5.64024 4.08473 0
M  V30 23406 H 2236.27 6.34295 4.19015 0
M  V30 23407 N 2237.84 -1.34926 0.814413 0
M  V30 23408 C 2238.81 -2.27984 0.235799 0
M  V30 23409 C 2239.81 -1.49922 -0.581385 0
M  V30 23410 O 2241 -1.69575 -0.398728 0
M  V30 23411 C 2238.13 -3.34244 -0.670374 0
M  V30 23412 H 2239.32 -2.80669 1.05664 0
M  V30 23413 H 2236.87 -1.44914 0.585639 0
M  V30 23414 H 2237.61 -2.86758 -1.51461 0
M  V30 23415 H 2237.39 -3.92006 -0.0860133 0
M  V30 23416 H 2238.88 -4.03678 -1.06928 0
M  V30 23417 N 2239.32 -0.56861 -1.46985 0
M  V30 23418 C 2240.57 -0.0487377 -2.02041 0
M  V30 23419 C 2240.89 1.31037 -1.44411 0
M  V30 23420 O 2240.16 1.85713 -0.62351 0
M  V30 23421 H 2238.74 -0.0150271 -0.746849 0
M  V30 23422 H 2241.4 -0.7412 -1.80256 0
M  V30 23423 H 2240.5 0.0308412 -3.12085 0
M  V30 23424 N 2240.8 1.54608 -0.305646 0
M  V30 23425 C 2242.05 2.00231 0.302263 0
M  V30 23426 C 2242.37 1.194 1.53538 0
M  V30 23427 O 2241.63 0.259457 1.93972 0
M  V30 23428 C 2241.93 3.50499 0.698922 0
M  V30 23429 C 2241.59 4.48816 -0.432982 0
M  V30 23430 C 2240.26 4.75418 -0.743706 0
M  V30 23431 C 2242.61 5.07335 -1.19418 0
M  V30 23432 C 2239.94 5.57801 -1.81867 0
M  V30 23433 C 2242.29 5.90887 -2.25909 0
M  V30 23434 C 2240.95 6.15798 -2.57583 0
M  V30 23435 H 2240.22 0.732699 0.110606 0
M  V30 23436 H 2242.87 1.86708 -0.425707 0
M  V30 23437 H 2241.17 3.61656 1.50705 0
M  V30 23438 H 2242.87 3.83229 1.18054 0
M  V30 23439 H 2239.46 4.28219 -0.180706 0
M  V30 23440 H 2243.65 4.86781 -0.96738 0
M  V30 23441 H 2238.9 5.75337 -2.06874 0
M  V30 23442 H 2243.08 6.35256 -2.85346 0
M  V30 23443 H 2240.7 6.79424 -3.41009 0
M  V30 23444 N 2242.28 0.033457 1.57564 0
M  V30 23445 C 2243.21 -0.975775 2.07392 0
M  V30 23446 C 2244.22 -1.28608 0.998189 0
M  V30 23447 O 2245.41 -1.24997 1.27428 0
M  V30 23448 C 2242.51 -2.30205 2.48714 0
M  V30 23449 C 2241.68 -2.17627 3.79417 0
M  V30 23450 C 2240.74 -3.33226 4.07243 0
M  V30 23451 O 2239.77 -3.09918 4.7743 0
M  V30 23452 N 2240.97 -4.57154 3.57758 0
M  V30 23453 H 2243.74 -0.550608 2.94599 0
M  V30 23454 H 2241.3 -0.153202 1.61174 0
M  V30 23455 H 2243.29 -3.06374 2.64419 0
M  V30 23456 H 2241.86 -2.64348 1.6685 0
M  V30 23457 H 2241.08 -1.26159 3.73467 0
M  V30 23458 H 2242.37 -2.06432 4.65041 0
M  V30 23459 H 2241.77 -4.78983 3.00984 0
M  V30 23460 H 2240.32 -5.30476 3.78733 0
M  V30 23461 N 2243.76 -1.55766 -0.239741 0
M  V30 23462 C 2245 -1.77581 -0.96486 0
M  V30 23463 C 2245.32 -0.598732 -1.85581 0
M  V30 23464 O 2244.59 0.385193 -1.92076 0
M  V30 23465 H 2243.17 -0.65494 -0.359253 0
M  V30 23466 H 2245.84 -1.93212 -0.255967 0
M  V30 23467 H 2244.93 -2.69011 -1.58238 0
M  V30 23468 N 2245.23 0.505704 -1.49266 0
M  V30 23469 C 2246.2 1.59003 -1.65078 0
M  V30 23470 C 2247.2 1.52064 -0.522794 0
M  V30 23471 O 2248.39 1.553 -0.789145 0
M  V30 23472 C 2245.52 2.98653 -1.64375 0
M  V30 23473 H 2246.71 1.46314 -2.61786 0
M  V30 23474 H 2244.26 0.729592 -1.38227 0
M  V30 23475 H 2245 3.16824 -0.692328 0
M  V30 23476 H 2244.78 3.05098 -2.46287 0
M  V30 23477 H 2246.27 3.77443 -1.7868 0
M  V30 23478 N 2246.71 1.38262 0.756405 0
M  V30 23479 C 2247.94 1.37343 1.54339 0
M  V30 23480 C 2248.35 -0.0393584 1.89159 0
M  V30 23481 O 2247.69 -1.01562 1.53071 0
M  V30 23482 C 2247.76 2.16187 2.87234 0
M  V30 23483 C 2247.42 3.65024 2.74967 0
M  V30 23484 C 2248.42 4.58578 2.44954 0
M  V30 23485 C 2246.1 4.08344 2.92508 0
M  V30 23486 C 2248.1 5.93432 2.32632 0
M  V30 23487 C 2245.78 5.43279 2.79806 0
M  V30 23488 C 2246.78 6.35637 2.4991 0
M  V30 23489 O 2246.47 7.6809 2.37262 0
M  V30 23490 H 2246.2 0.471652 0.484273 0
M  V30 23491 H 2248.75 1.82416 0.94412 0
M  V30 23492 H 2246.98 1.65828 3.49339 0
M  V30 23493 H 2248.67 2.07711 3.48728 0
M  V30 23494 H 2249.44 4.26416 2.31073 0
M  V30 23495 H 2245.32 3.36805 3.14775 0
M  V30 23496 H 2248.86 6.65487 2.09219 0
M  V30 23497 H 2244.76 5.75039 2.93259 0
M  V30 23498 H 2245.53 7.78581 2.52495 0
M  V30 23499 N 2248.19 -0.984277 1.23084 0
M  V30 23500 C 2249.42 -1.76035 1.08717 0
M  V30 23501 C 2249.83 -1.85304 -0.361659 0
M  V30 23502 O 2249.19 -1.32941 -1.25032 0
M  V30 23503 C 2249.24 -3.1892 1.70212 0
M  V30 23504 O 2248.96 -3.10138 3.09428 0
M  V30 23505 C 2250.46 -4.12939 1.61235 0
M  V30 23506 H 2247.68 -0.552565 0.380674 0
M  V30 23507 H 2250.23 -1.23686 1.62856 0
M  V30 23508 H 2248.38 -3.68308 1.20116 0
M  V30 23509 H 2248.8 -4.00059 3.39195 0
M  V30 23510 H 2250.27 -5.10916 2.08971 0
M  V30 23511 H 2250.75 -4.3548 0.570452 0
M  V30 23512 H 2251.35 -3.69452 2.10678 0
M  V30 23513 N 2249.67 -1.04192 -1.18244 0
M  V30 23514 C 2250.92 -0.744576 -1.87884 0
M  V30 23515 C 2251.24 0.729975 -1.80821 0
M  V30 23516 O 2250.51 1.52682 -1.22739 0
M  V30 23517 H 2249.09 -0.27243 -0.695551 0
M  V30 23518 H 2251.75 -1.31894 -1.43492 0
M  V30 23519 H 2250.85 -1.05054 -2.93888 0
M  V30 23520 N 2251.15 1.34492 -0.821557 0
M  V30 23521 C 2252.4 1.97584 -0.40539 0
M  V30 23522 C 2252.71 1.65865 1.03674 0
M  V30 23523 O 2253.91 2.22436 1.55675 0
M  V30 23524 C 2252.37 3.53534 -0.673924 0
M  V30 23525 C 2251.98 3.94148 -2.12958 0
M  V30 23526 C 2253.72 4.23263 -0.323854 0
M  V30 23527 C 2251.63 5.43005 -2.34308 0
M  V30 23528 H 2250.56 0.739362 -0.147849 0
M  V30 23529 H 2253.21 1.53353 -1.00772 0
M  V30 23530 H 2251.59 3.96 -0.00144515 0
M  V30 23531 H 2252.77 3.62792 -2.84111 0
M  V30 23532 H 2251.08 3.37352 -2.44095 0
M  V30 23533 H 2253.68 5.32707 -0.461219 0
M  V30 23534 H 2254.02 4.09823 0.731514 0
M  V30 23535 H 2254.55 3.86269 -0.950854 0
M  V30 23536 H 2251.29 5.61429 -3.38345 0
M  V30 23537 H 2250.81 5.7588 -1.67697 0
M  V30 23538 H 2252.49 6.09667 -2.16599 0
M  V30 23539 N 2252.62 0.576397 1.46681 0
M  V30 23540 C 2254.04 0.148124 1.86111 0
M  V30 23541 C 2254.39 -1.28718 1.48075 0
M  V30 23542 O 2253.51 -1.97129 0.892691 0
M  V30 23543 C 2254.11 0.262041 3.37785 0
M  V30 23544 C 2252.67 -0.111318 3.76235 0
M  V30 23545 C 2251.81 0.600878 2.70712 0
M  V30 23546 H 2254.76 0.784995 1.37926 0
M  V30 23547 H 2254.78 -0.514298 3.77008 0
M  V30 23548 H 2254.3 1.30677 3.65438 0
M  V30 23549 H 2252.4 -1.15643 3.542 0
M  V30 23550 H 2252.51 0.260604 4.78391 0
M  V30 23551 H 2250.87 0.0418231 2.54666 0
M  V30 23552 H 2251.66 1.64714 3.01205 0
M  V30 23553 N 2254.1 -1.54444 0.313841 0
M  V30 23554 C 2255.05 -2.25454 -0.572131 0
M  V30 23555 C 2256.04 -1.26512 -1.12655 0
M  V30 23556 O 2257.25 -1.44321 -1.07571 0
M  V30 23557 H 2253.63 -0.724045 -0.203134 0
M  V30 23558 H 2255.6 -2.98359 0.0491669 0
M  V30 23559 C 2254.35 -3.01823 -1.72621 0
M  V30 23560 H 2253.67 -3.77769 -1.30884 0
M  V30 23561 H 2255.11 -3.54771 -2.32193 0
M  V30 23562 C 2253.57 -2.09546 -2.63803 0
M  V30 23563 O 2254.1 -1.67192 -3.65253 0
M  V30 23564 N 2252.3 -1.75236 -2.31821 0
M  V30 23565 H 2251.85 -2.09876 -1.49365 0
M  V30 23566 H 2251.81 -1.13772 -2.93093 0
M  V30 23567 N 2255.58 -0.0418125 -1.57545 0
M  V30 23568 C 2256.51 0.964763 -2.07906 0
M  V30 23569 C 2257.53 1.28077 -1.005 0
M  V30 23570 O 2258.71 1.2432 -1.28089 0
M  V30 23571 C 2255.81 2.28883 -2.49932 0
M  V30 23572 C 2254.99 2.15612 -3.80566 0
M  V30 23573 C 2254.05 3.31062 -4.09005 0
M  V30 23574 O 2253.07 3.07382 -4.79067 0
M  V30 23575 N 2254.27 4.5525 -3.60178 0
M  V30 23576 H 2257.04 0.534977 -2.94887 0
M  V30 23577 H 2254.6 0.144652 -1.61252 0
M  V30 23578 H 2256.59 3.04967 -2.6604 0
M  V30 23579 H 2255.16 2.6346 -1.68249 0
M  V30 23580 H 2254.38 1.24177 -3.74131 0
M  V30 23581 H 2255.67 2.03963 -4.6613 0
M  V30 23582 H 2255.07 4.7738 -3.0352 0
M  V30 23583 H 2253.63 5.2846 -3.81541 0
M  V30 23584 N 2257.06 1.55891 0.231477 0
M  V30 23585 C 2258.01 1.916 1.28678 0
M  V30 23586 C 2258.98 0.772 1.47069 0
M  V30 23587 O 2260.16 1.02702 1.60801 0
M  V30 23588 C 2257.3 2.22949 2.63416 0
M  V30 23589 C 2256.41 3.50232 2.52906 0
M  V30 23590 C 2255.55 3.71076 3.801 0
M  V30 23591 C 2254.59 4.91908 3.6427 0
M  V30 23592 N 2253.72 5.09193 4.83391 0
M  V30 23593 H 2258.56 2.8159 0.975255 0
M  V30 23594 H 2256.1 1.3938 0.470274 0
M  V30 23595 H 2258.06 2.39132 3.41865 0
M  V30 23596 H 2256.69 1.36144 2.92685 0
M  V30 23597 H 2255.74 3.42296 1.65944 0
M  V30 23598 H 2257.05 4.38831 2.37126 0
M  V30 23599 H 2256.21 3.87303 4.66992 0
M  V30 23600 H 2254.95 2.8074 3.98794 0
M  V30 23601 H 2253.95 4.75642 2.75762 0
M  V30 23602 H 2255.18 5.8372 3.47056 0
M  V30 23603 H 2253.12 4.21797 5.02418 0
M  V30 23604 H 2253.04 5.91907 4.703 0
M  V30 23605 H 2254.31 5.29845 5.71738 0
M  V30 23606 N 2258.54 -0.497781 1.49532 0
M  V30 23607 C 2259.95 -1.07924 1.52346 0
M  V30 23608 C 2260.3 -1.93711 0.311503 0
M  V30 23609 O 2259.42 -2.08528 -0.578369 0
M  V30 23610 C 2260.02 -1.964 2.76066 0
M  V30 23611 C 2258.58 -2.49704 2.81647 0
M  V30 23612 C 2257.72 -1.274 2.46302 0
M  V30 23613 H 2260.68 -0.281549 1.56183 0
M  V30 23614 H 2260.7 -2.8113 2.5641 0
M  V30 23615 H 2260.21 -1.33936 3.64256 0
M  V30 23616 H 2258.31 -3.15797 1.97744 0
M  V30 23617 H 2258.42 -2.86636 3.83896 0
M  V30 23618 H 2256.79 -1.60025 1.98151 0
M  V30 23619 H 2257.57 -0.666391 3.3677 0
M  V30 23620 N 2260.01 -1.38661 -0.749062 0
M  V30 23621 C 2260.96 -1.36254 -1.86289 0
M  V30 23622 C 2261.93 -0.224376 -1.64578 0
M  V30 23623 O 2263.12 -0.417312 -1.8618 0
M  V30 23624 C 2260.26 -1.19791 -3.23642 0
M  V30 23625 C 2259.37 -2.43033 -3.57154 0
M  V30 23626 C 2258.5 -2.19266 -4.83834 0
M  V30 23627 C 2257.54 -3.38256 -5.10146 0
M  V30 23628 N 2256.68 -3.13895 -6.28024 0
M  V30 23629 H 2261.52 -2.31473 -1.87681 0
M  V30 23630 H 2259.06 -1.14998 -0.917267 0
M  V30 23631 H 2261.02 -1.08261 -4.02909 0
M  V30 23632 H 2259.65 -0.282087 -3.21565 0
M  V30 23633 H 2258.7 -2.65219 -2.72696 0
M  V30 23634 H 2260.01 -3.31704 -3.72524 0
M  V30 23635 H 2259.16 -2.04898 -5.71053 0
M  V30 23636 H 2257.9 -1.27968 -4.70612 0
M  V30 23637 H 2256.91 -3.53138 -4.21395 0
M  V30 23638 H 2258.13 -4.30436 -5.25263 0
M  V30 23639 H 2256.08 -2.25249 -6.16116 0
M  V30 23640 H 2256 -3.96117 -6.43915 0
M  V30 23641 H 2257.26 -3.03192 -7.18119 0
M  V30 23642 N 2261.49 0.977736 -1.23605 0
M  V30 23643 C 2262.74 1.72193 -1.07132 0
M  V30 23644 C 2263.07 1.90234 0.390467 0
M  V30 23645 O 2262.35 1.45655 1.28899 0
M  V30 23646 C 2262.63 3.11864 -1.80037 0
M  V30 23647 C 2262.48 3.01377 -3.33904 0
M  V30 23648 C 2263.8 4.11334 -1.56499 0
M  V30 23649 H 2260.92 0.624992 -0.390582 0
M  V30 23650 H 2263.56 1.13808 -1.52144 0
M  V30 23651 H 2261.71 3.61707 -1.41775 0
M  V30 23652 H 2263.39 2.59036 -3.81704 0
M  V30 23653 H 2261.63 2.3782 -3.628 0
M  V30 23654 H 2262.3 4.00278 -3.80107 0
M  V30 23655 H 2264.78 3.70309 -1.89764 0
M  V30 23656 H 2263.65 5.07148 -2.09982 0
M  V30 23657 H 2263.91 4.39253 -0.500951 0
M  V30 23658 N 2262.97 1.04818 1.1769 0
M  V30 23659 C 2264.38 0.782728 1.695 0
M  V30 23660 C 2264.73 -0.695545 1.83457 0
M  V30 23661 O 2263.86 -1.54084 1.51945 0
M  V30 23662 C 2264.45 1.41424 3.07871 0
M  V30 23663 C 2263.01 1.19693 3.56862 0
M  V30 23664 C 2262.16 1.50016 2.33218 0
M  V30 23665 H 2265.11 1.21362 1.0226 0
M  V30 23666 H 2265.13 0.821494 3.71526 0
M  V30 23667 H 2264.64 2.49014 2.97681 0
M  V30 23668 H 2262.74 0.140109 3.72336 0
M  V30 23669 H 2262.86 1.89924 4.39847 0
M  V30 23670 H 2261.22 0.920113 2.375 0
M  V30 23671 H 2262 2.58731 2.25639 0
M  V30 23672 N 2264.45 -1.34055 0.828678 0
M  V30 23673 C 2265.68 -2.02326 0.432656 0
M  V30 23674 C 2266.09 -1.62387 -0.963119 0
M  V30 23675 O 2265.45 -0.83215 -1.62424 0
M  V30 23676 C 2265.5 -3.57566 0.531883 0
M  V30 23677 O 2265.22 -3.9606 1.87265 0
M  V30 23678 C 2266.72 -4.43105 0.1315 0
M  V30 23679 H 2263.94 -0.648332 0.172934 0
M  V30 23680 H 2266.49 -1.71206 1.11843 0
M  V30 23681 H 2264.64 -3.87255 -0.10587 0
M  V30 23682 H 2265.06 -4.90754 1.85096 0
M  V30 23683 H 2266.53 -5.51424 0.252001 0
M  V30 23684 H 2267.01 -4.29337 -0.92557 0
M  V30 23685 H 2267.61 -4.18755 0.74328 0
M  V30 23686 N 2265.93 -0.584167 -1.46374 0
M  V30 23687 C 2266.86 0.135996 -2.33104 0
M  V30 23688 C 2267.84 0.88223 -1.45433 0
M  V30 23689 O 2269.02 0.857403 -1.74248 0
M  V30 23690 C 2266.15 1.14928 -3.27733 0
M  V30 23691 C 2265.11 0.517788 -4.24856 0
M  V30 23692 C 2264.43 1.63764 -5.09004 0
M  V30 23693 C 2265.73 -0.545977 -5.19439 0
M  V30 23694 H 2267.43 -0.588137 -2.93567 0
M  V30 23695 H 2264.97 -0.284284 -1.41166 0
M  V30 23696 H 2266.93 1.66146 -3.87264 0
M  V30 23697 H 2265.65 1.9037 -2.6538 0
M  V30 23698 H 2264.31 0.0266716 -3.6659 0
M  V30 23699 H 2263.96 2.38177 -4.43036 0
M  V30 23700 H 2263.66 1.22075 -5.7478 0
M  V30 23701 H 2265.18 2.15256 -5.71399 0
M  V30 23702 H 2266.6 -0.118805 -5.73177 0
M  V30 23703 H 2264.99 -0.883274 -5.93564 0
M  V30 23704 H 2266.06 -1.4317 -4.63282 0
M  V30 23705 N 2267.41 1.54275 -0.322027 0
M  V30 23706 C 2268.82 1.59571 0.0306719 0
M  V30 23707 C 2269.02 1.3386 1.50612 0
M  V30 23708 O 2268.08 1.12227 2.26189 0
M  V30 23709 C 2269.39 2.9821 -0.386175 0
M  V30 23710 C 2270.94 3.11184 -0.336701 0
M  V30 23711 C 2271.41 4.52166 -0.728687 0
M  V30 23712 N 2272.9 4.58151 -0.682032 0
M  V30 23713 C 2273.64 5.65348 -0.957548 0
M  V30 23714 N 2273.14 6.80492 -1.30012 0
M  V30 23715 N 2274.93 5.55118 -0.883211 0
M  V30 23716 H 2267.08 1.69245 -1.28335 0
M  V30 23717 H 2269.34 0.791519 -0.52173 0
M  V30 23718 H 2269.05 3.22019 -1.41409 0
M  V30 23719 H 2268.92 3.76373 0.249596 0
M  V30 23720 H 2271.31 2.87111 0.682008 0
M  V30 23721 H 2271.39 2.35128 -1.00738 0
M  V30 23722 H 2271.03 4.76971 -1.7453 0
M  V30 23723 H 2270.96 5.26588 -0.0357077 0
M  V30 23724 H 2273.46 3.75456 -0.429051 0
M  V30 23725 H 2273.77 7.58186 -1.49577 0
M  V30 23726 H 2272.11 6.81992 -1.33836 0
M  V30 23727 H 2275.3 4.64041 -0.615082 0
M  V30 23728 H 2275.48 6.38573 -1.10129 0
M  V30 23729 N 2268.88 0.0501669 1.5752 0
M  V30 23730 C 2269.82 -0.953723 2.08415 0
M  V30 23731 C 2270.83 -1.27542 1.01177 0
M  V30 23732 O 2272.02 -1.23639 1.28747 0
M  V30 23733 C 2269.12 -2.27554 2.51142 0
M  V30 23734 C 2268.29 -2.13591 3.81704 0
M  V30 23735 C 2267.35 -3.28888 4.10754 0
M  V30 23736 O 2266.38 -3.04837 4.8069 0
M  V30 23737 N 2267.58 -4.53333 3.62587 0
M  V30 23738 H 2270.34 -0.519331 2.95166 0
M  V30 23739 H 2267.9 -0.136099 1.61327 0
M  V30 23740 H 2269.9 -3.03552 2.67653 0
M  V30 23741 H 2268.47 -2.62564 1.69644 0
M  V30 23742 H 2267.69 -1.22191 3.74784 0
M  V30 23743 H 2268.97 -2.01488 4.67205 0
M  V30 23744 H 2268.37 -4.75764 3.06047 0
M  V30 23745 H 2266.93 -5.26429 3.84338 0
M  V30 23746 N 2270.36 -1.56011 -0.223207 0
M  V30 23747 C 2271.32 -1.91452 -1.26011 0
M  V30 23748 C 2272.32 -0.792961 -1.39888 0
M  V30 23749 O 2273.51 -1.06073 -1.38182 0
M  V30 23750 C 2270.65 -2.16388 -2.63418 0
M  V30 23751 H 2271.84 -2.8419 -0.95791 0
M  V30 23752 H 2269.39 -1.49268 -0.46355 0
M  V30 23753 H 2270.13 -1.26196 -2.98739 0
M  V30 23754 H 2269.91 -2.98092 -2.54723 0
M  V30 23755 H 2271.4 -2.44909 -3.38245 0
M  V30 23756 N 2271.84 0.489844 -1.49794 0
M  V30 23757 C 2272.79 1.59011 -1.67284 0
M  V30 23758 C 2273.76 1.5794 -0.514204 0
M  V30 23759 O 2274.94 1.75757 -0.742564 0
M  V30 23760 C 2272.08 2.97099 -1.75574 0
M  V30 23761 C 2271.19 3.08102 -3.02816 0
M  V30 23762 C 2270.33 4.3699 -3.02016 0
M  V30 23763 C 2269.37 4.41666 -4.2379 0
M  V30 23764 N 2268.51 5.61998 -4.20836 0
M  V30 23765 H 2273.35 1.43405 -2.61226 0
M  V30 23766 H 2270.88 0.697542 -1.2951 0
M  V30 23767 H 2272.84 3.77152 -1.78361 0
M  V30 23768 H 2271.47 3.11384 -0.850882 0
M  V30 23769 H 2270.52 2.21041 -3.09588 0
M  V30 23770 H 2271.83 3.07416 -3.92806 0
M  V30 23771 H 2270.99 5.25373 -3.03427 0
M  V30 23772 H 2269.73 4.40256 -2.09823 0
M  V30 23773 H 2268.73 3.51683 -4.2261 0
M  V30 23774 H 2269.96 4.40106 -5.17188 0
M  V30 23775 H 2267.9 5.66086 -3.31486 0
M  V30 23776 H 2267.82 5.62976 -5.04574 0
M  V30 23777 H 2269.09 6.52558 -4.26367 0
M  V30 23778 N 2273.32 1.39056 0.741698 0
M  V30 23779 C 2274.56 1.36116 1.50334 0
M  V30 23780 C 2274.9 -0.0450455 1.94148 0
M  V30 23781 O 2274.17 -1.00865 1.66302 0
M  V30 23782 C 2274.45 2.32754 2.74768 0
M  V30 23783 C 2274.31 3.82287 2.37017 0
M  V30 23784 C 2275.63 2.27328 3.76842 0
M  V30 23785 H 2272.75 0.495753 0.545342 0
M  V30 23786 H 2275.39 1.69997 0.848595 0
M  V30 23787 H 2273.54 2.03991 3.30635 0
M  V30 23788 H 2275.21 4.21771 1.86833 0
M  V30 23789 H 2273.45 3.99388 1.69327 0
M  V30 23790 H 2274.12 4.45382 3.26097 0
M  V30 23791 H 2276.6 2.52745 3.30543 0
M  V30 23792 H 2275.48 2.97037 4.61585 0
M  V30 23793 H 2275.74 1.27606 4.23284 0
M  V30 23794 N 2274.8 -0.971167 1.24121 0
M  V30 23795 C 2275.73 -2.06794 0.988386 0
M  V30 23796 C 2276.74 -1.62749 -0.0409255 0
M  V30 23797 O 2277.93 -1.77424 0.195704 0
M  V30 23798 C 2275.03 -3.35638 0.469082 0
M  V30 23799 C 2274.2 -4.08608 1.56072 0
M  V30 23800 C 2273.26 -5.15726 1.04467 0
M  V30 23801 O 2272.29 -5.42093 1.73563 0
M  V30 23802 N 2273.49 -5.8037 -0.122715 0
M  V30 23803 H 2276.25 -2.29057 1.93269 0
M  V30 23804 H 2273.82 -1.13854 1.15104 0
M  V30 23805 H 2275.81 -4.04554 0.108685 0
M  V30 23806 H 2274.38 -3.10271 -0.380865 0
M  V30 23807 H 2273.6 -3.34018 2.09346 0
M  V30 23808 H 2274.89 -4.54122 2.29457 0
M  V30 23809 H 2274.28 -5.61347 -0.700464 0
M  V30 23810 H 2272.84 -6.50418 -0.42429 0
M  V30 23811 N 2276.27 -1.05441 -1.17133 0
M  V30 23812 C 2277.52 -0.764462 -1.87084 0
M  V30 23813 C 2277.84 0.710755 -1.81585 0
M  V30 23814 O 2277.11 1.51372 -1.24352 0
M  V30 23815 H 2275.69 -0.279791 -0.692622 0
M  V30 23816 H 2278.36 -1.33409 -1.42085 0
M  V30 23817 H 2277.45 -1.08165 -2.92757 0
M  V30 23818 N 2277.75 1.33613 -0.835776 0
M  V30 23819 C 2279.16 1.80233 -0.487131 0
M  V30 23820 C 2279.51 1.69181 0.993597 0
M  V30 23821 O 2278.64 1.23927 1.77401 0
M  V30 23822 C 2279.23 3.27241 -0.877442 0
M  V30 23823 C 2277.79 3.71889 -0.580981 0
M  V30 23824 C 2276.94 2.55088 -1.08744 0
M  V30 23825 H 2279.89 1.21179 -1.02476 0
M  V30 23826 H 2279.91 3.80044 -0.186262 0
M  V30 23827 H 2279.42 3.35253 -1.95518 0
M  V30 23828 H 2277.53 3.69406 0.486817 0
M  V30 23829 H 2277.64 4.65485 -1.13405 0
M  V30 23830 H 2276 2.49574 -0.508436 0
M  V30 23831 H 2276.79 2.65864 -2.17189 0
M  V30 23832 N 2279.23 0.591922 1.46062 0
M  V30 23833 C 2280.19 -0.125933 2.28854 0
M  V30 23834 C 2281.19 -0.810083 1.38904 0
M  V30 23835 O 2282.38 -0.660632 1.61187 0
M  V30 23836 C 2279.52 -1.18804 3.19528 0
M  V30 23837 H 2280.71 0.601768 2.93801 0
M  V30 23838 H 2278.26 0.350281 1.52324 0
M  V30 23839 H 2279 -1.94702 2.59348 0
M  V30 23840 H 2278.78 -0.701868 3.85767 0
M  V30 23841 H 2280.27 -1.69125 3.8182 0
M  V30 23842 N 2280.71 -1.54102 0.330204 0
M  V30 23843 C 2281.96 -2.00687 -0.27037 0
M  V30 23844 C 2282.28 -1.21828 -1.51619 0
M  V30 23845 O 2281.54 -0.290284 -1.93535 0
M  V30 23846 C 2281.84 -3.51567 -0.643072 0
M  V30 23847 C 2281.5 -4.48071 0.50433 0
M  V30 23848 C 2280.17 -4.74175 0.819247 0
M  V30 23849 C 2282.52 -5.05371 1.27474 0
M  V30 23850 C 2279.85 -5.54837 1.90718 0
M  V30 23851 C 2282.2 -5.87219 2.35281 0
M  V30 23852 C 2280.86 -6.11622 2.67347 0
M  V30 23853 H 2280.13 -0.734366 -0.0989353 0
M  V30 23854 H 2282.78 -1.86007 0.455357 0
M  V30 23855 H 2281.08 -3.64008 -1.44932 0
M  V30 23856 H 2282.78 -3.85058 -1.11942 0
M  V30 23857 H 2279.37 -4.27877 0.248809 0
M  V30 23858 H 2283.55 -4.8518 1.0447 0
M  V30 23859 H 2278.81 -5.71973 2.16001 0
M  V30 23860 H 2282.98 -6.30636 2.95417 0
M  V30 23861 H 2280.61 -6.73913 3.51775 0
M  V30 23862 N 2282.19 -0.0585199 -1.57491 0
M  V30 23863 C 2283.1 0.928376 -2.15449 0
M  V30 23864 C 2284.11 1.33648 -1.11419 0
M  V30 23865 O 2285.29 1.4119 -1.43622 0
M  V30 23866 C 2282.35 2.18234 -2.69397 0
M  V30 23867 C 2281.41 1.8319 -3.88253 0
M  V30 23868 C 2280.65 3.02608 -4.39618 0
M  V30 23869 O 2280.87 4.16212 -3.90031 0
M  V30 23870 O 2279.8 2.83195 -5.31116 0
M  V30 23871 H 2283.63 0.46543 -3.00112 0
M  V30 23872 H 2281.22 0.1638 -1.48499 0
M  V30 23873 H 2283.1 2.91792 -3.04032 0
M  V30 23874 H 2281.77 2.63652 -1.87801 0
M  V30 23875 H 2280.68 1.06924 -3.58494 0
M  V30 23876 H 2282.01 1.42565 -4.71101 0
M  V30 23877 N 2283.66 1.56128 0.21493 0
M  V30 23878 C 2284.91 1.79448 0.93834 0
M  V30 23879 C 2285.24 0.628411 1.84069 0
M  V30 23880 O 2284.49 -0.386891 1.91838 0
M  V30 23881 C 2284.79 3.08583 1.80308 0
M  V30 23882 C 2284.46 4.38422 1.05341 0
M  V30 23883 C 2283.12 4.73699 0.846352 0
M  V30 23884 C 2285.47 5.18554 0.524497 0
M  V30 23885 C 2282.8 5.86617 0.0985799 0
M  V30 23886 C 2285.15 6.32251 -0.209964 0
M  V30 23887 C 2283.82 6.66125 -0.428219 0
M  V30 23888 H 2283.09 0.656645 0.343363 0
M  V30 23889 H 2285.73 1.90388 0.206044 0
M  V30 23890 H 2284.04 2.92793 2.60345 0
M  V30 23891 H 2285.74 3.23829 2.36507 0
M  V30 23892 H 2282.33 4.10727 1.22478 0
M  V30 23893 H 2286.51 4.91731 0.671922 0
M  V30 23894 H 2281.77 6.11347 -0.0806828 0
M  V30 23895 H 2285.94 6.93569 -0.627279 0
M  V30 23896 H 2283.57 7.53466 -1.00957 0
M  V30 23897 N 2285.14 -0.481893 1.50052 0
M  V30 23898 C 2286.11 -1.56357 1.67586 0
M  V30 23899 C 2287.11 -1.51213 0.54692 0
M  V30 23900 O 2288.3 -1.54025 0.813752 0
M  V30 23901 C 2285.43 -2.96 1.69105 0
M  V30 23902 H 2286.62 -1.42131 2.64081 0
M  V30 23903 H 2284.17 -0.707509 1.3937 0
M  V30 23904 H 2284.91 -3.15682 0.742644 0
M  V30 23905 H 2284.69 -3.01141 2.5111 0
M  V30 23906 H 2286.18 -3.74552 1.84662 0
M  V30 23907 N 2286.62 -1.39448 -0.734313 0
M  V30 23908 C 2287.87 -1.36911 -1.4961 0
M  V30 23909 C 2288.2 0.0347488 -1.94169 0
M  V30 23910 O 2287.47 0.999818 -1.66835 0
M  V30 23911 C 2287.76 -2.34208 -2.7353 0
M  V30 23912 C 2287.61 -3.83538 -2.34986 0
M  V30 23913 C 2288.93 -2.29324 -3.75631 0
M  V30 23914 H 2286.05 -0.498638 -0.542705 0
M  V30 23915 H 2288.69 -1.70444 -0.839567 0
M  V30 23916 H 2286.84 -2.05742 -3.29549 0
M  V30 23917 H 2288.51 -4.22756 -1.84593 0
M  V30 23918 H 2286.76 -4.00281 -1.67206 0
M  V30 23919 H 2287.43 -4.47105 -3.2373 0
M  V30 23920 H 2289.9 -2.54495 -3.29198 0
M  V30 23921 H 2288.78 -2.9948 -4.60003 0
M  V30 23922 H 2289.04 -1.29849 -4.22601 0
M  V30 23923 N 2288.1 0.964571 -1.24635 0
M  V30 23924 C 2289.06 2.04123 -1.04243 0
M  V30 23925 C 2290.06 1.608 0.00134736 0
M  V30 23926 O 2291.25 1.7254 -0.239913 0
M  V30 23927 C 2288.38 3.35919 -0.580647 0
M  V30 23928 H 2289.58 2.23645 -1.99807 0
M  V30 23929 H 2287.13 1.14026 -1.06901 0
M  V30 23930 H 2287.86 3.22089 0.378044 0
M  V30 23931 H 2287.65 3.68708 -1.33404 0
M  V30 23932 H 2289.14 4.15069 -0.459107 0
M  V30 23933 N 2289.58 1.0606 1.16572 0
M  V30 23934 C 2290.51 0.613559 2.19797 0
M  V30 23935 C 2291.49 -0.362425 1.58509 0
M  V30 23936 O 2292.67 -0.271961 1.86528 0
M  V30 23937 C 2289.8 -0.100855 3.3855 0
M  V30 23938 C 2288.84 0.831512 4.18316 0
M  V30 23939 S 2289.68 2.32547 4.82371 0
M  V30 23940 C 2290.83 1.62248 6.04505 0
M  V30 23941 H 2291.07 1.4881 2.57377 0
M  V30 23942 H 2288.6 0.87336 1.27326 0
M  V30 23943 H 2290.56 -0.506827 4.07359 0
M  V30 23944 H 2289.22 -0.951551 2.9934 0
M  V30 23945 H 2288.41 0.278159 5.03232 0
M  V30 23946 H 2288.01 1.17725 3.54988 0
M  V30 23947 H 2290.31 0.92674 6.71132 0
M  V30 23948 H 2291.25 2.44945 6.64385 0
M  V30 23949 H 2291.66 1.10609 5.53557 0
M  V30 23950 N 2291.06 -1.33168 0.84285 0
M  V30 23951 C 2291.99 -2.27099 0.223902 0
M  V30 23952 C 2292.97 -1.49845 -0.631285 0
M  V30 23953 O 2294.15 -1.79006 -0.590677 0
M  V30 23954 C 2291.28 -3.31696 -0.685254 0
M  V30 23955 C 2290.32 -4.26394 0.0949939 0
M  V30 23956 S 2291.16 -5.15339 1.45555 0
M  V30 23957 C 2292.31 -6.23463 0.551794 0
M  V30 23958 H 2292.55 -2.79247 1.0202 0
M  V30 23959 H 2290.08 -1.40519 0.639821 0
M  V30 23960 H 2292.04 -3.92441 -1.20419 0
M  V30 23961 H 2290.7 -2.78354 -1.45525 0
M  V30 23962 H 2289.89 -5.00452 -0.596971 0
M  V30 23963 H 2289.49 -3.70006 0.545119 0
M  V30 23964 H 2291.78 -6.77043 -0.248758 0
M  V30 23965 H 2292.73 -6.96751 1.26266 0
M  V30 23966 H 2293.14 -5.64347 0.131374 0
M  V30 23967 N 2292.53 -0.599659 -1.45746 0
M  V30 23968 C 2293.48 0.123808 -2.30468 0
M  V30 23969 C 2294.45 0.867715 -1.41633 0
M  V30 23970 O 2295.64 0.855026 -1.70569 0
M  V30 23971 C 2292.78 1.12046 -3.26404 0
M  V30 23972 C 2291.89 0.378245 -4.30341 0
M  V30 23973 C 2291.02 1.36391 -5.13392 0
M  V30 23974 C 2290.06 0.609064 -6.09062 0
M  V30 23975 N 2289.2 1.54362 -6.84921 0
M  V30 23976 H 2294.04 -0.604678 -2.91801 0
M  V30 23977 H 2291.58 -0.309997 -1.43796 0
M  V30 23978 H 2293.53 1.71134 -3.80485 0
M  V30 23979 H 2292.16 1.81645 -2.66842 0
M  V30 23980 H 2291.22 -0.327996 -3.78983 0
M  V30 23981 H 2292.53 -0.211084 -4.98353 0
M  V30 23982 H 2291.68 2.02709 -5.71834 0
M  V30 23983 H 2290.42 1.98717 -4.45379 0
M  V30 23984 H 2289.43 -0.0677945 -5.49758 0
M  V30 23985 H 2290.65 -0.00903928 -6.79099 0
M  V30 23986 H 2288.6 2.15467 -6.19605 0
M  V30 23987 H 2288.51 1.00753 -7.49256 0
M  V30 23988 H 2289.78 2.19663 -7.47909 0
M  V30 23989 N 2294.01 1.53925 -0.338371 0
M  V30 23990 C 2295.43 1.59594 0.0137455 0
M  V30 23991 C 2295.63 1.35449 1.49183 0
M  V30 23992 O 2294.68 1.1462 2.24985 0
M  V30 23993 C 2296 2.97784 -0.417782 0
M  V30 23994 C 2297.54 3.10809 -0.369688 0
M  V30 23995 C 2298.02 4.51368 -0.776604 0
M  V30 23996 N 2299.51 4.57402 -0.730587 0
M  V30 23997 C 2300.25 5.64301 -1.01746 0
M  V30 23998 N 2299.74 6.79074 -1.37222 0
M  V30 23999 N 2301.53 5.5415 -0.942039 0
M  V30 24000 H 2293.69 1.67874 -1.30123 0
M  V30 24001 H 2295.95 0.785941 -0.530096 0
M  V30 24002 H 2295.65 3.20501 -1.44817 0
M  V30 24003 H 2295.53 3.76617 0.209663 0
M  V30 24004 H 2297.92 2.87818 0.651517 0
M  V30 24005 H 2298 2.34047 -1.03227 0
M  V30 24006 H 2297.64 4.75093 -1.79579 0
M  V30 24007 H 2297.57 5.2652 -0.0915574 0
M  V30 24008 H 2300.06 3.7498 -0.468849 0
M  V30 24009 H 2300.37 7.56557 -1.5761 0
M  V30 24010 H 2298.72 6.80534 -1.41062 0
M  V30 24011 H 2301.91 4.63363 -0.664266 0
M  V30 24012 H 2302.08 6.37369 -1.16896 0
M  V30 24013 N 2295.49 0.0668712 1.57458 0
M  V30 24014 C 2296.44 -0.919814 2.1364 0
M  V30 24015 C 2297.43 -1.31161 1.07206 0
M  V30 24016 O 2298.64 -1.28943 1.25593 0
M  V30 24017 H 2295.01 -0.31455 0.683054 0
M  V30 24018 H 2296.98 -0.420995 2.95415 0
M  V30 24019 C 2295.73 -2.1797 2.70896 0
M  V30 24020 H 2295.06 -1.88705 3.52463 0
M  V30 24021 H 2296.5 -2.85132 3.13808 0
M  V30 24022 C 2294.95 -2.93493 1.65419 0
M  V30 24023 O 2295.48 -3.87014 1.07626 0
M  V30 24024 N 2293.69 -2.5651 1.36569 0
M  V30 24025 H 2293.24 -1.80533 1.83754 0
M  V30 24026 H 2293.2 -3.07345 0.662284 0
M  V30 24027 N 2296.97 -1.56239 -0.206647 0
M  V30 24028 C 2298.19 -1.84392 -0.949442 0
M  V30 24029 C 2298.62 -0.649047 -1.76547 0
M  V30 24030 O 2297.98 0.4022 -1.76782 0
M  V30 24031 C 2298.02 -3.10672 -1.83073 0
M  V30 24032 O 2297.13 -2.90412 -2.92805 0
M  V30 24033 H 2296.47 -0.607503 -0.268022 0
M  V30 24034 H 2299 -2.03462 -0.215453 0
M  V30 24035 H 2299.01 -3.41165 -2.23764 0
M  V30 24036 H 2297.68 -3.97263 -1.23105 0
M  V30 24037 H 2296.26 -2.71189 -2.55951 0
M  V30 24038 N 2298.45 0.473929 -1.50305 0
M  V30 24039 C 2299.67 1.25424 -1.65178 0
M  V30 24040 C 2300.1 1.85116 -0.333706 0
M  V30 24041 O 2299.45 1.67154 0.702085 0
M  V30 24042 C 2299.5 2.34077 -2.74299 0
M  V30 24043 O 2298.61 3.38647 -2.35355 0
M  V30 24044 H 2297.95 0.369117 -0.55195 0
M  V30 24045 H 2300.48 0.56433 -1.96663 0
M  V30 24046 H 2300.49 2.79432 -2.9729 0
M  V30 24047 H 2299.16 1.90001 -3.69963 0
M  V30 24048 H 2297.74 2.99023 -2.228 0
M  V30 24049 N 2299.92 1.39835 0.726907 0
M  V30 24050 C 2301.15 1.4079 1.51611 0
M  V30 24051 C 2301.57 0.00454824 1.88799 0
M  V30 24052 O 2300.92 -0.968782 1.54664 0
M  V30 24053 C 2300.97 2.28826 2.79859 0
M  V30 24054 O 2300.7 3.63697 2.44247 0
M  V30 24055 C 2302.2 2.38251 3.73833 0
M  V30 24056 H 2299.42 0.480602 0.468255 0
M  V30 24057 H 2301.96 1.83749 0.897575 0
M  V30 24058 H 2300.12 1.89258 3.38024 0
M  V30 24059 H 2300.53 4.10336 3.26688 0
M  V30 24060 H 2302 3.04081 4.60693 0
M  V30 24061 H 2302.48 1.40411 4.16151 0
M  V30 24062 H 2303.09 2.78323 3.21584 0
M  V30 24063 N 2301.4 -0.957948 1.25144 0
M  V30 24064 C 2302.65 -1.70467 1.09858 0
M  V30 24065 C 2302.98 -1.90831 -0.360153 0
M  V30 24066 O 2302.26 -1.47687 -1.26565 0
M  V30 24067 C 2302.54 -3.0896 1.84975 0
M  V30 24068 C 2302.39 -2.96026 3.38657 0
M  V30 24069 C 2303.71 -4.08793 1.63024 0
M  V30 24070 H 2300.83 -0.618699 0.400476 0
M  V30 24071 H 2303.47 -1.11373 1.53935 0
M  V30 24072 H 2301.62 -3.59406 1.47511 0
M  V30 24073 H 2303.29 -2.52931 3.85777 0
M  V30 24074 H 2301.54 -2.32018 3.66538 0
M  V30 24075 H 2302.21 -3.94181 3.86427 0
M  V30 24076 H 2304.68 -3.67243 1.95631 0
M  V30 24077 H 2303.56 -5.03743 2.18024 0
M  V30 24078 H 2303.82 -4.384 0.570769 0
M  V30 24079 N 2302.88 -1.06677 -1.16008 0
M  V30 24080 C 2303.83 -0.681006 -2.20524 0
M  V30 24081 C 2304.8 0.324255 -1.62904 0
M  V30 24082 O 2305.98 0.21226 -1.89616 0
M  V30 24083 C 2303.12 -0.0777158 -3.45012 0
M  V30 24084 C 2302.23 -1.13362 -4.16861 0
M  V30 24085 C 2301.37 -0.496063 -5.28879 0
M  V30 24086 C 2300.41 -1.53524 -5.92534 0
M  V30 24087 N 2299.55 -0.920754 -6.96036 0
M  V30 24088 H 2304.39 -1.57667 -2.52874 0
M  V30 24089 H 2301.92 -0.788245 -1.24198 0
M  V30 24090 H 2303.88 0.28963 -4.16193 0
M  V30 24091 H 2302.51 0.781338 -3.13201 0
M  V30 24092 H 2301.56 -1.61863 -3.44245 0
M  V30 24093 H 2302.87 -1.92182 -4.6029 0
M  V30 24094 H 2302.03 -0.0759671 -6.06652 0
M  V30 24095 H 2300.77 0.323976 -4.86623 0
M  V30 24096 H 2299.77 -1.96519 -5.13479 0
M  V30 24097 H 2301 -2.35744 -6.36869 0
M  V30 24098 H 2298.94 -0.121495 -6.55887 0
M  V30 24099 H 2298.86 -1.64629 -7.37857 0
M  V30 24100 H 2300.13 -0.525932 -7.77724 0
M  V30 24101 N 2304.36 1.32719 -0.8499 0
M  V30 24102 C 2305.59 2.01612 -0.464789 0
M  V30 24103 C 2306 1.63898 0.937163 0
M  V30 24104 O 2305.36 0.857885 1.61079 0
M  V30 24105 C 2305.41 3.56674 -0.588701 0
M  V30 24106 O 2305.13 3.93031 -1.93542 0
M  V30 24107 C 2306.63 4.4284 -0.201977 0
M  V30 24108 H 2303.85 0.645499 -0.183227 0
M  V30 24109 H 2306.39 1.69405 -1.14553 0
M  V30 24110 H 2304.55 3.87375 0.0442478 0
M  V30 24111 H 2304.96 4.87747 -1.9288 0
M  V30 24112 H 2306.44 5.50954 -0.339696 0
M  V30 24113 H 2306.91 4.30755 0.857149 0
M  V30 24114 H 2307.52 4.17519 -0.809806 0
M  V30 24115 N 2305.84 0.60738 1.45426 0
M  V30 24116 C 2306.75 -0.113422 2.34326 0
M  V30 24117 C 2307.76 -0.860591 1.51228 0
M  V30 24118 O 2308.94 -0.818223 1.8403 0
M  V30 24119 C 2306 -1.09838 3.28841 0
M  V30 24120 C 2305.06 -0.353196 4.27845 0
M  V30 24121 C 2304.3 -1.29124 5.17844 0
M  V30 24122 O 2304.52 -2.52904 5.11269 0
M  V30 24123 O 2303.45 -0.788418 5.96714 0
M  V30 24124 H 2307.28 0.617146 2.97363 0
M  V30 24125 H 2304.87 0.367644 1.44806 0
M  V30 24126 H 2306.75 -1.66568 3.87083 0
M  V30 24127 H 2305.42 -1.80998 2.68368 0
M  V30 24128 H 2304.33 0.25656 3.73219 0
M  V30 24129 H 2305.66 0.317909 4.91172 0
M  V30 24130 N 2307.31 -1.53743 0.34653 0
M  V30 24131 C 2308.54 -2.05082 -0.250011 0
M  V30 24132 C 2308.95 -1.22101 -1.44527 0
M  V30 24133 O 2308.3 -0.249949 -1.81992 0
M  V30 24134 C 2308.36 -3.52096 -0.725872 0
M  V30 24135 C 2308.02 -4.55657 0.350133 0
M  V30 24136 C 2309.02 -5.06008 1.19381 0
M  V30 24137 C 2306.7 -4.99756 0.504915 0
M  V30 24138 C 2308.7 -5.99042 2.17779 0
M  V30 24139 C 2306.38 -5.92599 1.49228 0
M  V30 24140 C 2307.38 -6.42131 2.32717 0
M  V30 24141 O 2307.07 -7.33148 3.29772 0
M  V30 24142 H 2306.8 -0.674033 -0.0515351 0
M  V30 24143 H 2309.36 -1.99282 0.497594 0
M  V30 24144 H 2307.59 -3.5537 -1.52477 0
M  V30 24145 H 2309.28 -3.8639 -1.24329 0
M  V30 24146 H 2310.04 -4.727 1.08533 0
M  V30 24147 H 2305.92 -4.60802 -0.135097 0
M  V30 24148 H 2309.46 -6.37626 2.82982 0
M  V30 24149 H 2305.36 -6.25323 1.60131 0
M  V30 24150 H 2306.13 -7.5109 3.25279 0
M  V30 24151 N 2308.79 -0.0752207 -1.5742 0
M  V30 24152 C 2310.04 0.59194 -1.93237 0
M  V30 24153 C 2310.36 1.69943 -0.956271 0
M  V30 24154 O 2309.63 1.95899 -0.00498235 0
M  V30 24155 H 2308.21 0.221648 -0.713359 0
M  V30 24156 H 2310.87 -0.133882 -1.9444 0
M  V30 24157 H 2309.97 1.01504 -2.95133 0
M  V30 24158 N 2310.27 1.56347 0.198358 0
M  V30 24159 C 2311.18 1.97485 1.26637 0
M  V30 24160 C 2312.2 0.882028 1.49988 0
M  V30 24161 O 2313.37 1.18751 1.62666 0
M  V30 24162 C 2310.44 2.30324 2.59137 0
M  V30 24163 C 2309.5 3.53296 2.43886 0
M  V30 24164 C 2308.73 3.84559 3.70067 0
M  V30 24165 O 2308.95 3.17159 4.74096 0
M  V30 24166 O 2307.89 4.77996 3.65792 0
M  V30 24167 H 2311.71 2.88549 0.947253 0
M  V30 24168 H 2309.3 1.43859 0.403098 0
M  V30 24169 H 2311.18 2.52536 3.37348 0
M  V30 24170 H 2309.86 1.42428 2.90682 0
M  V30 24171 H 2308.76 3.36335 1.63797 0
M  V30 24172 H 2310.1 4.41648 2.17274 0
M  V30 24173 N 2311.75 -0.465951 1.50554 0
M  V30 24174 C 2313 -1.21765 1.61801 0
M  V30 24175 C 2313.32 -1.91837 0.320729 0
M  V30 24176 O 2312.58 -1.82993 -0.693692 0
M  V30 24177 C 2312.88 -2.28088 2.75156 0
M  V30 24178 C 2312.54 -1.75232 4.15457 0
M  V30 24179 C 2311.21 -1.60538 4.53631 0
M  V30 24180 C 2313.56 -1.36075 5.03123 0
M  V30 24181 C 2310.89 -1.05118 5.77206 0
M  V30 24182 C 2313.24 -0.820946 6.27251 0
M  V30 24183 C 2311.9 -0.660678 6.64222 0
M  V30 24184 H 2311.17 -0.445571 0.59207 0
M  V30 24185 H 2313.82 -0.512895 1.84504 0
M  V30 24186 H 2312.12 -3.04491 2.46561 0
M  V30 24187 H 2313.82 -2.86018 2.8106 0
M  V30 24188 H 2310.41 -1.87637 3.85344 0
M  V30 24189 H 2314.59 -1.46259 4.74259 0
M  V30 24190 H 2309.85 -0.914513 6.04522 0
M  V30 24191 H 2314.02 -0.508895 6.94538 0
M  V30 24192 H 2311.65 -0.229092 7.59855 0
M  V30 24193 N 2313.23 -1.40218 -0.719481 0
M  V30 24194 C 2314.45 -1.41592 -1.50862 0
M  V30 24195 C 2314.87 -0.0145607 -1.88794 0
M  V30 24196 O 2314.23 0.960566 -1.55175 0
M  V30 24197 C 2314.28 -2.30307 -2.78641 0
M  V30 24198 O 2314 -3.64987 -2.42314 0
M  V30 24199 C 2315.5 -2.4023 -3.72564 0
M  V30 24200 H 2312.72 -0.483078 -0.4657 0
M  V30 24201 H 2315.26 -1.84223 -0.887817 0
M  V30 24202 H 2313.42 -1.91048 -3.37015 0
M  V30 24203 H 2313.83 -4.12062 -3.24507 0
M  V30 24204 H 2315.31 -3.0652 -4.59074 0
M  V30 24205 H 2315.78 -1.42616 -4.154 0
M  V30 24206 H 2316.39 -2.80024 -3.20104 0
M  V30 24207 N 2314.7 0.951297 -1.25651 0
M  V30 24208 C 2315.64 2.04805 -1.00648 0
M  V30 24209 C 2316.62 1.62468 0.0653986 0
M  V30 24210 O 2317.8 1.88351 -0.0749441 0
M  V30 24211 C 2314.93 3.34652 -0.522111 0
M  V30 24212 C 2313.97 3.95954 -1.58502 0
M  V30 24213 S 2314.81 4.31507 -3.17115 0
M  V30 24214 C 2315.96 5.64467 -2.70422 0
M  V30 24215 H 2316.19 2.25699 -1.93512 0
M  V30 24216 H 2313.73 1.09137 -1.09218 0
M  V30 24217 H 2315.69 4.09742 -0.249302 0
M  V30 24218 H 2314.35 3.11718 0.386091 0
M  V30 24219 H 2313.54 4.89582 -1.19689 0
M  V30 24220 H 2313.14 3.27357 -1.80868 0
M  V30 24221 H 2315.43 6.42729 -2.14256 0
M  V30 24222 H 2316.38 6.08154 -3.62704 0
M  V30 24223 H 2316.78 5.2386 -2.10311 0
M  V30 24224 N 2316.18 1.07291 1.1544 0
M  V30 24225 C 2317.11 0.714146 2.22311 0
M  V30 24226 C 2318.09 -0.298126 1.67467 0
M  V30 24227 O 2319.28 -0.171014 1.93446 0
M  V30 24228 C 2316.41 0.110509 3.47124 0
M  V30 24229 C 2315.36 1.04987 4.14924 0
M  V30 24230 C 2314.69 0.309018 5.33806 0
M  V30 24231 C 2315.99 2.38322 4.64758 0
M  V30 24232 H 2317.68 1.60765 2.52577 0
M  V30 24233 H 2315.23 0.774431 1.21402 0
M  V30 24234 H 2317.18 -0.152408 4.21124 0
M  V30 24235 H 2315.91 -0.818065 3.16189 0
M  V30 24236 H 2314.56 1.2977 3.42864 0
M  V30 24237 H 2314.21 -0.622997 4.99127 0
M  V30 24238 H 2313.91 0.935138 5.80111 0
M  V30 24239 H 2315.44 0.0538844 6.10576 0
M  V30 24240 H 2316.85 2.17869 5.30289 0
M  V30 24241 H 2315.25 2.96523 5.21722 0
M  V30 24242 H 2316.32 3.00669 3.80429 0
M  V30 24243 N 2317.66 -1.32267 0.856927 0
M  V30 24244 C 2318.91 -1.96783 0.460509 0
M  V30 24245 C 2319.23 -1.68137 -0.987672 0
M  V30 24246 O 2318.5 -0.989795 -1.69056 0
M  V30 24247 H 2317.08 -0.728024 0.167302 0
M  V30 24248 H 2319.74 -1.6131 1.09385 0
M  V30 24249 H 2318.84 -3.06132 0.607443 0
M  V30 24250 N 2319.14 -0.615084 -1.45102 0
M  V30 24251 C 2320.39 -0.110753 -2.01396 0
M  V30 24252 C 2320.7 1.26914 -1.48836 0
M  V30 24253 O 2321.91 1.86661 -1.97155 0
M  V30 24254 C 2320.36 -0.147293 -3.59598 0
M  V30 24255 C 2319.97 -1.5275 -4.21155 0
M  V30 24256 C 2321.71 0.301406 -4.23429 0
M  V30 24257 C 2319.62 -1.52002 -5.71533 0
M  V30 24258 H 2318.55 -0.0376373 -0.75306 0
M  V30 24259 H 2321.2 -0.77152 -1.66493 0
M  V30 24260 H 2319.58 0.58027 -3.91725 0
M  V30 24261 H 2320.76 -2.27737 -4.0059 0
M  V30 24262 H 2319.07 -1.91892 -3.69549 0
M  V30 24263 H 2321.67 0.326298 -5.33703 0
M  V30 24264 H 2322.01 1.32558 -3.94631 0
M  V30 24265 H 2322.55 -0.373134 -3.96046 0
M  V30 24266 H 2319.29 -2.52204 -6.0504 0
M  V30 24267 H 2318.81 -0.812845 -5.94267 0
M  V30 24268 H 2320.48 -1.24693 -6.34871 0
M  V30 24269 N 2320.62 1.53557 -0.354678 0
M  V30 24270 C 2321.85 2.05211 0.239131 0
M  V30 24271 C 2322.26 1.22866 1.43877 0
M  V30 24272 O 2321.6 0.259597 1.81856 0
M  V30 24273 C 2321.66 3.52476 0.70719 0
M  V30 24274 C 2321.32 4.55465 -0.374293 0
M  V30 24275 C 2322.32 5.05368 -1.22063 0
M  V30 24276 C 2320.01 4.99481 -0.531411 0
M  V30 24277 C 2322 5.97878 -2.20953 0
M  V30 24278 C 2319.69 5.918 -1.52369 0
M  V30 24279 C 2320.69 6.40888 -2.36119 0
M  V30 24280 O 2320.37 7.31388 -3.33656 0
M  V30 24281 H 2320.11 0.674297 0.0479598 0
M  V30 24282 H 2322.66 1.99015 -0.508156 0
M  V30 24283 H 2320.89 3.56173 1.5059 0
M  V30 24284 H 2322.58 3.87044 1.22278 0
M  V30 24285 H 2323.34 4.72118 -1.11038 0
M  V30 24286 H 2319.22 4.60867 0.110657 0
M  V30 24287 H 2322.77 6.36116 -2.86359 0
M  V30 24288 H 2318.66 6.24465 -1.63445 0
M  V30 24289 H 2319.43 7.49354 -3.29257 0
M  V30 24290 N 2322.1 0.083568 1.57378 0
M  V30 24291 C 2323.37 -0.624475 1.85364 0
M  V30 24292 C 2323.75 -1.87064 0.978272 0
M  V30 24293 O 2323.1 -2.2845 0.047631 0
M  V30 24294 C 2323.31 -0.950888 3.35796 0
M  V30 24295 C 2324.66 -1.31931 4.03583 0
M  V30 24296 O 2325.68 -1.04226 3.4061 0
M  V30 24297 O 2324.54 -1.8377 5.14676 0
M  V30 24298 H 2321.64 -0.311315 0.766167 0
M  V30 24299 H 2324.18 0.115392 1.69307 0
M  V30 24300 H 2322.95 -0.0663212 3.91244 0
M  V30 24301 H 2322.58 -1.74712 3.57157 0
M  V30 24302 N 2323.57 -1.5645 -0.190064 0
M  V30 24303 C 2324.99 -1.50147 -0.541104 0
M  V30 24304 C 2325.19 -0.784498 -1.85601 0
M  V30 24305 O 2324.25 -0.337095 -2.5024 0
M  V30 24306 C 2325.56 -2.94831 -0.591189 0
M  V30 24307 C 2327.11 -3.05531 -0.679678 0
M  V30 24308 C 2327.58 -4.51636 -0.760828 0
M  V30 24309 N 2329.07 -4.55808 -0.824222 0
M  V30 24310 C 2329.81 -5.66177 -0.907266 0
M  V30 24311 N 2329.3 -6.86224 -0.952301 0
M  V30 24312 N 2331.1 -5.54102 -0.944843 0
M  V30 24313 H 2323.25 -2.01476 0.672385 0
M  V30 24314 H 2325.51 -0.91708 0.240144 0
M  V30 24315 H 2325.22 -3.50367 0.305967 0
M  V30 24316 H 2325.09 -3.48459 -1.44416 0
M  V30 24317 H 2327.48 -2.50042 -1.56726 0
M  V30 24318 H 2327.56 -2.5502 0.199594 0
M  V30 24319 H 2327.2 -5.07752 0.122425 0
M  V30 24320 H 2327.13 -4.99885 -1.65597 0
M  V30 24321 H 2329.62 -3.69368 -0.798461 0
M  V30 24322 H 2329.94 -7.66088 -1.01632 0
M  V30 24323 H 2328.28 -6.88872 -0.920893 0
M  V30 24324 H 2331.47 -4.59238 -0.906532 0
M  V30 24325 H 2331.65 -6.40142 -1.0061 0
M  V30 24326 N 2325.05 0.45796 -1.50799 0
M  V30 24327 C 2326.3 1.20789 -1.63651 0
M  V30 24328 C 2326.65 1.89395 -0.338695 0
M  V30 24329 O 2325.95 1.79717 0.66426 0
M  V30 24330 C 2326.14 2.26625 -2.76362 0
M  V30 24331 C 2325.97 1.68404 -4.16977 0
M  V30 24332 C 2324.74 1.47799 -4.83201 0
M  V30 24333 C 2326.94 1.17167 -5.00776 0
M  V30 24334 N 2324.92 0.849585 -6.07993 0
M  V30 24335 C 2326.29 0.667295 -6.16399 0
M  V30 24336 C 2328.34 1.06146 -4.86454 0
M  V30 24337 C 2327.05 0.0635644 -7.19272 0
M  V30 24338 C 2329.07 0.471655 -5.89516 0
M  V30 24339 C 2328.44 -0.0222795 -7.04396 0
M  V30 24340 H 2324.53 0.430409 -0.652895 0
M  V30 24341 H 2327.12 0.507752 -1.87963 0
M  V30 24342 H 2325.29 2.94051 -2.53749 0
M  V30 24343 H 2327.02 2.93631 -2.78501 0
M  V30 24344 H 2323.78 1.73395 -4.40717 0
M  V30 24345 H 2324.2 0.553419 -6.74734 0
M  V30 24346 H 2328.84 1.42925 -3.9791 0
M  V30 24347 H 2326.56 -0.316395 -8.0748 0
M  V30 24348 H 2330.15 0.388569 -5.80501 0
M  V30 24349 H 2329.03 -0.471513 -7.82781 0
M  V30 24350 N 2326.53 1.40598 0.712035 0
M  V30 24351 C 2327.49 1.40891 1.80783 0
M  V30 24352 C 2328.49 0.30213 1.57936 0
M  V30 24353 O 2329.68 0.561211 1.64912 0
M  V30 24354 C 2326.81 1.20414 3.18925 0
M  V30 24355 H 2328.01 2.38422 1.8192 0
M  V30 24356 H 2325.56 1.26499 0.918028 0
M  V30 24357 H 2326.3 0.236579 3.23436 0
M  V30 24358 H 2326.08 2.00588 3.36908 0
M  V30 24359 H 2327.57 1.23415 3.98947 0
M  V30 24360 N 2328.01 -0.94462 1.26153 0
M  V30 24361 C 2329.25 -1.69292 1.1166 0
M  V30 24362 C 2329.59 -1.91202 -0.339893 0
M  V30 24363 O 2328.86 -1.49021 -1.24992 0
M  V30 24364 C 2329.14 -3.06981 1.88242 0
M  V30 24365 C 2329 -2.92418 3.41777 0
M  V30 24366 C 2330.32 -4.0704 1.6735 0
M  V30 24367 H 2327.44 -0.614417 0.407015 0
M  V30 24368 H 2330.08 -1.09735 1.55108 0
M  V30 24369 H 2328.23 -3.57821 1.51315 0
M  V30 24370 H 2329.9 -2.48825 3.88438 0
M  V30 24371 H 2328.14 -2.28118 3.68978 0
M  V30 24372 H 2328.81 -3.9006 3.90586 0
M  V30 24373 H 2331.29 -3.65148 1.99515 0
M  V30 24374 H 2330.17 -5.01402 2.23354 0
M  V30 24375 H 2330.43 -4.3777 0.617235 0
M  V30 24376 N 2329.49 -1.07901 -1.1487 0
M  V30 24377 C 2330.42 -0.725926 -2.21929 0
M  V30 24378 C 2331.4 0.289241 -1.67623 0
M  V30 24379 O 2332.58 0.160753 -1.93534 0
M  V30 24380 C 2329.71 -0.128917 -3.47061 0
M  V30 24381 C 2328.67 -1.07186 -4.14361 0
M  V30 24382 C 2327.99 -0.337322 -5.33635 0
M  V30 24383 C 2329.29 -2.40783 -4.63488 0
M  V30 24384 H 2330.99 -1.62102 -2.51721 0
M  V30 24385 H 2328.53 -0.780859 -1.2099 0
M  V30 24386 H 2330.48 0.130073 -4.21199 0
M  V30 24387 H 2329.21 0.801285 -3.16618 0
M  V30 24388 H 2327.87 -1.31586 -3.42171 0
M  V30 24389 H 2327.52 0.596518 -4.9945 0
M  V30 24390 H 2327.22 -0.96589 -5.79607 0
M  V30 24391 H 2328.74 -0.086264 -6.10539 0
M  V30 24392 H 2330.15 -2.20678 -5.29126 0
M  V30 24393 H 2328.55 -2.99285 -5.20143 0
M  V30 24394 H 2329.62 -3.02683 -3.78829 0
M  V30 24395 N 2330.96 1.31811 -0.863929 0
M  V30 24396 C 2332.37 1.79159 -0.525252 0
M  V30 24397 C 2332.73 1.7125 0.957488 0
M  V30 24398 O 2331.85 1.27662 1.74732 0
M  V30 24399 C 2332.45 3.25306 -0.946657 0
M  V30 24400 C 2331 3.70573 -0.659733 0
M  V30 24401 C 2330.15 2.52724 -1.14131 0
M  V30 24402 H 2333.1 1.18978 -1.05024 0
M  V30 24403 H 2333.12 3.79563 -0.266833 0
M  V30 24404 H 2332.64 3.3103 -2.02585 0
M  V30 24405 H 2330.74 3.70356 0.40835 0
M  V30 24406 H 2330.85 4.62975 -1.23253 0
M  V30 24407 H 2329.21 2.48439 -0.561259 0
M  V30 24408 H 2330 2.61198 -2.2278 0
M  V30 24409 N 2332.44 0.62277 1.44773 0
M  V30 24410 C 2333.86 0.287679 1.56986 0
M  V30 24411 C 2334.06 -1.20942 1.61169 0
M  V30 24412 O 2333.11 -1.99312 1.55019 0
M  V30 24413 C 2334.43 0.972238 2.84549 0
M  V30 24414 C 2335.97 0.949588 2.98248 0
M  V30 24415 C 2336.45 1.61445 4.28602 0
M  V30 24416 N 2337.94 1.58065 4.35396 0
M  V30 24417 C 2338.68 2.0641 5.3496 0
M  V30 24418 N 2338.17 2.62908 6.40977 0
M  V30 24419 N 2339.96 1.97088 5.26415 0
M  V30 24420 H 2332.12 1.59465 1.40302 0
M  V30 24421 H 2334.38 0.66889 0.671782 0
M  V30 24422 H 2334.08 2.02698 2.87413 0
M  V30 24423 H 2333.96 0.504837 3.73806 0
M  V30 24424 H 2336.35 -0.0966549 2.94942 0
M  V30 24425 H 2336.43 1.4554 2.10361 0
M  V30 24426 H 2336.07 2.6601 4.32667 0
M  V30 24427 H 2336 1.08354 5.15332 0
M  V30 24428 H 2338.49 1.16807 3.59395 0
M  V30 24429 H 2338.8 2.97552 7.1322 0
M  V30 24430 H 2337.15 2.66955 6.41685 0
M  V30 24431 H 2340.34 1.52677 4.42501 0
M  V30 24432 H 2340.51 2.35076 6.03857 0
M  V30 24433 N 2333.92 -1.53367 0.362817 0
M  V30 24434 C 2334.87 -2.2242 -0.501352 0
M  V30 24435 C 2335.85 -1.21842 -1.05088 0
M  V30 24436 O 2337.05 -1.47302 -0.981378 0
M  V30 24437 C 2334.17 -3.01487 -1.64196 0
M  V30 24438 C 2333.26 -4.09439 -1.10545 0
M  V30 24439 N 2333.65 -5.04958 -0.291699 0
M  V30 24440 C 2331.95 -4.24096 -1.38052 0
M  V30 24441 C 2332.65 -5.817 0.0017288 0
M  V30 24442 N 2331.63 -5.40332 -0.595149 0
M  V30 24443 H 2335.43 -2.93625 0.127211 0
M  V30 24444 H 2332.94 -1.61501 0.170687 0
M  V30 24445 H 2334.94 -3.49473 -2.2732 0
M  V30 24446 H 2333.6 -2.31813 -2.27361 0
M  V30 24447 H 2334.61 -5.17854 0.0688642 0
M  V30 24448 H 2331.29 -3.65647 -2.01515 0
M  V30 24449 H 2332.68 -6.68657 0.659396 0
M  V30 24450 N 2335.4 -0.091913 -1.57332 0
M  V30 24451 C 2336.36 0.853653 -2.1271 0
M  V30 24452 C 2337.36 1.21298 -1.05563 0
M  V30 24453 O 2338.55 1.14294 -1.31463 0
M  V30 24454 C 2335.68 2.15056 -2.64506 0
M  V30 24455 H 2336.88 0.372848 -2.97573 0
M  V30 24456 H 2334.43 0.157045 -1.55509 0
M  V30 24457 H 2335.16 2.67629 -1.83154 0
M  V30 24458 H 2334.95 1.90266 -3.42843 0
M  V30 24459 H 2336.44 2.82705 -3.07356 0
M  V30 24460 N 2336.88 1.56548 0.181765 0
M  V30 24461 C 2337.82 1.95597 1.22518 0
M  V30 24462 C 2338.79 0.818398 1.44539 0
M  V30 24463 O 2339.98 1.07766 1.57452 0
M  V30 24464 C 2337.12 2.31216 2.56189 0
M  V30 24465 C 2336.23 3.58101 2.41635 0
M  V30 24466 C 2335.37 3.82981 3.68102 0
M  V30 24467 C 2334.41 5.03248 3.48436 0
M  V30 24468 N 2333.54 5.24314 4.66947 0
M  V30 24469 H 2338.38 2.8455 0.885176 0
M  V30 24470 H 2335.92 1.40806 0.425694 0
M  V30 24471 H 2337.88 2.49888 3.34084 0
M  V30 24472 H 2336.51 1.45387 2.88206 0
M  V30 24473 H 2335.56 3.47403 1.5497 0
M  V30 24474 H 2336.87 4.46153 2.23045 0
M  V30 24475 H 2336.03 4.01964 4.54434 0
M  V30 24476 H 2334.76 2.93285 3.8966 0
M  V30 24477 H 2333.77 4.84175 2.6049 0
M  V30 24478 H 2334.99 5.94466 3.2831 0
M  V30 24479 H 2332.94 4.37567 4.88744 0
M  V30 24480 H 2332.86 6.06569 4.51231 0
M  V30 24481 H 2334.13 5.47766 5.54592 0
M  V30 24482 N 2338.35 -0.449957 1.5104 0
M  V30 24483 C 2339.77 -1.03023 1.55702 0
M  V30 24484 C 2340.12 -1.92622 0.372973 0
M  V30 24485 O 2339.24 -2.10262 -0.511734 0
M  V30 24486 C 2339.84 -1.87518 2.82174 0
M  V30 24487 C 2338.4 -2.40617 2.89449 0
M  V30 24488 C 2337.54 -1.195 2.5023 0
M  V30 24489 H 2340.49 -0.231718 1.56999 0
M  V30 24490 H 2340.51 -2.7283 2.65224 0
M  V30 24491 H 2340.03 -1.2228 3.68333 0
M  V30 24492 H 2338.13 -3.09347 2.07691 0
M  V30 24493 H 2338.24 -2.74278 3.92821 0
M  V30 24494 H 2336.6 -1.5364 2.03142 0
M  V30 24495 H 2337.39 -0.558913 3.3872 0
M  V30 24496 N 2339.83 -1.40974 -0.704569 0
M  V30 24497 C 2341.08 -1.3957 -1.46166 0
M  V30 24498 C 2341.4 -0.00257172 -1.95 0
M  V30 24499 O 2340.67 0.954084 -1.71097 0
M  V30 24500 H 2339.25 -0.513713 -0.542317 0
M  V30 24501 H 2341.91 -1.7613 -0.834522 0
M  V30 24502 H 2341.01 -2.07739 -2.32919 0
M  V30 24503 N 2341.31 0.937917 -1.26653 0
M  V30 24504 C 2342.72 1.49932 -1.11253 0
M  V30 24505 C 2343.07 1.93798 0.306043 0
M  V30 24506 O 2342.2 1.80221 1.19789 0
M  V30 24507 C 2342.79 2.72482 -2.01343 0
M  V30 24508 C 2341.35 3.24879 -1.9008 0
M  V30 24509 C 2340.5 1.97648 -1.94501 0
M  V30 24510 H 2343.45 0.753067 -1.39695 0
M  V30 24511 H 2343.47 3.46905 -1.56325 0
M  V30 24512 H 2342.98 2.40524 -3.04581 0
M  V30 24513 H 2341.08 3.6162 -0.89789 0
M  V30 24514 H 2341.2 3.91765 -2.75785 0
M  V30 24515 H 2339.56 2.1369 -1.38595 0
M  V30 24516 H 2340.34 1.68017 -2.99375 0
M  V30 24517 N 2342.79 1.08509 1.14296 0
M  V30 24518 C 2344.02 0.836909 1.89218 0
M  V30 24519 C 2344.43 -0.611022 1.78639 0
M  V30 24520 O 2343.79 -1.41996 1.14645 0
M  V30 24521 C 2343.84 1.25122 3.39156 0
M  V30 24522 O 2343.56 2.64235 3.49444 0
M  V30 24523 C 2345.06 1.03405 4.31071 0
M  V30 24524 H 2342.28 0.30175 0.599323 0
M  V30 24525 H 2344.83 1.44463 1.44743 0
M  V30 24526 H 2342.98 0.687581 3.81249 0
M  V30 24527 H 2343.39 2.81459 4.42584 0
M  V30 24528 H 2344.87 1.37332 5.34644 0
M  V30 24529 H 2345.35 -0.0288487 4.39191 0
M  V30 24530 H 2345.95 1.58318 3.94735 0
M  V30 24531 N 2344.27 -1.31351 0.870907 0
M  V30 24532 C 2345.52 -1.95943 0.478443 0
M  V30 24533 C 2345.83 -1.69598 -0.974463 0
M  V30 24534 O 2347.03 -2.2806 -1.47312 0
M  V30 24535 C 2345.49 -3.50789 0.804671 0
M  V30 24536 C 2345.1 -3.85973 2.2744 0
M  V30 24537 C 2346.84 -4.21769 0.480722 0
M  V30 24538 C 2344.75 -5.33934 2.54299 0
M  V30 24539 H 2343.68 -0.733366 0.175188 0
M  V30 24540 H 2346.33 -1.49508 1.06394 0
M  V30 24541 H 2344.71 -3.95722 0.148417 0
M  V30 24542 H 2345.89 -3.51997 2.9738 0
M  V30 24543 H 2344.2 -3.2806 2.56448 0
M  V30 24544 H 2346.8 -5.30628 0.658612 0
M  V30 24545 H 2347.14 -4.12255 -0.578907 0
M  V30 24546 H 2347.67 -3.82474 1.09356 0
M  V30 24547 H 2344.41 -5.48485 3.58949 0
M  V30 24548 H 2343.93 -5.69259 1.88955 0
M  V30 24549 H 2345.61 -6.01208 2.39077 0
M  V30 24550 N 2345.74 -0.630439 -1.44441 0
M  V30 24551 C 2346.67 0.0617672 -2.33418 0
M  V30 24552 C 2347.66 0.835515 -1.48166 0
M  V30 24553 O 2348.84 0.801533 -1.76887 0
M  V30 24554 C 2345.97 1.04443 -3.31223 0
M  V30 24555 C 2344.92 0.382361 -4.26289 0
M  V30 24556 C 2344.25 1.47488 -5.13957 0
M  V30 24557 C 2345.55 -0.710956 -5.17439 0
M  V30 24558 H 2347.24 -0.681236 -2.91547 0
M  V30 24559 H 2344.79 -0.329051 -1.4019 0
M  V30 24560 H 2346.74 1.53742 -3.92354 0
M  V30 24561 H 2345.47 1.81831 -2.71302 0
M  V30 24562 H 2344.13 -0.0899698 -3.6649 0
M  V30 24563 H 2343.77 2.23962 -4.50389 0
M  V30 24564 H 2343.47 1.03727 -5.78372 0
M  V30 24565 H 2345 1.96968 -5.77958 0
M  V30 24566 H 2346.41 -0.301097 -5.72509 0
M  V30 24567 H 2344.81 -1.07166 -5.90454 0
M  V30 24568 H 2345.88 -1.57837 -4.58493 0
M  V30 24569 N 2347.22 1.53172 -0.370945 0
M  V30 24570 C 2348.16 2.22274 0.516688 0
M  V30 24571 C 2349.13 1.21663 1.07874 0
M  V30 24572 O 2350.32 1.50585 1.13386 0
M  V30 24573 C 2347.44 2.92164 1.71341 0
M  V30 24574 C 2346.49 4.06893 1.27831 0
M  V30 24575 S 2347.32 5.34793 0.275123 0
M  V30 24576 C 2348.48 6.08198 1.47805 0
M  V30 24577 H 2348.71 2.97217 -0.0701577 0
M  V30 24578 H 2346.25 1.53619 -0.155065 0
M  V30 24579 H 2348.2 3.33045 2.39982 0
M  V30 24580 H 2346.86 2.16935 2.27152 0
M  V30 24581 H 2346.06 4.54829 2.17133 0
M  V30 24582 H 2345.66 3.67931 0.671041 0
M  V30 24583 H 2347.95 6.33255 2.4082 0
M  V30 24584 H 2348.89 7.00422 1.03996 0
M  V30 24585 H 2349.3 5.38717 1.68654 0
M  V30 24586 N 2348.7 0.100255 1.57281 0
M  V30 24587 C 2349.65 -0.87429 2.15543 0
M  V30 24588 C 2350.64 -1.28857 1.09964 0
M  V30 24589 O 2351.85 -1.2625 1.283 0
M  V30 24590 H 2348.22 -0.299991 0.689572 0
M  V30 24591 H 2350.19 -0.358238 2.96242 0
M  V30 24592 C 2348.94 -2.12175 2.75458 0
M  V30 24593 H 2348.27 -1.81186 3.56387 0
M  V30 24594 H 2349.71 -2.78412 3.19786 0
M  V30 24595 C 2348.17 -2.89918 1.71607 0
M  V30 24596 O 2348.7 -3.84644 1.15811 0
M  V30 24597 N 2346.9 -2.53555 1.41979 0
M  V30 24598 H 2346.45 -1.76595 1.87542 0
M  V30 24599 H 2346.41 -3.05871 0.727328 0
M  V30 24600 N 2350.18 -1.56643 -0.17346 0
M  V30 24601 C 2351.46 -1.72742 -0.917586 0
M  V30 24602 C 2351.84 -0.661062 -2.00482 0
M  V30 24603 O 2351.18 0.32449 -2.26184 0
M  V30 24604 C 2351.39 -3.15864 -1.48428 0
M  V30 24605 C 2352.74 -3.76758 -1.95803 0
M  V30 24606 O 2353.77 -3.19129 -1.58226 0
M  V30 24607 O 2352.63 -4.77942 -2.65016 0
M  V30 24608 H 2349.72 -0.705346 -0.431759 0
M  V30 24609 H 2352.27 -1.6893 -0.161457 0
M  V30 24610 H 2351.04 -3.84958 -0.701647 0
M  V30 24611 H 2350.66 -3.23993 -2.30465 0
M  V30 24612 N 2351.66 0.44194 -1.51277 0
M  V30 24613 C 2352.59 1.5543 -1.68446 0
M  V30 24614 C 2353.6 1.52673 -0.565214 0
M  V30 24615 O 2354.79 1.57533 -0.839383 0
M  V30 24616 C 2351.89 2.94345 -1.67971 0
M  V30 24617 C 2351.06 3.21656 -2.96405 0
M  V30 24618 C 2350.12 4.40272 -2.88179 0
M  V30 24619 O 2349.15 4.39151 -3.62126 0
M  V30 24620 N 2350.35 5.43581 -2.03716 0
M  V30 24621 H 2353.12 1.41108 -2.64403 0
M  V30 24622 H 2350.68 0.630812 -1.49105 0
M  V30 24623 H 2352.67 3.71711 -1.60042 0
M  V30 24624 H 2351.24 3.02288 -0.796278 0
M  V30 24625 H 2350.46 2.32633 -3.18238 0
M  V30 24626 H 2351.75 3.36729 -3.81433 0
M  V30 24627 H 2351.15 5.47326 -1.43005 0
M  V30 24628 H 2349.7 6.19817 -2.01669 0
M  V30 24629 N 2353.14 1.41345 0.697083 0
M  V30 24630 C 2354.05 1.4543 1.84085 0
M  V30 24631 C 2355.06 0.34504 1.70545 0
M  V30 24632 O 2356.24 0.592526 1.92487 0
M  V30 24633 C 2353.3 1.33292 3.20053 0
M  V30 24634 C 2352.36 2.5452 3.45713 0
M  V30 24635 C 2351.6 2.42952 4.75195 0
M  V30 24636 O 2351.82 1.45328 5.51576 0
M  V30 24637 O 2350.75 3.32681 5.01604 0
M  V30 24638 H 2354.58 2.41922 1.83595 0
M  V30 24639 H 2352.16 1.22867 0.849945 0
M  V30 24640 H 2354.05 1.28801 4.01233 0
M  V30 24641 H 2352.72 0.399146 3.2123 0
M  V30 24642 H 2351.63 2.64588 2.64469 0
M  V30 24643 H 2352.96 3.46721 3.4935 0
M  V30 24644 N 2354.61 -0.931187 1.27148 0
M  V30 24645 C 2355.86 -1.68099 1.13449 0
M  V30 24646 C 2356.19 -1.91552 -0.319594 0
M  V30 24647 O 2355.47 -1.50338 -1.23404 0
M  V30 24648 C 2355.75 -3.04967 1.91487 0
M  V30 24649 C 2355.6 -2.88776 3.4486 0
M  V30 24650 C 2356.92 -4.05243 1.71658 0
M  V30 24651 H 2354.04 -0.610065 0.413509 0
M  V30 24652 H 2356.68 -1.08083 1.56263 0
M  V30 24653 H 2354.83 -3.56196 1.55101 0
M  V30 24654 H 2356.51 -2.44691 3.91055 0
M  V30 24655 H 2354.75 -2.24191 3.71377 0
M  V30 24656 H 2355.42 -3.85895 3.94701 0
M  V30 24657 H 2357.9 -3.63011 2.03377 0
M  V30 24658 H 2356.77 -4.99005 2.2866 0
M  V30 24659 H 2357.03 -4.37091 0.663631 0
M  V30 24660 N 2356.09 -1.09114 -1.13719 0
M  V30 24661 C 2357.34 -0.823594 -1.84557 0
M  V30 24662 C 2357.66 0.652625 -1.83755 0
M  V30 24663 O 2356.93 1.47339 -1.29104 0
M  V30 24664 H 2355.51 -0.301685 -0.68337 0
M  V30 24665 H 2358.17 -1.37861 -1.37769 0
M  V30 24666 H 2357.27 -1.17425 -2.89168 0
M  V30 24667 N 2357.57 1.30887 -0.877861 0
M  V30 24668 C 2358.82 1.96705 -0.49346 0
M  V30 24669 C 2359.15 1.69182 0.953474 0
M  V30 24670 O 2358.42 0.992624 1.67264 0
M  V30 24671 C 2358.71 3.51978 -0.760491 0
M  V30 24672 C 2358.56 3.89044 -2.25753 0
M  V30 24673 C 2359.88 4.39487 -0.232226 0
M  V30 24674 H 2357 0.714489 -0.180759 0
M  V30 24675 H 2359.64 1.5488 -1.10055 0
M  V30 24676 H 2357.79 3.87734 -0.243783 0
M  V30 24677 H 2359.46 3.63349 -2.8421 0
M  V30 24678 H 2357.7 3.37368 -2.727 0
M  V30 24679 H 2358.38 4.97337 -2.395 0
M  V30 24680 H 2360.85 4.10599 -0.674386 0
M  V30 24681 H 2359.73 5.47065 -0.448451 0
M  V30 24682 H 2359.99 4.33531 0.86622 0
M  V30 24683 N 2359.05 0.638091 1.44105 0
M  V30 24684 C 2359.98 -0.0493876 2.33448 0
M  V30 24685 C 2360.96 -0.827646 1.48607 0
M  V30 24686 O 2362.14 -0.792141 1.7731 0
M  V30 24687 C 2359.27 -1.02685 3.31773 0
M  V30 24688 C 2358.23 -0.359748 4.26485 0
M  V30 24689 C 2357.55 -1.4476 5.14732 0
M  V30 24690 C 2358.85 0.738387 5.17054 0
M  V30 24691 H 2360.55 0.696688 2.91181 0
M  V30 24692 H 2358.09 0.336481 1.40014 0
M  V30 24693 H 2360.05 -1.51659 3.93164 0
M  V30 24694 H 2358.77 -1.8039 2.72263 0
M  V30 24695 H 2357.43 0.109404 3.66437 0
M  V30 24696 H 2357.08 -2.2157 4.5157 0
M  V30 24697 H 2356.78 -1.00658 5.78914 0
M  V30 24698 H 2358.3 -1.93901 5.78995 0
M  V30 24699 H 2359.72 0.331454 5.72341 0
M  V30 24700 H 2358.11 1.10296 5.89877 0
M  V30 24701 H 2359.18 1.60266 4.57649 0
M  V30 24702 N 2360.53 -1.52973 0.379063 0
M  V30 24703 C 2361.8 -1.93818 -0.263445 0
M  V30 24704 C 2362.18 -1.31371 -1.65242 0
M  V30 24705 O 2361.53 -0.477895 -2.23447 0
M  V30 24706 C 2361.74 -3.47707 -0.300105 0
M  V30 24707 C 2363.09 -4.21229 -0.533987 0
M  V30 24708 O 2364.11 -3.54159 -0.380748 0
M  V30 24709 O 2362.97 -5.40108 -0.833407 0
M  V30 24710 H 2360.07 -0.81115 -0.161134 0
M  V30 24711 H 2362.61 -1.64087 0.432827 0
M  V30 24712 H 2361.38 -3.85465 0.673206 0
M  V30 24713 H 2361.01 -3.83711 -1.04172 0
M  V30 24714 N 2362 -0.108595 -1.57225 0
M  V30 24715 C 2362.97 0.831044 -2.13603 0
M  V30 24716 C 2363.97 1.20171 -1.06843 0
M  V30 24717 O 2365.16 1.12893 -1.32668 0
M  V30 24718 C 2362.29 2.12239 -2.66772 0
M  V30 24719 H 2363.48 0.341265 -2.97952 0
M  V30 24720 H 2361.03 0.140542 -1.55667 0
M  V30 24721 H 2361.77 2.65671 -1.85982 0
M  V30 24722 H 2361.55 1.86619 -3.44842 0
M  V30 24723 H 2363.04 2.79429 -3.10337 0
M  V30 24724 N 2363.48 1.56732 0.16515 0
M  V30 24725 C 2364.43 1.96885 1.20436 0
M  V30 24726 C 2365.4 0.833683 1.43663 0
M  V30 24727 O 2366.58 1.0943 1.563 0
M  V30 24728 C 2363.72 2.33921 2.53723 0
M  V30 24729 C 2362.84 3.60644 2.37823 0
M  V30 24730 C 2361.97 3.86864 3.64019 0
M  V30 24731 C 2361.01 5.06915 3.43079 0
M  V30 24732 N 2360.15 5.29237 4.6136 0
M  V30 24733 H 2364.99 2.85473 0.854946 0
M  V30 24734 H 2362.52 1.41249 0.410735 0
M  V30 24735 H 2364.48 2.53417 3.31415 0
M  V30 24736 H 2363.11 1.48436 2.86647 0
M  V30 24737 H 2362.16 3.49027 1.51276 0
M  V30 24738 H 2363.48 4.48494 2.183 0
M  V30 24739 H 2362.63 4.06761 4.50145 0
M  V30 24740 H 2361.37 2.97401 3.86528 0
M  V30 24741 H 2360.37 4.8691 2.5534 0
M  V30 24742 H 2361.6 5.97914 3.21986 0
M  V30 24743 H 2359.55 4.42726 4.84076 0
M  V30 24744 H 2359.46 6.11321 4.44772 0
M  V30 24745 H 2360.73 5.53618 5.48751 0
M  V30 24746 N 2364.96 -0.433911 1.51509 0
M  V30 24747 C 2365.87 -1.55207 1.7592 0
M  V30 24748 C 2366.89 -1.61661 0.643574 0
M  V30 24749 O 2368.06 -1.78839 0.926214 0
M  V30 24750 C 2365.13 -2.91161 1.88218 0
M  V30 24751 C 2364.19 -2.94796 3.12079 0
M  V30 24752 C 2363.42 -4.24266 3.23782 0
M  V30 24753 O 2363.64 -5.16829 2.41339 0
M  V30 24754 O 2362.58 -4.34255 4.16781 0
M  V30 24755 H 2366.4 -1.37522 2.70779 0
M  V30 24756 H 2363.99 -0.617269 1.36052 0
M  V30 24757 H 2365.87 -3.71841 1.98273 0
M  V30 24758 H 2364.55 -3.08967 0.965467 0
M  V30 24759 H 2363.45 -2.13059 3.07501 0
M  V30 24760 H 2364.79 -2.81936 4.03451 0
M  V30 24761 N 2366.44 -1.41713 -0.689577 0
M  V30 24762 C 2367.37 -1.4681 -1.81574 0
M  V30 24763 C 2368.35 -0.326134 -1.66944 0
M  V30 24764 O 2369.53 -0.53841 -1.86587 0
M  V30 24765 C 2366.66 -1.35541 -3.19759 0
M  V30 24766 C 2365.62 -2.47611 -3.49103 0
M  V30 24767 C 2364.94 -2.21405 -4.86707 0
M  V30 24768 C 2366.24 -3.89945 -3.47477 0
M  V30 24769 H 2367.94 -2.41061 -1.77566 0
M  V30 24770 H 2365.48 -1.16027 -0.852866 0
M  V30 24771 H 2367.44 -1.37717 -3.98261 0
M  V30 24772 H 2366.16 -0.377765 -3.24408 0
M  V30 24773 H 2364.82 -2.44727 -2.72955 0
M  V30 24774 H 2364.47 -1.21969 -4.87988 0
M  V30 24775 H 2364.17 -2.96506 -5.07304 0
M  V30 24776 H 2365.69 -2.25307 -5.67511 0
M  V30 24777 H 2367.11 -3.94512 -4.15973 0
M  V30 24778 H 2365.5 -4.64778 -3.79607 0
M  V30 24779 H 2366.57 -4.1767 -2.46333 0
M  V30 24780 N 2367.92 0.924431 -1.2764 0
M  V30 24781 C 2369.16 1.67495 -1.14339 0
M  V30 24782 C 2369.5 1.91719 0.309431 0
M  V30 24783 O 2368.77 1.50991 1.22605 0
M  V30 24784 C 2369.05 3.03947 -1.93102 0
M  V30 24785 C 2368.91 2.86943 -3.46386 0
M  V30 24786 C 2370.23 4.04327 -1.73805 0
M  V30 24787 H 2367.34 0.607864 -0.416738 0
M  V30 24788 H 2369.99 1.07253 -1.56834 0
M  V30 24789 H 2368.14 3.55369 -1.56988 0
M  V30 24790 H 2369.81 2.42614 -3.92347 0
M  V30 24791 H 2368.05 2.22219 -3.72561 0
M  V30 24792 H 2368.72 3.83797 -3.96742 0
M  V30 24793 H 2371.2 3.61927 -2.05299 0
M  V30 24794 H 2370.07 4.97785 -2.31303 0
M  V30 24795 H 2370.34 4.36733 -0.686802 0
M  V30 24796 N 2369.39 1.09715 1.13139 0
M  V30 24797 C 2370.67 0.747334 1.8076 0
M  V30 24798 C 2371.05 -0.76723 1.96664 0
M  V30 24799 O 2370.4 -1.69073 1.53709 0
M  V30 24800 C 2370.61 1.48981 3.15604 0
M  V30 24801 C 2371.96 1.65753 3.90911 0
M  V30 24802 O 2372.98 1.45257 3.25237 0
M  V30 24803 O 2371.84 1.99679 5.08715 0
M  V30 24804 H 2368.93 0.268796 0.782098 0
M  V30 24805 H 2371.48 1.19953 1.20039 0
M  V30 24806 H 2370.25 2.52094 2.99273 0
M  V30 24807 H 2369.88 1.02998 3.84028 0
M  V30 24808 N 2370.87 -1.30419 0.88479 0
M  V30 24809 C 2371.82 -2.28136 0.349682 0
M  V30 24810 C 2372.79 -1.56374 -0.560034 0
M  V30 24811 O 2373.97 -1.84441 -0.488492 0
M  V30 24812 C 2371.11 -3.42411 -0.429929 0
M  V30 24813 C 2370.23 -4.28991 0.508983 0
M  V30 24814 C 2369.36 -5.30428 -0.286208 0
M  V30 24815 C 2368.4 -6.08658 0.648186 0
M  V30 24816 N 2367.54 -7.02011 -0.111669 0
M  V30 24817 H 2372.38 -2.73291 1.18811 0
M  V30 24818 H 2369.92 -1.34429 0.597255 0
M  V30 24819 H 2371.87 -4.07424 -0.897851 0
M  V30 24820 H 2370.5 -2.98326 -1.23294 0
M  V30 24821 H 2369.56 -3.64287 1.09539 0
M  V30 24822 H 2370.87 -4.83528 1.22484 0
M  V30 24823 H 2370.02 -6.01188 -0.815992 0
M  V30 24824 H 2368.76 -4.76585 -1.03528 0
M  V30 24825 H 2367.77 -5.36776 1.1896 0
M  V30 24826 H 2368.99 -6.64589 1.39635 0
M  V30 24827 H 2366.94 -6.50557 -0.843281 0
M  V30 24828 H 2366.85 -7.54036 0.544561 0
M  V30 24829 H 2368.12 -7.77013 -0.622202 0
M  V30 24830 N 2372.35 -0.645724 -1.43764 0
M  V30 24831 C 2373.63 -0.0863307 -1.95409 0
M  V30 24832 C 2374.01 1.39172 -1.58727 0
M  V30 24833 O 2373.36 2.11346 -0.868619 0
M  V30 24834 C 2373.57 -0.324626 -3.47487 0
M  V30 24835 C 2374.91 -0.225572 -4.24 0
M  V30 24836 O 2375.94 -0.256778 -3.55273 0
M  V30 24837 O 2374.8 -0.142897 -5.46313 0
M  V30 24838 H 2371.89 0.0139337 -0.826883 0
M  V30 24839 H 2374.44 -0.718442 -1.53742 0
M  V30 24840 H 2373.21 -1.34966 -3.67287 0
M  V30 24841 H 2372.83 0.340918 -3.96136 0
M  V30 24842 N 2373.83 1.5277 -0.38717 0
M  V30 24843 C 2375.08 2.01154 0.195313 0
M  V30 24844 C 2375.4 1.27551 1.47498 0
M  V30 24845 O 2374.67 0.394958 1.91877 0
M  V30 24846 H 2373.25 0.743209 0.0751649 0
M  V30 24847 H 2375.91 1.8788 -0.51837 0
M  V30 24848 H 2375.01 3.09434 0.407042 0
M  V30 24849 N 2375.31 0.116931 1.57166 0
M  V30 24850 C 2376.53 -0.549348 1.99474 0
M  V30 24851 C 2376.95 -1.60356 0.996569 0
M  V30 24852 O 2376.31 -1.82497 -0.0108411 0
M  V30 24853 C 2376.36 -1.17735 3.4179 0
M  V30 24854 O 2376.08 -0.165285 4.37788 0
M  V30 24855 C 2377.58 -1.92715 3.99219 0
M  V30 24856 H 2374.8 -0.145605 0.655012 0
M  V30 24857 H 2377.34 0.20266 2.03493 0
M  V30 24858 H 2375.5 -1.88016 3.38717 0
M  V30 24859 H 2375.91 -0.621312 5.20807 0
M  V30 24860 H 2377.39 -2.31986 5.00886 0
M  V30 24861 H 2377.86 -2.80155 3.38245 0
M  V30 24862 H 2378.47 -1.27202 4.05832 0
M  V30 24863 N 2376.78 -1.56818 -0.156836 0
M  V30 24864 C 2377.73 -1.98457 -1.21315 0
M  V30 24865 C 2378.73 -0.87547 -1.45024 0
M  V30 24866 O 2379.93 -1.06063 -1.45433 0
M  V30 24867 H 2376.31 -0.631612 -0.408131 0
M  V30 24868 H 2378.28 -2.86474 -0.835194 0
M  V30 24869 C 2377.03 -2.3729 -2.54144 0
M  V30 24870 H 2376.35 -3.2218 -2.36727 0
M  V30 24871 H 2377.79 -2.70257 -3.26707 0
M  V30 24872 C 2376.25 -1.22179 -3.13965 0
M  V30 24873 O 2376.78 -0.517219 -3.98356 0
M  V30 24874 N 2374.99 -0.988584 -2.73268 0
M  V30 24875 H 2374.53 -1.5633 -2.04741 0
M  V30 24876 H 2374.49 -0.220264 -3.13627 0
M  V30 24877 N 2378.26 0.425871 -1.51737 0
M  V30 24878 C 2379.19 1.52491 -1.7683 0
M  V30 24879 C 2380.17 1.58455 -0.618551 0
M  V30 24880 O 2381.36 1.73999 -0.862447 0
M  V30 24881 C 2378.49 2.90471 -1.90379 0
M  V30 24882 C 2377.44 2.99363 -3.05885 0
M  V30 24883 C 2376.77 4.39435 -3.04632 0
M  V30 24884 C 2378.07 2.72387 -4.45649 0
M  V30 24885 H 2379.76 1.31743 -2.68857 0
M  V30 24886 H 2377.31 0.632339 -1.29373 0
M  V30 24887 H 2379.26 3.67327 -2.06516 0
M  V30 24888 H 2377.99 3.12475 -0.950095 0
M  V30 24889 H 2376.64 2.24949 -2.89471 0
M  V30 24890 H 2376.29 4.58424 -2.07018 0
M  V30 24891 H 2375.99 4.46313 -3.82202 0
M  V30 24892 H 2377.52 5.18249 -3.22878 0
M  V30 24893 H 2378.93 3.38971 -4.62354 0
M  V30 24894 H 2377.33 2.90661 -5.25011 0
M  V30 24895 H 2378.4 1.67921 -4.54896 0
M  V30 24896 N 2379.74 1.42077 0.682052 0
M  V30 24897 C 2380.65 1.47374 1.82532 0
M  V30 24898 C 2381.67 0.363109 1.70169 0
M  V30 24899 O 2382.84 0.612908 1.91847 0
M  V30 24900 C 2379.91 1.36679 3.18622 0
M  V30 24901 C 2378.97 2.58173 3.42995 0
M  V30 24902 C 2378.2 2.47979 4.72591 0
M  V30 24903 O 2378.42 1.5117 5.50004 0
M  V30 24904 O 2377.36 3.37982 4.98048 0
M  V30 24905 H 2381.18 2.43856 1.81019 0
M  V30 24906 H 2378.77 1.23762 0.836865 0
M  V30 24907 H 2380.65 1.3305 3.99845 0
M  V30 24908 H 2379.33 0.433195 3.20788 0
M  V30 24909 H 2378.23 2.67378 2.61648 0
M  V30 24910 H 2379.57 3.50407 3.45653 0
M  V30 24911 N 2381.22 -0.917649 1.28129 0
M  V30 24912 C 2382.15 -2.03639 1.14251 0
M  V30 24913 C 2383.13 -1.7005 0.0413047 0
M  V30 24914 O 2384.32 -1.92977 0.217599 0
M  V30 24915 C 2381.45 -3.37973 0.799491 0
M  V30 24916 C 2380.4 -3.8571 1.85504 0
M  V30 24917 C 2379.73 -5.16964 1.36575 0
M  V30 24918 C 2381.03 -4.07997 3.26092 0
M  V30 24919 H 2382.72 -2.15508 2.07839 0
M  V30 24920 H 2380.27 -1.03551 1.00066 0
M  V30 24921 H 2382.22 -4.15726 0.689187 0
M  V30 24922 H 2380.94 -3.26146 -0.172088 0
M  V30 24923 H 2379.6 -3.10158 1.95442 0
M  V30 24924 H 2379.25 -5.01537 0.383341 0
M  V30 24925 H 2378.95 -5.49874 2.07153 0
M  V30 24926 H 2380.47 -5.97277 1.26859 0
M  V30 24927 H 2381.89 -4.76287 3.19098 0
M  V30 24928 H 2380.28 -4.52231 3.9447 0
M  V30 24929 H 2381.35 -3.12941 3.70399 0
M  V30 24930 N 2382.7 -1.10314 -1.12555 0
M  V30 24931 C 2383.93 -0.866906 -1.87863 0
M  V30 24932 C 2384.34 0.582525 -1.79589 0
M  V30 24933 O 2383.7 1.40154 -1.1689 0
M  V30 24934 C 2383.75 -1.30502 -3.37122 0
M  V30 24935 O 2383.47 -2.69761 -3.45196 0
M  V30 24936 C 2384.97 -1.1025 -4.29371 0
M  V30 24937 H 2382.19 -0.311246 -0.594447 0
M  V30 24938 H 2384.73 -1.46748 -1.42426 0
M  V30 24939 H 2382.89 -0.748148 -3.80107 0
M  V30 24940 H 2383.3 -2.88465 -4.3805 0
M  V30 24941 H 2384.78 -1.45821 -5.32391 0
M  V30 24942 H 2385.25 -0.0410263 -4.39181 0
M  V30 24943 H 2385.86 -1.64578 -3.92166 0
M  V30 24944 N 2384.18 1.29948 -0.891694 0
M  V30 24945 C 2385.11 2.3039 -0.379838 0
M  V30 24946 C 2386.09 1.61271 0.540891 0
M  V30 24947 O 2387.27 1.88835 0.453319 0
M  V30 24948 C 2384.4 3.44982 0.400593 0
M  V30 24949 C 2383.36 4.25845 -0.42898 0
M  V30 24950 C 2382.68 5.32555 0.478463 0
M  V30 24951 C 2383.98 4.94724 -1.67467 0
M  V30 24952 H 2385.68 2.73452 -1.21919 0
M  V30 24953 H 2383.22 1.31461 -0.587698 0
M  V30 24954 H 2385.17 4.14317 0.769361 0
M  V30 24955 H 2383.9 3.00742 1.27365 0
M  V30 24956 H 2382.56 3.58207 -0.779974 0
M  V30 24957 H 2382.21 4.84561 1.34943 0
M  V30 24958 H 2381.91 5.87555 -0.0728465 0
M  V30 24959 H 2383.43 6.04744 0.843599 0
M  V30 24960 H 2384.84 5.5654 -1.3761 0
M  V30 24961 H 2383.24 5.5962 -2.16668 0
M  V30 24962 H 2384.31 4.20468 -2.41525 0
M  V30 24963 N 2385.65 0.653339 1.4342 0
M  V30 24964 C 2386.58 -0.0246246 2.33487 0
M  V30 24965 C 2387.56 -0.811837 1.49476 0
M  V30 24966 O 2388.75 -0.773291 1.7814 0
M  V30 24967 C 2385.88 -0.991601 3.32843 0
M  V30 24968 C 2384.83 -0.314493 4.26843 0
M  V30 24969 C 2384.16 -1.39292 5.16238 0
M  V30 24970 C 2385.46 0.793186 5.16242 0
M  V30 24971 H 2387.15 0.727532 2.90426 0
M  V30 24972 H 2384.7 0.351312 1.39649 0
M  V30 24973 H 2386.65 -1.4748 3.9475 0
M  V30 24974 H 2385.38 -1.77492 2.74161 0
M  V30 24975 H 2384.04 0.148264 3.663 0
M  V30 24976 H 2383.68 -2.16768 4.53895 0
M  V30 24977 H 2383.38 -0.945121 5.79949 0
M  V30 24978 H 2384.91 -1.87749 5.81019 0
M  V30 24979 H 2386.32 0.39214 5.71957 0
M  V30 24980 H 2384.72 1.16547 5.88674 0
M  V30 24981 H 2385.79 1.65111 4.55924 0
M  V30 24982 N 2387.13 -1.52563 0.395266 0
M  V30 24983 C 2388.08 -2.26625 -0.436996 0
M  V30 24984 C 2389.05 -1.28474 -1.05278 0
M  V30 24985 O 2390.23 -1.57313 -1.07968 0
M  V30 24986 C 2387.37 -3.08072 -1.55518 0
M  V30 24987 C 2386.49 -4.2116 -0.961671 0
M  V30 24988 C 2385.62 -4.89991 -2.0514 0
M  V30 24989 C 2384.66 -5.95063 -1.4341 0
M  V30 24990 N 2383.8 -6.57466 -2.46339 0
M  V30 24991 H 2388.64 -2.97321 0.201028 0
M  V30 24992 H 2386.17 -1.46681 0.11097 0
M  V30 24993 H 2388.13 -3.53588 -2.2143 0
M  V30 24994 H 2386.76 -2.39573 -2.16343 0
M  V30 24995 H 2385.81 -3.79915 -0.191981 0
M  V30 24996 H 2387.13 -4.96575 -0.470614 0
M  V30 24997 H 2386.28 -5.38841 -2.7881 0
M  V30 24998 H 2385.02 -4.14113 -2.57607 0
M  V30 24999 H 2384.02 -5.45545 -0.682678 0
M  V30 25000 H 2385.25 -6.72876 -0.917298 0
M  V30 25001 H 2383.2 -5.84426 -2.97964 0
M  V30 25002 H 2383.11 -7.28512 -2.02006 0
M  V30 25003 H 2384.38 -7.10959 -3.1962 0
M  V30 25004 N 2388.61 -0.125265 -1.57101 0
M  V30 25005 C 2389.54 0.819136 -2.18661 0
M  V30 25006 C 2390.52 1.27279 -1.12846 0
M  V30 25007 O 2391.71 1.33427 -1.41106 0
M  V30 25008 C 2388.84 2.0669 -2.79099 0
M  V30 25009 C 2387.79 1.75081 -3.90552 0
M  V30 25010 C 2387.12 3.0694 -4.37826 0
M  V30 25011 C 2388.42 1.01426 -5.12357 0
M  V30 25012 H 2390.11 0.30615 -2.97831 0
M  V30 25013 H 2387.66 0.145814 -1.4326 0
M  V30 25014 H 2389.61 2.73221 -3.20825 0
M  V30 25015 H 2388.33 2.60324 -1.97228 0
M  V30 25016 H 2386.99 1.10938 -3.49411 0
M  V30 25017 H 2386.64 3.58521 -3.52805 0
M  V30 25018 H 2386.34 2.86562 -5.12987 0
M  V30 25019 H 2387.86 3.74578 -4.82207 0
M  V30 25020 H 2389.28 1.58122 -5.51063 0
M  V30 25021 H 2387.67 0.911214 -5.93142 0
M  V30 25022 H 2388.74 0.00210157 -4.849 0
M  V30 25023 N 2390.09 1.56899 0.148518 0
M  V30 25024 C 2391.04 1.99098 1.20261 0
M  V30 25025 C 2392.03 0.883148 1.44557 0
M  V30 25026 O 2393.24 1.06833 1.44868 0
M  V30 25027 H 2389.61 0.633767 0.404775 0
M  V30 25028 H 2391.58 2.86912 0.81999 0
M  V30 25029 C 2390.33 2.38634 2.52882 0
M  V30 25030 H 2389.65 3.23431 2.35015 0
M  V30 25031 H 2391.09 2.71985 3.25269 0
M  V30 25032 C 2389.55 1.23842 3.13313 0
M  V30 25033 O 2390.08 0.538338 3.98076 0
M  V30 25034 N 2388.29 1.00306 2.7274 0
M  V30 25035 H 2387.84 1.57413 2.03909 0
M  V30 25036 H 2387.79 0.236893 3.13506 0
M  V30 25037 N 2391.57 -0.417818 1.51961 0
M  V30 25038 C 2392.98 -0.755791 1.4057 0
M  V30 25039 C 2393.18 -1.95112 0.503351 0
M  V30 25040 O 2392.24 -2.52477 -0.0341481 0
M  V30 25041 C 2393.55 -1.01787 2.82949 0
M  V30 25042 C 2395.1 -1.12111 2.92233 0
M  V30 25043 C 2395.57 -1.416 4.35561 0
M  V30 25044 N 2397.06 -1.48483 4.38756 0
M  V30 25045 C 2397.8 -1.7291 5.46708 0
M  V30 25046 N 2397.3 -1.94999 6.64791 0
M  V30 25047 N 2399.09 -1.74854 5.34212 0
M  V30 25048 H 2391.24 0.369135 2.09168 0
M  V30 25049 H 2393.5 0.102825 0.942407 0
M  V30 25050 H 2393.21 -0.212019 3.5106 0
M  V30 25051 H 2393.08 -1.94036 3.23465 0
M  V30 25052 H 2395.47 -1.91756 2.24307 0
M  V30 25053 H 2395.55 -0.17718 2.55186 0
M  V30 25054 H 2395.19 -0.62476 5.04043 0
M  V30 25055 H 2395.12 -2.37231 4.70137 0
M  V30 25056 H 2397.62 -1.33238 3.53633 0
M  V30 25057 H 2397.93 -2.13063 7.42849 0
M  V30 25058 H 2396.27 -1.92281 6.67872 0
M  V30 25059 H 2399.46 -1.57129 4.4094 0
M  V30 25060 H 2399.64 -1.93552 6.18419 0
M  V30 25061 N 2393.04 -1.42436 -0.674508 0
M  V30 25062 C 2393.99 -1.46173 -1.80932 0
M  V30 25063 C 2394.99 -0.337429 -1.66005 0
M  V30 25064 O 2396.19 -0.510455 -1.7261 0
M  V30 25065 H 2392.57 -0.457809 -0.596586 0
M  V30 25066 H 2394.54 -2.4177 -1.74899 0
M  V30 25067 C 2393.29 -1.38128 -3.19086 0
M  V30 25068 H 2392.61 -2.23936 -3.31199 0
M  V30 25069 H 2394.05 -1.44804 -3.98507 0
M  V30 25070 C 2392.51 -0.0961109 -3.36763 0
M  V30 25071 O 2393.04 0.851004 -3.92582 0
M  V30 25072 N 2391.24 -0.0131697 -2.90597 0
M  V30 25073 H 2390.79 -0.784683 -2.45358 0
M  V30 25074 H 2390.75 0.84608 -3.02802 0
M  V30 25075 N 2394.52 0.910841 -1.28614 0
M  V30 25076 C 2395.43 2.04678 -1.14647 0
M  V30 25077 C 2396.45 1.7385 -0.0723427 0
M  V30 25078 O 2397.62 1.99413 -0.282213 0
M  V30 25079 C 2394.69 3.37042 -0.812621 0
M  V30 25080 C 2393.75 3.81461 -1.96941 0
M  V30 25081 C 2392.98 5.07508 -1.6514 0
M  V30 25082 O 2393.21 5.67574 -0.567113 0
M  V30 25083 O 2392.14 5.4771 -2.49594 0
M  V30 25084 H 2395.97 2.19381 -2.10014 0
M  V30 25085 H 2393.55 1.03272 -1.0796 0
M  V30 25086 H 2395.43 4.16504 -0.640515 0
M  V30 25087 H 2394.11 3.23508 0.111369 0
M  V30 25088 H 2393.01 3.02814 -2.19669 0
M  V30 25089 H 2394.35 3.99562 -2.87421 0
M  V30 25090 N 2396 1.10909 1.11969 0
M  V30 25091 C 2396.95 0.762383 2.17845 0
M  V30 25092 C 2397.92 -0.263571 1.63995 0
M  V30 25093 O 2399.1 -0.141739 1.90273 0
M  V30 25094 C 2396.24 0.205711 3.44486 0
M  V30 25095 C 2395.36 1.28756 4.12366 0
M  V30 25096 C 2394.49 0.692011 5.26673 0
M  V30 25097 C 2393.53 1.75409 5.86428 0
M  V30 25098 N 2392.67 1.17845 6.92139 0
M  V30 25099 H 2397.51 1.66944 2.46848 0
M  V30 25100 H 2395.04 0.833797 1.21187 0
M  V30 25101 H 2397 -0.134963 4.16982 0
M  V30 25102 H 2395.63 -0.664557 3.15885 0
M  V30 25103 H 2394.68 1.74528 3.38 0
M  V30 25104 H 2396 2.09133 4.52841 0
M  V30 25105 H 2395.15 0.30107 6.05953 0
M  V30 25106 H 2393.89 -0.143146 4.8749 0
M  V30 25107 H 2392.89 2.15441 5.05831 0
M  V30 25108 H 2394.12 2.59219 6.2768 0
M  V30 25109 H 2392.06 0.36484 6.54985 0
M  V30 25110 H 2391.98 1.919 7.31239 0
M  V30 25111 H 2393.25 0.814216 7.75236 0
M  V30 25112 N 2397.48 -1.29474 0.898573 0
M  V30 25113 C 2398.73 -1.95605 0.523916 0
M  V30 25114 C 2399.05 -1.70848 -0.929578 0
M  V30 25115 O 2398.31 -1.0137 -1.67399 0
M  V30 25116 C 2398.61 -3.49194 0.761459 0
M  V30 25117 C 2398.27 -3.94026 2.19214 0
M  V30 25118 C 2396.94 -4.05977 2.58333 0
M  V30 25119 C 2399.29 -4.1721 3.12386 0
M  V30 25120 C 2396.62 -4.38482 3.89808 0
M  V30 25121 C 2398.97 -4.51189 4.43408 0
M  V30 25122 C 2397.63 -4.61351 4.82402 0
M  V30 25123 H 2396.9 -0.71577 0.191714 0
M  V30 25124 H 2399.55 -1.54092 1.13702 0
M  V30 25125 H 2397.85 -3.91745 0.065431 0
M  V30 25126 H 2399.55 -3.98456 0.450974 0
M  V30 25127 H 2396.14 -3.85239 1.87853 0
M  V30 25128 H 2400.32 -4.07444 2.83378 0
M  V30 25129 H 2395.58 -4.44552 4.19742 0
M  V30 25130 H 2399.75 -4.68078 5.15631 0
M  V30 25131 H 2397.38 -4.86293 5.84315 0
M  V30 25132 N 2398.96 -0.660936 -1.43071 0
M  V30 25133 C 2400.37 -0.3292 -1.56168 0
M  V30 25134 C 2400.57 1.16626 -1.64319 0
M  V30 25135 O 2399.63 1.95132 -1.60249 0
M  V30 25136 C 2400.94 -1.04734 -2.81871 0
M  V30 25137 C 2402.49 -1.02833 -2.95625 0
M  V30 25138 C 2402.96 -1.72752 -4.24171 0
M  V30 25139 N 2404.46 -1.69553 -4.31052 0
M  V30 25140 C 2405.19 -2.20521 -5.293 0
M  V30 25141 N 2404.69 -2.7981 -6.33781 0
M  V30 25142 N 2406.48 -2.10975 -5.21005 0
M  V30 25143 H 2398.63 -1.63129 -1.36024 0
M  V30 25144 H 2400.89 -0.686466 -0.653811 0
M  V30 25145 H 2400.6 -2.10247 -2.81938 0
M  V30 25146 H 2400.47 -0.603768 -3.72337 0
M  V30 25147 H 2402.86 0.0184224 -2.95094 0
M  V30 25148 H 2402.94 -1.51066 -2.06428 0
M  V30 25149 H 2402.59 -2.77388 -4.25463 0
M  V30 25150 H 2402.52 -1.21979 -5.12278 0
M  V30 25151 H 2405.01 -1.26295 -3.56171 0
M  V30 25152 H 2405.32 -3.16357 -7.0508 0
M  V30 25153 H 2403.66 -2.83874 -6.34382 0
M  V30 25154 H 2406.86 -1.64355 -4.38298 0
M  V30 25155 H 2407.03 -2.51004 -5.97412 0
M  V30 25156 N 2400.43 1.52351 -0.403352 0
M  V30 25157 C 2401.71 1.94212 0.232577 0
M  V30 25158 C 2402.09 1.33983 1.63131 0
M  V30 25159 O 2401.44 0.513383 2.22658 0
M  V30 25160 C 2401.65 3.48141 0.24475 0
M  V30 25161 C 2403 4.22025 0.466906 0
M  V30 25162 O 2404.02 3.5472 0.324356 0
M  V30 25163 O 2402.88 5.41365 0.747375 0
M  V30 25164 H 2399.97 0.813611 0.148209 0
M  V30 25165 H 2402.52 1.63378 -0.458877 0
M  V30 25166 H 2401.29 3.84346 -0.734445 0
M  V30 25167 H 2400.92 3.85319 0.980544 0
M  V30 25168 N 2401.91 0.133594 1.57033 0
M  V30 25169 C 2403.16 -0.520734 1.94862 0
M  V30 25170 C 2403.47 -1.6689 1.02015 0
M  V30 25171 O 2404.68 -2.38696 1.29369 0
M  V30 25172 C 2403.14 -0.977748 3.46364 0
M  V30 25173 C 2402.74 0.142753 4.47773 0
M  V30 25174 C 2404.49 -1.60263 3.93085 0
M  V30 25175 C 2402.4 -0.331779 5.90469 0
M  V30 25176 H 2401.33 -0.198302 0.727456 0
M  V30 25177 H 2403.98 0.215791 1.82227 0
M  V30 25178 H 2402.36 -1.76913 3.54285 0
M  V30 25179 H 2403.53 0.919396 4.51535 0
M  V30 25180 H 2401.85 0.675196 4.10889 0
M  V30 25181 H 2404.44 -1.96905 4.97124 0
M  V30 25182 H 2404.79 -2.48656 3.3388 0
M  V30 25183 H 2405.32 -0.876385 3.88026 0
M  V30 25184 H 2402.06 0.516456 6.53462 0
M  V30 25185 H 2401.58 -1.07459 5.90095 0
M  V30 25186 H 2403.26 -0.788219 6.42181 0
M  V30 25187 N 2403.39 -1.56975 -0.140195 0
M  V30 25188 C 2404.81 -1.51793 -0.493061 0
M  V30 25189 C 2405.01 -0.843148 -1.83012 0
M  V30 25190 O 2404.06 -0.416537 -2.49041 0
M  V30 25191 C 2405.38 -2.96563 -0.497092 0
M  V30 25192 C 2406.92 -3.07539 -0.582132 0
M  V30 25193 C 2407.4 -4.53828 -0.616759 0
M  V30 25194 N 2408.89 -4.58199 -0.678793 0
M  V30 25195 C 2409.62 -5.68777 -0.726682 0
M  V30 25196 N 2409.12 -6.88906 -0.733502 0
M  V30 25197 N 2410.91 -5.56828 -0.768081 0
M  V30 25198 H 2403.06 -1.99235 0.736143 0
M  V30 25199 H 2405.33 -0.908975 0.269198 0
M  V30 25200 H 2405.03 -3.49216 0.417278 0
M  V30 25201 H 2404.91 -3.52877 -1.33257 0
M  V30 25202 H 2407.29 -2.54901 -1.48692 0
M  V30 25203 H 2407.38 -2.54256 0.280625 0
M  V30 25204 H 2407.02 -5.07106 0.283901 0
M  V30 25205 H 2406.95 -5.049 -1.4961 0
M  V30 25206 H 2409.44 -3.71722 -0.680545 0
M  V30 25207 H 2409.75 -7.68934 -0.77208 0
M  V30 25208 H 2408.1 -6.91453 -0.701268 0
M  V30 25209 H 2411.29 -4.6189 -0.75997 0
M  V30 25210 H 2411.46 -6.43019 -0.801937 0
M  V30 25211 N 2404.87 0.409753 -1.5218 0
M  V30 25212 C 2406.12 1.15448 -1.6588 0
M  V30 25213 C 2406.44 1.91044 -0.390804 0
M  V30 25214 O 2405.71 1.86668 0.59429 0
M  V30 25215 H 2404.29 0.429166 -0.611412 0
M  V30 25216 H 2406.95 0.467101 -1.8922 0
M  V30 25217 H 2406.05 1.86889 -2.49958 0
M  V30 25218 N 2406.35 1.42792 0.666944 0
M  V30 25219 C 2407.59 1.4368 1.42696 0
M  V30 25220 C 2407.92 0.0560766 1.94419 0
M  V30 25221 O 2407.18 -0.936801 1.71821 0
M  V30 25222 C 2407.48 2.41474 2.63486 0
M  V30 25223 C 2407.14 3.87674 2.3026 0
M  V30 25224 C 2405.8 4.27495 2.2091 0
M  V30 25225 C 2408.16 4.79862 2.03426 0
M  V30 25226 C 2405.48 5.57475 1.82863 0
M  V30 25227 C 2407.84 6.10191 1.66881 0
M  V30 25228 C 2406.5 6.49004 1.56047 0
M  V30 25229 H 2405.77 0.525764 0.522162 0
M  V30 25230 H 2408.42 1.75784 0.759754 0
M  V30 25231 H 2406.72 2.02726 3.35275 0
M  V30 25232 H 2408.42 2.39422 3.2168 0
M  V30 25233 H 2405.01 3.5615 2.38442 0
M  V30 25234 H 2409.19 4.49878 2.09578 0
M  V30 25235 H 2404.45 5.86399 1.7305 0
M  V30 25236 H 2408.62 6.81106 1.45145 0
M  V30 25237 H 2406.25 7.49629 1.26335 0
M  V30 25238 N 2407.82 -0.904008 1.29095 0
M  V30 25239 C 2408.75 -2.02416 1.16405 0
M  V30 25240 C 2409.74 -1.69996 0.0593384 0
M  V30 25241 O 2410.92 -1.92735 0.238055 0
M  V30 25242 C 2408.05 -3.37106 0.835292 0
M  V30 25243 C 2407 -3.83721 1.89585 0
M  V30 25244 C 2406.33 -5.15486 1.4205 0
M  V30 25245 C 2407.63 -4.04515 3.30401 0
M  V30 25246 H 2409.32 -2.13291 2.10113 0
M  V30 25247 H 2406.87 -1.02484 1.01159 0
M  V30 25248 H 2408.82 -4.14972 0.733241 0
M  V30 25249 H 2407.55 -3.2631 -0.137486 0
M  V30 25250 H 2406.21 -3.08068 1.98721 0
M  V30 25251 H 2405.85 -5.01102 0.436514 0
M  V30 25252 H 2405.55 -5.47646 2.12974 0
M  V30 25253 H 2407.08 -5.95897 1.33186 0
M  V30 25254 H 2408.49 -4.72876 3.24131 0
M  V30 25255 H 2406.89 -4.48022 3.99245 0
M  V30 25256 H 2407.96 -3.08995 3.73698 0
M  V30 25257 N 2409.3 -1.11501 -1.11379 0
M  V30 25258 C 2410.27 -0.777191 -2.15621 0
M  V30 25259 C 2411.27 0.203751 -1.59504 0
M  V30 25260 O 2412.46 -0.0208126 -1.74188 0
M  V30 25261 C 2409.59 -0.153176 -3.40556 0
M  V30 25262 H 2410.78 -1.70065 -2.47018 0
M  V30 25263 H 2408.33 -0.916974 -1.26575 0
M  V30 25264 H 2409.07 0.780481 -3.14768 0
M  V30 25265 H 2408.85 -0.859305 -3.82568 0
M  V30 25266 H 2410.34 0.067031 -4.17546 0
M  V30 25267 N 2410.78 1.28995 -0.905426 0
M  V30 25268 C 2411.73 2.2755 -0.385932 0
M  V30 25269 C 2412.7 1.57245 0.535085 0
M  V30 25270 O 2413.88 1.85195 0.459087 0
M  V30 25271 C 2411.02 3.43052 0.3754 0
M  V30 25272 C 2410.14 4.28127 -0.577167 0
M  V30 25273 C 2409.27 5.30817 0.201785 0
M  V30 25274 C 2408.31 6.0755 -0.744936 0
M  V30 25275 N 2407.45 7.021 -2.91531e-05 0
M  V30 25276 H 2412.29 2.71366 -1.23144 0
M  V30 25277 H 2409.82 1.33462 -0.618566 0
M  V30 25278 H 2411.78 4.08801 0.83292 0
M  V30 25279 H 2410.41 3.0025 1.18532 0
M  V30 25280 H 2409.46 3.62499 -1.15321 0
M  V30 25281 H 2410.78 4.81518 -1.30161 0
M  V30 25282 H 2409.93 6.0241 0.720245 0
M  V30 25283 H 2408.67 4.78172 0.959329 0
M  V30 25284 H 2407.67 5.34816 -1.27485 0
M  V30 25285 H 2408.9 6.62284 -1.5019 0
M  V30 25286 H 2406.85 6.51817 0.739676 0
M  V30 25287 H 2406.76 7.53074 -0.664453 0
M  V30 25288 H 2408.03 7.77904 0.498507 0
M  V30 25289 N 2412.26 0.668514 1.42719 0
M  V30 25290 C 2413.17 -0.013934 2.34596 0
M  V30 25291 C 2414.19 -0.795675 1.54742 0
M  V30 25292 O 2415.36 -0.739433 1.87335 0
M  V30 25293 C 2412.43 -0.957924 3.33204 0
M  V30 25294 C 2411.49 -0.171415 4.28958 0
M  V30 25295 C 2410.72 -1.07044 5.22855 0
M  V30 25296 O 2410.94 -2.30991 5.21535 0
M  V30 25297 O 2409.88 -0.534621 5.99521 0
M  V30 25298 H 2413.7 0.742713 2.94478 0
M  V30 25299 H 2411.29 0.428731 1.43116 0
M  V30 25300 H 2413.17 -1.50001 3.93799 0
M  V30 25301 H 2411.85 -1.69453 2.75803 0
M  V30 25302 H 2410.75 0.414624 3.71795 0
M  V30 25303 H 2412.09 0.525946 4.89382 0
M  V30 25304 N 2413.74 -1.52135 0.411426 0
M  V30 25305 C 2414.65 -2.30815 -0.419734 0
M  V30 25306 C 2415.66 -1.38636 -1.05148 0
M  V30 25307 O 2416.84 -1.71711 -1.05249 0
M  V30 25308 C 2413.9 -3.11597 -1.52014 0
M  V30 25309 C 2412.97 -4.19518 -0.911216 0
M  V30 25310 C 2412.2 -4.96439 -1.95918 0
M  V30 25311 O 2412.42 -4.73688 -3.17767 0
M  V30 25312 O 2411.36 -5.81222 -1.56413 0
M  V30 25313 H 2415.18 -3.02889 0.221858 0
M  V30 25314 H 2412.77 -1.48377 0.174573 0
M  V30 25315 H 2414.65 -3.61896 -2.15891 0
M  V30 25316 H 2413.32 -2.42314 -2.14629 0
M  V30 25317 H 2412.23 -3.73361 -0.235091 0
M  V30 25318 H 2413.56 -4.911 -0.328954 0
M  V30 25319 N 2415.22 -0.14192 -1.5696 0
M  V30 25320 C 2416.46 0.511214 -1.96251 0
M  V30 25321 C 2416.79 1.64849 -1.02657 0
M  V30 25322 O 2416.07 1.94381 -0.0680017 0
M  V30 25323 C 2416.35 1.02221 -3.45287 0
M  V30 25324 C 2416.21 -0.113217 -4.49657 0
M  V30 25325 C 2417.52 1.90567 -3.96702 0
M  V30 25326 H 2414.64 0.184355 -0.71357 0
M  V30 25327 H 2417.29 -0.22212 -1.88697 0
M  V30 25328 H 2415.44 1.64713 -3.51855 0
M  V30 25329 H 2417.11 -0.749382 -4.55172 0
M  V30 25330 H 2415.35 -0.773101 -4.26855 0
M  V30 25331 H 2416.02 0.285956 -5.51259 0
M  V30 25332 H 2418.5 1.37911 -3.92581 0
M  V30 25333 H 2417.37 2.23232 -5.01457 0
M  V30 25334 H 2417.63 2.84073 -3.38755 0
M  V30 25335 N 2416.69 1.57047 0.131868 0
M  V30 25336 C 2417.6 2.02678 1.18147 0
M  V30 25337 C 2418.62 0.94485 1.46112 0
M  V30 25338 O 2419.8 1.25544 1.57483 0
M  V30 25339 C 2416.86 2.41107 2.49135 0
M  V30 25340 C 2415.92 3.63322 2.28682 0
M  V30 25341 C 2415.15 3.99909 3.53424 0
M  V30 25342 O 2415.38 3.36981 4.60217 0
M  V30 25343 O 2414.31 4.9308 3.45189 0
M  V30 25344 H 2418.14 2.92307 0.824017 0
M  V30 25345 H 2415.72 1.45439 0.341719 0
M  V30 25346 H 2417.6 2.66617 3.26333 0
M  V30 25347 H 2416.28 1.54629 2.84379 0
M  V30 25348 H 2415.19 3.4298 1.49384 0
M  V30 25349 H 2416.52 4.50466 1.98347 0
M  V30 25350 N 2418.17 -0.401677 1.52395 0
M  V30 25351 C 2419.42 -1.14963 1.67067 0
M  V30 25352 C 2419.75 -1.89971 0.403086 0
M  V30 25353 O 2419.03 -1.85055 -0.598741 0
M  V30 25354 C 2419.31 -2.1381 2.89754 0
M  V30 25355 C 2419.16 -1.4265 4.2658 0
M  V30 25356 C 2420.48 -3.14391 3.07971 0
M  V30 25357 H 2417.6 -0.416576 0.607975 0
M  V30 25358 H 2420.24 -0.434478 1.84966 0
M  V30 25359 H 2418.39 -2.74798 2.74624 0
M  V30 25360 H 2420.06 -0.847249 4.53453 0
M  V30 25361 H 2418.31 -0.728415 4.27641 0
M  V30 25362 H 2418.98 -2.14814 5.08487 0
M  V30 25363 H 2421.45 -2.63485 3.22048 0
M  V30 25364 H 2420.33 -3.80812 3.95315 0
M  V30 25365 H 2420.59 -3.82542 2.21618 0
M  V30 25366 N 2419.65 -1.43144 -0.659362 0
M  V30 25367 C 2420.6 -1.48083 -1.79371 0
M  V30 25368 C 2421.59 -0.355017 -1.65638 0
M  V30 25369 O 2422.8 -0.528734 -1.72059 0
M  V30 25370 H 2419.17 -0.46411 -0.591697 0
M  V30 25371 H 2421.14 -2.43612 -1.72325 0
M  V30 25372 C 2419.89 -1.41505 -3.17603 0
M  V30 25373 H 2419.22 -2.27437 -3.28805 0
M  V30 25374 H 2420.66 -1.49022 -3.96949 0
M  V30 25375 C 2419.11 -0.131824 -3.36642 0
M  V30 25376 O 2419.64 0.809317 -3.93463 0
M  V30 25377 N 2417.85 -0.0439906 -2.90567 0
M  V30 25378 H 2417.4 -0.810662 -2.44512 0
M  V30 25379 H 2417.36 0.813916 -3.03682 0
M  V30 25380 N 2421.13 0.897149 -1.29572 0
M  V30 25381 C 2422.04 2.03451 -1.16811 0
M  V30 25382 C 2423.05 1.73763 -0.0907777 0
M  V30 25383 O 2424.23 1.99102 -0.303347 0
M  V30 25384 C 2421.29 3.36161 -0.848323 0
M  V30 25385 C 2420.36 3.79351 -2.00976 0
M  V30 25386 C 2419.59 5.05728 -1.70514 0
M  V30 25387 O 2419.81 5.6694 -0.62728 0
M  V30 25388 O 2418.75 5.45032 -2.55389 0
M  V30 25389 H 2422.57 2.17141 -2.12329 0
M  V30 25390 H 2420.16 1.02121 -1.09049 0
M  V30 25391 H 2422.04 4.15801 -0.684654 0
M  V30 25392 H 2420.71 3.23608 0.0770503 0
M  V30 25393 H 2419.62 3.00467 -2.22869 0
M  V30 25394 H 2420.95 3.96491 -2.91643 0
M  V30 25395 N 2422.61 1.1209 1.10786 0
M  V30 25396 C 2423.57 0.788615 2.15206 0
M  V30 25397 C 2424.57 -0.195289 1.5961 0
M  V30 25398 O 2425.76 0.0300499 1.74174 0
M  V30 25399 C 2422.89 0.171234 3.4047 0
M  V30 25400 H 2424.08 1.71373 2.46113 0
M  V30 25401 H 2421.64 0.923674 1.26087 0
M  V30 25402 H 2422.37 -0.763777 3.15178 0
M  V30 25403 H 2422.16 0.879581 3.82107 0
M  V30 25404 H 2423.65 -0.0448866 4.17576 0
M  V30 25405 N 2424.08 -1.28513 0.912254 0
M  V30 25406 C 2425.33 -1.95327 0.54544 0
M  V30 25407 C 2425.66 -1.7165 -0.908283 0
M  V30 25408 O 2424.94 -1.03662 -1.64573 0
M  V30 25409 C 2425.22 -3.49838 0.853544 0
M  V30 25410 C 2425.07 -3.82922 2.35989 0
M  V30 25411 C 2426.39 -4.38717 0.348666 0
M  V30 25412 H 2423.51 -0.709446 0.199639 0
M  V30 25413 H 2426.15 -1.51908 1.14123 0
M  V30 25414 H 2424.3 -3.86952 0.346498 0
M  V30 25415 H 2425.98 -3.55686 2.93744 0
M  V30 25416 H 2424.22 -3.30019 2.81549 0
M  V30 25417 H 2424.89 -4.90812 2.52602 0
M  V30 25418 H 2427.37 -4.08666 0.783012 0
M  V30 25419 H 2426.24 -5.45684 0.593338 0
M  V30 25420 H 2426.5 -4.35675 -0.750973 0
M  V30 25421 N 2425.56 -0.676073 -1.42362 0
M  V30 25422 C 2426.49 -0.0125243 -2.33497 0
M  V30 25423 C 2427.47 0.787954 -1.50749 0
M  V30 25424 O 2428.66 0.744852 -1.79348 0
M  V30 25425 C 2425.79 0.938523 -3.34379 0
M  V30 25426 C 2424.74 0.246547 -4.27289 0
M  V30 25427 C 2424.07 1.31062 -5.18389 0
M  V30 25428 C 2425.37 -0.875215 -5.14915 0
M  V30 25429 H 2427.06 -0.773644 -2.89232 0
M  V30 25430 H 2424.61 -0.373484 -1.39072 0
M  V30 25431 H 2426.56 1.41181 -3.97046 0
M  V30 25432 H 2425.29 1.73108 -2.7695 0
M  V30 25433 H 2423.94 -0.20652 -3.66018 0
M  V30 25434 H 2423.59 2.0952 -4.57286 0
M  V30 25435 H 2423.29 0.852737 -5.8138 0
M  V30 25436 H 2424.82 1.78481 -5.83932 0
M  V30 25437 H 2426.23 -0.483084 -5.71261 0
M  V30 25438 H 2424.63 -1.25897 -5.86745 0
M  V30 25439 H 2425.7 -1.72343 -4.53239 0
M  V30 25440 N 2427.04 1.51915 -0.419488 0
M  V30 25441 C 2428 2.25874 0.389076 0
M  V30 25442 C 2429 1.28632 0.964901 0
M  V30 25443 O 2430.19 1.52491 0.842152 0
M  V30 25444 C 2427.33 3.03691 1.54869 0
M  V30 25445 H 2428.52 2.98781 -0.258851 0
M  V30 25446 H 2426.07 1.55348 -0.172236 0
M  V30 25447 H 2426.81 2.35158 2.23318 0
M  V30 25448 H 2426.59 3.75096 1.14217 0
M  V30 25449 H 2428.08 3.59762 2.1204 0
M  V30 25450 N 2428.52 0.150242 1.56882 0
M  V30 25451 C 2429.77 -0.500037 1.95403 0
M  V30 25452 C 2430.08 -1.65799 1.03779 0
M  V30 25453 O 2431.29 -2.37311 1.31893 0
M  V30 25454 C 2429.74 -0.940957 3.47382 0
M  V30 25455 C 2429.35 0.190237 4.47596 0
M  V30 25456 C 2431.09 -1.56084 3.94763 0
M  V30 25457 C 2429 -0.269134 5.90787 0
M  V30 25458 H 2427.93 -0.190575 0.729518 0
M  V30 25459 H 2430.58 0.235106 1.81988 0
M  V30 25460 H 2428.96 -1.73146 3.56141 0
M  V30 25461 H 2430.14 0.967236 4.50534 0
M  V30 25462 H 2428.45 0.718738 4.1015 0
M  V30 25463 H 2431.05 -1.91622 4.99185 0
M  V30 25464 H 2431.39 -2.45101 3.36499 0
M  V30 25465 H 2431.93 -0.83518 3.88934 0
M  V30 25466 H 2428.67 0.585736 6.52878 0
M  V30 25467 H 2428.19 -1.01194 5.91202 0
M  V30 25468 H 2429.86 -0.720063 6.42981 0
M  V30 25469 N 2430 -1.57115 -0.123538 0
M  V30 25470 C 2430.94 -2.00986 -1.17078 0
M  V30 25471 C 2431.94 -0.906034 -1.43134 0
M  V30 25472 O 2433.14 -1.09124 -1.4315 0
M  V30 25473 H 2429.52 -0.640127 -0.394641 0
M  V30 25474 H 2431.49 -2.88181 -0.774241 0
M  V30 25475 C 2430.24 -2.42627 -2.49053 0
M  V30 25476 H 2429.56 -3.27129 -2.2984 0
M  V30 25477 H 2431 -2.77126 -3.20901 0
M  V30 25478 C 2429.46 -1.28811 -3.11303 0
M  V30 25479 O 2429.99 -0.6016 -3.9717 0
M  V30 25480 N 2428.2 -1.04633 -2.7111 0
M  V30 25481 H 2427.74 -1.60637 -2.01379 0
M  V30 25482 H 2427.7 -0.28674 -3.1309 0
M  V30 25483 N 2431.47 0.393589 -1.52606 0
M  V30 25484 C 2432.7 1.1604 -1.71296 0
M  V30 25485 C 2433.12 1.83855 -0.429292 0
M  V30 25486 O 2432.47 1.72498 0.595891 0
M  V30 25487 C 2432.53 2.21188 -2.85934 0
M  V30 25488 O 2432.25 1.56138 -4.09332 0
M  V30 25489 C 2433.75 3.10631 -3.16265 0
M  V30 25490 H 2430.97 0.348094 -0.573647 0
M  V30 25491 H 2433.51 0.461057 -1.99235 0
M  V30 25492 H 2431.67 2.86765 -2.6047 0
M  V30 25493 H 2432.08 2.2597 -4.73326 0
M  V30 25494 H 2433.55 3.80449 -3.99953 0
M  V30 25495 H 2434.03 3.7388 -2.30457 0
M  V30 25496 H 2434.64 2.50704 -3.43551 0
M  V30 25497 N 2432.95 1.43492 0.651762 0
M  V30 25498 C 2434.18 1.48843 1.44431 0
M  V30 25499 C 2434.6 0.107988 1.8779 0
M  V30 25500 O 2433.96 -0.898574 1.57465 0
M  V30 25501 C 2434.01 2.44063 2.65453 0
M  V30 25502 O 2433.11 1.9279 3.64562 0
M  V30 25503 H 2432.45 0.503399 0.432996 0
M  V30 25504 H 2434.98 1.88421 0.797418 0
M  V30 25505 H 2434.99 2.61416 3.1325 0
M  V30 25506 H 2433.67 3.44344 2.33238 0
M  V30 25507 H 2432.25 1.85106 3.23713 0
M  V30 25508 N 2434.43 -0.890264 1.30046 0
M  V30 25509 C 2435.38 -1.99543 1.15979 0
M  V30 25510 C 2436.35 -1.66023 0.0506494 0
M  V30 25511 O 2437.53 -1.89529 0.219881 0
M  V30 25512 C 2434.67 -3.34414 0.852113 0
M  V30 25513 C 2433.79 -3.80659 2.04262 0
M  V30 25514 C 2432.92 -5.04151 1.67349 0
M  V30 25515 C 2431.96 -5.42789 2.82925 0
M  V30 25516 N 2431.1 -6.57464 2.46345 0
M  V30 25517 H 2435.94 -2.10907 2.10528 0
M  V30 25518 H 2433.47 -1.03274 1.04751 0
M  V30 25519 H 2435.43 -4.12036 0.654369 0
M  V30 25520 H 2434.06 -3.22751 -0.0564935 0
M  V30 25521 H 2433.11 -2.98991 2.35177 0
M  V30 25522 H 2434.43 -4.05237 2.90834 0
M  V30 25523 H 2433.58 -5.89383 1.43918 0
M  V30 25524 H 2432.32 -4.81432 0.779393 0
M  V30 25525 H 2431.32 -4.56086 3.07028 0
M  V30 25526 H 2432.55 -5.67484 3.73014 0
M  V30 25527 H 2430.49 -6.36331 1.59434 0
M  V30 25528 H 2430.41 -6.81885 3.26448 0
M  V30 25529 H 2431.68 -7.45941 2.26257 0
M  V30 25530 N 2435.91 -1.12676 -1.1019 0
M  V30 25531 C 2437.16 -0.883638 -1.82203 0
M  V30 25532 C 2437.48 0.590459 -1.85321 0
M  V30 25533 O 2436.74 1.45261 -1.3114 0
M  V30 25534 C 2437.04 -1.40676 -3.2855 0
M  V30 25535 C 2436.7 -2.89633 -3.45577 0
M  V30 25536 C 2435.37 -3.30305 -3.49931 0
M  V30 25537 C 2437.72 -3.85507 -3.50762 0
M  V30 25538 C 2435.05 -4.65552 -3.57041 0
M  V30 25539 C 2437.4 -5.20587 -3.59404 0
M  V30 25540 C 2436.06 -5.60798 -3.62024 0
M  V30 25541 H 2435.33 -0.323346 -0.66673 0
M  V30 25542 H 2437.98 -1.40738 -1.29866 0
M  V30 25543 H 2436.28 -0.803538 -3.83472 0
M  V30 25544 H 2437.98 -1.19482 -3.82786 0
M  V30 25545 H 2434.57 -2.57178 -3.42866 0
M  V30 25546 H 2438.75 -3.55177 -3.46645 0
M  V30 25547 H 2434.01 -4.96094 -3.57353 0
M  V30 25548 H 2438.18 -5.947 -3.62361 0
M  V30 25549 H 2435.81 -6.65586 -3.67286 0
M  V30 25550 N 2437.39 1.28028 -0.919057 0
M  V30 25551 C 2438.8 1.7677 -0.600766 0
M  V30 25552 C 2439.15 1.75157 0.883993 0
M  V30 25553 O 2438.27 1.34958 1.6916 0
M  V30 25554 C 2438.87 3.20998 -1.08378 0
M  V30 25555 C 2437.43 3.67442 -0.816312 0
M  V30 25556 C 2436.57 2.47656 -1.24747 0
M  V30 25557 H 2439.53 1.14416 -1.09976 0
M  V30 25558 H 2439.55 3.7809 -0.427579 0
M  V30 25559 H 2439.06 3.2214 -2.16443 0
M  V30 25560 H 2437.16 3.71754 0.250903 0
M  V30 25561 H 2437.27 4.57331 -1.42778 0
M  V30 25562 H 2435.64 2.45835 -0.666126 0
M  V30 25563 H 2436.42 2.51514 -2.33657 0
M  V30 25564 N 2438.86 0.683613 1.42002 0
M  V30 25565 C 2439.81 -0.000774523 2.326 0
M  V30 25566 C 2440.81 -0.781252 1.50309 0
M  V30 25567 O 2442.01 -0.688221 1.66324 0
M  V30 25568 H 2438.39 -0.0190484 0.751759 0
M  V30 25569 H 2440.36 0.780578 2.8801 0
M  V30 25570 C 2439.11 -0.931891 3.34979 0
M  V30 25571 H 2438.43 -0.340747 3.98345 0
M  V30 25572 H 2439.87 -1.37929 4.00938 0
M  V30 25573 C 2438.33 -2.04245 2.67929 0
M  V30 25574 O 2438.86 -3.12991 2.51793 0
M  V30 25575 N 2437.07 -1.81671 2.26813 0
M  V30 25576 H 2436.61 -0.932321 2.40136 0
M  V30 25577 H 2436.57 -2.56164 1.82284 0
M  V30 25578 N 2440.34 -1.5169 0.427538 0
M  V30 25579 C 2441.28 -2.24038 -0.433837 0
M  V30 25580 C 2442.25 -1.25583 -1.03285 0
M  V30 25581 O 2443.44 -1.5469 -1.07719 0
M  V30 25582 C 2440.57 -2.98322 -1.60379 0
M  V30 25583 C 2439.61 -4.11357 -1.12641 0
M  V30 25584 S 2440.44 -5.35445 -0.0764489 0
M  V30 25585 C 2441.6 -6.13264 -1.2513 0
M  V30 25586 H 2441.83 -2.96752 0.18042 0
M  V30 25587 H 2439.37 -1.52938 0.211973 0
M  V30 25588 H 2441.32 -3.41722 -2.27456 0
M  V30 25589 H 2439.99 -2.25216 -2.18944 0
M  V30 25590 H 2439.18 -4.62574 -2.00102 0
M  V30 25591 H 2438.78 -3.70168 -0.534023 0
M  V30 25592 H 2441.07 -6.41757 -2.17151 0
M  V30 25593 H 2442.02 -7.03799 -0.779287 0
M  V30 25594 H 2442.42 -5.44606 -1.48543 0
M  V30 25595 N 2441.82 -0.15856 -1.568 0
M  V30 25596 C 2443.05 0.495548 -2.00569 0
M  V30 25597 C 2443.46 1.58199 -1.03777 0
M  V30 25598 O 2442.8 1.83678 -0.0286119 0
M  V30 25599 C 2442.86 1.14526 -3.4077 0
M  V30 25600 C 2442.53 0.202021 -4.56553 0
M  V30 25601 C 2443.53 -0.574766 -5.16713 0
M  V30 25602 C 2441.21 0.10156 -5.02197 0
M  V30 25603 C 2443.2 -1.43935 -6.20936 0
M  V30 25604 C 2440.89 -0.766614 -6.06272 0
M  V30 25605 C 2441.89 -1.53566 -6.65512 0
M  V30 25606 O 2441.58 -2.38935 -7.67571 0
M  V30 25607 H 2441.31 0.132458 -0.662896 0
M  V30 25608 H 2443.86 -0.253595 -2.03828 0
M  V30 25609 H 2442.09 1.94227 -3.34384 0
M  V30 25610 H 2443.78 1.70027 -3.68573 0
M  V30 25611 H 2444.55 -0.507252 -4.8234 0
M  V30 25612 H 2440.43 0.689914 -4.55808 0
M  V30 25613 H 2443.97 -2.04008 -6.67103 0
M  V30 25614 H 2439.87 -0.835378 -6.40072 0
M  V30 25615 H 2440.64 -2.3231 -7.8484 0
M  V30 25616 N 2443.3 1.57178 0.115204 0
M  V30 25617 C 2444.55 1.84239 0.820913 0
M  V30 25618 C 2444.86 0.744792 1.80865 0
M  V30 25619 O 2446.07 0.901916 2.56081 0
M  V30 25620 C 2444.52 3.2666 1.51066 0
M  V30 25621 C 2444.13 4.44439 0.563716 0
M  V30 25622 C 2445.88 3.62965 2.20128 0
M  V30 25623 C 2443.78 5.77889 1.25691 0
M  V30 25624 H 2442.71 0.687183 0.310315 0
M  V30 25625 H 2445.36 1.83352 0.0736811 0
M  V30 25626 H 2443.75 3.22028 2.30465 0
M  V30 25627 H 2444.92 4.60377 -0.197328 0
M  V30 25628 H 2443.23 4.16395 -0.020137 0
M  V30 25629 H 2445.83 4.59941 2.72687 0
M  V30 25630 H 2446.17 2.90587 2.98102 0
M  V30 25631 H 2446.71 3.69399 1.47613 0
M  V30 25632 H 2443.45 6.53447 0.518378 0
M  V30 25633 H 2442.97 5.65831 1.98987 0
M  V30 25634 H 2444.65 6.21774 1.78904 0
M  V30 25635 N 2444.78 -0.38549 1.52813 0
M  V30 25636 C 2446.19 -0.963265 1.59932 0
M  V30 25637 C 2446.54 -1.90867 0.454335 0
M  V30 25638 O 2445.66 -2.12244 -0.422094 0
M  V30 25639 C 2446.26 -1.75381 2.89874 0
M  V30 25640 C 2444.82 -2.28124 2.99393 0
M  V30 25641 C 2443.97 -1.08779 2.55073 0
M  V30 25642 H 2446.92 -0.164921 1.57841 0
M  V30 25643 H 2446.94 -2.61336 2.76557 0
M  V30 25644 H 2446.45 -1.06548 3.73188 0
M  V30 25645 H 2444.55 -3.00259 2.20624 0
M  V30 25646 H 2444.66 -2.5737 4.04101 0
M  V30 25647 H 2443.03 -1.44886 2.09476 0
M  V30 25648 H 2443.81 -0.414747 3.40785 0
M  V30 25649 N 2446.26 -1.43835 -0.644143 0
M  V30 25650 C 2447.5 -1.46149 -1.406 0
M  V30 25651 C 2447.83 -0.0888058 -1.93997 0
M  V30 25652 O 2447.11 0.891693 -1.72856 0
M  V30 25653 C 2447.39 -2.51129 -2.58082 0
M  V30 25654 C 2447.25 -3.97706 -2.10119 0
M  V30 25655 C 2448.56 -2.52748 -3.60287 0
M  V30 25656 H 2445.68 -0.532143 -0.509895 0
M  V30 25657 H 2448.33 -1.75439 -0.729472 0
M  V30 25658 H 2446.48 -2.26284 -3.15797 0
M  V30 25659 H 2448.15 -4.3364 -1.57334 0
M  V30 25660 H 2446.39 -4.10104 -1.41411 0
M  V30 25661 H 2447.06 -4.66788 -2.9464 0
M  V30 25662 H 2449.54 -2.74915 -3.12347 0
M  V30 25663 H 2448.41 -3.28128 -4.40026 0
M  V30 25664 H 2448.67 -1.56462 -4.13488 0
M  V30 25665 N 2447.73 0.883355 -1.30517 0
M  V30 25666 C 2448.98 1.63207 -1.19197 0
M  V30 25667 C 2449.3 1.9335 0.253171 0
M  V30 25668 O 2448.57 1.57107 1.17022 0
M  V30 25669 H 2447.15 0.605001 -0.438158 0
M  V30 25670 H 2449.81 1.05829 -1.63665 0
M  V30 25671 H 2448.91 2.5815 -1.754 0
M  V30 25672 N 2449.21 1.13259 1.09591 0
M  V30 25673 C 2450.14 0.766205 2.16014 0
M  V30 25674 C 2451.16 -0.211274 1.61423 0
M  V30 25675 O 2452.35 0.00867083 1.78498 0
M  V30 25676 C 2449.45 0.114722 3.38706 0
M  V30 25677 C 2448.62 1.12387 4.22715 0
M  V30 25678 C 2447.68 0.498393 5.23834 0
M  V30 25679 O 2446.7 1.15791 5.57298 0
M  V30 25680 N 2447.91 -0.730316 5.75888 0
M  V30 25681 H 2450.67 1.68197 2.48052 0
M  V30 25682 H 2448.23 1.02537 1.25291 0
M  V30 25683 H 2450.22 -0.31592 4.03465 0
M  V30 25684 H 2448.79 -0.703957 3.04571 0
M  V30 25685 H 2448.01 1.73186 3.54119 0
M  V30 25686 H 2449.3 1.80597 4.7567 0
M  V30 25687 H 2448.7 -1.28494 5.50913 0
M  V30 25688 H 2447.26 -1.10365 6.42388 0
M  V30 25689 N 2450.69 -1.27539 0.925834 0
M  V30 25690 C 2451.94 -1.94738 0.566126 0
M  V30 25691 C 2452.27 -1.72604 -0.890026 0
M  V30 25692 O 2451.54 -1.05402 -1.63465 0
M  V30 25693 C 2451.83 -3.48913 0.890601 0
M  V30 25694 C 2451.68 -3.80398 2.40037 0
M  V30 25695 C 2453 -4.38322 0.395178 0
M  V30 25696 H 2450.12 -0.707288 0.207152 0
M  V30 25697 H 2452.76 -1.50689 1.15727 0
M  V30 25698 H 2450.91 -3.86562 0.38752 0
M  V30 25699 H 2452.58 -3.5255 2.975 0
M  V30 25700 H 2450.82 -3.27015 2.85033 0
M  V30 25701 H 2451.5 -4.88105 2.57793 0
M  V30 25702 H 2453.97 -4.07813 0.826312 0
M  V30 25703 H 2452.85 -5.45024 0.651181 0
M  V30 25704 H 2453.11 -4.36447 -0.704721 0
M  V30 25705 N 2452.17 -0.691135 -1.41637 0
M  V30 25706 C 2453.4 -0.229127 -2.05627 0
M  V30 25707 C 2453.81 1.11996 -1.51994 0
M  V30 25708 O 2453.17 1.699 -0.666352 0
M  V30 25709 C 2453.22 -0.173346 -3.61084 0
M  V30 25710 O 2452.94 -1.46914 -4.12732 0
M  V30 25711 C 2454.44 0.310188 -4.42213 0
M  V30 25712 H 2451.66 -0.107545 -0.662325 0
M  V30 25713 H 2454.2 -0.94247 -1.81488 0
M  V30 25714 H 2452.36 0.490791 -3.84279 0
M  V30 25715 H 2452.77 -1.3533 -5.0674 0
M  V30 25716 H 2454.25 0.298099 -5.51194 0
M  V30 25717 H 2454.72 1.3483 -4.17992 0
M  V30 25718 H 2455.33 -0.322791 -4.24073 0
M  V30 25719 N 2453.65 1.51461 -0.435577 0
M  V30 25720 C 2454.92 1.94662 0.19133 0
M  V30 25721 C 2455.3 1.37414 1.60252 0
M  V30 25722 O 2454.65 0.560497 2.21519 0
M  V30 25723 C 2454.86 3.48582 0.170849 0
M  V30 25724 C 2456.21 4.2292 0.377283 0
M  V30 25725 O 2457.23 3.55328 0.249042 0
M  V30 25726 O 2456.09 5.42829 0.632375 0
M  V30 25727 H 2453.19 0.816572 0.130918 0
M  V30 25728 H 2455.73 1.62368 -0.493429 0
M  V30 25729 H 2454.5 3.82701 -0.815805 0
M  V30 25730 H 2454.13 3.87313 0.898591 0
M  V30 25731 N 2455.12 0.166873 1.56714 0
M  V30 25732 C 2456.35 -0.484905 2.00829 0
M  V30 25733 C 2456.76 -1.57646 1.04615 0
M  V30 25734 O 2456.11 -1.8366 0.0383524 0
M  V30 25735 C 2456.17 -1.12717 3.41372 0
M  V30 25736 C 2455.83 -0.177806 4.56654 0
M  V30 25737 C 2456.83 0.602161 5.16401 0
M  V30 25738 C 2454.51 -0.0749256 5.02244 0
M  V30 25739 C 2456.51 1.47225 6.20164 0
M  V30 25740 C 2454.19 0.798756 6.05857 0
M  V30 25741 C 2455.19 1.57093 6.64688 0
M  V30 25742 O 2454.88 2.43002 7.66293 0
M  V30 25743 H 2454.61 -0.128941 0.663589 0
M  V30 25744 H 2457.17 0.264401 2.03691 0
M  V30 25745 H 2455.4 -1.92451 3.35409 0
M  V30 25746 H 2457.09 -1.6807 3.69469 0
M  V30 25747 H 2457.85 0.532825 4.82064 0
M  V30 25748 H 2453.73 -0.665732 4.56168 0
M  V30 25749 H 2457.27 2.07543 6.66012 0
M  V30 25750 H 2453.17 0.869311 6.3962 0
M  V30 25751 H 2453.94 2.36469 7.83597 0
M  V30 25752 N 2456.6 -1.57237 -0.106866 0
M  V30 25753 C 2457.85 -1.85119 -0.810889 0
M  V30 25754 C 2458.17 -0.753858 -1.79839 0
M  V30 25755 O 2457.44 0.221022 -1.94649 0
M  V30 25756 H 2456.02 -0.68303 -0.302454 0
M  V30 25757 H 2458.68 -1.94686 -0.0912982 0
M  V30 25758 H 2457.78 -2.81454 -1.3487 0
M  V30 25759 N 2458.08 0.377381 -1.53015 0
M  V30 25760 C 2459.33 1.12125 -1.68625 0
M  V30 25761 C 2459.66 1.89641 -0.43203 0
M  V30 25762 O 2458.91 1.86726 0.585822 0
M  V30 25763 C 2459.21 2.11657 -2.87986 0
M  V30 25764 C 2458.88 1.50711 -4.24967 0
M  V30 25765 C 2457.54 1.33817 -4.62219 0
M  V30 25766 C 2459.89 1.0651 -5.10201 0
M  V30 25767 C 2457.22 0.712861 -5.82353 0
M  V30 25768 C 2459.57 0.453844 -6.3097 0
M  V30 25769 C 2458.23 0.272294 -6.66944 0
M  V30 25770 H 2457.5 0.410294 -0.617041 0
M  V30 25771 H 2460.15 0.404452 -1.8718 0
M  V30 25772 H 2458.46 2.89598 -2.63894 0
M  V30 25773 H 2460.15 2.69145 -2.97258 0
M  V30 25774 H 2456.74 1.64851 -3.95629 0
M  V30 25775 H 2460.93 1.1836 -4.8198 0
M  V30 25776 H 2456.18 0.560504 -6.08825 0
M  V30 25777 H 2460.36 0.103094 -6.96324 0
M  V30 25778 H 2457.98 -0.214314 -7.59898 0
M  V30 25779 N 2459.56 1.44175 0.636506 0
M  V30 25780 C 2460.49 1.53447 1.76 0
M  V30 25781 C 2461.47 0.38787 1.65619 0
M  V30 25782 O 2462.65 0.607289 1.8446 0
M  V30 25783 C 2459.78 1.47315 3.14508 0
M  V30 25784 C 2458.74 2.60397 3.39673 0
M  V30 25785 C 2458.06 2.39317 4.78154 0
M  V30 25786 C 2459.36 4.02573 3.32765 0
M  V30 25787 H 2461.06 2.47486 1.68497 0
M  V30 25788 H 2458.6 1.19112 0.809216 0
M  V30 25789 H 2460.56 1.52404 3.92875 0
M  V30 25790 H 2459.28 0.497906 3.22782 0
M  V30 25791 H 2457.94 2.54689 2.63684 0
M  V30 25792 H 2457.59 1.39997 4.83125 0
M  V30 25793 H 2457.29 3.1513 4.9595 0
M  V30 25794 H 2458.81 2.46215 5.58758 0
M  V30 25795 H 2460.23 4.09679 4.01044 0
M  V30 25796 H 2458.62 4.78547 3.62096 0
M  V30 25797 H 2459.69 4.26524 2.30662 0
M  V30 25798 N 2461.04 -0.876421 1.30983 0
M  V30 25799 C 2461.98 -2.00441 1.18009 0
M  V30 25800 C 2462.98 -1.69161 0.0899169 0
M  V30 25801 O 2464.18 -1.78236 0.251364 0
M  V30 25802 H 2460.56 -0.657364 0.365207 0
M  V30 25803 H 2462.53 -2.08516 2.13456 0
M  V30 25804 C 2461.28 -3.35915 0.89758 0
M  V30 25805 H 2460.6 -3.60501 1.72856 0
M  V30 25806 H 2462.04 -4.15455 0.846947 0
M  V30 25807 C 2460.5 -3.34522 -0.399616 0
M  V30 25808 O 2461.03 -3.75823 -1.41845 0
M  V30 25809 N 2459.24 -2.87638 -0.413842 0
M  V30 25810 H 2458.78 -2.54223 0.415755 0
M  V30 25811 H 2458.74 -2.87089 -1.2817 0
M  V30 25812 N 2462.51 -1.13839 -1.08989 0
M  V30 25813 C 2463.44 -0.842545 -2.17769 0
M  V30 25814 C 2464.43 0.199981 -1.6892 0
M  V30 25815 O 2465.61 0.0579389 -1.94114 0
M  V30 25816 C 2462.74 -0.312705 -3.45889 0
M  V30 25817 C 2461.69 -1.28999 -4.08097 0
M  V30 25818 C 2461.02 -0.619716 -5.31097 0
M  V30 25819 C 2462.32 -2.65013 -4.50073 0
M  V30 25820 H 2464.01 -1.75217 -2.42774 0
M  V30 25821 H 2461.56 -0.843895 -1.16681 0
M  V30 25822 H 2463.51 -0.0933784 -4.21297 0
M  V30 25823 H 2462.24 0.632326 -3.2042 0
M  V30 25824 H 2460.9 -1.49539 -3.34714 0
M  V30 25825 H 2460.54 0.330931 -5.0191 0
M  V30 25826 H 2460.24 -1.27177 -5.73672 0
M  V30 25827 H 2461.77 -0.409776 -6.09223 0
M  V30 25828 H 2463.18 -2.48416 -5.16684 0
M  V30 25829 H 2461.58 -3.26436 -5.03547 0
M  V30 25830 H 2462.65 -3.22338 -3.62252 0
M  V30 25831 N 2463.99 1.27046 -0.932584 0
M  V30 25832 C 2465.24 1.93764 -0.574456 0
M  V30 25833 C 2465.56 1.73609 0.887963 0
M  V30 25834 O 2464.83 1.08668 1.62997 0
M  V30 25835 H 2463.41 0.717031 -0.209463 0
M  V30 25836 H 2466.07 1.54658 -1.18604 0
M  V30 25837 H 2465.17 3.02069 -0.784894 0
M  V30 25838 N 2465.47 0.698636 1.41269 0
M  V30 25839 C 2466.72 0.230445 2.00782 0
M  V30 25840 C 2467.04 -1.17503 1.55622 0
M  V30 25841 O 2466.31 -1.79345 0.788181 0
M  V30 25842 H 2464.89 0.0822075 0.742463 0
M  V30 25843 H 2467.55 0.90048 1.72851 0
M  V30 25844 H 2466.65 0.250265 3.11095 0
M  V30 25845 N 2466.95 -1.51228 0.443603 0
M  V30 25846 C 2468.18 -2.06556 -0.119253 0
M  V30 25847 C 2468.59 -1.3104 -1.35919 0
M  V30 25848 O 2467.95 -0.371736 -1.78674 0
M  V30 25849 C 2468 -3.58871 -0.435165 0
M  V30 25850 O 2467.72 -4.31535 0.755562 0
M  V30 25851 C 2469.22 -4.30734 -1.04801 0
M  V30 25852 H 2466.44 -0.67098 -0.0051466 0
M  V30 25853 H 2468.99 -1.94732 0.624487 0
M  V30 25854 H 2467.14 -3.7059 -1.12881 0
M  V30 25855 H 2467.55 -5.22266 0.483582 0
M  V30 25856 H 2469.03 -5.38372 -1.21901 0
M  V30 25857 H 2469.51 -3.89432 -2.03074 0
M  V30 25858 H 2470.11 -4.23475 -0.393562 0
M  V30 25859 N 2468.43 -0.175182 -1.56623 0
M  V30 25860 C 2469.84 0.340884 -1.83562 0
M  V30 25861 C 2470.19 1.62792 -1.09514 0
M  V30 25862 O 2469.31 2.1356 -0.349426 0
M  V30 25863 C 2469.91 0.625255 -3.3298 0
M  V30 25864 C 2468.47 1.08575 -3.604 0
M  V30 25865 C 2467.61 0.123673 -2.77024 0
M  V30 25866 H 2470.57 -0.399371 -1.53593 0
M  V30 25867 H 2470.59 1.47688 -3.50669 0
M  V30 25868 H 2470.1 -0.311643 -3.86847 0
M  V30 25869 H 2468.2 2.03761 -3.11949 0
M  V30 25870 H 2468.31 0.992235 -4.68713 0
M  V30 25871 H 2466.68 0.621778 -2.46994 0
M  V30 25872 H 2467.46 -0.807314 -3.33672 0
M  V30 25873 N 2469.91 1.57292 0.0985263 0
M  V30 25874 C 2471.13 1.90117 0.816285 0
M  V30 25875 C 2471.55 0.768539 1.7245 0
M  V30 25876 O 2470.91 -0.259655 1.80643 0
M  V30 25877 C 2470.96 3.22538 1.63253 0
M  V30 25878 O 2470.68 4.31442 0.760859 0
M  V30 25879 C 2472.18 3.69203 2.45365 0
M  V30 25880 H 2469.4 0.629031 0.233584 0
M  V30 25881 H 2471.94 2.04356 0.076787 0
M  V30 25882 H 2470.1 3.09907 2.32457 0
M  V30 25883 H 2470.51 5.07466 1.32586 0
M  V30 25884 H 2471.99 4.64563 2.98136 0
M  V30 25885 H 2472.46 2.96873 3.23672 0
M  V30 25886 H 2473.07 3.8469 1.81367 0
M  V30 25887 N 2471.38 -0.369261 1.53213 0
M  V30 25888 C 2472.33 -1.45215 1.79391 0
M  V30 25889 C 2473.3 -1.53355 0.638086 0
M  V30 25890 O 2474.49 -1.69301 0.879882 0
M  V30 25891 C 2471.63 -2.82208 1.98628 0
M  V30 25892 C 2470.74 -2.83064 3.26342 0
M  V30 25893 C 2469.87 -4.11608 3.35786 0
M  V30 25894 C 2468.91 -4.06593 4.57547 0
M  V30 25895 N 2468.05 -5.26779 4.64164 0
M  V30 25896 H 2472.89 -1.22193 2.71796 0
M  V30 25897 H 2470.43 -0.592421 1.34643 0
M  V30 25898 H 2472.38 -3.61785 2.07767 0
M  V30 25899 H 2471.01 -3.03638 1.09563 0
M  V30 25900 H 2470.07 -1.95741 3.26174 0
M  V30 25901 H 2471.38 -2.7523 4.15993 0
M  V30 25902 H 2470.53 -4.996 3.44217 0
M  V30 25903 H 2469.27 -4.22191 2.44144 0
M  V30 25904 H 2468.28 -3.16988 4.4922 0
M  V30 25905 H 2469.5 -3.97615 5.50526 0
M  V30 25906 H 2467.45 -5.37954 3.75422 0
M  V30 25907 H 2467.36 -5.21099 5.47715 0
M  V30 25908 H 2468.63 -6.16613 4.76874 0
M  V30 25909 N 2472.86 -1.4451 -0.628851 0
M  V30 25910 C 2474.28 -1.28447 -0.947283 0
M  V30 25911 C 2474.48 -0.221907 -2.00274 0
M  V30 25912 O 2473.53 0.391427 -2.49448 0
M  V30 25913 C 2474.85 -2.65678 -1.40839 0
M  V30 25914 C 2476.39 -2.73406 -1.52374 0
M  V30 25915 C 2476.87 -4.11112 -2.01868 0
M  V30 25916 N 2478.36 -4.133 -2.09134 0
M  V30 25917 C 2479.1 -5.16704 -2.48606 0
M  V30 25918 N 2478.59 -6.30467 -2.87198 0
M  V30 25919 N 2480.38 -5.04059 -2.4876 0
M  V30 25920 H 2472.54 -2.12287 0.069135 0
M  V30 25921 H 2474.8 -0.94747 -0.0316998 0
M  V30 25922 H 2474.5 -3.44518 -0.707145 0
M  V30 25923 H 2474.38 -2.9272 -2.37897 0
M  V30 25924 H 2476.77 -1.94884 -2.21595 0
M  V30 25925 H 2476.85 -2.50103 -0.536855 0
M  V30 25926 H 2476.49 -4.90111 -1.33242 0
M  V30 25927 H 2476.42 -4.31794 -3.01432 0
M  V30 25928 H 2478.91 -3.31195 -1.81985 0
M  V30 25929 H 2479.22 -7.05179 -3.16136 0
M  V30 25930 H 2477.57 -6.33902 -2.84944 0
M  V30 25931 H 2480.76 -4.14237 -2.18002 0
M  V30 25932 H 2480.93 -5.84768 -2.79197 0
M  V30 25933 N 2474.34 0.869463 -1.31446 0
M  V30 25934 C 2475.27 1.9799 -1.13469 0
M  V30 25935 C 2476.25 1.62555 -0.0380577 0
M  V30 25936 O 2477.43 1.87493 -0.194577 0
M  V30 25937 C 2474.56 3.30654 -0.73388 0
M  V30 25938 C 2473.61 3.85072 -1.83362 0
M  V30 25939 S 2474.44 4.10466 -3.43916 0
M  V30 25940 C 2475.6 5.46126 -3.05773 0
M  V30 25941 H 2475.83 2.12936 -2.07474 0
M  V30 25942 H 2473.36 1.0197 -1.15937 0
M  V30 25943 H 2475.32 4.07327 -0.509378 0
M  V30 25944 H 2473.98 3.13542 0.187068 0
M  V30 25945 H 2473.17 4.80979 -1.50582 0
M  V30 25946 H 2472.78 3.15192 -2.01321 0
M  V30 25947 H 2475.07 6.27802 -2.54697 0
M  V30 25948 H 2476.01 5.83857 -4.00646 0
M  V30 25949 H 2476.42 5.09425 -2.43201 0
M  V30 25950 N 2475.82 1.14415 1.08383 0
M  V30 25951 C 2476.75 0.854082 2.17319 0
M  V30 25952 C 2477.73 -0.19102 1.69024 0
M  V30 25953 O 2478.91 -0.0476438 1.94142 0
M  V30 25954 C 2476.04 0.331044 3.45719 0
M  V30 25955 C 2475 1.31162 4.07407 0
M  V30 25956 C 2474.32 0.647873 5.3076 0
M  V30 25957 C 2475.62 2.67396 4.48661 0
M  V30 25958 H 2477.32 1.76502 2.41842 0
M  V30 25959 H 2474.86 0.850071 1.16232 0
M  V30 25960 H 2476.82 0.115719 4.21241 0
M  V30 25961 H 2475.54 -0.615324 3.20751 0
M  V30 25962 H 2474.2 1.51312 3.33917 0
M  V30 25963 H 2473.85 -0.304309 5.02079 0
M  V30 25964 H 2473.55 1.30217 5.7299 0
M  V30 25965 H 2475.07 0.442079 6.08998 0
M  V30 25966 H 2476.49 2.51153 5.15359 0
M  V30 25967 H 2474.88 3.29102 5.01809 0
M  V30 25968 H 2475.95 3.24254 3.60537 0
M  V30 25969 N 2477.3 -1.26549 0.939309 0
M  V30 25970 C 2478.23 -2.24812 0.391742 0
M  V30 25971 C 2479.21 -1.54115 -0.518394 0
M  V30 25972 O 2480.39 -1.82895 -0.456267 0
M  V30 25973 C 2477.52 -3.35865 -0.437323 0
M  V30 25974 C 2476.56 -4.24515 0.411021 0
M  V30 25975 S 2477.4 -5.03122 1.83381 0
M  V30 25976 C 2478.55 -6.17652 1.01274 0
M  V30 25977 H 2478.79 -2.70911 1.22453 0
M  V30 25978 H 2476.32 -1.35386 0.742292 0
M  V30 25979 H 2478.28 -4.00292 -0.909766 0
M  V30 25980 H 2476.94 -2.88382 -1.24477 0
M  V30 25981 H 2476.13 -5.03502 -0.224103 0
M  V30 25982 H 2475.73 -3.64943 0.818078 0
M  V30 25983 H 2478.02 -6.77023 0.254142 0
M  V30 25984 H 2478.97 -6.85466 1.77601 0
M  V30 25985 H 2479.38 -5.61818 0.549631 0
M  V30 25986 N 2478.77 -0.706118 -1.40896 0
M  V30 25987 C 2480 -0.250559 -2.05075 0
M  V30 25988 C 2480.41 1.10919 -1.53277 0
M  V30 25989 O 2479.75 1.70638 -0.680311 0
M  V30 25990 C 2479.82 -0.142242 -3.59218 0
M  V30 25991 C 2479.48 -1.43573 -4.33861 0
M  V30 25992 C 2480.48 -2.37575 -4.62444 0
M  V30 25993 C 2478.16 -1.69203 -4.72943 0
M  V30 25994 C 2480.16 -3.55459 -5.29082 0
M  V30 25995 C 2477.84 -2.87371 -5.39315 0
M  V30 25996 C 2478.84 -3.80322 -5.67313 0
M  V30 25997 O 2478.53 -4.96419 -6.32316 0
M  V30 25998 H 2478.26 -0.112086 -0.666643 0
M  V30 25999 H 2480.82 -0.962271 -1.81465 0
M  V30 26000 H 2479.05 0.625332 -3.8161 0
M  V30 26001 H 2480.73 0.277513 -4.0495 0
M  V30 26002 H 2481.5 -2.19034 -4.32723 0
M  V30 26003 H 2477.38 -0.977121 -4.50526 0
M  V30 26004 H 2480.92 -4.28028 -5.50852 0
M  V30 26005 H 2476.82 -3.05824 -5.68456 0
M  V30 26006 H 2477.59 -4.96372 -6.50813 0
M  V30 26007 N 2480.25 1.50991 -0.451617 0
M  V30 26008 C 2481.2 2.29689 0.366823 0
M  V30 26009 C 2482.19 1.36141 1.00807 0
M  V30 26010 O 2483.4 1.5342 0.9414 0
M  V30 26011 H 2479.77 0.739393 0.13712 0
M  V30 26012 H 2481.75 2.96705 -0.317591 0
M  V30 26013 C 2480.49 3.16139 1.44746 0
M  V30 26014 H 2479.82 3.88019 0.963405 0
M  V30 26015 H 2481.26 3.74235 1.99308 0
M  V30 26016 C 2479.72 2.32446 2.43865 0
M  V30 26017 O 2480.25 1.99398 3.48717 0
M  V30 26018 N 2478.45 1.95396 2.15102 0
M  V30 26019 H 2478 2.22471 1.29862 0
M  V30 26020 H 2477.96 1.39698 2.81659 0
M  V30 26021 N 2481.73 0.183486 1.56528 0
M  V30 26022 C 2482.98 -0.458323 1.97245 0
M  V30 26023 C 2483.3 -1.62427 1.06995 0
M  V30 26024 O 2482.56 -1.9541 0.106576 0
M  V30 26025 C 2482.86 -0.971577 3.43941 0
M  V30 26026 C 2482.52 0.0797577 4.50829 0
M  V30 26027 C 2481.19 0.368668 4.79786 0
M  V30 26028 C 2483.54 0.792729 5.15136 0
M  V30 26029 C 2480.87 1.37573 5.70343 0
M  V30 26030 C 2483.22 1.78886 6.06781 0
M  V30 26031 C 2481.88 2.08509 6.34098 0
M  V30 26032 H 2481.15 -0.167712 0.721771 0
M  V30 26033 H 2483.8 0.278009 1.89471 0
M  V30 26034 H 2482.1 -1.78596 3.48727 0
M  V30 26035 H 2483.8 -1.47737 3.72793 0
M  V30 26036 H 2480.39 -0.155593 4.28317 0
M  V30 26037 H 2484.58 0.582745 4.92867 0
M  V30 26038 H 2479.83 1.61128 5.89786 0
M  V30 26039 H 2484.01 2.34661 6.55673 0
M  V30 26040 H 2481.63 2.8669 7.04069 0
M  V30 26041 N 2483.21 -1.57342 -0.0901833 0
M  V30 26042 C 2484.62 -1.75236 -0.644142 0
M  V30 26043 C 2484.97 -0.806367 -1.78864 0
M  V30 26044 O 2484.09 0.0139747 -2.16395 0
M  V30 26045 C 2484.69 -3.17762 -1.17527 0
M  V30 26046 C 2483.25 -3.37064 -1.67525 0
M  V30 26047 C 2482.4 -2.71018 -0.586882 0
M  V30 26048 H 2485.35 -1.58117 0.135912 0
M  V30 26049 H 2485.37 -3.20906 -2.0445 0
M  V30 26050 H 2484.88 -3.8659 -0.34207 0
M  V30 26051 H 2482.98 -2.73324 -2.53229 0
M  V30 26052 H 2483.09 -4.45409 -1.76486 0
M  V30 26053 H 2481.46 -2.33054 -1.02752 0
M  V30 26054 H 2482.24 -3.42489 0.235818 0
M  V30 26055 N 2484.69 0.36113 -1.53407 0
M  V30 26056 C 2485.91 1.1238 -1.73719 0
M  V30 26057 C 2486.33 1.82903 -0.468193 0
M  V30 26058 O 2485.69 1.73723 0.559167 0
M  V30 26059 C 2485.74 2.15073 -2.90561 0
M  V30 26060 O 2485.46 1.47421 -4.12551 0
M  V30 26061 C 2486.96 3.03852 -3.22783 0
M  V30 26062 H 2484.18 0.335848 -0.580902 0
M  V30 26063 H 2486.72 0.418693 -2.00168 0
M  V30 26064 H 2484.88 2.81175 -2.66494 0
M  V30 26065 H 2485.29 2.15879 -4.78013 0
M  V30 26066 H 2486.77 3.7188 -4.07933 0
M  V30 26067 H 2487.24 3.68908 -2.38335 0
M  V30 26068 H 2487.85 2.43361 -3.48792 0
M  V30 26069 N 2486.16 1.44842 0.621179 0
M  V30 26070 C 2487.58 1.28948 0.940458 0
M  V30 26071 C 2487.78 0.232525 2.00154 0
M  V30 26072 O 2486.84 -0.378193 2.49652 0
M  V30 26073 C 2488.15 2.66421 1.39428 0
M  V30 26074 C 2489.7 2.74211 1.50922 0
M  V30 26075 C 2490.17 4.12177 1.99685 0
M  V30 26076 N 2491.66 4.14403 2.0694 0
M  V30 26077 C 2492.4 5.18015 2.45862 0
M  V30 26078 N 2491.89 6.31982 2.83851 0
M  V30 26079 N 2493.69 5.05371 2.46083 0
M  V30 26080 H 2485.84 2.12248 -0.0803921 0
M  V30 26081 H 2488.1 0.947625 0.0266747 0
M  V30 26082 H 2487.81 3.44888 0.688864 0
M  V30 26083 H 2487.68 2.93977 2.36341 0
M  V30 26084 H 2490.07 1.96057 2.20558 0
M  V30 26085 H 2490.15 2.50384 0.523583 0
M  V30 26086 H 2489.79 4.90811 1.30641 0
M  V30 26087 H 2489.72 4.33387 2.99138 0
M  V30 26088 H 2492.21 3.32155 1.80226 0
M  V30 26089 H 2492.53 7.06846 3.12392 0
M  V30 26090 H 2490.87 6.35404 2.81578 0
M  V30 26091 H 2494.06 4.15388 2.15802 0
M  V30 26092 H 2494.24 5.8624 2.76092 0
M  V30 26093 N 2487.64 -0.862479 1.31905 0
M  V30 26094 C 2488.61 -1.95193 1.20134 0
M  V30 26095 C 2489.61 -1.60302 0.126437 0
M  V30 26096 O 2490.8 -1.70088 0.376264 0
M  V30 26097 C 2487.93 -3.30242 0.845749 0
M  V30 26098 H 2489.12 -2.0706 2.16947 0
M  V30 26099 H 2486.67 -1.0517 1.15624 0
M  V30 26100 H 2487.41 -3.24075 -0.1209 0
M  V30 26101 H 2487.19 -3.56941 1.62282 0
M  V30 26102 H 2488.68 -4.10108 0.78749 0
M  V30 26103 N 2489.12 -1.14988 -1.07775 0
M  V30 26104 C 2490.37 -0.920266 -1.79932 0
M  V30 26105 C 2490.69 0.554303 -1.86956 0
M  V30 26106 O 2489.96 1.40289 -1.36733 0
M  V30 26107 H 2488.54 -0.337485 -0.666418 0
M  V30 26108 H 2491.2 -1.4497 -1.30267 0
M  V30 26109 H 2490.3 -1.32588 -2.82537 0
M  V30 26110 N 2490.6 1.26049 -0.946007 0
M  V30 26111 C 2491.53 2.2538 -0.416702 0
M  V30 26112 C 2492.54 1.56087 0.462684 0
M  V30 26113 O 2493.73 1.7641 0.272352 0
M  V30 26114 C 2490.83 3.3629 0.419753 0
M  V30 26115 C 2490.01 4.35134 -0.444608 0
M  V30 26116 C 2489.06 5.2515 0.332212 0
M  V30 26117 O 2488.09 5.68576 -0.266423 0
M  V30 26118 N 2489.29 5.57218 1.62753 0
M  V30 26119 H 2492.06 2.71431 -1.27064 0
M  V30 26120 H 2489.62 1.39866 -0.815417 0
M  V30 26121 H 2491.61 3.93465 0.946944 0
M  V30 26122 H 2490.18 2.89696 1.17451 0
M  V30 26123 H 2489.4 3.76962 -1.15297 0
M  V30 26124 H 2490.69 4.98164 -1.03487 0
M  V30 26125 H 2490.09 5.23826 2.13594 0
M  V30 26126 H 2488.64 6.17015 2.10086 0
M  V30 26127 N 2492.08 0.71358 1.4052 0
M  V30 26128 C 2493.32 0.25662 2.02783 0
M  V30 26129 C 2493.68 -1.12824 1.55354 0
M  V30 26130 O 2494.88 -1.68207 2.09666 0
M  V30 26131 C 2493.15 0.331476 3.5586 0
M  V30 26132 S 2494.71 -0.0487932 4.38773 0
M  V30 26133 H 2491.53 0.101946 0.703653 0
M  V30 26134 H 2494.13 0.935355 1.71672 0
M  V30 26135 H 2492.84 1.34105 3.87871 0
M  V30 26136 H 2492.37 -0.365805 3.91696 0
M  V30 26137 H 2494.38 -1.27141 4.79635 0
M  V30 26138 N 2493.55 -1.50749 0.459618 0
M  V30 26139 C 2494.8 -2.01857 -0.0991177 0
M  V30 26140 C 2495.12 -1.34443 -1.41245 0
M  V30 26141 O 2494.39 -0.486055 -1.89774 0
M  V30 26142 H 2492.97 -0.745949 -0.0396199 0
M  V30 26143 H 2495.64 -1.85193 0.60742 0
M  V30 26144 H 2494.73 -3.11024 -0.258943 0
M  V30 26145 N 2495.03 -0.191784 -1.56429 0
M  V30 26146 C 2496.28 0.446971 -1.97095 0
M  V30 26147 C 2496.6 1.62381 -1.0797 0
M  V30 26148 O 2495.87 1.95323 -0.150282 0
M  V30 26149 H 2494.45 0.168122 -0.727835 0
M  V30 26150 H 2497.11 -0.277744 -1.92911 0
M  V30 26151 H 2496.21 0.793318 -3.01849 0
M  V30 26152 N 2496.51 1.57387 0.0818378 0
M  V30 26153 C 2497.76 1.87031 0.784041 0
M  V30 26154 C 2498.09 0.78272 1.77728 0
M  V30 26155 O 2497.36 -0.208017 1.93384 0
M  V30 26156 C 2497.65 3.27326 1.50099 0
M  V30 26157 C 2497.5 4.46727 0.524847 0
M  V30 26158 C 2498.82 3.65709 2.44837 0
M  V30 26159 H 2495.94 0.680262 0.28357 0
M  V30 26160 H 2498.58 1.89941 0.0474019 0
M  V30 26161 H 2496.73 3.24976 2.12891 0
M  V30 26162 H 2498.4 4.61198 -0.0970922 0
M  V30 26163 H 2496.65 4.33502 -0.160682 0
M  V30 26164 H 2497.32 5.4165 1.06391 0
M  V30 26165 H 2499.79 3.69088 1.92128 0
M  V30 26166 H 2498.67 4.64781 2.9201 0
M  V30 26167 H 2498.93 2.95101 3.29192 0
M  V30 26168 N 2497.99 -0.35299 1.53596 0
M  V30 26169 C 2498.92 -1.4388 1.83904 0
M  V30 26170 C 2499.9 -1.55323 0.693448 0
M  V30 26171 O 2501.08 -1.69686 0.944482 0
M  V30 26172 C 2498.21 -2.81057 2.04021 0
M  V30 26173 C 2497.17 -2.84428 3.19819 0
M  V30 26174 C 2496.49 -4.244 3.25252 0
M  V30 26175 C 2497.79 -2.50814 4.58137 0
M  V30 26176 H 2499.49 -1.18765 2.74837 0
M  V30 26177 H 2497.03 -0.569894 1.32243 0
M  V30 26178 H 2498.99 -3.57055 2.23807 0
M  V30 26179 H 2497.71 -3.07586 1.0981 0
M  V30 26180 H 2496.37 -2.10882 2.99874 0
M  V30 26181 H 2496.02 -4.48025 2.28654 0
M  V30 26182 H 2495.72 -4.27569 4.03061 0
M  V30 26183 H 2497.24 -5.02254 3.47237 0
M  V30 26184 H 2498.66 -3.16526 4.78001 0
M  V30 26185 H 2497.05 -2.65281 5.38281 0
M  V30 26186 H 2498.12 -1.46026 4.6239 0
M  V30 26187 N 2499.47 -1.45169 -0.613489 0
M  V30 26188 C 2500.4 -1.47874 -1.73806 0
M  V30 26189 C 2501.38 -0.335708 -1.59097 0
M  V30 26190 O 2502.56 -0.53533 -1.80739 0
M  V30 26191 C 2499.69 -1.32818 -3.11572 0
M  V30 26192 C 2498.74 -2.50911 -3.44885 0
M  V30 26193 S 2499.57 -4.13398 -3.40386 0
M  V30 26194 C 2500.72 -4.00797 -4.80742 0
M  V30 26195 H 2500.96 -2.43026 -1.71248 0
M  V30 26196 H 2498.49 -1.32681 -0.789635 0
M  V30 26197 H 2500.45 -1.24819 -3.91063 0
M  V30 26198 H 2499.11 -0.391473 -3.11651 0
M  V30 26199 H 2498.3 -2.36287 -4.45179 0
M  V30 26200 H 2497.9 -2.55741 -2.72896 0
M  V30 26201 H 2500.2 -3.65577 -5.70403 0
M  V30 26202 H 2501.14 -5.00983 -5.00422 0
M  V30 26203 H 2501.55 -3.32553 -4.56145 0
M  V30 26204 N 2500.95 0.855472 -1.32361 0
M  V30 26205 C 2502.17 1.64729 -1.26013 0
M  V30 26206 C 2502.6 1.87339 0.169035 0
M  V30 26207 O 2501.95 1.42558 1.12013 0
M  V30 26208 C 2502 2.98425 -2.02422 0
M  V30 26209 O 2501.11 3.88927 -1.37147 0
M  V30 26210 H 2500.45 0.502245 -0.434334 0
M  V30 26211 H 2502.98 1.06555 -1.74663 0
M  V30 26212 H 2502.99 3.48253 -2.12565 0
M  V30 26213 H 2501.66 2.8129 -3.06348 0
M  V30 26214 H 2500.24 3.47393 -1.35546 0
M  V30 26215 N 2502.42 1.15558 1.07164 0
M  V30 26216 C 2503.65 0.955551 1.83512 0
M  V30 26217 C 2504.07 -0.496178 1.82163 0
M  V30 26218 O 2503.42 -1.34417 1.23443 0
M  V30 26219 C 2503.47 1.46438 3.30512 0
M  V30 26220 O 2503.2 2.85924 3.31932 0
M  V30 26221 C 2504.7 1.3061 4.23622 0
M  V30 26222 H 2501.92 0.339254 0.57892 0
M  V30 26223 H 2504.46 1.53376 1.35263 0
M  V30 26224 H 2502.62 0.92865 3.76105 0
M  V30 26225 H 2503.03 3.09036 4.23789 0
M  V30 26226 H 2504.5 1.71056 5.24828 0
M  V30 26227 H 2504.98 0.250518 4.38485 0
M  V30 26228 H 2505.59 1.83101 3.83867 0
M  V30 26229 N 2503.9 -1.25546 0.952678 0
M  V30 26230 C 2505.15 -1.92825 0.605209 0
M  V30 26231 C 2505.47 -1.75 -0.860231 0
M  V30 26232 O 2504.74 -1.11247 -1.61248 0
M  V30 26233 H 2503.32 -0.713608 0.220844 0
M  V30 26234 H 2505.98 -1.52751 1.2105 0
M  V30 26235 H 2505.08 -3.00782 0.832851 0
M  V30 26236 N 2505.38 -0.721022 -1.40139 0
M  V30 26237 C 2506.33 -0.0719595 -2.30688 0
M  V30 26238 C 2507.3 0.744558 -1.48477 0
M  V30 26239 O 2508.48 0.707391 -1.77202 0
M  V30 26240 C 2505.62 0.839796 -3.34726 0
M  V30 26241 C 2504.73 0.0121679 -4.31998 0
M  V30 26242 C 2503.87 0.923903 -5.23104 0
M  V30 26243 C 2502.91 0.0906894 -6.12033 0
M  V30 26244 N 2502.05 0.957596 -6.95539 0
M  V30 26245 H 2506.89 -0.849805 -2.85626 0
M  V30 26246 H 2504.42 -0.43075 -1.40652 0
M  V30 26247 H 2506.38 1.38272 -3.9362 0
M  V30 26248 H 2505.01 1.58376 -2.81277 0
M  V30 26249 H 2504.06 -0.648006 -3.7484 0
M  V30 26250 H 2505.37 -0.632682 -4.94771 0
M  V30 26251 H 2504.53 1.53517 -5.86956 0
M  V30 26252 H 2503.27 1.60256 -4.60618 0
M  V30 26253 H 2502.27 -0.533473 -5.47206 0
M  V30 26254 H 2503.5 -0.584547 -6.7658 0
M  V30 26255 H 2501.44 1.6218 -6.35636 0
M  V30 26256 H 2501.36 0.368907 -7.55099 0
M  V30 26257 H 2502.63 1.55487 -7.63835 0
M  V30 26258 N 2506.86 1.50503 -0.467606 0
M  V30 26259 C 2508.1 2.02606 0.0887176 0
M  V30 26260 C 2508.44 1.34915 1.39683 0
M  V30 26261 O 2507.71 0.473727 1.88643 0
M  V30 26262 C 2507.99 3.5904 0.276143 0
M  V30 26263 C 2507.85 4.37307 -1.05275 0
M  V30 26264 C 2509.17 4.27823 1.03227 0
M  V30 26265 H 2506.29 0.736357 0.0307684 0
M  V30 26266 H 2508.93 1.79856 -0.612517 0
M  V30 26267 H 2507.08 3.78554 0.873433 0
M  V30 26268 H 2508.75 4.29372 -1.68635 0
M  V30 26269 H 2506.99 4.01186 -1.65022 0
M  V30 26270 H 2507.66 5.45016 -0.875293 0
M  V30 26271 H 2510.14 4.12761 0.526038 0
M  V30 26272 H 2509.02 5.37096 1.13221 0
M  V30 26273 H 2509.28 3.90751 2.06799 0
M  V30 26274 N 2508.34 0.200077 1.56325 0
M  V30 26275 C 2509.27 -0.713877 2.2232 0
M  V30 26276 C 2510.25 -1.2175 1.1879 0
M  V30 26277 O 2511.43 -1.26543 1.47311 0
M  V30 26278 C 2508.56 -1.93139 2.88643 0
M  V30 26279 C 2507.52 -1.56248 3.9846 0
M  V30 26280 C 2506.84 -2.85701 4.51972 0
M  V30 26281 C 2508.14 -0.768656 5.16613 0
M  V30 26282 H 2509.84 -0.163702 2.98952 0
M  V30 26283 H 2507.38 -0.0772966 1.43792 0
M  V30 26284 H 2509.33 -2.57602 3.33495 0
M  V30 26285 H 2508.06 -2.50618 2.09424 0
M  V30 26286 H 2506.72 -0.941409 3.54306 0
M  V30 26287 H 2506.37 -3.4128 3.69509 0
M  V30 26288 H 2506.07 -2.61761 5.26075 0
M  V30 26289 H 2507.59 -3.51145 4.99529 0
M  V30 26290 H 2509 -1.3165 5.57979 0
M  V30 26291 H 2507.4 -0.627181 5.96814 0
M  V30 26292 H 2508.47 0.229253 4.84358 0
M  V30 26293 N 2509.81 -1.57429 -0.0734901 0
M  V30 26294 C 2511.06 -1.86797 -0.77144 0
M  V30 26295 C 2511.38 -0.791835 -1.78199 0
M  V30 26296 O 2510.65 0.179684 -1.95074 0
M  V30 26297 H 2509.23 -0.689292 -0.287898 0
M  V30 26298 H 2511.89 -1.94836 -0.0499818 0
M  V30 26299 H 2510.99 -2.84252 -1.28869 0
M  V30 26300 N 2511.29 0.344839 -1.53781 0
M  V30 26301 C 2512.54 1.08264 -1.70181 0
M  V30 26302 C 2512.85 1.89844 -0.471033 0
M  V30 26303 O 2514.06 2.66552 -0.515964 0
M  V30 26304 C 2512.52 1.97412 -3.00926 0
M  V30 26305 C 2512.12 1.21046 -4.31337 0
M  V30 26306 C 2513.87 2.71058 -3.26693 0
M  V30 26307 C 2511.77 2.09216 -5.53157 0
M  V30 26308 H 2510.7 0.407892 -0.634145 0
M  V30 26309 H 2513.36 0.342215 -1.80281 0
M  V30 26310 H 2511.74 2.75269 -2.84681 0
M  V30 26311 H 2512.91 0.481079 -4.58282 0
M  V30 26312 H 2511.23 0.59174 -4.12174 0
M  V30 26313 H 2513.82 3.37292 -4.14895 0
M  V30 26314 H 2514.17 3.37554 -2.43645 0
M  V30 26315 H 2514.7 2.00274 -3.43708 0
M  V30 26316 H 2511.44 1.47263 -6.38744 0
M  V30 26317 H 2510.96 2.79946 -5.30463 0
M  V30 26318 H 2512.64 2.68298 -5.88749 0
M  V30 26319 N 2512.77 1.45492 0.605781 0
M  V30 26320 C 2513.72 1.50727 1.71071 0
M  V30 26321 C 2514.7 0.370358 1.5658 0
M  V30 26322 O 2515.9 0.617328 1.65886 0
M  V30 26323 C 2513.02 1.47857 3.09828 0
M  V30 26324 C 2512.11 2.66757 3.29699 0
M  V30 26325 N 2512.5 3.9185 3.19824 0
M  V30 26326 C 2510.8 2.62492 3.60574 0
M  V30 26327 C 2511.5 4.71214 3.41075 0
M  V30 26328 N 2510.48 4.02699 3.6515 0
M  V30 26329 H 2514.28 2.45265 1.61932 0
M  V30 26330 H 2511.79 1.4081 0.809096 0
M  V30 26331 H 2513.79 1.49692 3.89099 0
M  V30 26332 H 2512.45 0.54377 3.20114 0
M  V30 26333 H 2513.46 4.23444 2.98187 0
M  V30 26334 H 2510.14 1.77928 3.77687 0
M  V30 26335 H 2511.53 5.80217 3.38818 0
M  V30 26336 N 2514.25 -0.848441 1.32813 0
M  V30 26337 C 2515.49 -1.60543 1.2391 0
M  V30 26338 C 2515.83 -1.93197 -0.197127 0
M  V30 26339 O 2515.1 -1.57882 -1.13593 0
M  V30 26340 C 2515.39 -2.92172 2.10494 0
M  V30 26341 C 2515.24 -2.6626 3.62527 0
M  V30 26342 C 2516.56 -3.93505 1.97082 0
M  V30 26343 H 2513.68 -0.582532 0.45147 0
M  V30 26344 H 2516.32 -0.979267 1.6282 0
M  V30 26345 H 2514.47 -3.45611 1.7744 0
M  V30 26346 H 2516.14 -2.19326 4.05825 0
M  V30 26347 H 2514.38 -2.00119 3.84883 0
M  V30 26348 H 2515.05 -3.60013 4.18443 0
M  V30 26349 H 2517.53 -3.49342 2.26051 0
M  V30 26350 H 2516.41 -4.83453 2.59932 0
M  V30 26351 H 2516.67 -4.31986 0.940262 0
M  V30 26352 N 2515.73 -1.16125 -1.06549 0
M  V30 26353 C 2516.97 -0.939299 -1.78946 0
M  V30 26354 C 2517.3 0.534443 -1.87533 0
M  V30 26355 O 2516.57 1.3883 -1.38213 0
M  V30 26356 H 2515.15 -0.344534 -0.662801 0
M  V30 26357 H 2517.81 -1.46344 -1.28722 0
M  V30 26358 H 2516.9 -1.35577 -2.81114 0
M  V30 26359 N 2517.2 1.25039 -0.959323 0
M  V30 26360 C 2518.45 1.92502 -0.615427 0
M  V30 26361 C 2518.77 1.75454 0.850938 0
M  V30 26362 O 2518.04 1.12101 1.60656 0
M  V30 26363 H 2516.62 0.712427 -0.224626 0
M  V30 26364 H 2519.29 1.52107 -1.21858 0
M  V30 26365 H 2518.38 3.00336 -0.84879 0
M  V30 26366 N 2518.68 0.728444 1.39755 0
M  V30 26367 C 2519.63 0.0732258 2.32485 0
M  V30 26368 C 2520.62 -0.733036 1.52718 0
M  V30 26369 O 2521.83 -0.634958 1.68429 0
M  V30 26370 H 2518.21 0.00487791 0.751984 0
M  V30 26371 H 2520.18 0.871811 2.8538 0
M  V30 26372 C 2518.93 -0.824848 3.37774 0
M  V30 26373 H 2518.25 -0.213844 3.99228 0
M  V30 26374 H 2519.69 -1.25103 4.05124 0
M  V30 26375 C 2518.15 -1.95617 2.74291 0
M  V30 26376 O 2518.68 -3.04822 2.61623 0
M  V30 26377 N 2516.88 -1.74363 2.32478 0
M  V30 26378 H 2516.43 -0.855451 2.42981 0
M  V30 26379 H 2516.39 -2.50235 1.90341 0
M  V30 26380 N 2520.16 -1.50253 0.475581 0
M  V30 26381 C 2521.41 -2.01951 -0.0777025 0
M  V30 26382 C 2521.73 -1.35934 -1.39811 0
M  V30 26383 O 2521 -0.506156 -1.89248 0
M  V30 26384 H 2519.58 -0.746327 -0.0317059 0
M  V30 26385 H 2522.24 -1.84538 0.627028 0
M  V30 26386 H 2521.34 -3.11281 -0.225941 0
M  V30 26387 N 2521.64 -0.208365 -1.56217 0
M  V30 26388 C 2522.59 0.720243 -2.16325 0
M  V30 26389 C 2523.57 1.16693 -1.10777 0
M  V30 26390 O 2524.76 1.12312 -1.36803 0
M  V30 26391 C 2521.89 1.93388 -2.83647 0
M  V30 26392 C 2520.98 1.50748 -3.96403 0
M  V30 26393 N 2521.37 0.79285 -4.99547 0
M  V30 26394 C 2519.67 1.79578 -4.0825 0
M  V30 26395 C 2520.37 0.577262 -5.78829 0
M  V30 26396 N 2519.35 1.13 -5.31725 0
M  V30 26397 H 2523.15 0.165674 -2.93433 0
M  V30 26398 H 2520.66 -0.00909318 -1.62397 0
M  V30 26399 H 2522.66 2.60975 -3.25111 0
M  V30 26400 H 2521.32 2.49305 -2.08032 0
M  V30 26401 H 2522.33 0.446913 -5.15968 0
M  V30 26402 H 2519.01 2.36909 -3.43774 0
M  V30 26403 H 2520.4 0.00941146 -6.71899 0
M  V30 26404 N 2523.12 1.57465 0.0651402 0
M  V30 26405 C 2524.05 2.00884 1.10356 0
M  V30 26406 C 2525.06 0.915811 1.34598 0
M  V30 26407 O 2526.25 1.19362 1.32721 0
M  V30 26408 C 2523.35 2.33832 2.45308 0
M  V30 26409 C 2522.52 3.65065 2.40928 0
M  V30 26410 C 2521.58 3.85608 3.5804 0
M  V30 26411 O 2520.61 4.57115 3.39167 0
M  V30 26412 N 2521.81 3.2847 4.78631 0
M  V30 26413 H 2524.58 2.90579 0.733756 0
M  V30 26414 H 2522.14 1.599 0.253691 0
M  V30 26415 H 2524.13 2.44742 3.22309 0
M  V30 26416 H 2522.7 1.49992 2.74265 0
M  V30 26417 H 2521.92 3.64847 1.49266 0
M  V30 26418 H 2523.21 4.51222 2.35109 0
M  V30 26419 H 2522.6 2.70442 4.96868 0
M  V30 26420 H 2521.16 3.44819 5.53121 0
M  V30 26421 N 2524.59 -0.336679 1.53962 0
M  V30 26422 C 2525.84 -1.07402 1.71199 0
M  V30 26423 C 2526.16 -1.88962 0.481509 0
M  V30 26424 O 2525.43 -1.89291 -0.504552 0
M  V30 26425 H 2524.01 -0.399506 0.631192 0
M  V30 26426 H 2526.68 -0.37629 1.91233 0
M  V30 26427 H 2525.77 -1.74751 2.5859 0
M  V30 26428 N 2526.07 -1.45812 -0.598057 0
M  V30 26429 C 2527.32 -1.50325 -1.35678 0
M  V30 26430 C 2527.65 -0.148773 -1.9393 0
M  V30 26431 O 2526.9 0.853756 -1.76095 0
M  V30 26432 C 2527.2 -2.53771 -2.51665 0
M  V30 26433 C 2526.87 -3.98218 -2.11501 0
M  V30 26434 C 2525.53 -4.37548 -2.00262 0
M  V30 26435 C 2527.88 -4.89021 -1.803 0
M  V30 26436 C 2525.21 -5.65564 -1.56057 0
M  V30 26437 C 2527.56 -6.17459 -1.37578 0
M  V30 26438 C 2526.23 -6.5571 -1.24904 0
M  V30 26439 H 2525.5 -0.550078 -0.496483 0
M  V30 26440 H 2528.14 -1.79209 -0.67502 0
M  V30 26441 H 2526.45 -2.18491 -3.25221 0
M  V30 26442 H 2528.14 -2.54497 -3.0989 0
M  V30 26443 H 2524.73 -3.67121 -2.21179 0
M  V30 26444 H 2528.92 -4.59365 -1.87876 0
M  V30 26445 H 2524.17 -5.93988 -1.44875 0
M  V30 26446 H 2528.35 -6.87256 -1.12483 0
M  V30 26447 H 2525.98 -7.54803 -0.904254 0
M  V30 26448 N 2527.55 0.841385 -1.33261 0
M  V30 26449 C 2528.78 1.63383 -1.27753 0
M  V30 26450 C 2529.2 1.87508 0.149155 0
M  V30 26451 O 2528.56 1.43738 1.10495 0
M  V30 26452 C 2528.61 2.96261 -2.05576 0
M  V30 26453 O 2527.71 3.87451 -1.41264 0
M  V30 26454 H 2527.05 0.49761 -0.439636 0
M  V30 26455 H 2529.58 1.04696 -1.75784 0
M  V30 26456 H 2529.59 3.45979 -2.16247 0
M  V30 26457 H 2528.27 2.78025 -3.09314 0
M  V30 26458 H 2526.84 3.45935 -1.39223 0
M  V30 26459 N 2529.03 1.16688 1.05932 0
M  V30 26460 C 2529.99 0.879181 2.11667 0
M  V30 26461 C 2530.99 -0.127417 1.60294 0
M  V30 26462 O 2532.18 0.103896 1.7389 0
M  V30 26463 C 2529.31 0.315485 3.39437 0
M  V30 26464 H 2530.51 1.81657 2.38623 0
M  V30 26465 H 2528.06 0.976321 1.22056 0
M  V30 26466 H 2528.8 -0.629412 3.18133 0
M  V30 26467 H 2528.58 1.04085 3.78033 0
M  V30 26468 H 2530.07 0.132262 4.1739 0
M  V30 26469 N 2530.51 -1.24529 0.96594 0
M  V30 26470 C 2531.47 -2.23689 0.499586 0
M  V30 26471 C 2532.47 -1.5567 -0.402913 0
M  V30 26472 O 2533.66 -1.73064 -0.198619 0
M  V30 26473 C 2530.79 -3.39775 -0.276732 0
M  V30 26474 H 2531.99 -2.66461 1.37618 0
M  V30 26475 H 2529.54 -1.37111 0.750348 0
M  V30 26476 H 2530.27 -3.0244 -1.1705 0
M  V30 26477 H 2530.06 -3.90342 0.370895 0
M  V30 26478 H 2531.55 -4.13381 -0.592103 0
M  V30 26479 N 2531.99 -0.735845 -1.39367 0
M  V30 26480 C 2532.92 -0.111547 -2.33233 0
M  V30 26481 C 2533.9 0.723307 -1.53955 0
M  V30 26482 O 2535.08 0.668115 -1.82345 0
M  V30 26483 C 2532.21 0.795857 -3.38058 0
M  V30 26484 C 2531.17 0.0650968 -4.2795 0
M  V30 26485 C 2530.49 1.08957 -5.23481 0
M  V30 26486 C 2531.79 -1.09282 -5.10739 0
M  V30 26487 H 2533.49 -0.895621 -2.8569 0
M  V30 26488 H 2531.03 -0.432134 -1.37363 0
M  V30 26489 H 2532.98 1.24214 -4.02677 0
M  V30 26490 H 2531.71 1.61206 -2.84043 0
M  V30 26491 H 2530.37 -0.361575 -3.64813 0
M  V30 26492 H 2530.02 1.89936 -4.65761 0
M  V30 26493 H 2529.72 0.605386 -5.84473 0
M  V30 26494 H 2531.24 1.53554 -5.90977 0
M  V30 26495 H 2532.65 -0.72494 -5.68698 0
M  V30 26496 H 2531.05 -1.5067 -5.80877 0
M  V30 26497 H 2532.12 -1.91412 -4.45522 0
M  V30 26498 N 2533.46 1.49999 -0.483543 0
M  V30 26499 C 2534.39 2.31644 0.293788 0
M  V30 26500 C 2535.37 1.39114 0.97884 0
M  V30 26501 O 2536.56 1.68031 0.973614 0
M  V30 26502 C 2533.69 3.19183 1.36892 0
M  V30 26503 C 2532.64 4.20366 0.804759 0
M  V30 26504 C 2531.97 4.96725 1.97911 0
M  V30 26505 C 2533.27 5.21945 -0.192404 0
M  V30 26506 H 2534.96 2.9688 -0.387668 0
M  V30 26507 H 2532.51 1.42769 -0.187881 0
M  V30 26508 H 2534.46 3.75103 1.9203 0
M  V30 26509 H 2533.19 2.51857 2.07932 0
M  V30 26510 H 2531.85 3.65565 0.275254 0
M  V30 26511 H 2531.49 4.25861 2.67678 0
M  V30 26512 H 2531.19 5.65176 1.60779 0
M  V30 26513 H 2532.72 5.55483 2.53516 0
M  V30 26514 H 2534.13 5.72663 0.270232 0
M  V30 26515 H 2532.53 5.98188 -0.478648 0
M  V30 26516 H 2533.6 4.71926 -1.11418 0
M  V30 26517 N 2534.94 0.216646 1.56104 0
M  V30 26518 C 2535.89 -0.695492 2.20072 0
M  V30 26519 C 2536.86 -1.19395 1.15473 0
M  V30 26520 O 2538.04 -1.25394 1.43809 0
M  V30 26521 C 2535.18 -1.90016 2.88076 0
M  V30 26522 C 2534.3 -1.44106 4.07256 0
M  V30 26523 C 2533.43 -2.60292 4.63057 0
M  V30 26524 C 2532.47 -2.11093 5.74549 0
M  V30 26525 N 2531.61 -3.20534 6.24662 0
M  V30 26526 H 2536.45 -0.143275 2.97655 0
M  V30 26527 H 2533.98 -0.0589676 1.46982 0
M  V30 26528 H 2535.94 -2.60739 3.25686 0
M  V30 26529 H 2534.57 -2.42534 2.13019 0
M  V30 26530 H 2533.62 -0.628934 3.75165 0
M  V30 26531 H 2534.94 -1.04027 4.87832 0
M  V30 26532 H 2534.09 -3.39104 5.03084 0
M  V30 26533 H 2532.83 -3.03656 3.81634 0
M  V30 26534 H 2531.83 -1.30741 5.34029 0
M  V30 26535 H 2533.06 -1.68734 6.57804 0
M  V30 26536 H 2531.01 -3.63389 5.46154 0
M  V30 26537 H 2530.92 -2.84691 7.00348 0
M  V30 26538 H 2532.19 -3.99496 6.69345 0
M  V30 26539 N 2536.42 -1.57498 -0.0567885 0
M  V30 26540 C 2537.37 -2.01167 -1.07311 0
M  V30 26541 C 2538.35 -0.896194 -1.33631 0
M  V30 26542 O 2539.55 -1.16012 -1.3368 0
M  V30 26543 C 2536.67 -2.47165 -2.38253 0
M  V30 26544 C 2535.76 -3.65478 -2.15143 0
M  V30 26545 N 2536.15 -4.79153 -1.62005 0
M  V30 26546 C 2534.45 -3.72317 -2.45552 0
M  V30 26547 C 2535.15 -5.60928 -1.54059 0
M  V30 26548 N 2534.13 -5.05216 -2.00643 0
M  V30 26549 H 2537.93 -2.86489 -0.655827 0
M  V30 26550 H 2535.44 -1.60246 -0.263607 0
M  V30 26551 H 2537.44 -2.76697 -3.11841 0
M  V30 26552 H 2536.1 -1.63237 -2.80685 0
M  V30 26553 H 2537.11 -5.01147 -1.30659 0
M  V30 26554 H 2533.79 -2.99134 -2.91248 0
M  V30 26555 H 2535.18 -6.6221 -1.13701 0
M  V30 26556 N 2537.9 0.328509 -1.54138 0
M  V30 26557 C 2539.13 1.08512 -1.75808 0
M  V30 26558 C 2539.54 1.82355 -0.504312 0
M  V30 26559 O 2538.88 1.75754 0.53442 0
M  V30 26560 C 2538.94 2.13243 -2.89427 0
M  V30 26561 C 2538.6 1.58842 -4.28507 0
M  V30 26562 C 2539.6 1.0328 -5.09538 0
M  V30 26563 C 2537.29 1.63235 -4.75037 0
M  V30 26564 C 2539.28 0.528338 -6.35207 0
M  V30 26565 C 2536.97 1.12401 -6.00674 0
M  V30 26566 C 2537.97 0.572942 -6.80593 0
M  V30 26567 O 2537.65 0.0722279 -8.03868 0
M  V30 26568 H 2537.39 0.328818 -0.590639 0
M  V30 26569 H 2539.94 0.381833 -2.0182 0
M  V30 26570 H 2538.17 2.87174 -2.58975 0
M  V30 26571 H 2539.86 2.74587 -2.98926 0
M  V30 26572 H 2540.62 0.991977 -4.74747 0
M  V30 26573 H 2536.5 2.05067 -4.12878 0
M  V30 26574 H 2540.05 0.0975548 -6.97532 0
M  V30 26575 H 2535.94 1.16189 -6.34957 0
M  V30 26576 H 2536.71 0.188114 -8.18284 0
M  V30 26577 N 2539.38 1.46127 0.590316 0
M  V30 26578 C 2540.62 1.51042 1.34879 0
M  V30 26579 C 2540.95 0.159055 1.93849 0
M  V30 26580 O 2540.21 -0.844405 1.76545 0
M  V30 26581 C 2540.5 2.55102 2.50315 0
M  V30 26582 C 2540.17 3.99335 2.09387 0
M  V30 26583 C 2538.83 4.38604 1.97939 0
M  V30 26584 C 2541.18 4.8997 1.77704 0
M  V30 26585 C 2538.51 5.66384 1.53055 0
M  V30 26586 C 2540.86 6.1818 1.34301 0
M  V30 26587 C 2539.53 6.56363 1.21425 0
M  V30 26588 H 2538.8 0.552703 0.493558 0
M  V30 26589 H 2541.45 1.79564 0.665507 0
M  V30 26590 H 2539.75 2.20213 3.24058 0
M  V30 26591 H 2541.45 2.56137 3.08536 0
M  V30 26592 H 2538.04 3.68289 2.19229 0
M  V30 26593 H 2542.22 4.60355 1.85437 0
M  V30 26594 H 2537.48 5.94747 1.41723 0
M  V30 26595 H 2541.65 6.87843 1.08837 0
M  V30 26596 H 2539.28 7.55272 0.864212 0
M  V30 26597 N 2540.85 -0.834306 1.33705 0
M  V30 26598 C 2541.8 -1.96585 1.24326 0
M  V30 26599 C 2542.8 -1.6879 0.143689 0
M  V30 26600 O 2544 -1.77346 0.307941 0
M  V30 26601 H 2540.38 -0.645413 0.385936 0
M  V30 26602 H 2542.35 -2.0162 2.19982 0
M  V30 26603 C 2541.1 -3.32889 1.00399 0
M  V30 26604 H 2540.42 -3.54819 1.84238 0
M  V30 26605 H 2541.86 -4.1255 0.978693 0
M  V30 26606 C 2540.32 -3.35624 -0.292988 0
M  V30 26607 O 2540.85 -3.80145 -1.29817 0
M  V30 26608 N 2539.05 -2.88809 -0.322123 0
M  V30 26609 H 2538.6 -2.52771 0.496424 0
M  V30 26610 H 2538.56 -2.91021 -1.18971 0
M  V30 26611 N 2542.33 -1.17248 -1.05312 0
M  V30 26612 C 2543.61 -0.870081 -1.75183 0
M  V30 26613 C 2543.99 0.62993 -2.01482 0
M  V30 26614 O 2543.34 1.58083 -1.64991 0
M  V30 26615 C 2543.55 -1.70368 -3.04591 0
M  V30 26616 C 2544.89 -1.92288 -3.78564 0
M  V30 26617 O 2545.92 -1.67316 -3.14458 0
M  V30 26618 O 2544.78 -2.34249 -4.93751 0
M  V30 26619 H 2541.87 -0.322034 -0.761724 0
M  V30 26620 H 2544.42 -1.27937 -1.11491 0
M  V30 26621 H 2543.19 -2.72111 -2.81196 0
M  V30 26622 H 2542.81 -1.29208 -3.7602 0
M  V30 26623 N 2543.81 1.24015 -0.972531 0
M  V30 26624 C 2544.72 2.28892 -0.51434 0
M  V30 26625 C 2545.74 1.68678 0.427048 0
M  V30 26626 O 2546.91 1.9917 0.298904 0
M  V30 26627 C 2543.98 3.46214 0.183537 0
M  V30 26628 C 2543.04 4.21813 -0.798276 0
M  V30 26629 C 2542.27 5.33533 -0.133608 0
M  V30 26630 O 2542.49 5.60139 1.07704 0
M  V30 26631 O 2541.43 5.96175 -0.828208 0
M  V30 26632 H 2545.25 2.70212 -1.38633 0
M  V30 26633 H 2542.84 1.29798 -0.739792 0
M  V30 26634 H 2544.72 4.17454 0.57536 0
M  V30 26635 H 2543.4 3.06862 1.03042 0
M  V30 26636 H 2542.3 3.52929 -1.24065 0
M  V30 26637 H 2543.64 4.64994 -1.61372 0
M  V30 26638 N 2545.29 0.743226 1.38974 0
M  V30 26639 C 2546.22 0.0689631 2.29096 0
M  V30 26640 C 2547.23 -0.694765 1.47231 0
M  V30 26641 O 2548.42 -0.537567 1.70213 0
M  V30 26642 C 2545.52 -0.92649 3.2599 0
M  V30 26643 C 2544.7 -0.22257 4.36833 0
M  V30 26644 C 2543.75 -1.1273 5.13983 0
M  V30 26645 O 2542.78 -0.601695 5.66011 0
M  V30 26646 N 2543.98 -2.45632 5.25971 0
M  V30 26647 H 2546.75 0.842897 2.87603 0
M  V30 26648 H 2544.31 0.593136 1.50644 0
M  V30 26649 H 2546.3 -1.53453 3.74479 0
M  V30 26650 H 2544.87 -1.60157 2.68456 0
M  V30 26651 H 2544.09 0.566052 3.90115 0
M  V30 26652 H 2545.38 0.26493 5.0811 0
M  V30 26653 H 2544.78 -2.90802 4.85233 0
M  V30 26654 H 2543.33 -3.01512 5.7787 0
M  V30 26655 N 2546.77 -1.4974 0.491491 0
M  V30 26656 C 2548.01 -2.02022 -0.0562786 0
M  V30 26657 C 2548.34 -1.37409 -1.38361 0
M  V30 26658 O 2547.61 -0.5262 -1.88701 0
M  V30 26659 H 2546.19 -0.746621 -0.0237883 0
M  V30 26660 H 2548.85 -1.83863 0.646565 0
M  V30 26661 H 2547.94 -3.11503 -0.192912 0
M  V30 26662 N 2548.24 -0.224922 -1.55987 0
M  V30 26663 C 2549.15 0.69507 -2.24067 0
M  V30 26664 C 2550.17 1.21102 -1.24941 0
M  V30 26665 O 2551.35 1.25192 -1.57762 0
M  V30 26666 C 2548.41 1.88488 -2.90987 0
M  V30 26667 C 2547.47 1.41057 -4.05464 0
M  V30 26668 C 2546.71 2.54367 -4.69184 0
M  V30 26669 O 2546.93 3.72581 -4.31902 0
M  V30 26670 O 2545.86 2.25376 -5.58112 0
M  V30 26671 H 2549.69 0.145096 -3.03353 0
M  V30 26672 H 2547.27 0.0056685 -1.49399 0
M  V30 26673 H 2549.16 2.57966 -3.33214 0
M  V30 26674 H 2547.83 2.42289 -2.14657 0
M  V30 26675 H 2546.74 0.68371 -3.67799 0
M  V30 26676 H 2548.07 0.9189 -4.83546 0
M  V30 26677 N 2549.72 1.57526 0.0484352 0
M  V30 26678 C 2550.97 1.87555 0.742032 0
M  V30 26679 C 2551.28 0.820833 1.77543 0
M  V30 26680 O 2552.49 1.00972 2.52026 0
M  V30 26681 C 2550.95 3.32774 1.37075 0
M  V30 26682 C 2550.55 4.4643 0.374707 0
M  V30 26683 C 2552.3 3.71975 2.04535 0
M  V30 26684 C 2550.21 5.827 1.01067 0
M  V30 26685 H 2549.14 0.699726 0.28089 0
M  V30 26686 H 2551.79 1.835 -0.00415102 0
M  V30 26687 H 2550.17 3.31513 2.16599 0
M  V30 26688 H 2551.34 4.59126 -0.392412 0
M  V30 26689 H 2549.66 4.15935 -0.196726 0
M  V30 26690 H 2552.25 4.71093 2.52934 0
M  V30 26691 H 2552.6 3.02969 2.85509 0
M  V30 26692 H 2553.13 3.75327 1.31812 0
M  V30 26693 H 2549.87 6.55058 0.240763 0
M  V30 26694 H 2549.39 5.73761 1.74809 0
M  V30 26695 H 2551.07 6.28802 1.52372 0
M  V30 26696 N 2551.2 -0.32033 1.5431 0
M  V30 26697 C 2552.11 -1.4173 1.86948 0
M  V30 26698 C 2553.13 -1.56441 0.761717 0
M  V30 26699 O 2554.3 -1.71475 1.05632 0
M  V30 26700 C 2551.37 -2.76397 2.09297 0
M  V30 26701 C 2550.43 -2.70835 3.33087 0
M  V30 26702 C 2549.66 -3.99079 3.5436 0
M  V30 26703 O 2549.88 -4.97503 2.79011 0
M  V30 26704 O 2548.82 -4.02142 4.47845 0
M  V30 26705 H 2552.64 -1.17057 2.80234 0
M  V30 26706 H 2550.23 -0.514649 1.40256 0
M  V30 26707 H 2552.11 -3.56109 2.25309 0
M  V30 26708 H 2550.79 -3.00954 1.19199 0
M  V30 26709 H 2549.69 -1.89663 3.22458 0
M  V30 26710 H 2551.03 -2.51232 4.23253 0
M  V30 26711 N 2552.68 -1.46438 -0.582558 0
M  V30 26712 C 2553.93 -1.51756 -1.34076 0
M  V30 26713 C 2554.25 -0.169333 -1.93761 0
M  V30 26714 O 2553.51 0.835031 -1.76991 0
M  V30 26715 C 2553.81 -2.56426 -2.48959 0
M  V30 26716 C 2553.47 -4.00439 -2.07266 0
M  V30 26717 C 2552.14 -4.39648 -1.9561 0
M  V30 26718 C 2554.49 -4.90906 -1.75103 0
M  V30 26719 C 2551.82 -5.67188 -1.5005 0
M  V30 26720 C 2554.17 -6.18883 -1.31021 0
M  V30 26721 C 2552.83 -6.56998 -1.17942 0
M  V30 26722 H 2552.1 -0.555313 -0.49062 0
M  V30 26723 H 2554.75 -1.79914 -0.655975 0
M  V30 26724 H 2553.05 -2.21928 -3.22885 0
M  V30 26725 H 2554.75 -2.5777 -3.07174 0
M  V30 26726 H 2551.34 -3.69446 -2.17272 0
M  V30 26727 H 2555.52 -4.61332 -1.82993 0
M  V30 26728 H 2550.78 -5.95491 -1.38567 0
M  V30 26729 H 2554.95 -6.8841 -1.05188 0
M  V30 26730 H 2552.58 -7.55719 -0.824146 0
M  V30 26731 N 2554.16 0.827204 -1.34146 0
M  V30 26732 C 2555.41 1.57817 -1.25605 0
M  V30 26733 C 2555.72 1.9483 0.173411 0
M  V30 26734 O 2556.92 2.68814 0.380936 0
M  V30 26735 C 2555.38 2.84709 -2.20156 0
M  V30 26736 C 2554.99 2.55015 -3.68336 0
M  V30 26737 C 2556.73 3.62731 -2.20514 0
M  V30 26738 C 2554.64 3.78074 -4.54768 0
M  V30 26739 H 2553.57 0.592297 -0.466583 0
M  V30 26740 H 2556.22 0.911088 -1.59284 0
M  V30 26741 H 2554.6 3.5302 -1.79423 0
M  V30 26742 H 2555.78 1.94841 -4.17581 0
M  V30 26743 H 2554.09 1.90276 -3.70384 0
M  V30 26744 H 2556.69 4.54096 -2.82314 0
M  V30 26745 H 2557.03 3.98531 -1.20329 0
M  V30 26746 H 2557.56 3.01358 -2.5967 0
M  V30 26747 H 2554.3 3.47397 -5.55873 0
M  V30 26748 H 2553.82 4.37545 -4.10261 0
M  V30 26749 H 2555.5 4.4553 -4.69161 0
M  V30 26750 N 2555.63 1.17805 1.04688 0
M  V30 26751 C 2556.54 0.914189 2.16055 0
M  V30 26752 C 2557.56 -0.119472 1.73589 0
M  V30 26753 O 2558.74 0.0609822 2.01308 0
M  V30 26754 C 2555.8 0.436663 3.43939 0
M  V30 26755 C 2554.86 1.53753 4.00822 0
M  V30 26756 C 2554.1 1.0827 5.22603 0
M  V30 26757 O 2554.32 -0.0611242 5.70367 0
M  V30 26758 O 2553.25 1.87785 5.71857 0
M  V30 26759 H 2557.08 1.84588 2.41166 0
M  V30 26760 H 2554.66 0.959354 1.14528 0
M  V30 26761 H 2556.55 0.178131 4.21023 0
M  V30 26762 H 2555.22 -0.466813 3.20316 0
M  V30 26763 H 2554.13 1.85 3.25155 0
M  V30 26764 H 2555.46 2.4169 4.28774 0
M  V30 26765 N 2557.11 -1.23497 0.979094 0
M  V30 26766 C 2558.34 -1.96454 0.66488 0
M  V30 26767 C 2558.76 -1.72007 -0.761256 0
M  V30 26768 O 2558.12 -0.99074 -1.51836 0
M  V30 26769 C 2558.17 -3.47599 0.95954 0
M  V30 26770 O 2557.27 -4.12369 0.0508893 0
M  V30 26771 H 2556.61 -0.615059 0.250196 0
M  V30 26772 H 2559.14 -1.56968 1.31233 0
M  V30 26773 H 2559.15 -3.98046 0.895712 0
M  V30 26774 H 2557.83 -3.64719 1.99882 0
M  V30 26775 H 2556.41 -3.72517 0.169015 0
M  V30 26776 N 2558.59 -0.750586 -1.38578 0
M  V30 26777 C 2559.82 -0.314848 -2.04996 0
M  V30 26778 C 2560.24 1.04746 -1.56237 0
M  V30 26779 O 2559.6 1.66691 -0.713011 0
M  V30 26780 C 2559.65 -0.343478 -3.5896 0
M  V30 26781 O 2558.75 0.663556 -4.07027 0
M  V30 26782 H 2558.09 -0.139973 -0.649079 0
M  V30 26783 H 2560.62 -1.02087 -1.77312 0
M  V30 26784 H 2560.63 -0.193305 -4.07542 0
M  V30 26785 H 2559.31 -1.33745 -3.93809 0
M  V30 26786 H 2557.88 0.478242 -3.69821 0
M  V30 26787 N 2560.07 1.49477 -0.499425 0
M  V30 26788 C 2561.02 2.29097 0.279841 0
M  V30 26789 C 2561.99 1.35422 0.961781 0
M  V30 26790 O 2563.17 1.64377 0.968748 0
M  V30 26791 C 2560.31 3.18053 1.33926 0
M  V30 26792 C 2559.42 4.26784 0.669258 0
M  V30 26793 C 2558.56 5.02958 1.70899 0
M  V30 26794 C 2557.6 6.03529 1.02077 0
M  V30 26795 N 2556.74 6.72874 2.00462 0
M  V30 26796 H 2561.58 2.9523 -0.405369 0
M  V30 26797 H 2559.11 1.45568 -0.211752 0
M  V30 26798 H 2561.07 3.68002 1.96547 0
M  V30 26799 H 2559.7 2.53908 1.99326 0
M  V30 26800 H 2558.75 3.80335 -0.0701903 0
M  V30 26801 H 2560.06 4.98637 0.127416 0
M  V30 26802 H 2559.22 5.56768 2.41028 0
M  V30 26803 H 2557.96 4.30875 2.28468 0
M  V30 26804 H 2556.96 5.48952 0.305242 0
M  V30 26805 H 2558.19 6.77597 0.451589 0
M  V30 26806 H 2556.13 6.03563 2.56997 0
M  V30 26807 H 2556.05 7.40697 1.5134 0
M  V30 26808 H 2557.32 7.31288 2.69885 0
M  V30 26809 N 2561.55 0.233191 1.55865 0
M  V30 26810 C 2562.46 -0.683178 2.24432 0
M  V30 26811 C 2563.47 -1.20438 1.25582 0
M  V30 26812 O 2564.65 -1.24353 1.58424 0
M  V30 26813 C 2561.71 -1.86942 2.91982 0
M  V30 26814 C 2560.78 -1.38905 4.06207 0
M  V30 26815 C 2560.01 -2.51875 4.70526 0
M  V30 26816 O 2560.23 -3.70286 4.33872 0
M  V30 26817 O 2559.17 -2.22413 5.593 0
M  V30 26818 H 2562.99 -0.129006 3.03426 0
M  V30 26819 H 2560.58 0.00225456 1.494 0
M  V30 26820 H 2562.46 -2.56195 3.34577 0
M  V30 26821 H 2561.13 -2.41147 2.15939 0
M  V30 26822 H 2560.04 -0.664195 3.68157 0
M  V30 26823 H 2561.37 -0.893243 4.84027 0
M  V30 26824 N 2563.03 -1.57549 -0.0400806 0
M  V30 26825 C 2563.99 -2.04819 -1.02868 0
M  V30 26826 C 2564.99 -0.950411 -1.29707 0
M  V30 26827 O 2566.18 -1.21437 -1.24895 0
M  V30 26828 C 2563.31 -2.4558 -2.36438 0
M  V30 26829 H 2564.5 -2.93409 -0.620579 0
M  V30 26830 H 2562.06 -1.53649 -0.28664 0
M  V30 26831 H 2562.79 -1.60113 -2.82018 0
M  V30 26832 H 2562.58 -3.25717 -2.18291 0
M  V30 26833 H 2564.07 -2.82618 -3.07436 0
M  V30 26834 N 2564.5 0.312142 -1.54478 0
M  V30 26835 C 2565.75 1.04665 -1.72886 0
M  V30 26836 C 2566.07 1.88172 -0.51151 0
M  V30 26837 O 2565.34 1.9007 0.474373 0
M  V30 26838 H 2563.92 0.389414 -0.637468 0
M  V30 26839 H 2566.58 0.345818 -1.91807 0
M  V30 26840 H 2565.68 1.70615 -2.61337 0
M  V30 26841 N 2565.98 1.46745 0.574784 0
M  V30 26842 C 2567.23 1.52465 1.3327 0
M  V30 26843 C 2567.56 0.179606 1.93669 0
M  V30 26844 O 2566.81 -0.825633 1.77431 0
M  V30 26845 C 2567.11 2.57742 2.47596 0
M  V30 26846 C 2566.78 4.01533 2.05139 0
M  V30 26847 C 2565.44 4.40679 1.93276 0
M  V30 26848 C 2567.79 4.91827 1.72497 0
M  V30 26849 C 2565.12 5.67976 1.47039 0
M  V30 26850 C 2567.47 6.19569 1.27737 0
M  V30 26851 C 2566.13 6.57614 1.14456 0
M  V30 26852 H 2565.4 0.557907 0.487669 0
M  V30 26853 H 2568.05 1.8026 0.646425 0
M  V30 26854 H 2566.36 2.23638 3.21704 0
M  V30 26855 H 2568.05 2.59395 3.05802 0
M  V30 26856 H 2564.64 3.70594 2.1531 0
M  V30 26857 H 2568.83 4.62296 1.80544 0
M  V30 26858 H 2564.08 5.96217 1.35407 0
M  V30 26859 H 2568.26 6.88958 1.01535 0
M  V30 26860 H 2565.88 7.56146 0.784057 0
M  V30 26861 N 2567.46 -0.820078 1.34583 0
M  V30 26862 C 2568.87 -1.39307 1.243 0
M  V30 26863 C 2569.22 -1.95767 -0.130317 0
M  V30 26864 O 2568.35 -1.90274 -1.03077 0
M  V30 26865 C 2568.94 -2.53247 2.25058 0
M  V30 26866 C 2567.5 -3.06446 2.18558 0
M  V30 26867 C 2566.65 -1.79333 2.11506 0
M  V30 26868 H 2569.6 -0.624236 1.45907 0
M  V30 26869 H 2569.62 -3.31421 1.86923 0
M  V30 26870 H 2569.13 -2.12125 3.25 0
M  V30 26871 H 2567.23 -3.52067 1.21982 0
M  V30 26872 H 2567.35 -3.65344 3.09937 0
M  V30 26873 H 2565.71 -2.00344 1.57271 0
M  V30 26874 H 2566.49 -1.40381 3.13286 0
M  V30 26875 N 2568.94 -1.18359 -1.04062 0
M  V30 26876 C 2570.19 -0.973344 -1.7666 0
M  V30 26877 C 2570.5 0.497958 -1.89155 0
M  V30 26878 O 2571.71 0.826716 -2.58607 0
M  V30 26879 C 2570.16 -1.69247 -3.17622 0
M  V30 26880 C 2569.77 -3.20308 -3.1322 0
M  V30 26881 C 2571.51 -1.56504 -3.94597 0
M  V30 26882 C 2569.42 -3.8486 -4.49039 0
M  V30 26883 H 2568.35 -0.360552 -0.662207 0
M  V30 26884 H 2571 -1.41733 -1.16551 0
M  V30 26885 H 2569.38 -1.17626 -3.78127 0
M  V30 26886 H 2570.56 -3.78954 -2.62165 0
M  V30 26887 H 2568.87 -3.33193 -2.49743 0
M  V30 26888 H 2571.47 -2.02093 -4.95038 0
M  V30 26889 H 2571.81 -0.517315 -4.13073 0
M  V30 26890 H 2572.35 -2.05405 -3.40666 0
M  V30 26891 H 2569.08 -4.8968 -4.35768 0
M  V30 26892 H 2568.6 -3.31003 -5.00197 0
M  V30 26893 H 2570.28 -3.87727 -5.17955 0
M  V30 26894 N 2570.42 1.22976 -0.98563 0
M  V30 26895 C 2571.66 1.9084 -0.652914 0
M  V30 26896 C 2571.98 1.77683 0.817811 0
M  V30 26897 O 2573.18 2.40397 1.26181 0
M  V30 26898 C 2571.64 3.4212 -1.11723 0
M  V30 26899 C 2571.25 3.63928 -2.61267 0
M  V30 26900 C 2572.99 4.15728 -0.858503 0
M  V30 26901 C 2570.9 5.0887 -3.01339 0
M  V30 26902 H 2569.83 0.714614 -0.240504 0
M  V30 26903 H 2572.48 1.39322 -1.19423 0
M  V30 26904 H 2570.86 3.92778 -0.504096 0
M  V30 26905 H 2572.04 3.23794 -3.27863 0
M  V30 26906 H 2570.35 3.03639 -2.84943 0
M  V30 26907 H 2572.95 5.22544 -1.13368 0
M  V30 26908 H 2573.29 4.15793 0.205388 0
M  V30 26909 H 2573.82 3.71075 -1.43347 0
M  V30 26910 H 2570.56 5.1394 -4.06873 0
M  V30 26911 H 2570.08 5.49935 -2.3944 0
M  V30 26912 H 2571.76 5.77242 -2.92235 0
M  V30 26913 N 2571.89 0.757924 1.38178 0
M  V30 26914 C 2572.84 0.122523 2.32277 0
M  V30 26915 C 2573.84 -0.700478 1.54239 0
M  V30 26916 O 2575.04 -0.599089 1.69738 0
M  V30 26917 H 2571.42 0.0208275 0.751712 0
M  V30 26918 H 2573.39 0.932148 2.83467 0
M  V30 26919 C 2572.14 -0.753016 3.39448 0
M  V30 26920 H 2571.46 -0.129114 3.99591 0
M  V30 26921 H 2572.9 -1.16482 4.07686 0
M  V30 26922 C 2571.36 -1.89755 2.78378 0
M  V30 26923 O 2571.89 -2.99204 2.6803 0
M  V30 26924 N 2570.09 -1.69392 2.36124 0
M  V30 26925 H 2569.64 -0.803719 2.44741 0
M  V30 26926 H 2569.6 -2.46141 1.95606 0
M  V30 26927 N 2573.37 -1.4921 0.507345 0
M  V30 26928 C 2574.6 -2.06876 -0.0315386 0
M  V30 26929 C 2575.02 -1.36687 -1.30239 0
M  V30 26930 O 2574.37 -0.447183 -1.76937 0
M  V30 26931 C 2574.42 -3.60394 -0.282563 0
M  V30 26932 O 2574.14 -4.27943 0.937911 0
M  V30 26933 C 2575.65 -4.34791 -0.864376 0
M  V30 26934 H 2572.87 -0.670595 0.0233166 0
M  V30 26935 H 2575.41 -1.91908 0.706518 0
M  V30 26936 H 2573.56 -3.75044 -0.970614 0
M  V30 26937 H 2573.98 -5.19745 0.704658 0
M  V30 26938 H 2575.45 -5.43058 -0.989568 0
M  V30 26939 H 2575.93 -3.97695 -1.86375 0
M  V30 26940 H 2576.54 -4.24763 -0.213598 0
M  V30 26941 N 2574.85 -0.241454 -1.55739 0
M  V30 26942 C 2576.26 0.262722 -1.84842 0
M  V30 26943 C 2576.61 1.58001 -1.1632 0
M  V30 26944 O 2575.74 2.11886 -0.43969 0
M  V30 26945 C 2576.33 0.483464 -3.35333 0
M  V30 26946 C 2574.89 0.931913 -3.64681 0
M  V30 26947 C 2574.04 0.00606635 -2.77299 0
M  V30 26948 H 2576.99 -0.464155 -1.51761 0
M  V30 26949 H 2577.01 1.32682 -3.56617 0
M  V30 26950 H 2576.52 -0.475437 -3.85177 0
M  V30 26951 H 2574.62 1.90347 -3.2031 0
M  V30 26952 H 2574.74 0.792545 -4.72499 0
M  V30 26953 H 2573.1 0.51646 -2.49409 0
M  V30 26954 H 2573.88 -0.94811 -3.29948 0
M  V30 26955 N 2576.33 1.57568 0.0317248 0
M  V30 26956 C 2577.55 1.93802 0.73863 0
M  V30 26957 C 2577.98 0.841238 1.6824 0
M  V30 26958 O 2577.34 -0.203235 1.80157 0
M  V30 26959 C 2577.38 3.29093 1.47411 0
M  V30 26960 O 2576.49 3.21155 2.58715 0
M  V30 26961 H 2575.83 0.633527 0.198844 0
M  V30 26962 H 2578.36 2.04596 -0.0120072 0
M  V30 26963 H 2578.37 3.6392 1.84462 0
M  V30 26964 H 2577.04 4.08484 0.781916 0
M  V30 26965 H 2575.62 2.97955 2.24226 0
M  V30 26966 N 2577.81 -0.303946 1.54641 0
M  V30 26967 C 2578.75 -1.37476 1.85389 0
M  V30 26968 C 2579.72 -1.5051 0.702554 0
M  V30 26969 O 2580.91 -1.65416 0.950896 0
M  V30 26970 C 2578.05 -2.73529 2.10418 0
M  V30 26971 C 2577.16 -2.68968 3.38054 0
M  V30 26972 C 2576.3 -3.96996 3.52941 0
M  V30 26973 C 2575.34 -3.86821 4.7438 0
M  V30 26974 N 2574.47 -5.06618 4.86089 0
M  V30 26975 H 2579.31 -1.10555 2.76734 0
M  V30 26976 H 2576.85 -0.534781 1.37035 0
M  V30 26977 H 2578.81 -3.52648 2.22925 0
M  V30 26978 H 2577.44 -2.98717 1.22343 0
M  V30 26979 H 2576.49 -1.81731 3.34183 0
M  V30 26980 H 2577.8 -2.57338 4.27292 0
M  V30 26981 H 2576.96 -4.84551 3.65097 0
M  V30 26982 H 2575.69 -4.11456 2.61831 0
M  V30 26983 H 2574.7 -2.9765 4.62261 0
M  V30 26984 H 2575.92 -3.73908 5.66895 0
M  V30 26985 H 2573.87 -5.21547 3.97901 0
M  V30 26986 H 2573.79 -4.974 5.69324 0
M  V30 26987 H 2575.06 -5.95832 5.02598 0
M  V30 26988 N 2579.28 -1.47047 -0.566994 0
M  V30 26989 C 2580.51 -1.56768 -1.35024 0
M  V30 26990 C 2580.93 -0.214349 -1.87579 0
M  V30 26991 O 2580.28 0.79089 -1.64472 0
M  V30 26992 C 2580.34 -2.58511 -2.52694 0
M  V30 26993 O 2580.06 -3.88589 -2.02313 0
M  V30 26994 C 2581.56 -2.78322 -3.45038 0
M  V30 26995 H 2578.78 -0.529665 -0.411941 0
M  V30 26996 H 2581.32 -1.92587 -0.687798 0
M  V30 26997 H 2579.48 -2.25653 -3.14896 0
M  V30 26998 H 2579.89 -4.44101 -2.7906 0
M  V30 26999 H 2581.36 -3.53398 -4.24044 0
M  V30 27000 H 2581.84 -1.85791 -3.97968 0
M  V30 27001 H 2582.45 -3.12339 -2.8866 0
M  V30 27002 N 2580.76 0.812929 -1.35016 0
M  V30 27003 C 2581.71 1.92442 -1.27416 0
M  V30 27004 C 2582.68 1.65445 -0.147359 0
M  V30 27005 O 2583.86 1.87924 -0.330007 0
M  V30 27006 C 2581 3.28878 -1.04564 0
M  V30 27007 C 2580.12 3.68102 -2.26108 0
M  V30 27008 C 2579.25 4.93536 -1.96458 0
M  V30 27009 C 2578.29 5.2537 -3.1409 0
M  V30 27010 N 2577.43 6.41983 -2.84258 0
M  V30 27011 H 2582.27 1.98274 -2.22466 0
M  V30 27012 H 2579.81 0.969913 -1.10594 0
M  V30 27013 H 2581.76 4.0752 -0.893484 0
M  V30 27014 H 2580.39 3.22531 -0.131775 0
M  V30 27015 H 2579.45 2.84771 -2.52209 0
M  V30 27016 H 2580.76 3.87592 -3.13965 0
M  V30 27017 H 2579.91 5.7999 -1.78036 0
M  V30 27018 H 2578.65 4.76069 -1.05876 0
M  V30 27019 H 2577.66 4.37409 -3.33096 0
M  V30 27020 H 2578.88 5.44771 -4.05465 0
M  V30 27021 H 2576.83 6.25953 -1.96263 0
M  V30 27022 H 2576.74 6.61693 -3.65649 0
M  V30 27023 H 2578.01 7.31481 -2.69363 0
M  V30 27024 N 2582.24 1.18909 1.03433 0
M  V30 27025 C 2583.17 0.945486 2.13501 0
M  V30 27026 C 2584.15 -0.119159 1.69682 0
M  V30 27027 O 2585.34 0.0347411 1.94169 0
M  V30 27028 C 2582.47 0.477377 3.44003 0
M  V30 27029 C 2581.42 1.48323 4.01478 0
M  V30 27030 C 2580.75 0.872404 5.27535 0
M  V30 27031 C 2582.05 2.86185 4.36916 0
M  V30 27032 H 2583.74 1.86601 2.34138 0
M  V30 27033 H 2581.29 0.898604 1.12522 0
M  V30 27034 H 2583.24 0.294278 4.20371 0
M  V30 27035 H 2581.96 -0.478729 3.23072 0
M  V30 27036 H 2580.62 1.65338 3.27198 0
M  V30 27037 H 2580.27 -0.0910868 5.02918 0
M  V30 27038 H 2579.97 1.54403 5.66951 0
M  V30 27039 H 2581.49 0.699978 6.06575 0
M  V30 27040 H 2582.91 2.72785 5.04243 0
M  V30 27041 H 2581.31 3.50089 4.87399 0
M  V30 27042 H 2582.38 3.39254 3.4646 0
M  V30 27043 N 2583.72 -1.22452 0.992137 0
M  V30 27044 C 2584.63 -2.28045 0.55069 0
M  V30 27045 C 2585.64 -1.69336 -0.400159 0
M  V30 27046 O 2586.82 -1.9962 -0.26718 0
M  V30 27047 C 2583.89 -3.46462 -0.128435 0
M  V30 27048 C 2582.95 -4.20489 0.865281 0
M  V30 27049 C 2582.18 -5.33253 0.218471 0
M  V30 27050 O 2582.4 -5.61782 -0.987795 0
M  V30 27051 O 2581.34 -5.94782 0.922949 0
M  V30 27052 H 2585.16 -2.67972 1.42915 0
M  V30 27053 H 2582.75 -1.28604 0.760348 0
M  V30 27054 H 2584.63 -4.18316 -0.508874 0
M  V30 27055 H 2583.3 -3.08462 -0.981472 0
M  V30 27056 H 2582.21 -3.5091 1.29664 0
M  V30 27057 H 2583.54 -4.62368 1.6875 0
M  V30 27058 N 2585.2 -0.765242 -1.37774 0
M  V30 27059 C 2586.61 -0.392851 -1.8252 0
M  V30 27060 C 2586.96 1.08014 -1.63791 0
M  V30 27061 O 2586.08 1.83599 -1.14545 0
M  V30 27062 C 2586.68 -0.706272 -3.31357 0
M  V30 27063 C 2585.24 -0.387018 -3.74405 0
M  V30 27064 C 2584.38 -0.953468 -2.60393 0
M  V30 27065 H 2587.34 -0.960435 -1.26338 0
M  V30 27066 H 2587.36 0.0114037 -3.80498 0
M  V30 27067 H 2586.87 -1.77839 -3.44956 0
M  V30 27068 H 2584.97 0.678048 -3.66379 0
M  V30 27069 H 2585.08 -0.890719 -4.70747 0
M  V30 27070 H 2583.45 -0.378108 -2.51878 0
M  V30 27071 H 2584.23 -2.03085 -2.76787 0
M  V30 27072 N 2586.67 1.48939 -0.515251 0
M  V30 27073 C 2587.9 2.07388 0.0226906 0
M  V30 27074 C 2588.32 1.37124 1.28758 0
M  V30 27075 O 2587.68 0.432461 1.76067 0
M  V30 27076 C 2587.73 3.59768 0.244806 0
M  V30 27077 O 2586.83 3.90819 1.3166 0
M  V30 27078 H 2586.18 0.663201 -0.0325623 0
M  V30 27079 H 2588.71 1.91552 -0.718951 0
M  V30 27080 H 2588.72 4.05261 0.471979 0
M  V30 27081 H 2587.39 4.10315 -0.679266 0
M  V30 27082 H 2585.97 3.57122 1.07325 0
M  V30 27083 N 2588.15 0.249709 1.55609 0
M  V30 27084 C 2589.4 -0.374806 1.99306 0
M  V30 27085 C 2589.73 -1.57385 1.13769 0
M  V30 27086 O 2589.01 -1.93451 0.201745 0
M  V30 27087 C 2589.29 -0.781924 3.51508 0
M  V30 27088 C 2589.14 0.422707 4.47809 0
M  V30 27089 C 2590.46 -1.62786 4.08887 0
M  V30 27090 H 2587.58 -0.13476 0.724575 0
M  V30 27091 H 2590.22 0.351582 1.86719 0
M  V30 27092 H 2588.37 -1.40083 3.62366 0
M  V30 27093 H 2590.05 1.06116 4.48929 0
M  V30 27094 H 2588.29 1.06532 4.20516 0
M  V30 27095 H 2588.96 0.0944736 5.51919 0
M  V30 27096 H 2591.44 -1.10539 4.01149 0
M  V30 27097 H 2590.31 -1.88157 5.15643 0
M  V30 27098 H 2590.57 -2.60062 3.57519 0
M  V30 27099 N 2589.63 -1.57583 -0.0233682 0
M  V30 27100 C 2590.88 -1.89531 -0.713029 0
M  V30 27101 C 2591.21 -0.847703 -1.75055 0
M  V30 27102 O 2590.46 0.150602 -1.9512 0
M  V30 27103 C 2590.76 -3.28229 -1.41423 0
M  V30 27104 C 2590.43 -4.47982 -0.512143 0
M  V30 27105 C 2589.09 -4.80477 -0.2637 0
M  V30 27106 C 2591.44 -5.21083 0.11034 0
M  V30 27107 C 2588.77 -5.83458 0.615907 0
M  V30 27108 C 2591.12 -6.24999 0.977683 0
M  V30 27109 C 2589.78 -6.55966 1.23553 0
M  V30 27110 H 2589.05 -0.693544 -0.260916 0
M  V30 27111 H 2591.7 -1.91481 0.0271384 0
M  V30 27112 H 2590.01 -3.22295 -2.22786 0
M  V30 27113 H 2591.7 -3.502 -1.95349 0
M  V30 27114 H 2588.29 -4.22578 -0.715939 0
M  V30 27115 H 2592.48 -4.96253 -0.0686265 0
M  V30 27116 H 2587.73 -6.05823 0.823927 0
M  V30 27117 H 2591.91 -6.80784 1.4665 0
M  V30 27118 H 2589.53 -7.35585 1.91883 0
M  V30 27119 N 2591.11 0.29574 -1.548 0
M  V30 27120 C 2592.06 1.36667 -1.825 0
M  V30 27121 C 2593.04 1.4571 -0.68246 0
M  V30 27122 O 2594.24 1.49773 -0.943234 0
M  V30 27123 C 2591.36 2.73083 -2.0804 0
M  V30 27124 C 2590.45 2.68242 -3.28492 0
M  V30 27125 N 2590.84 2.33017 -4.48929 0
M  V30 27126 C 2589.14 2.99337 -3.30626 0
M  V30 27127 C 2589.84 2.37604 -5.30961 0
M  V30 27128 N 2588.82 2.7517 -4.6881 0
M  V30 27129 H 2592.62 1.08405 -2.73177 0
M  V30 27130 H 2590.13 0.504333 -1.5437 0
M  V30 27131 H 2592.13 3.50306 -2.26033 0
M  V30 27132 H 2590.79 3.02252 -1.18634 0
M  V30 27133 H 2591.8 2.05381 -4.75436 0
M  V30 27134 H 2588.48 3.33367 -2.51342 0
M  V30 27135 H 2589.87 2.13124 -6.37203 0
M  V30 27136 N 2592.59 1.47346 0.559187 0
M  V30 27137 C 2593.52 1.55741 1.68158 0
M  V30 27138 C 2594.53 0.443772 1.56635 0
M  V30 27139 O 2595.72 0.713287 1.63629 0
M  V30 27140 C 2592.82 1.44376 3.06609 0
M  V30 27141 C 2591.99 2.70274 3.43905 0
M  V30 27142 C 2591.05 2.52773 4.61511 0
M  V30 27143 O 2590.08 3.2658 4.66191 0
M  V30 27144 N 2591.28 1.6047 5.5788 0
M  V30 27145 H 2594.05 2.52525 1.61403 0
M  V30 27146 H 2591.61 1.437 0.745775 0
M  V30 27147 H 2593.6 1.30405 3.83114 0
M  V30 27148 H 2592.17 0.55682 3.07601 0
M  V30 27149 H 2591.39 2.99019 2.56868 0
M  V30 27150 H 2592.68 3.53858 3.65598 0
M  V30 27151 H 2592.08 0.99652 5.56854 0
M  V30 27152 H 2590.63 1.52452 6.3372 0
M  V30 27153 N 2594.07 -0.805758 1.35445 0
M  V30 27154 C 2595.31 -1.5652 1.28955 0
M  V30 27155 C 2595.64 -1.93726 -0.135563 0
M  V30 27156 O 2594.92 -1.61416 -1.08513 0
M  V30 27157 C 2595.2 -2.85327 2.19683 0
M  V30 27158 C 2595.06 -2.54592 3.70814 0
M  V30 27159 C 2596.37 -3.87036 2.09502 0
M  V30 27160 H 2593.49 -0.567874 0.469774 0
M  V30 27161 H 2596.14 -0.926971 1.65853 0
M  V30 27162 H 2594.29 -3.39791 1.88346 0
M  V30 27163 H 2595.96 -2.06304 4.12597 0
M  V30 27164 H 2594.2 -1.87773 3.91055 0
M  V30 27165 H 2594.87 -3.46518 4.29685 0
M  V30 27166 H 2597.35 -3.41974 2.37051 0
M  V30 27167 H 2596.22 -4.74939 2.75181 0
M  V30 27168 H 2596.48 -4.28775 1.07722 0
M  V30 27169 N 2595.54 -1.19456 -1.02801 0
M  V30 27170 C 2596.79 -0.997724 -1.76215 0
M  V30 27171 C 2597.12 0.471407 -1.88701 0
M  V30 27172 O 2596.37 1.36627 -1.40112 0
M  V30 27173 C 2596.67 -1.61286 -3.18938 0
M  V30 27174 C 2596.34 -3.11025 -3.26458 0
M  V30 27175 C 2595 -3.51891 -3.28217 0
M  V30 27176 C 2597.35 -4.07034 -3.25535 0
M  V30 27177 C 2594.68 -4.87316 -3.26711 0
M  V30 27178 C 2597.03 -5.4239 -3.25569 0
M  V30 27179 C 2595.7 -5.82686 -3.25627 0
M  V30 27180 H 2594.97 -0.365093 -0.644816 0
M  V30 27181 H 2597.61 -1.48712 -1.20652 0
M  V30 27182 H 2595.92 -1.04578 -3.77585 0
M  V30 27183 H 2597.62 -1.43584 -3.74413 0
M  V30 27184 H 2594.21 -2.78463 -3.25817 0
M  V30 27185 H 2598.39 -3.76503 -3.23356 0
M  V30 27186 H 2593.65 -5.17816 -3.25079 0
M  V30 27187 H 2597.82 -6.16541 -3.23806 0
M  V30 27188 H 2595.45 -6.87597 -3.24214 0
M  V30 27189 N 2597.02 1.21924 -0.998617 0
M  V30 27190 C 2597.93 2.2775 -0.562776 0
M  V30 27191 C 2598.95 1.69546 0.391173 0
M  V30 27192 O 2600.12 1.99759 0.256589 0
M  V30 27193 C 2597.19 3.46525 0.110059 0
M  V30 27194 C 2596.25 4.20025 -0.887569 0
M  V30 27195 C 2595.48 5.33129 -0.246748 0
M  V30 27196 O 2595.71 5.62298 0.957989 0
M  V30 27197 O 2594.64 5.94284 -0.954479 0
M  V30 27198 H 2598.47 2.6721 -1.44334 0
M  V30 27199 H 2596.05 1.28199 -0.767158 0
M  V30 27200 H 2597.93 4.1858 0.486682 0
M  V30 27201 H 2596.61 3.08978 0.9651 0
M  V30 27202 H 2595.51 3.50218 -1.31523 0
M  V30 27203 H 2596.85 4.61467 -1.71199 0
M  V30 27204 N 2598.5 0.772537 1.37367 0
M  V30 27205 C 2599.75 0.336551 1.99278 0
M  V30 27206 C 2600.07 -1.09088 1.61632 0
M  V30 27207 O 2599.34 -1.74915 0.88214 0
M  V30 27208 H 2597.92 0.121448 0.737061 0
M  V30 27209 H 2600.58 0.990839 1.67834 0
M  V30 27210 H 2599.68 0.414818 3.09331 0
M  V30 27211 N 2599.98 -1.48664 0.523142 0
M  V30 27212 C 2601.25 -1.95446 -0.0775105 0
M  V30 27213 C 2601.63 -1.46523 -1.51968 0
M  V30 27214 O 2600.98 -0.688695 -2.17874 0
M  V30 27215 C 2601.19 -3.48985 0.0326748 0
M  V30 27216 C 2602.54 -4.24401 -0.130066 0
M  V30 27217 O 2603.56 -3.56176 -0.0414516 0
M  V30 27218 O 2602.42 -5.45592 -0.314814 0
M  V30 27219 H 2599.52 -0.822816 -0.0830868 0
M  V30 27220 H 2602.06 -1.59215 0.587255 0
M  V30 27221 H 2600.84 -3.77294 1.03754 0
M  V30 27222 H 2600.46 -3.91893 -0.671248 0
M  V30 27223 N 2601.46 -0.257958 -1.55475 0
M  V30 27224 C 2602.4 0.6369 -2.21838 0
M  V30 27225 C 2603.37 1.16292 -1.18598 0
M  V30 27226 O 2604.56 1.21537 -1.47083 0
M  V30 27227 C 2601.7 1.82312 -2.93013 0
M  V30 27228 C 2600.81 1.33258 -4.10934 0
M  V30 27229 C 2599.95 2.47923 -4.69795 0
M  V30 27230 C 2598.98 1.95786 -5.79943 0
M  V30 27231 N 2598.12 3.03859 -6.32941 0
M  V30 27232 H 2602.96 0.0643067 -2.97931 0
M  V30 27233 H 2600.5 0.0199772 -1.47086 0
M  V30 27234 H 2602.46 2.52012 -3.32484 0
M  V30 27235 H 2601.09 2.36801 -2.19374 0
M  V30 27236 H 2600.14 0.529244 -3.767 0
M  V30 27237 H 2601.45 0.910568 -4.90418 0
M  V30 27238 H 2600.6 3.25647 -5.11898 0
M  V30 27239 H 2599.34 2.93431 -3.89551 0
M  V30 27240 H 2598.35 1.16536 -5.37308 0
M  V30 27241 H 2599.57 1.51234 -6.62046 0
M  V30 27242 H 2597.52 3.48781 -5.55597 0
M  V30 27243 H 2597.44 2.66023 -7.07649 0
M  V30 27244 H 2598.7 3.81609 -6.79702 0
M  V30 27245 N 2602.93 1.57593 0.0150108 0
M  V30 27246 C 2603.84 2.10884 1.02787 0
M  V30 27247 C 2604.86 1.05063 1.387 0
M  V30 27248 O 2606.04 1.36879 1.47736 0
M  V30 27249 C 2603.1 2.58923 2.30564 0
M  V30 27250 C 2602.16 3.79284 2.01102 0
M  V30 27251 C 2601.4 4.25023 3.22786 0
M  V30 27252 O 2601.62 3.70191 4.33953 0
M  V30 27253 O 2600.55 5.17327 3.07662 0
M  V30 27254 H 2604.38 2.97615 0.604921 0
M  V30 27255 H 2601.96 1.47574 0.232894 0
M  V30 27256 H 2603.85 2.90089 3.05657 0
M  V30 27257 H 2602.52 1.75297 2.72126 0
M  V30 27258 H 2601.43 3.53116 1.23531 0
M  V30 27259 H 2602.76 4.63938 1.64386 0
M  V30 27260 N 2604.41 -0.287527 1.54955 0
M  V30 27261 C 2605.82 -0.859604 1.65734 0
M  V30 27262 C 2606.17 -1.87591 0.5748 0
M  V30 27263 O 2605.3 -2.14498 -0.286261 0
M  V30 27264 C 2605.89 -1.56592 3.00441 0
M  V30 27265 C 2604.45 -2.08622 3.13295 0
M  V30 27266 C 2603.6 -0.92337 2.61475 0
M  V30 27267 H 2606.55 -0.0642059 1.5857 0
M  V30 27268 H 2606.57 -2.43219 2.92617 0
M  V30 27269 H 2606.08 -0.825986 3.79208 0
M  V30 27270 H 2604.19 -2.85621 2.39273 0
M  V30 27271 H 2604.3 -2.3115 4.19651 0
M  V30 27272 H 2602.66 -1.31271 2.18266 0
M  V30 27273 H 2603.45 -0.197181 3.42733 0
M  V30 27274 N 2605.89 -1.47641 -0.551365 0
M  V30 27275 C 2606.85 -1.6011 -1.64004 0
M  V30 27276 C 2607.85 -0.475787 -1.536 0
M  V30 27277 O 2609.04 -0.741016 -1.57653 0
M  V30 27278 C 2606.18 -1.55113 -3.03567 0
M  V30 27279 H 2607.37 -2.57163 -1.54295 0
M  V30 27280 H 2604.92 -1.35918 -0.771752 0
M  V30 27281 H 2605.66 -0.594576 -3.18803 0
M  V30 27282 H 2605.44 -2.36789 -3.12527 0
M  V30 27283 H 2606.93 -1.66989 -3.82759 0
M  V30 27284 N 2607.37 0.798563 -1.3587 0
M  V30 27285 C 2608.61 1.55834 -1.29783 0
M  V30 27286 C 2608.95 1.93795 0.125287 0
M  V30 27287 O 2608.22 1.61989 1.07656 0
M  V30 27288 C 2608.51 2.84158 -2.21193 0
M  V30 27289 C 2608.36 2.52622 -3.72159 0
M  V30 27290 C 2609.68 3.8592 -2.11551 0
M  V30 27291 H 2606.8 0.565375 -0.472779 0
M  V30 27292 H 2609.44 0.918163 -1.66342 0
M  V30 27293 H 2607.59 3.38788 -1.90145 0
M  V30 27294 H 2609.26 2.04113 -4.13685 0
M  V30 27295 H 2607.5 1.85697 -3.92045 0
M  V30 27296 H 2608.17 3.44234 -4.31517 0
M  V30 27297 H 2610.65 3.40712 -2.38861 0
M  V30 27298 H 2609.53 4.73473 -2.77696 0
M  V30 27299 H 2609.79 4.28198 -1.09994 0
M  V30 27300 N 2608.85 1.19999 1.02166 0
M  V30 27301 C 2609.78 0.968077 2.12486 0
M  V30 27302 C 2610.76 -0.101155 1.69799 0
M  V30 27303 O 2611.94 0.0553334 1.94121 0
M  V30 27304 C 2609.07 0.513836 3.43478 0
M  V30 27305 C 2608.03 1.52573 3.99882 0
M  V30 27306 C 2607.35 0.928307 5.2658 0
M  V30 27307 C 2608.65 2.90803 4.33856 0
M  V30 27308 H 2610.35 1.89074 2.32146 0
M  V30 27309 H 2607.89 0.910488 1.11562 0
M  V30 27310 H 2609.85 0.338847 4.20035 0
M  V30 27311 H 2608.57 -0.444436 3.23562 0
M  V30 27312 H 2607.23 1.68799 3.25426 0
M  V30 27313 H 2606.88 -0.0377405 5.02986 0
M  V30 27314 H 2606.58 1.60407 5.65282 0
M  V30 27315 H 2608.1 0.764274 6.05798 0
M  V30 27316 H 2609.51 2.78118 5.01322 0
M  V30 27317 H 2607.91 3.55239 4.83658 0
M  V30 27318 H 2608.98 3.4291 3.42842 0
M  V30 27319 N 2610.32 -1.21392 1.00507 0
M  V30 27320 C 2611.74 -1.42543 0.717898 0
M  V30 27321 C 2611.94 -1.88693 -0.706903 0
M  V30 27322 O 2611 -2.0485 -1.47624 0
M  V30 27323 C 2612.31 -2.45681 1.73382 0
M  V30 27324 C 2613.86 -2.59464 1.75064 0
M  V30 27325 C 2614.33 -3.65835 2.75551 0
M  V30 27326 N 2615.82 -3.73306 2.7422 0
M  V30 27327 C 2616.56 -4.55239 3.48634 0
M  V30 27328 N 2616.05 -5.41067 4.32687 0
M  V30 27329 N 2617.85 -4.49662 3.37283 0
M  V30 27330 H 2610 -0.89747 1.92508 0
M  V30 27331 H 2612.26 -0.45636 0.830927 0
M  V30 27332 H 2611.97 -2.18743 2.75398 0
M  V30 27333 H 2611.84 -3.44486 1.53653 0
M  V30 27334 H 2614.23 -2.85739 0.737387 0
M  V30 27335 H 2614.31 -1.60894 1.98864 0
M  V30 27336 H 2613.95 -3.40306 3.77034 0
M  V30 27337 H 2613.88 -4.64002 2.49017 0
M  V30 27338 H 2616.37 -3.1199 2.13239 0
M  V30 27339 H 2616.69 -6.00639 4.86264 0
M  V30 27340 H 2615.03 -5.40608 4.3677 0
M  V30 27341 H 2618.22 -3.81641 2.7105 0
M  V30 27342 H 2618.4 -5.13281 3.95533 0
M  V30 27343 N 2611.8 -0.779811 -1.36955 0
M  V30 27344 C 2612.75 -0.159461 -2.32053 0
M  V30 27345 C 2613.74 0.675851 -1.55334 0
M  V30 27346 O 2614.95 0.57201 -1.70669 0
M  V30 27347 H 2611.33 -0.0327839 -0.751285 0
M  V30 27348 H 2613.3 -0.977128 -2.81948 0
M  V30 27349 C 2612.05 0.698917 -3.40603 0
M  V30 27350 H 2611.37 0.0655263 -3.99746 0
M  V30 27351 H 2612.81 1.09981 -4.09488 0
M  V30 27352 C 2611.27 1.85302 -2.81362 0
M  V30 27353 O 2611.8 2.94902 -2.72756 0
M  V30 27354 N 2610 1.65614 -2.38789 0
M  V30 27355 H 2609.55 0.764681 -2.45989 0
M  V30 27356 H 2609.51 2.42998 -1.99498 0
M  V30 27357 N 2613.28 1.48384 -0.531019 0
M  V30 27358 C 2614.53 2.021 0.00269637 0
M  V30 27359 C 2614.85 1.41029 1.34669 0
M  V30 27360 O 2614.12 0.576045 1.87239 0
M  V30 27361 H 2612.7 0.746989 0.00398461 0
M  V30 27362 H 2615.36 1.82084 -0.695086 0
M  V30 27363 H 2614.46 3.11905 0.110255 0
M  V30 27364 N 2614.76 0.2662 1.55336 0
M  V30 27365 C 2616.04 -0.404452 1.91373 0
M  V30 27366 C 2616.42 -1.74405 1.18938 0
M  V30 27367 O 2615.76 -2.26343 0.31324 0
M  V30 27368 C 2615.97 -0.553532 3.44582 0
M  V30 27369 C 2617.32 -0.840545 4.16197 0
M  V30 27370 O 2618.35 -0.638677 3.50427 0
M  V30 27371 O 2617.2 -1.22608 5.32569 0
M  V30 27372 H 2614.3 -0.220011 0.797198 0
M  V30 27373 H 2616.84 0.311694 1.66813 0
M  V30 27374 H 2615.62 0.389566 3.89356 0
M  V30 27375 H 2615.24 -1.31949 3.75067 0
M  V30 27376 N 2616.24 -1.57599 -0.0066531 0
M  V30 27377 C 2617.65 -1.78404 -0.550348 0
M  V30 27378 C 2618 -0.900045 -1.74338 0
M  V30 27379 O 2617.12 -0.100751 -2.16165 0
M  V30 27380 C 2617.72 -3.23545 -1.00518 0
M  V30 27381 C 2616.28 -3.45471 -1.49422 0
M  V30 27382 C 2615.42 -2.73748 -0.442396 0
M  V30 27383 H 2618.38 -1.57174 0.219535 0
M  V30 27384 H 2618.4 -3.31292 -1.87152 0
M  V30 27385 H 2617.91 -3.87859 -0.136666 0
M  V30 27386 H 2616.01 -2.86362 -2.38385 0
M  V30 27387 H 2616.12 -4.54138 -1.52627 0
M  V30 27388 H 2614.49 -2.38173 -0.902536 0
M  V30 27389 H 2615.27 -3.40758 0.417033 0
M  V30 27390 N 2617.72 0.279305 -1.55105 0
M  V30 27391 C 2619.13 0.626161 -1.46804 0
M  V30 27392 C 2619.33 1.89788 -0.676972 0
M  V30 27393 O 2618.39 2.51759 -0.193304 0
M  V30 27394 C 2619.7 0.758983 -2.90964 0
M  V30 27395 C 2621.25 0.853451 -3.0114 0
M  V30 27396 C 2621.72 1.0181 -4.46541 0
M  V30 27397 N 2623.21 1.08378 -4.50343 0
M  V30 27398 C 2623.95 1.22986 -5.60055 0
M  V30 27399 N 2623.45 1.34354 -6.79648 0
M  V30 27400 N 2625.24 1.26046 -5.47785 0
M  V30 27401 H 2617.39 -0.555957 -2.04995 0
M  V30 27402 H 2619.65 -0.187256 -0.929322 0
M  V30 27403 H 2619.36 -0.104913 -3.51543 0
M  V30 27404 H 2619.23 1.64125 -3.39622 0
M  V30 27405 H 2621.62 1.70782 -2.40661 0
M  V30 27406 H 2621.7 -0.0532916 -2.55744 0
M  V30 27407 H 2621.34 0.168415 -5.07621 0
M  V30 27408 H 2621.27 1.9394 -4.89587 0
M  V30 27409 H 2623.77 1.00858 -3.64192 0
M  V30 27410 H 2624.08 1.45317 -7.59014 0
M  V30 27411 H 2622.42 1.3137 -6.82471 0
M  V30 27412 H 2625.61 1.16792 -4.53296 0
M  V30 27413 H 2625.79 1.37087 -6.33333 0
M  V30 27414 N 2619.19 1.47931 0.543528 0
M  V30 27415 C 2620.12 1.6433 1.65885 0
M  V30 27416 C 2621.1 0.492412 1.62817 0
M  V30 27417 O 2622.29 0.72337 1.80225 0
M  V30 27418 C 2619.42 1.67019 3.04503 0
M  V30 27419 C 2618.37 2.81472 3.22425 0
M  V30 27420 C 2617.7 2.69241 4.61967 0
M  V30 27421 C 2619 4.22921 3.06489 0
M  V30 27422 H 2620.69 2.577 1.52417 0
M  V30 27423 H 2618.24 1.24017 0.731827 0
M  V30 27424 H 2620.19 1.77081 3.82388 0
M  V30 27425 H 2618.92 0.702176 3.18962 0
M  V30 27426 H 2617.58 2.70943 2.46953 0
M  V30 27427 H 2617.22 1.70438 4.73244 0
M  V30 27428 H 2616.92 3.46033 4.74905 0
M  V30 27429 H 2618.45 2.81251 5.41969 0
M  V30 27430 H 2619.86 4.34354 3.74178 0
M  V30 27431 H 2618.26 5.00606 3.30929 0
M  V30 27432 H 2619.33 4.4033 2.0307 0
M  V30 27433 N 2620.67 -0.791347 1.36292 0
M  V30 27434 C 2621.62 -1.9039 1.30461 0
M  V30 27435 C 2622.59 -1.6519 0.173661 0
M  V30 27436 O 2623.77 -1.87376 0.359863 0
M  V30 27437 C 2620.91 -3.27172 1.09783 0
M  V30 27438 C 2620.03 -3.64458 2.31936 0
M  V30 27439 C 2619.16 -4.90348 2.04284 0
M  V30 27440 C 2618.2 -5.20307 3.22409 0
M  V30 27441 N 2617.34 -6.37379 2.94435 0
M  V30 27442 H 2622.18 -1.9471 2.25593 0
M  V30 27443 H 2619.71 -0.952196 1.12123 0
M  V30 27444 H 2621.67 -4.06047 0.958204 0
M  V30 27445 H 2620.3 -3.2228 0.183071 0
M  V30 27446 H 2619.35 -2.80723 2.56708 0
M  V30 27447 H 2620.67 -3.82548 3.20092 0
M  V30 27448 H 2619.82 -5.77084 1.87241 0
M  V30 27449 H 2618.56 -4.74324 1.13436 0
M  V30 27450 H 2617.56 -4.32055 3.40013 0
M  V30 27451 H 2618.79 -5.38251 4.14081 0
M  V30 27452 H 2616.74 -6.22751 2.06196 0
M  V30 27453 H 2616.65 -6.55792 3.76129 0
M  V30 27454 H 2617.92 -7.27103 2.80966 0
M  V30 27455 N 2622.15 -1.2054 -1.01528 0
M  V30 27456 C 2623.4 -1.01786 -1.75406 0
M  V30 27457 C 2623.73 0.448781 -1.88943 0
M  V30 27458 O 2623 1.33317 -1.41622 0
M  V30 27459 C 2623.29 -1.70361 -3.17252 0
M  V30 27460 C 2623.14 -3.24479 -3.11502 0
M  V30 27461 C 2624.46 -1.43777 -4.15952 0
M  V30 27462 H 2621.58 -0.371178 -0.636707 0
M  V30 27463 H 2624.22 -1.48572 -1.18433 0
M  V30 27464 H 2622.37 -1.30585 -3.65896 0
M  V30 27465 H 2624.04 -3.73558 -2.70652 0
M  V30 27466 H 2622.28 -3.55316 -2.48864 0
M  V30 27467 H 2622.96 -3.67618 -4.11778 0
M  V30 27468 H 2625.43 -1.78287 -3.75969 0
M  V30 27469 H 2624.31 -1.94288 -5.13365 0
M  V30 27470 H 2624.57 -0.365641 -4.40585 0
M  V30 27471 N 2623.63 1.20858 -1.01149 0
M  V30 27472 C 2624.58 2.25492 -0.570629 0
M  V30 27473 C 2625.57 1.64895 0.38808 0
M  V30 27474 O 2626.78 1.78133 0.258561 0
M  V30 27475 H 2623.15 0.733403 -0.166204 0
M  V30 27476 H 2625.12 2.6001 -1.46415 0
M  V30 27477 C 2623.87 3.47607 0.080463 0
M  V30 27478 H 2623.19 3.9451 -0.648226 0
M  V30 27479 H 2624.63 4.22535 0.352123 0
M  V30 27480 C 2623.09 3.09891 1.3217 0
M  V30 27481 O 2623.62 3.20964 2.41547 0
M  V30 27482 N 2621.83 2.6449 1.20388 0
M  V30 27483 H 2621.38 2.55681 0.31386 0
M  V30 27484 H 2621.33 2.39625 2.03537 0
M  V30 27485 N 2625.11 0.787064 1.3654 0
M  V30 27486 C 2626.35 0.358376 1.99304 0
M  V30 27487 C 2626.68 -1.0693 1.62469 0
M  V30 27488 O 2625.94 -1.75296 0.87005 0
M  V30 27489 C 2626.23 0.466547 3.54342 0
M  V30 27490 C 2625.9 1.85469 4.10989 0
M  V30 27491 C 2624.56 2.2345 4.26173 0
M  V30 27492 C 2626.91 2.76374 4.4189 0
M  V30 27493 C 2624.24 3.51744 4.69567 0
M  V30 27494 C 2626.59 4.04093 4.86715 0
M  V30 27495 C 2625.26 4.42099 5.00104 0
M  V30 27496 H 2624.53 0.131139 0.729303 0
M  V30 27497 H 2627.18 1.00407 1.63067 0
M  V30 27498 H 2625.48 -0.262651 3.90919 0
M  V30 27499 H 2627.18 0.115924 4.00832 0
M  V30 27500 H 2623.77 1.54954 3.99609 0
M  V30 27501 H 2627.95 2.48285 4.2973 0
M  V30 27502 H 2623.21 3.81065 4.78121 0
M  V30 27503 H 2627.38 4.74649 5.0959 0
M  V30 27504 H 2625.01 5.41567 5.33488 0
M  V30 27505 N 2626.58 -1.48101 0.53888 0
M  V30 27506 C 2627.49 -2.33541 -0.222607 0
M  V30 27507 C 2628.51 -1.47049 -0.930199 0
M  V30 27508 O 2629.69 -1.80013 -0.903179 0
M  V30 27509 C 2626.75 -3.23359 -1.25059 0
M  V30 27510 C 2625.81 -4.25731 -0.552394 0
M  V30 27511 C 2625.04 -5.11257 -1.5314 0
M  V30 27512 O 2625.27 -4.98915 -2.76478 0
M  V30 27513 O 2624.2 -5.92387 -1.06592 0
M  V30 27514 H 2628.03 -2.99919 0.477759 0
M  V30 27515 H 2625.61 -1.46363 0.299695 0
M  V30 27516 H 2627.49 -3.78891 -1.84444 0
M  V30 27517 H 2626.17 -2.59632 -1.9332 0
M  V30 27518 H 2625.08 -3.7401 0.0821798 0
M  V30 27519 H 2626.41 -4.92121 0.0884391 0
M  V30 27520 N 2628.06 -0.274434 -1.55192 0
M  V30 27521 C 2628.97 0.623433 -2.26165 0
M  V30 27522 C 2629.99 1.17066 -1.28731 0
M  V30 27523 O 2631.16 1.20109 -1.61665 0
M  V30 27524 C 2628.23 1.79135 -2.96836 0
M  V30 27525 C 2627.29 1.28086 -4.09747 0
M  V30 27526 C 2626.52 2.39311 -4.77039 0
M  V30 27527 O 2626.75 3.58652 -4.43537 0
M  V30 27528 O 2625.68 2.07506 -5.65 0
M  V30 27529 H 2629.51 0.0485127 -3.03661 0
M  V30 27530 H 2627.09 -0.0418645 -1.49341 0
M  V30 27531 H 2628.97 2.47234 -3.41252 0
M  V30 27532 H 2627.65 2.35337 -2.22257 0
M  V30 27533 H 2626.55 0.566351 -3.69788 0
M  V30 27534 H 2627.89 0.764598 -4.86225 0
M  V30 27535 N 2629.54 1.576 -0.00170483 0
M  V30 27536 C 2630.5 2.07475 0.974009 0
M  V30 27537 C 2631.5 0.984466 1.27141 0
M  V30 27538 O 2632.69 1.24706 1.21631 0
M  V30 27539 C 2629.82 2.51763 2.29844 0
M  V30 27540 H 2631.02 2.94951 0.542569 0
M  V30 27541 H 2628.57 1.54355 0.245802 0
M  V30 27542 H 2629.31 1.67534 2.77674 0
M  V30 27543 H 2629.09 3.3139 2.09578 0
M  V30 27544 H 2630.58 2.9067 2.99835 0
M  V30 27545 N 2631.02 -0.271076 1.55251 0
M  V30 27546 C 2632.27 -1.00021 1.75153 0
M  V30 27547 C 2632.58 -1.8738 0.561074 0
M  V30 27548 O 2633.79 -2.63787 0.642552 0
M  V30 27549 C 2632.24 -1.82829 3.10002 0
M  V30 27550 C 2631.85 -1.00328 4.36621 0
M  V30 27551 C 2633.59 -2.55162 3.39253 0
M  V30 27552 C 2631.5 -1.82585 5.62509 0
M  V30 27553 H 2630.43 -0.377172 0.652884 0
M  V30 27554 H 2633.08 -0.255811 1.81708 0
M  V30 27555 H 2631.46 -2.61373 2.9749 0
M  V30 27556 H 2632.64 -0.261879 4.60055 0
M  V30 27557 H 2630.95 -0.394413 4.14528 0
M  V30 27558 H 2633.55 -3.17113 4.30516 0
M  V30 27559 H 2633.89 -3.25545 2.59473 0
M  V30 27560 H 2634.43 -1.83647 3.52872 0
M  V30 27561 H 2631.16 -1.1662 6.45043 0
M  V30 27562 H 2630.68 -2.54318 5.43215 0
M  V30 27563 H 2632.36 -2.39903 6.00879 0
M  V30 27564 N 2632.5 -1.48217 -0.535675 0
M  V30 27565 C 2633.74 -1.55944 -1.29181 0
M  V30 27566 C 2634.07 -0.230891 -1.93125 0
M  V30 27567 O 2633.33 0.7783 -1.79558 0
M  V30 27568 C 2633.63 -2.64216 -2.40675 0
M  V30 27569 C 2633.29 -4.06831 -1.94421 0
M  V30 27570 C 2631.95 -4.45648 -1.81524 0
M  V30 27571 C 2634.31 -4.96228 -1.59396 0
M  V30 27572 C 2631.63 -5.71674 -1.31929 0
M  V30 27573 C 2633.99 -6.22738 -1.11265 0
M  V30 27574 C 2632.65 -6.60417 -0.969808 0
M  V30 27575 H 2631.92 -0.570641 -0.472705 0
M  V30 27576 H 2634.57 -1.8191 -0.598405 0
M  V30 27577 H 2632.87 -2.32088 -3.15661 0
M  V30 27578 H 2634.57 -2.67412 -2.98817 0
M  V30 27579 H 2631.16 -3.76172 -2.05409 0
M  V30 27580 H 2635.34 -4.6692 -1.68223 0
M  V30 27581 H 2630.6 -5.99598 -1.19552 0
M  V30 27582 H 2634.77 -6.91408 -0.832332 0
M  V30 27583 H 2632.4 -7.57959 -0.583302 0
M  V30 27584 N 2633.97 0.784108 -1.3671 0
M  V30 27585 C 2635.2 1.57817 -1.34568 0
M  V30 27586 C 2635.62 1.87972 0.0694927 0
M  V30 27587 O 2634.98 1.48295 1.04299 0
M  V30 27588 C 2635.03 2.87276 -2.17957 0
M  V30 27589 O 2634.13 3.81111 -1.5757 0
M  V30 27590 H 2633.48 0.478516 -0.460346 0
M  V30 27591 H 2636.01 0.971463 -1.80066 0
M  V30 27592 H 2636.02 3.36496 -2.30727 0
M  V30 27593 H 2634.69 2.64655 -3.20828 0
M  V30 27594 H 2633.27 3.39719 -1.5377 0
M  V30 27595 N 2635.45 1.21076 1.00888 0
M  V30 27596 C 2636.4 0.966548 2.09586 0
M  V30 27597 C 2637.37 -0.10606 1.65761 0
M  V30 27598 O 2638.55 0.0402623 1.90758 0
M  V30 27599 C 2635.69 0.533118 3.40957 0
M  V30 27600 C 2634.81 1.67474 3.98217 0
M  V30 27601 C 2633.94 1.19085 5.1768 0
M  V30 27602 C 2632.98 2.30506 5.67039 0
M  V30 27603 N 2632.12 1.83279 6.77756 0
M  V30 27604 H 2636.96 1.89712 2.29812 0
M  V30 27605 H 2634.5 0.945509 1.12688 0
M  V30 27606 H 2636.45 0.263093 4.1637 0
M  V30 27607 H 2635.08 -0.360449 3.20781 0
M  V30 27608 H 2634.14 2.05949 3.19827 0
M  V30 27609 H 2635.45 2.51343 4.30846 0
M  V30 27610 H 2634.6 0.877256 6.00324 0
M  V30 27611 H 2633.34 0.322151 4.86635 0
M  V30 27612 H 2632.35 2.62673 4.82994 0
M  V30 27613 H 2633.57 3.17865 6.00115 0
M  V30 27614 H 2631.52 0.98747 6.48525 0
M  V30 27615 H 2631.43 2.60724 7.09619 0
M  V30 27616 H 2632.7 1.54942 7.63946 0
M  V30 27617 N 2636.93 -1.2032 1.01789 0
M  V30 27618 C 2638.16 -1.93417 0.726174 0
M  V30 27619 C 2638.57 -1.75076 -0.717287 0
M  V30 27620 O 2637.91 -1.06281 -1.49834 0
M  V30 27621 C 2637.97 -3.4578 0.983681 0
M  V30 27622 C 2637.64 -3.87884 2.41651 0
M  V30 27623 C 2638.63 -3.9354 3.39739 0
M  V30 27624 C 2636.32 -4.19836 2.75759 0
M  V30 27625 C 2638.31 -4.30561 4.69996 0
M  V30 27626 C 2636 -4.56532 4.06229 0
M  V30 27627 C 2637 -4.61867 5.03158 0
M  V30 27628 O 2636.69 -4.9772 6.31292 0
M  V30 27629 H 2636.42 -0.621537 0.265835 0
M  V30 27630 H 2638.97 -1.5372 1.36233 0
M  V30 27631 H 2637.2 -3.85608 0.290369 0
M  V30 27632 H 2638.89 -4.00106 0.683349 0
M  V30 27633 H 2639.66 -3.69017 3.14725 0
M  V30 27634 H 2635.54 -4.14873 2.01 0
M  V30 27635 H 2639.08 -4.3464 5.4565 0
M  V30 27636 H 2634.98 -4.80511 4.31022 0
M  V30 27637 H 2635.75 -5.15708 6.356 0
M  V30 27638 N 2638.41 -0.794293 -1.3612 0
M  V30 27639 C 2639.66 -0.365499 -1.98361 0
M  V30 27640 C 2639.97 1.06994 -1.63742 0
M  V30 27641 O 2641.18 1.60125 -2.19254 0
M  V30 27642 C 2639.63 -0.602558 -3.5482 0
M  V30 27643 C 2639.24 -2.04974 -3.98359 0
M  V30 27644 C 2640.98 -0.238511 -4.23829 0
M  V30 27645 C 2638.89 -2.2332 -5.47615 0
M  V30 27646 H 2637.82 -0.132923 -0.742191 0
M  V30 27647 H 2640.47 -0.976617 -1.55353 0
M  V30 27648 H 2638.85 0.0783394 -3.95923 0
M  V30 27649 H 2640.03 -2.76743 -3.68442 0
M  V30 27650 H 2638.34 -2.37249 -3.42202 0
M  V30 27651 H 2640.94 -0.353798 -5.33528 0
M  V30 27652 H 2641.28 0.813935 -4.08266 0
M  V30 27653 H 2641.82 -0.872838 -3.88106 0
M  V30 27654 H 2638.56 -3.26965 -5.68132 0
M  V30 27655 H 2638.08 -1.5606 -5.79142 0
M  V30 27656 H 2639.75 -2.04271 -6.13907 0
M  V30 27657 N 2639.89 1.47813 -0.546727 0
M  V30 27658 C 2641.13 2.02091 -0.0187392 0
M  V30 27659 C 2641.46 1.42449 1.33166 0
M  V30 27660 O 2640.73 0.595872 1.86618 0
M  V30 27661 H 2639.31 0.74699 -0.00393844 0
M  V30 27662 H 2641.97 1.81336 -0.714359 0
M  V30 27663 H 2641.06 3.12005 0.0771671 0
M  V30 27664 N 2641.36 0.28266 1.55044 0
M  V30 27665 C 2642.31 -0.617438 2.24255 0
M  V30 27666 C 2643.31 -1.15181 1.24217 0
M  V30 27667 O 2644.51 -1.10456 1.42124 0
M  V30 27668 H 2640.89 -0.21768 0.719805 0
M  V30 27669 H 2642.86 -0.0109552 2.98398 0
M  V30 27670 C 2641.61 -1.78667 2.98284 0
M  V30 27671 H 2640.93 -1.38468 3.75055 0
M  V30 27672 H 2642.37 -2.39293 3.50021 0
M  V30 27673 C 2640.83 -2.67971 2.04189 0
M  V30 27674 O 2641.36 -3.68547 1.59799 0
M  V30 27675 N 2639.57 -2.35304 1.7053 0
M  V30 27676 H 2639.11 -1.53563 2.06824 0
M  V30 27677 H 2639.07 -2.95325 1.07844 0
M  V30 27678 N 2642.84 -1.57597 0.0100627 0
M  V30 27679 C 2644.09 -1.91284 -0.673663 0
M  V30 27680 C 2644.42 -0.885009 -1.72862 0
M  V30 27681 O 2643.7 0.0949146 -1.94268 0
M  V30 27682 C 2643.98 -3.3552 -1.3076 0
M  V30 27683 C 2643.83 -4.49028 -0.263499 0
M  V30 27684 C 2645.15 -3.79362 -2.23098 0
M  V30 27685 H 2642.27 -0.695638 -0.243427 0
M  V30 27686 H 2644.91 -1.89894 0.0634197 0
M  V30 27687 H 2643.06 -3.36836 -1.93582 0
M  V30 27688 H 2644.73 -4.59847 0.365819 0
M  V30 27689 H 2642.98 -4.31828 0.413153 0
M  V30 27690 H 2643.65 -5.46932 -0.746302 0
M  V30 27691 H 2646.12 -3.79662 -1.70282 0
M  V30 27692 H 2645 -4.81015 -2.64415 0
M  V30 27693 H 2645.26 -3.13792 -3.11427 0
M  V30 27694 N 2644.32 0.262839 -1.55393 0
M  V30 27695 C 2645.27 1.34497 -1.89772 0
M  V30 27696 C 2646.26 1.50628 -0.775089 0
M  V30 27697 O 2647.47 1.52292 -0.959545 0
M  V30 27698 H 2643.84 0.450031 -0.602475 0
M  V30 27699 H 2645.81 1.02757 -2.80149 0
M  V30 27700 C 2644.56 2.69653 -2.19506 0
M  V30 27701 H 2643.89 2.58035 -3.05382 0
M  V30 27702 H 2645.33 3.44285 -2.47475 0
M  V30 27703 C 2643.79 3.21529 -1.00602 0
M  V30 27704 O 2644.32 4.00947 -0.245838 0
M  V30 27705 N 2642.52 2.79344 -0.80096 0
M  V30 27706 H 2642.07 2.14873 -1.42083 0
M  V30 27707 H 2642.03 3.14399 -0.00703522 0
M  V30 27708 N 2645.8 1.48499 0.527807 0
M  V30 27709 C 2647.03 1.60292 1.3082 0
M  V30 27710 C 2647.44 0.264007 1.86945 0
M  V30 27711 O 2646.8 -0.747005 1.66512 0
M  V30 27712 C 2646.85 2.6512 2.45751 0
M  V30 27713 O 2646.57 3.93816 1.91939 0
M  V30 27714 C 2648.07 2.87373 3.37538 0
M  V30 27715 H 2645.29 0.540401 0.397753 0
M  V30 27716 H 2647.84 1.94342 0.636495 0
M  V30 27717 H 2645.99 2.33923 3.08802 0
M  V30 27718 H 2646.4 4.51344 2.67187 0
M  V30 27719 H 2647.88 3.64517 4.14525 0
M  V30 27720 H 2648.36 1.96277 3.92902 0
M  V30 27721 H 2648.96 3.19883 2.80277 0
M  V30 27722 N 2647.28 -0.776847 1.37123 0
M  V30 27723 C 2648.23 -1.88003 1.28992 0
M  V30 27724 C 2649.21 -1.59904 0.178793 0
M  V30 27725 O 2650.4 -1.72121 0.412735 0
M  V30 27726 C 2647.53 -3.254 1.09407 0
M  V30 27727 C 2646.62 -3.59467 2.25043 0
M  V30 27728 N 2647.01 -3.64752 3.50413 0
M  V30 27729 C 2645.31 -3.89603 2.17085 0
M  V30 27730 C 2646.01 -3.95421 4.26635 0
M  V30 27731 N 2644.98 -4.11056 3.55716 0
M  V30 27732 H 2648.79 -1.90333 2.23943 0
M  V30 27733 H 2646.3 -0.973029 1.30023 0
M  V30 27734 H 2648.3 -4.04313 1.01668 0
M  V30 27735 H 2646.96 -3.24336 0.153689 0
M  V30 27736 H 2647.97 -3.47084 3.84386 0
M  V30 27737 H 2644.65 -3.96391 1.31074 0
M  V30 27738 H 2646.04 -4.06328 5.35114 0
M  V30 27739 N 2648.76 -1.2161 -1.00244 0
M  V30 27740 C 2650 -1.03641 -1.74317 0
M  V30 27741 C 2650.33 0.428715 -1.89409 0
M  V30 27742 O 2649.61 1.31807 -1.43028 0
M  V30 27743 C 2649.89 -1.73717 -3.15428 0
M  V30 27744 C 2649.75 -3.27765 -3.08043 0
M  V30 27745 C 2651.06 -1.4818 -4.14404 0
M  V30 27746 H 2648.18 -0.377911 -0.632734 0
M  V30 27747 H 2650.83 -1.4982 -1.16851 0
M  V30 27748 H 2648.98 -1.34458 -3.6449 0
M  V30 27749 H 2650.65 -3.76407 -2.66674 0
M  V30 27750 H 2648.89 -3.57935 -2.45081 0
M  V30 27751 H 2649.56 -3.71965 -4.07855 0
M  V30 27752 H 2652.04 -1.82264 -3.74057 0
M  V30 27753 H 2650.91 -1.99722 -5.11275 0
M  V30 27754 H 2651.17 -0.412351 -4.40173 0
M  V30 27755 N 2650.23 1.19778 -1.02425 0
M  V30 27756 C 2651.51 1.8508 -0.632834 0
M  V30 27757 C 2651.89 1.91481 0.888711 0
M  V30 27758 O 2651.24 1.42835 1.78355 0
M  V30 27759 C 2651.45 3.24303 -1.28953 0
M  V30 27760 C 2652.8 4.00511 -1.40983 0
M  V30 27761 O 2653.82 3.33684 -1.24634 0
M  V30 27762 O 2652.68 5.20206 -1.67476 0
M  V30 27763 H 2649.77 0.797377 -0.219362 0
M  V30 27764 H 2652.32 1.27305 -1.12211 0
M  V30 27765 H 2651.09 3.14452 -2.32886 0
M  V30 27766 H 2650.71 3.89717 -0.787816 0
M  V30 27767 N 2651.71 0.801501 1.35697 0
M  V30 27768 C 2652.62 0.209732 2.33661 0
M  V30 27769 C 2653.64 -0.644562 1.61621 0
M  V30 27770 O 2654.81 -0.557511 1.9353 0
M  V30 27771 C 2651.88 -0.635973 3.40817 0
M  V30 27772 C 2650.94 0.238222 4.28639 0
M  V30 27773 C 2650.17 -0.567214 5.30677 0
M  V30 27774 O 2650.4 -1.8023 5.41178 0
M  V30 27775 O 2649.33 0.0392394 6.01887 0
M  V30 27776 H 2653.16 1.02001 2.86059 0
M  V30 27777 H 2650.74 0.563188 1.38378 0
M  V30 27778 H 2652.62 -1.11783 4.06303 0
M  V30 27779 H 2651.3 -1.42394 2.90699 0
M  V30 27780 H 2650.2 0.767109 3.66151 0
M  V30 27781 H 2651.54 0.99 4.82141 0
M  V30 27782 N 2653.19 -1.47521 0.554558 0
M  V30 27783 C 2654.42 -2.06572 0.0342437 0
M  V30 27784 C 2654.83 -1.40807 -1.26372 0
M  V30 27785 O 2654.17 -0.497721 -1.76829 0
M  V30 27786 C 2654.23 -3.58731 -0.235033 0
M  V30 27787 C 2653.9 -4.4652 0.973103 0
M  V30 27788 C 2654.89 -4.84797 1.87798 0
M  V30 27789 C 2652.58 -4.88073 1.18703 0
M  V30 27790 C 2654.57 -5.63423 2.98049 0
M  V30 27791 C 2652.26 -5.66464 2.29264 0
M  V30 27792 C 2653.26 -6.0405 3.18768 0
M  V30 27793 O 2652.95 -6.80862 4.27413 0
M  V30 27794 H 2652.68 -0.674719 0.0415988 0
M  V30 27795 H 2655.23 -1.90551 0.766781 0
M  V30 27796 H 2653.46 -3.72955 -1.02185 0
M  V30 27797 H 2655.15 -3.99811 -0.700406 0
M  V30 27798 H 2655.92 -4.53296 1.72475 0
M  V30 27799 H 2651.8 -4.58285 0.499551 0
M  V30 27800 H 2655.34 -5.92679 3.67937 0
M  V30 27801 H 2651.24 -5.97378 2.44561 0
M  V30 27802 H 2652 -6.99252 4.25427 0
M  V30 27803 N 2654.67 -0.290879 -1.54892 0
M  V30 27804 C 2655.6 0.631451 -2.1929 0
M  V30 27805 C 2656.58 1.14049 -1.15895 0
M  V30 27806 O 2657.76 1.21055 -1.44492 0
M  V30 27807 C 2654.89 1.86286 -2.8287 0
M  V30 27808 C 2653.94 1.48794 -3.99703 0
M  V30 27809 S 2654.77 0.552551 -5.32642 0
M  V30 27810 C 2655.92 1.79198 -5.99699 0
M  V30 27811 H 2656.16 0.0843269 -2.9718 0
M  V30 27812 H 2653.69 -0.0750581 -1.54217 0
M  V30 27813 H 2655.65 2.56959 -3.20129 0
M  V30 27814 H 2654.31 2.38114 -2.04843 0
M  V30 27815 H 2653.5 2.40466 -4.42936 0
M  V30 27816 H 2653.1 0.861257 -3.63948 0
M  V30 27817 H 2655.4 2.73389 -6.19891 0
M  V30 27818 H 2656.34 1.40239 -6.94074 0
M  V30 27819 H 2656.75 1.9641 -5.29229 0
M  V30 27820 N 2656.15 1.57589 -0.0184203 0
M  V30 27821 C 2657.08 2.05052 1.00144 0
M  V30 27822 C 2658.06 0.944081 1.32385 0
M  V30 27823 O 2659.24 1.21361 1.44235 0
M  V30 27824 C 2656.37 2.46361 2.32431 0
M  V30 27825 C 2655.41 3.6792 2.15725 0
M  V30 27826 S 2656.25 5.15041 1.46604 0
M  V30 27827 C 2657.4 5.59636 2.80283 0
M  V30 27828 H 2657.64 2.91236 0.597378 0
M  V30 27829 H 2655.17 1.53189 0.192975 0
M  V30 27830 H 2657.13 2.70827 3.08485 0
M  V30 27831 H 2655.79 1.60542 2.69972 0
M  V30 27832 H 2654.98 3.94635 3.13495 0
M  V30 27833 H 2654.58 3.43551 1.47814 0
M  V30 27834 H 2656.87 5.63222 3.76547 0
M  V30 27835 H 2657.82 6.59329 2.58245 0
M  V30 27836 H 2658.23 4.87251 2.85038 0
M  V30 27837 N 2657.62 -0.254594 1.5553 0
M  V30 27838 C 2658.53 -1.33674 1.92791 0
M  V30 27839 C 2659.55 -1.5307 0.827383 0
M  V30 27840 O 2660.73 -1.66841 1.1281 0
M  V30 27841 C 2657.79 -2.67272 2.20832 0
M  V30 27842 C 2656.85 -2.56464 3.44274 0
M  V30 27843 C 2656.08 -3.83691 3.70968 0
M  V30 27844 O 2656.31 -4.85221 2.99861 0
M  V30 27845 O 2655.24 -3.82786 4.64498 0
M  V30 27846 H 2659.07 -1.05066 2.84947 0
M  V30 27847 H 2656.65 -0.454698 1.42313 0
M  V30 27848 H 2658.53 -3.46233 2.4021 0
M  V30 27849 H 2657.21 -2.95627 1.31856 0
M  V30 27850 H 2656.12 -1.75815 3.30212 0
M  V30 27851 H 2657.45 -2.33055 4.33528 0
M  V30 27852 N 2659.1 -1.48777 -0.519925 0
M  V30 27853 C 2660.06 -1.63553 -1.60571 0
M  V30 27854 C 2661.06 -0.50826 -1.52556 0
M  V30 27855 O 2662.25 -0.77429 -1.56046 0
M  V30 27856 C 2659.39 -1.61517 -3.00208 0
M  V30 27857 H 2660.58 -2.60378 -1.48806 0
M  V30 27858 H 2658.13 -1.37524 -0.742748 0
M  V30 27859 H 2658.87 -0.662065 -3.1747 0
M  V30 27860 H 2658.65 -2.43365 -3.07435 0
M  V30 27861 H 2660.14 -1.75071 -3.79131 0
M  V30 27862 N 2660.58 0.769564 -1.37534 0
M  V30 27863 C 2661.83 1.53046 -1.33059 0
M  V30 27864 C 2662.16 1.94018 0.0841524 0
M  V30 27865 O 2661.43 1.64236 1.04195 0
M  V30 27866 C 2661.72 2.79402 -2.27171 0
M  V30 27867 C 2661.57 2.44671 -3.77434 0
M  V30 27868 C 2662.89 3.81346 -2.1969 0
M  V30 27869 H 2660.01 0.55522 -0.484665 0
M  V30 27870 H 2662.65 0.882673 -1.68252 0
M  V30 27871 H 2660.8 3.34678 -1.97288 0
M  V30 27872 H 2662.47 1.95293 -4.17922 0
M  V30 27873 H 2660.71 1.77339 -3.95896 0
M  V30 27874 H 2661.39 3.35004 -4.38721 0
M  V30 27875 H 2663.86 3.35569 -2.46034 0
M  V30 27876 H 2662.74 4.67476 -2.87676 0
M  V30 27877 H 2663 4.25769 -1.19052 0
M  V30 27878 N 2662.06 1.22139 0.995977 0
M  V30 27879 C 2663.34 0.952672 1.70832 0
M  V30 27880 C 2663.72 -0.533083 2.04258 0
M  V30 27881 O 2663.06 -1.50031 1.72345 0
M  V30 27882 C 2663.27 1.84706 2.96116 0
M  V30 27883 C 2664.62 2.10131 3.68958 0
M  V30 27884 O 2665.65 1.82129 3.06117 0
M  V30 27885 O 2664.5 2.57539 4.82012 0
M  V30 27886 H 2661.6 0.35801 0.745492 0
M  V30 27887 H 2664.14 1.33111 1.0526 0
M  V30 27888 H 2662.92 2.85218 2.67893 0
M  V30 27889 H 2662.54 1.47002 3.69427 0
M  V30 27890 N 2663.54 -1.19233 1.03059 0
M  V30 27891 C 2664.49 -2.20409 0.583425 0
M  V30 27892 C 2665.47 -1.56618 -0.368748 0
M  V30 27893 O 2666.66 -1.75983 -0.18944 0
M  V30 27894 C 2663.79 -3.43243 -0.062593 0
M  V30 27895 C 2662.88 -4.14175 0.912123 0
M  V30 27896 N 2663.27 -4.61268 2.07522 0
M  V30 27897 C 2661.57 -4.39886 0.735936 0
M  V30 27898 C 2662.27 -5.15759 2.69012 0
M  V30 27899 N 2661.24 -5.06662 1.96962 0
M  V30 27900 H 2665.05 -2.545 1.46993 0
M  V30 27901 H 2662.56 -1.35326 0.897809 0
M  V30 27902 H 2664.56 -4.14971 -0.40058 0
M  V30 27903 H 2663.22 -3.10652 -0.944758 0
M  V30 27904 H 2664.23 -4.56039 2.45456 0
M  V30 27905 H 2660.9 -4.17387 -0.0969922 0
M  V30 27906 H 2662.29 -5.62473 3.67524 0
M  V30 27907 N 2665.01 -0.808686 -1.3527 0
M  V30 27908 C 2666.24 -0.401989 -2.02651 0
M  V30 27909 C 2666.65 0.992434 -1.61082 0
M  V30 27910 O 2666 1.65122 -0.805013 0
M  V30 27911 C 2666.06 -0.408309 -3.57174 0
M  V30 27912 C 2665.72 -1.75361 -4.22016 0
M  V30 27913 C 2666.72 -2.71223 -4.43547 0
M  V30 27914 C 2664.4 -2.03819 -4.59089 0
M  V30 27915 C 2666.4 -3.93726 -5.01257 0
M  V30 27916 C 2664.08 -3.26585 -5.16513 0
M  V30 27917 C 2665.08 -4.21356 -5.37539 0
M  V30 27918 O 2664.77 -5.41955 -5.93751 0
M  V30 27919 H 2664.5 -0.161227 -0.656492 0
M  V30 27920 H 2667.06 -1.09423 -1.73827 0
M  V30 27921 H 2665.29 0.34054 -3.85198 0
M  V30 27922 H 2666.98 -0.0236337 -4.05893 0
M  V30 27923 H 2667.74 -2.50529 -4.15283 0
M  V30 27924 H 2663.62 -1.30862 -4.42036 0
M  V30 27925 H 2667.16 -4.6771 -5.17584 0
M  V30 27926 H 2663.06 -3.47148 -5.44204 0
M  V30 27927 H 2663.83 -5.4328 -6.122 0
M  V30 27928 N 2666.49 1.47225 -0.562374 0
M  V30 27929 C 2667.46 2.28554 0.172016 0
M  V30 27930 C 2668.46 1.37244 0.837904 0
M  V30 27931 O 2669.65 1.59823 0.692973 0
M  V30 27932 C 2666.78 3.1707 1.25218 0
M  V30 27933 H 2667.97 2.94953 -0.542453 0
M  V30 27934 H 2665.52 1.52999 -0.31952 0
M  V30 27935 H 2666.26 2.55373 1.99888 0
M  V30 27936 H 2666.04 3.84275 0.779448 0
M  V30 27937 H 2667.53 3.78335 1.76784 0
M  V30 27938 N 2667.97 0.299089 1.54736 0
M  V30 27939 C 2669.22 -0.310135 1.99706 0
M  V30 27940 C 2669.54 -1.54557 1.18899 0
M  V30 27941 O 2668.81 -1.93823 0.284479 0
M  V30 27942 H 2667.39 -0.117583 0.737688 0
M  V30 27943 H 2670.05 0.409976 1.90539 0
M  V30 27944 H 2669.15 -0.583496 3.06597 0
M  V30 27945 N 2669.45 -1.57577 0.0267774 0
M  V30 27946 C 2670.38 -2.06976 -0.984558 0
M  V30 27947 C 2671.39 -0.992728 -1.2903 0
M  V30 27948 O 2672.58 -1.26897 -1.25536 0
M  V30 27949 C 2669.68 -2.47736 -2.31257 0
M  V30 27950 C 2668.86 -3.78491 -2.19234 0
M  V30 27951 C 2667.91 -4.05827 -3.34949 0
M  V30 27952 O 2666.94 -4.76112 -3.11939 0
M  V30 27953 N 2668.14 -3.55817 -4.58666 0
M  V30 27954 H 2670.91 -2.94363 -0.563092 0
M  V30 27955 H 2668.47 -1.61107 -0.160033 0
M  V30 27956 H 2670.46 -2.63118 -3.07492 0
M  V30 27957 H 2669.03 -1.65728 -2.65053 0
M  V30 27958 H 2668.25 -3.72929 -1.27741 0
M  V30 27959 H 2669.54 -4.64162 -2.08401 0
M  V30 27960 H 2668.94 -2.98951 -4.80255 0
M  V30 27961 H 2667.49 -3.76481 -5.32076 0
M  V30 27962 N 2670.93 0.246342 -1.55663 0
M  V30 27963 C 2671.86 1.3087 -1.93379 0
M  V30 27964 C 2672.84 1.50177 -0.798799 0
M  V30 27965 O 2674.02 1.62776 -1.05913 0
M  V30 27966 C 2671.15 2.66334 -2.22897 0
M  V30 27967 C 2670.11 2.61721 -3.38653 0
M  V30 27968 C 2669.43 4.00986 -3.53715 0
M  V30 27969 C 2670.73 2.18658 -4.74327 0
M  V30 27970 H 2672.43 0.995502 -2.82365 0
M  V30 27971 H 2669.97 0.47744 -1.35855 0
M  V30 27972 H 2671.93 3.4079 -2.47872 0
M  V30 27973 H 2670.65 2.99291 -1.30738 0
M  V30 27974 H 2669.31 1.89723 -3.13689 0
M  V30 27975 H 2668.96 4.31209 -2.58975 0
M  V30 27976 H 2668.66 3.98787 -4.31558 0
M  V30 27977 H 2670.18 4.7714 -3.81011 0
M  V30 27978 H 2671.59 2.82845 -4.9867 0
M  V30 27979 H 2669.99 2.27569 -5.55277 0
M  V30 27980 H 2671.06 1.13826 -4.71351 0
M  V30 27981 N 2672.4 1.4905 0.512027 0
M  V30 27982 C 2673.37 1.64402 1.59702 0
M  V30 27983 C 2674.37 0.516344 1.52284 0
M  V30 27984 O 2675.56 0.782554 1.55633 0
M  V30 27985 C 2672.69 1.63107 2.99347 0
M  V30 27986 H 2673.88 2.61164 1.47423 0
M  V30 27987 H 2671.44 1.37916 0.735445 0
M  V30 27988 H 2672.17 0.678891 3.17114 0
M  V30 27989 H 2671.96 2.44992 3.0614 0
M  V30 27990 H 2673.45 1.77079 3.78197 0
M  V30 27991 N 2673.88 -0.762259 1.3794 0
M  V30 27992 C 2675.11 -1.55145 1.36886 0
M  V30 27993 C 2675.53 -1.8875 -0.0435016 0
M  V30 27994 O 2674.88 -1.52148 -1.00783 0
M  V30 27995 C 2674.93 -2.85592 2.21629 0
M  V30 27996 O 2674.65 -2.53423 3.57363 0
M  V30 27997 C 2676.16 -3.79776 2.2866 0
M  V30 27998 H 2673.38 -0.480335 0.468529 0
M  V30 27999 H 2675.92 -0.944047 1.81406 0
M  V30 28000 H 2674.07 -3.42731 1.80594 0
M  V30 28001 H 2674.49 -3.37025 4.01889 0
M  V30 28002 H 2675.96 -4.68283 2.92259 0
M  V30 28003 H 2676.44 -4.19589 1.29774 0
M  V30 28004 H 2677.05 -3.28563 2.70049 0
M  V30 28005 N 2675.36 -1.22666 -0.989486 0
M  V30 28006 C 2676.29 -1.02407 -2.09845 0
M  V30 28007 C 2677.27 0.0561004 -1.70007 0
M  V30 28008 O 2678.46 -0.106782 -1.93906 0
M  V30 28009 C 2675.59 -0.604723 -3.41995 0
M  V30 28010 C 2674.54 -1.63122 -3.95696 0
M  V30 28011 C 2673.87 -1.06759 -5.23934 0
M  V30 28012 C 2675.17 -3.02204 -4.25993 0
M  V30 28013 H 2676.86 -1.95162 -2.27051 0
M  V30 28014 H 2674.41 -0.939747 -1.09109 0
M  V30 28015 H 2676.36 -0.450093 -4.18989 0
M  V30 28016 H 2675.08 0.358493 -3.24627 0
M  V30 28017 H 2673.74 -1.77368 -3.20837 0
M  V30 28018 H 2673.39 -0.0956306 -5.02909 0
M  V30 28019 H 2673.09 -1.75338 -5.6083 0
M  V30 28020 H 2674.61 -0.924622 -6.03559 0
M  V30 28021 H 2676.03 -2.91311 -4.93772 0
M  V30 28022 H 2674.43 -3.67938 -4.74069 0
M  V30 28023 H 2675.5 -3.51879 -3.3363 0
M  V30 28024 N 2676.84 1.18685 -1.0369 0
M  V30 28025 C 2678.12 1.84398 -0.652429 0
M  V30 28026 C 2678.5 1.92413 0.868352 0
M  V30 28027 O 2677.84 1.44719 1.7683 0
M  V30 28028 C 2678.05 3.22917 -1.32385 0
M  V30 28029 C 2679.4 3.98993 -1.45223 0
M  V30 28030 O 2680.43 3.32343 -1.28166 0
M  V30 28031 O 2679.29 5.184 -1.72984 0
M  V30 28032 H 2676.38 0.795005 -0.227806 0
M  V30 28033 H 2678.93 1.26108 -1.13555 0
M  V30 28034 H 2677.7 3.11964 -2.36208 0
M  V30 28035 H 2677.32 3.88859 -0.829107 0
M  V30 28036 N 2678.32 0.815849 1.34839 0
M  V30 28037 C 2679.57 0.397011 1.97754 0
M  V30 28038 C 2679.88 -1.04376 1.65424 0
M  V30 28039 O 2681.09 -1.56616 2.21774 0
M  V30 28040 C 2679.54 0.658931 3.53816 0
M  V30 28041 C 2679.15 2.11285 3.95047 0
M  V30 28042 C 2680.89 0.305909 4.23396 0
M  V30 28043 C 2678.8 2.32004 5.43993 0
M  V30 28044 H 2677.73 0.144713 0.739982 0
M  V30 28045 H 2680.38 1.00121 1.53779 0
M  V30 28046 H 2678.76 -0.0153416 3.95997 0
M  V30 28047 H 2679.94 2.8257 3.63993 0
M  V30 28048 H 2678.25 2.42663 3.38384 0
M  V30 28049 H 2680.85 0.438633 5.32898 0
M  V30 28050 H 2681.19 -0.74888 4.09509 0
M  V30 28051 H 2681.73 0.934471 3.86668 0
M  V30 28052 H 2678.46 3.35962 5.62859 0
M  V30 28053 H 2677.98 1.65254 5.76586 0
M  V30 28054 H 2679.66 2.14012 6.1058 0
M  V30 28055 N 2679.8 -1.46924 0.570174 0
M  V30 28056 C 2681.02 -2.07329 0.0542956 0
M  V30 28057 C 2681.45 -1.41809 -1.2358 0
M  V30 28058 O 2680.8 -0.49751 -1.7434 0
M  V30 28059 C 2680.85 -3.60429 -0.111112 0
M  V30 28060 O 2679.96 -3.95436 -1.17064 0
M  V30 28061 H 2679.3 -0.661536 0.0571541 0
M  V30 28062 H 2681.83 -1.88752 0.789549 0
M  V30 28063 H 2681.84 -4.06733 -0.321244 0
M  V30 28064 H 2680.51 -4.07512 0.831084 0
M  V30 28065 H 2679.09 -3.60859 -0.939966 0
M  V30 28066 N 2681.27 -0.307291 -1.54575 0
M  V30 28067 C 2682.5 0.302561 -2.04676 0
M  V30 28068 C 2682.92 1.47039 -1.18427 0
M  V30 28069 O 2682.27 1.81273 -0.211289 0
M  V30 28070 C 2682.32 0.752739 -3.53576 0
M  V30 28071 O 2682.05 -0.368613 -4.36547 0
M  V30 28072 C 2683.55 1.42709 -4.19701 0
M  V30 28073 H 2680.77 0.0648257 -0.667861 0
M  V30 28074 H 2683.31 -0.448751 -1.99516 0
M  V30 28075 H 2681.47 1.45406 -3.59076 0
M  V30 28076 H 2681.88 -0.0169859 -5.24497 0
M  V30 28077 H 2683.35 1.69318 -5.25391 0
M  V30 28078 H 2683.83 2.36918 -3.69819 0
M  V30 28079 H 2684.44 0.768782 -4.18294 0
M  V30 28080 N 2682.75 1.57561 -0.0351337 0
M  V30 28081 C 2683.66 2.14047 0.960257 0
M  V30 28082 C 2684.68 1.09422 1.35288 0
M  V30 28083 O 2685.85 1.4151 1.43307 0
M  V30 28084 C 2682.92 2.66128 2.22209 0
M  V30 28085 C 2681.98 3.8549 1.88933 0
M  V30 28086 C 2681.21 4.35077 3.09101 0
M  V30 28087 O 2681.44 3.83809 4.21956 0
M  V30 28088 O 2680.37 5.26853 2.91048 0
M  V30 28089 H 2684.2 2.99388 0.509931 0
M  V30 28090 H 2681.78 1.4824 0.185827 0
M  V30 28091 H 2683.66 2.99666 2.96274 0
M  V30 28092 H 2682.34 1.83866 2.66411 0
M  V30 28093 H 2681.24 3.56867 1.12234 0
M  V30 28094 H 2682.58 4.68933 1.49543 0
M  V30 28095 N 2684.23 -0.238084 1.55791 0
M  V30 28096 C 2685.64 -0.806442 1.68385 0
M  V30 28097 C 2685.99 -1.85668 0.63419 0
M  V30 28098 O 2685.12 -2.153 -0.217875 0
M  V30 28099 C 2685.71 -1.46954 3.0527 0
M  V30 28100 C 2684.27 -1.98549 3.19774 0
M  V30 28101 C 2683.42 -0.839716 2.6428 0
M  V30 28102 H 2686.37 -0.0137256 1.58694 0
M  V30 28103 H 2686.39 -2.33786 3.00207 0
M  V30 28104 H 2685.9 -0.704925 3.81644 0
M  V30 28105 H 2684 -2.77864 2.48239 0
M  V30 28106 H 2684.12 -2.17682 4.26792 0
M  V30 28107 H 2682.48 -1.24261 2.22332 0
M  V30 28108 H 2683.26 -0.0880429 3.43187 0
M  V30 28109 N 2685.71 -1.4932 -0.504115 0
M  V30 28110 C 2686.64 -1.60359 -1.62358 0
M  V30 28111 C 2687.62 -0.452797 -1.56168 0
M  V30 28112 O 2688.8 -0.667923 -1.7627 0
M  V30 28113 C 2685.93 -1.55564 -3.00861 0
M  V30 28114 C 2684.98 -2.75803 -3.25323 0
M  V30 28115 S 2685.81 -4.37508 -3.08783 0
M  V30 28116 C 2686.96 -4.35353 -4.49687 0
M  V30 28117 H 2687.2 -2.55059 -1.52749 0
M  V30 28118 H 2684.73 -1.38172 -0.68904 0
M  V30 28119 H 2686.69 -1.53483 -3.80727 0
M  V30 28120 H 2685.35 -0.621569 -3.07888 0
M  V30 28121 H 2684.54 -2.68658 -4.26426 0
M  V30 28122 H 2684.14 -2.75279 -2.53174 0
M  V30 28123 H 2686.44 -4.06881 -5.41714 0
M  V30 28124 H 2687.38 -5.36722 -4.61882 0
M  V30 28125 H 2687.79 -3.65473 -4.30221 0
M  V30 28126 N 2687.19 0.754933 -1.38342 0
M  V30 28127 C 2688.13 1.86865 -1.35463 0
M  V30 28128 C 2689.1 1.64671 -0.217398 0
M  V30 28129 O 2690.29 1.86356 -0.409416 0
M  V30 28130 C 2687.43 3.24147 -1.18418 0
M  V30 28131 C 2686.54 3.58181 -2.41517 0
M  V30 28132 C 2685.68 4.8476 -2.17213 0
M  V30 28133 C 2684.71 5.11576 -3.3609 0
M  V30 28134 N 2683.85 6.29349 -3.1123 0
M  V30 28135 H 2688.69 1.8866 -2.30676 0
M  V30 28136 H 2686.23 0.922134 -1.14608 0
M  V30 28137 H 2688.19 4.03364 -1.06552 0
M  V30 28138 H 2686.82 3.21682 -0.268453 0
M  V30 28139 H 2685.87 2.73818 -2.64061 0
M  V30 28140 H 2687.18 3.73926 -3.30122 0
M  V30 28141 H 2686.33 5.71917 -2.02475 0
M  V30 28142 H 2685.07 4.7115 -1.25972 0
M  V30 28143 H 2684.08 4.22888 -3.51349 0
M  V30 28144 H 2685.3 5.27083 -4.28206 0
M  V30 28145 H 2683.25 6.17065 -2.22635 0
M  V30 28146 H 2683.17 6.45589 -3.93384 0
M  V30 28147 H 2684.43 7.19398 -3.00145 0
M  V30 28148 N 2688.66 1.23189 0.982967 0
M  V30 28149 C 2689.59 1.03519 2.09299 0
M  V30 28150 C 2690.57 -0.0470837 1.70035 0
M  V30 28151 O 2691.76 0.117064 1.93847 0
M  V30 28152 C 2688.89 0.622851 3.41669 0
M  V30 28153 C 2687.84 1.65218 3.94825 0
M  V30 28154 C 2687.17 1.09536 5.2336 0
M  V30 28155 C 2688.47 3.04459 4.24385 0
M  V30 28156 H 2690.16 1.96363 2.26013 0
M  V30 28157 H 2687.71 0.94552 1.08609 0
M  V30 28158 H 2689.66 0.472307 4.18745 0
M  V30 28159 H 2688.39 -0.341272 3.24812 0
M  V30 28160 H 2687.05 1.79067 3.19891 0
M  V30 28161 H 2686.69 0.1223 5.02851 0
M  V30 28162 H 2686.39 1.7831 5.59892 0
M  V30 28163 H 2687.92 0.956617 6.0306 0
M  V30 28164 H 2689.33 2.93926 4.9222 0
M  V30 28165 H 2687.73 3.70447 4.72112 0
M  V30 28166 H 2688.8 3.53644 3.31759 0
M  V30 28167 N 2690.14 -1.18133 1.04318 0
M  V30 28168 C 2691.05 -2.25504 0.646916 0
M  V30 28169 C 2692.07 -1.70881 -0.327977 0
M  V30 28170 O 2693.24 -2.00573 -0.182273 0
M  V30 28171 C 2690.31 -3.46695 0.0186273 0
M  V30 28172 C 2689.37 -4.16441 1.04285 0
M  V30 28173 C 2688.6 -5.31846 0.444445 0
M  V30 28174 O 2688.83 -5.65466 -0.748636 0
M  V30 28175 O 2687.76 -5.90332 1.17439 0
M  V30 28176 H 2691.59 -2.61669 1.54152 0
M  V30 28177 H 2689.17 -1.25264 0.81421 0
M  V30 28178 H 2691.05 -4.20098 -0.330994 0
M  V30 28179 H 2689.73 -3.12347 -0.84976 0
M  V30 28180 H 2688.63 -3.45095 1.44431 0
M  V30 28181 H 2689.97 -4.54795 1.88208 0
M  V30 28182 N 2691.62 -0.822988 -1.34405 0
M  V30 28183 C 2692.9 -0.333675 -1.92733 0
M  V30 28184 C 2693.28 1.17898 -1.75109 0
M  V30 28185 O 2692.63 1.98611 -1.12986 0
M  V30 28186 C 2692.84 -0.763083 -3.40555 0
M  V30 28187 C 2694.18 -0.761952 -4.17707 0
M  V30 28188 O 2695.21 -0.705667 -3.4914 0
M  V30 28189 O 2694.07 -0.835204 -5.4008 0
M  V30 28190 H 2691.16 -0.0911394 -0.821963 0
M  V30 28191 H 2693.71 -0.907782 -1.43379 0
M  V30 28192 H 2692.48 -1.80496 -3.47184 0
M  V30 28193 H 2692.1 -0.164675 -3.97259 0
M  V30 28194 N 2693.1 1.4662 -0.577957 0
M  V30 28195 C 2694.06 2.28723 0.147765 0
M  V30 28196 C 2695.06 1.38125 0.8233 0
M  V30 28197 O 2696.25 1.60549 0.675983 0
M  V30 28198 C 2693.38 3.1838 1.21848 0
M  V30 28199 H 2694.58 2.94361 -0.573706 0
M  V30 28200 H 2692.13 1.52652 -0.33573 0
M  V30 28201 H 2692.86 2.57479 1.97168 0
M  V30 28202 H 2692.65 3.8508 0.738647 0
M  V30 28203 H 2694.14 3.80189 1.72761 0
M  V30 28204 N 2694.58 0.315484 1.5441 0
M  V30 28205 C 2695.82 -0.289936 2.00717 0
M  V30 28206 C 2696.16 -1.52418 1.20342 0
M  V30 28207 O 2695.43 -1.92421 0.283613 0
M  V30 28208 C 2695.71 -0.632134 3.54508 0
M  V30 28209 C 2695.57 0.612258 4.45614 0
M  V30 28210 C 2696.89 -1.45297 4.15424 0
M  V30 28211 H 2694 -0.103907 0.729638 0
M  V30 28212 H 2696.65 0.430459 1.8506 0
M  V30 28213 H 2694.8 -1.24588 3.67981 0
M  V30 28214 H 2696.47 1.25061 4.44024 0
M  V30 28215 H 2694.71 1.24271 4.15619 0
M  V30 28216 H 2695.38 0.328476 5.51022 0
M  V30 28217 H 2697.86 -0.934259 4.05476 0
M  V30 28218 H 2696.73 -1.66117 5.2316 0
M  V30 28219 H 2697 -2.44665 3.68228 0
M  V30 28220 N 2696.05 -1.5754 0.0434891 0
M  V30 28221 C 2697.28 -1.96409 -0.64087 0
M  V30 28222 C 2697.69 -0.919326 -1.65363 0
M  V30 28223 O 2697.04 0.105763 -1.83395 0
M  V30 28224 C 2697.1 -3.31484 -1.39135 0
M  V30 28225 C 2696.76 -4.53854 -0.535295 0
M  V30 28226 C 2697.76 -5.19533 0.195426 0
M  V30 28227 C 2695.44 -5.00111 -0.468476 0
M  V30 28228 C 2697.44 -6.29798 0.981488 0
M  V30 28229 C 2695.12 -6.10255 0.321279 0
M  V30 28230 C 2696.12 -6.74959 1.04495 0
M  V30 28231 O 2695.81 -7.82987 1.82174 0
M  V30 28232 H 2695.54 -0.651437 -0.180572 0
M  V30 28233 H 2698.1 -2.05137 0.103884 0
M  V30 28234 H 2696.33 -3.19288 -2.18156 0
M  V30 28235 H 2698.02 -3.55154 -1.9652 0
M  V30 28236 H 2698.78 -4.84758 0.153225 0
M  V30 28237 H 2694.66 -4.49544 -1.02134 0
M  V30 28238 H 2698.2 -6.80234 1.54686 0
M  V30 28239 H 2694.1 -6.44466 0.365146 0
M  V30 28240 H 2694.87 -7.99725 1.74303 0
M  V30 28241 N 2697.53 0.229818 -1.55915 0
M  V30 28242 C 2698.78 0.953534 -1.78191 0
M  V30 28243 C 2699.1 1.85196 -0.610536 0
M  V30 28244 O 2698.37 1.92317 0.372955 0
M  V30 28245 H 2696.95 0.355076 -0.657214 0
M  V30 28246 H 2699.61 0.243659 -1.93371 0
M  V30 28247 H 2698.71 1.56522 -2.70014 0
M  V30 28248 N 2699.01 1.49585 0.49619 0
M  V30 28249 C 2700.24 1.63031 1.27391 0
M  V30 28250 C 2700.65 0.303601 1.86343 0
M  V30 28251 O 2700.01 -0.711517 1.68059 0
M  V30 28252 C 2700.06 2.70273 2.40072 0
M  V30 28253 O 2699.78 3.97799 1.83542 0
M  V30 28254 C 2701.28 2.94468 3.31366 0
M  V30 28255 H 2698.5 0.548716 0.386201 0
M  V30 28256 H 2701.05 1.95649 0.595129 0
M  V30 28257 H 2699.2 2.4042 3.03771 0
M  V30 28258 H 2699.62 4.5691 2.57553 0
M  V30 28259 H 2701.09 3.73228 4.067 0
M  V30 28260 H 2701.57 2.04567 3.8865 0
M  V30 28261 H 2702.17 3.25756 2.73429 0
M  V30 28262 N 2700.49 -0.747586 1.3874 0
M  V30 28263 C 2701.4 -1.89208 1.38699 0
M  V30 28264 C 2702.41 -1.71678 0.283333 0
M  V30 28265 O 2703.59 -1.94498 0.522748 0
M  V30 28266 C 2700.66 -3.24651 1.21667 0
M  V30 28267 C 2699.72 -3.54664 2.41892 0
M  V30 28268 C 2698.95 -4.83644 2.25663 0
M  V30 28269 O 2699.17 -5.56457 1.25348 0
M  V30 28270 O 2698.11 -5.13272 3.14381 0
M  V30 28271 H 2701.93 -1.92198 2.35146 0
M  V30 28272 H 2699.52 -0.893687 1.19723 0
M  V30 28273 H 2701.4 -4.05616 1.14253 0
M  V30 28274 H 2700.07 -3.2246 0.283081 0
M  V30 28275 H 2698.98 -2.73836 2.54882 0
M  V30 28276 H 2700.31 -3.61622 3.33902 0
M  V30 28277 N 2701.97 -1.23709 -0.97642 0
M  V30 28278 C 2703.21 -1.06945 -1.71485 0
M  V30 28279 C 2703.54 0.393863 -1.90981 0
M  V30 28280 O 2702.81 1.28196 -1.48131 0
M  V30 28281 H 2701.39 -0.39275 -0.635418 0
M  V30 28282 H 2704.05 -1.55489 -1.17512 0
M  V30 28283 H 2703.14 -1.56056 -2.70283 0
M  V30 28284 N 2703.44 1.17579 -1.04943 0
M  V30 28285 C 2704.37 2.23705 -0.669211 0
M  V30 28286 C 2705.36 1.66832 0.331806 0
M  V30 28287 O 2706.54 1.93062 0.209954 0
M  V30 28288 C 2703.67 3.47276 -0.04055 0
M  V30 28289 C 2702.62 4.16955 -0.966057 0
M  V30 28290 C 2701.95 5.34321 -0.201406 0
M  V30 28291 C 2703.25 4.69465 -2.2891 0
M  V30 28292 H 2704.94 2.55765 -1.55643 0
M  V30 28293 H 2702.49 1.22938 -0.749815 0
M  V30 28294 H 2704.44 4.20732 0.237224 0
M  V30 28295 H 2703.17 3.14476 0.881603 0
M  V30 28296 H 2701.83 3.45408 -1.22835 0
M  V30 28297 H 2701.47 4.9777 0.723432 0
M  V30 28298 H 2701.17 5.81877 -0.81807 0
M  V30 28299 H 2702.7 6.10561 0.0691426 0
M  V30 28300 H 2704.11 5.3457 -2.07141 0
M  V30 28301 H 2702.51 5.27591 -2.85951 0
M  V30 28302 H 2703.58 3.86409 -2.92944 0
M  V30 28303 N 2704.92 0.830104 1.33967 0
M  V30 28304 C 2705.83 0.259248 2.33163 0
M  V30 28305 C 2706.85 -0.610135 1.62952 0
M  V30 28306 O 2708.02 -0.516335 1.94669 0
M  V30 28307 C 2705.09 -0.563537 3.42089 0
M  V30 28308 C 2704.15 0.329089 4.28037 0
M  V30 28309 C 2703.38 -0.454522 5.31761 0
M  V30 28310 O 2703.61 -1.68711 5.44879 0
M  V30 28311 O 2702.54 0.1669 6.01669 0
M  V30 28312 H 2706.37 1.08046 2.83831 0
M  V30 28313 H 2703.95 0.592414 1.37153 0
M  V30 28314 H 2705.83 -1.0314 4.08583 0
M  V30 28315 H 2704.51 -1.36196 2.93654 0
M  V30 28316 H 2703.42 0.844602 3.64441 0
M  V30 28317 H 2704.75 1.09205 4.79932 0
M  V30 28318 N 2706.4 -1.46311 0.585725 0
M  V30 28319 C 2707.36 -2.28798 -0.135633 0
M  V30 28320 C 2708.36 -1.38559 -0.815964 0
M  V30 28321 O 2709.55 -1.60906 -0.667459 0
M  V30 28322 C 2706.69 -3.19022 -1.20158 0
M  V30 28323 H 2707.88 -2.94053 0.589308 0
M  V30 28324 H 2705.43 -1.52472 0.343821 0
M  V30 28325 H 2706.17 -2.58521 -1.958 0
M  V30 28326 H 2705.95 -3.85466 -0.718214 0
M  V30 28327 H 2707.44 -3.81099 -1.70743 0
M  V30 28328 N 2707.88 -0.323668 -1.54241 0
M  V30 28329 C 2708.81 0.534953 -2.27289 0
M  V30 28330 C 2709.79 1.11925 -1.28089 0
M  V30 28331 O 2710.98 1.14436 -1.56901 0
M  V30 28332 C 2708.11 1.69591 -3.03078 0
M  V30 28333 C 2707.06 1.24091 -4.09616 0
M  V30 28334 C 2706.39 2.48882 -4.73246 0
M  V30 28335 C 2707.69 0.355698 -5.21087 0
M  V30 28336 H 2709.38 -0.0743784 -2.99308 0
M  V30 28337 H 2706.93 -0.0372127 -1.43952 0
M  V30 28338 H 2708.88 2.30287 -3.52911 0
M  V30 28339 H 2707.6 2.33183 -2.28677 0
M  V30 28340 H 2706.26 0.656881 -3.60667 0
M  V30 28341 H 2705.91 3.10838 -3.9546 0
M  V30 28342 H 2705.61 2.19128 -5.45212 0
M  V30 28343 H 2707.13 3.10339 -5.25854 0
M  V30 28344 H 2708.55 0.868943 -5.66677 0
M  V30 28345 H 2706.94 0.150939 -5.9991 0
M  V30 28346 H 2708.01 -0.613423 -4.81004 0
M  V30 28347 N 2709.36 1.57515 -0.0518432 0
M  V30 28348 C 2710.63 1.84068 0.661694 0
M  V30 28349 C 2711.01 0.940384 1.88997 0
M  V30 28350 O 2710.36 0.0015942 2.285 0
M  V30 28351 C 2710.57 3.33812 1.01835 0
M  V30 28352 C 2711.92 4.00843 1.40036 0
M  V30 28353 O 2712.94 3.38441 1.11067 0
M  V30 28354 O 2711.8 5.10869 1.94102 0
M  V30 28355 H 2708.9 0.759739 0.326688 0
M  V30 28356 H 2711.44 1.69505 -0.0812575 0
M  V30 28357 H 2710.22 3.91031 0.145134 0
M  V30 28358 H 2709.84 3.53565 1.81873 0
M  V30 28359 N 2710.84 -0.221546 1.56035 0
M  V30 28360 C 2711.77 -1.27776 1.95436 0
M  V30 28361 C 2712.75 -1.48887 0.82259 0
M  V30 28362 O 2713.93 -1.61071 1.08489 0
M  V30 28363 C 2711.06 -2.62755 2.27106 0
M  V30 28364 C 2710.02 -2.563 3.42774 0
M  V30 28365 C 2709.34 -3.95308 3.60049 0
M  V30 28366 C 2710.64 -2.11084 4.77745 0
M  V30 28367 H 2712.34 -0.950454 2.83913 0
M  V30 28368 H 2709.88 -0.455767 1.36597 0
M  V30 28369 H 2711.83 -3.36803 2.53262 0
M  V30 28370 H 2710.56 -2.97173 1.35483 0
M  V30 28371 H 2709.22 -1.84709 3.16667 0
M  V30 28372 H 2708.87 -4.27034 2.65802 0
M  V30 28373 H 2708.57 -3.91871 4.37848 0
M  V30 28374 H 2710.09 -4.71018 3.88554 0
M  V30 28375 H 2711.5 -2.74876 5.03106 0
M  V30 28376 H 2709.9 -2.18707 5.58827 0
M  V30 28377 H 2710.97 -1.06313 4.73102 0
M  V30 28378 N 2712.31 -1.49846 -0.48825 0
M  V30 28379 C 2713.54 -1.63705 -1.26524 0
M  V30 28380 C 2713.96 -0.313479 -1.86179 0
M  V30 28381 O 2713.31 0.702594 -1.68434 0
M  V30 28382 C 2713.36 -2.71543 -2.38635 0
M  V30 28383 O 2713.09 -3.98767 -1.8143 0
M  V30 28384 C 2714.59 -2.96221 -3.298 0
M  V30 28385 H 2711.81 -0.550757 -0.383286 0
M  V30 28386 H 2714.35 -1.95962 -0.584745 0
M  V30 28387 H 2712.51 -2.42028 -3.02492 0
M  V30 28388 H 2712.92 -4.58269 -2.55127 0
M  V30 28389 H 2714.39 -3.75379 -4.04715 0
M  V30 28390 H 2714.87 -2.06625 -3.8756 0
M  V30 28391 H 2715.48 -3.27201 -2.71697 0
M  V30 28392 N 2713.79 0.740218 -1.39135 0
M  V30 28393 C 2715.02 1.52947 -1.39337 0
M  V30 28394 C 2715.43 1.88795 0.0134676 0
M  V30 28395 O 2714.79 1.53732 0.983497 0
M  V30 28396 C 2714.84 2.8203 -2.26145 0
M  V30 28397 O 2714.56 2.47706 -3.61349 0
M  V30 28398 C 2716.06 3.7609 -2.34673 0
M  V30 28399 H 2713.28 0.47282 -0.476111 0
M  V30 28400 H 2715.83 0.915068 -1.82885 0
M  V30 28401 H 2713.98 3.39814 -1.86024 0
M  V30 28402 H 2714.4 3.30588 -4.072 0
M  V30 28403 H 2715.87 4.63574 -2.99672 0
M  V30 28404 H 2716.35 4.17472 -1.36433 0
M  V30 28405 H 2716.95 3.24226 -2.75242 0
M  V30 28406 N 2715.27 1.24225 0.969846 0
M  V30 28407 C 2716.49 1.10857 1.75287 0
M  V30 28408 C 2716.92 -0.335046 1.85092 0
M  V30 28409 O 2716.28 -1.24253 1.32026 0
M  V30 28410 C 2716.33 1.75068 3.15252 0
M  V30 28411 O 2715.43 1.01999 3.99587 0
M  V30 28412 H 2714.77 0.387924 0.538898 0
M  V30 28413 H 2717.3 1.6449 1.21672 0
M  V30 28414 H 2717.31 1.80737 3.65784 0
M  V30 28415 H 2715.99 2.80105 3.07431 0
M  V30 28416 H 2714.56 1.041 3.58075 0
M  V30 28417 N 2716.75 -1.1702 1.05565 0
M  V30 28418 C 2717.71 -2.19367 0.664137 0
M  V30 28419 C 2718.71 -1.5823 -0.28633 0
M  V30 28420 O 2719.9 -1.74061 -0.0696974 0
M  V30 28421 C 2717.03 -3.40892 -0.0239333 0
M  V30 28422 H 2718.23 -2.55518 1.57004 0
M  V30 28423 H 2715.78 -1.31168 0.849987 0
M  V30 28424 H 2716.51 -3.10289 -0.942934 0
M  V30 28425 H 2716.3 -3.86515 0.659419 0
M  V30 28426 H 2717.79 -4.16634 -0.283835 0
M  V30 28427 N 2718.23 -0.837197 -1.33524 0
M  V30 28428 C 2719.47 -0.431246 -1.97445 0
M  V30 28429 C 2719.79 1.01252 -1.66652 0
M  V30 28430 O 2719.06 1.70507 -0.964589 0
M  V30 28431 H 2717.64 -0.156476 -0.730427 0
M  V30 28432 H 2720.31 -1.06979 -1.62916 0
M  V30 28433 H 2719.4 -0.561931 -3.07 0
M  V30 28434 N 2719.7 1.45999 -0.593476 0
M  V30 28435 C 2720.93 2.06408 -0.0890005 0
M  V30 28436 C 2721.34 1.44108 1.22595 0
M  V30 28437 O 2720.68 0.544429 1.75447 0
M  V30 28438 C 2720.75 3.59228 0.139839 0
M  V30 28439 C 2720.41 4.43783 -1.09115 0
M  V30 28440 C 2721.41 4.79647 -2.00586 0
M  V30 28441 C 2719.09 4.84754 -1.31602 0
M  V30 28442 C 2721.09 5.55323 -3.12883 0
M  V30 28443 C 2718.77 5.60186 -2.44202 0
M  V30 28444 C 2719.77 5.95386 -3.34671 0
M  V30 28445 O 2719.46 6.69291 -4.45314 0
M  V30 28446 H 2719.19 0.673379 -0.0594732 0
M  V30 28447 H 2721.75 1.88451 -0.817033 0
M  V30 28448 H 2719.98 3.75533 0.922606 0
M  V30 28449 H 2721.66 4.01528 0.594157 0
M  V30 28450 H 2722.43 4.48564 -1.84433 0
M  V30 28451 H 2718.31 4.568 -0.620881 0
M  V30 28452 H 2721.85 5.82715 -3.83521 0
M  V30 28453 H 2717.75 5.90684 -2.60313 0
M  V30 28454 H 2718.52 6.87727 -4.43817 0
M  V30 28455 N 2721.18 0.331843 1.54067 0
M  V30 28456 C 2722.59 -0.154507 1.8606 0
M  V30 28457 C 2722.94 -1.5095 1.25334 0
M  V30 28458 O 2722.07 -2.08962 0.562478 0
M  V30 28459 C 2722.66 -0.287133 3.37581 0
M  V30 28460 C 2721.22 -0.717708 3.69494 0
M  V30 28461 C 2720.37 0.155617 2.76863 0
M  V30 28462 H 2723.32 0.551847 1.48796 0
M  V30 28463 H 2723.34 -1.11664 3.63746 0
M  V30 28464 H 2722.85 0.699198 3.8175 0
M  V30 28465 H 2720.96 -1.71349 3.30863 0
M  V30 28466 H 2721.07 -0.515716 4.76316 0
M  V30 28467 H 2719.43 -0.370169 2.51996 0
M  V30 28468 H 2720.22 1.13887 3.23859 0
M  V30 28469 N 2722.66 -1.57485 0.0601958 0
M  V30 28470 C 2723.89 -1.97077 -0.620002 0
M  V30 28471 C 2724.3 -0.936813 -1.64379 0
M  V30 28472 O 2723.64 0.0863055 -1.83497 0
M  V30 28473 C 2723.7 -3.32941 -1.35611 0
M  V30 28474 C 2723.37 -4.54396 -0.487128 0
M  V30 28475 C 2724.36 -5.19296 0.250519 0
M  V30 28476 C 2722.05 -5.00579 -0.415406 0
M  V30 28477 C 2724.04 -6.28722 1.04823 0
M  V30 28478 C 2721.73 -6.0988 0.385986 0
M  V30 28479 C 2722.73 -6.73813 1.11648 0
M  V30 28480 O 2722.42 -7.8101 1.90468 0
M  V30 28481 H 2722.15 -0.653315 -0.173653 0
M  V30 28482 H 2724.7 -2.05015 0.125636 0
M  V30 28483 H 2722.93 -3.21584 -2.14758 0
M  V30 28484 H 2724.62 -3.57219 -1.92742 0
M  V30 28485 H 2725.39 -4.84568 0.204632 0
M  V30 28486 H 2721.27 -4.50602 -0.9736 0
M  V30 28487 H 2724.81 -6.78555 1.61892 0
M  V30 28488 H 2720.71 -6.44043 0.433479 0
M  V30 28489 H 2721.48 -7.97832 1.82776 0
M  V30 28490 N 2724.14 0.213268 -1.5615 0
M  V30 28491 C 2725.38 0.937817 -1.79813 0
M  V30 28492 C 2725.72 1.83655 -0.631234 0
M  V30 28493 O 2724.99 1.90965 0.369131 0
M  V30 28494 C 2725.28 1.76966 -3.13616 0
M  V30 28495 C 2725.13 0.896872 -4.40768 0
M  V30 28496 C 2726.45 2.74584 -3.43936 0
M  V30 28497 H 2723.57 0.339507 -0.654144 0
M  V30 28498 H 2726.21 0.206197 -1.88878 0
M  V30 28499 H 2724.36 2.39342 -3.06019 0
M  V30 28500 H 2726.03 0.289225 -4.60392 0
M  V30 28501 H 2724.27 0.20268 -4.33326 0
M  V30 28502 H 2724.94 1.51348 -5.30846 0
M  V30 28503 H 2727.42 2.22343 -3.51714 0
M  V30 28504 H 2726.3 3.29883 -4.38712 0
M  V30 28505 H 2726.56 3.52734 -2.66516 0
M  V30 28506 N 2725.62 1.50103 0.480296 0
M  V30 28507 C 2726.58 1.67753 1.56178 0
M  V30 28508 C 2727.58 0.548529 1.51155 0
M  V30 28509 O 2728.77 0.81539 1.53938 0
M  V30 28510 C 2725.9 1.6942 2.9582 0
M  V30 28511 H 2727.09 2.64232 1.4185 0
M  V30 28512 H 2724.65 1.39445 0.706025 0
M  V30 28513 H 2725.38 0.746003 3.15603 0
M  V30 28514 H 2725.17 2.5143 3.00874 0
M  V30 28515 H 2726.66 1.85061 3.74356 0
M  V30 28516 N 2727.09 -0.732829 1.39526 0
M  V30 28517 C 2728.02 -1.86003 1.41157 0
M  V30 28518 C 2729.01 -1.67868 0.274644 0
M  V30 28519 O 2730.19 -1.88155 0.480778 0
M  V30 28520 C 2727.32 -3.23776 1.25644 0
M  V30 28521 C 2726.27 -3.56552 2.36759 0
M  V30 28522 C 2725.6 -4.93285 2.06334 0
M  V30 28523 C 2726.9 -3.59303 3.79076 0
M  V30 28524 H 2728.59 -1.84895 2.35487 0
M  V30 28525 H 2726.14 -0.888142 1.13349 0
M  V30 28526 H 2728.09 -4.02308 1.25405 0
M  V30 28527 H 2726.82 -3.25416 0.277829 0
M  V30 28528 H 2725.48 -2.80351 2.36218 0
M  V30 28529 H 2725.12 -4.91508 1.06906 0
M  V30 28530 H 2724.82 -5.16182 2.80766 0
M  V30 28531 H 2726.35 -5.74171 2.07749 0
M  V30 28532 H 2727.76 -4.27907 3.81534 0
M  V30 28533 H 2726.16 -3.9372 4.52885 0
M  V30 28534 H 2727.23 -2.5906 4.09897 0
M  V30 28535 N 2728.57 -1.24737 -0.963244 0
M  V30 28536 C 2729.82 -1.08758 -1.70341 0
M  V30 28537 C 2730.14 0.373585 -1.91388 0
M  V30 28538 O 2729.41 1.26617 -1.49482 0
M  V30 28539 H 2727.99 -0.399467 -0.631217 0
M  V30 28540 H 2730.65 -1.56727 -1.15857 0
M  V30 28541 H 2729.75 -1.58914 -2.68613 0
M  V30 28542 N 2730.05 1.16459 -1.06184 0
M  V30 28543 C 2731.3 1.86301 -0.77296 0
M  V30 28544 C 2731.61 1.82524 0.703155 0
M  V30 28545 O 2732.82 2.47935 1.10637 0
M  V30 28546 C 2731.27 3.34322 -1.33254 0
M  V30 28547 C 2730.88 3.46576 -2.83882 0
M  V30 28548 C 2732.63 4.09427 -1.12115 0
M  V30 28549 C 2730.53 4.88676 -3.33091 0
M  V30 28550 H 2729.46 0.697873 -0.285464 0
M  V30 28551 H 2732.11 1.31445 -1.28041 0
M  V30 28552 H 2730.5 3.88777 -0.752868 0
M  V30 28553 H 2731.67 3.02287 -3.47792 0
M  V30 28554 H 2729.99 2.84903 -3.03676 0
M  V30 28555 H 2732.58 5.14276 -1.4637 0
M  V30 28556 H 2732.93 4.16258 -0.0594564 0
M  V30 28557 H 2733.46 3.61207 -1.66656 0
M  V30 28558 H 2730.2 4.87024 -4.38734 0
M  V30 28559 H 2729.72 5.33594 -2.73929 0
M  V30 28560 H 2731.4 5.57488 -3.28353 0
M  V30 28561 N 2731.53 0.844266 1.33079 0
M  V30 28562 C 2732.48 0.279364 2.29103 0
M  V30 28563 C 2733.45 -0.607855 1.54578 0
M  V30 28564 O 2734.63 -0.544977 1.82851 0
M  V30 28565 C 2731.77 -0.53502 3.40927 0
M  V30 28566 C 2730.88 0.376825 4.30353 0
M  V30 28567 C 2730.02 -0.449183 5.29297 0
M  V30 28568 C 2729.06 0.460713 6.10364 0
M  V30 28569 N 2728.19 -0.327489 7.01336 0
M  V30 28570 H 2733.03 1.10351 2.76815 0
M  V30 28571 H 2730.57 0.555635 1.36202 0
M  V30 28572 H 2732.53 -1.02271 4.04471 0
M  V30 28573 H 2731.16 -1.32409 2.94394 0
M  V30 28574 H 2730.21 0.982856 3.67483 0
M  V30 28575 H 2731.52 1.07557 4.87066 0
M  V30 28576 H 2730.68 -1.00048 5.98394 0
M  V30 28577 H 2729.42 -1.18134 4.73176 0
M  V30 28578 H 2728.42 1.02398 5.4018 0
M  V30 28579 H 2729.65 1.19132 6.68569 0
M  V30 28580 H 2727.59 -1.04293 6.47656 0
M  V30 28581 H 2727.51 0.312433 7.55354 0
M  V30 28582 H 2728.78 -0.860844 7.74732 0
M  V30 28583 N 2733.01 -1.45682 0.60121 0
M  V30 28584 C 2733.95 -2.30481 -0.121356 0
M  V30 28585 C 2734.92 -1.41725 -0.866207 0
M  V30 28586 O 2736.11 -1.7066 -0.85321 0
M  V30 28587 C 2733.25 -3.26523 -1.11698 0
M  V30 28588 C 2732.36 -4.30381 -0.373665 0
M  V30 28589 C 2731.5 -5.13536 -1.35845 0
M  V30 28590 C 2730.54 -6.09127 -0.602582 0
M  V30 28591 N 2729.67 -6.85085 -1.53633 0
M  V30 28592 H 2734.51 -2.91736 0.607783 0
M  V30 28593 H 2732.05 -1.43763 0.311527 0
M  V30 28594 H 2734.01 -3.80667 -1.70729 0
M  V30 28595 H 2732.64 -2.67036 -1.81361 0
M  V30 28596 H 2731.69 -3.78948 0.332028 0
M  V30 28597 H 2733 -4.9833 0.216388 0
M  V30 28598 H 2732.16 -5.72049 -2.02101 0
M  V30 28599 H 2730.89 -4.45591 -1.98243 0
M  V30 28600 H 2729.9 -5.49751 0.0736448 0
M  V30 28601 H 2731.12 -6.79098 0.016266 0
M  V30 28602 H 2729.07 -6.19833 -2.14808 0
M  V30 28603 H 2728.99 -7.49363 -0.999557 0
M  V30 28604 H 2730.26 -7.48143 -2.18867 0
M  V30 28605 N 2734.48 -0.340009 -1.53889 0
M  V30 28606 C 2735.9 0.0120472 -1.59595 0
M  V30 28607 C 2736.1 1.49039 -1.35608 0
M  V30 28608 O 2735.16 2.24863 -1.1486 0
M  V30 28609 C 2736.47 -0.420951 -2.97739 0
M  V30 28610 C 2738.02 -0.372995 -3.1077 0
M  V30 28611 C 2738.49 -0.781407 -4.51285 0
M  V30 28612 N 2739.98 -0.735454 -4.57324 0
M  V30 28613 C 2740.72 -1.02346 -5.64192 0
M  V30 28614 N 2740.21 -1.37945 -6.78928 0
M  V30 28615 N 2742.01 -0.947936 -5.54049 0
M  V30 28616 H 2734.16 -1.30302 -1.67736 0
M  V30 28617 H 2736.42 -0.530932 -0.785376 0
M  V30 28618 H 2736.13 -1.45158 -3.20347 0
M  V30 28619 H 2736 0.205655 -3.76639 0
M  V30 28620 H 2738.39 0.648454 -2.87887 0
M  V30 28621 H 2738.47 -1.03476 -2.33937 0
M  V30 28622 H 2738.11 -1.80085 -4.74902 0
M  V30 28623 H 2738.04 -0.0971604 -5.2651 0
M  V30 28624 H 2740.53 -0.472839 -3.7493 0
M  V30 28625 H 2740.85 -1.58415 -7.56389 0
M  V30 28626 H 2739.19 -1.41786 -6.80383 0
M  V30 28627 H 2742.38 -0.669196 -4.63292 0
M  V30 28628 H 2742.56 -1.17574 -6.37244 0
M  V30 28629 N 2735.96 1.57451 -0.0685468 0
M  V30 28630 C 2737.24 1.84759 0.642134 0
M  V30 28631 C 2737.62 0.960377 1.87989 0
M  V30 28632 O 2736.97 0.0258296 2.28485 0
M  V30 28633 C 2737.18 3.34874 0.982888 0
M  V30 28634 C 2738.53 4.02306 1.35777 0
M  V30 28635 O 2739.55 3.396 1.07471 0
M  V30 28636 O 2738.41 5.12899 1.88672 0
M  V30 28637 H 2735.5 0.763161 0.318612 0
M  V30 28638 H 2738.05 1.6941 -0.0992313 0
M  V30 28639 H 2736.82 3.91163 0.103652 0
M  V30 28640 H 2736.44 3.55474 1.78112 0
M  V30 28641 N 2737.44 -0.204984 1.56261 0
M  V30 28642 C 2738.69 -0.925026 1.79238 0
M  V30 28643 C 2739 -1.84832 0.640043 0
M  V30 28644 O 2740.21 -2.60824 0.753855 0
M  V30 28645 C 2738.67 -1.69517 3.17478 0
M  V30 28646 C 2738.27 -0.817191 4.40484 0
M  V30 28647 C 2740.02 -2.40543 3.4977 0
M  V30 28648 C 2737.92 -1.58563 5.69747 0
M  V30 28649 H 2736.85 -0.349141 0.668294 0
M  V30 28650 H 2739.51 -0.178512 1.8263 0
M  V30 28651 H 2737.89 -2.4852 3.08308 0
M  V30 28652 H 2739.06 -0.0665178 4.60752 0
M  V30 28653 H 2737.38 -0.218243 4.15828 0
M  V30 28654 H 2739.97 -2.98568 4.43578 0
M  V30 28655 H 2740.32 -3.14247 2.73047 0
M  V30 28656 H 2740.85 -1.68515 3.60344 0
M  V30 28657 H 2737.59 -0.891565 6.49408 0
M  V30 28658 H 2737.11 -2.31049 5.53513 0
M  V30 28659 H 2738.79 -2.14201 6.10514 0
M  V30 28660 N 2738.92 -1.50356 -0.472329 0
M  V30 28661 C 2739.85 -1.72057 -1.57856 0
M  V30 28662 C 2740.83 -0.569533 -1.60282 0
M  V30 28663 O 2742.02 -0.808534 -1.76568 0
M  V30 28664 C 2739.15 -1.81357 -2.96188 0
M  V30 28665 C 2738.1 -2.96535 -3.08628 0
M  V30 28666 C 2737.43 -2.90975 -4.48595 0
M  V30 28667 C 2738.73 -4.37062 -2.85962 0
M  V30 28668 H 2740.42 -2.64679 -1.39948 0
M  V30 28669 H 2737.97 -1.27368 -0.671823 0
M  V30 28670 H 2739.92 -1.95123 -3.73504 0
M  V30 28671 H 2738.64 -0.853558 -3.15249 0
M  V30 28672 H 2737.3 -2.82417 -2.33744 0
M  V30 28673 H 2736.95 -1.92823 -4.64573 0
M  V30 28674 H 2736.65 -3.68297 -4.57855 0
M  V30 28675 H 2738.17 -3.06789 -5.27933 0
M  V30 28676 H 2739.59 -4.51712 -3.53028 0
M  V30 28677 H 2737.98 -5.15825 -3.06667 0
M  V30 28678 H 2739.05 -4.49517 -1.8183 0
M  V30 28679 N 2740.4 0.725419 -1.39912 0
M  V30 28680 C 2741.62 1.51968 -1.4114 0
M  V30 28681 C 2742.05 1.88097 -0.010295 0
M  V30 28682 O 2741.41 1.52585 0.979157 0
M  V30 28683 C 2741.45 2.77773 -2.29945 0
M  V30 28684 O 2740.56 3.74085 -1.73593 0
M  V30 28685 H 2739.9 0.458561 -0.480227 0
M  V30 28686 H 2742.43 0.894217 -1.84024 0
M  V30 28687 H 2742.44 3.26407 -2.44791 0
M  V30 28688 H 2741.11 2.5081 -3.31764 0
M  V30 28689 H 2739.69 3.32891 -1.68041 0
M  V30 28690 N 2741.88 1.25246 0.956615 0
M  V30 28691 C 2742.82 1.05457 2.05298 0
M  V30 28692 C 2743.79 -0.0356597 1.66062 0
M  V30 28693 O 2744.98 0.121133 1.90415 0
M  V30 28694 C 2742.12 0.67725 3.38389 0
M  V30 28695 C 2741.23 1.84213 3.90755 0
M  V30 28696 C 2740.37 1.40935 5.12163 0
M  V30 28697 C 2739.4 2.54348 5.56753 0
M  V30 28698 N 2738.54 2.1186 6.69373 0
M  V30 28699 H 2743.38 1.99288 2.21559 0
M  V30 28700 H 2740.92 0.992453 1.08576 0
M  V30 28701 H 2742.88 0.439452 4.14879 0
M  V30 28702 H 2741.51 -0.22407 3.22021 0
M  V30 28703 H 2740.56 2.19329 3.10804 0
M  V30 28704 H 2741.87 2.69391 4.19798 0
M  V30 28705 H 2741.02 1.13108 5.96063 0
M  V30 28706 H 2739.76 0.52826 4.84831 0
M  V30 28707 H 2738.77 2.82922 4.71418 0
M  V30 28708 H 2739.99 3.43032 5.86094 0
M  V30 28709 H 2737.94 1.26164 6.43753 0
M  V30 28710 H 2737.86 2.90587 6.97922 0
M  V30 28711 H 2739.12 1.87204 7.56687 0
M  V30 28712 N 2743.35 -1.15894 1.068 0
M  V30 28713 C 2744.3 -2.20452 0.683352 0
M  V30 28714 C 2745.27 -1.62939 -0.322521 0
M  V30 28715 O 2746.46 -1.89638 -0.210242 0
M  V30 28716 C 2743.6 -3.45004 0.0813872 0
M  V30 28717 C 2742.71 -4.1674 1.13806 0
M  V30 28718 C 2741.84 -5.28826 0.501691 0
M  V30 28719 C 2740.88 -5.92371 1.54154 0
M  V30 28720 N 2740.02 -6.95938 0.92816 0
M  V30 28721 H 2744.86 -2.52706 1.57936 0
M  V30 28722 H 2742.4 -1.24114 0.789566 0
M  V30 28723 H 2744.35 -4.16224 -0.285201 0
M  V30 28724 H 2742.98 -3.13284 -0.778005 0
M  V30 28725 H 2742.04 -3.44073 1.62229 0
M  V30 28726 H 2743.35 -4.60086 1.92672 0
M  V30 28727 H 2742.5 -6.06644 0.0824228 0
M  V30 28728 H 2741.24 -4.86657 -0.318797 0
M  V30 28729 H 2740.25 -5.13269 1.97065 0
M  V30 28730 H 2741.47 -6.36617 2.36422 0
M  V30 28731 H 2739.42 -6.55874 0.128475 0
M  V30 28732 H 2739.33 -7.37682 1.65414 0
M  V30 28733 H 2740.6 -7.77667 0.534208 0
M  V30 28734 N 2744.83 -0.851312 -1.32629 0
M  V30 28735 C 2746.06 -0.466934 -2.01562 0
M  V30 28736 C 2746.47 0.935418 -1.63998 0
M  V30 28737 O 2745.83 1.60988 -0.859598 0
M  V30 28738 C 2745.88 -0.592496 -3.56611 0
M  V30 28739 O 2745.6 -1.9396 -3.92824 0
M  V30 28740 C 2747.1 -0.20669 -4.42818 0
M  V30 28741 H 2744.32 -0.183914 -0.645304 0
M  V30 28742 H 2746.87 -1.14733 -1.69283 0
M  V30 28743 H 2745.02 0.0401255 -3.87379 0
M  V30 28744 H 2745.44 -1.93399 -4.87542 0
M  V30 28745 H 2746.91 -0.345559 -5.50917 0
M  V30 28746 H 2747.39 0.852564 -4.30846 0
M  V30 28747 H 2747.99 -0.814249 -4.17433 0
M  V30 28748 N 2746.31 1.45361 -0.608928 0
M  V30 28749 C 2747.73 1.57253 -0.272686 0
M  V30 28750 C 2747.93 1.60007 1.22474 0
M  V30 28751 O 2746.98 1.5311 2.00783 0
M  V30 28752 C 2748.29 2.85464 -0.945041 0
M  V30 28753 C 2749.84 2.9914 -0.921086 0
M  V30 28754 C 2750.32 4.30123 -1.57348 0
M  V30 28755 N 2751.81 4.36885 -1.53903 0
M  V30 28756 C 2752.54 5.36906 -2.01295 0
M  V30 28757 N 2752.04 6.43456 -2.5678 0
M  V30 28758 N 2753.83 5.28272 -1.92055 0
M  V30 28759 H 2745.98 1.41817 -1.58119 0
M  V30 28760 H 2748.25 0.678134 -0.662449 0
M  V30 28761 H 2747.95 2.89334 -1.99946 0
M  V30 28762 H 2747.83 3.74271 -0.469145 0
M  V30 28763 H 2750.21 2.94836 0.124794 0
M  V30 28764 H 2750.29 2.1174 -1.43526 0
M  V30 28765 H 2749.94 4.35186 -2.61869 0
M  V30 28766 H 2749.87 5.16342 -1.03431 0
M  V30 28767 H 2752.36 3.60493 -1.13372 0
M  V30 28768 H 2752.67 7.16027 -2.90732 0
M  V30 28769 H 2751.02 6.44204 -2.60819 0
M  V30 28770 H 2754.21 4.43938 -1.48447 0
M  V30 28771 H 2754.38 6.06073 -2.29303 0
M  V30 28772 N 2747.79 0.348166 1.53706 0
M  V30 28773 C 2749.06 -0.302441 1.93248 0
M  V30 28774 C 2749.44 -1.67855 1.28015 0
M  V30 28775 O 2748.79 -2.24364 0.432779 0
M  V30 28776 C 2749 -0.370098 3.47032 0
M  V30 28777 C 2750.35 -0.618746 4.20067 0
M  V30 28778 O 2751.37 -0.452025 3.5332 0
M  V30 28779 O 2750.23 -0.942056 5.38319 0
M  V30 28780 H 2747.33 -0.177444 0.807739 0
M  V30 28781 H 2749.87 0.399679 1.64926 0
M  V30 28782 H 2748.65 0.595408 3.86744 0
M  V30 28783 H 2748.27 -1.11882 3.81534 0
M  V30 28784 N 2749.27 -1.57412 0.0768958 0
M  V30 28785 C 2750.2 -2.16038 -0.885988 0
M  V30 28786 C 2751.18 -1.08878 -1.30689 0
M  V30 28787 O 2752.36 -1.36936 -1.37703 0
M  V30 28788 C 2749.49 -2.72611 -2.15175 0
M  V30 28789 C 2748.45 -3.84983 -1.87008 0
M  V30 28790 C 2747.77 -4.28181 -3.20258 0
M  V30 28791 C 2749.07 -5.08996 -1.17134 0
M  V30 28792 H 2750.77 -2.96748 -0.397589 0
M  V30 28793 H 2748.31 -1.42744 -0.189798 0
M  V30 28794 H 2750.26 -3.12271 -2.82957 0
M  V30 28795 H 2748.99 -1.8913 -2.66266 0
M  V30 28796 H 2747.65 -3.45835 -1.2163 0
M  V30 28797 H 2747.3 -3.41614 -3.69201 0
M  V30 28798 H 2747 -5.03933 -3.02201 0
M  V30 28799 H 2748.52 -4.7046 -3.89229 0
M  V30 28800 H 2749.93 -5.4594 -1.74993 0
M  V30 28801 H 2748.33 -5.90059 -1.09318 0
M  V30 28802 H 2749.4 -4.84664 -0.15121 0
M  V30 28803 N 2750.74 0.196695 -1.56368 0
M  V30 28804 C 2751.97 0.933575 -1.8464 0
M  V30 28805 C 2752.39 1.76918 -0.659195 0
M  V30 28806 O 2751.74 1.78666 0.372111 0
M  V30 28807 C 2751.8 1.83103 -3.11698 0
M  V30 28808 O 2751.52 1.02917 -4.2584 0
M  V30 28809 C 2753.02 2.67973 -3.53137 0
M  V30 28810 H 2750.24 0.272463 -0.613193 0
M  V30 28811 H 2752.78 0.204429 -2.03476 0
M  V30 28812 H 2750.94 2.51382 -2.94764 0
M  V30 28813 H 2751.35 1.6406 -4.98181 0
M  V30 28814 H 2752.82 3.26604 -4.4501 0
M  V30 28815 H 2753.3 3.41603 -2.76051 0
M  V30 28816 H 2753.91 2.05068 -3.72595 0
M  V30 28817 N 2752.22 1.50604 0.464349 0
M  V30 28818 C 2753.17 1.69959 1.56149 0
M  V30 28819 C 2754.14 0.540938 1.57045 0
M  V30 28820 O 2755.32 0.772289 1.74472 0
M  V30 28821 C 2752.46 1.80591 2.94076 0
M  V30 28822 C 2751.58 3.08002 3.02917 0
M  V30 28823 C 2750.71 3.09389 4.31801 0
M  V30 28824 C 2749.75 4.31225 4.34409 0
M  V30 28825 N 2748.89 4.30314 5.54774 0
M  V30 28826 H 2753.73 2.63623 1.3895 0
M  V30 28827 H 2751.27 1.30675 0.675459 0
M  V30 28828 H 2753.22 1.84737 3.7407 0
M  V30 28829 H 2751.85 0.903611 3.09895 0
M  V30 28830 H 2750.91 3.13295 2.15755 0
M  V30 28831 H 2752.22 3.97968 3.00705 0
M  V30 28832 H 2751.37 3.12301 5.20147 0
M  V30 28833 H 2750.11 2.17265 4.36632 0
M  V30 28834 H 2749.12 4.28518 3.44459 0
M  V30 28835 H 2750.34 5.24584 4.31264 0
M  V30 28836 H 2748.29 3.41047 5.60378 0
M  V30 28837 H 2748.2 5.14056 5.5433 0
M  V30 28838 H 2749.47 4.37381 6.45227 0
M  V30 28839 N 2753.7 -0.717989 1.40295 0
M  V30 28840 C 2754.63 -1.84495 1.43122 0
M  V30 28841 C 2755.61 -1.67567 0.292433 0
M  V30 28842 O 2756.8 -1.87634 0.500707 0
M  V30 28843 C 2753.93 -3.22425 1.29071 0
M  V30 28844 C 2752.88 -3.54021 2.40527 0
M  V30 28845 C 2752.21 -4.91069 2.11555 0
M  V30 28846 C 2753.51 -3.55262 3.82865 0
M  V30 28847 H 2755.2 -1.82387 2.37435 0
M  V30 28848 H 2752.75 -0.87607 1.14285 0
M  V30 28849 H 2754.7 -4.00955 1.29665 0
M  V30 28850 H 2753.42 -3.25103 0.312328 0
M  V30 28851 H 2752.08 -2.7783 2.39178 0
M  V30 28852 H 2751.73 -4.90347 1.12113 0
M  V30 28853 H 2751.43 -5.13175 2.86225 0
M  V30 28854 H 2752.95 -5.71935 2.13827 0
M  V30 28855 H 2754.37 -4.23837 3.86051 0
M  V30 28856 H 2752.77 -3.88894 4.57035 0
M  V30 28857 H 2753.84 -2.54698 4.12622 0
M  V30 28858 N 2755.18 -1.25752 -0.94996 0
M  V30 28859 C 2756.13 -1.06544 -2.04736 0
M  V30 28860 C 2757.1 0.0268526 -1.66078 0
M  V30 28861 O 2758.28 -0.131229 -1.90348 0
M  V30 28862 C 2755.42 -0.695186 -3.38025 0
M  V30 28863 C 2754.53 -1.86282 -3.89773 0
M  V30 28864 C 2753.67 -1.43649 -5.11408 0
M  V30 28865 C 2752.71 -2.57297 -5.55396 0
M  V30 28866 N 2751.84 -2.15407 -6.6824 0
M  V30 28867 H 2756.68 -2.0046 -2.20499 0
M  V30 28868 H 2754.22 -0.998197 -1.08048 0
M  V30 28869 H 2756.18 -0.461448 -4.1464 0
M  V30 28870 H 2754.81 0.20699 -3.22136 0
M  V30 28871 H 2753.86 -2.20974 -3.09636 0
M  V30 28872 H 2755.17 -2.71613 -4.18363 0
M  V30 28873 H 2754.33 -1.16268 -5.95455 0
M  V30 28874 H 2753.07 -0.553964 -4.84544 0
M  V30 28875 H 2752.07 -2.85418 -4.69911 0
M  V30 28876 H 2753.3 -3.46135 -5.84266 0
M  V30 28877 H 2751.24 -1.29577 -6.43075 0
M  V30 28878 H 2751.16 -2.94284 -6.96371 0
M  V30 28879 H 2752.43 -1.91214 -7.55683 0
M  V30 28880 N 2756.66 1.15326 -1.07413 0
M  V30 28881 C 2757.57 2.2371 -0.706477 0
M  V30 28882 C 2758.58 1.7169 0.282556 0
M  V30 28883 O 2759.76 2.00986 0.129031 0
M  V30 28884 C 2756.82 3.46524 -0.110541 0
M  V30 28885 C 2755.88 4.1353 -1.15289 0
M  V30 28886 C 2755.12 5.30481 -0.585299 0
M  V30 28887 O 2755.34 5.67252 0.598449 0
M  V30 28888 O 2754.27 5.87011 -1.33049 0
M  V30 28889 H 2758.1 2.5749 -1.61035 0
M  V30 28890 H 2755.69 1.23061 -0.847135 0
M  V30 28891 H 2757.57 4.20828 0.219496 0
M  V30 28892 H 2756.24 3.1449 0.766648 0
M  V30 28893 H 2755.15 3.41144 -1.53529 0
M  V30 28894 H 2756.48 4.49645 -2.002 0
M  V30 28895 N 2758.13 0.858334 1.32176 0
M  V30 28896 C 2759.37 0.469857 1.98926 0
M  V30 28897 C 2759.74 -0.957431 1.66425 0
M  V30 28898 O 2760.94 -1.45065 2.26295 0
M  V30 28899 C 2759.21 0.70635 3.5035 0
M  V30 28900 S 2760.77 0.415995 4.36824 0
M  V30 28901 H 2757.59 0.175867 0.688906 0
M  V30 28902 H 2760.19 1.11184 1.60805 0
M  V30 28903 H 2758.89 1.74414 3.71494 0
M  V30 28904 H 2758.42 0.050926 3.93367 0
M  V30 28905 H 2760.44 -0.756495 4.90399 0
M  V30 28906 N 2759.61 -1.45036 0.616628 0
M  V30 28907 C 2760.55 -2.27733 -0.145944 0
M  V30 28908 C 2761.52 -1.37677 -0.865084 0
M  V30 28909 O 2762.71 -1.67112 -0.872122 0
M  V30 28910 C 2759.83 -3.16267 -1.21214 0
M  V30 28911 C 2758.88 -4.22327 -0.595144 0
M  V30 28912 S 2759.71 -5.32085 0.603837 0
M  V30 28913 C 2760.87 -6.24187 -0.462732 0
M  V30 28914 H 2761.1 -2.92061 0.555643 0
M  V30 28915 H 2758.64 -1.4901 0.404391 0
M  V30 28916 H 2760.59 -3.6783 -1.8224 0
M  V30 28917 H 2759.25 -2.51186 -1.88585 0
M  V30 28918 H 2758.45 -4.84233 -1.39767 0
M  V30 28919 H 2758.05 -3.73952 -0.0598308 0
M  V30 28920 H 2760.34 -6.6413 -1.33933 0
M  V30 28921 H 2761.28 -7.07998 0.120384 0
M  V30 28922 H 2761.69 -5.59056 -0.782121 0
M  V30 28923 N 2761.09 -0.356312 -1.53519 0
M  V30 28924 C 2762.37 0.292189 -1.93405 0
M  V30 28925 C 2762.75 1.67174 -1.28904 0
M  V30 28926 O 2762.1 2.24131 -0.444672 0
M  V30 28927 C 2762.31 0.351689 -3.47223 0
M  V30 28928 C 2763.65 0.59646 -4.2039 0
M  V30 28929 O 2764.68 0.433281 -3.53555 0
M  V30 28930 O 2763.54 0.913494 -5.38811 0
M  V30 28931 H 2760.63 0.173158 -0.808669 0
M  V30 28932 H 2763.18 -0.40842 -1.64712 0
M  V30 28933 H 2761.95 -0.615909 -3.86422 0
M  V30 28934 H 2761.57 1.09857 -3.82122 0
M  V30 28935 N 2762.57 1.57369 -0.0852427 0
M  V30 28936 C 2763.52 2.13479 0.877231 0
M  V30 28937 C 2764.49 1.05076 1.2864 0
M  V30 28938 O 2765.67 1.3281 1.36989 0
M  V30 28939 C 2762.81 2.71163 2.13459 0
M  V30 28940 C 2761.92 3.93767 1.77684 0
M  V30 28941 C 2761.06 4.39649 2.98132 0
M  V30 28942 C 2760.1 5.54867 2.58437 0
M  V30 28943 N 2759.23 5.95645 3.71687 0
M  V30 28944 H 2764.07 2.95412 0.391881 0
M  V30 28945 H 2761.61 1.45973 0.18177 0
M  V30 28946 H 2763.57 3.02722 2.87081 0
M  V30 28947 H 2762.2 1.91974 2.59511 0
M  V30 28948 H 2761.25 3.68585 0.940703 0
M  V30 28949 H 2762.56 4.77414 1.44489 0
M  V30 28950 H 2761.72 4.72939 3.80018 0
M  V30 28951 H 2760.46 3.54882 3.3453 0
M  V30 28952 H 2759.46 5.21214 1.74975 0
M  V30 28953 H 2760.69 6.41375 2.23194 0
M  V30 28954 H 2758.63 5.13826 4.07822 0
M  V30 28955 H 2758.55 6.74065 3.42305 0
M  V30 28956 H 2759.82 6.33563 4.54112 0
M  V30 28957 N 2764.05 -0.188399 1.5647 0
M  V30 28958 C 2765.28 -0.922431 1.84864 0
M  V30 28959 C 2765.68 -1.77074 0.666445 0
M  V30 28960 O 2765.03 -1.79852 -0.374012 0
M  V30 28961 C 2765.09 -1.86319 3.0745 0
M  V30 28962 C 2764.75 -1.19617 4.41068 0
M  V30 28963 C 2765.75 -0.569855 5.16768 0
M  V30 28964 C 2763.44 -1.19803 4.87804 0
M  V30 28965 C 2765.43 0.045706 6.37384 0
M  V30 28966 C 2763.12 -0.578633 6.08354 0
M  V30 28967 C 2764.11 0.042146 6.82987 0
M  V30 28968 O 2763.8 0.651815 8.01253 0
M  V30 28969 H 2763.53 -0.274306 0.617845 0
M  V30 28970 H 2766.09 -0.198577 2.04438 0
M  V30 28971 H 2764.32 -2.62691 2.83778 0
M  V30 28972 H 2766.01 -2.46558 3.22434 0
M  V30 28973 H 2766.77 -0.560517 4.8175 0
M  V30 28974 H 2762.65 -1.67061 4.29665 0
M  V30 28975 H 2766.2 0.530853 6.95577 0
M  V30 28976 H 2762.09 -0.585497 6.42839 0
M  V30 28977 H 2762.86 0.549379 8.16654 0
M  V30 28978 N 2765.53 -1.50848 -0.456355 0
M  V30 28979 C 2766.77 -1.62252 -1.20494 0
M  V30 28980 C 2767.09 -0.331872 -1.92155 0
M  V30 28981 O 2766.36 0.651411 -1.84752 0
M  V30 28982 H 2764.94 -0.597926 -0.447765 0
M  V30 28983 H 2767.61 -1.87694 -0.525066 0
M  V30 28984 H 2766.7 -2.44092 -1.94487 0
M  V30 28985 N 2767 0.710538 -1.40674 0
M  V30 28986 C 2767.93 1.83734 -1.44098 0
M  V30 28987 C 2768.91 1.6741 -0.301315 0
M  V30 28988 O 2770.1 1.87366 -0.510651 0
M  V30 28989 C 2767.23 3.21736 -1.30779 0
M  V30 28990 C 2766.18 3.5274 -2.42401 0
M  V30 28991 C 2765.51 4.8994 -2.14156 0
M  V30 28992 C 2766.81 3.53227 -3.84744 0
M  V30 28993 H 2768.5 1.81125 -2.38399 0
M  V30 28994 H 2766.05 0.869996 -1.14748 0
M  V30 28995 H 2768 4.00262 -1.3179 0
M  V30 28996 H 2766.73 3.24933 -0.329565 0
M  V30 28997 H 2765.39 2.76558 -2.40648 0
M  V30 28998 H 2765.03 4.89745 -1.14712 0
M  V30 28999 H 2764.73 5.1165 -2.88943 0
M  V30 29000 H 2766.26 5.70793 -2.16858 0
M  V30 29001 H 2767.67 4.21783 -3.88293 0
M  V30 29002 H 2766.07 3.86465 -4.59091 0
M  V30 29003 H 2767.14 2.52506 -4.13967 0
M  V30 29004 N 2768.48 1.26254 0.943277 0
M  V30 29005 C 2769.43 1.07438 2.063 0
M  V30 29006 C 2770.42 0.00192449 1.694 0
M  V30 29007 O 2771.63 0.15844 1.79301 0
M  V30 29008 H 2768 0.330568 0.675447 0
M  V30 29009 H 2769.98 2.02337 2.19323 0
M  V30 29010 C 2768.72 0.721877 3.40124 0
M  V30 29011 H 2768.05 1.53897 3.68993 0
M  V30 29012 H 2769.49 0.629995 4.19294 0
M  V30 29013 C 2767.95 -0.572844 3.31994 0
M  V30 29014 O 2768.48 -1.61176 3.67947 0
M  V30 29015 N 2766.68 -0.562698 2.851 0
M  V30 29016 H 2766.23 0.283137 2.56039 0
M  V30 29017 H 2766.19 -1.4291 2.80043 0
M  V30 29018 N 2769.96 -1.14755 1.08024 0
M  V30 29019 C 2770.89 -2.21852 0.728287 0
M  V30 29020 C 2771.87 -1.67654 -0.287457 0
M  V30 29021 O 2773.06 -1.93551 -0.158693 0
M  V30 29022 C 2770.19 -3.47047 0.13261 0
M  V30 29023 C 2769.14 -4.14247 1.07627 0
M  V30 29024 C 2768.47 -5.33599 0.343001 0
M  V30 29025 C 2769.77 -4.63231 2.41276 0
M  V30 29026 H 2771.46 -2.51548 1.6237 0
M  V30 29027 H 2769.01 -1.20907 0.782146 0
M  V30 29028 H 2770.96 -4.21213 -0.125591 0
M  V30 29029 H 2769.68 -3.16703 -0.797915 0
M  V30 29030 H 2768.34 -3.4203 1.3195 0
M  V30 29031 H 2767.99 -4.99514 -0.591203 0
M  V30 29032 H 2767.69 -5.79504 0.972057 0
M  V30 29033 H 2769.21 -6.1053 0.0927611 0
M  V30 29034 H 2770.63 -5.28891 2.21241 0
M  V30 29035 H 2769.02 -5.19824 2.99839 0
M  V30 29036 H 2770.09 -3.78506 3.03086 0
M  V30 29037 N 2771.44 -0.865331 -1.31719 0
M  V30 29038 C 2772.85 -0.527158 -1.79103 0
M  V30 29039 C 2773.2 0.955665 -1.71352 0
M  V30 29040 O 2772.32 1.74596 -1.27848 0
M  V30 29041 C 2772.92 -0.950118 -3.25205 0
M  V30 29042 C 2771.48 -0.663676 -3.70503 0
M  V30 29043 C 2770.63 -1.14399 -2.52603 0
M  V30 29044 H 2773.58 -1.0515 -1.18866 0
M  V30 29045 H 2773.6 -0.270872 -3.79535 0
M  V30 29046 H 2773.11 -2.02937 -3.30814 0
M  V30 29047 H 2771.21 0.404409 -3.70399 0
M  V30 29048 H 2771.32 -1.23745 -4.62843 0
M  V30 29049 H 2769.69 -0.563903 -2.48379 0
M  V30 29050 H 2770.47 -2.23057 -2.6096 0
M  V30 29051 N 2772.92 1.44707 -0.624311 0
M  V30 29052 C 2773.85 2.27807 0.133865 0
M  V30 29053 C 2774.83 1.38134 0.85777 0
M  V30 29054 O 2776.01 1.67572 0.863248 0
M  V30 29055 C 2773.14 3.16905 1.19536 0
M  V30 29056 C 2772.18 4.22637 0.572738 0
M  V30 29057 S 2773.02 5.31757 -0.632047 0
M  V30 29058 C 2774.17 6.24424 0.429624 0
M  V30 29059 H 2774.41 2.91763 -0.571123 0
M  V30 29060 H 2771.94 1.48794 -0.412287 0
M  V30 29061 H 2773.9 3.68791 1.80287 0
M  V30 29062 H 2772.56 2.52183 1.8725 0
M  V30 29063 H 2771.75 4.84967 1.37197 0
M  V30 29064 H 2771.35 3.73979 0.0399984 0
M  V30 29065 H 2773.64 6.64831 1.30409 0
M  V30 29066 H 2774.59 7.07924 -0.157929 0
M  V30 29067 H 2775 5.59462 0.752462 0
M  V30 29068 N 2774.39 0.364449 1.53328 0
M  V30 29069 C 2775.64 -0.225933 2.01538 0
M  V30 29070 C 2775.97 -1.48513 1.2513 0
M  V30 29071 O 2775.25 -1.91421 0.344687 0
M  V30 29072 C 2775.53 -0.51903 3.5634 0
M  V30 29073 C 2775.38 0.753717 4.4344 0
M  V30 29074 C 2776.7 -1.32007 4.19836 0
M  V30 29075 H 2773.82 -0.0806419 0.732575 0
M  V30 29076 H 2776.46 0.489117 1.83596 0
M  V30 29077 H 2774.61 -1.12818 3.71758 0
M  V30 29078 H 2776.29 1.39124 4.39821 0
M  V30 29079 H 2774.53 1.37431 4.11455 0
M  V30 29080 H 2775.2 0.503613 5.49698 0
M  V30 29081 H 2777.68 -0.804787 4.08243 0
M  V30 29082 H 2776.55 -1.49389 5.2818 0
M  V30 29083 H 2776.81 -2.32826 3.75825 0
M  V30 29084 N 2775.87 -1.57322 0.0935872 0
M  V30 29085 C 2777.1 -1.98636 -0.578899 0
M  V30 29086 C 2777.51 -0.972654 -1.61817 0
M  V30 29087 O 2776.87 0.0379317 -1.82461 0
M  V30 29088 C 2776.92 -3.40005 -1.22796 0
M  V30 29089 O 2776.64 -4.37494 -0.230257 0
M  V30 29090 C 2778.14 -3.96314 -1.9862 0
M  V30 29091 H 2775.36 -0.652778 -0.155312 0
M  V30 29092 H 2777.91 -2.03772 0.172429 0
M  V30 29093 H 2776.06 -3.35888 -1.93023 0
M  V30 29094 H 2776.48 -5.19827 -0.698557 0
M  V30 29095 H 2777.95 -4.97387 -2.39396 0
M  V30 29096 H 2778.43 -3.34049 -2.85145 0
M  V30 29097 H 2779.03 -4.03899 -1.33213 0
M  V30 29098 N 2777.35 0.180099 -1.56568 0
M  V30 29099 C 2778.58 0.912614 -1.85351 0
M  V30 29100 C 2778.99 1.76718 -0.675826 0
M  V30 29101 O 2778.33 1.80048 0.364469 0
M  V30 29102 C 2778.39 1.84686 -3.08434 0
M  V30 29103 C 2778.06 1.17276 -4.41696 0
M  V30 29104 C 2779.05 0.542442 -5.17062 0
M  V30 29105 C 2776.74 1.17214 -4.88432 0
M  V30 29106 C 2778.73 -0.0795073 -6.3735 0
M  V30 29107 C 2776.42 0.546363 -6.08653 0
M  V30 29108 C 2777.42 -0.0783658 -6.82955 0
M  V30 29109 O 2777.11 -0.694299 -8.00896 0
M  V30 29110 H 2776.84 0.271025 -0.619291 0
M  V30 29111 H 2779.39 0.187732 -2.0454 0
M  V30 29112 H 2777.62 2.61183 -2.85168 0
M  V30 29113 H 2779.31 2.44845 -3.23737 0
M  V30 29114 H 2780.08 0.53496 -4.82041 0
M  V30 29115 H 2775.96 1.6478 -4.30544 0
M  V30 29116 H 2779.5 -0.567734 -6.95286 0
M  V30 29117 H 2775.4 0.551397 -6.43141 0
M  V30 29118 H 2776.16 -0.592681 -8.16351 0
M  V30 29119 N 2778.83 1.51088 0.448349 0
M  V30 29120 C 2780.07 1.63452 1.20046 0
M  V30 29121 C 2780.41 0.344478 1.9112 0
M  V30 29122 O 2779.68 -0.655364 1.83126 0
M  V30 29123 C 2779.96 2.83042 2.22619 0
M  V30 29124 C 2779.82 4.21992 1.55701 0
M  V30 29125 C 2781.14 2.98157 3.23713 0
M  V30 29126 H 2778.26 0.594878 0.435074 0
M  V30 29127 H 2780.9 1.83542 0.491151 0
M  V30 29128 H 2779.05 2.66044 2.83113 0
M  V30 29129 H 2780.72 4.50633 0.986288 0
M  V30 29130 H 2778.96 4.25199 0.859573 0
M  V30 29131 H 2779.63 5.01641 2.30348 0
M  V30 29132 H 2782.11 3.13793 2.73264 0
M  V30 29133 H 2780.99 3.83417 3.92788 0
M  V30 29134 H 2781.25 2.09749 3.89175 0
M  V30 29135 N 2780.31 -0.703068 1.41049 0
M  V30 29136 C 2781.25 -1.81708 1.42305 0
M  V30 29137 C 2782.22 -1.63751 0.278364 0
M  V30 29138 O 2783.41 -1.84708 0.478298 0
M  V30 29139 C 2780.55 -3.19528 1.30367 0
M  V30 29140 C 2779.66 -3.4897 2.54644 0
M  V30 29141 C 2778.8 -4.76364 2.35055 0
M  V30 29142 C 2777.84 -4.98749 3.54846 0
M  V30 29143 N 2776.97 -6.17364 3.34374 0
M  V30 29144 H 2781.81 -1.79969 2.37519 0
M  V30 29145 H 2779.35 -0.878962 1.17952 0
M  V30 29146 H 2781.31 -3.99131 1.2145 0
M  V30 29147 H 2779.94 -3.20464 0.387658 0
M  V30 29148 H 2778.99 -2.63829 2.74041 0
M  V30 29149 H 2780.3 -3.61417 3.43772 0
M  V30 29150 H 2779.46 -5.64008 2.23562 0
M  V30 29151 H 2778.19 -4.6615 1.43372 0
M  V30 29152 H 2777.2 -4.09556 3.66802 0
M  V30 29153 H 2778.42 -5.10827 4.47473 0
M  V30 29154 H 2776.37 -6.08377 2.45383 0
M  V30 29155 H 2776.29 -6.30544 4.17074 0
M  V30 29156 H 2777.56 -7.07762 3.26638 0
M  V30 29157 N 2781.78 -1.26752 -0.936569 0
M  V30 29158 C 2783.06 -1.03309 -1.66092 0
M  V30 29159 C 2783.44 0.435021 -2.06569 0
M  V30 29160 O 2782.79 1.41637 -1.79307 0
M  V30 29161 C 2783 -1.98624 -2.86966 0
M  V30 29162 C 2784.35 -2.27495 -3.58512 0
M  V30 29163 O 2785.37 -1.96527 -2.97078 0
M  V30 29164 O 2784.23 -2.80243 -4.69176 0
M  V30 29165 H 2781.32 -0.393171 -0.727561 0
M  V30 29166 H 2783.87 -1.37981 -0.98789 0
M  V30 29167 H 2782.64 -2.97674 -2.5398 0
M  V30 29168 H 2782.27 -1.6446 -3.61993 0
M  V30 29169 N 2783.26 1.1418 -1.08631 0
M  V30 29170 C 2784.17 2.22948 -0.730165 0
M  V30 29171 C 2785.19 1.71981 0.26433 0
M  V30 29172 O 2786.36 2.01112 0.107706 0
M  V30 29173 C 2783.43 3.46387 -0.147288 0
M  V30 29174 C 2782.49 4.12284 -1.19669 0
M  V30 29175 C 2781.72 5.2983 -0.64153 0
M  V30 29176 O 2781.95 5.67855 0.538251 0
M  V30 29177 O 2780.88 5.85567 -1.39267 0
M  V30 29178 H 2784.71 2.55768 -1.63757 0
M  V30 29179 H 2782.29 1.22155 -0.860139 0
M  V30 29180 H 2784.17 4.21037 0.174849 0
M  V30 29181 H 2782.85 3.15286 0.733248 0
M  V30 29182 H 2781.76 3.39497 -1.57139 0
M  V30 29183 H 2783.09 4.47496 -2.04958 0
M  V30 29184 N 2784.74 0.872304 1.31258 0
M  V30 29185 C 2785.67 0.345595 2.30928 0
M  V30 29186 C 2786.65 -0.564772 1.6045 0
M  V30 29187 O 2787.84 -0.481301 1.88141 0
M  V30 29188 C 2784.97 -0.451762 3.44349 0
M  V30 29189 C 2783.92 0.365716 4.26435 0
M  V30 29190 C 2783.25 -0.557469 5.31786 0
M  V30 29191 C 2784.55 1.60104 4.97156 0
M  V30 29192 H 2786.24 1.17846 2.75232 0
M  V30 29193 H 2783.79 0.568117 1.32319 0
M  V30 29194 H 2785.74 -0.830782 4.13129 0
M  V30 29195 H 2784.46 -1.31816 2.98818 0
M  V30 29196 H 2783.12 0.726712 3.59325 0
M  V30 29197 H 2782.77 -1.42121 4.82505 0
M  V30 29198 H 2782.47 -0.0143845 5.87598 0
M  V30 29199 H 2783.99 -0.933281 6.03425 0
M  V30 29200 H 2785.41 1.29333 5.58521 0
M  V30 29201 H 2783.81 2.08337 5.62775 0
M  V30 29202 H 2784.88 2.35257 4.24007 0
M  V30 29203 N 2786.22 -1.44374 0.631976 0
M  V30 29204 C 2787.63 -1.568 0.297669 0
M  V30 29205 C 2787.83 -1.61936 -1.19913 0
M  V30 29206 O 2786.89 -1.56285 -1.98321 0
M  V30 29207 C 2788.2 -2.83924 0.990336 0
M  V30 29208 C 2789.75 -2.97637 0.96856 0
M  V30 29209 C 2790.23 -4.27565 1.64171 0
M  V30 29210 N 2791.72 -4.34381 1.60834 0
M  V30 29211 C 2792.45 -5.33635 2.09812 0
M  V30 29212 N 2791.95 -6.3929 2.66984 0
M  V30 29213 N 2793.74 -5.2515 2.00436 0
M  V30 29214 H 2785.89 -1.39283 1.60356 0
M  V30 29215 H 2788.16 -0.667509 0.673153 0
M  V30 29216 H 2787.86 -2.86117 2.04524 0
M  V30 29217 H 2787.74 -3.73477 0.528629 0
M  V30 29218 H 2790.12 -2.94997 -0.0778728 0
M  V30 29219 H 2790.2 -2.0943 1.46877 0
M  V30 29220 H 2789.85 -4.30965 2.6876 0
M  V30 29221 H 2789.78 -5.14632 1.11633 0
M  V30 29222 H 2792.27 -3.58644 1.19093 0
M  V30 29223 H 2792.58 -7.11311 3.02087 0
M  V30 29224 H 2790.93 -6.39973 2.71035 0
M  V30 29225 H 2794.12 -4.4152 1.55491 0
M  V30 29226 H 2794.29 -6.02348 2.38917 0
M  V30 29227 N 2787.7 -0.372575 -1.53133 0
M  V30 29228 C 2788.92 0.218062 -2.0625 0
M  V30 29229 C 2789.35 1.41109 -1.24378 0
M  V30 29230 O 2788.7 1.79359 -0.264585 0
M  V30 29231 C 2788.75 0.582814 -3.55859 0
M  V30 29232 O 2787.86 1.6791 -3.7667 0
M  V30 29233 H 2787.2 0.0300924 -0.663318 0
M  V30 29234 H 2789.73 -0.535204 -1.97476 0
M  V30 29235 H 2789.74 0.851855 -3.99008 0
M  V30 29236 H 2788.41 -0.289501 -4.14891 0
M  V30 29237 H 2786.99 1.40507 -3.45416 0
M  V30 29238 N 2789.17 1.5727 -0.101929 0
M  V30 29239 C 2790.14 2.13249 0.840092 0
M  V30 29240 C 2791.14 1.06333 1.20623 0
M  V30 29241 O 2792.33 1.32188 1.13454 0
M  V30 29242 C 2789.46 2.6587 2.13368 0
M  V30 29243 H 2790.65 2.97805 0.353892 0
M  V30 29244 H 2788.21 1.55606 0.14714 0
M  V30 29245 H 2788.94 1.84854 2.66457 0
M  V30 29246 H 2788.73 3.44048 1.88079 0
M  V30 29247 H 2790.22 3.0915 2.80742 0
M  V30 29248 N 2790.65 -0.171793 1.56661 0
M  V30 29249 C 2791.56 -1.23266 1.99606 0
M  V30 29250 C 2792.58 -1.48469 0.907359 0
M  V30 29251 O 2793.75 -1.60627 1.21495 0
M  V30 29252 C 2790.82 -2.5519 2.34689 0
M  V30 29253 C 2789.88 -2.37854 3.57385 0
M  V30 29254 C 2789.11 -3.63487 3.90785 0
M  V30 29255 O 2789.34 -4.68644 3.2516 0
M  V30 29256 O 2788.27 -3.57626 4.84136 0
M  V30 29257 H 2792.1 -0.898141 2.90116 0
M  V30 29258 H 2789.68 -0.378622 1.44523 0
M  V30 29259 H 2791.56 -3.33013 2.58225 0
M  V30 29260 H 2790.24 -2.88222 1.47342 0
M  V30 29261 H 2789.15 -1.58064 3.39067 0
M  V30 29262 H 2790.48 -2.09747 4.45272 0
M  V30 29263 N 2792.13 -1.51324 -0.44033 0
M  V30 29264 C 2793.08 -1.72422 -1.53426 0
M  V30 29265 C 2794.05 -0.565854 -1.56164 0
M  V30 29266 O 2795.23 -0.799948 -1.73221 0
M  V30 29267 C 2792.37 -1.85247 -2.91166 0
M  V30 29268 C 2791.49 -3.12782 -2.97979 0
M  V30 29269 C 2790.62 -3.1622 -4.26824 0
M  V30 29270 C 2789.66 -4.38082 -4.27494 0
M  V30 29271 N 2788.8 -4.39086 -5.47858 0
M  V30 29272 H 2793.64 -2.658 -1.34739 0
M  V30 29273 H 2791.17 -1.31733 -0.654585 0
M  V30 29274 H 2793.13 -1.90664 -3.71084 0
M  V30 29275 H 2791.76 -0.952798 -3.08418 0
M  V30 29276 H 2790.81 -3.16688 -2.10743 0
M  V30 29277 H 2792.13 -4.02701 -2.94335 0
M  V30 29278 H 2791.28 -3.20537 -5.15113 0
M  V30 29279 H 2790.02 -2.24184 -4.3312 0
M  V30 29280 H 2789.02 -4.33944 -3.37598 0
M  V30 29281 H 2790.25 -5.31378 -4.22864 0
M  V30 29282 H 2788.19 -3.49919 -5.54881 0
M  V30 29283 H 2788.11 -5.2281 -5.46082 0
M  V30 29284 H 2789.38 -4.47591 -6.38187 0
M  V30 29285 N 2793.61 0.695578 -1.41419 0
M  V30 29286 C 2794.85 1.45778 -1.40985 0
M  V30 29287 C 2795.19 1.94191 -0.0188104 0
M  V30 29288 O 2794.46 1.69529 0.95343 0
M  V30 29289 C 2794.75 2.66967 -2.41662 0
M  V30 29290 C 2794.6 2.2432 -3.89873 0
M  V30 29291 C 2795.92 3.69164 -2.39595 0
M  V30 29292 H 2793.04 0.528748 -0.513415 0
M  V30 29293 H 2795.68 0.792245 -1.72695 0
M  V30 29294 H 2793.83 3.2375 -2.14752 0
M  V30 29295 H 2795.5 1.72865 -4.27686 0
M  V30 29296 H 2793.74 1.56104 -4.04739 0
M  V30 29297 H 2794.41 3.11277 -4.55862 0
M  V30 29298 H 2796.89 3.22055 -2.63476 0
M  V30 29299 H 2795.77 4.51569 -3.12052 0
M  V30 29300 H 2796.03 4.18859 -1.41454 0
M  V30 29301 N 2795.09 1.27247 0.929833 0
M  V30 29302 C 2796.05 1.09833 2.0117 0
M  V30 29303 C 2797.05 0.042997 1.60743 0
M  V30 29304 O 2798.24 0.287404 1.71813 0
M  V30 29305 C 2795.37 0.673062 3.3419 0
M  V30 29306 H 2796.57 2.05898 2.1805 0
M  V30 29307 H 2794.12 1.10005 1.11034 0
M  V30 29308 H 2794.85 -0.289078 3.23009 0
M  V30 29309 H 2794.64 1.43522 3.64889 0
M  V30 29310 H 2796.13 0.573396 4.13645 0
M  V30 29311 N 2796.57 -1.13603 1.09235 0
M  V30 29312 C 2797.51 -2.18953 0.72996 0
M  V30 29313 C 2798.48 -1.63586 -0.287887 0
M  V30 29314 O 2799.67 -1.90041 -0.16997 0
M  V30 29315 C 2796.81 -3.44754 0.154549 0
M  V30 29316 C 2795.92 -4.14232 1.2262 0
M  V30 29317 C 2795.06 -5.27642 0.61375 0
M  V30 29318 C 2794.09 -5.88967 1.66684 0
M  V30 29319 N 2793.23 -6.93813 1.07557 0
M  V30 29320 H 2798.07 -2.49299 1.63261 0
M  V30 29321 H 2795.61 -1.22411 0.815715 0
M  V30 29322 H 2797.57 -4.16735 -0.19685 0
M  V30 29323 H 2796.2 -3.14864 -0.711377 0
M  V30 29324 H 2795.25 -3.40554 1.69491 0
M  V30 29325 H 2796.56 -4.55895 2.02388 0
M  V30 29326 H 2795.71 -6.06333 0.211082 0
M  V30 29327 H 2794.45 -4.87224 -0.215498 0
M  V30 29328 H 2793.46 -5.08974 2.07908 0
M  V30 29329 H 2794.68 -6.31459 2.49872 0
M  V30 29330 H 2792.63 -6.55454 0.267567 0
M  V30 29331 H 2792.55 -7.34007 1.81024 0
M  V30 29332 H 2793.81 -7.76359 0.699042 0
M  V30 29333 N 2798.04 -0.879253 -1.30793 0
M  V30 29334 C 2799.29 -0.493843 -1.95973 0
M  V30 29335 C 2799.61 0.958991 -1.69789 0
M  V30 29336 O 2798.88 1.67351 -1.01835 0
M  V30 29337 H 2797.46 -0.179635 -0.72508 0
M  V30 29338 H 2800.12 -1.12108 -1.5943 0
M  V30 29339 H 2799.22 -0.659316 -3.05056 0
M  V30 29340 N 2799.52 1.44037 -0.639624 0
M  V30 29341 C 2800.47 2.30721 0.0602053 0
M  V30 29342 C 2801.44 1.43972 0.828326 0
M  V30 29343 O 2802.62 1.72863 0.807663 0
M  V30 29344 C 2799.76 3.2937 1.03002 0
M  V30 29345 C 2798.88 4.3122 0.259426 0
M  V30 29346 C 2798.01 5.16958 1.22182 0
M  V30 29347 C 2797.05 6.1051 0.440871 0
M  V30 29348 N 2796.19 6.88917 1.35416 0
M  V30 29349 H 2801.03 2.90022 -0.684918 0
M  V30 29350 H 2798.56 1.42887 -0.349534 0
M  V30 29351 H 2800.52 3.8506 1.60576 0
M  V30 29352 H 2799.15 2.7175 1.74217 0
M  V30 29353 H 2798.2 3.77935 -0.432383 0
M  V30 29354 H 2799.52 4.97582 -0.348435 0
M  V30 29355 H 2798.67 5.77206 1.86863 0
M  V30 29356 H 2797.41 4.5069 1.8636 0
M  V30 29357 H 2796.41 5.49362 -0.219376 0
M  V30 29358 H 2797.64 6.78816 -0.196311 0
M  V30 29359 H 2795.59 6.25311 1.98299 0
M  V30 29360 H 2795.5 7.5175 0.800525 0
M  V30 29361 H 2796.77 7.53683 1.98954 0
M  V30 29362 N 2801 0.380691 1.52933 0
M  V30 29363 C 2802.22 -0.207121 2.06363 0
M  V30 29364 C 2802.65 -1.40447 1.25124 0
M  V30 29365 O 2802.01 -1.79216 0.274094 0
M  V30 29366 C 2802.06 -0.563933 3.56163 0
M  V30 29367 O 2801.16 -1.6591 3.77555 0
M  V30 29368 H 2800.5 -0.0265742 0.663468 0
M  V30 29369 H 2803.03 0.545669 1.97189 0
M  V30 29370 H 2803.04 -0.830682 3.99454 0
M  V30 29371 H 2801.72 0.3115 4.14732 0
M  V30 29372 H 2800.29 -1.38674 3.46156 0
M  V30 29373 N 2802.48 -1.57214 0.110268 0
M  V30 29374 C 2803.89 -1.57687 -0.246352 0
M  V30 29375 C 2804.09 -1.12244 -1.67343 0
M  V30 29376 O 2803.15 -0.805825 -2.39296 0
M  V30 29377 C 2804.46 -3.00693 -0.020976 0
M  V30 29378 C 2806.01 -3.12878 -0.0875527 0
M  V30 29379 C 2806.49 -4.57868 0.11002 0
M  V30 29380 N 2807.98 -4.63167 0.0556949 0
M  V30 29381 C 2808.71 -5.73106 0.183596 0
M  V30 29382 N 2808.21 -6.91826 0.36718 0
M  V30 29383 N 2810 -5.61964 0.123788 0
M  V30 29384 H 2802.15 -1.85057 1.04249 0
M  V30 29385 H 2804.41 -0.854847 0.409805 0
M  V30 29386 H 2804.12 -3.38195 0.965263 0
M  V30 29387 H 2803.99 -3.69532 -0.756683 0
M  V30 29388 H 2806.38 -2.75239 -1.06431 0
M  V30 29389 H 2806.46 -2.46599 0.679893 0
M  V30 29390 H 2806.11 -4.96204 1.08371 0
M  V30 29391 H 2806.04 -5.22226 -0.677305 0
M  V30 29392 H 2808.53 -3.77809 -0.0830398 0
M  V30 29393 H 2808.84 -7.71454 0.455874 0
M  V30 29394 H 2807.19 -6.9383 0.403042 0
M  V30 29395 H 2810.38 -4.68096 -0.0186105 0
M  V30 29396 H 2810.55 -6.47603 0.226911 0
M  V30 29397 N 2803.96 0.163482 -1.5675 0
M  V30 29398 C 2804.89 1.20435 -2.00044 0
M  V30 29399 C 2805.87 1.45732 -0.877282 0
M  V30 29400 O 2807.05 1.56933 -1.14393 0
M  V30 29401 C 2804.18 2.54145 -2.36702 0
M  V30 29402 C 2803.14 2.43402 -3.52051 0
M  V30 29403 C 2802.46 3.81673 -3.74473 0
M  V30 29404 C 2803.76 1.93208 -4.85251 0
M  V30 29405 H 2805.46 0.844427 -2.87245 0
M  V30 29406 H 2803 0.404755 -1.38195 0
M  V30 29407 H 2804.95 3.27171 -2.65588 0
M  V30 29408 H 2803.68 2.9194 -1.46419 0
M  V30 29409 H 2802.34 1.72829 -3.23304 0
M  V30 29410 H 2801.99 4.16875 -2.81468 0
M  V30 29411 H 2801.69 3.75351 -4.5209 0
M  V30 29412 H 2803.21 4.56273 -4.05768 0
M  V30 29413 H 2804.62 2.56014 -5.12962 0
M  V30 29414 H 2803.02 1.97815 -5.66559 0
M  V30 29415 H 2804.09 0.886806 -4.76722 0
M  V30 29416 N 2805.43 1.51555 0.432299 0
M  V30 29417 C 2806.68 1.63705 1.17828 0
M  V30 29418 C 2807 0.361593 1.92229 0
M  V30 29419 O 2808.2 0.362543 2.69069 0
M  V30 29420 C 2806.66 2.89133 2.14313 0
M  V30 29421 C 2806.27 4.23702 1.45537 0
M  V30 29422 C 2808.01 3.10642 2.89313 0
M  V30 29423 C 2805.92 5.40275 2.40535 0
M  V30 29424 H 2804.85 0.609757 0.443522 0
M  V30 29425 H 2807.5 1.78026 0.444847 0
M  V30 29426 H 2805.88 2.68457 2.91113 0
M  V30 29427 H 2807.05 4.54777 0.742613 0
M  V30 29428 H 2805.37 4.08111 0.8267 0
M  V30 29429 H 2807.97 3.94908 3.60488 0
M  V30 29430 H 2808.31 2.23924 3.50947 0
M  V30 29431 H 2808.84 3.31681 2.1962 0
M  V30 29432 H 2805.58 6.29267 1.83583 0
M  V30 29433 H 2805.1 5.13569 3.0985 0
M  V30 29434 H 2806.78 5.72426 3.01558 0
M  V30 29435 N 2806.91 -0.688069 1.41786 0
M  V30 29436 C 2807.82 -1.83155 1.46599 0
M  V30 29437 C 2808.84 -1.70321 0.355892 0
M  V30 29438 O 2810.01 -1.92105 0.60477 0
M  V30 29439 C 2807.08 -3.19198 1.35327 0
M  V30 29440 C 2806.14 -3.44086 2.56717 0
M  V30 29441 C 2805.37 -4.73638 2.45973 0
M  V30 29442 O 2805.6 -5.50639 1.48837 0
M  V30 29443 O 2804.53 -4.99476 3.35868 0
M  V30 29444 H 2808.36 -1.82051 2.43086 0
M  V30 29445 H 2805.94 -0.842104 1.23406 0
M  V30 29446 H 2807.82 -4.00405 1.31354 0
M  V30 29447 H 2806.5 -3.20969 0.419592 0
M  V30 29448 H 2805.4 -2.62779 2.66266 0
M  V30 29449 H 2806.74 -3.47135 3.48939 0
M  V30 29450 N 2808.39 -1.27739 -0.923072 0
M  V30 29451 C 2809.35 -1.10898 -2.00585 0
M  V30 29452 C 2810.35 -0.0515209 -1.60717 0
M  V30 29453 O 2811.54 -0.296511 -1.71658 0
M  V30 29454 C 2808.67 -0.690776 -3.33828 0
M  V30 29455 H 2809.87 -2.07052 -2.16955 0
M  V30 29456 H 2807.42 -1.10592 -1.10449 0
M  V30 29457 H 2808.16 0.271944 -3.23158 0
M  V30 29458 H 2807.94 -1.45455 -3.64123 0
M  V30 29459 H 2809.43 -0.595324 -4.13335 0
M  V30 29460 N 2809.87 1.13022 -1.09836 0
M  V30 29461 C 2811.09 1.88769 -0.859123 0
M  V30 29462 C 2811.52 1.78792 0.58437 0
M  V30 29463 O 2810.88 1.13845 1.41099 0
M  V30 29464 C 2810.92 3.36184 -1.30433 0
M  V30 29465 O 2810.03 4.09765 -0.46544 0
M  V30 29466 H 2809.37 0.586772 -0.310797 0
M  V30 29467 H 2811.9 1.42971 -1.46357 0
M  V30 29468 H 2811.91 3.87017 -1.29157 0
M  V30 29469 H 2810.58 3.42763 -2.35556 0
M  V30 29470 H 2809.16 3.68927 -0.542879 0
M  V30 29471 N 2811.35 0.886177 1.30325 0
M  V30 29472 C 2812.57 0.51946 2.00789 0
M  V30 29473 C 2813 -0.884984 1.65981 0
M  V30 29474 O 2812.35 -1.58673 0.877071 0
M  V30 29475 C 2812.4 0.70282 3.53685 0
M  V30 29476 O 2811.51 -0.250756 4.11637 0
M  V30 29477 H 2810.85 0.204555 0.631707 0
M  V30 29478 H 2813.38 1.19405 1.66143 0
M  V30 29479 H 2813.39 0.602278 4.0353 0
M  V30 29480 H 2812.06 1.7268 3.78357 0
M  V30 29481 H 2810.64 -0.103807 3.72755 0
M  V30 29482 N 2812.82 -1.43695 0.647253 0
M  V30 29483 C 2813.75 -2.33474 -0.0345221 0
M  V30 29484 C 2814.74 -1.49131 -0.818166 0
M  V30 29485 O 2815.92 -1.77811 -0.780835 0
M  V30 29486 C 2813.05 -3.3242 -1.0057 0
M  V30 29487 C 2812 -4.26706 -0.332585 0
M  V30 29488 C 2811.33 -5.15643 -1.4148 0
M  V30 29489 C 2812.63 -5.16574 0.771295 0
M  V30 29490 H 2814.32 -2.90732 0.715214 0
M  V30 29491 H 2811.87 -1.39797 0.345389 0
M  V30 29492 H 2813.82 -3.94121 -1.49152 0
M  V30 29493 H 2812.55 -2.73406 -1.78653 0
M  V30 29494 H 2811.21 -3.6636 0.132735 0
M  V30 29495 H 2810.85 -4.52972 -2.1869 0
M  V30 29496 H 2810.55 -5.79543 -0.969697 0
M  V30 29497 H 2812.08 -5.80218 -1.9021 0
M  V30 29498 H 2813.49 -5.72118 0.367891 0
M  V30 29499 H 2811.89 -5.89163 1.1405 0
M  V30 29500 H 2812.96 -4.5662 1.63177 0
M  V30 29501 N 2814.3 -0.388796 -1.52729 0
M  V30 29502 C 2815.25 0.461487 -2.27976 0
M  V30 29503 C 2816.24 1.0635 -1.31856 0
M  V30 29504 O 2817.45 1.00403 -1.49396 0
M  V30 29505 H 2813.83 0.167577 -0.733091 0
M  V30 29506 H 2815.8 -0.194631 -2.97765 0
M  V30 29507 C 2814.55 1.57694 -3.09883 0
M  V30 29508 H 2813.87 1.12303 -3.83703 0
M  V30 29509 H 2815.31 2.14613 -3.65674 0
M  V30 29510 C 2813.77 2.53268 -2.22164 0
M  V30 29511 O 2814.3 3.56664 -1.84808 0
M  V30 29512 N 2812.5 2.22998 -1.86334 0
M  V30 29513 H 2812.05 1.3895 -2.16911 0
M  V30 29514 H 2812.01 2.87195 -1.27932 0
M  V30 29515 N 2815.78 1.57153 -0.118604 0
M  V30 29516 C 2817.06 1.86709 0.583029 0
M  V30 29517 C 2817.44 1.0197 1.84839 0
M  V30 29518 O 2816.79 0.0985074 2.28288 0
M  V30 29519 C 2817 3.37831 0.875853 0
M  V30 29520 C 2818.34 4.06422 1.22909 0
M  V30 29521 O 2819.37 3.42848 0.966127 0
M  V30 29522 O 2818.23 5.18641 1.72259 0
M  V30 29523 H 2815.32 0.772912 0.294171 0
M  V30 29524 H 2817.87 1.69008 -0.153077 0
M  V30 29525 H 2816.64 3.91294 -0.0208464 0
M  V30 29526 H 2816.26 3.60961 1.66713 0
M  V30 29527 N 2817.26 -0.155167 1.56834 0
M  V30 29528 C 2818.48 -0.888305 1.87414 0
M  V30 29529 C 2818.91 -1.74318 0.706741 0
M  V30 29530 O 2818.27 -1.78009 -0.343861 0
M  V30 29531 C 2818.31 -1.72759 3.16523 0
M  V30 29532 O 2817.42 -2.83098 2.99882 0
M  V30 29533 H 2816.76 -0.247904 0.615987 0
M  V30 29534 H 2819.29 -0.148442 2.04061 0
M  V30 29535 H 2819.3 -2.12427 3.48337 0
M  V30 29536 H 2817.97 -1.09978 4.01096 0
M  V30 29537 H 2816.55 -2.46897 2.79457 0
M  V30 29538 N 2818.74 -1.51782 -0.424256 0
M  V30 29539 C 2819.98 -1.65342 -1.17431 0
M  V30 29540 C 2820.32 -0.37484 -1.90548 0
M  V30 29541 O 2819.59 0.626147 -1.84146 0
M  V30 29542 C 2819.87 -2.86548 -2.18088 0
M  V30 29543 C 2819.73 -4.24416 -1.48967 0
M  V30 29544 C 2821.05 -3.0327 -3.18929 0
M  V30 29545 H 2818.16 -0.601724 -0.425555 0
M  V30 29546 H 2820.81 -1.843 -0.461889 0
M  V30 29547 H 2818.96 -2.70514 -2.78844 0
M  V30 29548 H 2820.63 -4.52145 -0.914472 0
M  V30 29549 H 2818.87 -4.26512 -0.791818 0
M  V30 29550 H 2819.54 -5.05242 -2.22338 0
M  V30 29551 H 2822.02 -3.18101 -2.68237 0
M  V30 29552 H 2820.89 -3.89618 -3.86638 0
M  V30 29553 H 2821.16 -2.15914 -3.85789 0
M  V30 29554 N 2820.21 0.68054 -1.42149 0
M  V30 29555 C 2821.18 1.77599 -1.44883 0
M  V30 29556 C 2822.18 1.57224 -0.337236 0
M  V30 29557 O 2823.37 1.63621 -0.597807 0
M  V30 29558 C 2820.5 3.16164 -1.27489 0
M  V30 29559 H 2821.69 1.76564 -2.42415 0
M  V30 29560 H 2819.25 0.889622 -1.28512 0
M  V30 29561 H 2819.98 3.22829 -0.308567 0
M  V30 29562 H 2819.77 3.32356 -2.08043 0
M  V30 29563 H 2821.26 3.96098 -1.32272 0
M  V30 29564 N 2821.69 1.28226 0.916285 0
M  V30 29565 C 2822.63 1.06257 2.01952 0
M  V30 29566 C 2823.6 -0.0205698 1.62587 0
M  V30 29567 O 2824.79 0.126857 1.88073 0
M  V30 29568 C 2821.91 0.614199 3.33084 0
M  V30 29569 C 2820.96 1.69361 3.91432 0
M  V30 29570 S 2821.79 3.28895 4.22598 0
M  V30 29571 C 2822.95 2.85886 5.56795 0
M  V30 29572 H 2823.18 1.99663 2.20277 0
M  V30 29573 H 2820.72 1.12186 1.06083 0
M  V30 29574 H 2822.67 0.362202 4.08899 0
M  V30 29575 H 2821.33 -0.299981 3.12664 0
M  V30 29576 H 2820.53 1.33145 4.86095 0
M  V30 29577 H 2820.13 1.89827 3.22245 0
M  V30 29578 H 2822.42 2.31899 6.36576 0
M  V30 29579 H 2823.36 3.79337 5.97921 0
M  V30 29580 H 2823.77 2.24678 5.17861 0
M  V30 29581 N 2823.17 -1.12438 1.10433 0
M  V30 29582 C 2824.59 -1.35946 0.83612 0
M  V30 29583 C 2824.79 -1.94005 -0.544441 0
M  V30 29584 O 2823.84 -2.16624 -1.29732 0
M  V30 29585 C 2825.16 -2.30103 1.93579 0
M  V30 29586 C 2826.7 -2.43694 1.96424 0
M  V30 29587 C 2827.18 -3.41166 3.05565 0
M  V30 29588 N 2828.67 -3.48723 3.04871 0
M  V30 29589 C 2829.4 -4.24054 3.85961 0
M  V30 29590 N 2828.9 -5.0245 4.76986 0
M  V30 29591 N 2830.69 -4.1946 3.74179 0
M  V30 29592 H 2822.84 -0.731089 1.99421 0
M  V30 29593 H 2825.11 -0.384297 0.866614 0
M  V30 29594 H 2824.81 -1.94616 2.92946 0
M  V30 29595 H 2824.69 -3.30224 1.82296 0
M  V30 29596 H 2827.07 -2.78461 0.976899 0
M  V30 29597 H 2827.16 -1.43461 2.11784 0
M  V30 29598 H 2826.8 -3.07128 4.04518 0
M  V30 29599 H 2826.73 -4.41229 2.87446 0
M  V30 29600 H 2829.22 -2.92795 2.38913 0
M  V30 29601 H 2829.53 -5.57267 5.35419 0
M  V30 29602 H 2827.88 -5.01647 4.81015 0
M  V30 29603 H 2831.07 -3.57296 3.02419 0
M  V30 29604 H 2831.24 -4.77913 4.37611 0
M  V30 29605 N 2824.65 -0.893076 -1.29853 0
M  V30 29606 C 2825.58 -0.32315 -2.26911 0
M  V30 29607 C 2826.59 0.526831 -1.5404 0
M  V30 29608 O 2827.78 0.345065 -1.75133 0
M  V30 29609 C 2824.88 0.55845 -3.34267 0
M  V30 29610 C 2824.06 -0.264299 -4.36601 0
M  V30 29611 C 2823.12 0.549079 -5.23327 0
M  V30 29612 O 2822.14 -0.0310883 -5.69192 0
M  V30 29613 N 2823.34 1.85655 -5.50011 0
M  V30 29614 H 2826.11 -1.15731 -2.76453 0
M  V30 29615 H 2823.67 -0.756884 -1.43118 0
M  V30 29616 H 2825.66 1.10883 -3.89213 0
M  V30 29617 H 2824.23 1.29329 -2.84592 0
M  V30 29618 H 2823.45 -0.996113 -3.81407 0
M  V30 29619 H 2824.74 -0.827995 -5.02018 0
M  V30 29620 H 2824.14 2.35072 -5.14546 0
M  V30 29621 H 2822.69 2.3542 -6.078 0
M  V30 29622 N 2826.13 1.4335 -0.654865 0
M  V30 29623 C 2827.36 2.06144 -0.176721 0
M  V30 29624 C 2827.77 1.49095 1.15828 0
M  V30 29625 O 2827.13 0.622898 1.71541 0
M  V30 29626 C 2827.18 3.61408 -0.0813961 0
M  V30 29627 O 2826.9 4.16337 -1.36363 0
M  V30 29628 C 2828.4 4.41281 0.422628 0
M  V30 29629 H 2825.62 0.664848 -0.0906546 0
M  V30 29630 H 2828.16 1.83827 -0.895977 0
M  V30 29631 H 2826.32 3.82905 0.588428 0
M  V30 29632 H 2826.73 5.1002 -1.2239 0
M  V30 29633 H 2828.21 5.50257 0.438278 0
M  V30 29634 H 2828.68 4.14425 1.45424 0
M  V30 29635 H 2829.29 4.24757 -0.214762 0
M  V30 29636 N 2827.61 0.39689 1.52521 0
M  V30 29637 C 2828.85 -0.182862 2.01673 0
M  V30 29638 C 2829.18 -1.46179 1.28305 0
M  V30 29639 O 2828.44 -1.9209 0.374152 0
M  V30 29640 C 2828.73 -0.489614 3.5403 0
M  V30 29641 C 2828.4 0.698659 4.45454 0
M  V30 29642 C 2827.06 1.02463 4.70165 0
M  V30 29643 C 2829.41 1.49325 4.99351 0
M  V30 29644 C 2826.74 2.1466 5.4602 0
M  V30 29645 C 2829.09 2.60589 5.76434 0
M  V30 29646 C 2827.76 2.93685 5.99421 0
M  V30 29647 H 2827.03 -0.0669141 0.737973 0
M  V30 29648 H 2829.68 0.535796 1.83852 0
M  V30 29649 H 2827.98 -1.28969 3.69965 0
M  V30 29650 H 2829.68 -0.95095 3.89561 0
M  V30 29651 H 2826.27 0.4346 4.26391 0
M  V30 29652 H 2830.45 1.25465 4.80179 0
M  V30 29653 H 2825.71 2.40664 5.62042 0
M  V30 29654 H 2829.88 3.22555 6.17196 0
M  V30 29655 H 2827.51 3.80742 6.57981 0
M  V30 29656 N 2829.08 -1.57088 0.126936 0
M  V30 29657 C 2830.33 -1.95079 -0.528088 0
M  V30 29658 C 2830.65 -1.01163 -1.66707 0
M  V30 29659 O 2829.92 -0.0693872 -1.95777 0
M  V30 29660 H 2828.5 -0.720261 -0.198074 0
M  V30 29661 H 2831.16 -1.93894 0.197738 0
M  V30 29662 H 2830.26 -2.98311 -0.917455 0
M  V30 29663 N 2830.56 0.146848 -1.56914 0
M  V30 29664 C 2831.51 1.20049 -1.99226 0
M  V30 29665 C 2832.5 1.44463 -0.884686 0
M  V30 29666 O 2833.71 1.44754 -1.06987 0
M  V30 29667 H 2830.08 0.404101 -0.634198 0
M  V30 29668 H 2832.06 0.816936 -2.86999 0
M  V30 29669 C 2830.8 2.52627 -2.38903 0
M  V30 29670 H 2830.13 2.34671 -3.23681 0
M  V30 29671 H 2831.57 3.24979 -2.72331 0
M  V30 29672 C 2830.03 3.13181 -1.24175 0
M  V30 29673 O 2830.56 3.98019 -0.542573 0
M  V30 29674 N 2828.76 2.72633 -1.00596 0
M  V30 29675 H 2828.31 2.03741 -1.5763 0
M  V30 29676 H 2828.27 3.13481 -0.240229 0
M  V30 29677 N 2832.04 1.52005 0.4162 0
M  V30 29678 C 2832.97 1.77797 1.51362 0
M  V30 29679 C 2833.95 0.628628 1.58058 0
M  V30 29680 O 2835.14 0.873509 1.73446 0
M  V30 29681 C 2832.27 1.92224 2.89253 0
M  V30 29682 C 2831.22 3.07785 2.9741 0
M  V30 29683 C 2830.55 3.07424 4.37486 0
M  V30 29684 C 2831.85 4.47374 2.69543 0
M  V30 29685 H 2833.54 2.69691 1.30028 0
M  V30 29686 H 2831.09 1.29773 0.624089 0
M  V30 29687 H 2833.04 2.08851 3.66004 0
M  V30 29688 H 2831.76 0.969972 3.11864 0
M  V30 29689 H 2830.42 2.90897 2.23102 0
M  V30 29690 H 2830.07 2.09933 4.57097 0
M  V30 29691 H 2829.77 3.85037 4.4387 0
M  V30 29692 H 2831.29 3.26171 5.16183 0
M  V30 29693 H 2832.71 4.64503 3.3602 0
M  V30 29694 H 2831.1 5.26851 2.87312 0
M  V30 29695 H 2832.17 4.55956 1.65021 0
M  V30 29696 N 2833.52 -0.672992 1.42508 0
M  V30 29697 C 2834.75 -1.45913 1.46263 0
M  V30 29698 C 2835.16 -1.89059 0.0730056 0
M  V30 29699 O 2834.5 -1.58831 -0.922959 0
M  V30 29700 C 2834.56 -2.73893 2.32858 0
M  V30 29701 C 2834.22 -2.52812 3.80703 0
M  V30 29702 C 2835.22 -2.17298 4.72311 0
M  V30 29703 C 2832.91 -2.67751 4.24988 0
M  V30 29704 C 2834.9 -1.96992 6.06195 0
M  V30 29705 C 2832.59 -2.4706 5.58931 0
M  V30 29706 C 2833.59 -2.11735 6.49352 0
M  V30 29707 O 2833.27 -1.91246 7.8082 0
M  V30 29708 H 2833.01 -0.455419 0.499569 0
M  V30 29709 H 2835.56 -0.834163 1.87699 0
M  V30 29710 H 2833.79 -3.38879 1.86274 0
M  V30 29711 H 2835.48 -3.35782 2.28047 0
M  V30 29712 H 2836.24 -2.05351 4.39381 0
M  V30 29713 H 2832.12 -2.94225 3.54898 0
M  V30 29714 H 2835.67 -1.69343 6.76734 0
M  V30 29715 H 2831.56 -2.58604 5.91434 0
M  V30 29716 H 2832.33 -2.05829 7.92197 0
M  V30 29717 N 2835 -1.2871 -0.909472 0
M  V30 29718 C 2835.94 -1.13004 -2.01243 0
M  V30 29719 C 2836.91 -0.0259976 -1.6608 0
M  V30 29720 O 2838.1 -0.191721 -1.89834 0
M  V30 29721 C 2835.24 -0.802374 -3.35643 0
M  V30 29722 C 2834.35 -1.98588 -3.83649 0
M  V30 29723 C 2833.49 -1.59846 -5.06579 0
M  V30 29724 C 2832.52 -2.74836 -5.46929 0
M  V30 29725 N 2831.66 -2.36557 -6.61048 0
M  V30 29726 H 2836.5 -2.07374 -2.14009 0
M  V30 29727 H 2834.04 -1.03207 -1.04818 0
M  V30 29728 H 2836 -0.593129 -4.12962 0
M  V30 29729 H 2834.63 0.1044 -3.22631 0
M  V30 29730 H 2833.68 -2.30713 -3.02449 0
M  V30 29731 H 2834.99 -2.84786 -4.0951 0
M  V30 29732 H 2834.14 -1.35153 -5.91455 0
M  V30 29733 H 2832.88 -0.707838 -4.82536 0
M  V30 29734 H 2831.89 -3.00223 -4.60593 0
M  V30 29735 H 2833.11 -3.64548 -5.72959 0
M  V30 29736 H 2831.06 -1.4997 -6.38627 0
M  V30 29737 H 2830.98 -3.16289 -6.86656 0
M  V30 29738 H 2832.24 -2.15159 -7.49218 0
M  V30 29739 N 2836.47 1.1185 -1.11028 0
M  V30 29740 C 2837.7 1.87307 -0.878851 0
M  V30 29741 C 2838.12 1.79956 0.571078 0
M  V30 29742 O 2837.47 1.1778 1.39407 0
M  V30 29743 C 2837.52 3.36285 -1.32646 0
M  V30 29744 O 2837.25 3.43471 -2.71954 0
M  V30 29745 C 2838.75 4.28661 -1.12982 0
M  V30 29746 H 2835.97 0.592453 -0.315025 0
M  V30 29747 H 2838.51 1.41489 -1.47652 0
M  V30 29748 H 2836.67 3.79623 -0.772336 0
M  V30 29749 H 2837.08 4.36205 -2.91248 0
M  V30 29750 H 2838.55 5.31452 -1.49208 0
M  V30 29751 H 2839.03 4.39146 -0.0689899 0
M  V30 29752 H 2839.64 3.9111 -1.67071 0
M  V30 29753 N 2837.95 0.89995 1.29378 0
M  V30 29754 C 2839.2 0.525997 1.95549 0
M  V30 29755 C 2839.53 -0.927759 1.70947 0
M  V30 29756 O 2838.78 -1.67291 1.01548 0
M  V30 29757 C 2839.08 0.765175 3.49113 0
M  V30 29758 C 2838.75 2.19633 3.93792 0
M  V30 29759 C 2837.41 2.58765 4.05702 0
M  V30 29760 C 2839.76 3.1283 4.16877 0
M  V30 29761 C 2837.09 3.90274 4.38067 0
M  V30 29762 C 2839.44 4.43888 4.50717 0
M  V30 29763 C 2838.1 4.82893 4.60837 0
M  V30 29764 H 2837.37 0.192476 0.715566 0
M  V30 29765 H 2840.02 1.13865 1.5397 0
M  V30 29766 H 2838.33 0.0695998 3.91738 0
M  V30 29767 H 2840.02 0.455214 3.98408 0
M  V30 29768 H 2836.61 1.88263 3.85039 0
M  V30 29769 H 2840.8 2.83812 4.07142 0
M  V30 29770 H 2836.05 4.20215 4.44105 0
M  V30 29771 H 2840.23 5.16129 4.67529 0
M  V30 29772 H 2837.85 5.84832 4.85671 0
M  V30 29773 N 2839.43 -1.43001 0.662458 0
M  V30 29774 C 2840.38 -2.27954 -0.0460041 0
M  V30 29775 C 2841.36 -1.40411 -0.785728 0
M  V30 29776 O 2842.56 -1.63965 -0.666673 0
M  V30 29777 C 2839.69 -3.28252 -1.00526 0
M  V30 29778 C 2838.77 -4.2328 -0.26353 0
M  V30 29779 N 2839.16 -5.00578 0.724943 0
M  V30 29780 C 2837.46 -4.43147 -0.5037 0
M  V30 29781 C 2838.16 -5.69893 1.16604 0
M  V30 29782 N 2837.14 -5.4131 0.49844 0
M  V30 29783 H 2840.94 -2.85136 0.712364 0
M  V30 29784 H 2838.45 -1.54816 0.490497 0
M  V30 29785 H 2840.45 -3.87901 -1.52768 0
M  V30 29786 H 2839.11 -2.72631 -1.76359 0
M  V30 29787 H 2840.12 -5.05996 1.10402 0
M  V30 29788 H 2836.8 -3.98583 -1.24248 0
M  V30 29789 H 2838.19 -6.41926 1.98445 0
M  V30 29790 N 2840.91 -0.404973 -1.52308 0
M  V30 29791 C 2841.84 0.41372 -2.29806 0
M  V30 29792 C 2842.82 1.04978 -1.33842 0
M  V30 29793 O 2844 1.05958 -1.62747 0
M  V30 29794 C 2841.13 1.53287 -3.11641 0
M  V30 29795 C 2840.09 1.02203 -4.15618 0
M  V30 29796 C 2839.41 2.23446 -4.85774 0
M  V30 29797 C 2840.71 0.0789807 -5.2224 0
M  V30 29798 H 2842.41 -0.23293 -2.98493 0
M  V30 29799 H 2839.95 -0.113466 -1.43552 0
M  V30 29800 H 2841.91 2.11256 -3.64622 0
M  V30 29801 H 2840.63 2.20734 -2.40716 0
M  V30 29802 H 2839.29 0.464776 -3.63642 0
M  V30 29803 H 2838.94 2.89438 -4.11381 0
M  V30 29804 H 2838.64 1.8992 -5.56061 0
M  V30 29805 H 2840.16 2.82029 -5.41565 0
M  V30 29806 H 2841.58 0.567338 -5.70486 0
M  V30 29807 H 2839.97 -0.167272 -5.99867 0
M  V30 29808 H 2841.04 -0.867531 -4.77076 0
M  V30 29809 N 2842.39 1.57018 -0.135265 0
M  V30 29810 C 2843.33 2.17437 0.82606 0
M  V30 29811 C 2844.33 1.12807 1.26376 0
M  V30 29812 O 2845.53 1.31081 1.23361 0
M  V30 29813 H 2841.91 0.696083 0.284556 0
M  V30 29814 H 2843.88 2.96966 0.29216 0
M  V30 29815 C 2842.63 2.80116 2.05986 0
M  V30 29816 H 2841.95 3.60334 1.73203 0
M  V30 29817 H 2843.39 3.25908 2.71219 0
M  V30 29818 C 2841.85 1.78022 2.86024 0
M  V30 29819 O 2842.38 1.2435 3.81968 0
M  V30 29820 N 2840.59 1.47592 2.5033 0
M  V30 29821 H 2840.13 1.91429 1.72373 0
M  V30 29822 H 2840.09 0.795281 3.04175 0
M  V30 29823 N 2843.86 -0.138524 1.5699 0
M  V30 29824 C 2845.28 -0.697724 1.73172 0
M  V30 29825 C 2845.63 -1.81259 0.750984 0
M  V30 29826 O 2844.75 -2.1625 -0.080511 0
M  V30 29827 C 2845.35 -1.27242 3.13998 0
M  V30 29828 C 2843.91 -1.77811 3.31753 0
M  V30 29829 C 2843.05 -0.669944 2.69086 0
M  V30 29830 H 2846 0.0872257 1.5846 0
M  V30 29831 H 2846.02 -2.14221 3.14467 0
M  V30 29832 H 2845.54 -0.460787 3.85355 0
M  V30 29833 H 2843.64 -2.61514 2.65407 0
M  V30 29834 H 2843.75 -1.90099 4.39772 0
M  V30 29835 H 2842.11 -1.0987 2.29784 0
M  V30 29836 H 2842.9 0.13039 3.43052 0
M  V30 29837 N 2845.34 -1.52224 -0.408133 0
M  V30 29838 C 2846.59 -1.66003 -1.15271 0
M  V30 29839 C 2846.91 -0.392837 -1.91002 0
M  V30 29840 O 2846.18 0.592303 -1.86731 0
M  V30 29841 H 2844.76 -0.611869 -0.428515 0
M  V30 29842 H 2847.42 -1.8927 -0.465087 0
M  V30 29843 H 2846.52 -2.50156 -1.86623 0
M  V30 29844 N 2846.82 0.665425 -1.42863 0
M  V30 29845 C 2848.07 1.42754 -1.44045 0
M  V30 29846 C 2848.4 1.94107 -0.059997 0
M  V30 29847 O 2847.67 1.71513 0.917256 0
M  V30 29848 C 2847.96 2.61781 -2.4727 0
M  V30 29849 C 2847.81 2.16 -3.94543 0
M  V30 29850 C 2849.13 3.63999 -2.47372 0
M  V30 29851 H 2846.25 0.517739 -0.524515 0
M  V30 29852 H 2848.89 0.755435 -1.74336 0
M  V30 29853 H 2847.04 3.19122 -2.21571 0
M  V30 29854 H 2848.71 1.63754 -4.31257 0
M  V30 29855 H 2846.96 1.47484 -4.07959 0
M  V30 29856 H 2847.63 3.01538 -4.62363 0
M  V30 29857 H 2850.1 3.16394 -2.70248 0
M  V30 29858 H 2848.98 4.44849 -3.2156 0
M  V30 29859 H 2849.24 4.15765 -1.50307 0
M  V30 29860 N 2848.3 1.29191 0.902633 0
M  V30 29861 C 2849.54 1.17165 1.6553 0
M  V30 29862 C 2849.88 -0.276846 1.92217 0
M  V30 29863 O 2849.15 -1.20025 1.5305 0
M  V30 29864 C 2849.44 1.98233 3.00626 0
M  V30 29865 C 2849.29 3.51207 2.81023 0
M  V30 29866 C 2850.61 1.80642 4.01318 0
M  V30 29867 H 2847.73 0.426996 0.600703 0
M  V30 29868 H 2850.37 1.58631 1.04576 0
M  V30 29869 H 2848.52 1.62997 3.52653 0
M  V30 29870 H 2850.19 3.96408 2.3592 0
M  V30 29871 H 2848.43 3.76279 2.15863 0
M  V30 29872 H 2849.1 4.03199 3.77007 0
M  V30 29873 H 2851.58 2.11413 3.58391 0
M  V30 29874 H 2850.46 2.39719 4.93788 0
M  V30 29875 H 2850.72 0.760831 4.35504 0
M  V30 29876 N 2849.78 -1.1126 1.1162 0
M  V30 29877 C 2851 -1.86838 0.888772 0
M  V30 29878 C 2851.42 -1.80256 -0.561527 0
M  V30 29879 O 2850.78 -1.18517 -1.3878 0
M  V30 29880 C 2850.83 -3.35576 1.34427 0
M  V30 29881 O 2850.55 -3.42024 2.73772 0
M  V30 29882 C 2852.05 -4.28055 1.15254 0
M  V30 29883 H 2849.27 -0.590774 0.318163 0
M  V30 29884 H 2851.81 -1.40704 1.484 0
M  V30 29885 H 2849.97 -3.79208 0.792457 0
M  V30 29886 H 2850.38 -4.34654 2.93558 0
M  V30 29887 H 2851.86 -5.30653 1.52024 0
M  V30 29888 H 2852.33 -4.39103 0.0922779 0
M  V30 29889 H 2852.94 -3.90219 1.69143 0
M  V30 29890 N 2851.25 -0.906798 -1.28899 0
M  V30 29891 C 2852.5 -0.535301 -1.94882 0
M  V30 29892 C 2852.82 0.922761 -1.71785 0
M  V30 29893 O 2852.09 1.65154 -1.05361 0
M  V30 29894 H 2850.67 -0.194974 -0.721106 0
M  V30 29895 H 2853.34 -1.15464 -1.57016 0
M  V30 29896 H 2852.43 -0.723875 -3.03589 0
M  V30 29897 N 2852.73 1.42648 -0.670032 0
M  V30 29898 C 2853.96 2.06462 -0.196991 0
M  V30 29899 C 2854.38 1.49985 1.13517 0
M  V30 29900 O 2853.74 0.616427 1.70499 0
M  V30 29901 C 2853.79 3.60338 -0.137444 0
M  V30 29902 O 2852.89 4.02561 0.895452 0
M  V30 29903 H 2852.23 0.656027 -0.10259 0
M  V30 29904 H 2854.76 1.82864 -0.917701 0
M  V30 29905 H 2854.77 4.0798 0.0402908 0
M  V30 29906 H 2853.45 4.00818 -1.10984 0
M  V30 29907 H 2852.03 3.66477 0.689145 0
M  V30 29908 N 2854.21 0.413044 1.52091 0
M  V30 29909 C 2855.17 -0.398647 2.25707 0
M  V30 29910 C 2856.17 -0.970346 1.28222 0
M  V30 29911 O 2857.36 -0.848609 1.52132 0
M  V30 29912 C 2854.5 -1.56155 3.03032 0
M  V30 29913 H 2855.69 0.246183 2.98888 0
M  V30 29914 H 2853.24 0.165649 1.5542 0
M  V30 29915 H 2853.98 -2.24313 2.34209 0
M  V30 29916 H 2853.76 -1.15806 3.74608 0
M  V30 29917 H 2855.25 -2.13563 3.5886 0
M  V30 29918 N 2855.69 -1.56945 0.143591 0
M  V30 29919 C 2856.94 -1.96305 -0.509125 0
M  V30 29920 C 2857.27 -1.02833 -1.64739 0
M  V30 29921 O 2856.54 -0.0700702 -1.94374 0
M  V30 29922 C 2856.83 -3.45395 -1.01854 0
M  V30 29923 C 2856.68 -4.49645 0.118002 0
M  V30 29924 C 2858 -3.96904 -1.90144 0
M  V30 29925 H 2855.12 -0.713766 -0.183595 0
M  V30 29926 H 2857.76 -1.88673 0.224128 0
M  V30 29927 H 2855.91 -3.5203 -1.64339 0
M  V30 29928 H 2857.58 -4.55092 0.754225 0
M  V30 29929 H 2855.82 -4.26773 0.777643 0
M  V30 29930 H 2856.5 -5.51289 -0.28009 0
M  V30 29931 H 2858.97 -3.92727 -1.37493 0
M  V30 29932 H 2857.85 -5.01694 -2.22698 0
M  V30 29933 H 2858.11 -3.39057 -2.83712 0
M  V30 29934 N 2857.17 0.130197 -1.57061 0
M  V30 29935 C 2858.42 0.83828 -1.83895 0
M  V30 29936 C 2858.74 1.80938 -0.727078 0
M  V30 29937 O 2858.01 1.943 0.249893 0
M  V30 29938 H 2856.59 0.312561 -0.678465 0
M  V30 29939 H 2859.25 0.120189 -1.94529 0
M  V30 29940 H 2858.34 1.39033 -2.79421 0
M  V30 29941 N 2858.65 1.52438 0.400055 0
M  V30 29942 C 2859.89 1.68624 1.15523 0
M  V30 29943 C 2860.25 0.411777 1.87532 0
M  V30 29944 O 2861.45 0.44985 2.65009 0
M  V30 29945 C 2859.72 2.88019 2.11613 0
M  V30 29946 S 2861.28 3.24734 2.95115 0
M  V30 29947 H 2858.1 0.59369 0.39122 0
M  V30 29948 H 2860.7 1.90456 0.441222 0
M  V30 29949 H 2859.4 3.79011 1.57414 0
M  V30 29950 H 2858.94 2.68486 2.87539 0
M  V30 29951 H 2860.95 2.74062 4.13648 0
M  V30 29952 N 2860.12 -0.657839 1.43214 0
M  V30 29953 C 2861.4 -1.41481 1.35065 0
M  V30 29954 C 2861.78 -2.111 -0.00379429 0
M  V30 29955 O 2861.13 -2.04463 -1.02015 0
M  V30 29956 C 2861.34 -2.40331 2.53065 0
M  V30 29957 C 2862.69 -3.04469 2.95945 0
M  V30 29958 O 2863.71 -2.50658 2.53079 0
M  V30 29959 O 2862.57 -4.02021 3.70191 0
M  V30 29960 H 2859.66 -0.631883 0.533528 0
M  V30 29961 H 2862.21 -0.685135 1.55255 0
M  V30 29962 H 2860.98 -1.87803 3.43287 0
M  V30 29963 H 2860.6 -3.20755 2.34951 0
M  V30 29964 N 2861.6 -1.29668 -0.895769 0
M  V30 29965 C 2863.01 -1.16122 -1.46193 0
M  V30 29966 C 2863.36 0.242161 -1.947 0
M  V30 29967 O 2862.49 1.13799 -1.84062 0
M  V30 29968 C 2863.08 -2.10193 -2.65715 0
M  V30 29969 C 2861.64 -2.00658 -3.18454 0
M  V30 29970 C 2860.79 -2.00894 -1.91146 0
M  V30 29971 H 2863.74 -1.42095 -0.706731 0
M  V30 29972 H 2863.76 -1.67646 -3.41578 0
M  V30 29973 H 2863.27 -3.12325 -2.3038 0
M  V30 29974 H 2861.37 -1.0163 -3.58472 0
M  V30 29975 H 2861.49 -2.88516 -3.82486 0
M  V30 29976 H 2859.85 -1.45546 -2.09018 0
M  V30 29977 H 2860.63 -3.04737 -1.58083 0
M  V30 29978 N 2863.08 1.10667 -1.12208 0
M  V30 29979 C 2864.36 1.79051 -0.787414 0
M  V30 29980 C 2864.74 1.98324 0.723232 0
M  V30 29981 O 2864.08 1.57437 1.65607 0
M  V30 29982 C 2864.29 3.12207 -1.55974 0
M  V30 29983 C 2865.64 3.87121 -1.74419 0
M  V30 29984 O 2866.67 3.2192 -1.52465 0
M  V30 29985 O 2865.53 5.04141 -2.10961 0
M  V30 29986 H 2862.62 0.775917 -0.28615 0
M  V30 29987 H 2865.17 1.17337 -1.22597 0
M  V30 29988 H 2863.94 2.93583 -2.58698 0
M  V30 29989 H 2863.56 3.81638 -1.11527 0
M  V30 29990 N 2864.56 0.913621 1.28416 0
M  V30 29991 C 2865.49 0.418888 2.29712 0
M  V30 29992 C 2866.47 -0.51344 1.62166 0
M  V30 29993 O 2867.65 -0.421202 1.89577 0
M  V30 29994 C 2864.78 -0.341981 3.45612 0
M  V30 29995 C 2863.74 0.501198 4.25055 0
M  V30 29996 C 2863.06 -0.388003 5.3329 0
M  V30 29997 C 2864.36 1.75839 4.91811 0
M  V30 29998 H 2866.06 1.26543 2.71344 0
M  V30 29999 H 2863.6 0.609926 1.30445 0
M  V30 30000 H 2865.56 -0.698927 4.15563 0
M  V30 30001 H 2864.28 -1.22242 3.0286 0
M  V30 30002 H 2862.94 0.840661 3.56831 0
M  V30 30003 H 2862.59 -1.26699 4.86782 0
M  V30 30004 H 2862.29 0.172563 5.87347 0
M  V30 30005 H 2863.81 -0.740833 6.06089 0
M  V30 30006 H 2865.23 1.47036 5.54124 0
M  V30 30007 H 2863.62 2.26136 5.55862 0
M  V30 30008 H 2864.69 2.48627 4.16308 0
M  V30 30009 N 2866.04 -1.4229 0.677588 0
M  V30 30010 C 2867.28 -2.015 0.20101 0
M  V30 30011 C 2867.61 -1.53585 -1.19339 0
M  V30 30012 O 2866.87 -0.729932 -1.81578 0
M  V30 30013 C 2867.16 -3.56909 0.187292 0
M  V30 30014 C 2866.83 -4.24266 1.52674 0
M  V30 30015 C 2865.49 -4.4238 1.89349 0
M  V30 30016 C 2867.84 -4.62199 2.40877 0
M  V30 30017 C 2865.17 -4.957 3.13845 0
M  V30 30018 C 2867.52 -5.169 3.64688 0
M  V30 30019 C 2866.19 -5.33227 4.01528 0
M  V30 30020 H 2865.46 -0.73734 0.0735548 0
M  V30 30021 H 2868.11 -1.70437 0.873125 0
M  V30 30022 H 2866.41 -3.87656 -0.568339 0
M  V30 30023 H 2868.11 -4.00507 -0.198703 0
M  V30 30024 H 2864.7 -4.10528 1.23145 0
M  V30 30025 H 2868.88 -4.47874 2.13828 0
M  V30 30026 H 2864.14 -5.06526 3.42405 0
M  V30 30027 H 2868.31 -5.45235 4.33234 0
M  V30 30028 H 2865.94 -5.74307 4.98072 0
M  V30 30029 N 2867.51 -0.421104 -1.5187 0
M  V30 30030 C 2868.76 0.14331 -2.02895 0
M  V30 30031 C 2869.11 1.41785 -1.30057 0
M  V30 30032 O 2868.41 1.87339 -0.401809 0
M  V30 30033 C 2868.6 0.433229 -3.54765 0
M  V30 30034 C 2868.43 -0.811662 -4.42315 0
M  V30 30035 C 2867.2 -1.34041 -4.87197 0
M  V30 30036 C 2869.4 -1.69321 -4.85628 0
M  V30 30037 N 2867.38 -2.53954 -5.5891 0
M  V30 30038 C 2868.75 -2.73849 -5.56243 0
M  V30 30039 C 2870.81 -1.70955 -4.67631 0
M  V30 30040 C 2869.51 -3.79937 -6.1077 0
M  V30 30041 C 2871.54 -2.75969 -5.23063 0
M  V30 30042 C 2870.9 -3.79217 -5.93611 0
M  V30 30043 H 2867 0.0136966 -0.78188 0
M  V30 30044 H 2869.58 -0.578138 -1.85918 0
M  V30 30045 H 2867.75 1.12372 -3.71789 0
M  V30 30046 H 2869.48 0.987575 -3.92465 0
M  V30 30047 H 2866.24 -0.896688 -4.65034 0
M  V30 30048 H 2866.66 -3.14715 -5.99403 0
M  V30 30049 H 2871.3 -0.924673 -4.12565 0
M  V30 30050 H 2869.02 -4.59274 -6.64901 0
M  V30 30051 H 2872.61 -2.78156 -5.11 0
M  V30 30052 H 2871.49 -4.59141 -6.35735 0
M  V30 30053 N 2868.99 1.56866 -0.151912 0
M  V30 30054 C 2870.22 2.01082 0.508009 0
M  V30 30055 C 2870.64 1.03136 1.57304 0
M  V30 30056 O 2870 0.00786277 1.81298 0
M  V30 30057 C 2870.05 3.44016 1.081 0
M  V30 30058 O 2869.15 3.49088 2.19571 0
M  V30 30059 H 2868.49 0.652367 0.123745 0
M  V30 30060 H 2871.02 2.03066 -0.250091 0
M  V30 30061 H 2871.03 3.82919 1.40844 0
M  V30 30062 H 2869.71 4.14809 0.301095 0
M  V30 30063 H 2868.29 3.22031 1.88017 0
M  V30 30064 N 2870.47 -0.121866 1.57128 0
M  V30 30065 C 2871.42 -1.14961 2.00132 0
M  V30 30066 C 2872.39 -1.41309 0.872983 0
M  V30 30067 O 2873.57 -1.53223 1.13699 0
M  V30 30068 C 2870.71 -2.47175 2.40829 0
M  V30 30069 C 2869.83 -2.27787 3.67065 0
M  V30 30070 C 2868.96 -3.53212 3.96755 0
M  V30 30071 C 2868 -3.28969 5.16184 0
M  V30 30072 N 2867.14 -4.46589 5.41758 0
M  V30 30073 H 2871.98 -0.775896 2.87722 0
M  V30 30074 H 2869.51 -0.371627 1.42328 0
M  V30 30075 H 2871.47 -3.243 2.6246 0
M  V30 30076 H 2870.1 -2.82445 1.56284 0
M  V30 30077 H 2869.15 -1.41594 3.53066 0
M  V30 30078 H 2870.47 -2.05849 4.54343 0
M  V30 30079 H 2869.62 -4.38756 4.1902 0
M  V30 30080 H 2868.36 -3.78179 3.07947 0
M  V30 30081 H 2867.36 -2.41815 4.93766 0
M  V30 30082 H 2868.59 -3.05375 6.06566 0
M  V30 30083 H 2866.53 -4.71683 4.55907 0
M  V30 30084 H 2866.45 -4.27745 6.23354 0
M  V30 30085 H 2867.72 -5.33275 5.6854 0
M  V30 30086 N 2871.95 -1.52648 -0.391965 0
M  V30 30087 C 2873.2 -1.66772 -1.13446 0
M  V30 30088 C 2873.51 -0.412432 -1.91202 0
M  V30 30089 O 2874.72 -0.433754 -2.68013 0
M  V30 30090 C 2873.17 -2.94713 -2.06572 0
M  V30 30091 C 2872.78 -4.27411 -1.34252 0
M  V30 30092 C 2874.52 -3.18203 -2.80975 0
M  V30 30093 C 2872.43 -5.46462 -2.26126 0
M  V30 30094 H 2871.36 -0.621302 -0.4272 0
M  V30 30095 H 2874.01 -1.79143 -0.39749 0
M  V30 30096 H 2872.39 -2.76081 -2.83893 0
M  V30 30097 H 2873.57 -4.56586 -0.621776 0
M  V30 30098 H 2871.88 -4.10159 -0.718206 0
M  V30 30099 H 2874.48 -4.04327 -3.49891 0
M  V30 30100 H 2874.82 -2.3315 -3.44887 0
M  V30 30101 H 2875.36 -3.37387 -2.10748 0
M  V30 30102 H 2872.1 -6.33914 -1.66835 0
M  V30 30103 H 2871.62 -5.21603 -2.96125 0
M  V30 30104 H 2873.29 -5.8022 -2.86276 0
M  V30 30105 N 2873.43 0.650235 -1.43561 0
M  V30 30106 C 2874.84 1.23148 -1.40326 0
M  V30 30107 C 2875.19 1.95898 -0.108847 0
M  V30 30108 O 2874.31 2.01402 0.791595 0
M  V30 30109 C 2874.91 2.23982 -2.54199 0
M  V30 30110 C 2873.47 2.77577 -2.5422 0
M  V30 30111 C 2872.61 1.52266 -2.31755 0
M  V30 30112 H 2875.57 0.442069 -1.52419 0
M  V30 30113 H 2875.59 3.06216 -2.25859 0
M  V30 30114 H 2875.1 1.71005 -3.48395 0
M  V30 30115 H 2873.2 3.34609 -1.63913 0
M  V30 30116 H 2873.31 3.24919 -3.52086 0
M  V30 30117 H 2871.68 1.7972 -1.80479 0
M  V30 30118 H 2872.46 1.01219 -3.28039 0
M  V30 30119 N 2874.9 1.30141 0.88888 0
M  V30 30120 C 2876.15 1.18915 1.64278 0
M  V30 30121 C 2876.48 -0.256443 1.92499 0
M  V30 30122 O 2875.76 -1.18395 1.54314 0
M  V30 30123 C 2876.04 2.0141 2.98506 0
M  V30 30124 C 2875.89 3.54168 2.77282 0
M  V30 30125 C 2877.21 1.84889 3.9938 0
M  V30 30126 H 2874.33 0.433343 0.59614 0
M  V30 30127 H 2876.97 1.59732 1.02887 0
M  V30 30128 H 2875.12 1.66729 3.50904 0
M  V30 30129 H 2876.8 3.98888 2.31702 0
M  V30 30130 H 2875.04 3.78547 2.1186 0
M  V30 30131 H 2875.71 4.07175 3.7271 0
M  V30 30132 H 2878.19 2.15202 3.56128 0
M  V30 30133 H 2877.06 2.44943 4.91217 0
M  V30 30134 H 2877.32 0.806979 4.34673 0
M  V30 30135 N 2876.38 -1.1007 1.12794 0
M  V30 30136 C 2877.32 -2.15767 0.742959 0
M  V30 30137 C 2878.29 -1.60381 -0.267686 0
M  V30 30138 O 2879.48 -1.87813 -0.160749 0
M  V30 30139 C 2876.6 -3.38551 0.100303 0
M  V30 30140 C 2875.65 -4.12642 1.07838 0
M  V30 30141 S 2876.48 -4.67715 2.60773 0
M  V30 30142 C 2877.64 -5.93807 1.97849 0
M  V30 30143 H 2877.87 -2.48089 1.63826 0
M  V30 30144 H 2875.41 -1.21916 0.947407 0
M  V30 30145 H 2877.36 -4.0965 -0.264103 0
M  V30 30146 H 2876.02 -3.04461 -0.772169 0
M  V30 30147 H 2875.22 -5.00693 0.576413 0
M  V30 30148 H 2874.82 -3.47373 1.38592 0
M  V30 30149 H 2877.11 -6.64446 1.32352 0
M  V30 30150 H 2878.05 -6.48672 2.83955 0
M  V30 30151 H 2878.46 -5.46015 1.43276 0
M  V30 30152 N 2877.86 -0.920419 -1.2793 0
M  V30 30153 C 2878.79 -0.431064 -2.29487 0
M  V30 30154 C 2879.77 0.504833 -1.62436 0
M  V30 30155 O 2880.96 0.411142 -1.89798 0
M  V30 30156 C 2878.09 0.323648 -3.45789 0
M  V30 30157 C 2877.04 -0.523732 -4.24784 0
M  V30 30158 C 2876.37 0.359716 -5.33489 0
M  V30 30159 C 2877.67 -1.78445 -4.90871 0
M  V30 30160 H 2879.36 -1.2798 -2.70669 0
M  V30 30161 H 2876.91 -0.616836 -1.3012 0
M  V30 30162 H 2878.86 0.676879 -4.15928 0
M  V30 30163 H 2877.58 1.20634 -3.03504 0
M  V30 30164 H 2876.24 -0.859572 -3.5638 0
M  V30 30165 H 2875.89 1.24115 -4.87447 0
M  V30 30166 H 2875.59 -0.203709 -5.87247 0
M  V30 30167 H 2877.11 0.708681 -6.06473 0
M  V30 30168 H 2878.53 -1.49973 -5.53336 0
M  V30 30169 H 2876.93 -2.2908 -5.54655 0
M  V30 30170 H 2878 -2.50831 -4.14984 0
M  V30 30171 N 2879.34 1.41929 -0.685124 0
M  V30 30172 C 2880.62 1.95097 -0.140186 0
M  V30 30173 C 2881 1.62505 1.34742 0
M  V30 30174 O 2880.34 0.926571 2.08871 0
M  V30 30175 C 2880.55 3.4646 -0.420329 0
M  V30 30176 C 2881.9 4.23217 -0.342412 0
M  V30 30177 O 2882.93 3.5443 -0.354654 0
M  V30 30178 O 2881.78 5.45711 -0.2935 0
M  V30 30179 H 2878.88 0.826952 -0.00887452 0
M  V30 30180 H 2881.42 1.51702 -0.760566 0
M  V30 30181 H 2880.2 3.63425 -1.45043 0
M  V30 30182 H 2879.82 3.96925 0.231546 0
M  V30 30183 N 2880.82 0.429152 1.51644 0
M  V30 30184 C 2882.06 -0.139767 2.01616 0
M  V30 30185 C 2882.39 -1.43925 1.3157 0
M  V30 30186 O 2881.66 -1.90715 0.447722 0
M  V30 30187 H 2880.24 -0.0546409 0.744999 0
M  V30 30188 H 2882.9 0.569984 1.86379 0
M  V30 30189 H 2881.99 -0.321555 3.10439 0
M  V30 30190 N 2882.29 -1.56783 0.160229 0
M  V30 30191 C 2883.24 -2.14008 -0.786423 0
M  V30 30192 C 2884.23 -1.07136 -1.20044 0
M  V30 30193 O 2885.42 -1.33285 -1.16466 0
M  V30 30194 C 2882.55 -2.77566 -2.02019 0
M  V30 30195 C 2881.64 -3.9158 -1.62867 0
M  V30 30196 N 2882.03 -4.96873 -0.946088 0
M  V30 30197 C 2880.32 -4.02534 -1.92047 0
M  V30 30198 C 2881.03 -5.7678 -0.754983 0
M  V30 30199 N 2880 -5.27999 -1.29298 0
M  V30 30200 H 2883.8 -2.92784 -0.255828 0
M  V30 30201 H 2881.32 -1.62349 -0.0408493 0
M  V30 30202 H 2883.31 -3.16933 -2.70849 0
M  V30 30203 H 2881.97 -2.00267 -2.55584 0
M  V30 30204 H 2882.99 -5.1435 -0.605365 0
M  V30 30205 H 2879.66 -3.36326 -2.47368 0
M  V30 30206 H 2881.05 -6.71553 -0.21602 0
M  V30 30207 N 2883.77 0.113531 -1.57191 0
M  V30 30208 C 2884.7 1.1401 -2.03774 0
M  V30 30209 C 2885.68 1.42867 -0.923201 0
M  V30 30210 O 2886.87 1.53214 -1.19327 0
M  V30 30211 C 2884 2.46486 -2.44667 0
M  V30 30212 C 2882.95 2.32078 -3.59616 0
M  V30 30213 C 2882.28 3.69566 -3.86426 0
M  V30 30214 C 2883.58 1.77672 -4.91152 0
M  V30 30215 H 2885.27 0.752615 -2.89786 0
M  V30 30216 H 2882.82 0.360585 -1.39412 0
M  V30 30217 H 2884.77 3.18556 -2.75862 0
M  V30 30218 H 2883.5 2.87134 -1.55633 0
M  V30 30219 H 2882.16 1.62456 -3.28639 0
M  V30 30220 H 2881.8 4.07709 -2.94588 0
M  V30 30221 H 2881.5 3.60778 -4.63803 0
M  V30 30222 H 2883.03 4.43133 -4.20078 0
M  V30 30223 H 2884.44 2.39565 -5.20847 0
M  V30 30224 H 2882.84 1.79691 -5.72566 0
M  V30 30225 H 2883.91 0.734692 -4.79302 0
M  V30 30226 N 2885.25 1.52854 0.383864 0
M  V30 30227 C 2886.5 1.67371 1.1256 0
M  V30 30228 C 2886.81 0.422567 1.90981 0
M  V30 30229 O 2888.02 0.447961 2.67779 0
M  V30 30230 C 2886.48 2.95805 2.05006 0
M  V30 30231 C 2886.08 4.28117 1.31984 0
M  V30 30232 C 2887.83 3.19689 2.79284 0
M  V30 30233 C 2885.73 5.47654 2.23225 0
M  V30 30234 H 2884.66 0.623559 0.423899 0
M  V30 30235 H 2887.32 1.79351 0.387984 0
M  V30 30236 H 2885.7 2.77583 2.82425 0
M  V30 30237 H 2886.87 4.56909 0.597553 0
M  V30 30238 H 2885.19 4.10535 0.696445 0
M  V30 30239 H 2887.78 4.06177 3.47742 0
M  V30 30240 H 2888.13 2.34976 3.43645 0
M  V30 30241 H 2888.66 3.385 2.08956 0
M  V30 30242 H 2885.4 6.34789 1.63471 0
M  V30 30243 H 2884.92 5.23166 2.93355 0
M  V30 30244 H 2886.6 5.8173 2.83195 0
M  V30 30245 N 2886.73 -0.642612 1.43904 0
M  V30 30246 C 2887.69 -1.73696 1.49541 0
M  V30 30247 C 2888.69 -1.56275 0.378803 0
M  V30 30248 O 2889.88 -1.61979 0.640978 0
M  V30 30249 C 2887.01 -3.12672 1.35826 0
M  V30 30250 H 2888.21 -1.70075 2.47011 0
M  V30 30251 H 2885.76 -0.855237 1.30826 0
M  V30 30252 H 2886.5 -3.21897 0.394051 0
M  V30 30253 H 2886.28 -3.26723 2.16782 0
M  V30 30254 H 2887.77 -3.92452 1.42727 0
M  V30 30255 N 2888.21 -1.30611 -0.881966 0
M  V30 30256 C 2889.45 -1.19607 -1.63403 0
M  V30 30257 C 2889.78 0.24854 -1.92905 0
M  V30 30258 O 2889.04 1.19388 -1.55064 0
M  V30 30259 C 2889.34 -1.97316 -2.97995 0
M  V30 30260 C 2889 -3.46912 -2.88033 0
M  V30 30261 C 2887.66 -3.87705 -2.85023 0
M  V30 30262 C 2890.02 -4.42161 -2.7594 0
M  V30 30263 C 2887.34 -5.22035 -2.67762 0
M  V30 30264 C 2889.7 -5.76602 -2.60218 0
M  V30 30265 C 2888.36 -6.1663 -2.55584 0
M  V30 30266 H 2887.63 -0.437672 -0.597933 0
M  V30 30267 H 2890.28 -1.61746 -1.02521 0
M  V30 30268 H 2888.58 -1.47821 -3.62845 0
M  V30 30269 H 2890.28 -1.86192 -3.55153 0
M  V30 30270 H 2886.87 -3.14497 -2.91187 0
M  V30 30271 H 2891.05 -4.11585 -2.77329 0
M  V30 30272 H 2886.31 -5.52137 -2.62592 0
M  V30 30273 H 2890.48 -6.50043 -2.49835 0
M  V30 30274 H 2888.11 -7.20663 -2.41968 0
M  V30 30275 N 2889.69 1.0947 -1.13376 0
M  V30 30276 C 2890.96 1.78205 -0.80636 0
M  V30 30277 C 2891.34 1.9908 0.702156 0
M  V30 30278 O 2890.69 1.59185 1.63928 0
M  V30 30279 C 2890.9 3.10535 -1.59276 0
M  V30 30280 C 2892.25 3.8525 -1.78516 0
M  V30 30281 O 2893.27 3.20285 -1.55871 0
M  V30 30282 O 2892.13 5.01875 -2.16296 0
M  V30 30283 H 2889.23 0.772838 -0.294364 0
M  V30 30284 H 2891.77 1.16031 -1.23835 0
M  V30 30285 H 2890.54 2.90823 -2.61797 0
M  V30 30286 H 2890.17 3.80434 -1.15568 0
M  V30 30287 N 2891.16 0.92719 1.2744 0
M  V30 30288 C 2892.39 0.58281 1.98209 0
M  V30 30289 C 2892.8 -0.843376 1.69363 0
M  V30 30290 O 2892.14 -1.57203 0.950408 0
M  V30 30291 C 2892.21 0.728227 3.52047 0
M  V30 30292 C 2891.87 2.12644 4.04514 0
M  V30 30293 C 2892.87 3.10056 4.17327 0
M  V30 30294 C 2890.55 2.44325 4.38874 0
M  V30 30295 C 2892.55 4.37257 4.63773 0
M  V30 30296 C 2890.23 3.71762 4.85012 0
M  V30 30297 C 2891.23 4.68041 4.9742 0
M  V30 30298 O 2890.92 5.93211 5.42546 0
M  V30 30299 H 2890.65 0.219679 0.63931 0
M  V30 30300 H 2893.21 1.24628 1.63269 0
M  V30 30301 H 2891.44 0.00764941 3.86699 0
M  V30 30302 H 2893.12 0.388977 4.04032 0
M  V30 30303 H 2893.89 2.86901 3.91041 0
M  V30 30304 H 2889.77 1.70128 4.28459 0
M  V30 30305 H 2893.31 5.1241 4.73373 0
M  V30 30306 H 2889.21 3.94735 5.10739 0
M  V30 30307 H 2889.98 5.96192 5.608 0
M  V30 30308 N 2892.64 -1.41564 0.692641 0
M  V30 30309 C 2893.87 -2.06123 0.229813 0
M  V30 30310 C 2894.29 -1.51772 -1.11117 0
M  V30 30311 O 2893.65 -0.643474 -1.69497 0
M  V30 30312 C 2893.7 -3.60074 0.194753 0
M  V30 30313 O 2892.8 -4.03935 -0.831295 0
M  V30 30314 H 2892.14 -0.654312 0.113014 0
M  V30 30315 H 2894.67 -1.81381 0.946677 0
M  V30 30316 H 2894.68 -4.07993 0.0246204 0
M  V30 30317 H 2893.36 -3.99002 1.17346 0
M  V30 30318 H 2891.93 -3.67527 -0.630754 0
M  V30 30319 N 2894.12 -0.437188 -1.51415 0
M  V30 30320 C 2895.37 0.129073 -2.01687 0
M  V30 30321 C 2895.69 1.43225 -1.32332 0
M  V30 30322 O 2894.96 1.90475 -0.457829 0
M  V30 30323 H 2893.54 0.0506892 -0.745278 0
M  V30 30324 H 2896.2 -0.579861 -1.86074 0
M  V30 30325 H 2895.3 0.305087 -3.10605 0
M  V30 30326 N 2895.6 1.56696 -0.168541 0
M  V30 30327 C 2896.83 2.0088 0.482767 0
M  V30 30328 C 2897.24 1.04782 1.57535 0
M  V30 30329 O 2896.58 0.0403069 1.83656 0
M  V30 30330 C 2896.64 3.41492 1.12354 0
M  V30 30331 C 2896.3 4.56673 0.172946 0
M  V30 30332 C 2897.3 5.16337 -0.607656 0
M  V30 30333 C 2894.99 5.02252 0.0695809 0
M  V30 30334 C 2896.98 6.20007 -1.47885 0
M  V30 30335 C 2894.67 6.05772 -0.805203 0
M  V30 30336 C 2895.67 6.64521 -1.57801 0
M  V30 30337 O 2895.35 7.66034 -2.43818 0
M  V30 30338 H 2895.09 0.663726 0.128235 0
M  V30 30339 H 2897.64 2.03663 -0.266568 0
M  V30 30340 H 2895.87 3.35614 1.92094 0
M  V30 30341 H 2897.56 3.69648 1.67676 0
M  V30 30342 H 2898.32 4.82007 -0.537954 0
M  V30 30343 H 2894.2 4.56238 0.660877 0
M  V30 30344 H 2897.75 6.65791 -2.08251 0
M  V30 30345 H 2893.64 6.39527 -0.876117 0
M  V30 30346 H 2894.41 7.83345 -2.37303 0
M  V30 30347 N 2897.08 -0.105193 1.57249 0
M  V30 30348 C 2898.35 -0.841616 1.76568 0
M  V30 30349 C 2898.73 -1.97419 0.7476 0
M  V30 30350 O 2898.08 -2.27381 -0.225846 0
M  V30 30351 C 2898.29 -1.34555 3.22019 0
M  V30 30352 C 2899.64 -1.79238 3.84914 0
M  V30 30353 O 2900.66 -1.44202 3.25706 0
M  V30 30354 O 2899.52 -2.43986 4.89012 0
M  V30 30355 H 2896.62 -0.400685 0.72345 0
M  V30 30356 H 2899.16 -0.0878595 1.69472 0
M  V30 30357 H 2897.93 -0.533617 3.87644 0
M  V30 30358 H 2897.56 -2.16161 3.33707 0
M  V30 30359 N 2898.55 -1.53055 -0.375752 0
M  V30 30360 C 2899.52 -1.78113 -1.44251 0
M  V30 30361 C 2900.52 -0.651354 -1.47017 0
M  V30 30362 O 2901.71 -0.919498 -1.47956 0
M  V30 30363 C 2898.84 -1.89396 -2.83447 0
M  V30 30364 H 2900.03 -2.73376 -1.23311 0
M  V30 30365 H 2897.59 -1.43978 -0.608287 0
M  V30 30366 H 2898.32 -0.961643 -3.09714 0
M  V30 30367 H 2898.11 -2.7156 -2.82839 0
M  V30 30368 H 2899.6 -2.1041 -3.60718 0
M  V30 30369 N 2900.03 0.634971 -1.44242 0
M  V30 30370 C 2901.26 1.42684 -1.50519 0
M  V30 30371 C 2901.68 1.87651 -0.129897 0
M  V30 30372 O 2901.04 1.58503 0.880136 0
M  V30 30373 C 2901.09 2.62587 -2.47145 0
M  V30 30374 O 2900.19 3.62288 -1.97032 0
M  V30 30375 H 2899.53 0.427092 -0.508418 0
M  V30 30376 H 2902.06 0.775374 -1.89339 0
M  V30 30377 H 2902.07 3.10178 -2.65054 0
M  V30 30378 H 2900.75 2.29203 -3.47043 0
M  V30 30379 H 2899.33 3.21531 -1.88871 0
M  V30 30380 N 2901.51 1.31076 0.875027 0
M  V30 30381 C 2902.44 1.20885 1.99773 0
M  V30 30382 C 2903.42 0.0971911 1.69822 0
M  V30 30383 O 2904.61 0.280929 1.92157 0
M  V30 30384 C 2901.74 0.910176 3.35161 0
M  V30 30385 C 2900.69 1.98085 3.79403 0
M  V30 30386 C 2900.02 1.53497 5.12194 0
M  V30 30387 C 2901.32 3.3933 3.97055 0
M  V30 30388 H 2903.01 2.14812 2.08558 0
M  V30 30389 H 2900.56 1.03416 1.00205 0
M  V30 30390 H 2902.51 0.825496 4.13235 0
M  V30 30391 H 2901.23 -0.0647647 3.26536 0
M  V30 30392 H 2899.89 2.05534 3.03565 0
M  V30 30393 H 2899.54 0.548029 5.00006 0
M  V30 30394 H 2899.24 2.2512 5.42766 0
M  V30 30395 H 2900.76 1.46427 5.92783 0
M  V30 30396 H 2902.18 3.34584 4.65539 0
M  V30 30397 H 2900.58 4.09126 4.39017 0
M  V30 30398 H 2901.65 3.80488 3.00594 0
M  V30 30399 N 2902.99 -1.08867 1.13955 0
M  V30 30400 C 2904.21 -1.85451 0.928592 0
M  V30 30401 C 2904.64 -1.80838 -0.51761 0
M  V30 30402 O 2904 -1.19003 -1.36777 0
M  V30 30403 C 2904.04 -3.31111 1.4282 0
M  V30 30404 O 2903.15 -4.07755 0.617201 0
M  V30 30405 H 2902.49 -0.574833 0.33236 0
M  V30 30406 H 2905.02 -1.3744 1.51563 0
M  V30 30407 H 2905.03 -3.81957 1.43432 0
M  V30 30408 H 2903.7 -3.33784 2.48115 0
M  V30 30409 H 2902.28 -3.66658 0.67943 0
M  V30 30410 N 2904.47 -0.933936 -1.26946 0
M  V30 30411 C 2905.88 -0.621355 -1.76057 0
M  V30 30412 C 2906.23 0.863491 -1.76177 0
M  V30 30413 O 2905.35 1.67574 -1.36923 0
M  V30 30414 C 2905.95 -1.12117 -3.19711 0
M  V30 30415 C 2904.51 -0.859139 -3.66464 0
M  V30 30416 C 2903.65 -1.27628 -2.46183 0
M  V30 30417 H 2906.61 -1.11303 -1.13125 0
M  V30 30418 H 2906.63 -0.471674 -3.77565 0
M  V30 30419 H 2906.14 -2.20188 -3.19592 0
M  V30 30420 H 2904.24 0.2075 -3.72022 0
M  V30 30421 H 2904.35 -1.48106 -4.55633 0
M  V30 30422 H 2902.72 -0.694771 -2.45041 0
M  V30 30423 H 2903.5 -2.36577 -2.4877 0
M  V30 30424 N 2905.94 1.41194 -0.700139 0
M  V30 30425 C 2907.19 2.01453 -0.233387 0
M  V30 30426 C 2907.52 1.55341 1.16545 0
M  V30 30427 O 2906.8 0.766606 1.78755 0
M  V30 30428 C 2907.08 3.5888 -0.296163 0
M  V30 30429 C 2906.93 4.15105 -1.73227 0
M  V30 30430 C 2908.25 4.38773 0.341448 0
M  V30 30431 H 2905.37 0.731932 -0.0862796 0
M  V30 30432 H 2908.01 1.67881 -0.889723 0
M  V30 30433 H 2906.16 3.87611 0.262667 0
M  V30 30434 H 2907.84 3.97232 -2.3453 0
M  V30 30435 H 2906.08 3.69975 -2.26497 0
M  V30 30436 H 2906.75 5.24266 -1.7277 0
M  V30 30437 H 2909.23 4.15882 -0.134534 0
M  V30 30438 H 2908.1 5.4825 0.267002 0
M  V30 30439 H 2908.36 4.18579 1.42281 0
M  V30 30440 N 2907.42 0.445212 1.51181 0
M  V30 30441 C 2908.67 -0.111013 2.03097 0
M  V30 30442 C 2909.02 -1.39698 1.32296 0
M  V30 30443 O 2908.32 -1.86676 0.431562 0
M  V30 30444 C 2908.51 -0.376735 3.55409 0
M  V30 30445 C 2908.34 0.881928 4.40967 0
M  V30 30446 C 2907.11 1.41775 4.85003 0
M  V30 30447 C 2909.31 1.77026 4.82873 0
M  V30 30448 N 2907.29 2.62813 5.54799 0
M  V30 30449 C 2908.66 2.82664 5.51816 0
M  V30 30450 C 2910.72 1.78373 4.64852 0
M  V30 30451 C 2909.42 3.89606 6.04648 0
M  V30 30452 C 2911.44 2.84256 5.18607 0
M  V30 30453 C 2910.81 3.88613 5.87502 0
M  V30 30454 H 2906.91 -0.00125585 0.781999 0
M  V30 30455 H 2909.49 0.607643 1.84975 0
M  V30 30456 H 2907.66 -1.06443 3.7353 0
M  V30 30457 H 2909.39 -0.925013 3.93987 0
M  V30 30458 H 2906.15 0.970557 4.63548 0
M  V30 30459 H 2906.57 3.24211 5.9432 0
M  V30 30460 H 2911.21 0.990191 4.11041 0
M  V30 30461 H 2908.93 4.69794 6.5751 0
M  V30 30462 H 2912.52 2.8625 5.0651 0
M  V30 30463 H 2911.4 4.69197 6.2835 0
M  V30 30464 N 2908.9 -1.56605 0.176849 0
M  V30 30465 C 2910.15 -1.97049 -0.46668 0
M  V30 30466 C 2910.48 -1.06305 -1.62879 0
M  V30 30467 O 2909.73 -0.0982914 -1.95453 0
M  V30 30468 C 2910.03 -3.43526 -0.986148 0
M  V30 30469 C 2909.7 -4.50859 0.0606459 0
M  V30 30470 C 2908.36 -4.79938 0.348326 0
M  V30 30471 C 2910.71 -5.15468 0.770885 0
M  V30 30472 C 2908.04 -5.70921 1.35154 0
M  V30 30473 C 2910.39 -6.07533 1.76312 0
M  V30 30474 C 2909.05 -6.34976 2.05819 0
M  V30 30475 H 2908.32 -0.721054 -0.17077 0
M  V30 30476 H 2910.97 -1.89587 0.269975 0
M  V30 30477 H 2909.28 -3.47967 -1.80073 0
M  V30 30478 H 2910.97 -3.72164 -1.49316 0
M  V30 30479 H 2907.56 -4.28248 -0.173748 0
M  V30 30480 H 2911.75 -4.93109 0.561847 0
M  V30 30481 H 2907 -5.90464 1.58626 0
M  V30 30482 H 2911.18 -6.56662 2.3188 0
M  V30 30483 H 2908.8 -7.05278 2.83703 0
M  V30 30484 N 2910.38 0.0968524 -1.57302 0
M  V30 30485 C 2911.34 1.10185 -2.00978 0
M  V30 30486 C 2912.34 1.33049 -0.903033 0
M  V30 30487 O 2913.53 1.29192 -1.16855 0
M  V30 30488 C 2910.66 2.45138 -2.36897 0
M  V30 30489 H 2911.86 0.725952 -2.90981 0
M  V30 30490 H 2909.41 0.341845 -1.52516 0
M  V30 30491 H 2910.14 2.87607 -1.49842 0
M  V30 30492 H 2909.93 2.29891 -3.17636 0
M  V30 30493 H 2911.42 3.17425 -2.71351 0
M  V30 30494 N 2911.86 1.53252 0.36763 0
M  V30 30495 C 2913.1 1.71036 1.1192 0
M  V30 30496 C 2913.46 0.451463 1.86617 0
M  V30 30497 O 2914.66 0.505962 2.63995 0
M  V30 30498 C 2912.93 2.92442 2.05456 0
M  V30 30499 S 2914.49 3.30921 2.88161 0
M  V30 30500 H 2911.31 0.601855 0.378539 0
M  V30 30501 H 2913.91 1.91349 0.400724 0
M  V30 30502 H 2912.62 3.82264 1.49339 0
M  V30 30503 H 2912.15 2.74525 2.81779 0
M  V30 30504 H 2914.16 2.82774 4.07742 0
M  V30 30505 N 2913.34 -0.627313 1.44577 0
M  V30 30506 C 2914.27 -1.7502 1.54565 0
M  V30 30507 C 2915.25 -1.65368 0.398407 0
M  V30 30508 O 2916.43 -1.8407 0.619022 0
M  V30 30509 C 2913.56 -3.13564 1.49315 0
M  V30 30510 C 2912.52 -3.38008 2.62555 0
M  V30 30511 C 2911.84 -4.76621 2.42356 0
M  V30 30512 C 2913.14 -3.30195 4.04684 0
M  V30 30513 H 2914.84 -1.66918 2.48553 0
M  V30 30514 H 2912.38 -0.801615 1.19625 0
M  V30 30515 H 2914.33 -3.91897 1.54902 0
M  V30 30516 H 2913.06 -3.22459 0.518449 0
M  V30 30517 H 2911.72 -2.62057 2.56363 0
M  V30 30518 H 2911.37 -4.82224 1.4307 0
M  V30 30519 H 2911.07 -4.93934 3.18282 0
M  V30 30520 H 2912.59 -5.57179 2.49768 0
M  V30 30521 H 2914 -3.98427 4.12224 0
M  V30 30522 H 2912.4 -3.59041 4.80842 0
M  V30 30523 H 2913.47 -2.27941 4.27984 0
M  V30 30524 N 2914.81 -1.31539 -0.868063 0
M  V30 30525 C 2915.76 -1.19349 -1.97546 0
M  V30 30526 C 2916.73 -0.0788214 -1.65913 0
M  V30 30527 O 2917.92 -0.252018 -1.89128 0
M  V30 30528 C 2915.06 -0.90875 -3.3292 0
M  V30 30529 C 2914.17 -2.10693 -3.77137 0
M  V30 30530 C 2913.3 -1.75882 -5.01238 0
M  V30 30531 C 2912.34 -2.92097 -5.37908 0
M  V30 30532 N 2911.48 -2.57468 -6.53188 0
M  V30 30533 H 2916.32 -2.14077 -2.07304 0
M  V30 30534 H 2913.86 -1.06489 -1.01481 0
M  V30 30535 H 2915.81 -0.72421 -4.10866 0
M  V30 30536 H 2914.44 0.00170436 -3.228 0
M  V30 30537 H 2913.5 -2.40218 -2.94956 0
M  V30 30538 H 2914.81 -2.9767 -4.00243 0
M  V30 30539 H 2913.96 -1.53901 -5.86855 0
M  V30 30540 H 2912.7 -0.860995 -4.8004 0
M  V30 30541 H 2911.71 -3.14725 -4.50809 0
M  V30 30542 H 2912.93 -3.82592 -5.61071 0
M  V30 30543 H 2910.88 -1.70211 -6.33533 0
M  V30 30544 H 2910.79 -3.37975 -6.76246 0
M  V30 30545 H 2912.06 -2.38886 -7.41993 0
M  V30 30546 N 2916.29 1.08262 -1.1453 0
M  V30 30547 C 2917.22 2.17228 -0.856394 0
M  V30 30548 C 2918.2 1.69044 0.189221 0
M  V30 30549 O 2919.39 1.94147 0.0455778 0
M  V30 30550 C 2916.52 3.45683 -0.334723 0
M  V30 30551 C 2915.47 4.07267 -1.31595 0
M  V30 30552 C 2914.8 5.30691 -0.653521 0
M  V30 30553 C 2916.1 4.48376 -2.67874 0
M  V30 30554 H 2917.79 2.41654 -1.76759 0
M  V30 30555 H 2915.34 1.16141 -0.851308 0
M  V30 30556 H 2917.29 4.21229 -0.120202 0
M  V30 30557 H 2916.01 3.20816 0.611911 0
M  V30 30558 H 2914.67 3.33755 -1.51667 0
M  V30 30559 H 2914.32 5.02111 0.298966 0
M  V30 30560 H 2914.02 5.72851 -1.30827 0
M  V30 30561 H 2915.55 6.0895 -0.44856 0
M  V30 30562 H 2916.96 5.15092 -2.51701 0
M  V30 30563 H 2915.36 5.01458 -3.29636 0
M  V30 30564 H 2916.43 3.60192 -3.24638 0
M  V30 30565 N 2917.77 0.940655 1.26449 0
M  V30 30566 C 2918.7 0.467519 2.28772 0
M  V30 30567 C 2919.68 -0.478927 1.63219 0
M  V30 30568 O 2920.87 -0.380895 1.90428 0
M  V30 30569 C 2918 -0.268595 3.4626 0
M  V30 30570 C 2916.95 0.591246 4.23897 0
M  V30 30571 C 2916.28 -0.274797 5.33993 0
M  V30 30572 C 2917.58 1.86232 4.8797 0
M  V30 30573 H 2919.27 1.3227 2.68598 0
M  V30 30574 H 2916.82 0.637458 1.29122 0
M  V30 30575 H 2918.77 -0.610623 4.16952 0
M  V30 30576 H 2917.49 -1.15791 3.05385 0
M  V30 30577 H 2916.15 0.916161 3.54968 0
M  V30 30578 H 2915.8 -1.16345 4.8936 0
M  V30 30579 H 2915.5 0.297109 5.86848 0
M  V30 30580 H 2917.02 -0.612106 6.07524 0
M  V30 30581 H 2918.44 1.58757 5.5088 0
M  V30 30582 H 2916.83 2.37875 5.5094 0
M  V30 30583 H 2917.9 2.57402 4.10941 0
M  V30 30584 N 2919.25 -1.40821 0.707617 0
M  V30 30585 C 2920.18 -2.33411 0.0645335 0
M  V30 30586 C 2921.16 -1.52467 -0.754179 0
M  V30 30587 O 2922.34 -1.80962 -0.704717 0
M  V30 30588 C 2919.47 -3.36386 -0.863806 0
M  V30 30589 C 2918.43 -4.27732 -0.151305 0
M  V30 30590 C 2917.75 -5.2118 -1.19482 0
M  V30 30591 C 2919.05 -5.12837 0.989697 0
M  V30 30592 H 2920.75 -2.87437 0.83788 0
M  V30 30593 H 2918.29 -1.38206 0.404371 0
M  V30 30594 H 2920.25 -4.00093 -1.32302 0
M  V30 30595 H 2918.97 -2.80737 -1.66896 0
M  V30 30596 H 2917.63 -3.65467 0.288001 0
M  V30 30597 H 2917.28 -4.6184 -1.99281 0
M  V30 30598 H 2916.98 -5.83135 -0.723021 0
M  V30 30599 H 2918.5 -5.87763 -1.6543 0
M  V30 30600 H 2919.92 -5.70043 0.610215 0
M  V30 30601 H 2918.31 -5.83795 1.38936 0
M  V30 30602 H 2919.38 -4.49288 1.82397 0
M  V30 30603 N 2920.73 -0.453223 -1.50943 0
M  V30 30604 C 2921.64 0.355922 -2.31884 0
M  V30 30605 C 2922.65 1.01285 -1.41483 0
M  V30 30606 O 2923.83 1.00474 -1.74548 0
M  V30 30607 C 2920.89 1.43363 -3.15671 0
M  V30 30608 C 2919.95 0.795179 -4.21871 0
M  V30 30609 C 2919.19 1.82153 -5.01653 0
M  V30 30610 O 2919.41 3.04583 -4.82271 0
M  V30 30611 O 2918.34 1.40325 -5.85314 0
M  V30 30612 H 2922.17 -0.305301 -3.02162 0
M  V30 30613 H 2919.75 -0.215424 -1.47839 0
M  V30 30614 H 2921.64 2.05829 -3.67712 0
M  V30 30615 H 2920.31 2.07865 -2.48141 0
M  V30 30616 H 2919.22 0.13204 -3.73867 0
M  V30 30617 H 2920.55 0.193398 -4.9182 0
M  V30 30618 N 2922.2 1.56509 -0.185151 0
M  V30 30619 C 2923.15 2.18626 0.73969 0
M  V30 30620 C 2924.12 1.13044 1.21698 0
M  V30 30621 O 2925.31 1.41254 1.28266 0
M  V30 30622 C 2922.45 2.84189 1.95782 0
M  V30 30623 C 2921.56 4.0427 1.52282 0
M  V30 30624 C 2920.69 4.57719 2.69568 0
M  V30 30625 C 2919.73 5.70179 2.22626 0
M  V30 30626 N 2918.87 6.18077 3.33054 0
M  V30 30627 H 2923.71 2.97306 0.203216 0
M  V30 30628 H 2921.25 1.46833 0.0885688 0
M  V30 30629 H 2923.2 3.20366 2.67248 0
M  V30 30630 H 2921.83 2.08089 2.46777 0
M  V30 30631 H 2920.89 3.73821 0.704392 0
M  V30 30632 H 2922.2 4.85637 1.13835 0
M  V30 30633 H 2921.35 4.9615 3.49171 0
M  V30 30634 H 2920.09 3.75438 3.11283 0
M  V30 30635 H 2919.1 5.31286 1.41474 0
M  V30 30636 H 2920.32 6.54271 1.81953 0
M  V30 30637 H 2918.27 5.38722 3.74319 0
M  V30 30638 H 2918.18 6.9447 2.98744 0
M  V30 30639 H 2919.45 6.6116 4.12901 0
M  V30 30640 N 2923.68 -0.0885089 1.57351 0
M  V30 30641 C 2924.61 -1.10753 2.05562 0
M  V30 30642 C 2925.59 -1.4138 0.945814 0
M  V30 30643 O 2926.78 -1.51296 1.2175 0
M  V30 30644 C 2923.91 -2.42562 2.48558 0
M  V30 30645 C 2922.86 -2.26328 3.63263 0
M  V30 30646 C 2922.19 -3.63371 3.92257 0
M  V30 30647 C 2923.49 -1.69836 4.93916 0
M  V30 30648 H 2925.18 -0.706417 2.90947 0
M  V30 30649 H 2922.73 -0.33836 1.39968 0
M  V30 30650 H 2924.68 -3.14127 2.80895 0
M  V30 30651 H 2923.4 -2.84622 1.60181 0
M  V30 30652 H 2922.06 -1.57207 3.31182 0
M  V30 30653 H 2921.71 -4.02971 3.01037 0
M  V30 30654 H 2921.41 -3.53353 4.69484 0
M  V30 30655 H 2922.94 -4.36394 4.27075 0
M  V30 30656 H 2924.35 -2.31248 5.24592 0
M  V30 30657 H 2922.75 -1.70559 5.75352 0
M  V30 30658 H 2923.82 -0.658346 4.8041 0
M  V30 30659 N 2925.16 -1.53445 -0.359498 0
M  V30 30660 C 2926.41 -1.69586 -1.09932 0
M  V30 30661 C 2926.73 -0.453404 -1.89656 0
M  V30 30662 O 2926 0.532597 -1.88521 0
M  V30 30663 H 2924.58 -0.625192 -0.408832 0
M  V30 30664 H 2927.24 -1.90653 -0.404637 0
M  V30 30665 H 2926.34 -2.55967 -1.7857 0
M  V30 30666 N 2926.64 0.619637 -1.44908 0
M  V30 30667 C 2927.87 1.40384 -1.51578 0
M  V30 30668 C 2928.28 1.88658 -0.143123 0
M  V30 30669 O 2927.62 1.62147 0.863374 0
M  V30 30670 C 2927.68 2.65062 -2.42862 0
M  V30 30671 C 2927.34 2.38509 -3.89824 0
M  V30 30672 C 2928.34 1.99619 -4.8005 0
M  V30 30673 C 2926.03 2.51793 -4.34633 0
M  V30 30674 C 2928.02 1.74358 -6.13089 0
M  V30 30675 C 2925.71 2.26146 -5.67716 0
M  V30 30676 C 2926.71 1.87489 -6.56763 0
M  V30 30677 O 2926.39 1.62134 -7.8738 0
M  V30 30678 H 2926.13 0.436564 -0.516128 0
M  V30 30679 H 2928.68 0.763925 -1.90666 0
M  V30 30680 H 2926.91 3.31732 -1.98723 0
M  V30 30681 H 2928.6 3.27087 -2.40352 0
M  V30 30682 H 2929.36 1.88902 -4.467 0
M  V30 30683 H 2925.24 2.80851 -3.65573 0
M  V30 30684 H 2928.79 1.4411 -6.82553 0
M  V30 30685 H 2924.68 2.36475 -6.00624 0
M  V30 30686 H 2925.45 1.76286 -7.99291 0
M  V30 30687 N 2928.12 1.31997 0.861075 0
M  V30 30688 C 2929.34 1.25313 1.65261 0
M  V30 30689 C 2929.77 -0.176975 1.87266 0
M  V30 30690 O 2929.12 -1.12617 1.42082 0
M  V30 30691 C 2929.17 2.01155 2.99281 0
M  V30 30692 O 2928.28 1.35497 3.89505 0
M  V30 30693 H 2927.62 0.432201 0.504082 0
M  V30 30694 H 2930.15 1.7421 1.07294 0
M  V30 30695 H 2930.16 2.11087 3.49151 0
M  V30 30696 H 2928.83 3.05153 2.82586 0
M  V30 30697 H 2927.41 1.34073 3.47964 0
M  V30 30698 N 2929.59 -1.07653 1.15103 0
M  V30 30699 C 2930.54 -2.12994 0.813486 0
M  V30 30700 C 2931.53 -1.59641 -0.20087 0
M  V30 30701 O 2932.72 -1.77 -0.00206806 0
M  V30 30702 C 2929.85 -3.41977 0.301138 0
M  V30 30703 C 2928.94 -4.02191 1.34547 0
M  V30 30704 N 2929.33 -4.36706 2.55189 0
M  V30 30705 C 2927.62 -4.29623 1.19749 0
M  V30 30706 C 2928.33 -4.84381 3.22102 0
M  V30 30707 N 2927.3 -4.82963 2.49494 0
M  V30 30708 H 2931.1 -2.37508 1.7311 0
M  V30 30709 H 2928.62 -1.25061 1.03603 0
M  V30 30710 H 2930.61 -4.1688 0.0409873 0
M  V30 30711 H 2929.27 -3.18908 -0.610573 0
M  V30 30712 H 2930.29 -4.27491 2.92356 0
M  V30 30713 H 2926.96 -4.16069 0.345427 0
M  V30 30714 H 2928.35 -5.20404 4.25005 0
M  V30 30715 N 2931.07 -0.947348 -1.25949 0
M  V30 30716 C 2932.02 -0.460537 -2.26159 0
M  V30 30717 C 2932.99 0.483097 -1.58919 0
M  V30 30718 O 2934.17 0.397951 -1.86604 0
M  V30 30719 C 2931.31 0.262409 -3.44101 0
M  V30 30720 C 2930.43 -0.717614 -4.25998 0
M  V30 30721 C 2929.56 0.0271552 -5.31193 0
M  V30 30722 C 2928.6 -0.944283 -6.04772 0
M  V30 30723 N 2927.74 -0.230865 -7.0172 0
M  V30 30724 H 2932.58 -1.32 -2.67171 0
M  V30 30725 H 2930.12 -0.662111 -1.31356 0
M  V30 30726 H 2932.07 0.698065 -4.11318 0
M  V30 30727 H 2930.7 1.08596 -3.03985 0
M  V30 30728 H 2929.76 -1.27177 -3.58511 0
M  V30 30729 H 2931.07 -1.45922 -4.76978 0
M  V30 30730 H 2930.22 0.521796 -6.04452 0
M  V30 30731 H 2928.96 0.801598 -4.81067 0
M  V30 30732 H 2927.97 -1.44999 -5.30335 0
M  V30 30733 H 2929.19 -1.71883 -6.56988 0
M  V30 30734 H 2927.14 0.524973 -6.53896 0
M  V30 30735 H 2927.05 -0.911688 -7.50483 0
M  V30 30736 H 2928.32 0.242479 -7.79123 0
M  V30 30737 N 2932.55 1.40444 -0.715075 0
M  V30 30738 C 2933.46 2.34515 -0.0632036 0
M  V30 30739 C 2934.48 1.57274 0.744369 0
M  V30 30740 O 2935.65 1.89665 0.677442 0
M  V30 30741 C 2932.72 3.36173 0.847855 0
M  V30 30742 C 2931.78 4.29289 0.0302901 0
M  V30 30743 C 2931.01 5.26092 0.897959 0
M  V30 30744 O 2931.23 5.28848 2.1372 0
M  V30 30745 O 2930.17 6.00955 0.337223 0
M  V30 30746 H 2933.99 2.91877 -0.839129 0
M  V30 30747 H 2931.58 1.41629 -0.475552 0
M  V30 30748 H 2933.46 3.98518 1.36973 0
M  V30 30749 H 2932.14 2.81225 1.60294 0
M  V30 30750 H 2931.04 3.70231 -0.536638 0
M  V30 30751 H 2932.38 4.87388 -0.68656 0
M  V30 30752 N 2934.03 0.461222 1.507 0
M  V30 30753 C 2935.26 -0.0951392 2.06681 0
M  V30 30754 C 2935.67 -1.3438 1.32618 0
M  V30 30755 O 2935.03 -1.78228 0.392562 0
M  V30 30756 C 2935.08 -0.393253 3.59355 0
M  V30 30757 O 2934.8 0.805872 4.30624 0
M  V30 30758 C 2936.3 -0.997669 4.31928 0
M  V30 30759 H 2933.52 0.00268438 0.670995 0
M  V30 30760 H 2936.07 0.647171 1.9399 0
M  V30 30761 H 2934.22 -1.08548 3.71882 0
M  V30 30762 H 2934.63 0.5445 5.21666 0
M  V30 30763 H 2936.11 -1.15609 5.39758 0
M  V30 30764 H 2936.59 -1.98516 3.91776 0
M  V30 30765 H 2937.19 -0.344114 4.23906 0
M  V30 30766 N 2935.51 -1.56408 0.193449 0
M  V30 30767 C 2936.45 -2.20353 -0.744791 0
M  V30 30768 C 2937.45 -1.1742 -1.22102 0
M  V30 30769 O 2938.65 -1.35569 -1.18411 0
M  V30 30770 H 2935.03 -0.706165 -0.258525 0
M  V30 30771 H 2937 -2.97846 -0.181742 0
M  V30 30772 C 2935.75 -2.87568 -1.95448 0
M  V30 30773 H 2935.07 -3.66514 -1.5971 0
M  V30 30774 H 2936.51 -3.3575 -2.58936 0
M  V30 30775 C 2934.97 -1.88515 -2.7922 0
M  V30 30776 O 2935.5 -1.38441 -3.7709 0
M  V30 30777 N 2933.71 -1.56781 -2.44679 0
M  V30 30778 H 2933.25 -1.97695 -1.6515 0
M  V30 30779 H 2933.21 -0.907626 -3.01014 0
M  V30 30780 N 2936.98 0.0801629 -1.57396 0
M  V30 30781 C 2938.21 0.79289 -1.90779 0
M  V30 30782 C 2938.62 1.72062 -0.786844 0
M  V30 30783 O 2937.97 1.82002 0.249227 0
M  V30 30784 C 2938.03 1.64697 -3.19555 0
M  V30 30785 C 2937.69 0.889488 -4.4826 0
M  V30 30786 C 2938.69 0.212511 -5.19465 0
M  V30 30787 C 2936.37 0.859142 -4.94898 0
M  V30 30788 C 2938.37 -0.484677 -6.35555 0
M  V30 30789 C 2936.05 0.158176 -6.10895 0
M  V30 30790 C 2937.05 -0.512541 -6.81074 0
M  V30 30791 O 2936.74 -1.20223 -7.94859 0
M  V30 30792 H 2936.47 0.231092 -0.635274 0
M  V30 30793 H 2939.03 0.057272 -2.0532 0
M  V30 30794 H 2937.26 2.42518 -3.01201 0
M  V30 30795 H 2938.95 2.23761 -3.38653 0
M  V30 30796 H 2939.71 0.227317 -4.84467 0
M  V30 30797 H 2935.59 1.37066 -4.40152 0
M  V30 30798 H 2939.13 -1.00876 -6.90268 0
M  V30 30799 H 2935.03 0.141268 -6.45345 0
M  V30 30800 H 2935.8 -1.11065 -8.1093 0
M  V30 30801 N 2938.46 1.53634 0.351355 0
M  V30 30802 C 2939.71 1.69721 1.08985 0
M  V30 30803 C 2940.02 0.462981 1.90042 0
M  V30 30804 O 2941.23 0.50466 2.66768 0
M  V30 30805 C 2939.69 3.00087 1.98686 0
M  V30 30806 C 2939.29 4.3082 1.22873 0
M  V30 30807 C 2941.04 3.25541 2.7244 0
M  V30 30808 C 2938.95 5.52265 2.11559 0
M  V30 30809 H 2937.88 0.63241 0.410577 0
M  V30 30810 H 2940.53 1.80134 0.349854 0
M  V30 30811 H 2938.91 2.83511 2.76473 0
M  V30 30812 H 2940.08 4.58074 0.500501 0
M  V30 30813 H 2938.4 4.11919 0.609207 0
M  V30 30814 H 2940.99 4.13462 3.39048 0
M  V30 30815 H 2941.34 2.42212 3.38584 0
M  V30 30816 H 2941.87 3.42856 2.01729 0
M  V30 30817 H 2938.61 6.38114 1.49969 0
M  V30 30818 H 2938.13 5.29271 2.82192 0
M  V30 30819 H 2939.81 5.87606 2.70791 0
M  V30 30820 N 2939.94 -0.611943 1.45234 0
M  V30 30821 C 2941.22 -1.37112 1.39498 0
M  V30 30822 C 2941.6 -2.11005 0.0633674 0
M  V30 30823 O 2940.95 -2.07605 -0.95458 0
M  V30 30824 C 2941.16 -2.32158 2.60583 0
M  V30 30825 C 2942.5 -2.949 3.05482 0
M  V30 30826 O 2943.53 -2.4248 2.60925 0
M  V30 30827 O 2942.39 -3.9004 3.82794 0
M  V30 30828 H 2939.48 -0.61459 0.553361 0
M  V30 30829 H 2942.03 -0.635395 1.57356 0
M  V30 30830 H 2940.8 -1.76787 3.49088 0
M  V30 30831 H 2940.42 -3.13118 2.45037 0
M  V30 30832 N 2941.42 -1.32452 -0.854063 0
M  V30 30833 C 2942.65 -1.25865 -1.63834 0
M  V30 30834 C 2943.06 0.175555 -1.88384 0
M  V30 30835 O 2942.4 1.12328 -1.45355 0
M  V30 30836 C 2942.46 -1.94929 -3.02065 0
M  V30 30837 C 2942.13 -3.44262 -3.00554 0
M  V30 30838 C 2943.12 -4.39736 -2.7736 0
M  V30 30839 C 2940.81 -3.86206 -3.21171 0
M  V30 30840 C 2942.8 -5.75127 -2.74787 0
M  V30 30841 C 2940.49 -5.21705 -3.18224 0
M  V30 30842 C 2941.49 -6.15977 -2.95061 0
M  V30 30843 O 2941.17 -7.48997 -2.9199 0
M  V30 30844 H 2940.91 -0.435532 -0.516999 0
M  V30 30845 H 2943.46 -1.75139 -1.07311 0
M  V30 30846 H 2941.69 -1.40225 -3.6038 0
M  V30 30847 H 2943.38 -1.82043 -3.62788 0
M  V30 30848 H 2944.15 -4.08657 -2.61198 0
M  V30 30849 H 2940.02 -3.13249 -3.38225 0
M  V30 30850 H 2943.57 -6.48682 -2.56626 0
M  V30 30851 H 2939.47 -5.52413 -3.33931 0
M  V30 30852 H 2940.23 -7.58364 -3.0794 0
M  V30 30853 N 2942.9 1.07041 -1.15672 0
M  V30 30854 C 2943.83 2.16308 -0.879386 0
M  V30 30855 C 2944.81 1.69235 0.171281 0
M  V30 30856 O 2945.99 1.94184 0.0249834 0
M  V30 30857 C 2943.12 3.45309 -0.371368 0
M  V30 30858 C 2942.08 4.05849 -1.35907 0
M  V30 30859 C 2941.4 5.29968 -0.709771 0
M  V30 30860 C 2942.7 4.4551 -2.72614 0
M  V30 30861 H 2944.4 2.39765 -1.79313 0
M  V30 30862 H 2941.94 1.15232 -0.863578 0
M  V30 30863 H 2943.9 4.21077 -0.164872 0
M  V30 30864 H 2942.62 3.21447 0.577849 0
M  V30 30865 H 2941.28 3.32128 -1.55198 0
M  V30 30866 H 2940.93 5.024 0.245694 0
M  V30 30867 H 2940.63 5.71431 -1.36896 0
M  V30 30868 H 2942.15 6.0844 -0.513122 0
M  V30 30869 H 2943.57 5.12393 -2.5715 0
M  V30 30870 H 2941.96 4.97934 -3.34936 0
M  V30 30871 H 2943.03 3.56728 -3.2844 0
M  V30 30872 N 2944.38 0.954014 1.25445 0
M  V30 30873 C 2945.62 0.616121 1.94893 0
M  V30 30874 C 2945.98 -0.831344 1.73068 0
M  V30 30875 O 2947.18 -1.2788 2.36432 0
M  V30 30876 C 2945.45 0.964285 3.44146 0
M  V30 30877 S 2947.01 0.738874 4.32534 0
M  V30 30878 H 2943.83 0.226484 0.673963 0
M  V30 30879 H 2946.43 1.22806 1.52115 0
M  V30 30880 H 2945.13 2.0149 3.57533 0
M  V30 30881 H 2944.67 0.342576 3.91906 0
M  V30 30882 H 2946.68 -0.390645 4.9466 0
M  V30 30883 N 2945.85 -1.40063 0.722513 0
M  V30 30884 C 2946.8 -2.32514 0.0633699 0
M  V30 30885 C 2947.8 -1.52406 -0.739504 0
M  V30 30886 O 2949 -1.68158 -0.642093 0
M  V30 30887 H 2945.38 -0.751998 0.00169014 0
M  V30 30888 H 2947.35 -2.85747 0.859706 0
M  V30 30889 C 2946.1 -3.37422 -0.83916 0
M  V30 30890 H 2945.42 -3.99133 -0.230766 0
M  V30 30891 H 2946.86 -4.0459 -1.2682 0
M  V30 30892 C 2945.32 -2.73459 -1.96778 0
M  V30 30893 O 2945.85 -2.60329 -3.05928 0
M  V30 30894 N 2944.05 -2.31737 -1.75347 0
M  V30 30895 H 2943.6 -2.42616 -0.865744 0
M  V30 30896 H 2943.56 -1.89279 -2.5104 0
M  V30 30897 N 2947.33 -0.469207 -1.50453 0
M  V30 30898 C 2948.56 0.0864528 -2.0722 0
M  V30 30899 C 2948.98 1.32913 -1.331 0
M  V30 30900 O 2948.34 1.77313 -0.378115 0
M  V30 30901 C 2948.39 0.355321 -3.58845 0
M  V30 30902 O 2947.49 1.43615 -3.86586 0
M  V30 30903 H 2946.83 -0.0121531 -0.663889 0
M  V30 30904 H 2949.36 -0.659708 -1.93672 0
M  V30 30905 H 2949.37 0.596376 -4.03618 0
M  V30 30906 H 2948.05 -0.55277 -4.1221 0
M  V30 30907 H 2946.62 1.18256 -3.53652 0
M  V30 30908 N 2948.81 1.56303 -0.201741 0
M  V30 30909 C 2949.76 2.16018 0.729406 0
M  V30 30910 C 2950.74 1.10281 1.17162 0
M  V30 30911 O 2951.94 1.36326 1.12891 0
M  V30 30912 C 2949.06 2.82825 1.94589 0
M  V30 30913 C 2948.15 3.95761 1.52427 0
M  V30 30914 N 2948.54 4.99207 0.814019 0
M  V30 30915 C 2946.84 4.07485 1.81307 0
M  V30 30916 C 2947.54 5.78579 0.601794 0
M  V30 30917 N 2946.52 5.31242 1.15253 0
M  V30 30918 H 2950.32 2.9336 0.178111 0
M  V30 30919 H 2947.83 1.624 -0.00220893 0
M  V30 30920 H 2949.83 3.24002 2.62351 0
M  V30 30921 H 2948.49 2.06973 2.50184 0
M  V30 30922 H 2949.5 5.15774 0.468781 0
M  V30 30923 H 2946.18 3.42767 2.38364 0
M  V30 30924 H 2947.57 6.71889 0.0378938 0
M  V30 30925 N 2950.29 -0.0718147 1.57436 0
M  V30 30926 C 2951.24 -1.09226 2.00134 0
M  V30 30927 C 2952.22 -1.3448 0.883402 0
M  V30 30928 O 2953.41 -1.34781 1.14731 0
M  V30 30929 C 2950.54 -2.40601 2.4488 0
M  V30 30930 C 2949.63 -2.18621 3.63409 0
M  V30 30931 N 2950.02 -1.6657 4.77586 0
M  V30 30932 C 2948.32 -2.49094 3.69957 0
M  V30 30933 C 2949.02 -1.59405 5.59433 0
M  V30 30934 N 2947.99 -2.05455 5.03279 0
M  V30 30935 H 2951.8 -0.683135 2.8585 0
M  V30 30936 H 2949.31 -0.278886 1.59987 0
M  V30 30937 H 2951.31 -3.14467 2.73708 0
M  V30 30938 H 2949.97 -2.82229 1.60551 0
M  V30 30939 H 2950.98 -1.35435 4.99878 0
M  V30 30940 H 2947.66 -2.94089 2.96341 0
M  V30 30941 H 2949.05 -1.20015 6.61095 0
M  V30 30942 N 2951.77 -1.53818 -0.343203 0
M  V30 30943 C 2952.7 -1.84817 -1.42706 0
M  V30 30944 C 2953.68 -0.703324 -1.54879 0
M  V30 30945 O 2954.86 -0.955267 -1.69081 0
M  V30 30946 C 2951.99 -2.05806 -2.79752 0
M  V30 30947 C 2950.95 -3.21624 -2.82386 0
M  V30 30948 C 2950.27 -3.27947 -4.22321 0
M  V30 30949 C 2951.57 -4.59725 -2.47892 0
M  V30 30950 H 2953.27 -2.75587 -1.17013 0
M  V30 30951 H 2950.81 -1.32603 -0.561462 0
M  V30 30952 H 2952.76 -2.26076 -3.55623 0
M  V30 30953 H 2951.49 -1.11766 -3.06881 0
M  V30 30954 H 2950.15 -3.0121 -2.08968 0
M  V30 30955 H 2949.8 -2.31502 -4.4656 0
M  V30 30956 H 2949.5 -4.05776 -4.24994 0
M  V30 30957 H 2951.02 -3.50428 -5.00033 0
M  V30 30958 H 2952.43 -4.80006 -3.13475 0
M  V30 30959 H 2950.83 -5.39959 -2.61848 0
M  V30 30960 H 2951.9 -4.6331 -1.43079 0
M  V30 30961 N 2953.24 0.604233 -1.45557 0
M  V30 30962 C 2954.47 1.38769 -1.53058 0
M  V30 30963 C 2954.88 1.88495 -0.163125 0
M  V30 30964 O 2954.22 1.63053 0.846128 0
M  V30 30965 C 2954.29 2.62472 -2.4566 0
M  V30 30966 C 2953.95 2.3436 -3.92332 0
M  V30 30967 C 2954.95 1.94516 -4.82141 0
M  V30 30968 C 2952.63 2.47169 -4.37279 0
M  V30 30969 C 2954.63 1.67846 -6.14904 0
M  V30 30970 C 2952.31 2.20112 -5.70082 0
M  V30 30971 C 2953.31 1.80512 -6.58714 0
M  V30 30972 O 2953 1.53774 -7.89056 0
M  V30 30973 H 2952.73 0.431066 -0.520729 0
M  V30 30974 H 2955.29 0.74366 -1.91465 0
M  V30 30975 H 2953.52 3.29605 -2.0223 0
M  V30 30976 H 2955.2 3.24519 -2.43808 0
M  V30 30977 H 2955.97 1.84154 -4.48678 0
M  V30 30978 H 2951.85 2.76958 -3.68532 0
M  V30 30979 H 2955.39 1.36862 -6.84043 0
M  V30 30980 H 2951.29 2.30092 -6.03099 0
M  V30 30981 H 2952.06 1.67798 -8.01115 0
M  V30 30982 N 2954.72 1.32903 0.847027 0
M  V30 30983 C 2956.14 1.1206 1.13643 0
M  V30 30984 C 2956.34 -0.0939016 2.01281 0
M  V30 30985 O 2955.39 -0.776566 2.40262 0
M  V30 30986 C 2956.71 2.40395 1.8064 0
M  V30 30987 C 2958.25 2.46225 1.93242 0
M  V30 30988 C 2958.73 3.74501 2.63654 0
M  V30 30989 N 2960.22 3.75526 2.71173 0
M  V30 30990 C 2960.96 4.71487 3.26324 0
M  V30 30991 N 2960.45 5.7782 3.82225 0
M  V30 30992 N 2962.24 4.58974 3.24499 0
M  V30 30993 H 2954.4 2.10758 0.263575 0
M  V30 30994 H 2956.66 0.930866 0.179424 0
M  V30 30995 H 2956.36 3.29227 1.23702 0
M  V30 30996 H 2956.24 2.51931 2.80732 0
M  V30 30997 H 2958.63 1.57847 2.49336 0
M  V30 30998 H 2958.71 2.38636 0.92123 0
M  V30 30999 H 2958.35 4.63256 2.08221 0
M  V30 31000 H 2958.28 3.79364 3.65227 0
M  V30 31001 H 2960.77 2.98674 2.31522 0
M  V30 31002 H 2961.08 6.47089 4.22487 0
M  V30 31003 H 2959.43 5.81564 3.80536 0
M  V30 31004 H 2962.62 3.75065 2.80078 0
M  V30 31005 H 2962.79 5.33932 3.67179 0
M  V30 31006 N 2956.2 -1.06426 1.16238 0
M  V30 31007 C 2957.48 -1.76005 0.853325 0
M  V30 31008 C 2957.86 -2.00872 -0.649127 0
M  V30 31009 O 2957.2 -1.63475 -1.5965 0
M  V30 31010 C 2957.41 -3.06203 1.67454 0
M  V30 31011 C 2958.76 -3.80381 1.88667 0
M  V30 31012 O 2959.79 -3.1604 1.64308 0
M  V30 31013 O 2958.65 -4.95964 2.29526 0
M  V30 31014 H 2955.74 -0.764762 0.314751 0
M  V30 31015 H 2958.29 -1.12706 1.26867 0
M  V30 31016 H 2957.06 -2.8378 2.69416 0
M  V30 31017 H 2956.68 -3.77236 1.25614 0
M  V30 31018 N 2957.68 -0.960653 -1.24937 0
M  V30 31019 C 2958.63 -0.484498 -2.25657 0
M  V30 31020 C 2959.6 0.466214 -1.59423 0
M  V30 31021 O 2960.78 0.378136 -1.87015 0
M  V30 31022 C 2957.92 0.225898 -3.4436 0
M  V30 31023 C 2957.03 -0.762756 -4.25213 0
M  V30 31024 C 2956.17 -0.0291865 -5.31192 0
M  V30 31025 C 2955.21 -1.00837 -6.03737 0
M  V30 31026 N 2954.34 -0.305278 -7.01436 0
M  V30 31027 H 2959.18 -1.34826 -2.65756 0
M  V30 31028 H 2956.72 -0.676006 -1.30647 0
M  V30 31029 H 2958.68 0.6544 -4.12036 0
M  V30 31030 H 2957.31 1.05366 -3.05119 0
M  V30 31031 H 2956.36 -1.30972 -3.57142 0
M  V30 31032 H 2957.67 -1.50973 -4.75404 0
M  V30 31033 H 2956.83 0.457657 -6.04971 0
M  V30 31034 H 2955.57 0.750529 -4.8189 0
M  V30 31035 H 2954.57 -1.50616 -5.28767 0
M  V30 31036 H 2955.8 -1.78842 -6.55128 0
M  V30 31037 H 2953.74 0.455589 -6.54416 0
M  V30 31038 H 2953.66 -0.991236 -7.49473 0
M  V30 31039 H 2954.93 0.159829 -7.79336 0
M  V30 31040 N 2959.16 1.39677 -0.729931 0
M  V30 31041 C 2960.11 2.27913 -0.0628079 0
M  V30 31042 C 2961.09 1.43999 0.717842 0
M  V30 31043 O 2962.28 1.66959 0.587684 0
M  V30 31044 C 2959.41 3.32674 0.847506 0
M  V30 31045 C 2958.5 4.24056 0.061277 0
M  V30 31046 N 2958.89 4.96549 -0.96295 0
M  V30 31047 C 2957.19 4.45045 0.291695 0
M  V30 31048 C 2957.89 5.63681 -1.43662 0
M  V30 31049 N 2956.86 5.38315 -0.756138 0
M  V30 31050 H 2960.67 2.81413 -0.847595 0
M  V30 31051 H 2958.18 1.52299 -0.563803 0
M  V30 31052 H 2960.18 3.94748 1.34087 0
M  V30 31053 H 2958.84 2.80735 1.63151 0
M  V30 31054 H 2959.85 5.00152 -1.34418 0
M  V30 31055 H 2956.52 4.04057 1.0509 0
M  V30 31056 H 2957.91 6.31727 -2.28846 0
M  V30 31057 N 2960.63 0.47718 1.50202 0
M  V30 31058 C 2961.86 -0.0731064 2.06471 0
M  V30 31059 C 2962.27 -1.33516 1.34053 0
M  V30 31060 O 2961.62 -1.79175 0.405195 0
M  V30 31061 C 2961.68 -0.421059 3.57026 0
M  V30 31062 C 2961.34 0.739844 4.50972 0
M  V30 31063 C 2962.34 1.62362 4.93897 0
M  V30 31064 C 2960.02 0.931897 4.9358 0
M  V30 31065 C 2962.02 2.6838 5.78144 0
M  V30 31066 C 2959.7 1.99529 5.77608 0
M  V30 31067 C 2960.7 2.8696 6.19793 0
M  V30 31068 O 2960.39 3.91468 7.02145 0
M  V30 31069 H 2960.12 0.00649431 0.675969 0
M  V30 31070 H 2962.68 0.666764 1.94277 0
M  V30 31071 H 2960.91 -1.2142 3.67143 0
M  V30 31072 H 2962.6 -0.907143 3.95633 0
M  V30 31073 H 2963.36 1.48696 4.61643 0
M  V30 31074 H 2959.24 0.260819 4.60262 0
M  V30 31075 H 2962.78 3.36653 6.10991 0
M  V30 31076 H 2958.68 2.132 6.09275 0
M  V30 31077 H 2959.45 3.8853 7.20407 0
M  V30 31078 N 2962.11 -1.56194 0.210027 0
M  V30 31079 C 2963.36 -1.97995 -0.424778 0
M  V30 31080 C 2963.69 -1.09736 -1.60587 0
M  V30 31081 O 2962.94 -0.139728 -1.95201 0
M  V30 31082 C 2963.24 -3.4554 -0.913059 0
M  V30 31083 C 2962.91 -4.50629 0.156266 0
M  V30 31084 C 2961.57 -4.79091 0.45005 0
M  V30 31085 C 2963.92 -5.13716 0.88005 0
M  V30 31086 C 2961.25 -5.67925 1.47233 0
M  V30 31087 C 2963.6 -6.03657 1.89159 0
M  V30 31088 C 2962.27 -6.30468 2.19241 0
M  V30 31089 H 2961.54 -0.724514 -0.155437 0
M  V30 31090 H 2964.18 -1.88972 0.310129 0
M  V30 31091 H 2962.49 -3.51708 -1.72652 0
M  V30 31092 H 2964.18 -3.75247 -1.41388 0
M  V30 31093 H 2960.77 -4.2852 -0.0828713 0
M  V30 31094 H 2964.96 -4.91807 0.666317 0
M  V30 31095 H 2960.21 -5.86966 1.71115 0
M  V30 31096 H 2964.39 -6.51596 2.45756 0
M  V30 31097 H 2962.02 -6.99101 2.98599 0
M  V30 31098 N 2963.59 0.0634645 -1.57472 0
M  V30 31099 C 2964.84 0.762161 -1.87933 0
M  V30 31100 C 2965.17 1.76802 -0.803408 0
M  V30 31101 O 2964.44 1.93614 0.185434 0
M  V30 31102 C 2964.73 1.46269 -3.29055 0
M  V30 31103 C 2964.58 0.472676 -4.4731 0
M  V30 31104 C 2965.9 2.40552 -3.68541 0
M  V30 31105 H 2963.02 0.275612 -0.683525 0
M  V30 31106 H 2965.66 0.0252317 -1.89983 0
M  V30 31107 H 2963.81 2.09084 -3.27439 0
M  V30 31108 H 2965.48 -0.150909 -4.61053 0
M  V30 31109 H 2963.73 -0.211263 -4.33285 0
M  V30 31110 H 2964.4 1.00062 -5.42855 0
M  V30 31111 H 2966.87 1.87808 -3.71305 0
M  V30 31112 H 2965.75 2.86566 -4.68157 0
M  V30 31113 H 2966.01 3.25726 -2.98923 0
M  V30 31114 N 2965.07 1.53998 0.33504 0
M  V30 31115 C 2966.48 1.44451 0.678679 0
M  V30 31116 C 2966.68 0.608112 1.92105 0
M  V30 31117 O 2965.74 0.102417 2.52292 0
M  V30 31118 C 2967.05 2.88038 0.863384 0
M  V30 31119 C 2968.6 2.97867 0.96146 0
M  V30 31120 C 2969.08 4.4258 1.17842 0
M  V30 31121 N 2970.57 4.46143 1.24542 0
M  V30 31122 C 2971.3 5.55258 1.43097 0
M  V30 31123 N 2970.8 6.74362 1.58768 0
M  V30 31124 N 2972.59 5.42885 1.45713 0
M  V30 31125 H 2964.74 2.06866 -0.481693 0
M  V30 31126 H 2967.01 0.935469 -0.153631 0
M  V30 31127 H 2966.71 3.51693 0.0218893 0
M  V30 31128 H 2966.59 3.33484 1.76262 0
M  V30 31129 H 2968.97 2.34347 1.79347 0
M  V30 31130 H 2969.05 2.5577 0.0389412 0
M  V30 31131 H 2968.7 5.06684 0.351307 0
M  V30 31132 H 2968.63 4.82277 2.11464 0
M  V30 31133 H 2971.12 3.6032 1.13922 0
M  V30 31134 H 2971.43 7.53282 1.72585 0
M  V30 31135 H 2969.78 6.77292 1.55888 0
M  V30 31136 H 2972.97 4.48791 1.33057 0
M  V30 31137 H 2973.14 6.27979 1.5983 0
M  V30 31138 N 2966.55 -0.596505 1.45875 0
M  V30 31139 C 2967.79 -1.35251 1.50172 0
M  V30 31140 C 2968.12 -1.94428 0.14928 0
M  V30 31141 O 2967.39 -1.7779 -0.822648 0
M  V30 31142 H 2965.97 -0.502129 0.55306 0
M  V30 31143 H 2968.63 -0.699639 1.81909 0
M  V30 31144 H 2967.72 -2.16628 2.24674 0
M  V30 31145 N 2968.02 -1.3335 -0.839967 0
M  V30 31146 C 2969.27 -1.24498 -1.592 0
M  V30 31147 C 2969.59 0.189465 -1.94077 0
M  V30 31148 O 2968.86 1.11793 -1.6087 0
M  V30 31149 H 2967.44 -0.457812 -0.590268 0
M  V30 31150 H 2970.11 -1.67056 -1.00391 0
M  V30 31151 H 2969.2 -1.83793 -2.52243 0
M  V30 31152 N 2969.5 1.05808 -1.16801 0
M  V30 31153 C 2970.44 2.12861 -0.822528 0
M  V30 31154 C 2971.41 1.61264 0.207977 0
M  V30 31155 O 2972.6 1.88281 0.0909321 0
M  V30 31156 C 2969.72 3.37946 -0.225885 0
M  V30 31157 C 2968.77 4.08355 -1.23079 0
M  V30 31158 S 2969.6 4.57715 -2.77952 0
M  V30 31159 C 2970.76 5.86055 -2.19751 0
M  V30 31160 H 2970.99 2.41838 -1.72921 0
M  V30 31161 H 2968.53 1.18316 -0.992002 0
M  V30 31162 H 2970.48 4.10348 0.111883 0
M  V30 31163 H 2969.14 3.07117 0.658638 0
M  V30 31164 H 2968.34 4.98209 -0.761845 0
M  V30 31165 H 2967.94 3.4199 -1.51389 0
M  V30 31166 H 2970.23 6.59076 -1.56922 0
M  V30 31167 H 2971.17 6.37686 -3.07834 0
M  V30 31168 H 2971.58 5.40321 -1.63443 0
M  V30 31169 N 2970.98 0.967265 1.24426 0
M  V30 31170 C 2972.39 0.667815 1.74348 0
M  V30 31171 C 2972.74 -0.816478 1.78404 0
M  V30 31172 O 2971.87 -1.63884 1.41318 0
M  V30 31173 C 2972.46 1.20554 3.16626 0
M  V30 31174 C 2971.02 0.955998 3.64057 0
M  V30 31175 C 2970.17 1.34111 2.42713 0
M  V30 31176 H 2973.12 1.14263 1.10134 0
M  V30 31177 H 2973.14 0.571613 3.76182 0
M  V30 31178 H 2972.65 2.28584 3.13642 0
M  V30 31179 H 2970.75 -0.108792 3.72441 0
M  V30 31180 H 2970.87 1.60134 4.51546 0
M  V30 31181 H 2969.23 0.759495 2.43113 0
M  V30 31182 H 2970.01 2.43089 2.4241 0
M  V30 31183 N 2972.46 -1.39288 0.737328 0
M  V30 31184 C 2973.68 -2.05287 0.295273 0
M  V30 31185 C 2974.11 -1.5523 -1.06232 0
M  V30 31186 O 2973.47 -0.697072 -1.67364 0
M  V30 31187 C 2973.52 -3.59272 0.30921 0
M  V30 31188 O 2972.62 -4.06375 -0.702365 0
M  V30 31189 H 2971.96 -0.650385 0.133773 0
M  V30 31190 H 2974.49 -1.78278 1.0039 0
M  V30 31191 H 2974.5 -4.07708 0.154408 0
M  V30 31192 H 2973.18 -3.95067 1.29981 0
M  V30 31193 H 2971.75 -3.69347 -0.513509 0
M  V30 31194 N 2973.94 -0.485139 -1.49947 0
M  V30 31195 C 2975.19 0.064842 -2.01996 0
M  V30 31196 C 2975.51 1.38942 -1.36821 0
M  V30 31197 O 2974.78 1.88922 -0.518196 0
M  V30 31198 H 2973.36 0.0269531 -0.746514 0
M  V30 31199 H 2976.02 -0.638765 -1.84135 0
M  V30 31200 H 2975.11 0.206116 -3.11419 0
M  V30 31201 N 2975.42 1.56081 -0.218307 0
M  V30 31202 C 2976.66 2.00119 0.416158 0
M  V30 31203 C 2977.02 1.10268 1.57178 0
M  V30 31204 O 2978.22 1.43639 2.27203 0
M  V30 31205 C 2976.49 3.47323 0.84272 0
M  V30 31206 S 2978.05 4.13382 1.47175 0
M  V30 31207 H 2974.87 0.6986 0.132207 0
M  V30 31208 H 2977.47 1.92749 -0.326833 0
M  V30 31209 H 2976.17 4.10399 -0.00807139 0
M  V30 31210 H 2975.71 3.58559 1.6186 0
M  V30 31211 H 2977.72 4.12304 2.7608 0
M  V30 31212 N 2976.89 -0.0551124 1.57504 0
M  V30 31213 C 2978.12 -0.767318 1.92684 0
M  V30 31214 C 2978.54 -1.69471 0.81617 0
M  V30 31215 O 2977.9 -1.79836 -0.229957 0
M  V30 31216 C 2977.95 -1.5228 3.26869 0
M  V30 31217 O 2977.05 -2.63454 3.17279 0
M  V30 31218 H 2976.39 -0.208227 0.630506 0
M  V30 31219 H 2978.92 -0.0183666 2.04592 0
M  V30 31220 H 2978.93 -1.89844 3.61142 0
M  V30 31221 H 2977.61 -0.84247 4.07278 0
M  V30 31222 H 2976.19 -2.28624 2.94593 0
M  V30 31223 N 2978.37 -1.54173 -0.326869 0
M  V30 31224 C 2979.62 -1.7188 -1.0631 0
M  V30 31225 C 2979.94 -0.493531 -1.88651 0
M  V30 31226 O 2979.21 0.492489 -1.89608 0
M  V30 31227 H 2977.79 -0.633723 -0.395479 0
M  V30 31228 H 2980.45 -1.91469 -0.364105 0
M  V30 31229 H 2979.55 -2.59697 -1.73101 0
M  V30 31230 N 2979.85 0.58876 -1.4619 0
M  V30 31231 C 2981.08 1.37337 -1.54746 0
M  V30 31232 C 2981.49 1.87877 -0.186479 0
M  V30 31233 O 2980.85 1.6328 0.815219 0
M  V30 31234 C 2980.9 2.56504 -2.54732 0
M  V30 31235 O 2980.62 2.08059 -3.85543 0
M  V30 31236 C 2982.12 3.49132 -2.7317 0
M  V30 31237 H 2979.34 0.419759 -0.523492 0
M  V30 31238 H 2981.89 0.716312 -1.91544 0
M  V30 31239 H 2980.04 3.18211 -2.20954 0
M  V30 31240 H 2980.46 2.85622 -4.3991 0
M  V30 31241 H 2981.93 4.29244 -3.47065 0
M  V30 31242 H 2982.41 4.00682 -1.79863 0
M  V30 31243 H 2983.01 2.93265 -3.08019 0
M  V30 31244 N 2981.33 1.33794 0.832883 0
M  V30 31245 C 2982.55 1.28791 1.62566 0
M  V30 31246 C 2982.98 -0.137213 1.87599 0
M  V30 31247 O 2982.34 -1.09578 1.44438 0
M  V30 31248 C 2982.38 2.07458 2.94946 0
M  V30 31249 O 2981.49 1.43728 3.86544 0
M  V30 31250 H 2980.83 0.442796 0.494801 0
M  V30 31251 H 2983.36 1.76447 1.03575 0
M  V30 31252 H 2983.37 2.18446 3.44595 0
M  V30 31253 H 2982.04 3.11078 2.76049 0
M  V30 31254 H 2980.62 1.41423 3.45042 0
M  V30 31255 N 2982.81 -1.05187 1.1736 0
M  V30 31256 C 2984.05 -1.77581 0.956443 0
M  V30 31257 C 2984.37 -1.88672 -0.515985 0
M  V30 31258 O 2985.57 -2.57806 -0.851355 0
M  V30 31259 C 2984.03 -3.19222 1.66209 0
M  V30 31260 C 2983.64 -3.16262 3.17305 0
M  V30 31261 C 2985.38 -3.96072 1.52732 0
M  V30 31262 C 2983.29 -4.52691 3.80558 0
M  V30 31263 H 2982.22 -0.665618 0.354216 0
M  V30 31264 H 2984.87 -1.17898 1.40614 0
M  V30 31265 H 2983.25 -3.79232 1.14013 0
M  V30 31266 H 2984.43 -2.65769 3.76435 0
M  V30 31267 H 2982.74 -2.52911 3.30795 0
M  V30 31268 H 2985.34 -4.96944 1.9736 0
M  V30 31269 H 2985.68 -4.13548 0.477875 0
M  V30 31270 H 2986.21 -3.42611 2.02145 0
M  V30 31271 H 2982.95 -4.40421 4.85499 0
M  V30 31272 H 2982.47 -5.03333 3.26215 0
M  V30 31273 H 2984.15 -5.21631 3.82767 0
M  V30 31274 N 2984.28 -0.97385 -1.23911 0
M  V30 31275 C 2985.53 -0.639113 -1.9215 0
M  V30 31276 C 2985.86 0.826514 -1.76065 0
M  V30 31277 O 2985.11 1.61086 -1.11129 0
M  V30 31278 C 2985.41 -0.967416 -3.44058 0
M  V30 31279 C 2985.08 -2.42219 -3.80317 0
M  V30 31280 C 2983.74 -2.81978 -3.89925 0
M  V30 31281 C 2986.09 -3.36603 -3.97929 0
M  V30 31282 C 2983.42 -4.15151 -4.14568 0
M  V30 31283 C 2985.77 -4.69411 -4.2407 0
M  V30 31284 C 2984.44 -5.0894 -4.31899 0
M  V30 31285 H 2983.71 -0.233868 -0.703126 0
M  V30 31286 H 2986.35 -1.22649 -1.4707 0
M  V30 31287 H 2984.66 -0.297876 -3.90666 0
M  V30 31288 H 2986.36 -0.686723 -3.95076 0
M  V30 31289 H 2982.95 -2.10392 -3.73408 0
M  V30 31290 H 2987.13 -3.07066 -3.89903 0
M  V30 31291 H 2982.39 -4.45393 -4.1885 0
M  V30 31292 H 2986.56 -5.42509 -4.36642 0
M  V30 31293 H 2984.19 -6.12153 -4.50747 0
M  V30 31294 N 2985.76 1.38895 -0.744705 0
M  V30 31295 C 2986.71 2.32383 -0.100353 0
M  V30 31296 C 2987.7 1.53564 0.715164 0
M  V30 31297 O 2988.91 1.69158 0.615259 0
M  V30 31298 H 2985.28 0.751876 -0.0136536 0
M  V30 31299 H 2987.26 2.84344 -0.905057 0
M  V30 31300 C 2986 3.38714 0.785373 0
M  V30 31301 H 2985.33 3.9945 0.167238 0
M  V30 31302 H 2986.77 4.06556 1.20367 0
M  V30 31303 C 2985.23 2.76555 1.92403 0
M  V30 31304 O 2985.76 2.65163 3.01748 0
M  V30 31305 N 2983.96 2.34497 1.71638 0
M  V30 31306 H 2983.51 2.43963 0.827036 0
M  V30 31307 H 2983.47 1.93249 2.47996 0
M  V30 31308 N 2987.24 0.493084 1.49688 0
M  V30 31309 C 2988.47 -0.053475 2.07331 0
M  V30 31310 C 2988.89 -1.30779 1.35198 0
M  V30 31311 O 2988.25 -1.76689 0.406277 0
M  V30 31312 C 2988.3 -0.298187 3.59365 0
M  V30 31313 O 2987.4 -1.37447 3.88821 0
M  V30 31314 H 2986.74 0.0227134 0.663611 0
M  V30 31315 H 2989.27 0.690436 1.92598 0
M  V30 31316 H 2989.28 -0.532088 4.04516 0
M  V30 31317 H 2987.96 0.618279 4.11279 0
M  V30 31318 H 2986.53 -1.12615 3.55489 0
M  V30 31319 N 2988.72 -1.55963 0.226582 0
M  V30 31320 C 2989.65 -2.16491 -0.721587 0
M  V30 31321 C 2990.63 -1.1108 -1.18743 0
M  V30 31322 O 2991.81 -1.39363 -1.26926 0
M  V30 31323 C 2988.94 -2.74925 -1.97823 0
M  V30 31324 C 2987.99 -3.93209 -1.65195 0
M  V30 31325 S 2988.82 -5.29901 -0.772326 0
M  V30 31326 C 2989.98 -5.91776 -2.03843 0
M  V30 31327 H 2990.21 -2.96578 -0.207139 0
M  V30 31328 H 2987.74 -1.54396 0.0112248 0
M  V30 31329 H 2989.7 -3.0923 -2.69976 0
M  V30 31330 H 2988.36 -1.94822 -2.4638 0
M  V30 31331 H 2987.55 -4.32614 -2.58575 0
M  V30 31332 H 2987.16 -3.60076 -1.01101 0
M  V30 31333 H 2989.45 -6.08056 -2.98788 0
M  V30 31334 H 2990.39 -6.87681 -1.68819 0
M  V30 31335 H 2990.8 -5.20655 -2.18125 0
M  V30 31336 N 2990.2 0.0467589 -1.57531 0
M  V30 31337 C 2991.45 0.740036 -1.87634 0
M  V30 31338 C 2991.76 1.77456 -0.822722 0
M  V30 31339 O 2992.96 2.51918 -1.0124 0
M  V30 31340 C 2991.42 1.36721 -3.32919 0
M  V30 31341 C 2991.03 0.369956 -4.4647 0
M  V30 31342 C 2992.77 2.04139 -3.72193 0
M  V30 31343 C 2990.68 1.00447 -5.82807 0
M  V30 31344 H 2989.61 0.280146 -0.700025 0
M  V30 31345 H 2992.26 -0.00610376 -1.83499 0
M  V30 31346 H 2990.64 2.16246 -3.31743 0
M  V30 31347 H 2991.82 -0.397298 -4.59084 0
M  V30 31348 H 2990.13 -0.201152 -4.15914 0
M  V30 31349 H 2992.73 2.52433 -4.71362 0
M  V30 31350 H 2993.07 2.85187 -3.03273 0
M  V30 31351 H 2993.6 1.31413 -3.75467 0
M  V30 31352 H 2990.34 0.233791 -6.55083 0
M  V30 31353 H 2989.86 1.74198 -5.73947 0
M  V30 31354 H 2991.54 1.51702 -6.28964 0
M  V30 31355 N 2991.67 1.54344 0.318688 0
M  V30 31356 C 2992.62 1.848 1.41251 0
M  V30 31357 C 2993.62 0.720283 1.53324 0
M  V30 31358 O 2994.82 0.904019 1.55652 0
M  V30 31359 H 2991.2 0.58586 0.471458 0
M  V30 31360 H 2993.17 2.76262 1.1279 0
M  V30 31361 C 2991.92 2.09642 2.77391 0
M  V30 31362 H 2991.24 2.95881 2.68876 0
M  V30 31363 H 2992.68 2.34902 3.52983 0
M  V30 31364 C 2991.14 0.889455 3.24947 0
M  V30 31365 O 2991.67 0.101133 4.01573 0
M  V30 31366 N 2989.88 0.699734 2.8205 0
M  V30 31367 H 2989.42 1.34244 2.19855 0
M  V30 31368 H 2989.38 -0.106313 3.1422 0
M  V30 31369 N 2993.15 -0.580999 1.465 0
M  V30 31370 C 2994.1 -1.71102 1.57565 0
M  V30 31371 C 2995.09 -1.63476 0.444059 0
M  V30 31372 O 2996.3 -1.68949 0.620994 0
M  V30 31373 H 2992.68 -0.565737 0.495425 0
M  V30 31374 H 2994.65 -1.589 2.52573 0
M  V30 31375 C 2993.4 -3.09487 1.58471 0
M  V30 31376 H 2992.72 -3.16026 2.44883 0
M  V30 31377 H 2994.16 -3.8831 1.70268 0
M  V30 31378 C 2992.62 -3.35437 0.313655 0
M  V30 31379 O 2993.15 -3.97263 -0.595386 0
M  V30 31380 N 2991.35 -2.89904 0.201037 0
M  V30 31381 H 2990.9 -2.39771 0.941685 0
M  V30 31382 H 2990.86 -3.07639 -0.648523 0
M  V30 31383 N 2994.63 -1.34234 -0.825776 0
M  V30 31384 C 2995.88 -1.25773 -1.57684 0
M  V30 31385 C 2996.19 0.171338 -1.94848 0
M  V30 31386 O 2997.4 0.378076 -2.68855 0
M  V30 31387 C 2995.85 -2.20459 -2.84474 0
M  V30 31388 C 2995.46 -3.68607 -2.54623 0
M  V30 31389 C 2997.21 -2.209 -3.62496 0
M  V30 31390 C 2995.11 -4.55171 -3.77589 0
M  V30 31391 H 2994.04 -0.467213 -0.591801 0
M  V30 31392 H 2996.69 -1.59381 -0.909393 0
M  V30 31393 H 2995.08 -1.79799 -3.52829 0
M  V30 31394 H 2996.25 -4.17788 -1.94397 0
M  V30 31395 H 2994.57 -3.70586 -1.89882 0
M  V30 31396 H 2997.16 -2.82797 -4.53795 0
M  V30 31397 H 2997.51 -1.20753 -3.98402 0
M  V30 31398 H 2998.04 -2.5999 -3.01081 0
M  V30 31399 H 2994.78 -5.56243 -3.46806 0
M  V30 31400 H 2994.3 -4.10727 -4.37108 0
M  V30 31401 H 2995.98 -4.69635 -4.4503 0
M  V30 31402 N 2996.11 1.04563 -1.17917 0
M  V30 31403 C 2997.36 1.77071 -0.965847 0
M  V30 31404 C 2997.67 1.88943 0.505972 0
M  V30 31405 O 2998.88 2.58254 0.837671 0
M  V30 31406 C 2997.33 3.18336 -1.67899 0
M  V30 31407 C 2996.94 3.14575 -3.18978 0
M  V30 31408 C 2998.68 3.95257 -1.5483 0
M  V30 31409 C 2996.59 4.50667 -3.82953 0
M  V30 31410 H 2995.52 0.66373 -0.357741 0
M  V30 31411 H 2998.17 1.17151 -1.41237 0
M  V30 31412 H 2996.55 3.78622 -1.16022 0
M  V30 31413 H 2997.73 2.63769 -3.77839 0
M  V30 31414 H 2996.04 2.51153 -3.32131 0
M  V30 31415 H 2998.64 4.9589 -1.99993 0
M  V30 31416 H 2998.98 4.13289 -0.4998 0
M  V30 31417 H 2999.52 3.41534 -2.03959 0
M  V30 31418 H 2996.26 4.3784 -4.87828 0
M  V30 31419 H 2995.78 5.01596 -3.28879 0
M  V30 31420 H 2997.45 5.19594 -3.85528 0
M  V30 31421 N 2997.59 0.980408 1.23393 0
M  V30 31422 C 2998.84 0.644818 1.91115 0
M  V30 31423 C 2999.15 -0.825335 1.77335 0
M  V30 31424 O 3000.35 -1.27199 2.3986 0
M  V30 31425 C 2998.81 1.10272 3.4259 0
M  V30 31426 C 2998.42 2.59722 3.65032 0
M  V30 31427 C 3000.16 0.840873 4.16088 0
M  V30 31428 C 2998.07 2.99179 5.10143 0
M  V30 31429 H 2997 0.237473 0.715628 0
M  V30 31430 H 2999.65 1.18831 1.39827 0
M  V30 31431 H 2998.03 0.487442 3.92989 0
M  V30 31432 H 2999.21 3.26488 3.2518 0
M  V30 31433 H 2997.52 2.83653 3.04844 0
M  V30 31434 H 3000.12 1.11152 5.23019 0
M  V30 31435 H 3000.46 -0.223012 4.15702 0
M  V30 31436 H 3000.99 1.41773 3.71679 0
M  V30 31437 H 2997.73 4.04691 5.1566 0
M  V30 31438 H 2997.25 2.37106 5.50945 0
M  V30 31439 H 2998.93 2.89785 5.78475 0
M  V30 31440 N 2999.06 -1.38498 0.75206 0
M  V30 31441 C 3000.48 -1.53713 0.429487 0
M  V30 31442 C 3000.68 -1.71516 -1.05757 0
M  V30 31443 O 2999.74 -1.7253 -1.84363 0
M  V30 31444 C 3001.05 -2.74509 1.2274 0
M  V30 31445 C 3002.6 -2.88358 1.21732 0
M  V30 31446 C 3003.07 -4.12113 1.99816 0
M  V30 31447 N 3004.56 -4.19187 1.97069 0
M  V30 31448 C 3005.3 -5.13934 2.54283 0
M  V30 31449 N 3004.79 -6.14363 3.20204 0
M  V30 31450 N 3006.59 -5.06273 2.44221 0
M  V30 31451 H 2998.74 -1.25192 1.71583 0
M  V30 31452 H 3001 -0.608057 0.727303 0
M  V30 31453 H 3000.71 -2.67754 2.28037 0
M  V30 31454 H 3000.58 -3.67654 0.843251 0
M  V30 31455 H 3002.97 -2.94596 0.172419 0
M  V30 31456 H 3003.05 -1.96229 1.64097 0
M  V30 31457 H 3002.69 -4.06637 3.04317 0
M  V30 31458 H 3002.62 -5.03319 1.54846 0
M  V30 31459 H 3005.11 -3.4726 1.4906 0
M  V30 31460 H 3005.43 -6.8315 3.61284 0
M  V30 31461 H 3003.77 -6.147 3.24298 0
M  V30 31462 H 3006.96 -4.26754 1.92351 0
M  V30 31463 H 3007.14 -5.79932 2.89106 0
M  V30 31464 N 3000.54 -0.501015 -1.49424 0
M  V30 31465 C 3001.77 0.0403079 -2.06861 0
M  V30 31466 C 3002.19 1.30817 -1.36134 0
M  V30 31467 O 3001.54 1.77124 -0.439678 0
M  V30 31468 C 3001.59 0.297838 -3.60271 0
M  V30 31469 O 3001.31 -0.919761 -4.28336 0
M  V30 31470 C 3002.82 0.8828 -4.34421 0
M  V30 31471 H 3000.04 -0.0204737 -0.670688 0
M  V30 31472 H 3002.58 -0.698376 -1.92206 0
M  V30 31473 H 3000.73 0.986504 -3.74629 0
M  V30 31474 H 3001.15 -0.682619 -5.20039 0
M  V30 31475 H 3002.62 1.01258 -5.42633 0
M  V30 31476 H 3003.1 1.88059 -3.96901 0
M  V30 31477 H 3003.71 0.231602 -4.24669 0
M  V30 31478 N 3002.02 1.5584 -0.234849 0
M  V30 31479 C 3002.95 2.23855 0.664177 0
M  V30 31480 C 3003.93 1.21472 1.19074 0
M  V30 31481 O 3005.12 1.50094 1.2323 0
M  V30 31482 C 3002.25 2.92874 1.86661 0
M  V30 31483 C 3001.2 4.01842 1.47334 0
M  V30 31484 C 3000.53 4.58224 2.75563 0
M  V30 31485 C 3001.83 5.18197 0.653388 0
M  V30 31486 H 3003.52 2.99243 0.0970687 0
M  V30 31487 H 3001.07 1.43929 0.0452471 0
M  V30 31488 H 3003.02 3.39151 2.5011 0
M  V30 31489 H 3001.74 2.14954 2.45891 0
M  V30 31490 H 3000.4 3.56316 0.862252 0
M  V30 31491 H 3000.05 3.7702 3.32964 0
M  V30 31492 H 2999.75 5.31775 2.49977 0
M  V30 31493 H 3001.28 5.07227 3.39931 0
M  V30 31494 H 3002.69 5.60774 1.19189 0
M  V30 31495 H 3001.09 5.98063 0.494083 0
M  V30 31496 H 3002.16 4.83727 -0.337089 0
M  V30 31497 N 3003.5 -0.038404 1.57553 0
M  V30 31498 C 3004.43 -1.07471 2.01309 0
M  V30 31499 C 3005.41 -1.35703 0.895741 0
M  V30 31500 O 3006.59 -1.48517 1.16082 0
M  V30 31501 C 3003.72 -2.41161 2.37821 0
M  V30 31502 C 3002.77 -2.28848 3.59904 0
M  V30 31503 S 3003.6 -1.65077 5.09421 0
M  V30 31504 C 3004.76 -3.00276 5.49168 0
M  V30 31505 H 3004.99 -0.701983 2.88894 0
M  V30 31506 H 3002.52 -0.248076 1.52394 0
M  V30 31507 H 3004.48 -3.18048 2.5953 0
M  V30 31508 H 3003.14 -2.75585 1.50705 0
M  V30 31509 H 3002.33 -3.27518 3.83077 0
M  V30 31510 H 3001.94 -1.60103 3.37999 0
M  V30 31511 H 3004.23 -3.96607 5.49281 0
M  V30 31512 H 3005.17 -2.81846 6.49591 0
M  V30 31513 H 3005.58 -3.02419 4.76658 0
M  V30 31514 N 3004.98 -1.54511 -0.310498 0
M  V30 31515 C 3005.91 -1.87802 -1.38754 0
M  V30 31516 C 3006.89 -0.736018 -1.53352 0
M  V30 31517 O 3008.07 -0.990917 -1.67016 0
M  V30 31518 C 3005.2 -2.11694 -2.75323 0
M  V30 31519 C 3004.16 -3.27541 -2.75501 0
M  V30 31520 C 3003.48 -3.36832 -4.15269 0
M  V30 31521 C 3004.78 -4.6488 -2.38084 0
M  V30 31522 H 3006.48 -2.78007 -1.11141 0
M  V30 31523 H 3004.02 -1.33764 -0.533208 0
M  V30 31524 H 3005.98 -2.33568 -3.50748 0
M  V30 31525 H 3004.7 -1.1825 -3.04441 0
M  V30 31526 H 3003.36 -3.05575 -2.02532 0
M  V30 31527 H 3003.01 -2.40922 -4.41549 0
M  V30 31528 H 3002.71 -4.14699 -4.16291 0
M  V30 31529 H 3004.23 -3.60955 -4.92487 0
M  V30 31530 H 3005.65 -4.86548 -3.03223 0
M  V30 31531 H 3004.04 -5.45392 -2.50335 0
M  V30 31532 H 3005.11 -4.66241 -1.33219 0
M  V30 31533 N 3006.46 0.573222 -1.46806 0
M  V30 31534 C 3007.4 1.68158 -1.58087 0
M  V30 31535 C 3008.37 1.6058 -0.424664 0
M  V30 31536 O 3009.56 1.79651 -0.642654 0
M  V30 31537 C 3006.7 3.06493 -1.58606 0
M  V30 31538 C 3005.81 3.24627 -2.85029 0
M  V30 31539 C 3004.95 4.53266 -2.76989 0
M  V30 31540 C 3003.98 4.64776 -3.98309 0
M  V30 31541 N 3003.12 5.84752 -3.88599 0
M  V30 31542 H 3007.96 1.57853 -2.52757 0
M  V30 31543 H 3005.5 0.769196 -1.25387 0
M  V30 31544 H 3007.46 3.86576 -1.56891 0
M  V30 31545 H 3006.09 3.15672 -0.674609 0
M  V30 31546 H 3005.14 2.38084 -2.96682 0
M  V30 31547 H 3006.45 3.28998 -3.74916 0
M  V30 31548 H 3005.6 5.41589 -2.73434 0
M  V30 31549 H 3004.34 4.51349 -1.84758 0
M  V30 31550 H 3003.35 3.74869 -4.02186 0
M  V30 31551 H 3004.57 4.68465 -4.91647 0
M  V30 31552 H 3002.52 5.83814 -2.99161 0
M  V30 31553 H 3002.44 5.90432 -4.7215 0
M  V30 31554 H 3003.7 6.7548 -3.89034 0
M  V30 31555 N 3007.93 1.3467 0.818645 0
M  V30 31556 C 3009.18 1.27455 1.57743 0
M  V30 31557 C 3009.51 -0.154043 1.93588 0
M  V30 31558 O 3008.79 -1.10048 1.60373 0
M  V30 31559 C 3009.07 2.1695 2.8741 0
M  V30 31560 C 3008.92 3.68368 2.58119 0
M  V30 31561 C 3010.24 2.05799 3.89018 0
M  V30 31562 H 3007.36 0.464334 0.572331 0
M  V30 31563 H 3010 1.64961 0.942755 0
M  V30 31564 H 3008.15 1.85095 3.41573 0
M  V30 31565 H 3009.83 4.1061 2.10232 0
M  V30 31566 H 3008.07 3.89245 1.91496 0
M  V30 31567 H 3008.74 4.26359 3.50602 0
M  V30 31568 H 3011.22 2.33777 3.4422 0
M  V30 31569 H 3010.09 2.70637 4.77543 0
M  V30 31570 H 3010.35 1.03625 4.29784 0
M  V30 31571 N 3009.41 -1.03936 1.1847 0
M  V30 31572 C 3010.64 -1.80545 1.00434 0
M  V30 31573 C 3011.05 -1.83761 -0.450374 0
M  V30 31574 O 3010.39 -1.27278 -1.32461 0
M  V30 31575 C 3010.45 -3.27422 1.48443 0
M  V30 31576 C 3010.12 -3.47864 2.96378 0
M  V30 31577 C 3011.12 -3.38946 3.94223 0
M  V30 31578 C 3008.8 -3.74418 3.34838 0
M  V30 31579 C 3010.79 -3.56289 5.28524 0
M  V30 31580 C 3008.48 -3.91408 4.69301 0
M  V30 31581 C 3009.48 -3.82344 5.65952 0
M  V30 31582 O 3009.17 -3.98845 6.97981 0
M  V30 31583 H 3008.9 -0.575368 0.354863 0
M  V30 31584 H 3011.45 -1.31873 1.57476 0
M  V30 31585 H 3009.68 -3.77069 0.857667 0
M  V30 31586 H 3011.37 -3.85593 1.26777 0
M  V30 31587 H 3012.14 -3.18394 3.65856 0
M  V30 31588 H 3008.02 -3.8057 2.60167 0
M  V30 31589 H 3011.56 -3.4913 6.03949 0
M  V30 31590 H 3007.46 -4.11455 4.97368 0
M  V30 31591 H 3008.23 -4.15998 7.04903 0
M  V30 31592 N 3010.89 -0.986938 -1.22871 0
M  V30 31593 C 3011.84 -0.532255 -2.24579 0
M  V30 31594 C 3012.81 0.432293 -1.60376 0
M  V30 31595 O 3013.99 0.338383 -1.87775 0
M  V30 31596 C 3011.13 0.152803 -3.44762 0
M  V30 31597 C 3010.24 -0.852779 -4.23499 0
M  V30 31598 C 3009.38 -0.141854 -5.31011 0
M  V30 31599 C 3008.42 -1.13621 -6.01462 0
M  V30 31600 N 3007.56 -0.453995 -7.00631 0
M  V30 31601 H 3012.4 -1.40433 -2.62836 0
M  V30 31602 H 3009.93 -0.703566 -1.29183 0
M  V30 31603 H 3011.89 0.566853 -4.13331 0
M  V30 31604 H 3010.52 0.988702 -3.07286 0
M  V30 31605 H 3009.57 -1.38518 -3.54284 0
M  V30 31606 H 3010.88 -1.61023 -4.72094 0
M  V30 31607 H 3010.04 0.329231 -6.05806 0
M  V30 31608 H 3008.78 0.648144 -4.83374 0
M  V30 31609 H 3007.78 -1.61798 -5.25454 0
M  V30 31610 H 3009.01 -1.92698 -6.51187 0
M  V30 31611 H 3006.95 0.316675 -6.55235 0
M  V30 31612 H 3006.87 -1.14999 -7.47202 0
M  V30 31613 H 3008.14 -0.00551525 -7.795 0
M  V30 31614 N 3012.37 1.38098 -0.759394 0
M  V30 31615 C 3013.62 1.9959 -0.31752 0
M  V30 31616 C 3013.94 1.60583 1.10626 0
M  V30 31617 O 3013.21 0.865409 1.75748 0
M  V30 31618 H 3011.79 0.738187 -0.11441 0
M  V30 31619 H 3014.45 1.68772 -0.974779 0
M  V30 31620 H 3013.54 3.09713 -0.385282 0
M  V30 31621 N 3013.85 0.508932 1.49156 0
M  V30 31622 C 3015.09 -0.03465 2.0167 0
M  V30 31623 C 3015.41 -1.37308 1.39305 0
M  V30 31624 O 3016.61 -2.00381 1.83193 0
M  V30 31625 C 3015.07 -0.112198 3.59725 0
M  V30 31626 C 3014.68 1.22007 4.31067 0
M  V30 31627 C 3016.42 -0.605724 4.20156 0
M  V30 31628 C 3014.33 1.10425 5.80999 0
M  V30 31629 H 3013.26 -0.0167222 0.753815 0
M  V30 31630 H 3015.91 0.649548 1.71619 0
M  V30 31631 H 3014.29 -0.861019 3.86526 0
M  V30 31632 H 3015.47 1.9828 4.15959 0
M  V30 31633 H 3013.78 1.64766 3.82415 0
M  V30 31634 H 3016.38 -0.710009 5.29965 0
M  V30 31635 H 3016.72 -1.60649 3.84054 0
M  V30 31636 H 3017.25 0.0867938 3.97705 0
M  V30 31637 H 3013.99 2.07952 6.2164 0
M  V30 31638 H 3013.51 0.382534 5.98579 0
M  V30 31639 H 3015.19 0.786229 6.42205 0
M  V30 31640 N 3015.32 -1.55714 0.243111 0
M  V30 31641 C 3016.6 -1.90751 -0.432817 0
M  V30 31642 C 3016.98 -1.16336 -1.76151 0
M  V30 31643 O 3016.33 -0.279605 -2.26783 0
M  V30 31644 C 3016.54 -3.43723 -0.604625 0
M  V30 31645 C 3017.89 -4.14903 -0.902237 0
M  V30 31646 O 3018.91 -3.49441 -0.690628 0
M  V30 31647 O 3017.77 -5.3069 -1.30501 0
M  V30 31648 H 3014.86 -0.793844 -0.231821 0
M  V30 31649 H 3017.41 -1.67257 0.286896 0
M  V30 31650 H 3016.18 -3.89891 0.331723 0
M  V30 31651 H 3015.8 -3.73067 -1.37502 0
M  V30 31652 N 3016.8 0.030048 -1.57571 0
M  V30 31653 C 3017.73 1.03048 -2.09531 0
M  V30 31654 C 3018.71 1.37773 -0.997634 0
M  V30 31655 O 3019.9 1.46674 -1.27281 0
M  V30 31656 C 3017.03 2.3317 -2.57389 0
M  V30 31657 C 3015.98 2.1269 -3.71412 0
M  V30 31658 C 3015.31 3.48563 -4.05473 0
M  V30 31659 C 3016.61 1.51387 -4.99879 0
M  V30 31660 H 3018.3 0.597947 -2.93368 0
M  V30 31661 H 3015.85 0.286179 -1.41128 0
M  V30 31662 H 3017.8 3.03485 -2.9236 0
M  V30 31663 H 3016.53 2.78481 -1.70634 0
M  V30 31664 H 3015.18 1.44807 -3.36789 0
M  V30 31665 H 3014.83 3.91521 -3.15786 0
M  V30 31666 H 3014.53 3.35685 -4.82275 0
M  V30 31667 H 3016.06 4.20242 -4.42977 0
M  V30 31668 H 3017.47 2.11619 -5.32813 0
M  V30 31669 H 3015.87 1.49088 -5.81286 0
M  V30 31670 H 3016.94 0.479591 -4.82522 0
M  V30 31671 N 3018.28 1.54674 0.3023 0
M  V30 31672 C 3019.56 1.64569 1.05718 0
M  V30 31673 C 3019.94 0.493144 2.05259 0
M  V30 31674 O 3019.29 -0.510276 2.2273 0
M  V30 31675 C 3019.5 3.0252 1.7402 0
M  V30 31676 C 3020.84 3.5929 2.26265 0
M  V30 31677 O 3021.87 3.04963 1.84054 0
M  V30 31678 O 3020.73 4.5441 3.03602 0
M  V30 31679 H 3017.82 0.667258 0.488565 0
M  V30 31680 H 3020.37 1.67018 0.300492 0
M  V30 31681 H 3019.14 3.77844 1.01734 0
M  V30 31682 H 3018.76 3.03842 2.56448 0
M  V30 31683 N 3019.76 -0.565428 1.47108 0
M  V30 31684 C 3020.69 -1.68817 1.55027 0
M  V30 31685 C 3021.7 -1.56822 0.437128 0
M  V30 31686 O 3022.89 -1.6393 0.706344 0
M  V30 31687 C 3019.99 -3.07218 1.43075 0
M  V30 31688 C 3019.17 -3.45048 2.68813 0
M  V30 31689 C 3018.22 -4.62578 2.50814 0
M  V30 31690 O 3017.25 -4.67571 3.24601 0
M  V30 31691 N 3018.45 -5.58555 1.58103 0
M  V30 31692 H 3021.22 -1.62472 2.51839 0
M  V30 31693 H 3018.78 -0.75186 1.43383 0
M  V30 31694 H 3020.77 -3.83664 1.2878 0
M  V30 31695 H 3019.34 -3.07834 0.543775 0
M  V30 31696 H 3018.56 -2.58133 2.97928 0
M  V30 31697 H 3019.85 -3.67095 3.52305 0
M  V30 31698 H 3019.25 -5.57271 0.972905 0
M  V30 31699 H 3017.8 -6.34361 1.49764 0
M  V30 31700 N 3021.24 -1.35102 -0.811492 0
M  V30 31701 C 3022.48 -1.281 -1.56833 0
M  V30 31702 C 3022.81 0.145936 -1.93952 0
M  V30 31703 O 3022.07 1.11001 -1.61175 0
M  V30 31704 C 3022.37 -2.12835 -2.87117 0
M  V30 31705 C 3022.03 -3.61692 -2.69239 0
M  V30 31706 C 3020.69 -4.02269 -2.64071 0
M  V30 31707 C 3023.05 -4.56167 -2.52114 0
M  V30 31708 C 3020.37 -5.35494 -2.39714 0
M  V30 31709 C 3022.73 -5.89585 -2.29288 0
M  V30 31710 C 3021.39 -6.29311 -2.22539 0
M  V30 31711 H 3020.66 -0.468752 -0.573892 0
M  V30 31712 H 3023.31 -1.66953 -0.93803 0
M  V30 31713 H 3021.61 -1.66847 -3.54499 0
M  V30 31714 H 3023.31 -2.04756 -3.44784 0
M  V30 31715 H 3019.9 -3.2949 -2.74106 0
M  V30 31716 H 3024.08 -4.25707 -2.55122 0
M  V30 31717 H 3019.34 -5.6528 -2.32955 0
M  V30 31718 H 3023.51 -6.62372 -2.15027 0
M  V30 31719 H 3021.14 -7.32476 -2.03427 0
M  V30 31720 N 3022.71 1.03306 -1.19019 0
M  V30 31721 C 3024.13 1.28871 -0.941506 0
M  V30 31722 C 3024.33 1.97718 0.388553 0
M  V30 31723 O 3023.39 2.26248 1.12107 0
M  V30 31724 C 3024.7 2.13993 -2.11253 0
M  V30 31725 C 3026.25 2.27314 -2.15168 0
M  V30 31726 C 3026.72 3.15805 -3.31709 0
M  V30 31727 N 3028.21 3.23394 -3.31619 0
M  V30 31728 C 3028.95 3.92042 -4.18438 0
M  V30 31729 N 3028.44 4.62957 -5.15405 0
M  V30 31730 N 3030.24 3.88399 -4.06328 0
M  V30 31731 H 3022.39 0.570307 -2.046 0
M  V30 31732 H 3024.65 0.314216 -0.894412 0
M  V30 31733 H 3024.36 1.70722 -3.07485 0
M  V30 31734 H 3024.23 3.14694 -2.07961 0
M  V30 31735 H 3026.62 2.69818 -1.19509 0
M  V30 31736 H 3026.7 1.26178 -2.22515 0
M  V30 31737 H 3026.34 2.74011 -4.27645 0
M  V30 31738 H 3026.27 4.16991 -3.21599 0
M  V30 31739 H 3028.76 2.72884 -2.61425 0
M  V30 31740 H 3029.08 5.12958 -5.78009 0
M  V30 31741 H 3027.42 4.61836 -5.19357 0
M  V30 31742 H 3030.61 3.32135 -3.29855 0
M  V30 31743 H 3030.79 4.41627 -4.74204 0
M  V30 31744 N 3024.19 0.99344 1.22346 0
M  V30 31745 C 3025.13 0.489112 2.22897 0
M  V30 31746 C 3026.1 -0.4509 1.56223 0
M  V30 31747 O 3027.29 -0.376319 1.84705 0
M  V30 31748 C 3024.41 -0.290887 3.37449 0
M  V30 31749 C 3023.46 0.595197 4.22326 0
M  V30 31750 S 3024.29 2.05081 4.94674 0
M  V30 31751 C 3025.45 1.28032 6.12665 0
M  V30 31752 H 3025.68 1.34116 2.65331 0
M  V30 31753 H 3023.22 0.800452 1.32031 0
M  V30 31754 H 3025.17 -0.734873 4.03869 0
M  V30 31755 H 3023.83 -1.11821 2.93521 0
M  V30 31756 H 3023.03 -0.00498554 5.04 0
M  V30 31757 H 3022.63 0.97597 3.61041 0
M  V30 31758 H 3024.92 0.548248 6.75278 0
M  V30 31759 H 3025.86 2.07235 6.77096 0
M  V30 31760 H 3026.27 0.793371 5.58897 0
M  V30 31761 N 3025.67 -1.37693 0.766707 0
M  V30 31762 C 3026.92 -1.99057 0.32546 0
M  V30 31763 C 3027.23 -1.61553 -1.10272 0
M  V30 31764 O 3028.44 -2.15983 -1.6451 0
M  V30 31765 C 3026.89 -3.55962 0.530949 0
M  V30 31766 C 3026.5 -4.02408 1.96906 0
M  V30 31767 C 3028.25 -4.24224 0.153072 0
M  V30 31768 C 3026.15 -5.52003 2.12241 0
M  V30 31769 H 3025.08 -0.744718 0.117942 0
M  V30 31770 H 3027.73 -1.57289 0.945119 0
M  V30 31771 H 3026.12 -3.95684 -0.158092 0
M  V30 31772 H 3027.29 -3.73943 2.69264 0
M  V30 31773 H 3025.61 -3.46912 2.30306 0
M  V30 31774 H 3028.2 -5.34133 0.246234 0
M  V30 31775 H 3028.55 -4.06543 -0.896025 0
M  V30 31776 H 3029.08 -3.89786 0.794467 0
M  V30 31777 H 3025.82 -5.74605 3.15452 0
M  V30 31778 H 3025.34 -5.82168 1.4436 0
M  V30 31779 H 3027.02 -6.17898 1.91861 0
M  V30 31780 N 3027.15 -0.516835 -1.48884 0
M  V30 31781 C 3028.11 0.242216 -2.27917 0
M  V30 31782 C 3029.11 0.879711 -1.34602 0
M  V30 31783 O 3030.3 0.741792 -1.57617 0
M  V30 31784 C 3027.43 1.34909 -3.13069 0
M  V30 31785 H 3028.63 -0.451496 -2.96482 0
M  V30 31786 H 3026.18 -0.272321 -1.53909 0
M  V30 31787 H 3026.91 2.07646 -2.49105 0
M  V30 31788 H 3026.7 0.897246 -3.81696 0
M  V30 31789 H 3028.19 1.88334 -3.7272 0
M  V30 31790 N 3028.63 1.55583 -0.251365 0
M  V30 31791 C 3029.86 2.03157 0.375606 0
M  V30 31792 C 3030.26 1.12986 1.51759 0
M  V30 31793 O 3029.61 0.137602 1.83184 0
M  V30 31794 C 3029.67 3.46968 0.94094 0
M  V30 31795 C 3029.33 4.56947 -0.069369 0
M  V30 31796 C 3030.33 5.1239 -0.8805 0
M  V30 31797 C 3028.02 5.01915 -0.19675 0
M  V30 31798 C 3030.01 6.11296 -1.80543 0
M  V30 31799 C 3027.7 6.00652 -1.12518 0
M  V30 31800 C 3028.69 6.55222 -1.92804 0
M  V30 31801 O 3028.38 7.52033 -2.84081 0
M  V30 31802 H 3028.11 0.66959 0.0928718 0
M  V30 31803 H 3030.67 2.01964 -0.374151 0
M  V30 31804 H 3028.9 3.45325 1.74034 0
M  V30 31805 H 3030.59 3.78016 1.47846 0
M  V30 31806 H 3031.35 4.78478 -0.7927 0
M  V30 31807 H 3027.23 4.591 0.418106 0
M  V30 31808 H 3030.78 6.53816 -2.43251 0
M  V30 31809 H 3026.67 6.33984 -1.21388 0
M  V30 31810 H 3027.44 7.69665 -2.78492 0
M  V30 31811 N 3030.1 -0.0216912 1.57585 0
M  V30 31812 C 3031.35 -0.709608 1.89233 0
M  V30 31813 C 3031.67 -1.755 0.849995 0
M  V30 31814 O 3030.94 -1.9556 -0.115451 0
M  V30 31815 H 3029.52 -0.26508 0.698385 0
M  V30 31816 H 3032.19 0.0141031 1.94895 0
M  V30 31817 H 3031.28 -1.19454 2.88335 0
M  V30 31818 N 3031.58 -1.54832 -0.294093 0
M  V30 31819 C 3032.86 -1.65127 -1.04844 0
M  V30 31820 C 3033.24 -0.504022 -2.04995 0
M  V30 31821 O 3032.59 0.498457 -2.22997 0
M  V30 31822 C 3032.8 -3.03438 -1.72413 0
M  V30 31823 C 3034.15 -3.60485 -2.24356 0
M  V30 31824 O 3035.17 -3.05935 -1.82434 0
M  V30 31825 O 3034.03 -4.56013 -3.01188 0
M  V30 31826 H 3031.12 -0.669839 -0.48502 0
M  V30 31827 H 3033.67 -1.67175 -0.29163 0
M  V30 31828 H 3032.44 -3.78378 -0.997285 0
M  V30 31829 H 3032.06 -3.05198 -2.54833 0
M  V30 31830 N 3033.06 0.557619 -1.47405 0
M  V30 31831 C 3034.34 1.3184 -1.4449 0
M  V30 31832 C 3034.72 2.10624 -0.141637 0
M  V30 31833 O 3034.07 2.11005 0.876871 0
M  V30 31834 C 3034.28 2.22327 -2.6902 0
M  V30 31835 C 3035.62 2.83359 -3.16217 0
M  V30 31836 O 3036.65 2.32629 -2.69745 0
M  V30 31837 O 3035.51 3.75564 -3.97006 0
M  V30 31838 H 3032.6 0.593629 -0.57579 0
M  V30 31839 H 3035.15 0.576556 -1.59606 0
M  V30 31840 H 3033.92 1.63709 -3.55408 0
M  V30 31841 H 3033.54 3.03808 -2.56489 0
M  V30 31842 N 3034.54 1.35531 0.804316 0
M  V30 31843 C 3035.79 1.29121 1.56383 0
M  V30 31844 C 3036.12 -0.133501 1.93741 0
M  V30 31845 O 3035.39 -1.08341 1.61531 0
M  V30 31846 C 3035.68 2.19986 2.85093 0
M  V30 31847 C 3035.53 3.71085 2.54197 0
M  V30 31848 C 3036.85 2.09913 3.86813 0
M  V30 31849 H 3033.97 0.470378 0.567374 0
M  V30 31850 H 3036.61 1.65952 0.925206 0
M  V30 31851 H 3034.76 1.88707 3.39591 0
M  V30 31852 H 3036.43 4.12816 2.05865 0
M  V30 31853 H 3034.67 3.91254 1.87357 0
M  V30 31854 H 3035.35 4.30054 3.4606 0
M  V30 31855 H 3037.82 2.37415 3.41721 0
M  V30 31856 H 3036.7 2.75686 4.74645 0
M  V30 31857 H 3036.96 1.08178 4.28661 0
M  V30 31858 N 3036.02 -1.02674 1.19565 0
M  V30 31859 C 3037.27 -1.75512 0.993895 0
M  V30 31860 C 3037.58 -1.89724 -0.475849 0
M  V30 31861 O 3038.79 -2.59554 -0.796479 0
M  V30 31862 C 3037.24 -3.15625 1.72942 0
M  V30 31863 C 3036.85 -3.0946 3.23942 0
M  V30 31864 C 3038.59 -3.92744 1.61099 0
M  V30 31865 C 3036.5 -4.44517 3.90075 0
M  V30 31866 H 3035.43 -0.657954 0.368255 0
M  V30 31867 H 3038.08 -1.14889 1.43083 0
M  V30 31868 H 3036.46 -3.76729 1.22031 0
M  V30 31869 H 3037.64 -2.57724 3.81988 0
M  V30 31870 H 3035.95 -2.45837 3.36085 0
M  V30 31871 H 3038.55 -4.92646 2.07856 0
M  V30 31872 H 3038.89 -4.12441 0.565487 0
M  V30 31873 H 3039.43 -3.38246 2.09367 0
M  V30 31874 H 3036.16 -4.30024 4.94732 0
M  V30 31875 H 3035.68 -4.963 3.36818 0
M  V30 31876 H 3037.36 -5.13394 3.93745 0
M  V30 31877 N 3037.5 -0.999914 -1.21817 0
M  V30 31878 C 3038.46 -0.561083 -2.22226 0
M  V30 31879 C 3039.46 0.35983 -1.56722 0
M  V30 31880 O 3040.65 0.150818 -1.73546 0
M  V30 31881 C 3037.78 0.182927 -3.40409 0
M  V30 31882 H 3038.97 -1.44914 -2.62564 0
M  V30 31883 H 3036.53 -0.787874 -1.3499 0
M  V30 31884 H 3037.26 1.08665 -3.05553 0
M  V30 31885 H 3037.05 -0.478399 -3.89171 0
M  V30 31886 H 3038.54 0.477879 -4.14857 0
M  V30 31887 N 3038.97 1.37284 -0.773999 0
M  V30 31888 C 3040.2 2.04432 -0.349597 0
M  V30 31889 C 3040.62 1.57992 1.02079 0
M  V30 31890 O 3039.98 0.741201 1.65457 0
M  V30 31891 C 3040.03 3.58326 -0.404355 0
M  V30 31892 O 3039.13 4.08094 0.594375 0
M  V30 31893 H 3038.47 0.64661 -0.15097 0
M  V30 31894 H 3041 1.75553 -1.05082 0
M  V30 31895 H 3041.01 4.07155 -0.26245 0
M  V30 31896 H 3039.69 3.91482 -1.4041 0
M  V30 31897 H 3038.27 3.70579 0.415403 0
M  V30 31898 N 3040.45 0.524724 1.48608 0
M  V30 31899 C 3041.68 -0.00738237 2.06599 0
M  V30 31900 C 3042.09 -1.29184 1.38232 0
M  V30 31901 O 3041.43 -1.77796 0.461994 0
M  V30 31902 C 3041.49 -0.307261 3.58185 0
M  V30 31903 C 3041.16 0.882943 4.48389 0
M  V30 31904 C 3042.16 1.77993 4.88482 0
M  V30 31905 C 3039.84 1.08845 4.90365 0
M  V30 31906 C 3041.83 2.86637 5.69313 0
M  V30 31907 C 3039.52 2.17804 5.70968 0
M  V30 31908 C 3040.52 3.06533 6.10349 0
M  V30 31909 O 3040.21 4.13608 6.89336 0
M  V30 31910 H 3039.94 0.0279965 0.67542 0
M  V30 31911 H 3042.49 0.728234 1.92057 0
M  V30 31912 H 3040.72 -1.09678 3.7082 0
M  V30 31913 H 3042.41 -0.780816 3.98319 0
M  V30 31914 H 3043.18 1.63307 4.56679 0
M  V30 31915 H 3039.06 0.407116 4.59199 0
M  V30 31916 H 3042.6 3.55921 5.99972 0
M  V30 31917 H 3038.5 2.32476 6.02184 0
M  V30 31918 H 3039.27 4.11253 7.07682 0
M  V30 31919 N 3041.93 -1.55447 0.259613 0
M  V30 31920 C 3043.34 -1.85136 -0.241133 0
M  V30 31921 C 3043.69 -1.18156 -1.56632 0
M  V30 31922 O 3042.82 -0.464388 -2.11358 0
M  V30 31923 C 3043.41 -3.35874 -0.444296 0
M  V30 31924 C 3041.97 -3.65744 -0.889289 0
M  V30 31925 C 3041.12 -2.77288 0.0262961 0
M  V30 31926 H 3044.07 -1.51209 0.481835 0
M  V30 31927 H 3044.09 -3.58141 -1.28511 0
M  V30 31928 H 3043.6 -3.84596 0.520357 0
M  V30 31929 H 3041.7 -3.2251 -1.86596 0
M  V30 31930 H 3041.82 -4.73392 -0.737348 0
M  V30 31931 H 3040.18 -2.49995 -0.487317 0
M  V30 31932 H 3040.96 -3.28819 0.986552 0
M  V30 31933 N 3043.41 0.0133338 -1.57594 0
M  V30 31934 C 3044.65 0.696423 -1.91106 0
M  V30 31935 C 3045.01 1.72115 -0.859902 0
M  V30 31936 O 3044.3 1.91162 0.129546 0
M  V30 31937 C 3044.5 1.3933 -3.29123 0
M  V30 31938 C 3044.32 0.437587 -4.47566 0
M  V30 31939 C 3043.09 0.0528565 -5.05272 0
M  V30 31940 C 3045.29 -0.290627 -5.13478 0
M  V30 31941 N 3043.27 -0.902462 -6.0723 0
M  V30 31942 C 3044.65 -1.10107 -6.10145 0
M  V30 31943 C 3046.7 -0.355891 -4.96626 0
M  V30 31944 C 3045.4 -1.97081 -6.91774 0
M  V30 31945 C 3047.43 -1.21281 -5.78831 0
M  V30 31946 C 3046.79 -2.01114 -6.7508 0
M  V30 31947 H 3042.89 0.228451 -0.747886 0
M  V30 31948 H 3045.47 -0.0438805 -1.94651 0
M  V30 31949 H 3043.65 2.10397 -3.26478 0
M  V30 31950 H 3045.38 2.03002 -3.50103 0
M  V30 31951 H 3042.13 0.418403 -4.71748 0
M  V30 31952 H 3042.56 -1.3751 -6.62888 0
M  V30 31953 H 3047.2 0.247031 -4.22078 0
M  V30 31954 H 3044.92 -2.58446 -7.65657 0
M  V30 31955 H 3048.5 -1.26704 -5.67836 0
M  V30 31956 H 3047.38 -2.6635 -7.37582 0
M  V30 31957 N 3044.89 1.54985 0.285878 0
M  V30 31958 C 3046.3 1.65825 0.85784 0
M  V30 31959 C 3046.65 0.576796 1.8753 0
M  V30 31960 O 3045.77 -0.283978 2.14529 0
M  V30 31961 C 3046.37 3.00607 1.56272 0
M  V30 31962 C 3044.93 3.13517 2.08288 0
M  V30 31963 C 3044.07 2.61573 0.920587 0
M  V30 31964 H 3047.02 1.58577 0.0625184 0
M  V30 31965 H 3047.05 2.92876 2.42907 0
M  V30 31966 H 3046.56 3.79296 0.82195 0
M  V30 31967 H 3044.66 2.39577 2.85366 0
M  V30 31968 H 3044.77 4.19896 2.30703 0
M  V30 31969 H 3043.14 2.18405 1.31039 0
M  V30 31970 H 3043.92 3.42754 0.193533 0
M  V30 31971 N 3046.36 -0.549794 1.47699 0
M  V30 31972 C 3047.61 -1.30301 1.53963 0
M  V30 31973 C 3047.93 -1.94472 0.209765 0
M  V30 31974 O 3049.13 -2.71083 0.150465 0
M  V30 31975 C 3047.59 -2.36323 2.7144 0
M  V30 31976 C 3047.2 -1.78309 4.10986 0
M  V30 31977 C 3048.94 -3.12778 2.87002 0
M  V30 31978 C 3046.85 -2.82155 5.19752 0
M  V30 31979 H 3045.78 -0.489964 0.573106 0
M  V30 31980 H 3048.43 -0.583058 1.7399 0
M  V30 31981 H 3046.81 -3.11265 2.44806 0
M  V30 31982 H 3047.98 -1.09689 4.47554 0
M  V30 31983 H 3046.3 -1.14413 4.00373 0
M  V30 31984 H 3048.9 -3.90341 3.65429 0
M  V30 31985 H 3049.24 -3.67423 1.95719 0
M  V30 31986 H 3049.77 -2.44949 3.13441 0
M  V30 31987 H 3046.51 -2.32356 6.12936 0
M  V30 31988 H 3046.03 -3.49163 4.87694 0
M  V30 31989 H 3047.71 -3.45511 5.4702 0
M  V30 31990 N 3047.84 -1.35955 -0.797117 0
M  V30 31991 C 3049.12 -1.20312 -1.54222 0
M  V30 31992 C 3049.5 0.213889 -2.10014 0
M  V30 31993 O 3048.85 1.21859 -1.93294 0
M  V30 31994 C 3049.06 -2.27888 -2.64326 0
M  V30 31995 C 3050.41 -2.64171 -3.32414 0
M  V30 31996 O 3051.43 -2.26873 -2.74603 0
M  V30 31997 O 3050.29 -3.28339 -4.36871 0
M  V30 31998 H 3047.38 -0.467986 -0.681849 0
M  V30 31999 H 3049.93 -1.47664 -0.836262 0
M  V30 32000 H 3048.7 -3.22889 -2.21039 0
M  V30 32001 H 3048.32 -2.01859 -3.42548 0
M  V30 32002 N 3049.32 1.02038 -1.20108 0
M  V30 32003 C 3050.28 2.08662 -0.948298 0
M  V30 32004 C 3051.28 1.60627 0.0746471 0
M  V30 32005 O 3052.47 1.73454 -0.161011 0
M  V30 32006 C 3049.61 3.38216 -0.426914 0
M  V30 32007 H 3050.8 2.32521 -1.89404 0
M  V30 32008 H 3048.35 1.1878 -1.01592 0
M  V30 32009 H 3049.09 3.20031 0.524476 0
M  V30 32010 H 3048.87 3.74406 -1.16458 0
M  V30 32011 H 3050.36 4.1673 -0.26942 0
M  V30 32012 N 3050.8 1.00636 1.21285 0
M  V30 32013 C 3052.02 0.708476 1.94924 0
M  V30 32014 C 3052.45 -0.722752 1.7366 0
M  V30 32015 O 3051.81 -1.49591 1.02432 0
M  V30 32016 C 3051.85 1.03673 3.45376 0
M  V30 32017 O 3050.96 0.142733 4.12153 0
M  V30 32018 H 3050.3 0.263834 0.609334 0
M  V30 32019 H 3052.83 1.34697 1.54006 0
M  V30 32020 H 3052.84 0.984156 3.95952 0
M  V30 32021 H 3051.51 2.07957 3.60176 0
M  V30 32022 H 3050.09 0.251953 3.72048 0
M  V30 32023 N 3052.28 -1.36872 0.781268 0
M  V30 32024 C 3053.21 -2.32741 0.188169 0
M  V30 32025 C 3054.19 -1.5625 -0.672299 0
M  V30 32026 O 3055.37 -1.84444 -0.607802 0
M  V30 32027 C 3052.5 -3.40492 -0.684281 0
M  V30 32028 C 3051.46 -4.27933 0.0756394 0
M  V30 32029 C 3050.78 -5.2678 -0.916875 0
M  V30 32030 C 3052.08 -5.0687 1.26015 0
M  V30 32031 H 3053.78 -2.82591 0.989066 0
M  V30 32032 H 3051.32 -1.35868 0.477062 0
M  V30 32033 H 3053.28 -4.06543 -1.10908 0
M  V30 32034 H 3052 -2.89189 -1.5178 0
M  V30 32035 H 3050.66 -3.63427 0.481322 0
M  V30 32036 H 3050.31 -4.71754 -1.7452 0
M  V30 32037 H 3050.01 -5.86148 -0.412897 0
M  V30 32038 H 3051.53 -5.95706 -1.34041 0
M  V30 32039 H 3052.94 -5.66007 0.911524 0
M  V30 32040 H 3051.34 -5.7561 1.69686 0
M  V30 32041 H 3052.41 -4.38988 2.05956 0
M  V30 32042 N 3053.75 -0.532597 -1.48328 0
M  V30 32043 C 3054.68 0.21747 -2.32485 0
M  V30 32044 C 3055.67 0.932573 -1.42257 0
M  V30 32045 O 3056.85 0.917843 -1.71141 0
M  V30 32046 C 3053.98 1.26324 -3.23511 0
M  V30 32047 C 3052.93 0.666117 -4.22785 0
M  V30 32048 C 3052.26 1.81473 -5.02963 0
M  V30 32049 C 3053.56 -0.363905 -5.21031 0
M  V30 32050 H 3055.25 -0.485066 -2.95445 0
M  V30 32051 H 3052.8 -0.234719 -1.42074 0
M  V30 32052 H 3054.75 1.79594 -3.81214 0
M  V30 32053 H 3053.48 1.99539 -2.58557 0
M  V30 32054 H 3052.14 0.154916 -3.66273 0
M  V30 32055 H 3051.78 2.53532 -4.34431 0
M  V30 32056 H 3051.48 1.4211 -5.70157 0
M  V30 32057 H 3053.01 2.35116 -5.63518 0
M  V30 32058 H 3054.42 0.0818072 -5.73242 0
M  V30 32059 H 3052.82 -0.675061 -5.96291 0
M  V30 32060 H 3053.89 -1.26873 -4.68008 0
M  V30 32061 N 3055.23 1.55307 -0.267853 0
M  V30 32062 C 3056.2 2.20944 0.609611 0
M  V30 32063 C 3057.2 1.18505 1.08688 0
M  V30 32064 O 3058.39 1.43457 0.988223 0
M  V30 32065 C 3055.52 2.86965 1.84022 0
M  V30 32066 H 3056.71 2.99878 0.0366279 0
M  V30 32067 H 3054.26 1.56289 -0.0184216 0
M  V30 32068 H 3055 2.12024 2.4539 0
M  V30 32069 H 3054.78 3.62025 1.50599 0
M  V30 32070 H 3056.27 3.37133 2.46436 0
M  V30 32071 N 3056.71 -0.00497598 1.57599 0
M  V30 32072 C 3057.62 -1.01442 2.11534 0
M  V30 32073 C 3058.64 -1.38029 1.05944 0
M  V30 32074 O 3059.81 -1.46862 1.37817 0
M  V30 32075 C 3056.88 -2.2891 2.60386 0
M  V30 32076 C 3055.94 -1.98682 3.80557 0
M  V30 32077 C 3055.17 -3.20073 4.2707 0
M  V30 32078 O 3055.39 -4.31587 3.72946 0
M  V30 32079 O 3054.33 -3.04362 5.19276 0
M  V30 32080 H 3058.15 -0.585958 2.97994 0
M  V30 32081 H 3055.74 -0.223493 1.47719 0
M  V30 32082 H 3057.62 -3.03804 2.92029 0
M  V30 32083 H 3056.3 -2.71004 1.77027 0
M  V30 32084 H 3055.2 -1.2128 3.53895 0
M  V30 32085 H 3056.54 -1.61428 4.64975 0
M  V30 32086 N 3058.19 -1.55135 -0.277654 0
M  V30 32087 C 3059.15 -1.86926 -1.32632 0
M  V30 32088 C 3060.15 -0.743532 -1.42577 0
M  V30 32089 O 3061.34 -1.01173 -1.41808 0
M  V30 32090 C 3058.47 -2.07039 -2.70828 0
M  V30 32091 H 3059.67 -2.80665 -1.05675 0
M  V30 32092 H 3057.22 -1.47555 -0.515491 0
M  V30 32093 H 3057.95 -1.15666 -3.02972 0
M  V30 32094 H 3057.74 -2.88997 -2.64996 0
M  V30 32095 H 3059.23 -2.32924 -3.46606 0
M  V30 32096 N 3059.67 0.541953 -1.47989 0
M  V30 32097 C 3060.91 1.29584 -1.55088 0
M  V30 32098 C 3061.24 1.9374 -0.221338 0
M  V30 32099 O 3060.51 1.80721 0.756096 0
M  V30 32100 H 3059.09 0.481256 -0.571316 0
M  V30 32101 H 3061.75 0.631642 -1.84381 0
M  V30 32102 H 3060.84 2.0814 -2.3256 0
M  V30 32103 N 3061.15 1.36376 0.789896 0
M  V30 32104 C 3062.09 1.30664 1.90252 0
M  V30 32105 C 3063.06 0.175419 1.65171 0
M  V30 32106 O 3064.25 0.361856 1.87337 0
M  V30 32107 C 3061.39 1.10131 3.27055 0
M  V30 32108 C 3060.5 2.32323 3.64211 0
M  V30 32109 C 3059.64 2.04806 4.9013 0
M  V30 32110 C 3058.67 3.22962 5.19963 0
M  V30 32111 N 3057.81 2.95113 6.37066 0
M  V30 32112 H 3062.65 2.258 1.9447 0
M  V30 32113 H 3060.19 1.12225 0.951002 0
M  V30 32114 H 3062.15 0.962525 4.05945 0
M  V30 32115 H 3060.78 0.1865 3.22261 0
M  V30 32116 H 3059.83 2.57007 2.80449 0
M  V30 32117 H 3061.14 3.20499 3.82207 0
M  V30 32118 H 3060.29 1.87855 5.76884 0
M  V30 32119 H 3059.03 1.13941 4.74203 0
M  V30 32120 H 3058.04 3.40473 4.31693 0
M  V30 32121 H 3059.26 4.14653 5.3781 0
M  V30 32122 H 3057.21 2.06859 6.22532 0
M  V30 32123 H 3057.13 3.76827 6.55391 0
M  V30 32124 H 3058.39 2.8174 7.26803 0
M  V30 32125 N 3062.62 -1.014 1.20647 0
M  V30 32126 C 3063.9 -1.72227 0.927206 0
M  V30 32127 C 3064.28 -2.03444 -0.563346 0
M  V30 32128 O 3063.63 -1.70099 -1.52573 0
M  V30 32129 C 3063.84 -2.98825 1.8029 0
M  V30 32130 C 3065.19 -3.72037 2.04631 0
M  V30 32131 O 3066.21 -3.08787 1.77565 0
M  V30 32132 O 3065.07 -4.85782 2.50355 0
M  V30 32133 H 3062.16 -0.750724 0.346904 0
M  V30 32134 H 3064.71 -1.07224 1.31533 0
M  V30 32135 H 3063.48 -2.72098 2.81209 0
M  V30 32136 H 3063.1 -3.71569 1.41501 0
M  V30 32137 N 3064.1 -1.01278 -1.2075 0
M  V30 32138 C 3065.33 -0.717968 -1.93723 0
M  V30 32139 C 3065.74 0.724702 -1.7477 0
M  V30 32140 O 3065.08 1.50283 -1.05644 0
M  V30 32141 C 3065.14 -0.969015 -3.46194 0
M  V30 32142 C 3064.81 -2.40005 -3.88904 0
M  V30 32143 C 3065.81 -3.38068 -3.94976 0
M  V30 32144 C 3063.49 -2.73977 -4.21001 0
M  V30 32145 C 3065.48 -4.68166 -4.32549 0
M  V30 32146 C 3063.17 -4.0429 -4.5825 0
M  V30 32147 C 3064.17 -5.01196 -4.63996 0
M  V30 32148 O 3063.86 -6.29177 -5.00392 0
M  V30 32149 H 3063.59 -0.263197 -0.622658 0
M  V30 32150 H 3066.14 -1.3558 -1.54296 0
M  V30 32151 H 3064.37 -0.27402 -3.85728 0
M  V30 32152 H 3066.06 -0.666382 -4.00393 0
M  V30 32153 H 3066.83 -3.13157 -3.70348 0
M  V30 32154 H 3062.71 -1.9924 -4.15722 0
M  V30 32155 H 3066.25 -5.43803 -4.36949 0
M  V30 32156 H 3062.15 -4.28981 -4.82333 0
M  V30 32157 H 3062.92 -6.33408 -5.18398 0
M  V30 32158 N 3065.58 1.36456 -0.788516 0
M  V30 32159 C 3066.83 1.98872 -0.359784 0
M  V30 32160 C 3067.15 1.62894 1.07194 0
M  V30 32161 O 3066.42 0.902493 1.73873 0
M  V30 32162 H 3065 0.735594 -0.130042 0
M  V30 32163 H 3067.66 1.66667 -1.01036 0
M  V30 32164 H 3066.76 3.08826 -0.45089 0
M  V30 32165 N 3067.06 0.540456 1.48043 0
M  V30 32166 C 3067.99 -0.205138 2.32597 0
M  V30 32167 C 3068.97 -0.925015 1.4275 0
M  V30 32168 O 3070.15 -0.908754 1.71625 0
M  V30 32169 C 3067.28 -1.24606 3.24177 0
M  V30 32170 C 3066.24 -0.643686 4.23132 0
M  V30 32171 C 3065.56 -1.78803 5.03918 0
M  V30 32172 C 3066.86 0.391531 5.2083 0
M  V30 32173 H 3068.56 0.500727 2.95183 0
M  V30 32174 H 3066.1 0.24225 1.41948 0
M  V30 32175 H 3068.06 -1.7757 3.82161 0
M  V30 32176 H 3066.78 -1.98165 2.59612 0
M  V30 32177 H 3065.44 -0.135489 3.6635 0
M  V30 32178 H 3065.09 -2.51225 4.3577 0
M  V30 32179 H 3064.79 -1.39084 5.70902 0
M  V30 32180 H 3066.31 -2.32124 5.64757 0
M  V30 32181 H 3067.73 -0.0514056 5.73277 0
M  V30 32182 H 3066.12 0.706674 5.95925 0
M  V30 32183 H 3067.19 1.29354 4.67328 0
M  V30 32184 N 3068.54 -1.55163 0.276085 0
M  V30 32185 C 3069.78 -1.98796 -0.341063 0
M  V30 32186 C 3070.1 -1.16794 -1.56903 0
M  V30 32187 O 3071.3 -1.50575 -2.25919 0
M  V30 32188 C 3069.76 -3.53831 -0.658169 0
M  V30 32189 C 3069.37 -4.4461 0.55005 0
M  V30 32190 C 3071.11 -4.0605 -1.23789 0
M  V30 32191 C 3069.02 -5.91036 0.207477 0
M  V30 32192 H 3067.95 -0.742496 -0.131211 0
M  V30 32193 H 3070.6 -1.79503 0.38089 0
M  V30 32194 H 3068.98 -3.68927 -1.43905 0
M  V30 32195 H 3070.16 -4.41282 1.32689 0
M  V30 32196 H 3068.47 -4.0303 1.04668 0
M  V30 32197 H 3071.07 -5.12994 -1.50802 0
M  V30 32198 H 3071.41 -3.55143 -2.17208 0
M  V30 32199 H 3071.94 -3.94396 -0.519275 0
M  V30 32200 H 3068.68 -6.46041 1.10957 0
M  V30 32201 H 3068.2 -5.97431 -0.532582 0
M  V30 32202 H 3069.88 -6.46691 -0.199959 0
M  V30 32203 N 3070.01 -0.00338196 -1.576 0
M  V30 32204 C 3070.95 1.02096 -2.04087 0
M  V30 32205 C 3071.92 1.3328 -0.931406 0
M  V30 32206 O 3073.11 1.45387 -1.19979 0
M  V30 32207 C 3070.24 2.34771 -2.44132 0
M  V30 32208 C 3069.28 2.19226 -3.65845 0
M  V30 32209 S 3070.11 1.51512 -5.13619 0
M  V30 32210 C 3071.27 2.8561 -5.56936 0
M  V30 32211 H 3071.5 0.625141 -2.90653 0
M  V30 32212 H 3069.04 0.207584 -1.52998 0
M  V30 32213 H 3070.99 3.11055 -2.67871 0
M  V30 32214 H 3069.66 2.71492 -1.57959 0
M  V30 32215 H 3068.85 3.17246 -3.91626 0
M  V30 32216 H 3068.45 1.51085 -3.42125 0
M  V30 32217 H 3070.74 3.81904 -5.59603 0
M  V30 32218 H 3071.69 2.64525 -6.56835 0
M  V30 32219 H 3072.09 2.89675 -4.84509 0
M  V30 32220 N 3071.49 1.5528 0.269423 0
M  V30 32221 C 3072.72 1.80084 1.01869 0
M  V30 32222 C 3073.13 0.575948 1.79801 0
M  V30 32223 O 3072.49 -0.45505 1.76736 0
M  V30 32224 C 3072.54 3.02817 1.97444 0
M  V30 32225 O 3072.26 4.20576 1.2267 0
M  V30 32226 C 3073.76 3.40252 2.84154 0
M  V30 32227 H 3070.98 0.599815 0.30077 0
M  V30 32228 H 3073.53 2.02301 0.299124 0
M  V30 32229 H 3071.68 2.82716 2.64859 0
M  V30 32230 H 3072.1 4.89986 1.87121 0
M  V30 32231 H 3073.57 4.2929 3.47007 0
M  V30 32232 H 3074.05 2.59815 3.54108 0
M  V30 32233 H 3074.65 3.62624 2.22226 0
M  V30 32234 N 3072.97 -0.534097 1.48274 0
M  V30 32235 C 3074.38 -1.11607 1.49669 0
M  V30 32236 C 3074.73 -1.94413 0.264173 0
M  V30 32237 O 3073.86 -2.07055 -0.629047 0
M  V30 32238 C 3074.45 -2.03074 2.71194 0
M  V30 32239 C 3073.01 -2.56498 2.75474 0
M  V30 32240 C 3072.16 -1.33368 2.43122 0
M  V30 32241 H 3075.11 -0.319551 1.5545 0
M  V30 32242 H 3075.13 -2.87299 2.49478 0
M  V30 32243 H 3074.64 -1.42779 3.60882 0
M  V30 32244 H 3072.74 -3.20526 1.89984 0
M  V30 32245 H 3072.86 -2.95912 3.76793 0
M  V30 32246 H 3071.22 -1.6481 1.9419 0
M  V30 32247 H 3072 -0.748316 3.35045 0
M  V30 32248 N 3074.45 -1.36793 -0.782652 0
M  V30 32249 C 3075.41 -1.3151 -1.87717 0
M  V30 32250 C 3076.41 -0.221377 -1.59269 0
M  V30 32251 O 3077.6 -0.476573 -1.67554 0
M  V30 32252 C 3074.73 -1.04031 -3.24639 0
M  V30 32253 H 3075.93 -2.28857 -1.93816 0
M  V30 32254 H 3073.48 -1.21664 -0.981205 0
M  V30 32255 H 3074.21 -0.0717009 -3.24221 0
M  V30 32256 H 3074 -1.83186 -3.46678 0
M  V30 32257 H 3075.49 -1.02956 -4.04709 0
M  V30 32258 N 3075.93 1.00759 -1.21184 0
M  V30 32259 C 3077.2 1.71733 -0.936327 0
M  V30 32260 C 3077.58 2.0374 0.552549 0
M  V30 32261 O 3076.93 1.70906 1.51669 0
M  V30 32262 C 3077.14 2.97865 -1.81872 0
M  V30 32263 C 3078.49 3.70947 -2.06601 0
M  V30 32264 O 3079.51 3.07841 -1.792 0
M  V30 32265 O 3078.37 4.84448 -2.52928 0
M  V30 32266 H 3075.47 0.748874 -0.35088 0
M  V30 32267 H 3078.01 1.06525 -1.321 0
M  V30 32268 H 3076.78 2.70602 -2.82648 0
M  V30 32269 H 3076.41 3.70813 -1.4347 0
M  V30 32270 N 3077.4 1.01917 1.20211 0
M  V30 32271 C 3078.35 0.591611 2.23089 0
M  V30 32272 C 3079.32 -0.389621 1.61466 0
M  V30 32273 O 3080.51 -0.288478 1.88607 0
M  V30 32274 C 3077.65 -0.0613422 3.45045 0
M  V30 32275 C 3076.76 0.964762 4.21089 0
M  V30 32276 C 3075.89 0.282592 5.30448 0
M  V30 32277 C 3074.93 1.29528 5.98238 0
M  V30 32278 N 3074.07 0.639595 6.99181 0
M  V30 32279 H 3078.91 1.47352 2.5902 0
M  V30 32280 H 3076.45 0.737569 1.27273 0
M  V30 32281 H 3078.41 -0.457067 4.14689 0
M  V30 32282 H 3077.04 -0.906883 3.09799 0
M  V30 32283 H 3076.09 1.47863 3.50486 0
M  V30 32284 H 3077.4 1.73483 4.67659 0
M  V30 32285 H 3076.55 -0.168496 6.06466 0
M  V30 32286 H 3075.29 -0.519758 4.84922 0
M  V30 32287 H 3074.3 1.75673 5.20979 0
M  V30 32288 H 3075.52 2.09895 6.45849 0
M  V30 32289 H 3073.47 -0.14284 6.55844 0
M  V30 32290 H 3073.39 1.34769 7.43891 0
M  V30 32291 H 3074.65 0.212184 7.79211 0
M  V30 32292 N 3078.88 -1.36036 0.795742 0
M  V30 32293 C 3080.13 -1.98678 0.370326 0
M  V30 32294 C 3080.45 -1.6346 -1.06329 0
M  V30 32295 O 3079.72 -0.911701 -1.73392 0
M  V30 32296 H 3078.3 -0.734894 0.133941 0
M  V30 32297 H 3080.96 -1.66128 1.01918 0
M  V30 32298 H 3080.06 -3.08582 0.467261 0
M  V30 32299 N 3080.36 -0.5483 -1.47755 0
M  V30 32300 C 3081.27 0.207732 -2.33678 0
M  V30 32301 C 3082.29 0.920817 -1.47638 0
M  V30 32302 O 3083.46 0.891699 -1.80584 0
M  V30 32303 C 3080.53 1.22997 -3.24149 0
M  V30 32304 C 3079.59 0.525275 -4.26074 0
M  V30 32305 C 3078.82 1.49881 -5.12222 0
M  V30 32306 O 3079.04 2.73296 -5.00665 0
M  V30 32307 O 3077.98 1.02818 -5.93053 0
M  V30 32308 H 3081.8 -0.496847 -2.99608 0
M  V30 32309 H 3079.39 -0.309008 -1.46169 0
M  V30 32310 H 3081.27 1.82027 -3.80058 0
M  V30 32311 H 3079.95 1.91663 -2.60858 0
M  V30 32312 H 3078.85 -0.105993 -3.7395 0
M  V30 32313 H 3080.19 -0.119773 -4.92054 0
M  V30 32314 N 3081.84 1.55014 -0.28431 0
M  V30 32315 C 3083.08 2.01704 0.330906 0
M  V30 32316 C 3083.44 1.16835 1.5236 0
M  V30 32317 O 3084.64 1.53146 2.20907 0
M  V30 32318 C 3082.91 3.50584 0.69465 0
M  V30 32319 S 3084.47 4.19253 1.2951 0
M  V30 32320 H 3081.29 0.703579 0.102458 0
M  V30 32321 H 3083.89 1.91189 -0.40829 0
M  V30 32322 H 3082.6 4.09996 -0.182128 0
M  V30 32323 H 3082.13 3.65102 1.46507 0
M  V30 32324 H 3084.14 4.23642 2.58344 0
M  V30 32325 N 3083.32 0.0117398 1.57596 0
M  V30 32326 C 3084.56 -0.670634 1.91073 0
M  V30 32327 C 3084.89 -1.73123 0.886487 0
M  V30 32328 O 3084.15 -1.95407 -0.107101 0
M  V30 32329 C 3084.45 -1.34076 3.31298 0
M  V30 32330 C 3084.11 -0.412226 4.49012 0
M  V30 32331 C 3082.77 -0.156607 4.80945 0
M  V30 32332 C 3085.13 0.226386 5.20708 0
M  V30 32333 C 3082.45 0.745722 5.81941 0
M  V30 32334 C 3084.81 1.11666 6.22666 0
M  V30 32335 C 3083.47 1.38134 6.53051 0
M  V30 32336 H 3082.74 -0.245402 0.699184 0
M  V30 32337 H 3085.39 0.0697847 1.91373 0
M  V30 32338 H 3083.69 -2.15551 3.27177 0
M  V30 32339 H 3085.39 -1.87499 3.54464 0
M  V30 32340 H 3081.98 -0.62163 4.24068 0
M  V30 32341 H 3086.16 0.0419328 4.96282 0
M  V30 32342 H 3081.42 0.958672 6.03837 0
M  V30 32343 H 3085.59 1.61779 6.77348 0
M  V30 32344 H 3083.22 2.08221 7.31128 0
M  V30 32345 N 3084.79 -1.55421 -0.261185 0
M  V30 32346 C 3085.74 -1.89915 -1.34294 0
M  V30 32347 C 3086.74 -0.776692 -1.50545 0
M  V30 32348 O 3087.94 -0.961165 -1.52189 0
M  V30 32349 H 3084.32 -0.602954 -0.449389 0
M  V30 32350 H 3086.29 -2.80258 -1.02459 0
M  V30 32351 C 3085.04 -2.19792 -2.69419 0
M  V30 32352 H 3084.36 -3.05657 -2.57709 0
M  V30 32353 H 3085.8 -2.47841 -3.44021 0
M  V30 32354 C 3084.26 -1.00944 -3.21422 0
M  V30 32355 O 3084.79 -0.250105 -4.00921 0
M  V30 32356 N 3083 -0.803932 -2.79258 0
M  V30 32357 H 3082.54 -1.42311 -2.14721 0
M  V30 32358 H 3082.5 -0.010381 -3.14398 0
M  V30 32359 N 3086.27 0.526227 -1.48555 0
M  V30 32360 C 3087.18 1.65728 -1.66046 0
M  V30 32361 C 3088.2 1.65311 -0.54298 0
M  V30 32362 O 3089.37 1.84194 -0.814527 0
M  V30 32363 C 3086.44 3.02181 -1.69964 0
M  V30 32364 C 3085.5 3.13423 -2.93367 0
M  V30 32365 C 3084.73 4.43367 -2.97089 0
M  V30 32366 O 3084.96 5.30687 -2.09112 0
M  V30 32367 O 3083.89 4.59054 -3.89298 0
M  V30 32368 H 3087.72 1.53907 -2.61813 0
M  V30 32369 H 3085.3 0.699736 -1.32 0
M  V30 32370 H 3087.18 3.83326 -1.7504 0
M  V30 32371 H 3085.86 3.14317 -0.773713 0
M  V30 32372 H 3084.77 2.31559 -2.93822 0
M  V30 32373 H 3086.1 3.06204 -3.85357 0
M  V30 32374 N 3087.75 1.37206 0.775387 0
M  V30 32375 C 3089 1.32409 1.53609 0
M  V30 32376 C 3089.33 -0.0923762 1.9398 0
M  V30 32377 O 3088.6 -1.04891 1.63793 0
M  V30 32378 C 3088.89 2.25984 2.80363 0
M  V30 32379 C 3088.74 3.76393 2.46269 0
M  V30 32380 C 3090.06 2.18071 3.82273 0
M  V30 32381 H 3087.18 0.482307 0.557269 0
M  V30 32382 H 3089.82 1.67877 0.889797 0
M  V30 32383 H 3087.97 1.95868 3.35512 0
M  V30 32384 H 3089.64 4.1709 1.97062 0
M  V30 32385 H 3087.89 3.9514 1.79016 0
M  V30 32386 H 3088.56 4.37297 3.3686 0
M  V30 32387 H 3091.03 2.4461 3.36609 0
M  V30 32388 H 3089.91 2.85692 4.68691 0
M  V30 32389 H 3090.17 1.17246 4.2627 0
M  V30 32390 N 3089.23 -1.00115 1.21716 0
M  V30 32391 C 3090.46 -1.77516 1.06281 0
M  V30 32392 C 3090.87 -1.84788 -0.387161 0
M  V30 32393 O 3090.23 -1.31205 -1.26852 0
M  V30 32394 C 3090.28 -3.21236 1.65801 0
M  V30 32395 O 3090 -3.14373 3.05125 0
M  V30 32396 C 3091.5 -4.15121 1.55529 0
M  V30 32397 H 3088.72 -0.557759 0.373023 0
M  V30 32398 H 3091.27 -1.25919 1.61136 0
M  V30 32399 H 3089.42 -3.69929 1.15029 0
M  V30 32400 H 3089.83 -4.04695 3.3365 0
M  V30 32401 H 3091.31 -5.13747 2.01911 0
M  V30 32402 H 3091.79 -4.36224 0.510384 0
M  V30 32403 H 3092.39 -3.72321 2.05566 0
M  V30 32404 N 3090.71 -1.02553 -1.19669 0
M  V30 32405 C 3091.95 -0.730834 -1.89817 0
M  V30 32406 C 3092.31 0.732324 -1.77918 0
M  V30 32407 O 3091.6 1.52608 -1.1585 0
M  V30 32408 C 3091.8 -1.11247 -3.39645 0
M  V30 32409 C 3091.62 -2.61118 -3.66125 0
M  V30 32410 C 3090.39 -3.28039 -3.84342 0
M  V30 32411 C 3092.59 -3.59322 -3.67956 0
M  V30 32412 N 3090.57 -4.67048 -3.98421 0
M  V30 32413 C 3091.95 -4.83934 -3.87567 0
M  V30 32414 C 3094 -3.53168 -3.50965 0
M  V30 32415 C 3092.7 -6.03134 -3.91946 0
M  V30 32416 C 3094.73 -4.7178 -3.5662 0
M  V30 32417 C 3094.09 -5.95204 -3.76712 0
M  V30 32418 H 3090.19 -0.319245 -0.713867 0
M  V30 32419 H 3092.77 -1.31216 -1.43842 0
M  V30 32420 H 3090.95 -0.559391 -3.84351 0
M  V30 32421 H 3092.68 -0.77038 -3.973 0
M  V30 32422 H 3089.43 -2.78455 -3.83092 0
M  V30 32423 H 3089.86 -5.39248 -4.09317 0
M  V30 32424 H 3094.5 -2.58734 -3.3439 0
M  V30 32425 H 3092.22 -6.9794 -4.07314 0
M  V30 32426 H 3095.8 -4.68643 -3.44768 0
M  V30 32427 H 3094.68 -6.85449 -3.80958 0
M  V30 32428 N 3092.19 1.35612 -0.802945 0
M  V30 32429 C 3093.41 2.03115 -0.393966 0
M  V30 32430 C 3093.83 1.60519 0.993933 0
M  V30 32431 O 3093.19 0.801002 1.63982 0
M  V30 32432 C 3093.24 3.58516 -0.463549 0
M  V30 32433 O 3092.96 3.99561 -1.79673 0
M  V30 32434 C 3094.46 4.43275 -0.0469157 0
M  V30 32435 H 3091.68 0.651514 -0.16053 0
M  V30 32436 H 3094.22 1.73309 -1.08555 0
M  V30 32437 H 3092.38 3.86983 0.179753 0
M  V30 32438 H 3092.79 4.94197 -1.75697 0
M  V30 32439 H 3094.27 5.51805 -0.146723 0
M  V30 32440 H 3094.74 4.27492 1.00733 0
M  V30 32441 H 3095.35 4.20097 -0.663232 0
M  V30 32442 N 3093.66 0.556128 1.47462 0
M  V30 32443 C 3094.61 -0.205258 2.31693 0
M  V30 32444 C 3095.61 -0.910369 1.42859 0
M  V30 32445 O 3096.81 -0.831778 1.59629 0
M  V30 32446 H 3093.19 -0.0850644 0.747173 0
M  V30 32447 H 3095.16 0.524356 2.93757 0
M  V30 32448 C 3093.91 -1.22278 3.2549 0
M  V30 32449 H 3093.23 -0.689628 3.93807 0
M  V30 32450 H 3094.67 -1.72643 3.8726 0
M  V30 32451 C 3093.13 -2.27008 2.48935 0
M  V30 32452 O 3093.66 -3.33915 2.23302 0
M  V30 32453 N 3091.86 -2.00907 2.09963 0
M  V30 32454 H 3091.41 -1.13982 2.3101 0
M  V30 32455 H 3091.37 -2.71197 1.59058 0
M  V30 32456 N 3095.14 -1.54861 0.292527 0
M  V30 32457 C 3096.39 -2.00264 -0.319701 0
M  V30 32458 C 3096.72 -1.18066 -1.54188 0
M  V30 32459 O 3096 -0.255016 -1.92821 0
M  V30 32460 C 3096.28 -3.53531 -0.684691 0
M  V30 32461 C 3096.13 -4.46473 0.546039 0
M  V30 32462 C 3097.45 -4.13221 -1.51448 0
M  V30 32463 H 3094.57 -0.728016 -0.114727 0
M  V30 32464 H 3097.21 -1.85678 0.402939 0
M  V30 32465 H 3095.36 -3.66091 -1.30037 0
M  V30 32466 H 3097.03 -4.45832 1.18456 0
M  V30 32467 H 3095.28 -4.17418 1.18088 0
M  V30 32468 H 3095.95 -5.51449 0.24664 0
M  V30 32469 H 3098.42 -4.04044 -0.99435 0
M  V30 32470 H 3097.3 -5.20636 -1.73866 0
M  V30 32471 H 3097.56 -3.64555 -2.50104 0
M  V30 32472 N 3096.62 -0.0200973 -1.57587 0
M  V30 32473 C 3097.85 0.67093 -1.9572 0
M  V30 32474 C 3098.26 1.66179 -0.89611 0
M  V30 32475 O 3097.62 1.82085 0.123005 0
M  V30 32476 C 3097.67 1.38523 -3.33907 0
M  V30 32477 O 3097.39 0.43409 -4.35944 0
M  V30 32478 C 3098.89 2.16891 -3.86617 0
M  V30 32479 H 3096.11 0.185594 -0.644822 0
M  V30 32480 H 3098.66 -0.0771854 -2.04354 0
M  V30 32481 H 3096.81 2.08482 -3.26518 0
M  V30 32482 H 3097.23 0.940287 -5.16003 0
M  V30 32483 H 3098.7 2.62338 -4.85678 0
M  V30 32484 H 3099.18 3.00418 -3.20384 0
M  V30 32485 H 3099.78 1.51909 -3.97245 0
M  V30 32486 N 3098.1 1.55557 0.252939 0
M  V30 32487 C 3099.34 1.77106 0.98182 0
M  V30 32488 C 3099.67 0.583338 1.85546 0
M  V30 32489 O 3098.93 -0.433557 1.90837 0
M  V30 32490 C 3099.23 3.04095 1.8778 0
M  V30 32491 C 3098.89 4.35723 1.16001 0
M  V30 32492 C 3097.55 4.71494 0.961614 0
M  V30 32493 C 3099.91 5.17121 0.650794 0
M  V30 32494 C 3097.23 5.86202 0.241601 0
M  V30 32495 C 3099.59 6.32575 -0.0557236 0
M  V30 32496 C 3098.25 6.66971 -0.265653 0
M  V30 32497 H 3097.52 0.648077 0.359274 0
M  V30 32498 H 3100.17 1.89829 0.25241 0
M  V30 32499 H 3098.47 2.86357 2.67407 0
M  V30 32500 H 3100.17 3.17966 2.44334 0
M  V30 32501 H 3096.76 4.07619 1.32458 0
M  V30 32502 H 3100.94 4.89946 0.791633 0
M  V30 32503 H 3096.2 6.11362 0.0684217 0
M  V30 32504 H 3100.37 6.94893 -0.457962 0
M  V30 32505 H 3098 7.55704 -0.825533 0
M  V30 32506 N 3099.58 -0.518341 1.48832 0
M  V30 32507 C 3100.51 -1.63072 1.67122 0
M  V30 32508 C 3101.49 -1.61958 0.519976 0
M  V30 32509 O 3102.67 -1.78971 0.753855 0
M  V30 32510 C 3099.8 -3.01624 1.72163 0
M  V30 32511 C 3098.76 -3.17601 2.86904 0
M  V30 32512 C 3098.08 -4.5733 2.77043 0
M  V30 32513 C 3099.38 -2.99266 4.28062 0
M  V30 32514 H 3101.08 -1.48021 2.6025 0
M  V30 32515 H 3098.62 -0.710672 1.25242 0
M  V30 32516 H 3100.57 -3.79327 1.83545 0
M  V30 32517 H 3099.3 -3.17725 0.756213 0
M  V30 32518 H 3097.96 -2.42318 2.75095 0
M  V30 32519 H 3097.61 -4.70283 1.78446 0
M  V30 32520 H 3097.31 -4.68963 3.54044 0
M  V30 32521 H 3098.83 -5.37117 2.9041 0
M  V30 32522 H 3100.24 -3.66752 4.40643 0
M  V30 32523 H 3098.64 -3.22384 5.06151 0
M  V30 32524 H 3099.71 -1.95567 4.43714 0
M  V30 32525 N 3101.05 -1.37615 -0.7681 0
M  V30 32526 C 3102 -1.33674 -1.88149 0
M  V30 32527 C 3102.97 -0.201674 -1.64871 0
M  V30 32528 O 3104.16 -0.391614 -1.86738 0
M  V30 32529 C 3101.3 -1.1532 -3.25262 0
M  V30 32530 C 3100.41 -2.38088 -3.60469 0
M  V30 32531 C 3099.54 -2.12578 -4.8681 0
M  V30 32532 C 3098.58 -3.31193 -5.14759 0
M  V30 32533 N 3097.72 -3.05211 -6.3229 0
M  V30 32534 H 3102.56 -2.28865 -1.90853 0
M  V30 32535 H 3100.1 -1.13723 -0.933028 0
M  V30 32536 H 3102.05 -1.02699 -4.04362 0
M  V30 32537 H 3100.68 -0.237745 -3.21923 0
M  V30 32538 H 3099.74 -2.61436 -2.76325 0
M  V30 32539 H 3101.05 -3.26539 -3.7706 0
M  V30 32540 H 3100.2 -1.97009 -5.73823 0
M  V30 32541 H 3098.94 -1.2147 -4.72331 0
M  V30 32542 H 3097.95 -3.47297 -4.26221 0
M  V30 32543 H 3099.17 -4.23157 -5.31145 0
M  V30 32544 H 3097.12 -2.16736 -6.19162 0
M  V30 32545 H 3097.03 -3.87206 -6.49313 0
M  V30 32546 H 3098.3 -2.93267 -7.22229 0
M  V30 32547 N 3102.53 0.994677 -1.22245 0
M  V30 32548 C 3103.95 1.25811 -0.982028 0
M  V30 32549 C 3104.15 1.98854 0.325453 0
M  V30 32550 O 3103.2 2.297 1.04853 0
M  V30 32551 C 3104.52 2.07164 -2.17954 0
M  V30 32552 C 3106.06 2.20354 -2.22291 0
M  V30 32553 C 3106.54 3.05092 -3.41588 0
M  V30 32554 N 3108.03 3.1268 -3.41739 0
M  V30 32555 C 3108.77 3.78532 -4.30699 0
M  V30 32556 N 3108.26 4.46326 -5.29873 0
M  V30 32557 N 3110.05 3.75275 -4.18479 0
M  V30 32558 H 3102.21 0.504926 -2.06311 0
M  V30 32559 H 3104.47 0.285602 -0.903955 0
M  V30 32560 H 3104.17 1.60853 -3.12761 0
M  V30 32561 H 3104.05 3.07918 -2.17867 0
M  V30 32562 H 3106.44 2.65879 -1.28032 0
M  V30 32563 H 3106.52 1.19035 -2.26416 0
M  V30 32564 H 3106.16 2.60268 -4.36146 0
M  V30 32565 H 3106.09 4.06549 -3.34702 0
M  V30 32566 H 3108.58 2.64429 -2.69974 0
M  V30 32567 H 3108.89 4.94309 -5.94035 0
M  V30 32568 H 3107.24 4.4508 -5.33787 0
M  V30 32569 H 3110.43 3.21472 -3.40255 0
M  V30 32570 H 3110.6 4.26317 -4.88014 0
M  V30 32571 N 3104.01 1.03186 1.19123 0
M  V30 32572 C 3105.24 0.748697 1.92557 0
M  V30 32573 C 3105.65 -0.696806 1.75901 0
M  V30 32574 O 3104.99 -1.48583 1.08022 0
M  V30 32575 C 3105.05 1.02397 3.44609 0
M  V30 32576 C 3104.72 2.46162 3.85037 0
M  V30 32577 C 3105.71 3.44309 3.89548 0
M  V30 32578 C 3103.4 2.8064 4.16589 0
M  V30 32579 C 3105.39 4.74989 4.25047 0
M  V30 32580 C 3103.08 4.11529 4.5176 0
M  V30 32581 C 3104.08 5.08514 4.55963 0
M  V30 32582 O 3103.77 6.37058 4.90319 0
M  V30 32583 H 3103.5 0.27307 0.618392 0
M  V30 32584 H 3106.05 1.38017 1.5212 0
M  V30 32585 H 3104.28 0.335351 3.85243 0
M  V30 32586 H 3105.97 0.729997 3.99282 0
M  V30 32587 H 3106.74 3.1901 3.65319 0
M  V30 32588 H 3102.62 2.05828 4.12499 0
M  V30 32589 H 3106.16 5.50685 4.28242 0
M  V30 32590 H 3102.06 4.366 4.75448 0
M  V30 32591 H 3102.82 6.41575 5.08255 0
M  V30 32592 N 3105.49 -1.35184 0.810125 0
M  V30 32593 C 3106.74 -1.98667 0.392152 0
M  V30 32594 C 3107.06 -1.64261 -1.04157 0
M  V30 32595 O 3106.32 -0.899678 -1.73794 0
M  V30 32596 C 3106.62 -3.53499 0.526623 0
M  V30 32597 C 3106.28 -4.07782 1.92418 0
M  V30 32598 C 3104.95 -4.22319 2.30652 0
M  V30 32599 C 3107.3 -4.37136 2.83834 0
M  V30 32600 C 3104.63 -4.63529 3.59663 0
M  V30 32601 C 3106.98 -4.79786 4.12296 0
M  V30 32602 C 3105.64 -4.92528 4.50524 0
M  V30 32603 H 3104.91 -0.726973 0.143499 0
M  V30 32604 H 3107.56 -1.61339 1.0316 0
M  V30 32605 H 3105.86 -3.91308 -0.196262 0
M  V30 32606 H 3107.56 -4.00578 0.183941 0
M  V30 32607 H 3104.15 -3.96921 1.61714 0
M  V30 32608 H 3108.33 -4.25454 2.55543 0
M  V30 32609 H 3103.59 -4.71584 3.89125 0
M  V30 32610 H 3107.76 -5.0146 4.8323 0
M  V30 32611 H 3105.39 -5.24219 5.50544 0
M  V30 32612 N 3106.97 -0.56394 -1.47165 0
M  V30 32613 C 3108.38 -0.224201 -1.58017 0
M  V30 32614 C 3108.58 1.27336 -1.56166 0
M  V30 32615 O 3107.64 2.05396 -1.46863 0
M  V30 32616 C 3108.95 -0.856812 -2.88235 0
M  V30 32617 C 3110.5 -0.828663 -3.01831 0
M  V30 32618 C 3110.97 -1.44047 -4.34758 0
M  V30 32619 N 3112.47 -1.40396 -4.41411 0
M  V30 32620 C 3113.2 -1.8469 -5.42842 0
M  V30 32621 N 3112.7 -2.36872 -6.51048 0
M  V30 32622 N 3114.49 -1.7572 -5.33928 0
M  V30 32623 H 3106.64 -1.53684 -1.46612 0
M  V30 32624 H 3108.9 -0.641283 -0.698184 0
M  V30 32625 H 3108.61 -1.90955 -2.95346 0
M  V30 32626 H 3108.48 -0.353832 -3.75537 0
M  V30 32627 H 3110.87 0.215399 -2.94313 0
M  V30 32628 H 3110.95 -1.36947 -2.16054 0
M  V30 32629 H 3110.6 -2.48363 -4.43033 0
M  V30 32630 H 3110.53 -0.875044 -5.19279 0
M  V30 32631 H 3113.02 -1.02233 -3.63809 0
M  V30 32632 H 3113.33 -2.68577 -7.24628 0
M  V30 32633 H 3111.67 -2.40886 -6.51919 0
M  V30 32634 H 3114.87 -1.34726 -4.48293 0
M  V30 32635 H 3115.04 -2.10558 -6.12837 0
M  V30 32636 N 3108.44 1.54704 -0.300735 0
M  V30 32637 C 3109.41 2.22188 0.562609 0
M  V30 32638 C 3110.41 1.20784 1.0615 0
M  V30 32639 O 3111.6 1.45521 0.957571 0
M  V30 32640 C 3108.73 2.90804 1.77894 0
M  V30 32641 H 3109.92 2.99888 -0.0269888 0
M  V30 32642 H 3107.48 1.56215 -0.0515687 0
M  V30 32643 H 3108.21 2.17182 2.40837 0
M  V30 32644 H 3108 3.65138 1.42886 0
M  V30 32645 H 3109.49 3.42285 2.3923 0
M  V30 32646 N 3109.92 0.0284543 1.57574 0
M  V30 32647 C 3111.2 -0.688946 1.83065 0
M  V30 32648 C 3111.58 -1.90372 0.912224 0
M  V30 32649 O 3110.93 -2.28477 -0.032327 0
M  V30 32650 C 3111.14 -1.06779 3.32264 0
M  V30 32651 C 3112.49 -1.45971 3.9872 0
M  V30 32652 O 3113.51 -1.16079 3.36755 0
M  V30 32653 O 3112.37 -2.01664 5.07931 0
M  V30 32654 H 3109.46 -0.337931 0.754806 0
M  V30 32655 H 3112.01 0.0560853 1.69607 0
M  V30 32656 H 3110.78 -0.203167 3.90772 0
M  V30 32657 H 3110.4 -1.87101 3.50826 0
M  V30 32658 N 3111.4 -1.55689 -0.244686 0
M  V30 32659 C 3112.31 -1.93639 -1.32443 0
M  V30 32660 C 3113.33 -0.837113 -1.5254 0
M  V30 32661 O 3114.5 -1.1387 -1.66119 0
M  V30 32662 C 3111.57 -2.22529 -2.6586 0
M  V30 32663 C 3110.63 -3.459 -2.54267 0
M  V30 32664 C 3109.86 -3.73404 -3.81321 0
M  V30 32665 O 3110.08 -3.02944 -4.83302 0
M  V30 32666 O 3109.02 -4.66926 -3.79821 0
M  V30 32667 H 3112.84 -2.8561 -1.0325 0
M  V30 32668 H 3110.43 -1.42599 -0.445627 0
M  V30 32669 H 3112.31 -2.4241 -3.44696 0
M  V30 32670 H 3110.99 -1.33736 -2.94782 0
M  V30 32671 H 3109.89 -3.31325 -1.73709 0
M  V30 32672 H 3111.23 -4.35003 -2.30289 0
M  V30 32673 N 3112.88 0.510441 -1.49105 0
M  V30 32674 C 3113.81 1.62947 -1.61186 0
M  V30 32675 C 3114.82 1.55091 -0.49503 0
M  V30 32676 O 3116.01 1.61195 -0.766699 0
M  V30 32677 C 3113.11 3.01696 -1.54378 0
M  V30 32678 C 3112.29 3.34834 -2.81434 0
M  V30 32679 C 3111.34 4.52951 -2.6781 0
M  V30 32680 O 3110.37 4.55202 -3.41731 0
M  V30 32681 N 3111.57 5.52302 -1.78725 0
M  V30 32682 H 3114.34 1.53014 -2.57695 0
M  V30 32683 H 3111.9 0.698126 -1.46075 0
M  V30 32684 H 3113.89 3.7862 -1.42931 0
M  V30 32685 H 3112.46 3.05604 -0.657651 0
M  V30 32686 H 3111.68 2.46898 -3.07303 0
M  V30 32687 H 3112.97 3.53767 -3.65687 0
M  V30 32688 H 3112.37 5.53276 -1.17906 0
M  V30 32689 H 3110.92 6.28366 -1.73205 0
M  V30 32690 N 3114.36 1.38021 0.760791 0
M  V30 32691 C 3115.59 1.36852 1.54774 0
M  V30 32692 C 3115.99 -0.0453639 1.89146 0
M  V30 32693 O 3115.34 -1.02048 1.52748 0
M  V30 32694 C 3115.4 2.15274 2.87919 0
M  V30 32695 C 3115.06 3.64149 2.76124 0
M  V30 32696 C 3116.06 4.57798 2.46408 0
M  V30 32697 C 3113.75 4.07413 2.93803 0
M  V30 32698 C 3115.74 5.9269 2.34515 0
M  V30 32699 C 3113.43 5.42388 2.81529 0
M  V30 32700 C 3114.42 6.3484 2.51927 0
M  V30 32701 O 3114.11 7.67333 2.39699 0
M  V30 32702 H 3113.84 0.470112 0.485768 0
M  V30 32703 H 3116.4 1.82115 0.949907 0
M  V30 32704 H 3114.63 1.64718 3.49864 0
M  V30 32705 H 3116.32 2.06603 3.49385 0
M  V30 32706 H 3117.08 4.2568 2.32426 0
M  V30 32707 H 3112.96 3.35804 3.15843 0
M  V30 32708 H 3116.51 6.6482 2.1133 0
M  V30 32709 H 3112.4 5.74105 2.95083 0
M  V30 32710 H 3113.17 7.77775 2.54966 0
M  V30 32711 N 3115.83 -0.98818 1.22771 0
M  V30 32712 C 3117.25 -1.54293 1.05122 0
M  V30 32713 C 3117.6 -1.92408 -0.38387 0
M  V30 32714 O 3116.72 -1.75249 -1.26952 0
M  V30 32715 C 3117.32 -2.80372 1.90203 0
M  V30 32716 C 3115.88 -3.32273 1.76837 0
M  V30 32717 C 3115.02 -2.05323 1.86381 0
M  V30 32718 H 3117.97 -0.808734 1.36547 0
M  V30 32719 H 3117.99 -3.52921 1.42222 0
M  V30 32720 H 3117.51 -2.52599 2.94644 0
M  V30 32721 H 3115.61 -3.64943 0.751476 0
M  V30 32722 H 3115.72 -4.02557 2.59778 0
M  V30 32723 H 3114.08 -2.191 1.29873 0
M  V30 32724 H 3114.87 -1.79941 2.92363 0
M  V30 32725 N 3117.31 -1.03816 -1.18575 0
M  V30 32726 C 3118.56 -0.740069 -1.88492 0
M  V30 32727 C 3118.89 0.732024 -1.80199 0
M  V30 32728 O 3118.14 1.54969 -1.19512 0
M  V30 32729 C 3118.44 -1.14843 -3.38446 0
M  V30 32730 C 3118.11 -2.62038 -3.66943 0
M  V30 32731 C 3116.77 -3.02251 -3.7443 0
M  V30 32732 C 3119.12 -3.57223 -3.79527 0
M  V30 32733 C 3116.45 -4.36543 -3.91979 0
M  V30 32734 C 3118.8 -4.9123 -3.98592 0
M  V30 32735 C 3117.47 -5.31118 -4.04314 0
M  V30 32736 H 3116.74 -0.270811 -0.689741 0
M  V30 32737 H 3119.38 -1.30272 -1.40362 0
M  V30 32738 H 3117.69 -0.504541 -3.88538 0
M  V30 32739 H 3119.38 -0.895179 -3.9088 0
M  V30 32740 H 3115.97 -2.29889 -3.6173 0
M  V30 32741 H 3120.16 -3.27302 -3.73077 0
M  V30 32742 H 3115.41 -4.66969 -3.94652 0
M  V30 32743 H 3119.59 -5.64892 -4.07271 0
M  V30 32744 H 3117.22 -6.35185 -4.17664 0
M  V30 32745 N 3118.79 1.34753 -0.817283 0
M  V30 32746 C 3119.72 2.3216 -0.24981 0
M  V30 32747 C 3120.7 1.57978 0.630636 0
M  V30 32748 O 3121.89 1.8599 0.558687 0
M  V30 32749 C 3119.02 3.42187 0.593765 0
M  V30 32750 C 3117.97 4.27582 -0.189072 0
M  V30 32751 C 3117.3 5.29026 0.776886 0
M  V30 32752 C 3118.6 5.03351 -1.39409 0
M  V30 32753 H 3120.29 2.7987 -1.06364 0
M  V30 32754 H 3117.84 1.34555 -0.512917 0
M  V30 32755 H 3119.79 4.09341 1.0009 0
M  V30 32756 H 3118.51 2.93112 1.44059 0
M  V30 32757 H 3117.17 3.62023 -0.577509 0
M  V30 32758 H 3116.82 4.76215 1.61951 0
M  V30 32759 H 3116.52 5.87036 0.257345 0
M  V30 32760 H 3118.04 5.9905 1.182 0
M  V30 32761 H 3119.46 5.63391 -1.06127 0
M  V30 32762 H 3117.86 5.70908 -1.84888 0
M  V30 32763 H 3118.93 4.33373 -2.17523 0
M  V30 32764 N 3120.27 0.571737 1.46864 0
M  V30 32765 C 3121.52 0.0532215 2.0273 0
M  V30 32766 C 3121.85 -1.29904 1.44356 0
M  V30 32767 O 3121.12 -1.84867 0.604521 0
M  V30 32768 C 3121.41 -0.0243198 3.60092 0
M  V30 32769 C 3121.26 1.35606 4.28872 0
M  V30 32770 C 3122.58 -0.730486 4.33995 0
M  V30 32771 H 3119.7 0.0208148 0.736706 0
M  V30 32772 H 3122.34 0.736825 1.75131 0
M  V30 32773 H 3120.49 -0.606497 3.83737 0
M  V30 32774 H 3122.16 1.98256 4.16524 0
M  V30 32775 H 3120.4 1.9268 3.8866 0
M  V30 32776 H 3121.08 1.25438 5.37559 0
M  V30 32777 H 3123.55 -0.236025 4.1543 0
M  V30 32778 H 3122.43 -0.753741 5.437 0
M  V30 32779 H 3122.69 -1.78959 4.0426 0
M  V30 32780 N 3121.75 -1.54542 0.308935 0
M  V30 32781 C 3122.7 -2.20529 -0.578863 0
M  V30 32782 C 3123.68 -1.1809 -1.09286 0
M  V30 32783 O 3124.87 -1.43779 -1.03231 0
M  V30 32784 C 3122 -2.95558 -1.74644 0
M  V30 32785 C 3121.09 -4.05321 -1.24802 0
M  V30 32786 N 3121.48 -5.03628 -0.468192 0
M  V30 32787 C 3119.78 -4.19006 -1.52806 0
M  V30 32788 C 3120.48 -5.8135 -0.201794 0
M  V30 32789 N 3119.45 -5.37919 -0.783833 0
M  V30 32790 H 3123.26 -2.9389 0.0244012 0
M  V30 32791 H 3120.77 -1.61999 0.114077 0
M  V30 32792 H 3122.77 -3.41305 -2.39408 0
M  V30 32793 H 3121.43 -2.23716 -2.35332 0
M  V30 32794 H 3122.44 -5.17778 -0.112362 0
M  V30 32795 H 3119.12 -3.58373 -2.14185 0
M  V30 32796 H 3120.51 -6.70554 0.425047 0
M  V30 32797 N 3123.23 -0.0368104 -1.57557 0
M  V30 32798 C 3124.64 0.50094 -1.79854 0
M  V30 32799 C 3124.99 1.71789 -0.947779 0
M  V30 32800 O 3124.11 2.15805 -0.160325 0
M  V30 32801 C 3124.71 0.915569 -3.26194 0
M  V30 32802 C 3123.27 1.39839 -3.4946 0
M  V30 32803 C 3122.41 0.366736 -2.74864 0
M  V30 32804 H 3125.36 -0.262796 -1.56509 0
M  V30 32805 H 3125.39 1.77944 -3.36327 0
M  V30 32806 H 3124.9 0.0296545 -3.88089 0
M  V30 32807 H 3123 2.30397 -2.92828 0
M  V30 32808 H 3123.11 1.40046 -4.58175 0
M  V30 32809 H 3121.48 0.836512 -2.40571 0
M  V30 32810 H 3122.26 -0.510845 -3.39478 0
M  V30 32811 N 3124.7 1.55817 0.236426 0
M  V30 32812 C 3125.95 1.78401 0.964407 0
M  V30 32813 C 3126.28 0.6039 1.84572 0
M  V30 32814 O 3125.56 -0.397439 1.90396 0
M  V30 32815 C 3125.84 3.10954 1.81603 0
M  V30 32816 C 3125.69 4.39388 0.962206 0
M  V30 32817 C 3127.01 3.39822 2.79659 0
M  V30 32818 H 3124.13 0.649032 0.34918 0
M  V30 32819 H 3126.77 1.88551 0.234214 0
M  V30 32820 H 3124.92 3.02432 2.43858 0
M  V30 32821 H 3126.6 4.59912 0.357539 0
M  V30 32822 H 3124.84 4.32978 0.266986 0
M  V30 32823 H 3125.51 5.28541 1.59212 0
M  V30 32824 H 3127.99 3.48374 2.2754 0
M  V30 32825 H 3126.86 4.33766 3.3636 0
M  V30 32826 H 3127.12 2.6125 3.56652 0
M  V30 32827 N 3126.18 -0.502526 1.49373 0
M  V30 32828 C 3127.11 -1.62187 1.60532 0
M  V30 32829 C 3128.09 -1.5612 0.454459 0
M  V30 32830 O 3129.28 -1.76199 0.669799 0
M  V30 32831 C 3126.4 -3.00696 1.55884 0
M  V30 32832 C 3125.45 -3.2503 2.76149 0
M  V30 32833 S 3126.28 -3.08317 4.37836 0
M  V30 32834 C 3127.44 -4.49224 4.35831 0
M  V30 32835 H 3127.67 -1.52477 2.55221 0
M  V30 32836 H 3125.2 -0.68757 1.38246 0
M  V30 32837 H 3127.16 -3.80564 1.53888 0
M  V30 32838 H 3125.82 -3.07822 0.624845 0
M  V30 32839 H 3125.02 -4.26139 2.69112 0
M  V30 32840 H 3124.62 -2.52881 2.75549 0
M  V30 32841 H 3126.91 -5.41281 4.07457 0
M  V30 32842 H 3127.85 -4.6131 5.37214 0
M  V30 32843 H 3128.26 -4.29832 3.6593 0
M  V30 32844 N 3127.66 -1.38422 -0.75346 0
M  V30 32845 C 3129.07 -1.30947 -1.33078 0
M  V30 32846 C 3129.42 0.0346779 -1.96169 0
M  V30 32847 O 3128.55 0.936734 -1.95075 0
M  V30 32848 C 3129.14 -2.37142 -2.41969 0
M  V30 32849 C 3127.7 -2.33244 -2.95422 0
M  V30 32850 C 3126.85 -2.20001 -1.68804 0
M  V30 32851 H 3129.8 -1.48778 -0.552328 0
M  V30 32852 H 3129.82 -2.02865 -3.2191 0
M  V30 32853 H 3129.33 -3.34959 -1.96021 0
M  V30 32854 H 3127.43 -1.39009 -3.45698 0
M  V30 32855 H 3127.55 -3.27387 -3.49792 0
M  V30 32856 H 3125.91 -1.66856 -1.92435 0
M  V30 32857 H 3126.69 -3.1976 -1.24933 0
M  V30 32858 N 3129.14 0.981655 -1.23294 0
M  V30 32859 C 3130.07 2.07199 -0.956234 0
M  V30 32860 C 3131.05 1.62261 0.104998 0
M  V30 32861 O 3132.23 1.88478 -0.0289913 0
M  V30 32862 C 3129.36 3.35825 -0.440349 0
M  V30 32863 C 3128.41 3.99701 -1.48799 0
M  V30 32864 S 3129.24 4.39111 -3.06499 0
M  V30 32865 C 3130.39 5.70893 -2.56577 0
M  V30 32866 H 3130.63 2.30351 -1.87951 0
M  V30 32867 H 3128.16 1.11768 -1.06524 0
M  V30 32868 H 3130.12 4.10228 -0.14931 0
M  V30 32869 H 3128.78 3.10684 0.46199 0
M  V30 32870 H 3127.97 4.92355 -1.07715 0
M  V30 32871 H 3127.57 3.3167 -1.72832 0
M  V30 32872 H 3129.87 6.47763 -1.98519 0
M  V30 32873 H 3130.81 6.16818 -3.47766 0
M  V30 32874 H 3131.22 5.28833 -1.97474 0
M  V30 32875 N 3130.62 1.04444 1.18022 0
M  V30 32876 C 3131.56 0.638798 2.21784 0
M  V30 32877 C 3132.53 -0.355284 1.62256 0
M  V30 32878 O 3133.72 -0.248407 1.89176 0
M  V30 32879 C 3130.86 0.0118609 3.45098 0
M  V30 32880 C 3129.97 1.05386 4.18948 0
M  V30 32881 C 3129.11 0.395044 5.29729 0
M  V30 32882 C 3128.14 1.42188 5.95356 0
M  V30 32883 N 3127.28 0.787758 6.97667 0
M  V30 32884 H 3132.12 1.52813 2.55836 0
M  V30 32885 H 3129.66 0.7644 1.2568 0
M  V30 32886 H 3131.62 -0.369002 4.15565 0
M  V30 32887 H 3130.25 -0.840966 3.11653 0
M  V30 32888 H 3129.3 1.55264 3.47271 0
M  V30 32889 H 3130.61 1.83363 4.63874 0
M  V30 32890 H 3129.76 -0.0398177 6.06687 0
M  V30 32891 H 3128.5 -0.416782 4.85916 0
M  V30 32892 H 3127.51 1.86684 5.17136 0
M  V30 32893 H 3128.73 2.23547 6.41251 0
M  V30 32894 H 3126.68 -0.00369362 6.56 0
M  V30 32895 H 3126.6 1.50518 7.40865 0
M  V30 32896 H 3127.86 0.377418 7.78586 0
M  V30 32897 N 3132.09 -1.34317 0.824418 0
M  V30 32898 C 3133.37 -1.92697 0.335726 0
M  V30 32899 C 3133.75 -1.75234 -1.17712 0
M  V30 32900 O 3133.1 -1.13198 -1.98491 0
M  V30 32901 C 3133.31 -3.40474 0.766706 0
M  V30 32902 C 3134.66 -4.17626 0.766397 0
M  V30 32903 O 3135.68 -3.49065 0.709382 0
M  V30 32904 O 3134.54 -5.39991 0.840951 0
M  V30 32905 H 3131.63 -0.821865 0.092014 0
M  V30 32906 H 3134.18 -1.43282 0.909308 0
M  V30 32907 H 3132.95 -3.46992 1.80865 0
M  V30 32908 H 3132.57 -3.97241 0.168902 0
M  V30 32909 N 3133.57 -0.579517 -1.46558 0
M  V30 32910 C 3134.82 -0.061609 -2.01606 0
M  V30 32911 C 3135.13 1.30505 -1.45697 0
M  V30 32912 O 3136.34 1.91413 -1.92545 0
M  V30 32913 C 3134.8 -0.0595593 -3.59851 0
M  V30 32914 C 3134.4 -1.42434 -4.24755 0
M  V30 32915 C 3136.15 0.404572 -4.22568 0
M  V30 32916 C 3134.05 -1.38019 -5.75069 0
M  V30 32917 H 3132.98 -0.0192623 -0.753754 0
M  V30 32918 H 3135.64 -0.73069 -1.68325 0
M  V30 32919 H 3134.02 0.675622 -3.90194 0
M  V30 32920 H 3135.19 -2.179 -4.06025 0
M  V30 32921 H 3133.51 -1.82824 -3.74118 0
M  V30 32922 H 3136.1 0.456347 -5.32749 0
M  V30 32923 H 3136.45 1.42142 -3.91282 0
M  V30 32924 H 3136.98 -0.276445 -3.96838 0
M  V30 32925 H 3133.72 -2.37375 -6.1101 0
M  V30 32926 H 3133.24 -0.667688 -5.96072 0
M  V30 32927 H 3134.92 -1.09174 -6.37723 0
M  V30 32928 N 3135.05 1.54376 -0.317127 0
M  V30 32929 C 3136 2.20833 0.56716 0
M  V30 32930 C 3136.98 1.18668 1.08658 0
M  V30 32931 O 3138.18 1.44324 1.02467 0
M  V30 32932 C 3135.31 2.9648 1.73074 0
M  V30 32933 C 3134.39 4.05977 1.22651 0
M  V30 32934 N 3134.78 5.0387 0.441477 0
M  V30 32935 C 3133.08 4.19811 1.50581 0
M  V30 32936 C 3133.78 5.81449 0.170961 0
M  V30 32937 N 3132.76 5.38327 0.755295 0
M  V30 32938 H 3136.56 2.93873 -0.0399866 0
M  V30 32939 H 3134.07 1.61936 -0.122667 0
M  V30 32940 H 3136.07 3.4257 2.37595 0
M  V30 32941 H 3134.73 2.24961 2.34142 0
M  V30 32942 H 3135.74 5.1783 0.0849011 0
M  V30 32943 H 3132.42 3.59504 2.12282 0
M  V30 32944 H 3133.81 6.70319 -0.460602 0
M  V30 32945 N 3136.53 0.0451655 1.57535 0
M  V30 32946 C 3137.44 -0.946609 2.14654 0
M  V30 32947 C 3138.45 -1.34588 1.10282 0
M  V30 32948 O 3139.63 -1.42403 1.4242 0
M  V30 32949 C 3136.7 -2.2051 2.67537 0
M  V30 32950 C 3135.76 -1.86475 3.86686 0
M  V30 32951 C 3134.99 -3.06324 4.37037 0
M  V30 32952 O 3135.21 -4.19503 3.86488 0
M  V30 32953 O 3134.15 -2.87688 5.28696 0
M  V30 32954 H 3137.97 -0.490857 2.99707 0
M  V30 32955 H 3135.56 -0.176384 1.48355 0
M  V30 32956 H 3137.44 -2.9436 3.01547 0
M  V30 32957 H 3136.11 -2.65235 1.85559 0
M  V30 32958 H 3135.02 -1.0996 3.57575 0
M  V30 32959 H 3136.35 -1.46554 4.69875 0
M  V30 32960 N 3138.01 -1.5594 -0.228159 0
M  V30 32961 C 3139.23 -1.83066 -0.974763 0
M  V30 32962 C 3139.66 -0.624655 -1.77425 0
M  V30 32963 O 3139.01 0.426525 -1.76211 0
M  V30 32964 C 3139.06 -3.08119 -1.87337 0
M  V30 32965 O 3138.17 -2.8635 -2.96779 0
M  V30 32966 H 3137.51 -0.603752 -0.276368 0
M  V30 32967 H 3140.04 -2.03146 -0.243471 0
M  V30 32968 H 3140.05 -3.38049 -2.28445 0
M  V30 32969 H 3138.72 -3.95529 -1.28568 0
M  V30 32970 H 3137.3 -2.67636 -2.59664 0
M  V30 32971 N 3139.48 0.494597 -1.49638 0
M  V30 32972 C 3140.73 1.24497 -1.58693 0
M  V30 32973 C 3141.05 1.93559 -0.281797 0
M  V30 32974 O 3142.25 2.70338 -0.250972 0
M  V30 32975 C 3140.71 2.26086 -2.80024 0
M  V30 32976 C 3140.32 1.62933 -4.17321 0
M  V30 32977 C 3142.06 3.01911 -2.98413 0
M  V30 32978 C 3139.97 2.6267 -5.29866 0
M  V30 32979 H 3138.9 0.468356 -0.590896 0
M  V30 32980 H 3141.55 0.518081 -1.76035 0
M  V30 32981 H 3139.93 3.01965 -2.5619 0
M  V30 32982 H 3141.1 0.930028 -4.51317 0
M  V30 32983 H 3139.42 0.994748 -4.04344 0
M  V30 32984 H 3142.02 3.76509 -3.79664 0
M  V30 32985 H 3142.36 3.59906 -2.09221 0
M  V30 32986 H 3142.89 2.33147 -3.22316 0
M  V30 32987 H 3139.63 2.09447 -6.21138 0
M  V30 32988 H 3139.15 3.30822 -5.00317 0
M  V30 32989 H 3140.83 3.2497 -5.59467 0
M  V30 32990 N 3140.96 1.3882 0.746109 0
M  V30 32991 C 3142.38 1.20181 1.05018 0
M  V30 32992 C 3142.58 0.0556625 2.01423 0
M  V30 32993 O 3141.63 -0.596207 2.4536 0
M  V30 32994 C 3142.95 2.53132 1.6231 0
M  V30 32995 C 3144.5 2.59881 1.74445 0
M  V30 32996 C 3144.97 3.93026 2.35148 0
M  V30 32997 N 3146.46 3.94606 2.4257 0
M  V30 32998 C 3147.2 4.94394 2.90451 0
M  V30 32999 N 3146.69 6.0458 3.38311 0
M  V30 33000 N 3148.49 4.8178 2.89559 0
M  V30 33001 H 3140.64 2.12133 0.106514 0
M  V30 33002 H 3142.9 0.94161 0.10988 0
M  V30 33003 H 3142.61 3.37496 0.9894 0
M  V30 33004 H 3142.48 2.72061 2.61271 0
M  V30 33005 H 3144.87 1.75907 2.3694 0
M  V30 33006 H 3144.95 2.44812 0.741678 0
M  V30 33007 H 3144.59 4.77426 1.73284 0
M  V30 33008 H 3144.52 4.0541 3.36081 0
M  V30 33009 H 3147.01 3.15025 2.08729 0
M  V30 33010 H 3147.33 6.76645 3.73324 0
M  V30 33011 H 3145.67 6.0819 3.36349 0
M  V30 33012 H 3148.86 3.94807 2.51485 0
M  V30 33013 H 3149.03 5.59698 3.26561 0
M  V30 33014 N 3142.44 -0.975103 1.23812 0
M  V30 33015 C 3143.69 -1.72041 1.08505 0
M  V30 33016 C 3144.04 -1.88742 -0.373403 0
M  V30 33017 O 3143.33 -1.43245 -1.27245 0
M  V30 33018 C 3143.53 -3.11625 1.75 0
M  V30 33019 C 3143.36 -3.08538 3.27161 0
M  V30 33020 C 3142.13 -3.13433 3.96343 0
M  V30 33021 C 3144.33 -2.91292 4.23856 0
M  V30 33022 N 3142.31 -3.00288 5.35444 0
M  V30 33023 C 3143.68 -2.86365 5.49905 0
M  V30 33024 C 3145.73 -2.75816 4.14524 0
M  V30 33025 C 3144.44 -2.67546 6.67691 0
M  V30 33026 C 3146.46 -2.58363 5.3198 0
M  V30 33027 C 3145.82 -2.54139 6.56957 0
M  V30 33028 H 3141.92 -0.638408 0.451618 0
M  V30 33029 H 3144.51 -1.15666 1.56619 0
M  V30 33030 H 3142.68 -3.66207 1.29411 0
M  V30 33031 H 3144.41 -3.74819 1.5262 0
M  V30 33032 H 3141.17 -3.21822 3.47459 0
M  V30 33033 H 3141.59 -2.96976 6.08387 0
M  V30 33034 H 3146.23 -2.77869 3.18667 0
M  V30 33035 H 3143.95 -2.64237 7.63678 0
M  V30 33036 H 3147.54 -2.47344 5.26604 0
M  V30 33037 H 3146.42 -2.40804 7.46313 0
M  V30 33038 N 3143.92 -1.05068 -1.17467 0
M  V30 33039 C 3145.15 -0.780368 -1.91619 0
M  V30 33040 C 3145.56 0.663786 -1.76747 0
M  V30 33041 O 3144.92 1.45336 -1.10379 0
M  V30 33042 C 3144.97 -1.14998 -3.42721 0
M  V30 33043 O 3144.69 -2.53745 -3.57134 0
M  V30 33044 C 3146.19 -0.905626 -4.33951 0
M  V30 33045 H 3143.41 -0.283825 -0.608017 0
M  V30 33046 H 3145.96 -1.40103 -1.48968 0
M  V30 33047 H 3144.11 -0.574097 -3.83123 0
M  V30 33048 H 3144.52 -2.68196 -4.50745 0
M  V30 33049 H 3146 -1.214 -5.38485 0
M  V30 33050 H 3146.48 0.159218 -4.38911 0
M  V30 33051 H 3147.08 -1.46529 -3.99261 0
M  V30 33052 N 3145.4 1.33878 -0.831529 0
M  V30 33053 C 3146.34 2.29359 -0.257489 0
M  V30 33054 C 3147.31 1.53991 0.622577 0
M  V30 33055 O 3148.5 1.82323 0.5624 0
M  V30 33056 C 3145.64 3.40401 0.567527 0
M  V30 33057 C 3144.75 4.30693 -0.335742 0
M  V30 33058 C 3143.89 5.28845 0.499669 0
M  V30 33059 C 3142.93 6.10776 -0.40245 0
M  V30 33060 N 3142.06 7.00991 0.394397 0
M  V30 33061 H 3146.9 2.77855 -1.07705 0
M  V30 33062 H 3144.44 1.36726 -0.542613 0
M  V30 33063 H 3146.4 4.03476 1.06126 0
M  V30 33064 H 3145.03 2.93117 1.35212 0
M  V30 33065 H 3144.08 3.68405 -0.947745 0
M  V30 33066 H 3145.39 4.8807 -1.02905 0
M  V30 33067 H 3144.55 5.97412 1.05753 0
M  V30 33068 H 3143.28 4.72027 1.22644 0
M  V30 33069 H 3142.29 5.41133 -0.972383 0
M  V30 33070 H 3143.51 6.69675 -1.12747 0
M  V30 33071 H 3141.46 6.46632 1.10469 0
M  V30 33072 H 3141.38 7.55618 -0.240341 0
M  V30 33073 H 3142.65 7.73875 0.934731 0
M  V30 33074 N 3146.87 0.587281 1.46249 0
M  V30 33075 C 3148.15 0.00753619 1.95599 0
M  V30 33076 C 3148.53 -1.45454 1.52991 0
M  V30 33077 O 3147.88 -2.14674 0.782768 0
M  V30 33078 C 3148.09 0.184371 3.48513 0
M  V30 33079 C 3149.44 0.0545718 4.24565 0
M  V30 33080 O 3150.46 0.113441 3.56019 0
M  V30 33081 O 3149.32 -0.0773115 5.46445 0
M  V30 33082 H 3146.41 -0.047235 0.82565 0
M  V30 33083 H 3148.96 0.655921 1.56511 0
M  V30 33084 H 3147.73 1.2006 3.72426 0
M  V30 33085 H 3147.36 -0.500232 3.94441 0
M  V30 33086 N 3148.35 -1.54206 0.325309 0
M  V30 33087 C 3149.76 -1.85992 -0.162393 0
M  V30 33088 C 3150.11 -1.24693 -1.5148 0
M  V30 33089 O 3149.24 -0.553615 -2.09199 0
M  V30 33090 C 3149.83 -3.37456 -0.301441 0
M  V30 33091 C 3148.39 -3.69187 -0.733365 0
M  V30 33092 C 3147.54 -2.76926 0.14388 0
M  V30 33093 H 3150.49 -1.49029 0.545534 0
M  V30 33094 H 3150.51 -3.6327 -1.13205 0
M  V30 33095 H 3150.02 -3.82043 0.683009 0
M  V30 33096 H 3148.13 -3.30134 -1.7275 0
M  V30 33097 H 3148.24 -4.76093 -0.535903 0
M  V30 33098 H 3146.6 -2.51837 -0.380848 0
M  V30 33099 H 3147.39 -3.24339 1.12513 0
M  V30 33100 N 3149.83 -0.0535194 -1.57509 0
M  V30 33101 C 3150.78 0.920063 -2.11668 0
M  V30 33102 C 3151.75 1.30731 -1.02462 0
M  V30 33103 O 3152.93 1.39637 -1.30023 0
M  V30 33104 C 3150.07 2.18879 -2.66807 0
M  V30 33105 C 3149.19 1.85581 -3.90107 0
M  V30 33106 C 3148.32 3.06929 -4.33553 0
M  V30 33107 C 3147.36 2.69564 -5.49547 0
M  V30 33108 N 3146.5 3.83613 -5.88036 0
M  V30 33109 H 3151.34 0.451319 -2.94563 0
M  V30 33110 H 3148.87 0.211143 -1.45577 0
M  V30 33111 H 3150.83 2.93122 -2.96876 0
M  V30 33112 H 3149.46 2.63326 -1.86706 0
M  V30 33113 H 3148.51 1.01477 -3.66615 0
M  V30 33114 H 3149.83 1.54078 -4.74406 0
M  V30 33115 H 3148.98 3.89469 -4.65187 0
M  V30 33116 H 3147.72 3.41612 -3.4807 0
M  V30 33117 H 3146.72 1.85441 -5.17583 0
M  V30 33118 H 3147.95 2.36071 -6.36748 0
M  V30 33119 H 3145.9 4.18092 -5.05505 0
M  V30 33120 H 3145.81 3.55816 -6.67031 0
M  V30 33121 H 3147.08 4.66785 -6.24285 0
M  V30 33122 N 3151.31 1.56059 0.219886 0
M  V30 33123 C 3152.26 1.93409 1.29212 0
M  V30 33124 C 3153.25 0.816333 1.48433 0
M  V30 33125 O 3154.46 1.00118 1.49588 0
M  V30 33126 H 3150.83 0.614657 0.433245 0
M  V30 33127 H 3152.8 2.82876 0.949927 0
M  V30 33128 C 3151.55 2.26858 2.63497 0
M  V30 33129 H 3150.88 3.12382 2.49515 0
M  V30 33130 H 3152.32 2.56875 3.37329 0
M  V30 33131 C 3150.77 1.09431 3.18632 0
M  V30 33132 O 3151.3 0.356314 4.00117 0
M  V30 33133 N 3149.51 0.87769 2.77029 0
M  V30 33134 H 3149.06 1.47954 2.10873 0
M  V30 33135 H 3149.02 0.0937345 3.1426 0
M  V30 33136 N 3152.79 -0.486655 1.49898 0
M  V30 33137 C 3154.02 -1.2635 1.63839 0
M  V30 33138 C 3154.43 -1.86146 0.31546 0
M  V30 33139 O 3153.79 -1.68508 -0.700802 0
M  V30 33140 C 3153.84 -2.38346 2.71796 0
M  V30 33141 O 3153.56 -1.81006 3.98959 0
M  V30 33142 C 3155.06 -3.29485 2.96572 0
M  V30 33143 H 3152.28 -0.382699 0.551164 0
M  V30 33144 H 3154.82 -0.582659 1.96024 0
M  V30 33145 H 3152.98 -3.02234 2.4235 0
M  V30 33146 H 3153.39 -2.54639 4.5854 0
M  V30 33147 H 3154.87 -4.04315 3.7581 0
M  V30 33148 H 3155.34 -3.8734 2.07038 0
M  V30 33149 H 3155.95 -2.71349 3.2749 0
M  V30 33150 N 3154.27 -1.39214 -0.738737 0
M  V30 33151 C 3155.2 -1.33533 -1.86283 0
M  V30 33152 C 3156.21 -0.244784 -1.60949 0
M  V30 33153 O 3157.4 -0.50346 -1.71253 0
M  V30 33154 C 3154.5 -1.04975 -3.22232 0
M  V30 33155 C 3153.67 -2.25232 -3.74952 0
M  V30 33156 C 3152.73 -1.93188 -4.89453 0
M  V30 33157 O 3151.76 -2.65834 -5.0331 0
M  V30 33158 N 3152.96 -0.89578 -5.73547 0
M  V30 33159 H 3155.72 -2.30403 -1.91662 0
M  V30 33160 H 3153.29 -1.33267 -0.919314 0
M  V30 33161 H 3155.28 -0.815636 -3.96396 0
M  V30 33162 H 3153.85 -0.168506 -3.12146 0
M  V30 33163 H 3153.07 -2.64618 -2.92183 0
M  V30 33164 H 3154.36 -3.05455 -4.06909 0
M  V30 33165 H 3153.75 -0.293641 -5.64937 0
M  V30 33166 H 3152.31 -0.721565 -6.47794 0
M  V30 33167 N 3155.74 0.968523 -1.24328 0
M  V30 33168 C 3157.02 1.68667 -0.990489 0
M  V30 33169 C 3157.4 2.05395 0.487451 0
M  V30 33170 O 3156.75 1.75645 1.46155 0
M  V30 33171 C 3156.96 2.91928 -1.91257 0
M  V30 33172 C 3158.31 3.64186 -2.18297 0
M  V30 33173 O 3159.33 3.01984 -1.88903 0
M  V30 33174 O 3158.19 4.76156 -2.68212 0
M  V30 33175 H 3155.28 0.737332 -0.374527 0
M  V30 33176 H 3157.83 1.02269 -1.35422 0
M  V30 33177 H 3156.6 2.61473 -2.91114 0
M  V30 33178 H 3156.22 3.66061 -1.55194 0
M  V30 33179 N 3157.22 1.0569 1.16908 0
M  V30 33180 C 3158.17 0.632377 2.19055 0
M  V30 33181 C 3159.16 -0.33377 1.574 0
M  V30 33182 O 3160.35 -0.150192 1.76362 0
M  V30 33183 C 3157.48 0.0138812 3.43297 0
M  V30 33184 C 3156.56 1.00416 4.12041 0
M  V30 33185 N 3156.95 2.17745 4.56531 0
M  V30 33186 C 3155.25 0.83374 4.38138 0
M  V30 33187 C 3155.95 2.80434 5.09639 0
M  V30 33188 N 3154.93 2.082 5.02149 0
M  V30 33189 H 3158.73 1.52625 2.51163 0
M  V30 33190 H 3156.24 0.927731 1.33293 0
M  V30 33191 H 3158.24 -0.308044 4.1576 0
M  V30 33192 H 3156.9 -0.875325 3.12679 0
M  V30 33193 H 3157.91 2.55554 4.50458 0
M  V30 33194 H 3154.59 -0.00399345 4.175 0
M  V30 33195 H 3155.98 3.79962 5.54147 0
M  V30 33196 N 3158.7 -1.33435 0.838617 0
M  V30 33197 C 3159.95 -1.98083 0.434847 0
M  V30 33198 C 3160.28 -1.66277 -1.00328 0
M  V30 33199 O 3159.55 -0.942531 -1.70137 0
M  V30 33200 C 3159.84 -3.54081 0.655664 0
M  V30 33201 C 3159.69 -3.95575 2.14104 0
M  V30 33202 C 3161.01 -4.39983 0.101653 0
M  V30 33203 H 3158.13 -0.719541 0.159468 0
M  V30 33204 H 3160.77 -1.58079 1.05408 0
M  V30 33205 H 3158.92 -3.88287 0.128569 0
M  V30 33206 H 3160.59 -3.71626 2.73298 0
M  V30 33207 H 3158.83 -3.45315 2.62564 0
M  V30 33208 H 3159.51 -5.04228 2.2463 0
M  V30 33209 H 3161.98 -4.1242 0.552195 0
M  V30 33210 H 3160.86 -5.48155 0.285847 0
M  V30 33211 H 3161.12 -4.30768 -0.99454 0
M  V30 33212 N 3160.18 -0.595029 -1.45935 0
M  V30 33213 C 3161.59 -0.257669 -1.57506 0
M  V30 33214 C 3161.79 1.23995 -1.58831 0
M  V30 33215 O 3160.85 2.02234 -1.51187 0
M  V30 33216 C 3162.16 -0.917758 -2.86352 0
M  V30 33217 C 3163.71 -0.892499 -3.00006 0
M  V30 33218 C 3164.19 -1.53236 -4.31605 0
M  V30 33219 N 3165.68 -1.49727 -4.38333 0
M  V30 33220 C 3166.41 -1.96163 -5.38802 0
M  V30 33221 N 3165.91 -2.50628 -6.45877 0
M  V30 33222 N 3167.7 -1.87006 -5.3008 0
M  V30 33223 H 3159.85 -1.56759 -1.43319 0
M  V30 33224 H 3162.11 -0.655948 -0.684424 0
M  V30 33225 H 3161.82 -1.97176 -2.91229 0
M  V30 33226 H 3161.69 -0.43341 -3.74702 0
M  V30 33227 H 3164.08 0.152923 -2.94704 0
M  V30 33228 H 3164.16 -1.41499 -2.131 0
M  V30 33229 H 3163.81 -2.57705 -4.37665 0
M  V30 33230 H 3163.74 -0.984994 -5.17306 0
M  V30 33231 H 3166.23 -1.09927 -3.61558 0
M  V30 33232 H 3166.54 -2.83887 -7.18769 0
M  V30 33233 H 3164.89 -2.5466 -6.46663 0
M  V30 33234 H 3168.08 -1.44204 -4.45334 0
M  V30 33235 H 3168.25 -2.2351 -6.08233 0
M  V30 33236 N 3161.66 1.54031 -0.333483 0
M  V30 33237 C 3162.88 2.05629 0.270481 0
M  V30 33238 C 3163.31 1.20746 1.44229 0
M  V30 33239 O 3162.66 0.218854 1.79974 0
M  V30 33240 C 3162.71 3.54261 0.673189 0
M  V30 33241 O 3161.82 3.72274 1.77442 0
M  V30 33242 H 3161.16 0.662337 0.0469637 0
M  V30 33243 H 3163.69 1.98774 -0.484774 0
M  V30 33244 H 3163.7 3.96711 0.953124 0
M  V30 33245 H 3162.37 4.15494 -0.18382 0
M  V30 33246 H 3160.95 3.41728 1.49253 0
M  V30 33247 N 3163.13 0.0618717 1.57479 0
M  V30 33248 C 3164.06 -0.906562 2.15183 0
M  V30 33249 C 3165.04 -1.31722 1.07626 0
M  V30 33250 O 3166.23 -1.39003 1.35616 0
M  V30 33251 C 3163.36 -2.17767 2.70546 0
M  V30 33252 C 3162.31 -1.90673 3.83181 0
M  V30 33253 C 3161.64 -3.2433 4.25105 0
M  V30 33254 C 3162.94 -1.21985 5.07855 0
M  V30 33255 H 3164.63 -0.425888 2.96355 0
M  V30 33256 H 3162.18 -0.20341 1.42556 0
M  V30 33257 H 3164.13 -2.85924 3.09557 0
M  V30 33258 H 3162.86 -2.68059 1.8658 0
M  V30 33259 H 3161.52 -1.24925 3.44658 0
M  V30 33260 H 3161.16 -3.72443 3.38075 0
M  V30 33261 H 3160.86 -3.06996 5.01026 0
M  V30 33262 H 3162.39 -3.93701 4.66725 0
M  V30 33263 H 3163.8 -1.80195 5.44245 0
M  V30 33264 H 3162.2 -1.14943 5.88989 0
M  V30 33265 H 3163.27 -0.197451 4.84498 0
M  V30 33266 N 3164.61 -1.56173 -0.211607 0
M  V30 33267 C 3165.85 -1.81427 -0.941473 0
M  V30 33268 C 3166.22 -0.636894 -1.81129 0
M  V30 33269 O 3167.42 -0.768952 -2.57567 0
M  V30 33270 C 3165.69 -3.11626 -1.74997 0
M  V30 33271 S 3167.25 -3.58229 -2.53411 0
M  V30 33272 H 3164.07 -0.63688 -0.316077 0
M  V30 33273 H 3166.67 -1.94409 -0.20621 0
M  V30 33274 H 3165.37 -3.95348 -1.10129 0
M  V30 33275 H 3164.9 -3.01477 -2.52735 0
M  V30 33276 H 3166.92 -3.22355 -3.77229 0
M  V30 33277 N 3166.09 0.478699 -1.50154 0
M  V30 33278 C 3167.02 1.58584 -1.71387 0
M  V30 33279 C 3168 1.60522 -0.562733 0
M  V30 33280 O 3169.19 1.76909 -0.801041 0
M  V30 33281 C 3166.32 2.96954 -1.80099 0
M  V30 33282 C 3165.27 3.09882 -2.95224 0
M  V30 33283 C 3164.6 4.49824 -2.89071 0
M  V30 33284 C 3165.9 2.87812 -4.35846 0
M  V30 33285 H 3167.59 1.41069 -2.64083 0
M  V30 33286 H 3165.14 0.677217 -1.27082 0
M  V30 33287 H 3167.09 3.74327 -1.93538 0
M  V30 33288 H 3165.81 3.15608 -0.840186 0
M  V30 33289 H 3164.47 2.34939 -2.81423 0
M  V30 33290 H 3164.12 4.65386 -1.90852 0
M  V30 33291 H 3163.82 4.59412 -3.66353 0
M  V30 33292 H 3165.34 5.29228 -3.04548 0
M  V30 33293 H 3166.76 3.5494 -4.50212 0
M  V30 33294 H 3165.16 3.08851 -5.1452 0
M  V30 33295 H 3166.23 1.83734 -4.48743 0
M  V30 33296 N 3167.57 1.39603 0.731343 0
M  V30 33297 C 3168.5 1.41355 1.85852 0
M  V30 33298 C 3169.48 0.27643 1.67839 0
M  V30 33299 O 3170.66 0.48278 1.88103 0
M  V30 33300 C 3167.79 1.25989 3.23642 0
M  V30 33301 C 3166.75 2.37138 3.563 0
M  V30 33302 C 3166.07 2.06859 4.93065 0
M  V30 33303 C 3167.37 3.79458 3.589 0
M  V30 33304 H 3169.07 2.35684 1.84644 0
M  V30 33305 H 3166.61 1.13444 0.886935 0
M  V30 33306 H 3168.57 1.25834 4.02174 0
M  V30 33307 H 3167.29 0.281292 3.25386 0
M  V30 33308 H 3165.95 2.36516 2.80099 0
M  V30 33309 H 3165.6 1.07429 4.91394 0
M  V30 33310 H 3165.3 2.81315 5.15883 0
M  V30 33311 H 3166.82 2.0836 5.7395 0
M  V30 33312 H 3168.24 3.81989 4.27501 0
M  V30 33313 H 3166.63 4.53304 3.93238 0
M  V30 33314 H 3167.7 4.10173 2.58624 0
M  V30 33315 N 3169.05 -0.961916 1.2484 0
M  V30 33316 C 3170.01 -2.039 1.04677 0
M  V30 33317 C 3171.01 -1.608 0.002075 0
M  V30 33318 O 3172.2 -1.72489 0.243585 0
M  V30 33319 C 3169.33 -3.35794 0.587795 0
M  V30 33320 H 3170.52 -2.2322 2.00282 0
M  V30 33321 H 3168.08 -1.13798 1.07144 0
M  V30 33322 H 3168.81 -3.22169 -0.371188 0
M  V30 33323 H 3168.6 -3.68423 1.34189 0
M  V30 33324 H 3170.09 -4.1497 0.46794 0
M  V30 33325 N 3170.52 -1.06308 -1.16346 0
M  V30 33326 C 3171.77 -0.790853 -1.87396 0
M  V30 33327 C 3172.13 0.67535 -1.80158 0
M  V30 33328 O 3171.42 1.48845 -1.20647 0
M  V30 33329 C 3171.61 -1.21996 -3.35934 0
M  V30 33330 C 3171.44 -2.72634 -3.57632 0
M  V30 33331 C 3170.21 -3.401 -3.73711 0
M  V30 33332 C 3172.41 -3.70847 -3.56339 0
M  V30 33333 N 3170.39 -4.79487 -3.83361 0
M  V30 33334 C 3171.76 -4.96019 -3.71974 0
M  V30 33335 C 3173.82 -3.64155 -3.39552 0
M  V30 33336 C 3172.52 -6.15298 -3.7256 0
M  V30 33337 C 3174.55 -4.82886 -3.4143 0
M  V30 33338 C 3173.91 -6.06887 -3.57585 0
M  V30 33339 H 3170.01 -0.341795 -0.703349 0
M  V30 33340 H 3172.59 -1.35726 -1.39595 0
M  V30 33341 H 3170.76 -0.681386 -3.82376 0
M  V30 33342 H 3172.49 -0.896388 -3.94648 0
M  V30 33343 H 3169.25 -2.90502 -3.7404 0
M  V30 33344 H 3169.67 -5.51997 -3.91954 0
M  V30 33345 H 3174.32 -2.69241 -3.25989 0
M  V30 33346 H 3172.03 -7.10546 -3.84903 0
M  V30 33347 H 3175.62 -4.79374 -3.29684 0
M  V30 33348 H 3174.5 -6.97222 -3.58958 0
M  V30 33349 N 3172 1.32989 -0.845682 0
M  V30 33350 C 3172.95 2.26561 -0.25574 0
M  V30 33351 C 3173.94 1.49565 0.593219 0
M  V30 33352 O 3175.13 1.71339 0.444071 0
M  V30 33353 C 3172.26 3.3866 0.562513 0
M  V30 33354 C 3171.34 4.23049 -0.298333 0
M  V30 33355 N 3171.73 4.86601 -1.38031 0
M  V30 33356 C 3170.03 4.45916 -0.0865323 0
M  V30 33357 C 3170.73 5.49478 -1.90917 0
M  V30 33358 N 3169.71 5.2997 -1.20964 0
M  V30 33359 H 3173.51 2.73217 -1.08304 0
M  V30 33360 H 3171.03 1.46973 -0.690849 0
M  V30 33361 H 3173.02 4.04692 1.0015 0
M  V30 33362 H 3171.68 2.93552 1.38771 0
M  V30 33363 H 3172.69 4.86961 -1.76323 0
M  V30 33364 H 3169.37 4.1151 0.704678 0
M  V30 33365 H 3170.76 6.10059 -2.81562 0
M  V30 33366 N 3173.48 0.60276 1.45618 0
M  V30 33367 C 3174.43 -0.131443 2.32228 0
M  V30 33368 C 3175.42 -0.864458 1.45683 0
M  V30 33369 O 3176.63 -0.780572 1.62195 0
M  V30 33370 H 3173 -0.0612506 0.749501 0
M  V30 33371 H 3174.97 0.617547 2.9194 0
M  V30 33372 C 3173.72 -1.1186 3.29215 0
M  V30 33373 H 3173.05 -0.563992 3.95802 0
M  V30 33374 H 3174.49 -1.60235 3.92557 0
M  V30 33375 C 3172.95 -2.18974 2.56031 0
M  V30 33376 O 3173.48 -3.26642 2.33812 0
M  V30 33377 N 3171.68 -1.94126 2.16249 0
M  V30 33378 H 3171.23 -1.06575 2.3452 0
M  V30 33379 H 3171.19 -2.66 1.67605 0
M  V30 33380 N 3174.96 -1.53852 0.341647 0
M  V30 33381 C 3176.21 -2.00486 -0.254944 0
M  V30 33382 C 3176.53 -1.23116 -1.5122 0
M  V30 33383 O 3175.8 -0.337821 -1.92965 0
M  V30 33384 H 3174.38 -0.74065 -0.0971954 0
M  V30 33385 H 3177.04 -1.89336 0.462366 0
M  V30 33386 H 3176.14 -3.0809 -0.498724 0
M  V30 33387 N 3176.44 -0.0702223 -1.57443 0
M  V30 33388 C 3177.35 0.912339 -2.16133 0
M  V30 33389 C 3178.36 1.32817 -1.12409 0
M  V30 33390 O 3179.54 1.40119 -1.44667 0
M  V30 33391 C 3176.6 2.16226 -2.71011 0
M  V30 33392 C 3175.66 1.80299 -3.89603 0
M  V30 33393 C 3174.9 2.99333 -4.41855 0
M  V30 33394 O 3175.12 4.13302 -3.93113 0
M  V30 33395 O 3174.05 2.7924 -5.33206 0
M  V30 33396 H 3177.88 0.443114 -3.0045 0
M  V30 33397 H 3175.47 0.15276 -1.48617 0
M  V30 33398 H 3177.35 2.89525 -3.06192 0
M  V30 33399 H 3176.02 2.62249 -1.89755 0
M  V30 33400 H 3174.93 1.04257 -3.59279 0
M  V30 33401 H 3176.26 1.3906 -4.72147 0
M  V30 33402 N 3177.91 1.56283 0.203321 0
M  V30 33403 C 3178.86 1.90291 1.25592 0
M  V30 33404 C 3179.85 0.767757 1.41401 0
M  V30 33405 O 3181.04 1.03048 1.4391 0
M  V30 33406 C 3178.17 2.23885 2.60251 0
M  V30 33407 C 3177.26 3.43837 2.48268 0
M  V30 33408 N 3177.65 4.6197 2.05955 0
M  V30 33409 C 3175.94 3.47813 2.79182 0
M  V30 33410 C 3176.65 5.4413 2.05664 0
M  V30 33411 N 3175.62 4.84318 2.46854 0
M  V30 33412 H 3179.42 2.7913 0.919967 0
M  V30 33413 H 3176.94 1.57092 0.411802 0
M  V30 33414 H 3178.93 2.46431 3.3627 0
M  V30 33415 H 3177.59 1.36368 2.94676 0
M  V30 33416 H 3178.61 4.8679 1.76794 0
M  V30 33417 H 3175.28 2.70689 3.17858 0
M  V30 33418 H 3176.67 6.48731 1.74921 0
M  V30 33419 N 3179.39 -0.470729 1.50406 0
M  V30 33420 C 3180.3 -1.59451 1.72083 0
M  V30 33421 C 3181.32 -1.63182 0.60396 0
M  V30 33422 O 3182.5 -1.81044 0.882328 0
M  V30 33423 C 3179.56 -2.95664 1.81062 0
M  V30 33424 C 3178.62 -3.02319 3.04798 0
M  V30 33425 C 3177.85 -4.32035 3.13339 0
M  V30 33426 O 3178.08 -5.2256 2.28664 0
M  V30 33427 O 3177.01 -4.44289 4.06068 0
M  V30 33428 H 3180.84 -1.44084 2.67345 0
M  V30 33429 H 3178.42 -0.650263 1.34506 0
M  V30 33430 H 3180.3 -3.76565 1.89147 0
M  V30 33431 H 3178.98 -3.11229 0.889837 0
M  V30 33432 H 3177.89 -2.20494 3.02214 0
M  V30 33433 H 3179.22 -2.91691 3.96456 0
M  V30 33434 N 3180.87 -1.39989 -0.72393 0
M  V30 33435 C 3182.1 -1.40908 -1.51091 0
M  V30 33436 C 3182.51 -0.00480069 -1.89199 0
M  V30 33437 O 3181.85 0.979619 -1.554 0
M  V30 33438 C 3181.91 -2.22832 -2.8211 0
M  V30 33439 C 3181.58 -3.71342 -2.66373 0
M  V30 33440 C 3182.58 -4.6417 -2.34184 0
M  V30 33441 C 3180.26 -4.15059 -2.82898 0
M  V30 33442 C 3182.25 -5.987 -2.18718 0
M  V30 33443 C 3179.94 -5.49661 -2.6705 0
M  V30 33444 C 3180.94 -6.41296 -2.35007 0
M  V30 33445 O 3180.63 -7.73418 -2.1927 0
M  V30 33446 H 3180.36 -0.482826 -0.473133 0
M  V30 33447 H 3182.91 -1.8457 -0.901288 0
M  V30 33448 H 3181.14 -1.73936 -3.45374 0
M  V30 33449 H 3182.83 -2.15793 -3.43785 0
M  V30 33450 H 3183.6 -4.31692 -2.21058 0
M  V30 33451 H 3179.48 -3.4406 -3.06828 0
M  V30 33452 H 3183.02 -6.70189 -1.9363 0
M  V30 33453 H 3178.92 -5.81727 -2.79758 0
M  V30 33454 H 3179.69 -7.84262 -2.34255 0
M  V30 33455 N 3182.35 0.955282 -1.25348 0
M  V30 33456 C 3183.26 2.08564 -1.07415 0
M  V30 33457 C 3184.28 1.73996 -0.0114729 0
M  V30 33458 O 3185.45 2.00278 -0.212271 0
M  V30 33459 C 3182.52 3.39679 -0.694201 0
M  V30 33460 C 3181.58 3.88118 -1.83475 0
M  V30 33461 C 3180.81 5.12975 -1.47283 0
M  V30 33462 O 3181.03 5.6921 -0.368186 0
M  V30 33463 O 3179.97 5.56107 -2.30279 0
M  V30 33464 H 3183.79 2.26594 -2.0221 0
M  V30 33465 H 3181.38 1.06986 -1.0428 0
M  V30 33466 H 3183.26 4.1849 -0.494399 0
M  V30 33467 H 3181.94 3.22921 0.224488 0
M  V30 33468 H 3180.84 3.10314 -2.0894 0
M  V30 33469 H 3182.18 4.09374 -2.73265 0
M  V30 33470 N 3183.83 1.06924 1.1578 0
M  V30 33471 C 3184.74 0.696988 2.24007 0
M  V30 33472 C 3185.75 -0.289832 1.71569 0
M  V30 33473 O 3186.93 -0.13755 2.0093 0
M  V30 33474 C 3183.99 0.0958504 3.46567 0
M  V30 33475 C 3183.06 1.13535 4.14015 0
M  V30 33476 C 3182.29 0.562806 5.30724 0
M  V30 33477 O 3182.51 -0.62249 5.66993 0
M  V30 33478 O 3181.45 1.30559 5.87569 0
M  V30 33479 H 3185.27 1.59942 2.58171 0
M  V30 33480 H 3182.86 0.84191 1.23419 0
M  V30 33481 H 3184.74 -0.237333 4.20731 0
M  V30 33482 H 3183.41 -0.779972 3.14163 0
M  V30 33483 H 3182.32 1.52082 3.41792 0
M  V30 33484 H 3183.65 1.98292 4.5049 0
M  V30 33485 N 3185.31 -1.32538 0.852723 0
M  V30 33486 C 3186.55 -1.97318 0.455158 0
M  V30 33487 C 3186.88 -1.67491 -0.988784 0
M  V30 33488 O 3186.14 -0.954513 -1.70844 0
M  V30 33489 C 3186.43 -3.51645 0.638819 0
M  V30 33490 C 3186.1 -4.01454 2.05294 0
M  V30 33491 C 3184.76 -4.14767 2.43971 0
M  V30 33492 C 3187.11 -4.27884 2.97598 0
M  V30 33493 C 3184.44 -4.51852 3.74228 0
M  V30 33494 C 3186.79 -4.66427 4.27351 0
M  V30 33495 C 3185.46 -4.77946 4.65965 0
M  V30 33496 H 3184.73 -0.722039 0.166554 0
M  V30 33497 H 3187.38 -1.57975 1.08241 0
M  V30 33498 H 3185.68 -3.91734 -0.0716705 0
M  V30 33499 H 3187.38 -3.9979 0.311289 0
M  V30 33500 H 3183.97 -3.91576 1.7426 0
M  V30 33501 H 3188.15 -4.17109 2.68949 0
M  V30 33502 H 3183.41 -4.58965 4.03932 0
M  V30 33503 H 3187.58 -4.85832 4.98939 0
M  V30 33504 H 3185.21 -5.06439 5.66943 0
M  V30 33505 N 3186.78 -0.610474 -1.45296 0
M  V30 33506 C 3188.03 -0.104359 -2.0143 0
M  V30 33507 C 3188.35 1.27386 -1.48433 0
M  V30 33508 O 3189.55 1.87286 -1.96561 0
M  V30 33509 C 3188.01 -0.135876 -3.59643 0
M  V30 33510 C 3187.62 -1.51412 -4.21638 0
M  V30 33511 C 3189.36 0.314848 -4.23331 0
M  V30 33512 C 3187.27 -1.50186 -5.72012 0
M  V30 33513 H 3186.2 -0.0352462 -0.753176 0
M  V30 33514 H 3188.85 -0.76623 -1.66737 0
M  V30 33515 H 3187.23 0.592704 -3.91539 0
M  V30 33516 H 3188.4 -2.26464 -4.01311 0
M  V30 33517 H 3186.72 -1.90718 -3.70156 0
M  V30 33518 H 3189.32 0.343241 -5.33597 0
M  V30 33519 H 3189.66 1.33811 -3.94209 0
M  V30 33520 H 3190.19 -0.360558 -3.96163 0
M  V30 33521 H 3186.93 -2.50282 -6.05838 0
M  V30 33522 H 3186.45 -0.793973 -5.94522 0
M  V30 33523 H 3188.13 -1.22676 -6.35263 0
M  V30 33524 N 3188.26 1.53669 -0.349801 0
M  V30 33525 C 3189.68 1.596 0.00188487 0
M  V30 33526 C 3189.88 1.36554 1.48173 0
M  V30 33527 O 3188.93 1.16289 2.24127 0
M  V30 33528 C 3190.25 2.97465 -0.4399 0
M  V30 33529 C 3191.79 3.10526 -0.392775 0
M  V30 33530 C 3192.27 4.50778 -0.810126 0
M  V30 33531 N 3193.76 4.56847 -0.764559 0
M  V30 33532 C 3194.5 5.63529 -1.05937 0
M  V30 33533 N 3193.99 6.78036 -1.42265 0
M  V30 33534 N 3195.78 5.53434 -0.983195 0
M  V30 33535 H 3187.94 1.66902 -1.31367 0
M  V30 33536 H 3190.2 0.78198 -0.535922 0
M  V30 33537 H 3189.9 3.19416 -1.47195 0
M  V30 33538 H 3189.78 3.76762 0.181668 0
M  V30 33539 H 3192.17 2.88294 0.63011 0
M  V30 33540 H 3192.25 2.33273 -1.04963 0
M  V30 33541 H 3191.89 4.73746 -1.83105 0
M  V30 33542 H 3191.82 5.26438 -0.130683 0
M  V30 33543 H 3194.31 3.74622 -0.496703 0
M  V30 33544 H 3194.62 7.55365 -1.63228 0
M  V30 33545 H 3192.97 6.79467 -1.46116 0
M  V30 33546 H 3196.16 4.62856 -0.698682 0
M  V30 33547 H 3196.33 6.36483 -1.21629 0
M  V30 33548 N 3189.74 0.0785709 1.57404 0
M  V30 33549 C 3190.69 -0.886272 2.13105 0
M  V30 33550 C 3191.66 -1.29085 1.04529 0
M  V30 33551 O 3192.84 -1.37551 1.32228 0
M  V30 33552 C 3189.98 -2.14606 2.70256 0
M  V30 33553 C 3189.09 -1.79351 3.9301 0
M  V30 33554 C 3188.23 -2.99993 4.38381 0
M  V30 33555 C 3187.27 -2.60787 5.53766 0
M  V30 33556 N 3186.41 -3.74209 5.94064 0
M  V30 33557 H 3191.25 -0.4044 2.95243 0
M  V30 33558 H 3188.78 -0.187956 1.45894 0
M  V30 33559 H 3190.74 -2.88362 3.01502 0
M  V30 33560 H 3189.37 -2.60322 1.90872 0
M  V30 33561 H 3188.42 -0.956319 3.68183 0
M  V30 33562 H 3189.73 -1.46512 4.76797 0
M  V30 33563 H 3188.89 -3.82019 4.71324 0
M  V30 33564 H 3187.63 -3.36031 3.53461 0
M  V30 33565 H 3186.63 -1.77183 5.20467 0
M  V30 33566 H 3187.86 -2.25911 6.40423 0
M  V30 33567 H 3185.8 -4.09996 5.12093 0
M  V30 33568 H 3185.72 -3.45159 6.72608 0
M  V30 33569 H 3186.99 -4.56794 6.31632 0
M  V30 33570 N 3191.22 -1.56389 -0.19503 0
M  V30 33571 C 3192.47 -1.79823 -0.913595 0
M  V30 33572 C 3192.78 -0.651799 -1.84421 0
M  V30 33573 O 3193.99 -0.770447 -2.60339 0
M  V30 33574 C 3192.44 -3.18551 -1.67492 0
M  V30 33575 C 3192.05 -4.40995 -0.789127 0
M  V30 33576 C 3193.79 -3.51295 -2.38311 0
M  V30 33577 C 3191.7 -5.70745 -1.54932 0
M  V30 33578 H 3190.63 -0.670503 -0.344879 0
M  V30 33579 H 3193.28 -1.8274 -0.16688 0
M  V30 33580 H 3191.66 -3.09884 -2.46552 0
M  V30 33581 H 3192.84 -4.60785 -0.0371785 0
M  V30 33582 H 3191.15 -4.15958 -0.191761 0
M  V30 33583 H 3193.75 -4.4547 -2.95737 0
M  V30 33584 H 3194.09 -2.75042 -3.12502 0
M  V30 33585 H 3194.63 -3.61409 -1.66217 0
M  V30 33586 H 3191.36 -6.49963 -0.850196 0
M  V30 33587 H 3190.88 -5.54973 -2.2752 0
M  V30 33588 H 3192.56 -6.11865 -2.1031 0
M  V30 33589 N 3192.7 0.462746 -1.50653 0
M  V30 33590 C 3194.11 0.797189 -1.38264 0
M  V30 33591 C 3194.31 1.9652 -0.445206 0
M  V30 33592 O 3193.37 2.52264 0.109086 0
M  V30 33593 C 3194.68 1.10142 -2.79802 0
M  V30 33594 C 3196.23 1.20737 -2.88776 0
M  V30 33595 C 3196.7 1.54468 -4.31165 0
M  V30 33596 N 3198.19 1.61443 -4.34155 0
M  V30 33597 C 3198.93 1.89064 -5.41334 0
M  V30 33598 N 3198.43 2.14649 -6.58709 0
M  V30 33599 N 3200.22 1.90636 -5.28786 0
M  V30 33600 H 3192.37 -0.306877 -2.10171 0
M  V30 33601 H 3194.63 -0.0748028 -0.945044 0
M  V30 33602 H 3194.34 0.316145 -3.50276 0
M  V30 33603 H 3194.21 2.03553 -3.17563 0
M  V30 33604 H 3196.6 1.9833 -2.18516 0
M  V30 33605 H 3196.68 0.252859 -2.54547 0
M  V30 33606 H 3196.32 0.774119 -5.01966 0
M  V30 33607 H 3196.25 2.51084 -4.62887 0
M  V30 33608 H 3198.75 1.43677 -3.49521 0
M  V30 33609 H 3199.06 2.35022 -7.36196 0
M  V30 33610 H 3197.4 2.12024 -6.61869 0
M  V30 33611 H 3200.59 1.7015 -4.36081 0
M  V30 33612 H 3200.77 2.11825 -6.124 0
M  V30 33613 N 3194.17 1.40371 0.716495 0
M  V30 33614 C 3195.4 1.42105 1.51066 0
M  V30 33615 C 3195.82 0.0222717 1.88087 0
M  V30 33616 O 3195.18 -0.969421 1.53205 0
M  V30 33617 C 3195.23 2.31709 2.76303 0
M  V30 33618 O 3194.33 1.75971 3.72972 0
M  V30 33619 H 3193.68 0.483137 0.455494 0
M  V30 33620 H 3196.21 1.8459 0.882481 0
M  V30 33621 H 3196.22 2.46864 3.24842 0
M  V30 33622 H 3194.89 3.33354 2.48692 0
M  V30 33623 H 3193.47 1.70157 3.31815 0
M  V30 33624 N 3195.65 -0.948621 1.25853 0
M  V30 33625 C 3196.9 -1.69646 1.11122 0
M  V30 33626 C 3197.23 -1.91094 -0.345962 0
M  V30 33627 O 3196.51 -1.48624 -1.25464 0
M  V30 33628 C 3196.79 -3.07577 1.87266 0
M  V30 33629 C 3196.64 -2.93501 3.40847 0
M  V30 33630 C 3197.96 -4.0757 1.66057 0
M  V30 33631 H 3195.08 -0.615706 0.405062 0
M  V30 33632 H 3197.72 -1.10226 1.54758 0
M  V30 33633 H 3195.87 -3.583 1.50178 0
M  V30 33634 H 3197.54 -2.50057 3.87646 0
M  V30 33635 H 3195.79 -2.29288 3.68252 0
M  V30 33636 H 3196.46 -3.91298 3.89345 0
M  V30 33637 H 3198.93 -3.65779 1.98355 0
M  V30 33638 H 3197.81 -5.02109 2.21761 0
M  V30 33639 H 3198.07 -4.37964 0.603333 0
M  V30 33640 N 3197.13 -1.07536 -1.15212 0
M  V30 33641 C 3198.54 -0.822074 -1.67627 0
M  V30 33642 C 3198.89 0.652538 -1.85031 0
M  V30 33643 O 3198.02 1.50495 -1.55499 0
M  V30 33644 C 3198.61 -1.48571 -3.04487 0
M  V30 33645 C 3197.17 -1.27989 -3.53971 0
M  V30 33646 C 3196.32 -1.55418 -2.29653 0
M  V30 33647 H 3199.27 -1.23715 -0.993994 0
M  V30 33648 H 3199.29 -0.907981 -3.69508 0
M  V30 33649 H 3198.8 -2.55894 -2.91788 0
M  V30 33650 H 3196.9 -0.226971 -3.71908 0
M  V30 33651 H 3197.02 -2.00138 -4.35295 0
M  V30 33652 H 3195.38 -0.975293 -2.35287 0
M  V30 33653 H 3196.16 -2.63927 -2.19539 0
M  V30 33654 N 3198.61 1.32084 -0.85974 0
M  V30 33655 C 3199.85 1.97366 -0.466306 0
M  V30 33656 C 3200.19 1.67852 0.976698 0
M  V30 33657 O 3199.46 0.969479 1.68616 0
M  V30 33658 C 3199.75 3.52993 -0.711913 0
M  V30 33659 C 3199.6 3.92118 -2.20371 0
M  V30 33660 C 3200.92 4.39765 -0.171638 0
M  V30 33661 H 3198.04 0.716913 -0.170895 0
M  V30 33662 H 3200.68 1.56382 -1.0791 0
M  V30 33663 H 3198.83 3.88034 -0.190326 0
M  V30 33664 H 3200.5 3.67231 -2.79176 0
M  V30 33665 H 3198.74 3.41094 -2.68025 0
M  V30 33666 H 3199.41 5.0059 -2.32623 0
M  V30 33667 H 3201.89 4.11489 -0.617737 0
M  V30 33668 H 3200.77 5.47631 -0.373017 0
M  V30 33669 H 3201.03 4.32296 0.925883 0
M  V30 33670 N 3200.09 0.618171 1.4497 0
M  V30 33671 C 3201.33 0.117285 2.01759 0
M  V30 33672 C 3201.66 -1.2606 1.48775 0
M  V30 33673 O 3200.93 -1.83489 0.686184 0
M  V30 33674 H 3199.51 0.0403676 0.745908 0
M  V30 33675 H 3202.17 0.801954 1.77636 0
M  V30 33676 H 3201.26 0.0751026 3.1201 0
M  V30 33677 N 3201.56 -1.53481 0.357946 0
M  V30 33678 C 3202.98 -1.59599 0.00657912 0
M  V30 33679 C 3203.18 -1.37338 -1.47446 0
M  V30 33680 O 3202.24 -1.17476 -2.23508 0
M  V30 33681 C 3203.55 -2.97227 0.455669 0
M  V30 33682 C 3205.1 -3.10313 0.409238 0
M  V30 33683 C 3205.57 -4.50342 0.83402 0
M  V30 33684 N 3207.06 -4.56435 0.788776 0
M  V30 33685 C 3207.8 -5.62959 1.08924 0
M  V30 33686 N 3207.29 -6.77272 1.45859 0
M  V30 33687 N 3209.09 -5.52905 1.01253 0
M  V30 33688 H 3201.24 -1.66203 1.3225 0
M  V30 33689 H 3203.5 -0.779126 0.540061 0
M  V30 33690 H 3203.21 -3.18631 1.48887 0
M  V30 33691 H 3203.08 -3.76853 -0.161685 0
M  V30 33692 H 3205.47 -2.88624 -0.614812 0
M  V30 33693 H 3205.55 -2.32713 1.06199 0
M  V30 33694 H 3205.19 -4.72768 1.85615 0
M  V30 33695 H 3205.12 -5.26361 0.1586 0
M  V30 33696 H 3207.61 -3.74353 0.516563 0
M  V30 33697 H 3207.93 -7.54489 1.67231 0
M  V30 33698 H 3206.27 -6.78682 1.49717 0
M  V30 33699 H 3209.46 -4.62479 0.723219 0
M  V30 33700 H 3209.64 -6.35829 1.25003 0
M  V30 33701 N 3203.04 -0.0869173 -1.5736 0
M  V30 33702 C 3204.28 0.582177 -1.95934 0
M  V30 33703 C 3204.65 1.65855 -0.967267 0
M  V30 33704 O 3205.85 2.38427 -1.2412 0
M  V30 33705 C 3204.12 1.13044 -3.39051 0
M  V30 33706 S 3205.68 1.81255 -3.99615 0
M  V30 33707 H 3202.5 0.190209 -0.685085 0
M  V30 33708 H 3205.1 -0.164375 -1.94808 0
M  V30 33709 H 3203.8 0.33542 -4.09027 0
M  V30 33710 H 3203.33 1.913 -3.43755 0
M  V30 33711 H 3205.35 3.09617 -3.87752 0
M  V30 33712 N 3204.52 1.5649 0.186734 0
M  V30 33713 C 3205.45 1.98234 1.23391 0
M  V30 33714 C 3206.43 0.855551 1.47018 0
M  V30 33715 O 3207.62 1.1205 1.58614 0
M  V30 33716 C 3204.75 2.32903 2.57631 0
M  V30 33717 C 3203.7 3.48398 2.48601 0
M  V30 33718 C 3203.03 3.68766 3.8719 0
M  V30 33719 C 3204.33 4.82329 2.0039 0
M  V30 33720 H 3206.02 2.8596 0.886976 0
M  V30 33721 H 3203.57 1.37578 0.425226 0
M  V30 33722 H 3205.52 2.60702 3.31078 0
M  V30 33723 H 3204.24 1.42069 2.94082 0
M  V30 33724 H 3202.9 3.20703 1.77609 0
M  V30 33725 H 3202.55 2.75248 4.21008 0
M  V30 33726 H 3202.25 4.46468 3.82021 0
M  V30 33727 H 3203.77 3.98949 4.62246 0
M  V30 33728 H 3205.19 5.09105 2.63601 0
M  V30 33729 H 3203.59 5.6356 2.06204 0
M  V30 33730 H 3204.66 4.75353 0.957478 0
M  V30 33731 N 3206 -0.45475 1.50897 0
M  V30 33732 C 3207.23 -1.22846 1.66482 0
M  V30 33733 C 3207.64 -1.85435 0.354874 0
M  V30 33734 O 3207 -1.69957 -0.664901 0
M  V30 33735 C 3207.05 -2.32527 2.76791 0
M  V30 33736 O 3206.77 -1.72502 4.02709 0
M  V30 33737 C 3208.27 -3.2312 3.03494 0
M  V30 33738 H 3205.49 -0.370922 0.559158 0
M  V30 33739 H 3208.04 -0.540949 1.97216 0
M  V30 33740 H 3206.19 -2.97025 2.48706 0
M  V30 33741 H 3206.6 -2.44855 4.63839 0
M  V30 33742 H 3208.08 -3.96253 3.84301 0
M  V30 33743 H 3208.56 -3.82861 2.15207 0
M  V30 33744 H 3209.16 -2.64342 3.33172 0
M  V30 33745 N 3207.48 -1.40749 -0.709041 0
M  V30 33746 C 3208.41 -1.44293 -1.8358 0
M  V30 33747 C 3209.39 -0.303096 -1.67378 0
M  V30 33748 O 3210.57 -0.512645 -1.87311 0
M  V30 33749 C 3207.7 -1.31121 -3.21597 0
M  V30 33750 C 3206.66 -2.42776 -3.52482 0
M  V30 33751 C 3205.98 -2.14677 -4.89712 0
M  V30 33752 C 3207.28 -3.8512 -3.52817 0
M  V30 33753 H 3208.98 -2.38591 -1.80871 0
M  V30 33754 H 3206.52 -1.1484 -0.868775 0
M  V30 33755 H 3208.48 -1.32216 -4.00121 0
M  V30 33756 H 3207.2 -0.333022 -3.24898 0
M  V30 33757 H 3205.86 -2.40942 -2.76301 0
M  V30 33758 H 3205.51 -1.15233 -4.89623 0
M  V30 33759 H 3205.21 -2.89487 -5.11342 0
M  V30 33760 H 3206.73 -2.17465 -5.70562 0
M  V30 33761 H 3208.14 -3.88742 -4.2137 0
M  V30 33762 H 3206.54 -4.59502 -3.85976 0
M  V30 33763 H 3207.61 -4.14235 -2.52066 0
M  V30 33764 N 3208.96 0.941933 -1.26354 0
M  V30 33765 C 3210.37 1.50285 -1.10776 0
M  V30 33766 C 3210.72 1.937 0.312194 0
M  V30 33767 O 3209.84 1.7984 1.20361 0
M  V30 33768 C 3210.44 2.7312 -2.00477 0
M  V30 33769 C 3209 3.25481 -1.89047 0
M  V30 33770 C 3208.14 1.98264 -1.93873 0
M  V30 33771 H 3211.09 0.757498 -1.39455 0
M  V30 33772 H 3211.12 3.47399 -1.55222 0
M  V30 33773 H 3210.63 2.4149 -3.03816 0
M  V30 33774 H 3208.73 3.61903 -0.886405 0
M  V30 33775 H 3208.84 3.92638 -2.74539 0
M  V30 33776 H 3207.21 2.14129 -1.37916 0
M  V30 33777 H 3207.99 1.68967 -2.9884 0
M  V30 33778 N 3210.43 1.08146 1.1464 0
M  V30 33779 C 3211.4 0.712837 2.17833 0
M  V30 33780 C 3212.4 -0.251013 1.58829 0
M  V30 33781 O 3213.59 -0.0309075 1.74173 0
M  V30 33782 C 3210.72 0.0520076 3.4086 0
M  V30 33783 H 3211.91 1.62657 2.51958 0
M  V30 33784 H 3209.46 0.878994 1.29242 0
M  V30 33785 H 3210.2 -0.873581 3.12312 0
M  V30 33786 H 3209.98 0.745353 3.84951 0
M  V30 33787 H 3211.47 -0.190958 4.17163 0
M  V30 33788 N 3211.91 -1.31626 0.866732 0
M  V30 33789 C 3213.16 -1.96825 0.476061 0
M  V30 33790 C 3213.49 -1.68531 -0.970964 0
M  V30 33791 O 3212.74 -0.97258 -1.69822 0
M  V30 33792 C 3213.04 -3.50947 0.67608 0
M  V30 33793 C 3212.71 -3.99254 2.0954 0
M  V30 33794 C 3211.37 -4.12156 2.48356 0
M  V30 33795 C 3213.72 -4.24704 3.02119 0
M  V30 33796 C 3211.05 -4.47858 3.78999 0
M  V30 33797 C 3213.4 -4.61868 4.32274 0
M  V30 33798 C 3212.06 -4.72977 4.71009 0
M  V30 33799 H 3211.33 -0.720232 0.174203 0
M  V30 33800 H 3213.98 -1.56818 1.0991 0
M  V30 33801 H 3212.29 -3.91788 -0.0301178 0
M  V30 33802 H 3213.98 -3.99437 0.353675 0
M  V30 33803 H 3210.57 -3.89705 1.78403 0
M  V30 33804 H 3214.76 -4.14233 2.73358 0
M  V30 33805 H 3210.01 -4.54655 4.08777 0
M  V30 33806 H 3214.19 -4.80513 5.04064 0
M  V30 33807 H 3211.81 -5.00397 5.72282 0
M  V30 33808 N 3213.39 -0.62585 -1.4464 0
M  V30 33809 C 3214.61 -0.13341 -2.0697 0
M  V30 33810 C 3215.04 1.18076 -1.46423 0
M  V30 33811 O 3214.4 1.72314 -0.563706 0
M  V30 33812 C 3214.45 -0.0265731 -3.6059 0
M  V30 33813 O 3213.55 1.01882 -3.99617 0
M  V30 33814 H 3212.89 -0.0823684 -0.658871 0
M  V30 33815 H 3215.42 -0.861035 -1.856 0
M  V30 33816 H 3215.43 0.165728 -4.07663 0
M  V30 33817 H 3214.11 -0.986057 -4.04042 0
M  V30 33818 H 3212.68 0.801513 -3.64184 0
M  V30 33819 N 3214.87 1.53289 -0.36608 0
M  V30 33820 C 3216.1 2.05682 0.224199 0
M  V30 33821 C 3216.51 1.23955 1.4241 0
M  V30 33822 O 3215.87 0.280341 1.80334 0
M  V30 33823 C 3215.92 3.56192 0.617203 0
M  V30 33824 O 3215.64 4.34821 -0.535007 0
M  V30 33825 C 3217.14 4.24843 1.26582 0
M  V30 33826 H 3214.36 0.669849 0.039281 0
M  V30 33827 H 3216.9 1.97657 -0.524594 0
M  V30 33828 H 3215.06 3.64366 1.31591 0
M  V30 33829 H 3215.47 5.2405 -0.217215 0
M  V30 33830 H 3216.95 5.31472 1.49136 0
M  V30 33831 H 3217.42 3.78595 2.22627 0
M  V30 33832 H 3218.03 4.20924 0.608526 0
M  V30 33833 N 3216.35 0.0952613 1.57312 0
M  V30 33834 C 3217.59 -0.568097 1.93534 0
M  V30 33835 C 3217.91 -1.69328 0.979151 0
M  V30 33836 O 3219.11 -2.4178 1.2351 0
M  V30 33837 C 3217.57 -1.06192 3.43877 0
M  V30 33838 C 3217.18 0.0335184 4.47987 0
M  V30 33839 C 3218.92 -1.69801 3.8906 0
M  V30 33840 C 3216.83 -0.47567 5.89484 0
M  V30 33841 H 3215.76 -0.215982 0.722404 0
M  V30 33842 H 3218.41 0.171289 1.82699 0
M  V30 33843 H 3216.79 -1.855 3.49865 0
M  V30 33844 H 3217.97 0.809014 4.53643 0
M  V30 33845 H 3216.28 0.574797 4.12414 0
M  V30 33846 H 3218.88 -2.08969 4.92175 0
M  V30 33847 H 3219.22 -2.56724 3.27717 0
M  V30 33848 H 3219.75 -0.970747 3.85774 0
M  V30 33849 H 3216.49 0.356952 6.54527 0
M  V30 33850 H 3216.01 -1.21817 5.873 0
M  V30 33851 H 3217.69 -0.944584 6.40068 0
M  V30 33852 N 3217.82 -1.56587 -0.178432 0
M  V30 33853 C 3219.24 -1.50545 -0.52993 0
M  V30 33854 C 3219.44 -0.798269 -1.85013 0
M  V30 33855 O 3218.5 -0.355683 -2.49982 0
M  V30 33856 C 3219.81 -2.95262 -0.569262 0
M  V30 33857 C 3221.36 -3.06028 -0.656954 0
M  V30 33858 C 3221.83 -4.52189 -0.727244 0
M  V30 33859 N 3223.32 -4.56408 -0.790325 0
M  V30 33860 C 3224.06 -5.66835 -0.865165 0
M  V30 33861 N 3223.55 -6.86913 -0.901278 0
M  V30 33862 N 3225.35 -5.54789 -0.903639 0
M  V30 33863 H 3217.5 -2.00971 0.687339 0
M  V30 33864 H 3219.76 -0.91527 0.246952 0
M  V30 33865 H 3219.47 -3.5013 0.331996 0
M  V30 33866 H 3219.34 -3.49523 -1.41822 0
M  V30 33867 H 3221.73 -2.512 -1.54864 0
M  V30 33868 H 3221.81 -2.54865 0.21854 0
M  V30 33869 H 3221.45 -5.07647 0.160156 0
M  V30 33870 H 3221.38 -5.01102 -1.61878 0
M  V30 33871 H 3223.87 -3.69952 -0.770989 0
M  V30 33872 H 3224.19 -7.66822 -0.95936 0
M  V30 33873 H 3222.53 -6.89537 -0.869674 0
M  V30 33874 H 3225.72 -4.59899 -0.872378 0
M  V30 33875 H 3225.9 -6.40872 -0.958502 0
M  V30 33876 N 3219.3 0.446741 -1.51136 0
M  V30 33877 C 3220.72 0.782479 -1.39102 0
M  V30 33878 C 3220.92 1.96037 -0.466025 0
M  V30 33879 O 3219.97 2.52366 0.0823235 0
M  V30 33880 C 3221.29 1.07168 -2.80955 0
M  V30 33881 C 3222.83 1.17668 -2.9004 0
M  V30 33882 C 3223.31 1.49886 -4.32779 0
M  V30 33883 N 3224.8 1.56829 -4.35843 0
M  V30 33884 C 3225.54 1.83312 -5.43309 0
M  V30 33885 N 3225.03 2.0765 -6.60949 0
M  V30 33886 N 3226.82 1.85016 -5.30778 0
M  V30 33887 H 3218.98 -0.329151 -2.09834 0
M  V30 33888 H 3221.24 -0.084822 -0.944198 0
M  V30 33889 H 3220.94 0.278976 -3.50592 0
M  V30 33890 H 3220.82 2.00173 -3.19704 0
M  V30 33891 H 3223.21 1.96002 -2.20607 0
M  V30 33892 H 3223.29 0.225847 -2.54801 0
M  V30 33893 H 3222.93 0.720835 -5.02759 0
M  V30 33894 H 3222.86 2.4616 -4.65524 0
M  V30 33895 H 3225.35 1.39962 -3.51026 0
M  V30 33896 H 3225.66 2.27201 -7.38647 0
M  V30 33897 H 3224.01 2.04992 -6.64081 0
M  V30 33898 H 3227.2 1.65515 -4.37861 0
M  V30 33899 H 3227.37 2.05318 -6.14612 0
M  V30 33900 N 3220.78 1.41123 0.701567 0
M  V30 33901 C 3221.73 1.42498 1.81557 0
M  V30 33902 C 3222.7 0.280107 1.63721 0
M  V30 33903 O 3223.88 0.480263 1.84657 0
M  V30 33904 C 3221.02 1.30707 3.19389 0
M  V30 33905 C 3220.13 2.55015 3.48699 0
M  V30 33906 C 3219.27 2.35562 4.76113 0
M  V30 33907 C 3218.31 3.55376 4.98372 0
M  V30 33908 N 3217.45 3.35031 6.17008 0
M  V30 33909 H 3222.29 2.3771 1.79716 0
M  V30 33910 H 3219.82 1.18045 0.877706 0
M  V30 33911 H 3221.78 1.21874 3.99002 0
M  V30 33912 H 3220.41 0.391068 3.20422 0
M  V30 33913 H 3219.46 2.74322 2.63537 0
M  V30 33914 H 3220.77 3.44157 3.61051 0
M  V30 33915 H 3219.93 2.24162 5.6377 0
M  V30 33916 H 3218.67 1.43868 4.65997 0
M  V30 33917 H 3217.67 3.67237 4.09166 0
M  V30 33918 H 3218.9 4.48016 5.10351 0
M  V30 33919 H 3216.84 2.46031 6.08116 0
M  V30 33920 H 3216.76 4.17745 6.301 0
M  V30 33921 H 3218.03 3.27391 7.07414 0
M  V30 33922 N 3222.26 -0.935219 1.26852 0
M  V30 33923 C 3223.5 -1.68502 1.13924 0
M  V30 33924 C 3223.86 -1.89834 -0.313168 0
M  V30 33925 O 3223.15 -1.47221 -1.22624 0
M  V30 33926 C 3223.35 -3.05899 1.84825 0
M  V30 33927 C 3223.17 -2.97974 3.36811 0
M  V30 33928 C 3221.94 -3.00665 4.06114 0
M  V30 33929 C 3224.14 -2.7766 4.32908 0
M  V30 33930 N 3222.12 -2.83101 5.44727 0
M  V30 33931 C 3223.5 -2.68725 5.58737 0
M  V30 33932 C 3225.55 -2.62489 4.23089 0
M  V30 33933 C 3224.25 -2.46169 6.75865 0
M  V30 33934 C 3226.28 -2.41308 5.3993 0
M  V30 33935 C 3225.64 -2.3311 6.6471 0
M  V30 33936 H 3221.74 -0.623717 0.4717 0
M  V30 33937 H 3224.32 -1.10625 1.60219 0
M  V30 33938 H 3222.5 -3.61904 1.40996 0
M  V30 33939 H 3224.23 -3.69774 1.64467 0
M  V30 33940 H 3220.98 -3.10605 3.57521 0
M  V30 33941 H 3221.41 -2.7747 6.17527 0
M  V30 33942 H 3226.05 -2.6759 3.27346 0
M  V30 33943 H 3223.77 -2.39808 7.71698 0
M  V30 33944 H 3227.35 -2.30466 5.34207 0
M  V30 33945 H 3226.23 -2.16939 7.53596 0
M  V30 33946 N 3223.74 -1.08752 -1.14065 0
M  V30 33947 C 3224.67 -0.742398 -2.21384 0
M  V30 33948 C 3225.65 0.276776 -1.67833 0
M  V30 33949 O 3226.83 0.146366 -1.93648 0
M  V30 33950 C 3223.96 -0.154705 -3.46955 0
M  V30 33951 C 3222.92 -1.10262 -4.13553 0
M  V30 33952 C 3222.24 -0.37697 -5.33369 0
M  V30 33953 C 3223.54 -2.44221 -4.61685 0
M  V30 33954 H 3225.24 -1.63968 -2.50509 0
M  V30 33955 H 3222.78 -0.789829 -1.20406 0
M  V30 33956 H 3224.74 0.0987679 -4.21284 0
M  V30 33957 H 3223.46 0.777733 -3.17205 0
M  V30 33958 H 3222.12 -1.34125 -3.41183 0
M  V30 33959 H 3221.77 0.559385 -4.9988 0
M  V30 33960 H 3221.47 -1.00894 -5.78873 0
M  V30 33961 H 3222.99 -0.131634 -6.10458 0
M  V30 33962 H 3224.4 -2.24605 -5.27471 0
M  V30 33963 H 3222.8 -3.03143 -5.17904 0
M  V30 33964 H 3223.87 -3.05489 -3.76569 0
M  V30 33965 N 3225.21 1.31165 -0.873701 0
M  V30 33966 C 3226.49 1.91318 -0.407013 0
M  V30 33967 C 3226.87 1.79482 1.11127 0
M  V30 33968 O 3226.22 1.20487 1.94153 0
M  V30 33969 C 3226.43 3.37394 -0.892543 0
M  V30 33970 C 3227.78 4.14494 -0.920868 0
M  V30 33971 O 3228.8 3.46191 -0.838446 0
M  V30 33972 O 3227.66 5.36498 -1.04079 0
M  V30 33973 H 3224.75 0.817884 -0.122454 0
M  V30 33974 H 3227.3 1.39808 -0.961859 0
M  V30 33975 H 3226.07 3.4004 -1.93619 0
M  V30 33976 H 3225.7 3.96341 -0.316219 0
M  V30 33977 N 3226.69 0.633512 1.44307 0
M  V30 33978 C 3227.92 0.144384 2.06897 0
M  V30 33979 C 3228.34 -1.17297 1.47047 0
M  V30 33980 O 3227.7 -1.72012 0.572836 0
M  V30 33981 C 3227.75 0.0456957 3.60571 0
M  V30 33982 O 3226.85 -0.997612 4.00152 0
M  V30 33983 H 3226.19 0.0858614 0.658425 0
M  V30 33984 H 3228.72 0.870866 1.85141 0
M  V30 33985 H 3228.73 -0.144106 4.07745 0
M  V30 33986 H 3227.41 1.00747 4.03513 0
M  V30 33987 H 3225.99 -0.782188 3.64604 0
M  V30 33988 N 3228.17 -1.53093 0.374204 0
M  V30 33989 C 3229.42 -2.01379 -0.212781 0
M  V30 33990 C 3229.75 -1.2612 -1.48067 0
M  V30 33991 O 3229 -0.345595 -1.92624 0
M  V30 33992 C 3229.3 -3.53265 -0.542117 0
M  V30 33993 C 3228.97 -4.46442 0.632454 0
M  V30 33994 C 3227.63 -4.71634 0.954718 0
M  V30 33995 C 3229.98 -5.01513 1.41896 0
M  V30 33996 C 3227.31 -5.49147 2.0653 0
M  V30 33997 C 3229.66 -5.80239 2.52003 0
M  V30 33998 C 3228.32 -6.03714 2.84755 0
M  V30 33999 H 3227.59 -0.736898 -0.077862 0
M  V30 34000 H 3230.24 -1.84627 0.508444 0
M  V30 34001 H 3228.55 -3.6801 -1.34447 0
M  V30 34002 H 3230.24 -3.88107 -1.00868 0
M  V30 34003 H 3226.83 -4.26989 0.371254 0
M  V30 34004 H 3231.02 -4.81989 1.18323 0
M  V30 34005 H 3226.27 -5.65552 2.32294 0
M  V30 34006 H 3230.45 -6.21917 3.13357 0
M  V30 34007 H 3228.07 -6.63561 3.70932 0
M  V30 34008 O 3229.69 -0.243778 -1.5965 0
M  V30 34009 H 3230.38 0.33243 -1.90826 0
M  V30 END ATOM
M  V30 BEGIN BOND
M  V30 END BOND
M  V30 END CTAB
M  END
$$$$
