drugbank_target|Q68101 Serine/threonine protein kinase UL97 (DB06234)
 OpenBabel12092120333D

  0  0  0     0  0            999 V3000
M  V30 BEGIN CTAB
M  V30 COUNTS 10837 10945 0 0 0
M  V30 BEGIN ATOM
M  V30 1 H -0.908 1.98254 -0.117106 0
M  V30 2 N 0 1.576 0 0
M  V30 3 C 0.933 2.03868 1.02534 0
M  V30 4 C 1.911 0.928543 1.3348 0
M  V30 5 O 3.095 1.19667 1.45644 0
M  V30 6 C 0.222 2.43627 2.35294 0
M  V30 7 C -0.732 3.65373 2.2001 0
M  V30 8 S 0.101 5.13292 1.52614 0
M  V30 9 C 1.257 5.56322 2.86805 0
M  V30 10 H 1.49 2.90518 0.631377 0
M  V30 11 H -0.977 1.52953 0.210867 0
M  V30 12 H 0.981 2.67203 3.11629 0
M  V30 13 H -0.358 1.57376 2.7183 0
M  V30 14 H -1.165 3.90944 3.18086 0
M  V30 15 H -1.563 3.418 1.51819 0
M  V30 16 H 0.729 5.58782 3.83104 0
M  V30 17 H 1.672 6.56266 2.65933 0
M  V30 18 H 2.08 4.83886 2.90714 0
M  V30 19 N 1.4781 -0.272755 1.55222 0
M  V30 20 C 2.7031 -1.02683 1.80197 0
M  V30 21 C 3.1281 -1.79142 0.573551 0
M  V30 22 O 2.4861 -1.74917 -0.476849 0
M  V30 23 C 2.5341 -1.9609 3.02624 0
M  V30 24 O 1.6381 -3.04863 2.77727 0
M  V30 25 H 0.9791 -0.293557 0.595584 0
M  V30 26 H 3.5091 -0.30159 2.02365 0
M  V30 27 H 3.5191 -2.38039 3.31363 0
M  V30 28 H 2.1941 -1.39851 3.91682 0
M  V30 29 H 0.7711 -2.67228 2.60084 0
M  V30 30 N 2.9562 -1.48159 -0.537278 0
M  V30 31 C 4.1812 -1.59707 -1.32319 0
M  V30 32 C 4.6062 -0.254859 -1.86365 0
M  V30 33 O 3.9642 0.772378 -1.64024 0
M  V30 34 C 4.0122 -2.6412 -2.45505 0
M  V30 35 O 3.1162 -2.20774 -3.48328 0
M  V30 36 H 2.4572 -0.535791 -0.392204 0
M  V30 37 H 4.9872 -1.94092 -0.647268 0
M  V30 38 H 4.9972 -2.85166 -2.91795 0
M  V30 39 H 3.6722 -3.61567 -2.05528 0
M  V30 40 H 2.2492 -2.09911 -3.08207 0
M  V30 41 N 4.4343 0.785586 -1.36625 0
M  V30 42 C 5.3973 1.87999 -1.31107 0
M  V30 43 C 6.3973 1.59316 -0.217959 0
M  V30 44 O 7.5873 1.67656 -0.472977 0
M  V30 45 C 4.7193 3.24861 -1.03334 0
M  V30 46 H 5.9123 1.94307 -2.2844 0
M  V30 47 H 3.4653 0.983813 -1.21453 0
M  V30 48 H 4.2003 3.24235 -0.0647432 0
M  V30 49 H 3.9853 3.4707 -1.82441 0
M  V30 50 H 5.4753 4.04929 -1.02088 0
M  V30 51 N 5.9124 1.20967 1.01018 0
M  V30 52 C 6.8424 0.988272 2.11555 0
M  V30 53 C 7.8234 -0.0849778 1.69888 0
M  V30 54 O 9.0084 0.0738202 1.9406 0
M  V30 55 C 6.1384 0.546528 3.42973 0
M  V30 56 C 5.0924 1.56375 3.9841 0
M  V30 57 C 4.4184 0.97842 5.25672 0
M  V30 58 C 5.7184 2.94922 4.31066 0
M  V30 59 H 7.4124 1.91276 2.30334 0
M  V30 60 H 4.9584 0.921073 1.1069 0
M  V30 61 H 6.9114 0.378839 4.19694 0
M  V30 62 H 5.6354 -0.413598 3.23971 0
M  V30 63 H 4.2944 1.71891 3.23804 0
M  V30 64 H 3.9424 0.0101688 5.02999 0
M  V30 65 H 3.6424 1.65784 5.63728 0
M  V30 66 H 5.1664 0.821939 6.05043 0
M  V30 67 H 6.5804 2.8288 4.9865 0
M  V30 68 H 4.9774 3.5983 4.80253 0
M  V30 69 H 6.0474 3.4616 3.39561 0
M  V30 70 N 7.3905 -1.2043 1.01659 0
M  V30 71 C 8.8065 -1.41852 0.731442 0
M  V30 72 C 9.0065 -1.89358 -0.688898 0
M  V30 73 O 8.0625 -2.06247 -1.45666 0
M  V30 74 C 9.3755 -2.44019 1.75714 0
M  V30 75 C 10.9235 -2.57785 1.77527 0
M  V30 76 C 11.3985 -3.63194 2.79023 0
M  V30 77 N 12.8895 -3.70678 2.77763 0
M  V30 78 C 13.6245 -4.51897 3.52954 0
M  V30 79 N 13.1205 -5.36921 4.37821 0
M  V30 80 N 14.9135 -4.4643 3.41551 0
M  V30 81 H 7.0645 -0.879093 1.93354 0
M  V30 82 H 9.3275 -0.448425 0.835236 0
M  V30 83 H 9.0335 -2.1611 2.77469 0
M  V30 84 H 8.9075 -3.43007 1.56927 0
M  V30 85 H 11.2945 -2.85023 0.764569 0
M  V30 86 H 11.3755 -1.58992 2.00387 0
M  V30 87 H 11.0195 -3.36699 3.80258 0
M  V30 88 H 10.9495 -4.61609 2.53425 0
M  V30 89 H 13.4405 -3.09944 2.16201 0
M  V30 90 H 13.7535 -5.95981 4.91962 0
M  V30 91 H 12.0985 -5.36424 4.41899 0
M  V30 92 H 15.2895 -3.79042 2.74672 0
M  V30 93 H 15.4625 -5.09491 4.00404 0
M  V30 94 N 8.8686 -0.792821 -1.36206 0
M  V30 95 C 10.0936 -0.377701 -2.03932 0
M  V30 96 C 10.5186 0.998947 -1.59382 0
M  V30 97 O 9.8766 1.64421 -0.763903 0
M  V30 98 C 9.9246 -0.453635 -3.57735 0
M  V30 99 O 9.0286 0.538151 -4.08874 0
M  V30 100 H 8.3696 -0.159855 -0.644471 0
M  V30 101 H 10.8996 -1.07488 -1.7409 0
M  V30 102 H 10.9096 -0.318464 -4.06755 0
M  V30 103 H 9.5846 -1.45784 -3.89512 0
M  V30 104 H 8.1616 0.364359 -3.71116 0
M  V30 105 N 10.3467 1.47872 -0.545128 0
M  V30 106 C 11.7627 1.5829 -0.204032 0
M  V30 107 C 11.9627 1.54529 1.29317 0
M  V30 108 O 11.0187 1.44232 2.07252 0
M  V30 109 C 12.3317 2.89304 -0.819987 0
M  V30 110 C 13.8797 3.02864 -0.790105 0
M  V30 111 C 14.3547 4.3656 -1.38491 0
M  V30 112 N 15.8457 4.43165 -1.34755 0
M  V30 113 C 16.5807 5.45153 -1.77753 0
M  V30 114 N 16.0767 6.54016 -2.2855 0
M  V30 115 N 17.8697 5.36125 -1.68897 0
M  V30 116 H 10.0207 1.4856 -1.51802 0
M  V30 117 H 12.2837 0.706305 -0.632327 0
M  V30 118 H 11.9897 2.97757 -1.87173 0
M  V30 119 H 11.8637 3.75957 -0.305915 0
M  V30 120 H 14.2507 2.94014 0.252913 0
M  V30 121 H 14.3317 2.17782 -1.34181 0
M  V30 122 H 13.9757 4.46164 -2.42693 0
M  V30 123 H 13.9057 5.20353 -0.808754 0
M  V30 124 H 16.3967 3.65083 -0.975855 0
M  V30 125 H 16.7097 7.27994 -2.59314 0
M  V30 126 H 15.0547 6.54938 -2.32553 0
M  V30 127 H 18.2457 4.49975 -1.28998 0
M  V30 128 H 18.4187 6.15472 -2.02726 0
M  V30 129 N 11.8248 0.280983 1.55075 0
M  V30 130 C 12.7878 -0.590896 2.21452 0
M  V30 131 C 13.7878 -1.07682 1.19421 0
M  V30 132 O 14.9778 -0.97605 1.44288 0
M  V30 133 C 12.1098 -1.81587 2.88511 0
M  V30 134 H 13.3028 -0.0112554 2.99898 0
M  V30 135 H 10.8558 0.0316438 1.56268 0
M  V30 136 H 11.5908 -2.43587 2.14093 0
M  V30 137 H 11.3758 -1.4753 3.63287 0
M  V30 138 H 12.8658 -2.43575 3.39206 0
M  V30 139 N 13.3029 -1.57598 0.00835791 0
M  V30 140 C 14.7189 -1.55764 -0.347822 0
M  V30 141 C 14.9189 -1.01186 -1.74252 0
M  V30 142 O 13.9749 -0.649371 -2.44007 0
M  V30 143 C 15.2879 -2.99927 -0.215407 0
M  V30 144 C 16.8359 -3.11656 -0.289725 0
M  V30 145 C 17.3109 -4.57621 -0.18634 0
M  V30 146 N 18.8019 -4.62557 -0.243978 0
M  V30 147 C 19.5369 -5.73094 -0.18745 0
M  V30 148 N 19.0329 -6.92753 -0.0810331 0
M  V30 149 N 20.8259 -5.61588 -0.239925 0
M  V30 150 H 12.9769 -1.91411 0.92062 0
M  V30 151 H 15.2399 -0.879562 0.353659 0
M  V30 152 H 14.9459 -3.43729 0.744512 0
M  V30 153 H 14.8199 -3.63865 -0.994097 0
M  V30 154 H 17.2069 -2.67779 -1.24009 0
M  V30 155 H 17.2879 -2.5048 0.51898 0
M  V30 156 H 16.9319 -5.02174 0.760519 0
M  V30 157 H 16.8619 -5.16752 -1.01364 0
M  V30 158 H 19.3529 -3.76481 -0.327217 0
M  V30 159 H 19.6659 -7.72787 -0.0440241 0
M  V30 160 H 18.0109 -6.94984 -0.0465419 0
M  V30 161 H 21.2019 -4.66996 -0.321317 0
M  V30 162 H 21.3749 -6.47714 -0.192407 0
M  V30 163 N 14.781 0.264519 -1.55364 0
M  V30 164 C 16.006 1.01726 -1.80739 0
M  V30 165 C 16.431 1.78836 -0.583044 0
M  V30 166 O 15.789 1.75167 0.467566 0
M  V30 167 C 15.837 1.94482 -3.03659 0
M  V30 168 O 14.941 3.03386 -2.7934 0
M  V30 169 H 14.282 0.290395 -0.597132 0
M  V30 170 H 16.812 0.290854 -2.02522 0
M  V30 171 H 16.822 2.36278 -3.32621 0
M  V30 172 H 15.497 1.37772 -3.92418 0
M  V30 173 H 14.074 2.65844 -2.61498 0
M  V30 174 N 16.2591 1.48442 0.529413 0
M  V30 175 C 17.2221 1.62524 1.61612 0
M  V30 176 C 18.2221 0.498509 1.52877 0
M  V30 177 O 19.4121 0.76431 1.56537 0
M  V30 178 C 16.5441 1.59597 3.01233 0
M  V30 179 H 17.7371 2.59423 1.50465 0
M  V30 180 H 15.2901 1.37047 0.751514 0
M  V30 181 H 16.0251 0.641781 3.17886 0
M  V30 182 H 15.8101 2.41397 3.08982 0
M  V30 183 H 17.3001 1.72646 3.80241 0
M  V30 184 N 17.7372 -0.778329 1.37039 0
M  V30 185 C 18.9622 -1.57248 1.35233 0
M  V30 186 C 19.3872 -1.87999 -0.0615568 0
M  V30 187 O 18.7452 -1.48734 -1.03672 0
M  V30 188 C 18.7932 -2.86353 2.19167 0
M  V30 189 O 17.8972 -3.80442 1.59178 0
M  V30 190 H 17.2382 -0.476569 0.462362 0
M  V30 191 H 19.7682 -0.963853 1.80474 0
M  V30 192 H 19.7782 -3.35519 2.32145 0
M  V30 193 H 18.4532 -2.63299 3.21942 0
M  V30 194 H 17.0302 -3.39067 1.55203 0
M  V30 195 N 19.2153 -1.21501 -1.00376 0
M  V30 196 C 20.1453 -0.999478 -2.11028 0
M  V30 197 C 21.1263 0.0759671 -1.6993 0
M  V30 198 O 22.3113 -0.0841106 -1.94018 0
M  V30 199 C 19.4413 -0.564709 -3.42678 0
M  V30 200 C 18.3953 -1.58486 -3.97576 0
M  V30 201 C 17.7213 -1.00628 -5.25146 0
M  V30 202 C 19.0213 -2.97204 -4.29496 0
M  V30 203 H 20.7153 -1.92495 -2.29317 0
M  V30 204 H 18.2613 -0.92693 -1.102 0
M  V30 205 H 20.2143 -0.401091 -4.19487 0
M  V30 206 H 18.9383 0.396411 -3.24185 0
M  V30 207 H 17.5973 -1.73606 -3.22888 0
M  V30 208 H 17.2453 -0.0368439 -5.02987 0
M  V30 209 H 16.9453 -1.68771 -5.62841 0
M  V30 210 H 18.4693 -0.854015 -6.04598 0
M  V30 211 H 19.8833 -2.8552 -4.97143 0
M  V30 212 H 18.2803 -3.62372 -4.78338 0
M  V30 213 H 19.3503 -3.47956 -3.3772 0
M  V30 214 N 20.6934 1.19889 -1.02296 0
M  V30 215 C 21.9414 1.89046 -0.714558 0
M  V30 216 C 22.2624 1.79636 0.758681 0
M  V30 217 O 21.5324 1.20292 1.54618 0
M  V30 218 H 20.1124 0.699802 -0.261317 0
M  V30 219 H 22.7744 1.45574 -1.29592 0
M  V30 220 H 21.8704 2.95524 -1.0036 0
M  V30 221 N 22.1715 0.800033 1.35784 0
M  V30 222 C 23.3995 0.389606 2.03199 0
M  V30 223 C 23.8145 -0.997375 1.60306 0
M  V30 224 O 23.1715 -1.64154 0.797481 0
M  V30 225 C 23.2225 0.455855 3.58614 0
M  V30 226 O 22.9435 1.78815 3.99946 0
M  V30 227 C 24.4445 0.0374032 4.43284 0
M  V30 228 H 21.6645 0.159132 0.651857 0
M  V30 229 H 24.2085 1.08183 1.73541 0
M  V30 230 H 22.3635 -0.188057 3.86943 0
M  V30 231 H 22.7775 1.74636 4.94573 0
M  V30 232 H 24.2515 0.134882 5.51835 0
M  V30 233 H 24.7285 -1.01651 4.27275 0
M  V30 234 H 25.3345 0.654215 4.20238 0
M  V30 235 N 23.6496 -1.47581 0.552962 0
M  V30 236 C 24.8776 -2.06875 0.0320556 0
M  V30 237 C 25.2926 -1.40625 -1.25976 0
M  V30 238 O 24.6496 -0.501349 -1.75479 0
M  V30 239 C 24.7006 -3.61092 -0.17167 0
M  V30 240 O 24.4216 -4.24858 1.06899 0
M  V30 241 C 25.9226 -4.37242 -0.730344 0
M  V30 242 H 23.1426 -0.669561 0.043915 0
M  V30 243 H 25.6866 -1.89646 0.765163 0
M  V30 244 H 23.8416 -3.7785 -0.854894 0
M  V30 245 H 24.2556 -5.17334 0.864059 0
M  V30 246 H 25.7296 -5.45842 -0.822203 0
M  V30 247 H 26.2066 -4.03235 -1.74064 0
M  V30 248 H 26.8126 -4.25219 -0.0829543 0
M  V30 249 N 25.1277 -0.289203 -1.54924 0
M  V30 250 C 26.3557 0.326463 -2.04308 0
M  V30 251 C 26.7707 1.48413 -1.16701 0
M  V30 252 O 26.1277 1.81507 -0.190087 0
M  V30 253 C 26.1787 0.794014 -3.52672 0
M  V30 254 O 25.8997 -0.317564 -4.36948 0
M  V30 255 C 27.4007 1.47605 -4.18004 0
M  V30 256 H 24.6207 0.0726272 -0.667058 0
M  V30 257 H 27.1647 -0.425401 -2.00026 0
M  V30 258 H 25.3197 1.49593 -3.57352 0
M  V30 259 H 25.7337 0.0443186 -5.24481 0
M  V30 260 H 27.2077 1.75447 -5.23376 0
M  V30 261 H 27.6847 2.41224 -3.67025 0
M  V30 262 H 28.2907 0.81762 -4.17367 0
M  V30 263 N 26.6058 1.57591 -0.0167156 0
M  V30 264 C 27.5158 2.1291 0.98521 0
M  V30 265 C 28.5318 1.07834 1.36557 0
M  V30 266 O 29.7078 1.39826 1.44951 0
M  V30 267 C 26.7728 2.63512 2.25305 0
M  V30 268 C 25.8338 3.83256 1.93426 0
M  V30 269 C 25.0668 4.31435 3.14165 0
M  V30 270 O 25.2898 3.78851 4.26413 0
M  V30 271 O 24.2238 5.23416 2.97186 0
M  V30 272 H 28.0498 2.98772 0.544888 0
M  V30 273 H 25.6348 1.48012 0.203141 0
M  V30 274 H 27.5168 2.96183 2.99756 0
M  V30 275 H 26.1918 1.8074 2.68542 0
M  V30 276 H 25.0988 3.55531 1.16398 0
M  V30 277 H 26.4318 4.67153 1.55013 0
M  V30 278 N 28.0839 -0.256276 1.55502 0
M  V30 279 C 29.3319 -0.983672 1.76545 0
M  V30 280 C 29.6529 -1.86206 0.578982 0
M  V30 281 O 28.9229 -1.91656 -0.405577 0
M  V30 282 H 27.5029 -0.366191 0.651086 0
M  V30 283 H 30.1649 -0.276479 1.92929 0
M  V30 284 H 29.2609 -1.61087 2.67315 0
M  V30 285 N 29.562 -1.4872 -0.521534 0
M  V30 286 C 30.808 -1.58378 -1.27624 0
M  V30 287 C 31.163 -0.258028 -1.90662 0
M  V30 288 O 30.456 0.739917 -1.76736 0
M  V30 289 C 30.65 -2.66497 -2.38148 0
M  V30 290 C 30.479 -4.09456 -1.85945 0
M  V30 291 C 29.249 -4.76495 -1.68168 0
M  V30 292 C 31.447 -4.95353 -1.3831 0
M  V30 293 N 29.429 -6.0384 -1.1068 0
M  V30 294 C 30.8 -6.13012 -0.928238 0
M  V30 295 C 32.855 -4.81512 -1.26692 0
M  V30 296 C 31.558 -7.18354 -0.368701 0
M  V30 297 C 33.584 -5.86984 -0.721368 0
M  V30 298 C 32.946 -7.03857 -0.276623 0
M  V30 299 H 29.045 -0.634045 -0.457724 0
M  V30 300 H 31.629 -1.85639 -0.587049 0
M  V30 301 H 29.8 -2.41043 -3.04553 0
M  V30 302 H 31.532 -2.65791 -3.05184 0
M  V30 303 H 28.287 -4.32962 -1.91939 0
M  V30 304 H 28.711 -6.71778 -0.839217 0
M  V30 305 H 33.353 -3.91487 -1.5968 0
M  V30 306 H 31.071 -8.08096 -0.0265122 0
M  V30 307 H 34.657 -5.78329 -0.634531 0
M  V30 308 H 33.537 -7.84077 0.138947 0
M  V30 309 N 31.0401 0.771051 -1.3745 0
M  V30 310 C 32.3171 1.519 -1.23231 0
M  V30 311 C 32.6971 2.10383 0.173809 0
M  V30 312 O 32.0451 1.95583 1.18151 0
M  V30 313 C 32.2551 2.59933 -2.32886 0
M  V30 314 C 33.6031 3.27316 -2.70461 0
M  V30 315 O 34.6271 2.70228 -2.32068 0
M  V30 316 O 33.4861 4.30531 -3.36608 0
M  V30 317 H 30.5801 0.672803 -0.480901 0
M  V30 318 H 33.1261 0.807957 -1.49232 0
M  V30 319 H 31.8981 2.14842 -3.27045 0
M  V30 320 H 31.5211 3.38637 -2.08353 0
M  V30 321 N 32.5182 1.22032 0.997298 0
M  V30 322 C 33.9292 1.0397 1.55071 0
M  V30 323 C 34.2802 -0.398192 1.92117 0
M  V30 324 O 33.4052 -1.28254 1.74298 0
M  V30 325 C 34.0002 1.88109 2.81781 0
M  V30 326 C 32.5592 1.74357 3.33581 0
M  V30 327 C 31.7062 1.84846 2.06706 0
M  V30 328 H 34.6572 1.35941 0.818883 0
M  V30 329 H 34.6782 1.39589 3.53971 0
M  V30 330 H 34.1902 2.92754 2.54787 0
M  V30 331 H 32.2912 0.72427 3.65493 0
M  V30 332 H 32.4042 2.56772 4.04481 0
M  V30 333 H 30.7682 1.28238 2.20062 0
M  V30 334 H 31.5512 2.91014 1.82114 0
M  V30 335 N 33.9963 -1.19345 1.0293 0
M  V30 336 C 35.4073 -1.70725 0.755633 0
M  V30 337 C 35.7583 -1.82326 -0.724676 0
M  V30 338 O 34.8833 -1.49471 -1.56484 0
M  V30 339 C 35.4783 -3.10084 1.36503 0
M  V30 340 C 34.0373 -3.58723 1.13994 0
M  V30 341 C 33.1843 -2.35577 1.46283 0
M  V30 342 H 36.1353 -1.0418 1.19718 0
M  V30 343 H 36.1563 -3.72787 0.762217 0
M  V30 344 H 35.6683 -3.01609 2.44241 0
M  V30 345 H 33.7693 -3.72512 0.0807901 0
M  V30 346 H 33.8823 -4.42816 1.82894 0
M  V30 347 H 32.2463 -2.38935 0.88217 0
M  V30 348 H 33.0293 -2.29731 2.55105 0
M  V30 349 N 35.4744 -0.807222 -1.35358 0
M  V30 350 C 36.8854 -0.44876 -1.81226 0
M  V30 351 C 37.2364 1.02929 -1.67033 0
M  V30 352 O 36.3614 1.79991 -1.20133 0
M  V30 353 C 36.9564 -0.807774 -3.2903 0
M  V30 354 C 35.5154 -0.501901 -3.73039 0
M  V30 355 C 34.6624 -1.03304 -2.57339 0
M  V30 356 H 37.6134 -0.998808 -1.23327 0
M  V30 357 H 37.6344 -0.10554 -3.80354 0
M  V30 358 H 37.1464 -1.88357 -3.39328 0
M  V30 359 H 35.2474 0.565128 -3.68289 0
M  V30 360 H 35.3604 -1.03497 -4.67787 0
M  V30 361 H 33.7244 -0.455339 -2.50597 0
M  V30 362 H 34.5074 -2.11496 -2.70415 0
M  V30 363 N 36.9525 1.47285 -0.560781 0
M  V30 364 C 37.8825 2.32857 0.173105 0
M  V30 365 C 38.8635 1.44009 0.905281 0
M  V30 366 O 40.0485 1.7286 0.885046 0
M  V30 367 C 37.1785 3.25861 1.20133 0
M  V30 368 C 36.1325 4.23978 0.585388 0
M  V30 369 C 35.4585 5.06332 1.7185 0
M  V30 370 C 36.7585 5.20242 -0.463178 0
M  V30 371 H 38.4525 2.94466 -0.541307 0
M  V30 372 H 35.9985 1.41601 -0.261764 0
M  V30 373 H 37.9515 3.84569 1.72293 0
M  V30 374 H 36.6755 2.62315 1.94573 0
M  V30 375 H 35.3345 3.66501 0.085054 0
M  V30 376 H 34.9825 4.39186 2.45203 0
M  V30 377 H 34.6825 5.72762 1.31213 0
M  V30 378 H 36.2065 5.67899 2.24329 0
M  V30 379 H 37.6205 5.73293 -0.027502 0
M  V30 380 H 36.0175 5.94896 -0.788627 0
M  V30 381 H 37.0875 4.65504 -1.35773 0
M  V30 382 N 38.4306 0.297415 1.54768 0
M  V30 383 C 39.8466 -0.0560823 1.59501 0
M  V30 384 C 40.0466 -1.52725 1.31444 0
M  V30 385 O 39.1026 -2.27947 1.08611 0
M  V30 386 C 40.4156 0.338631 2.98787 0
M  V30 387 C 41.9636 0.287097 3.11681 0
M  V30 388 C 42.4386 0.656579 4.53269 0
M  V30 389 N 43.9296 0.608977 4.59179 0
M  V30 390 C 44.6646 0.867385 5.66802 0
M  V30 391 N 44.1606 1.19157 6.82476 0
M  V30 392 N 45.9536 0.794687 5.56454 0
M  V30 393 H 38.1046 1.25624 1.71267 0
M  V30 394 H 40.3676 0.509057 0.799728 0
M  V30 395 H 40.0736 1.36263 3.2423 0
M  V30 396 H 39.9476 -0.309508 3.75928 0
M  V30 397 H 42.3346 -0.727649 2.85988 0
M  V30 398 H 42.4156 0.969809 2.36703 0
M  V30 399 H 42.0596 1.66912 4.7969 0
M  V30 400 H 41.9896 -0.0481649 5.26578 0
M  V30 401 H 44.4806 0.369198 3.76092 0
M  V30 402 H 44.7936 1.37482 7.60473 0
M  V30 403 H 43.1386 1.22958 6.84037 0
M  V30 404 H 46.3296 0.541098 4.64962 0
M  V30 405 H 46.5026 0.999445 6.40246 0
M  V30 406 N 39.9087 -1.5758 0.0250728 0
M  V30 407 C 41.3247 -1.56124 -0.331282 0
M  V30 408 C 41.5247 -1.03029 -1.73169 0
M  V30 409 O 40.5807 -0.675215 -2.43305 0
M  V30 410 C 41.8937 -3.00139 -0.183584 0
M  V30 411 C 43.4417 -3.11946 -0.256654 0
M  V30 412 C 43.9167 -4.57793 -0.137792 0
M  V30 413 N 45.4077 -4.6279 -0.194904 0
M  V30 414 C 46.1427 -5.7326 -0.126655 0
M  V30 415 N 45.6387 -6.928 -0.00755288 0
M  V30 416 N 47.4317 -5.61811 -0.180348 0
M  V30 417 H 39.5827 -1.90424 0.94087 0
M  V30 418 H 41.8457 -0.875761 0.362968 0
M  V30 419 H 41.5517 -3.4292 0.780927 0
M  V30 420 H 41.4257 -3.64899 -0.955448 0
M  V30 421 H 43.8127 -2.69079 -1.21162 0
M  V30 422 H 43.8937 -2.49915 0.545517 0
M  V30 423 H 43.5377 -5.01339 0.813739 0
M  V30 424 H 43.4677 -5.17798 -0.958775 0
M  V30 425 H 45.9587 -3.76807 -0.287267 0
M  V30 426 H 46.2717 -7.72791 0.0379428 0
M  V30 427 H 44.6167 -6.94995 0.0271731 0
M  V30 428 H 47.8077 -4.6731 -0.271767 0
M  V30 429 H 47.9807 -6.47882 -0.123697 0
M  V30 430 N 41.3868 0.248026 -1.55636 0
M  V30 431 C 42.7978 0.817177 -1.67866 0
M  V30 432 C 43.1488 1.86069 -0.622322 0
M  V30 433 O 42.2738 2.15157 0.231618 0
M  V30 434 C 42.8688 1.489 -3.04326 0
M  V30 435 C 41.4278 2.00587 -3.185 0
M  V30 436 C 40.5748 0.856573 -2.63739 0
M  V30 437 H 43.5258 0.0238579 -1.58682 0
M  V30 438 H 43.5468 2.35698 -2.98708 0
M  V30 439 H 43.0588 0.729279 -3.81186 0
M  V30 440 H 41.1598 2.79443 -2.4646 0
M  V30 441 H 41.2728 2.20402 -4.25393 0
M  V30 442 H 39.6368 1.25678 -2.21534 0
M  V30 443 H 40.4198 0.109953 -3.43124 0
M  V30 444 N 42.8649 1.48995 0.513639 0
M  V30 445 C 44.0899 1.61792 1.29762 0
M  V30 446 C 44.5149 0.284475 1.85936 0
M  V30 447 O 43.8729 -0.746185 1.65232 0
M  V30 448 C 43.9209 2.67993 2.41272 0
M  V30 449 O 43.0249 2.26287 3.44772 0
M  V30 450 H 42.3659 0.541963 0.38363 0
M  V30 451 H 44.8959 1.95097 0.616307 0
M  V30 452 H 44.9059 2.89772 2.87221 0
M  V30 453 H 43.5809 3.64791 1.9975 0
M  V30 454 H 42.1579 2.14788 3.04829 0
M  V30 455 N 44.343 -0.763751 1.37857 0
M  V30 456 C 45.759 -1.06542 1.18832 0
M  V30 457 C 45.959 -2.01478 0.0299722 0
M  V30 458 O 45.015 -2.4458 -0.627447 0
M  V30 459 C 46.328 -1.65525 2.51042 0
M  V30 460 C 47.876 -1.77745 2.57635 0
M  V30 461 C 48.351 -2.4014 3.89996 0
M  V30 462 N 49.842 -2.47582 3.91481 0
M  V30 463 C 50.577 -2.96732 4.9065 0
M  V30 464 N 50.073 -3.45993 6.00217 0
M  V30 465 N 51.866 -2.95679 4.78048 0
M  V30 466 H 44.017 -0.133556 2.1198 0
M  V30 467 H 46.28 -0.121879 0.940133 0
M  V30 468 H 45.986 -1.03236 3.36207 0
M  V30 469 H 45.86 -2.64719 2.68707 0
M  V30 470 H 48.247 -2.39164 1.72872 0
M  V30 471 H 48.328 -0.772836 2.43846 0
M  V30 472 H 47.972 -1.79358 4.75177 0
M  V30 473 H 47.902 -3.41223 4.01092 0
M  V30 474 H 50.393 -2.1273 3.12337 0
M  V30 475 H 50.706 -3.81922 6.7183 0
M  V30 476 H 49.051 -3.44077 6.03851 0
M  V30 477 H 52.242 -2.56499 3.91568 0
M  V30 478 H 52.415 -3.33672 5.55488 0
M  V30 479 N 45.8211 -1.22559 -0.990812 0
M  V30 480 C 46.7841 -0.998863 -2.0629 0
M  V30 481 C 47.7841 0.0354834 -1.60761 0
M  V30 482 O 48.9741 -0.203231 -1.7301 0
M  V30 483 C 46.1061 -0.509203 -3.37076 0
M  V30 484 H 47.2991 -1.95014 -2.27837 0
M  V30 485 H 44.8521 -1.04456 -1.16269 0
M  V30 486 H 45.5871 0.446335 -3.21214 0
M  V30 487 H 45.3721 -1.25547 -3.71457 0
M  V30 488 H 46.8621 -0.370888 -4.1595 0
M  V30 489 N 47.2992 1.18797 -1.03562 0
M  V30 490 C 48.7152 1.40671 -0.753917 0
M  V30 491 C 48.9152 1.9043 0.658686 0
M  V30 492 O 47.9712 2.08538 1.42366 0
M  V30 493 C 49.2842 2.41192 -1.79574 0
M  V30 494 C 50.8322 2.54928 -1.81606 0
M  V30 495 C 51.3072 3.58709 -2.84766 0
M  V30 496 N 52.7982 3.66212 -2.83625 0
M  V30 497 C 53.5332 4.46225 -3.60098 0
M  V30 498 N 53.0292 5.29888 -4.46308 0
M  V30 499 N 54.8222 4.40939 -3.4861 0
M  V30 500 H 46.9732 0.848221 -1.94728 0
M  V30 501 H 49.2362 0.435081 -0.842264 0
M  V30 502 H 48.9422 2.11669 -2.80872 0
M  V30 503 H 48.8162 3.40467 -1.62365 0
M  V30 504 H 51.2032 2.83771 -0.809817 0
M  V30 505 H 51.2842 1.55784 -2.02891 0
M  V30 506 H 50.9282 3.30607 -3.85566 0
M  V30 507 H 50.8582 4.57519 -2.60737 0
M  V30 508 H 53.3492 3.06466 -2.21105 0
M  V30 509 H 53.6622 5.88078 -5.01382 0
M  V30 510 H 52.0072 5.29326 -4.50377 0
M  V30 511 H 55.1982 3.74624 -2.80668 0
M  V30 512 H 55.3712 5.03056 -4.08459 0
M  V30 513 N 48.7773 0.814389 1.34928 0
M  V30 514 C 50.1933 0.499084 1.51596 0
M  V30 515 C 50.3933 -0.978319 1.76157 0
M  V30 516 O 49.4493 -1.76309 1.80752 0
M  V30 517 C 50.7623 1.35121 2.68631 0
M  V30 518 C 52.3103 1.34746 2.82511 0
M  V30 519 C 52.7853 2.18388 4.0258 0
M  V30 520 N 54.2763 2.15966 4.09772 0
M  V30 521 C 55.0113 2.77437 5.01813 0
M  V30 522 N 54.5073 3.47866 5.99134 0
M  V30 523 N 56.3003 2.67037 4.94619 0
M  V30 524 H 48.4513 1.7711 1.17243 0
M  V30 525 H 50.7143 0.754256 0.574284 0
M  V30 526 H 50.4203 2.40001 2.57085 0
M  V30 527 H 50.2943 1.00991 3.63429 0
M  V30 528 H 52.6813 0.30648 2.93504 0
M  V30 529 H 52.7623 1.72869 1.88547 0
M  V30 530 H 52.4063 3.2253 3.92347 0
M  V30 531 H 52.3363 1.77621 4.9574 0
M  V30 532 H 54.8273 1.64729 3.40107 0
M  V30 533 H 55.1403 3.92038 6.65977 0
M  V30 534 H 53.4853 3.51972 5.99284 0
M  V30 535 H 56.6763 2.11597 4.17546 0
M  V30 536 H 56.8493 3.15232 5.66156 0
M  V30 537 N 50.2554 -1.46986 0.568584 0
M  V30 538 C 51.6714 -1.57946 0.229189 0
M  V30 539 C 51.8714 -1.56567 -1.26843 0
M  V30 540 O 50.9274 -1.47511 -2.04931 0
M  V30 541 C 52.2404 -2.87963 0.865909 0
M  V30 542 C 53.7884 -3.01568 0.838188 0
M  V30 543 C 54.2634 -4.34301 1.45419 0
M  V30 544 N 55.7544 -4.40965 1.41788 0
M  V30 545 C 56.4894 -5.42256 1.86403 0
M  V30 546 N 55.9854 -6.50297 2.38926 0
M  V30 547 N 57.7784 -5.3337 1.77405 0
M  V30 548 H 49.9294 -1.46126 1.54146 0
M  V30 549 H 52.1924 -0.696156 0.643484 0
M  V30 550 H 51.8984 -2.94742 1.91886 0
M  V30 551 H 51.7724 -3.75423 0.365687 0
M  V30 552 H 54.1594 -2.94379 -0.206106 0
M  V30 553 H 54.2404 -2.1562 1.37629 0
M  V30 554 H 53.8844 -4.42247 2.49761 0
M  V30 555 H 53.8144 -5.19 0.891435 0
M  V30 556 H 56.3054 -3.63484 1.03381 0
M  V30 557 H 56.6184 -7.23777 2.70863 0
M  V30 558 H 54.9634 -6.51155 2.42944 0
M  V30 559 H 58.1544 -4.47865 1.3614 0
M  V30 560 H 58.3274 -6.12169 2.12492 0
M  V30 561 N 51.7335 -0.305618 -1.54608 0
M  V30 562 C 52.6655 0.602161 -2.21149 0
M  V30 563 C 53.6785 1.09394 -1.20569 0
M  V30 564 O 54.8675 1.0106 -1.47136 0
M  V30 565 C 51.9675 1.83692 -2.84799 0
M  V30 566 C 51.1405 1.48686 -4.11353 0
M  V30 567 C 50.1995 2.57725 -4.58764 0
M  V30 568 O 49.2255 2.22623 -5.23858 0
M  V30 569 N 50.4275 3.88346 -4.31471 0
M  V30 570 H 53.1925 0.0324966 -2.99682 0
M  V30 571 H 50.7535 -0.128021 -1.61393 0
M  V30 572 H 52.7455 2.55994 -3.13448 0
M  V30 573 H 51.3155 2.31486 -2.10078 0
M  V30 574 H 50.5355 0.596269 -3.89664 0
M  V30 575 H 51.8235 1.22842 -4.93748 0
M  V30 576 H 51.2215 4.19671 -3.79331 0
M  V30 577 H 49.7785 4.56932 -4.64818 0
M  V30 578 N 53.2116 1.57565 -0.0334293 0
M  V30 579 C 54.4576 1.93088 0.639417 0
M  V30 580 C 54.8126 0.910589 1.69488 0
M  V30 581 O 54.1056 -0.0727725 1.91462 0
M  V30 582 C 54.2996 3.33112 1.29504 0
M  V30 583 C 54.1286 4.48667 0.304604 0
M  V30 584 C 52.8986 5.05207 -0.0970777 0
M  V30 585 C 55.0966 5.1239 -0.442845 0
M  V30 586 N 53.0786 6.04286 -1.08223 0
M  V30 587 C 54.4496 6.06609 -1.28161 0
M  V30 588 C 56.5046 4.95352 -0.50308 0
M  V30 589 C 55.2076 6.85622 -2.17519 0
M  V30 590 C 57.2336 5.74978 -1.38401 0
M  V30 591 C 56.5956 6.68816 -2.21054 0
M  V30 592 H 52.6946 0.754335 0.206161 0
M  V30 593 H 55.2786 1.94435 -0.101613 0
M  V30 594 H 53.4496 3.32576 2.00618 0
M  V30 595 H 55.1816 3.55972 1.92525 0
M  V30 596 H 51.9366 4.72782 0.278255 0
M  V30 597 H 52.3606 6.58516 -1.57117 0
M  V30 598 H 57.0026 4.22625 0.121694 0
M  V30 599 H 54.7206 7.57652 -2.81049 0
M  V30 600 H 58.3066 5.63826 -1.43496 0
M  V30 601 H 57.1866 7.29355 -2.88116 0
M  V30 602 N 54.6897 -0.239769 1.55765 0
M  V30 603 C 55.6227 -1.32356 1.85895 0
M  V30 604 C 56.6007 -1.46053 0.714662 0
M  V30 605 O 57.7847 -1.62154 0.961157 0
M  V30 606 C 54.9117 -2.6962 2.04994 0
M  V30 607 C 53.9577 -2.73036 3.27648 0
M  V30 608 S 54.7907 -2.28929 4.84099 0
M  V30 609 C 55.9467 -3.68103 5.06212 0
M  V30 610 H 56.1797 -1.06601 2.77531 0
M  V30 611 H 53.7127 -0.441112 1.47965 0
M  V30 612 H 55.6707 -3.48653 2.16682 0
M  V30 613 H 54.3317 -2.92609 1.14188 0
M  V30 614 H 53.5247 -3.7386 3.38 0
M  V30 615 H 53.1267 -2.02052 3.14723 0
M  V30 616 H 55.4187 -4.63656 4.93993 0
M  V30 617 H 56.3617 -3.6268 6.08168 0
M  V30 618 H 56.7697 -3.60947 4.34025 0
M  V30 619 N 56.1678 -1.49265 -0.50573 0
M  V30 620 C 57.5838 -1.35923 -0.836486 0
M  V30 621 C 57.7838 -0.388704 -1.97715 0
M  V30 622 O 56.8398 0.181336 -2.51848 0
M  V30 623 C 58.1528 -2.76531 -1.18115 0
M  V30 624 C 59.7008 -2.85197 -1.28964 0
M  V30 625 C 60.1758 -4.26561 -1.66761 0
M  V30 626 N 61.6668 -4.2935 -1.73819 0
M  V30 627 C 62.4018 -5.35693 -2.045 0
M  V30 628 N 61.8978 -6.52287 -2.33438 0
M  V30 629 N 63.6908 -5.23105 -2.05711 0
M  V30 630 H 55.8418 -2.10965 0.246519 0
M  V30 631 H 58.1048 -0.9468 0.0476887 0
M  V30 632 H 57.8108 -3.49226 -0.416398 0
M  V30 633 H 57.6848 -3.11599 -2.1257 0
M  V30 634 H 60.0718 -2.12742 -2.04511 0
M  V30 635 H 60.1528 -2.53718 -0.325704 0
M  V30 636 H 59.7968 -4.99541 -0.917656 0
M  V30 637 H 59.7268 -4.55502 -2.64246 0
M  V30 638 H 62.2178 -3.4526 -1.53635 0
M  V30 639 H 62.5308 -7.29158 -2.56024 0
M  V30 640 H 60.8758 -6.55521 -2.30905 0
M  V30 641 H 64.0668 -4.31026 -1.82577 0
M  V30 642 H 64.2398 -6.06078 -2.29289 0
M  V30 643 N 57.6459 0.756429 -1.3826 0
M  V30 644 C 58.5559 1.9009 -1.37488 0
M  V30 645 C 59.5719 1.71855 -0.272366 0
M  V30 646 O 60.7479 1.94827 -0.510318 0
M  V30 647 C 57.8129 3.25421 -1.19592 0
M  V30 648 C 56.8739 3.56202 -2.39622 0
M  V30 649 C 56.1069 4.85075 -2.2257 0
M  V30 650 O 56.3299 5.57246 -1.21793 0
M  V30 651 O 55.2639 5.15269 -3.11098 0
M  V30 652 H 59.0899 1.93695 -2.33914 0
M  V30 653 H 56.6749 0.901313 -1.1915 0
M  V30 654 H 58.5569 4.06337 -1.11661 0
M  V30 655 H 57.2319 3.22634 -0.262486 0
M  V30 656 H 56.1389 2.75458 -2.53128 0
M  V30 657 H 57.4719 3.63747 -3.31586 0
M  V30 658 N 59.124 1.23083 0.984299 0
M  V30 659 C 60.087 1.00979 2.05757 0
M  V30 660 C 61.087 -0.0269573 1.60777 0
M  V30 661 O 62.277 0.212403 1.729 0
M  V30 662 C 59.409 0.527072 3.36801 0
M  V30 663 H 60.602 1.9622 2.26799 0
M  V30 664 H 58.155 1.05072 1.15714 0
M  V30 665 H 58.89 -0.429294 3.21446 0
M  V30 666 H 58.675 1.27515 3.70786 0
M  V30 667 H 60.165 0.392942 4.15747 0
M  V30 668 N 60.6021 -1.18246 1.0419 0
M  V30 669 C 61.5651 -2.20128 0.638452 0
M  V30 670 C 62.5651 -1.57885 -0.304805 0
M  V30 671 O 63.7551 -1.73967 -0.0900369 0
M  V30 672 C 60.8871 -3.4084 -0.0637751 0
M  V30 673 H 62.0801 -2.57336 1.54007 0
M  V30 674 H 59.6331 -1.32152 0.834598 0
M  V30 675 H 60.3681 -3.09166 -0.979136 0
M  V30 676 H 60.1531 -3.8726 0.614198 0
M  V30 677 H 61.6431 -4.16274 -0.332512 0
M  V30 678 N 62.0802 -0.821533 -1.34494 0
M  V30 679 C 63.0122 -0.199946 -2.28326 0
M  V30 680 C 64.0252 0.609377 -1.50965 0
M  V30 681 O 65.2142 0.439285 -1.7301 0
M  V30 682 C 62.3142 0.738431 -3.30757 0
M  V30 683 C 61.4872 -0.0277632 -4.37391 0
M  V30 684 C 60.5462 0.831332 -5.19591 0
M  V30 685 O 59.5722 0.276822 -5.68526 0
M  V30 686 N 60.7742 2.15132 -5.39165 0
M  V30 687 H 63.5392 -1.00609 -2.82308 0
M  V30 688 H 61.1002 -0.678366 -1.47003 0
M  V30 689 H 63.0922 1.31773 -3.82646 0
M  V30 690 H 61.6622 1.44533 -2.7718 0
M  V30 691 H 60.8822 -0.788359 -3.86236 0
M  V30 692 H 62.1702 -0.555251 -5.05761 0
M  V30 693 H 61.5682 2.62559 -5.01078 0
M  V30 694 H 60.1252 2.6795 -5.94177 0
M  V30 695 N 63.5583 1.46682 -0.576371 0
M  V30 696 C 64.5213 2.28707 0.150239 0
M  V30 697 C 65.5213 1.38035 0.824794 0
M  V30 698 O 66.7113 1.60476 0.677719 0
M  V30 699 C 63.8433 3.18248 1.22192 0
M  V30 700 H 65.0363 2.94423 -0.570521 0
M  V30 701 H 62.5893 1.52688 -0.334078 0
M  V30 702 H 63.3243 2.57265 1.97447 0
M  V30 703 H 63.1093 3.85 0.742812 0
M  V30 704 H 64.5993 3.80001 1.73172 0
M  V30 705 N 65.0364 0.313813 1.54444 0
M  V30 706 C 65.9994 -0.54379 2.22656 0
M  V30 707 C 66.9994 -1.05124 1.21678 0
M  V30 708 O 68.1894 -0.945225 1.46325 0
M  V30 709 C 65.3214 -1.75427 2.92298 0
M  V30 710 H 66.5144 0.0523599 2.99854 0
M  V30 711 H 64.0674 0.0647834 1.56166 0
M  V30 712 H 64.8024 -2.38991 2.19211 0
M  V30 713 H 64.5874 -1.39791 3.66334 0
M  V30 714 H 66.0774 -2.36325 3.44297 0
M  V30 715 N 66.5145 -1.57545 0.0417849 0
M  V30 716 C 67.4775 -2.09885 -0.92093 0
M  V30 717 C 68.4775 -1.01648 -1.24596 0
M  V30 718 O 69.6675 -1.27759 -1.1842 0
M  V30 719 C 66.7995 -2.57527 -2.23367 0
M  V30 720 H 67.9925 -2.96236 -0.467382 0
M  V30 721 H 65.5455 -1.5493 -0.206467 0
M  V30 722 H 66.2805 -1.74542 -2.73323 0
M  V30 723 H 66.0655 -3.36613 -2.01083 0
M  V30 724 H 67.5555 -2.98201 -2.92346 0
M  V30 725 N 67.9926 0.231505 -1.5589 0
M  V30 726 C 68.9246 1.31006 -1.8807 0
M  V30 727 C 69.9376 1.43539 -0.768145 0
M  V30 728 O 71.1266 1.44614 -1.04638 0
M  V30 729 C 68.2266 2.68688 -2.06543 0
M  V30 730 C 67.3996 2.78228 -3.37502 0
M  V30 731 C 66.4586 3.96857 -3.4553 0
M  V30 732 O 65.4846 3.85662 -4.18633 0
M  V30 733 N 66.6866 5.1072 -2.75944 0
M  V30 734 H 69.4516 1.03731 -2.81176 0
M  V30 735 H 67.0126 0.421573 -1.56315 0
M  V30 736 H 69.0046 3.46412 -2.09239 0
M  V30 737 H 67.5746 2.88605 -1.20109 0
M  V30 738 H 66.7946 1.87059 -3.46991 0
M  V30 739 H 68.0826 2.81564 -4.23791 0
M  V30 740 H 67.4806 5.2271 -2.16311 0
M  V30 741 H 66.0376 5.86523 -2.84314 0
M  V30 742 N 69.4707 1.49531 0.497807 0
M  V30 743 C 70.4337 1.65916 1.58128 0
M  V30 744 C 71.4337 0.530825 1.51786 0
M  V30 745 O 72.6237 0.797342 1.54881 0
M  V30 746 C 69.7557 1.65951 2.9778 0
M  V30 747 H 70.9487 2.62556 1.44929 0
M  V30 748 H 68.5017 1.38611 0.722275 0
M  V30 749 H 69.2367 0.709065 3.16453 0
M  V30 750 H 69.0217 2.47897 3.03792 0
M  V30 751 H 70.5117 1.80673 3.76493 0
M  V30 752 N 70.9488 -0.749086 1.3866 0
M  V30 753 C 71.9118 -1.84457 1.36045 0
M  V30 754 C 72.9118 -1.58682 0.260122 0
M  V30 755 O 74.1018 -1.66343 0.517261 0
M  V30 756 C 71.2338 -3.22008 1.11911 0
M  V30 757 H 72.4268 -1.88182 2.33512 0
M  V30 758 H 69.9798 -0.951266 1.24019 0
M  V30 759 H 70.7148 -3.2395 0.150686 0
M  V30 760 H 70.4998 -3.42111 1.91579 0
M  V30 761 H 71.9898 -4.0208 1.12788 0
M  V30 762 N 72.4269 -1.23603 -0.977757 0
M  V30 763 C 73.6729 -1.07129 -1.72195 0
M  V30 764 C 74.0059 0.390501 -1.90233 0
M  V30 765 O 73.2809 1.28902 -1.45653 0
M  V30 766 C 73.5639 -1.80031 -3.11867 0
M  V30 767 C 73.4169 -3.33899 -3.01383 0
M  V30 768 C 74.7359 -1.56492 -4.11337 0
M  V30 769 H 71.8549 -0.390571 -0.624999 0
M  V30 770 H 74.4969 -1.52142 -1.13811 0
M  V30 771 H 72.6469 -1.41768 -3.6171 0
M  V30 772 H 74.3189 -3.81699 -2.59043 0
M  V30 773 H 72.5619 -3.62796 -2.37827 0
M  V30 774 H 73.2329 -3.801 -4.00285 0
M  V30 775 H 75.7089 -1.89757 -3.70313 0
M  V30 776 H 74.5849 -2.09973 -5.07151 0
M  V30 777 H 74.8459 -0.500874 -4.39254 0
M  V30 778 N 73.905 1.17692 -1.04816 0
M  V30 779 C 74.837 2.21103 -0.603822 0
M  V30 780 C 75.85 1.59411 0.33046 0
M  V30 781 O 77.039 1.7807 0.12379 0
M  V30 782 C 74.139 3.38623 0.136898 0
M  V30 783 C 73.312 4.29888 -0.807137 0
M  V30 784 C 72.371 5.26088 -0.10836 0
M  V30 785 O 71.397 5.64353 -0.741232 0
M  V30 786 N 72.599 5.68882 1.15558 0
M  V30 787 H 75.364 2.59848 -1.49329 0
M  V30 788 H 72.925 1.32553 -0.929587 0
M  V30 789 H 74.917 4.00009 0.614401 0
M  V30 790 H 73.487 2.98508 0.927993 0
M  V30 791 H 72.707 3.65993 -1.46434 0
M  V30 792 H 73.995 4.87759 -1.44807 0
M  V30 793 H 73.393 5.39861 1.69015 0
M  V30 794 H 71.95 6.32429 1.57722 0
M  V30 795 N 75.3831 0.828654 1.34056 0
M  V30 796 C 76.3461 0.259927 2.27721 0
M  V30 797 C 77.3461 -0.565478 1.50529 0
M  V30 798 O 78.5361 -0.38075 1.69988 0
M  V30 799 C 75.6681 -0.634944 3.34935 0
M  V30 800 H 76.8611 1.0863 2.79534 0
M  V30 801 H 74.4141 0.600951 1.44285 0
M  V30 802 H 75.1491 -1.48416 2.88346 0
M  V30 803 H 74.9341 -0.0444999 3.92075 0
M  V30 804 H 76.4241 -1.02648 4.04788 0
M  V30 805 N 76.8612 -1.46375 0.584142 0
M  V30 806 C 77.8242 -2.28784 -0.138108 0
M  V30 807 C 78.8242 -1.38471 -0.817462 0
M  V30 808 O 80.0142 -1.60833 -0.669199 0
M  V30 809 C 77.1462 -3.18892 -1.20503 0
M  V30 810 H 78.3392 -2.94117 0.586127 0
M  V30 811 H 75.8922 -1.52509 0.342171 0
M  V30 812 H 76.6272 -2.58309 -1.96079 0
M  V30 813 H 76.4122 -3.85388 -0.722384 0
M  V30 814 H 77.9022 -3.80914 -1.71155 0
M  V30 815 N 78.3393 -0.321999 -1.54275 0
M  V30 816 C 79.2713 0.578671 -2.21775 0
M  V30 817 C 80.2843 1.08109 -1.21722 0
M  V30 818 O 81.4733 0.994938 -1.482 0
M  V30 819 C 78.5733 1.80661 -2.86731 0
M  V30 820 C 77.7463 1.44314 -4.12907 0
M  V30 821 C 76.8053 2.52845 -4.61472 0
M  V30 822 O 75.8313 2.17054 -5.2619 0
M  V30 823 N 77.0333 3.83748 -4.35566 0
M  V30 824 H 79.7983 0.000709447 -2.997 0
M  V30 825 H 77.3593 -0.145132 -1.61248 0
M  V30 826 H 79.3513 2.52655 -3.16145 0
M  V30 827 H 77.9213 2.29245 -2.12521 0
M  V30 828 H 77.1413 0.554906 -3.90275 0
M  V30 829 H 78.4293 1.17598 -4.95023 0
M  V30 830 H 77.8273 4.15625 -3.83761 0
M  V30 831 H 76.3843 4.51977 -4.69638 0
M  V30 832 N 79.8174 1.5752 -0.0501392 0
M  V30 833 C 80.7804 2.1037 0.909786 0
M  V30 834 C 81.7804 1.02308 1.24056 0
M  V30 835 O 82.9704 1.28385 1.17741 0
M  V30 836 C 80.1024 2.58708 2.21998 0
M  V30 837 H 81.2954 2.96479 0.451665 0
M  V30 838 H 78.8484 1.55038 0.198248 0
M  V30 839 H 79.5834 1.75989 2.72394 0
M  V30 840 H 79.3684 3.37675 1.99295 0
M  V30 841 H 80.8584 2.99747 2.9076 0
M  V30 842 N 81.2955 -0.223234 1.56011 0
M  V30 843 C 82.2585 -1.26014 1.9145 0
M  V30 844 C 83.2585 -1.3989 0.792937 0
M  V30 845 O 84.4485 -1.38184 1.0607 0
M  V30 846 C 81.5805 -2.63422 2.16383 0
M  V30 847 H 82.7735 -0.95796 2.84189 0
M  V30 848 H 80.3265 -0.463576 1.49267 0
M  V30 849 H 81.0615 -2.98741 1.2619 0
M  V30 850 H 80.8465 -2.54728 2.98088 0
M  V30 851 H 82.3365 -3.38249 2.44903 0
M  V30 852 N 82.7736 -1.49793 -0.48987 0
M  V30 853 C 83.7366 -1.66752 -1.57246 0
M  V30 854 C 84.7366 -0.538867 -1.51502 0
M  V30 855 O 85.9266 -0.805545 -1.54456 0
M  V30 856 C 83.0586 -1.67528 -2.96896 0
M  V30 857 H 84.2516 -2.63321 -1.43534 0
M  V30 858 H 81.8046 -1.38992 -0.714914 0
M  V30 859 H 82.5396 -0.725837 -3.16073 0
M  V30 860 H 82.3246 -2.49504 -3.02473 0
M  V30 861 H 83.8146 -1.82667 -3.7553 0
M  V30 862 N 84.2517 0.741722 -1.39055 0
M  V30 863 C 85.2147 1.83733 -1.37021 0
M  V30 864 C 86.2147 1.58542 -0.268534 0
M  V30 865 O 87.4047 1.66067 -0.526076 0
M  V30 866 C 84.5367 3.2141 -1.13617 0
M  V30 867 H 85.7297 1.86941 -2.34506 0
M  V30 868 H 83.2827 0.944676 -1.24521 0
M  V30 869 H 84.0177 3.23865 -0.167863 0
M  V30 870 H 83.8027 3.4109 -1.93391 0
M  V30 871 H 85.2927 4.01477 -1.14918 0
M  V30 872 N 85.7298 1.2412 0.971189 0
M  V30 873 C 86.6618 0.988349 2.06795 0
M  V30 874 C 87.6748 -0.0409541 1.62748 0
M  V30 875 O 88.8638 0.195673 1.77424 0
M  V30 876 C 85.9638 0.469023 3.35639 0
M  V30 877 C 85.1368 1.56065 4.08611 0
M  V30 878 C 84.1958 1.04458 5.15728 0
M  V30 879 O 83.2218 1.73553 5.42096 0
M  V30 880 N 84.4238 -0.122817 5.8037 0
M  V30 881 H 87.1888 1.93265 2.29061 0
M  V30 882 H 84.7498 1.15102 1.13856 0
M  V30 883 H 86.7418 0.108613 4.04554 0
M  V30 884 H 85.3118 -0.380919 3.1027 0
M  V30 885 H 84.5318 2.09341 3.34021 0
M  V30 886 H 85.8198 2.29449 4.54126 0
M  V30 887 H 85.2178 -0.700563 5.61345 0
M  V30 888 H 83.7748 -0.424404 6.50417 0
M  V30 889 N 87.2079 -1.17134 1.05439 0
M  V30 890 C 88.4539 -1.87733 0.767077 0
M  V30 891 C 88.7869 -1.8098 -0.704253 0
M  V30 892 O 88.0619 -1.21951 -1.5152 0
M  V30 893 C 88.3449 -3.37659 1.25133 0
M  V30 894 C 88.1979 -3.53149 2.78578 0
M  V30 895 C 89.5169 -4.31768 0.852324 0
M  V30 896 H 86.6359 -0.681687 0.280129 0
M  V30 897 H 89.2779 -1.37732 1.30881 0
M  V30 898 H 87.4279 -3.80373 0.790469 0
M  V30 899 H 89.0999 -3.19434 3.32806 0
M  V30 900 H 87.3429 -2.95345 3.17732 0
M  V30 901 H 88.0139 -4.58403 3.07523 0
M  V30 902 H 90.4899 -3.96909 1.24911 0
M  V30 903 H 89.3659 -5.35199 1.21873 0
M  V30 904 H 89.6269 -4.41429 -0.243485 0
M  V30 905 N 88.686 -0.835752 -1.33615 0
M  V30 906 C 89.649 -0.272 -2.2758 0
M  V30 907 C 90.649 0.557487 -1.50827 0
M  V30 908 O 91.839 0.37173 -1.70188 0
M  V30 909 C 88.971 0.617173 -3.35267 0
M  V30 910 H 90.164 -1.10111 -2.78954 0
M  V30 911 H 87.717 -0.608594 -1.43965 0
M  V30 912 H 88.452 1.46884 -2.89129 0
M  V30 913 H 88.237 0.0237066 -3.92093 0
M  V30 914 H 89.727 1.005 -4.05326 0
M  V30 915 N 90.1641 1.46063 -0.591896 0
M  V30 916 C 91.0961 2.28539 0.174001 0
M  V30 917 C 92.1091 1.39047 0.846753 0
M  V30 918 O 93.2981 1.63564 0.714774 0
M  V30 919 C 90.3981 3.14347 1.26645 0
M  V30 920 C 89.5711 4.32021 0.683856 0
M  V30 921 C 88.6301 4.99157 1.66518 0
M  V30 922 O 87.6561 5.56458 1.19763 0
M  V30 923 N 88.8581 4.97005 2.99943 0
M  V30 924 H 91.6231 2.94911 -0.533633 0
M  V30 925 H 89.1841 1.56077 -0.430294 0
M  V30 926 H 91.1761 3.56125 1.92242 0
M  V30 927 H 89.7461 2.49988 1.87682 0
M  V30 928 H 88.9661 3.93915 -0.1498 0
M  V30 929 H 90.2541 5.08059 0.274567 0
M  V30 930 H 89.6521 4.51714 3.40545 0
M  V30 931 H 88.2091 5.42696 3.61004 0
M  V30 932 N 91.6422 0.330177 1.54103 0
M  V30 933 C 92.6052 -0.520144 2.2322 0
M  V30 934 C 93.6052 -1.03828 1.22786 0
M  V30 935 O 94.7952 -0.929652 1.4732 0
M  V30 936 C 91.9272 -1.72317 2.94142 0
M  V30 937 H 93.1202 0.0841605 2.99782 0
M  V30 938 H 90.6732 0.0813433 1.56088 0
M  V30 939 H 91.4082 -2.36653 2.21734 0
M  V30 940 H 91.1932 -1.35898 3.67796 0
M  V30 941 H 92.6832 -2.3266 3.46784 0
M  V30 942 N 93.1203 -1.57491 0.0584922 0
M  V30 943 C 94.0703 -2.08474 -0.923188 0
M  V30 944 C 95.0543 -0.991479 -1.26722 0
M  V30 945 O 96.2463 -1.25473 -1.24842 0
M  V30 946 C 93.3753 -2.6392 -2.19548 0
M  V30 947 C 92.4613 -3.80227 -1.87852 0
M  V30 948 N 92.8523 -4.89714 -1.26546 0
M  V30 949 C 91.1503 -3.89271 -2.17679 0
M  V30 950 C 91.8513 -5.70689 -1.12644 0
M  V30 951 N 90.8273 -5.18531 -1.63176 0
M  V30 952 H 94.6293 -2.90517 -0.444653 0
M  V30 953 H 92.1433 -1.61745 -0.145764 0
M  V30 954 H 94.1403 -2.98752 -2.9078 0
M  V30 955 H 92.8003 -1.83318 -2.68001 0
M  V30 956 H 93.8113 -5.09358 -0.936757 0
M  V30 957 H 90.4883 -3.19623 -2.68602 0
M  V30 958 H 91.8783 -6.6875 -0.6499 0
M  V30 959 N 94.5984 0.214957 -1.56127 0
M  V30 960 C 95.8444 0.939762 -1.79712 0
M  V30 961 C 96.1774 1.83723 -0.629247 0
M  V30 962 O 95.4524 1.90925 0.371197 0
M  V30 963 C 95.7354 1.77306 -3.13424 0
M  V30 964 C 95.5884 0.90164 -4.40671 0
M  V30 965 C 96.9074 2.74956 -3.43638 0
M  V30 966 H 94.0264 0.340214 -0.653776 0
M  V30 967 H 96.6684 0.20824 -1.88855 0
M  V30 968 H 94.8184 2.39673 -3.0576 0
M  V30 969 H 96.4904 0.294206 -4.60361 0
M  V30 970 H 94.7334 0.207368 -4.33304 0
M  V30 971 H 95.4044 1.51923 -5.30682 0
M  V30 972 H 97.8804 2.22724 -3.51473 0
M  V30 973 H 96.7564 3.30358 -4.38355 0
M  V30 974 H 97.0174 3.53023 -2.66134 0
M  V30 975 N 96.0765 1.50051 0.48192 0
M  V30 976 C 97.3535 1.51009 1.2432 0
M  V30 977 C 97.7335 0.248587 2.09631 0
M  V30 978 O 97.0815 -0.768409 2.15192 0
M  V30 979 C 97.2915 2.79981 2.08355 0
M  V30 980 C 98.6395 3.3022 2.66908 0
M  V30 981 O 99.6635 2.81228 2.18607 0
M  V30 982 O 98.5225 4.15595 3.54884 0
M  V30 983 H 95.6165 0.605239 0.563573 0
M  V30 984 H 98.1625 1.62332 0.494627 0
M  V30 985 H 96.9345 3.63275 1.45419 0
M  V30 986 H 96.5575 2.7161 2.90368 0
M  V30 987 N 97.5546 -0.734337 1.39446 0
M  V30 988 C 98.4646 -1.87879 1.40495 0
M  V30 989 C 99.4806 -1.714 0.299672 0
M  V30 990 O 100.657 -1.93991 0.541249 0
M  V30 991 C 97.7216 -3.23477 1.24754 0
M  V30 992 C 96.7826 -3.52344 2.45259 0
M  V30 993 C 96.0156 -4.81473 2.30259 0
M  V30 994 O 96.2386 -5.55237 1.30643 0
M  V30 995 O 95.1726 -5.10254 3.19256 0
M  V30 996 H 98.9986 -1.89949 2.36966 0
M  V30 997 H 96.5836 -0.882243 1.20569 0
M  V30 998 H 98.4656 -4.04509 1.18111 0
M  V30 999 H 97.1406 -3.22176 0.313781 0
M  V30 1000 H 96.0476 -2.71396 2.57478 0
M  V30 1001 H 97.3806 -3.58426 3.37331 0
M  V30 1002 N 99.0327 -1.24633 -0.964593 0
M  V30 1003 C 100.31 -0.995809 -1.68354 0
M  V30 1004 C 100.69 0.480964 -2.05548 0
M  V30 1005 O 100.038 1.45599 -1.76105 0
M  V30 1006 C 100.248 -1.92177 -2.91323 0
M  V30 1007 C 101.596 -2.19446 -3.63495 0
M  V30 1008 O 102.62 -1.89855 -3.01386 0
M  V30 1009 O 101.479 -2.69714 -4.75307 0
M  V30 1010 H 98.5727 -0.376854 -0.736146 0
M  V30 1011 H 101.119 -1.35745 -1.0184 0
M  V30 1012 H 99.8907 -2.91938 -2.60553 0
M  V30 1013 H 99.5137 -1.56349 -3.65569 0
M  V30 1014 N 100.511 1.16574 -1.06058 0
M  V30 1015 C 101.421 2.2452 -0.680282 0
M  V30 1016 C 102.437 1.71348 0.302604 0
M  V30 1017 O 103.613 2.00822 0.152513 0
M  V30 1018 C 100.678 3.46629 -0.0700315 0
M  V30 1019 C 99.7388 4.14849 -1.10448 0
M  V30 1020 C 98.9718 5.31129 -0.523256 0
M  V30 1021 O 99.1948 5.66514 0.664709 0
M  V30 1022 O 98.1288 5.88526 -1.26179 0
M  V30 1023 H 101.955 2.59355 -1.58015 0
M  V30 1024 H 99.5398 1.24043 -0.832694 0
M  V30 1025 H 101.422 4.20543 0.268667 0
M  V30 1026 H 100.097 3.13573 0.803353 0
M  V30 1027 H 99.0038 3.42916 -1.49532 0
M  V30 1028 H 100.337 4.51954 -1.94931 0
M  V30 1029 N 101.989 0.842826 1.3317 0
M  V30 1030 C 103.235 0.441099 1.97945 0
M  V30 1031 C 103.568 -0.998024 1.66593 0
M  V30 1032 O 102.843 -1.69839 0.947898 0
M  V30 1033 C 103.126 0.666841 3.53872 0
M  V30 1034 C 102.979 2.15352 3.94897 0
M  V30 1035 C 104.298 0.115544 4.39948 0
M  V30 1036 H 101.417 0.161739 0.719034 0
M  V30 1037 H 104.059 1.05907 1.57746 0
M  V30 1038 H 102.209 0.140828 3.88245 0
M  V30 1039 H 103.881 2.7447 3.70761 0
M  V30 1040 H 102.124 2.63653 3.44484 0
M  V30 1041 H 102.795 2.26221 5.03516 0
M  V30 1042 H 105.271 0.565213 4.12243 0
M  V30 1043 H 104.147 0.303152 5.48062 0
M  V30 1044 H 104.408 -0.980935 4.3108 0
M  V30 1045 N 103.467 -1.45747 0.599634 0
M  V30 1046 C 104.713 -2.02592 0.0918643 0
M  V30 1047 C 105.046 -1.46806 -1.27128 0
M  V30 1048 O 104.321 -0.639658 -1.83681 0
M  V30 1049 C 104.604 -3.60073 0.0443398 0
M  V30 1050 C 104.457 -4.26208 1.43759 0
M  V30 1051 C 105.776 -4.35309 -0.647608 0
M  V30 1052 H 102.895 -0.736175 0.034857 0
M  V30 1053 H 105.537 -1.73694 0.770081 0
M  V30 1054 H 103.687 -3.84823 -0.533224 0
M  V30 1055 H 105.359 -4.12668 2.06162 0
M  V30 1056 H 103.602 -3.84916 2.00056 0
M  V30 1057 H 104.273 -5.35069 1.35665 0
M  V30 1058 H 106.749 -4.15805 -0.156776 0
M  V30 1059 H 105.625 -5.45038 -0.649942 0
M  V30 1060 H 105.886 -4.07598 -1.71219 0
M  V30 1061 N 104.945 -0.338344 -1.53925 0
M  V30 1062 C 106.222 0.314774 -1.93051 0
M  V30 1063 C 106.602 1.68669 -1.26941 0
M  V30 1064 O 105.95 2.24636 -0.418445 0
M  V30 1065 C 106.16 0.392249 -3.46789 0
M  V30 1066 C 107.508 0.645554 -4.19664 0
M  V30 1067 O 108.532 0.474575 -3.53024 0
M  V30 1068 O 107.391 0.976408 -5.37707 0
M  V30 1069 H 104.485 0.182598 -0.80659 0
M  V30 1070 H 107.031 -0.389141 -1.65178 0
M  V30 1071 H 105.803 -0.570702 -3.87116 0
M  V30 1072 H 105.426 1.14316 -3.80812 0
M  V30 1073 N 106.423 1.57458 -0.0668435 0
M  V30 1074 C 107.353 2.15468 0.899764 0
M  V30 1075 C 108.334 1.08042 1.31381 0
M  V30 1076 O 109.519 1.36054 1.38574 0
M  V30 1077 C 106.649 2.71232 2.16911 0
M  V30 1078 C 105.603 3.83781 1.89463 0
M  V30 1079 C 104.929 4.26127 3.22986 0
M  V30 1080 C 106.229 5.08238 1.20381 0
M  V30 1081 H 107.923 2.96488 0.416529 0
M  V30 1082 H 105.469 1.4262 0.198908 0
M  V30 1083 H 107.422 3.10458 2.84945 0
M  V30 1084 H 106.146 1.87426 2.67468 0
M  V30 1085 H 104.805 3.45051 1.23836 0
M  V30 1086 H 104.453 3.39249 3.71374 0
M  V30 1087 H 104.153 5.01993 3.05413 0
M  V30 1088 H 105.677 4.67966 3.92225 0
M  V30 1089 H 107.091 5.44811 1.78475 0
M  V30 1090 H 105.488 5.89349 1.13083 0
M  V30 1091 H 106.558 4.84558 0.182153 0
M  V30 1092 N 107.901 -0.206675 1.56239 0
M  V30 1093 C 108.834 -1.28383 1.88661 0
M  V30 1094 C 109.812 -1.44504 0.745481 0
M  V30 1095 O 110.996 -1.60079 0.995336 0
M  V30 1096 C 108.123 -2.65211 2.10667 0
M  V30 1097 C 107.169 -2.66025 3.33366 0
M  V30 1098 S 108.002 -2.18609 4.88846 0
M  V30 1099 C 109.158 -3.57283 5.13906 0
M  V30 1100 H 109.391 -1.00691 2.7973 0
M  V30 1101 H 106.924 -0.409627 1.48867 0
M  V30 1102 H 108.882 -3.43979 2.24029 0
M  V30 1103 H 107.543 -2.90121 1.20369 0
M  V30 1104 H 106.736 -3.66607 3.45855 0
M  V30 1105 H 106.338 -1.95331 3.18938 0
M  V30 1106 H 108.63 -4.53074 5.03717 0
M  V30 1107 H 109.573 -3.49699 6.15724 0
M  V30 1108 H 109.981 -3.51659 4.41583 0
M  V30 1109 N 109.379 -1.50304 -0.473955 0
M  V30 1110 C 110.342 -1.6841 -1.55469 0
M  V30 1111 C 111.342 -0.554905 -1.50922 0
M  V30 1112 O 112.532 -0.821882 -1.53593 0
M  V30 1113 C 109.664 -1.70667 -2.95102 0
M  V30 1114 H 110.857 -2.64828 -1.40733 0
M  V30 1115 H 108.41 -1.39742 -0.700132 0
M  V30 1116 H 109.145 -0.75932 -3.15285 0
M  V30 1117 H 108.93 -2.52698 -2.9981 0
M  V30 1118 H 110.42 -1.8664 -3.73571 0
M  V30 1119 N 110.857 0.726932 -1.39834 0
M  V30 1120 C 112.134 1.47902 -1.28001 0
M  V30 1121 C 112.514 2.1083 0.106789 0
M  V30 1122 O 111.862 1.99242 1.11869 0
M  V30 1123 C 112.072 2.52392 -2.41038 0
M  V30 1124 C 113.42 3.18546 -2.80737 0
M  V30 1125 O 114.444 2.62708 -2.40547 0
M  V30 1126 O 113.303 4.19604 -3.50135 0
M  V30 1127 H 110.397 0.657163 -0.502062 0
M  V30 1128 H 112.943 0.760071 -1.51727 0
M  V30 1129 H 111.715 2.04329 -3.33715 0
M  V30 1130 H 111.338 3.31837 -2.19021 0
M  V30 1131 N 112.336 1.25143 0.95797 0
M  V30 1132 C 113.246 1.06968 2.08794 0
M  V30 1133 C 114.262 0.00773911 1.73998 0
M  V30 1134 O 115.438 0.207972 2.00323 0
M  V30 1135 C 112.503 0.68691 3.39827 0
M  V30 1136 C 111.564 1.82641 3.88511 0
M  V30 1137 C 110.797 1.46181 5.1329 0
M  V30 1138 O 111.02 0.355971 5.69288 0
M  V30 1139 O 109.954 2.29085 5.566 0
M  V30 1140 H 113.78 2.01723 2.27027 0
M  V30 1141 H 111.365 1.04051 1.07209 0
M  V30 1142 H 113.247 0.485417 4.18595 0
M  V30 1143 H 111.922 -0.231417 3.22872 0
M  V30 1144 H 110.829 2.08274 3.10762 0
M  V30 1145 H 112.162 2.72386 4.09959 0
M  V30 1146 N 113.814 -1.1601 1.06675 0
M  V30 1147 C 114.777 -2.18724 0.685001 0
M  V30 1148 C 115.777 -1.58496 -0.271246 0
M  V30 1149 O 116.967 -1.74119 -0.0531156 0
M  V30 1150 C 114.099 -3.40899 0.00853648 0
M  V30 1151 H 115.292 -2.54011 1.59431 0
M  V30 1152 H 112.845 -1.30352 0.862441 0
M  V30 1153 H 113.58 -3.11173 -0.913337 0
M  V30 1154 H 113.365 -3.8587 0.696204 0
M  V30 1155 H 114.855 -4.16886 -0.24414 0
M  V30 1156 N 115.292 -0.849877 -1.32721 0
M  V30 1157 C 116.54 -0.450032 -1.97026 0
M  V30 1158 C 116.861 0.996604 -1.67609 0
M  V30 1159 O 116.131 1.6958 -0.980786 0
M  V30 1160 H 114.711 -0.163426 -0.728904 0
M  V30 1161 H 117.373 -1.08526 -1.6189 0
M  V30 1162 H 116.469 -0.591146 -3.0645 0
M  V30 1163 N 116.77 1.45427 -0.607355 0
M  V30 1164 C 118.018 2.01841 -0.102253 0
M  V30 1165 C 118.339 1.47832 1.27164 0
M  V30 1166 O 117.609 0.672497 1.83995 0
M  V30 1167 H 116.189 0.746188 -0.0348101 0
M  V30 1168 H 118.851 1.78229 -0.7887 0
M  V30 1169 H 117.947 3.12057 -0.0518585 0
M  V30 1170 N 118.248 0.346503 1.53744 0
M  V30 1171 C 119.496 -0.248612 2.00565 0
M  V30 1172 C 119.817 -1.5083 1.23593 0
M  V30 1173 O 119.087 -1.92858 0.343912 0
M  V30 1174 H 117.667 -0.0948564 0.740953 0
M  V30 1175 H 120.329 0.468341 1.89189 0
M  V30 1176 H 119.425 -0.488994 3.08245 0
M  V30 1177 N 119.726 -1.57421 0.075193 0
M  V30 1178 C 120.972 -1.93905 -0.594025 0
M  V30 1179 C 121.305 -0.955701 -1.69056 0
M  V30 1180 O 120.58 0.0145373 -1.94495 0
M  V30 1181 C 120.863 -3.40638 -1.1678 0
M  V30 1182 C 120.716 -4.49733 -0.0776792 0
M  V30 1183 C 122.035 -3.88259 -2.07228 0
M  V30 1184 H 119.154 -0.705105 -0.214466 0
M  V30 1185 H 121.796 -1.8947 0.141854 0
M  V30 1186 H 119.946 -3.44549 -1.79494 0
M  V30 1187 H 121.618 -4.57942 0.555573 0
M  V30 1188 H 119.861 -4.29751 0.591286 0
M  V30 1189 H 120.532 -5.49549 -0.519603 0
M  V30 1190 H 123.008 -3.86376 -1.54445 0
M  V30 1191 H 121.884 -4.91533 -2.44308 0
M  V30 1192 H 122.145 -3.26396 -2.98191 0
M  V30 1193 N 121.204 0.198386 -1.56346 0
M  V30 1194 C 122.432 0.935572 -1.84539 0
M  V30 1195 C 122.847 1.76989 -0.657281 0
M  V30 1196 O 122.204 1.78626 0.374043 0
M  V30 1197 C 122.255 1.8344 -3.11499 0
M  V30 1198 O 121.976 1.03377 -4.25728 0
M  V30 1199 C 123.477 2.68355 -3.52846 0
M  V30 1200 H 120.697 0.273126 -0.612897 0
M  V30 1201 H 123.241 0.20663 -2.03453 0
M  V30 1202 H 121.396 2.51701 -2.94492 0
M  V30 1203 H 121.81 1.64599 -4.98003 0
M  V30 1204 H 123.284 3.27085 -4.44657 0
M  V30 1205 H 123.761 3.41901 -2.75681 0
M  V30 1206 H 124.367 2.05471 -3.72373 0
M  V30 1207 N 122.682 1.50554 0.465978 0
M  V30 1208 C 123.91 1.65563 1.24083 0
M  V30 1209 C 124.325 0.341051 1.85694 0
M  V30 1210 O 123.682 -0.677543 1.69457 0
M  V30 1211 C 123.733 2.75051 2.34583 0
M  V30 1212 O 123.454 4.01413 1.75497 0
M  V30 1213 C 124.955 3.01078 3.25372 0
M  V30 1214 H 122.175 0.55638 0.375077 0
M  V30 1215 H 124.719 1.96807 0.555624 0
M  V30 1216 H 122.874 2.46486 2.9887 0
M  V30 1217 H 123.288 4.62002 2.48303 0
M  V30 1218 H 124.762 3.81339 3.99105 0
M  V30 1219 H 125.239 2.12349 3.84453 0
M  V30 1220 H 125.845 3.31194 2.66816 0
M  V30 1221 N 124.16 -0.719506 1.40217 0
M  V30 1222 C 125.09 -1.8465 1.42922 0
M  V30 1223 C 126.071 -1.67599 0.29062 0
M  V30 1224 O 127.256 -1.87688 0.498677 0
M  V30 1225 C 124.386 -3.22565 1.28722 0
M  V30 1226 C 123.34 -3.54281 2.40144 0
M  V30 1227 C 122.666 -4.91298 2.11023 0
M  V30 1228 C 123.966 -3.55676 3.82481 0
M  V30 1229 H 125.66 -1.82644 2.37237 0
M  V30 1230 H 123.206 -0.877305 1.1419 0
M  V30 1231 H 125.159 -4.01095 1.29232 0
M  V30 1232 H 123.883 -3.25137 0.308811 0
M  V30 1233 H 122.542 -2.78088 2.38877 0
M  V30 1234 H 122.19 -4.90468 1.11582 0
M  V30 1235 H 121.89 -5.13485 2.8567 0
M  V30 1236 H 123.414 -5.72166 2.13209 0
M  V30 1237 H 124.828 -4.24254 3.85592 0
M  V30 1238 H 123.225 -3.89388 4.56614 0
M  V30 1239 H 124.295 -2.55144 4.12346 0
M  V30 1240 N 125.638 -1.25649 -0.95132 0
M  V30 1241 C 126.866 -1.13343 -1.73092 0
M  V30 1242 C 127.281 0.312434 -1.86197 0
M  V30 1243 O 126.638 1.21465 -1.36207 0
M  V30 1244 C 126.689 -1.78602 -3.14299 0
M  V30 1245 O 126.41 -3.17537 -3.01831 0
M  V30 1246 C 127.911 -1.72119 -4.08522 0
M  V30 1247 H 125.131 -0.395181 -0.542285 0
M  V30 1248 H 127.675 -1.66076 -1.19328 0
M  V30 1249 H 125.83 -1.29832 -3.64996 0
M  V30 1250 H 126.244 -3.49676 -3.90931 0
M  V30 1251 H 127.718 -2.22435 -5.052 0
M  V30 1252 H 128.195 -0.685635 -4.33815 0
M  V30 1253 H 128.801 -2.20393 -3.63741 0
M  V30 1254 N 127.117 1.15442 -1.07289 0
M  V30 1255 C 128.345 1.90096 -0.81676 0
M  V30 1256 C 128.76 1.7798 0.629966 0
M  V30 1257 O 128.117 1.1313 1.43206 0
M  V30 1258 C 128.168 3.40466 -1.21512 0
M  V30 1259 O 127.889 3.52232 -2.60508 0
M  V30 1260 C 129.39 4.32145 -0.988198 0
M  V30 1261 H 126.61 0.602495 -0.295366 0
M  V30 1262 H 129.154 1.4627 -1.42918 0
M  V30 1263 H 127.309 3.81958 -0.647039 0
M  V30 1264 H 127.723 4.45549 -2.76742 0
M  V30 1265 H 129.197 5.36072 -1.31645 0
M  V30 1266 H 129.674 4.39135 0.0755063 0
M  V30 1267 H 130.28 3.96395 -1.54115 0
M  V30 1268 N 128.595 0.856903 1.32268 0
M  V30 1269 C 129.525 0.31858 2.31316 0
M  V30 1270 C 130.506 -0.583487 1.59779 0
M  V30 1271 O 131.691 -0.503259 1.87566 0
M  V30 1272 C 128.821 -0.491979 3.43798 0
M  V30 1273 C 127.775 0.315849 4.26833 0
M  V30 1274 C 127.101 -0.619586 5.31098 0
M  V30 1275 C 128.401 1.54282 4.98993 0
M  V30 1276 H 130.095 1.14621 2.76591 0
M  V30 1277 H 127.641 0.552613 1.32974 0
M  V30 1278 H 129.594 -0.879012 4.1213 0
M  V30 1279 H 128.318 -1.35299 2.97257 0
M  V30 1280 H 126.977 0.684664 3.6015 0
M  V30 1281 H 126.625 -1.47751 4.8081 0
M  V30 1282 H 126.325 -0.0830621 5.87541 0
M  V30 1283 H 127.849 -1.00375 6.02293 0
M  V30 1284 H 129.263 1.22796 5.59995 0
M  V30 1285 H 127.66 2.01745 5.65172 0
M  V30 1286 H 128.73 2.30285 4.26728 0
M  V30 1287 N 130.073 -1.45103 0.615059 0
M  V30 1288 C 131.298 -2.07064 0.117988 0
M  V30 1289 C 131.723 -1.4554 -1.19163 0
M  V30 1290 O 131.081 -0.550855 -1.72729 0
M  V30 1291 C 131.129 -3.606 -0.000288387 0
M  V30 1292 O 130.233 -3.98847 -1.04856 0
M  V30 1293 H 129.574 -0.659467 0.0774581 0
M  V30 1294 H 132.104 -1.86236 0.847186 0
M  V30 1295 H 132.114 -4.07529 -0.196091 0
M  V30 1296 H 130.789 -4.04765 0.955932 0
M  V30 1297 H 129.366 -3.63577 -0.828619 0
M  V30 1298 N 131.551 -0.354651 -1.53558 0
M  V30 1299 C 132.776 0.242153 -2.05981 0
M  V30 1300 C 133.201 1.42553 -1.2272 0
M  V30 1301 O 132.559 1.79656 -0.243604 0
M  V30 1302 C 132.607 0.624367 -3.55154 0
M  V30 1303 O 131.711 1.72301 -3.74681 0
M  V30 1304 H 131.052 0.0378432 -0.662921 0
M  V30 1305 H 133.582 -0.512087 -1.98088 0
M  V30 1306 H 133.592 0.898433 -3.97985 0
M  V30 1307 H 132.267 -0.240989 -4.15201 0
M  V30 1308 H 130.844 1.44535 -3.4375 0
M  V30 1309 N 133.029 1.57378 -0.0835403 0
M  V30 1310 C 134.275 1.94217 0.583733 0
M  V30 1311 C 134.608 0.964653 1.68547 0
M  V30 1312 O 133.883 -0.00422258 1.945 0
M  V30 1313 C 134.166 3.41253 1.14972 0
M  V30 1314 C 134.019 4.49768 0.0538277 0
M  V30 1315 C 135.338 3.89352 2.05166 0
M  V30 1316 H 132.457 0.706233 0.210724 0
M  V30 1317 H 135.099 1.89392 -0.1519 0
M  V30 1318 H 133.249 3.45496 1.77665 0
M  V30 1319 H 134.921 4.57641 -0.579851 0
M  V30 1320 H 133.164 4.29432 -0.614068 0
M  V30 1321 H 133.835 5.49817 0.490452 0
M  V30 1322 H 136.311 3.87189 1.52393 0
M  V30 1323 H 135.187 4.92822 2.41698 0
M  V30 1324 H 135.448 3.27973 2.96456 0
M  V30 1325 N 134.507 -0.190092 1.56449 0
M  V30 1326 C 135.732 -0.929864 1.85387 0
M  V30 1327 C 136.157 -1.7585 0.667704 0
M  V30 1328 O 135.515 -1.77198 -0.383459 0
M  V30 1329 C 135.563 -1.79773 3.12593 0
M  V30 1330 O 134.667 -2.89713 2.93496 0
M  V30 1331 H 134.008 -0.261574 0.610307 0
M  V30 1332 H 136.538 -0.193896 2.03679 0
M  V30 1333 H 136.548 -2.20139 3.43515 0
M  V30 1334 H 135.223 -1.18892 3.98544 0
M  V30 1335 H 133.8 -2.53065 2.73884 0
M  V30 1336 N 135.985 -1.50799 -0.457987 0
M  V30 1337 C 137.213 -1.66218 -1.23203 0
M  V30 1338 C 137.628 -0.350894 -1.85511 0
M  V30 1339 O 136.985 0.668546 -1.69814 0
M  V30 1340 C 137.036 -2.76291 -2.33121 0
M  V30 1341 O 136.757 -4.02338 -1.73366 0
M  V30 1342 C 138.258 -3.028 -3.2377 0
M  V30 1343 H 135.478 -0.558361 -0.372121 0
M  V30 1344 H 138.022 -1.97099 -0.545179 0
M  V30 1345 H 136.177 -2.48068 -2.97558 0
M  V30 1346 H 136.591 -4.63312 -2.4585 0
M  V30 1347 H 138.065 -3.8345 -3.97077 0
M  V30 1348 H 138.542 -2.14385 -3.83322 0
M  V30 1349 H 139.148 -3.32604 -2.65056 0
M  V30 1350 N 137.463 0.71206 -1.40597 0
M  V30 1351 C 138.691 1.50111 -1.42388 0
M  V30 1352 C 139.106 1.88784 -0.0245395 0
M  V30 1353 O 138.463 1.55681 0.952351 0
M  V30 1354 C 138.514 2.7742 -2.31776 0
M  V30 1355 O 138.235 2.40382 -3.66262 0
M  V30 1356 C 139.736 3.7129 -2.42196 0
M  V30 1357 H 136.956 0.46314 -0.485533 0
M  V30 1358 H 139.5 0.878068 -1.8469 0
M  V30 1359 H 137.655 3.36001 -1.92827 0
M  V30 1360 H 138.069 3.22324 -4.13772 0
M  V30 1361 H 139.543 4.57448 -3.08943 0
M  V30 1362 H 140.02 4.14641 -1.44809 0
M  V30 1363 H 140.626 3.18619 -2.81712 0
M  V30 1364 N 138.941 1.26152 0.944643 0
M  V30 1365 C 140.169 1.14259 1.72489 0
M  V30 1366 C 140.584 -0.302555 1.8636 0
M  V30 1367 O 139.941 -1.20741 1.36849 0
M  V30 1368 C 139.992 1.80266 3.13347 0
M  V30 1369 O 139.713 3.19133 3.00143 0
M  V30 1370 C 141.214 1.74283 4.07603 0
M  V30 1371 H 138.434 0.398051 0.540181 0
M  V30 1372 H 140.978 1.66706 1.18446 0
M  V30 1373 H 139.133 1.31766 3.64303 0
M  V30 1374 H 139.547 3.51744 3.89071 0
M  V30 1375 H 141.021 2.25111 5.04013 0
M  V30 1376 H 141.498 0.708631 4.33446 0
M  V30 1377 H 142.104 2.22319 3.62567 0
M  V30 1378 N 140.419 -1.14872 1.07899 0
M  V30 1379 C 141.665 -1.86064 0.806725 0
M  V30 1380 C 141.998 -1.82434 -0.665706 0
M  V30 1381 O 141.273 -1.25138 -1.48899 0
M  V30 1382 C 141.556 -3.34929 1.32267 0
M  V30 1383 C 141.409 -3.47161 2.86006 0
M  V30 1384 C 142.728 -4.29863 0.943717 0
M  V30 1385 H 139.847 -0.675591 0.294526 0
M  V30 1386 H 142.489 -1.34925 1.33773 0
M  V30 1387 H 140.639 -3.78611 0.870974 0
M  V30 1388 H 142.311 -3.12302 3.39507 0
M  V30 1389 H 140.554 -2.88539 3.23925 0
M  V30 1390 H 141.225 -4.51777 3.17177 0
M  V30 1391 H 143.701 -3.9417 1.33302 0
M  V30 1392 H 142.577 -5.32494 1.33198 0
M  V30 1393 H 142.838 -4.41846 -0.149796 0
M  V30 1394 N 141.898 -0.863906 -1.31812 0
M  V30 1395 C 142.828 -0.330843 -2.31144 0
M  V30 1396 C 143.809 0.575005 -1.60087 0
M  V30 1397 O 144.994 0.493304 -1.8783 0
M  V30 1398 C 142.124 0.47374 -3.44054 0
M  V30 1399 C 141.078 -0.338481 -4.26659 0
M  V30 1400 C 140.404 0.591412 -5.31419 0
M  V30 1401 C 141.704 -1.56926 -4.98168 0
M  V30 1402 H 143.398 -1.16086 -2.75979 0
M  V30 1403 H 140.944 -0.559657 -1.32679 0
M  V30 1404 H 142.897 0.857143 -4.12591 0
M  V30 1405 H 141.621 1.33721 -2.9797 0
M  V30 1406 H 140.28 -0.703754 -3.59782 0
M  V30 1407 H 139.928 1.45199 -4.81587 0
M  V30 1408 H 139.628 0.0519022 -5.87577 0
M  V30 1409 H 141.152 0.97179 -6.02817 0
M  V30 1410 H 142.566 -1.25764 -5.59336 0
M  V30 1411 H 140.963 -2.04739 -5.64094 0
M  V30 1412 H 142.033 -2.32544 -4.25501 0
M  V30 1413 N 143.376 1.44774 -0.622745 0
M  V30 1414 C 144.624 2.01721 -0.123655 0
M  V30 1415 C 144.945 1.49172 1.25589 0
M  V30 1416 O 144.215 0.691974 1.83272 0
M  V30 1417 H 142.795 0.745777 -0.0427225 0
M  V30 1418 H 145.457 1.77382 -0.807559 0
M  V30 1419 H 144.553 3.11984 -0.0849534 0
M  V30 1420 N 144.854 0.36279 1.53368 0
M  V30 1421 C 145.804 -0.501391 2.22419 0
M  V30 1422 C 146.788 -1.0509 1.2184 0
M  V30 1423 O 147.98 -0.981404 1.47301 0
M  V30 1424 C 145.109 -1.64201 3.01484 0
M  V30 1425 C 144.195 -1.10552 4.09438 0
M  V30 1426 N 144.586 -0.291788 5.04958 0
M  V30 1427 C 142.884 -1.3806 4.24094 0
M  V30 1428 C 143.585 0.00162655 5.817 0
M  V30 1429 N 142.561 -0.595244 5.40331 0
M  V30 1430 H 146.363 0.127159 2.93625 0
M  V30 1431 H 143.877 0.170658 1.61501 0
M  V30 1432 H 145.874 -2.27326 3.49469 0
M  V30 1433 H 144.534 -2.27365 2.31809 0
M  V30 1434 H 145.545 0.0687731 5.17854 0
M  V30 1435 H 142.222 -2.01522 3.65644 0
M  V30 1436 H 143.612 0.659278 6.68658 0
M  V30 1437 N 146.332 -1.57332 0.0918853 0
M  V30 1438 C 147.295 -2.12708 -0.85369 0
M  V30 1439 C 148.295 -1.05561 -1.213 0
M  V30 1440 O 149.485 -1.31461 -1.14296 0
M  V30 1441 C 146.617 -2.64503 -2.15061 0
M  V30 1442 H 147.81 -2.97573 -0.3729 0
M  V30 1443 H 145.363 -1.55509 -0.157072 0
M  V30 1444 H 146.098 -1.83149 -2.67632 0
M  V30 1445 H 145.883 -3.4284 -1.90272 0
M  V30 1446 H 147.373 -3.07351 -2.82711 0
M  V30 1447 N 147.81 0.181792 -1.56548 0
M  V30 1448 C 149.038 0.915947 -1.85521 0
M  V30 1449 C 149.453 1.76282 -0.676016 0
M  V30 1450 O 148.81 1.79012 0.355077 0
M  V30 1451 C 148.861 1.80126 -3.13427 0
M  V30 1452 O 148.582 0.988562 -4.26801 0
M  V30 1453 C 150.083 2.64597 -3.55673 0
M  V30 1454 H 147.303 0.26661 -0.61576 0
M  V30 1455 H 149.847 0.185039 -2.03661 0
M  V30 1456 H 148.002 2.48563 -2.97145 0
M  V30 1457 H 148.416 1.59308 -4.99721 0
M  V30 1458 H 149.89 3.2235 -4.48101 0
M  V30 1459 H 150.367 3.38958 -2.79292 0
M  V30 1460 H 150.973 2.0151 -3.74532 0
M  V30 1461 N 149.288 1.51039 0.449983 0
M  V30 1462 C 150.535 1.63081 1.20045 0
M  V30 1463 C 150.863 0.341024 1.91487 0
M  V30 1464 O 150.118 -0.674276 1.83717 0
M  V30 1465 C 150.417 2.77556 2.25161 0
M  V30 1466 C 150.083 4.17289 1.70823 0
M  V30 1467 C 148.745 4.55305 1.55725 0
M  V30 1468 C 151.097 5.04536 1.3074 0
M  V30 1469 C 148.425 5.78287 0.989999 0
M  V30 1470 C 150.777 6.28085 0.754482 0
M  V30 1471 C 149.441 6.64885 0.590308 0
M  V30 1472 H 148.711 0.596755 0.439277 0
M  V30 1473 H 151.358 1.85037 0.49333 0
M  V30 1474 H 149.663 2.49771 3.01863 0
M  V30 1475 H 151.36 2.84073 2.83026 0
M  V30 1476 H 147.95 3.8731 1.83546 0
M  V30 1477 H 152.134 4.75782 1.41229 0
M  V30 1478 H 147.39 6.05456 0.850451 0
M  V30 1479 H 151.564 6.95038 0.435324 0
M  V30 1480 H 149.191 7.60055 0.14862 0
M  V30 1481 N 150.766 -0.704594 1.40972 0
M  V30 1482 C 151.991 -1.49858 1.43378 0
M  V30 1483 C 152.416 -1.88061 0.038184 0
M  V30 1484 O 151.774 -1.5402 -0.956425 0
M  V30 1485 C 151.822 -2.74333 2.34038 0
M  V30 1486 O 150.926 -3.7147 1.7912 0
M  V30 1487 H 150.267 -0.45139 0.486974 0
M  V30 1488 H 152.797 -0.866832 1.8533 0
M  V30 1489 H 152.807 -3.22741 2.49604 0
M  V30 1490 H 151.482 -2.45863 3.35446 0
M  V30 1491 H 150.059 -3.30363 1.72958 0
M  V30 1492 N 152.244 -1.26651 -0.937939 0
M  V30 1493 C 153.207 -1.08546 -2.01867 0
M  V30 1494 C 154.207 -0.0327327 -1.60767 0
M  V30 1495 O 155.397 -0.276427 -1.71993 0
M  V30 1496 C 152.529 -0.651711 -3.34613 0
M  V30 1497 H 153.722 -2.04502 -2.1936 0
M  V30 1498 H 151.275 -1.09294 -1.11734 0
M  V30 1499 H 152.01 0.309696 -3.22818 0
M  V30 1500 H 151.795 -1.41189 -3.65798 0
M  V30 1501 H 153.285 -0.546973 -4.14002 0
M  V30 1502 N 153.722 1.14298 -1.08507 0
M  V30 1503 C 154.962 1.87016 -0.824894 0
M  V30 1504 C 155.326 1.81099 0.637735 0
M  V30 1505 O 156.527 2.48963 1.01345 0
M  V30 1506 C 154.798 3.31584 -1.33368 0
M  V30 1507 S 156.357 4.21903 -1.20596 0
M  V30 1508 H 153.175 0.645259 -0.2986 0
M  V30 1509 H 155.777 1.37822 -1.38656 0
M  V30 1510 H 154.481 3.33439 -2.39262 0
M  V30 1511 H 154.012 3.85836 -0.767734 0
M  V30 1512 H 156.027 4.95971 -0.150891 0
M  V30 1513 N 155.201 0.870884 1.31352 0
M  V30 1514 C 156.447 0.482987 1.96965 0
M  V30 1515 C 156.78 -0.962462 1.68672 0
M  V30 1516 O 156.055 -1.6779 0.98371 0
M  V30 1517 C 156.338 0.741752 3.52378 0
M  V30 1518 C 156.191 2.2368 3.9024 0
M  V30 1519 C 157.51 0.208838 4.39604 0
M  V30 1520 H 154.629 0.176955 0.715441 0
M  V30 1521 H 157.271 1.09229 1.55464 0
M  V30 1522 H 155.421 0.223149 3.87859 0
M  V30 1523 H 157.093 2.82273 3.64856 0
M  V30 1524 H 155.336 2.70901 3.38814 0
M  V30 1525 H 156.007 2.3685 4.98604 0
M  V30 1526 H 158.483 0.652529 4.10952 0
M  V30 1527 H 157.359 0.419336 5.47296 0
M  V30 1528 H 157.62 -0.889275 4.33064 0
M  V30 1529 N 156.679 -1.44442 0.630414 0
M  V30 1530 C 158.095 -1.56832 0.295973 0
M  V30 1531 C 158.295 -1.61806 -1.20088 0
M  V30 1532 O 157.351 -1.5607 -1.9849 0
M  V30 1533 C 158.664 -2.84031 0.987264 0
M  V30 1534 C 160.212 -2.97742 0.96534 0
M  V30 1535 C 160.687 -4.27743 1.63708 0
M  V30 1536 N 162.178 -4.34555 1.60364 0
M  V30 1537 C 162.913 -5.33862 2.09234 0
M  V30 1538 N 162.409 -6.39578 2.66292 0
M  V30 1539 N 164.202 -5.25366 1.99867 0
M  V30 1540 H 156.353 -1.39457 1.60205 0
M  V30 1541 H 158.616 -0.668237 0.672431 0
M  V30 1542 H 158.322 -2.86338 2.04215 0
M  V30 1543 H 158.196 -3.73534 0.524588 0
M  V30 1544 H 160.583 -2.94989 -0.0810639 0
M  V30 1545 H 160.664 -2.09589 1.4665 0
M  V30 1546 H 160.308 -4.31255 2.68293 0
M  V30 1547 H 160.238 -5.14752 1.11076 0
M  V30 1548 H 162.729 -3.58772 1.18705 0
M  V30 1549 H 163.042 -7.11637 3.01317 0
M  V30 1550 H 161.387 -6.40265 2.70343 0
M  V30 1551 H 164.578 -4.41688 1.55013 0
M  V30 1552 H 164.751 -6.02606 2.38265 0
M  V30 1553 N 158.157 -0.370918 -1.53173 0
M  V30 1554 C 159.105 0.488101 -2.27421 0
M  V30 1555 C 160.099 1.07884 -1.30604 0
M  V30 1556 O 161.305 1.02143 -1.48212 0
M  V30 1557 H 157.68 0.176134 -0.731082 0
M  V30 1558 H 159.651 -0.159815 -2.97972 0
M  V30 1559 C 158.4 1.61306 -3.08019 0
M  V30 1560 H 157.723 1.1678 -3.82364 0
M  V30 1561 H 159.163 2.18872 -3.63141 0
M  V30 1562 C 157.622 2.55848 -2.19188 0
M  V30 1563 O 158.152 3.58799 -1.80626 0
M  V30 1564 N 156.358 2.2516 -1.83715 0
M  V30 1565 H 155.905 1.41476 -2.15273 0
M  V30 1566 H 155.863 2.8867 -1.24567 0
M  V30 1567 N 159.635 1.57281 -0.100228 0
M  V30 1568 C 160.912 1.86014 0.604812 0
M  V30 1569 C 161.292 0.998025 1.86018 0
M  V30 1570 O 160.64 0.0718184 2.28387 0
M  V30 1571 C 160.85 3.36784 0.915278 0
M  V30 1572 C 162.198 4.04957 1.27651 0
M  V30 1573 O 163.222 3.41695 1.00613 0
M  V30 1574 O 162.081 5.16593 1.7831 0
M  V30 1575 H 159.175 0.76942 0.303185 0
M  V30 1576 H 161.721 1.69176 -0.133313 0
M  V30 1577 H 160.493 3.91292 0.0248896 0
M  V30 1578 H 160.116 3.58987 1.70921 0
M  V30 1579 N 161.113 -0.173488 1.56642 0
M  V30 1580 C 162.359 -0.891784 1.8214 0
M  V30 1581 C 162.692 -1.8199 0.677736 0
M  V30 1582 O 161.967 -1.91842 -0.320446 0
M  V30 1583 C 162.25 -1.68933 3.18015 0
M  V30 1584 C 162.103 -0.784487 4.42906 0
M  V30 1585 C 163.422 -2.65748 3.50808 0
M  V30 1586 H 160.541 -0.322761 0.662567 0
M  V30 1587 H 163.183 -0.158095 1.89341 0
M  V30 1588 H 161.333 -2.31482 3.12007 0
M  V30 1589 H 163.005 -0.172046 4.60979 0
M  V30 1590 H 161.248 -0.0924117 4.33702 0
M  V30 1591 H 161.919 -1.37799 5.34524 0
M  V30 1592 H 164.395 -2.13327 3.57255 0
M  V30 1593 H 163.271 -3.18619 4.4696 0
M  V30 1594 H 163.532 -3.45842 2.75401 0
M  V30 1595 N 162.591 -1.51276 -0.441967 0
M  V30 1596 C 163.524 -1.66933 -1.55591 0
M  V30 1597 C 164.502 -0.516958 -1.54163 0
M  V30 1598 O 165.686 -0.740209 -1.73358 0
M  V30 1599 C 162.813 -1.67866 -2.94174 0
M  V30 1600 C 161.859 -2.89013 -3.13646 0
M  V30 1601 S 162.692 -4.49897 -2.90436 0
M  V30 1602 C 163.848 -4.53568 -4.31308 0
M  V30 1603 H 164.081 -2.61155 -1.42076 0
M  V30 1604 H 161.614 -1.40902 -0.631341 0
M  V30 1605 H 163.572 -1.69089 -3.74058 0
M  V30 1606 H 162.233 -0.748296 -3.05056 0
M  V30 1607 H 161.426 -2.86054 -4.14957 0
M  V30 1608 H 161.028 -2.85509 -2.4158 0
M  V30 1609 H 163.32 -4.28924 -5.24434 0
M  V30 1610 H 164.263 -5.55355 -4.39303 0
M  V30 1611 H 164.671 -3.82943 -4.14747 0
M  V30 1612 N 164.069 0.697108 -1.41344 0
M  V30 1613 C 165.485 1.00751 -1.2378 0
M  V30 1614 C 165.685 2.01105 -0.126066 0
M  V30 1615 O 164.741 2.47295 0.51004 0
M  V30 1616 C 166.054 1.53359 -2.58653 0
M  V30 1617 C 167.602 1.6525 -2.65822 0
M  V30 1618 C 168.077 2.2126 -4.01009 0
M  V30 1619 N 169.568 2.28622 -4.02847 0
M  V30 1620 C 170.303 2.72984 -5.04249 0
M  V30 1621 N 169.799 3.16962 -6.16041 0
M  V30 1622 N 171.592 2.72534 -4.91611 0
M  V30 1623 H 163.743 0.0322662 -2.12375 0
M  V30 1624 H 166.006 0.0768853 -0.944877 0
M  V30 1625 H 165.712 0.870773 -3.4075 0
M  V30 1626 H 165.586 2.51597 -2.81032 0
M  V30 1627 H 167.973 2.30644 -1.84086 0
M  V30 1628 H 168.054 0.655614 -2.47256 0
M  V30 1629 H 167.698 1.56482 -4.83193 0
M  V30 1630 H 167.628 3.21698 -4.16915 0
M  V30 1631 H 170.119 1.97585 -3.22131 0
M  V30 1632 H 170.432 3.49434 -6.89287 0
M  V30 1633 H 168.777 3.14875 -6.1958 0
M  V30 1634 H 171.968 2.37525 -4.0336 0
M  V30 1635 H 172.141 3.06789 -5.70775 0
M  V30 1636 N 165.547 1.27147 0.931209 0
M  V30 1637 C 166.824 1.0401 1.65654 0
M  V30 1638 C 167.204 -0.426297 2.06751 0
M  V30 1639 O 166.552 -1.40879 1.79904 0
M  V30 1640 C 166.762 1.99834 2.86125 0
M  V30 1641 C 168.11 2.29007 3.57549 0
M  V30 1642 O 169.134 1.97779 2.96246 0
M  V30 1643 O 167.993 2.82222 4.67989 0
M  V30 1644 H 165.087 0.396239 0.725895 0
M  V30 1645 H 167.633 1.38397 0.982056 0
M  V30 1646 H 166.405 2.98744 2.52721 0
M  V30 1647 H 166.028 1.65987 3.61295 0
M  V30 1648 N 167.025 -1.13721 1.09112 0
M  V30 1649 C 168.273 -1.84559 0.823562 0
M  V30 1650 C 168.594 -1.83754 -0.652658 0
M  V30 1651 O 167.864 -1.29102 -1.47342 0
M  V30 1652 H 166.444 -0.683376 0.301673 0
M  V30 1653 H 169.106 -1.37771 1.37859 0
M  V30 1654 H 168.202 -2.8917 1.17419 0
M  V30 1655 N 168.503 -0.877838 -1.30888 0
M  V30 1656 C 169.413 -0.343096 -2.32078 0
M  V30 1657 C 170.429 0.551022 -1.65045 0
M  V30 1658 O 171.605 0.445854 -1.96403 0
M  V30 1659 C 168.67 0.439905 -3.43898 0
M  V30 1660 C 167.731 -0.483111 -4.26573 0
M  V30 1661 C 166.964 0.262616 -5.33053 0
M  V30 1662 O 167.187 1.48967 -5.50604 0
M  V30 1663 O 166.121 -0.383593 -6.00676 0
M  V30 1664 H 169.947 -1.18203 -2.79753 0
M  V30 1665 H 167.532 -0.64145 -1.34929 0
M  V30 1666 H 169.414 0.883504 -4.12034 0
M  V30 1667 H 168.089 1.25526 -2.98371 0
M  V30 1668 H 166.996 -0.975374 -3.61161 0
M  V30 1669 H 168.329 -1.26427 -4.75686 0
M  V30 1670 N 169.982 1.44106 -0.638065 0
M  V30 1671 C 170.929 2.30715 0.062701 0
M  V30 1672 C 171.899 1.43882 0.829883 0
M  V30 1673 O 173.084 1.72775 0.809532 0
M  V30 1674 C 170.224 3.29258 1.03358 0
M  V30 1675 C 169.337 4.31192 0.26409 0
M  V30 1676 C 168.472 5.16825 1.22741 0
M  V30 1677 C 167.511 6.10462 0.447475 0
M  V30 1678 N 166.648 6.8877 1.36161 0
M  V30 1679 H 171.488 2.90096 -0.681781 0
M  V30 1680 H 169.025 1.42925 -0.347988 0
M  V30 1681 H 170.983 3.84886 1.60992 0
M  V30 1682 H 169.613 2.71562 1.74511 0
M  V30 1683 H 168.665 3.77981 -0.428295 0
M  V30 1684 H 169.977 4.97619 -0.343052 0
M  V30 1685 H 169.131 5.77004 1.87487 0
M  V30 1686 H 167.87 4.50488 1.86847 0
M  V30 1687 H 166.875 5.49386 -0.213433 0
M  V30 1688 H 168.1 6.78837 -0.188968 0
M  V30 1689 H 166.046 6.25096 1.98975 0
M  V30 1690 H 165.963 7.51663 0.808656 0
M  V30 1691 H 167.231 7.53467 1.99769 0
M  V30 1692 N 171.46 0.379036 1.52974 0
M  V30 1693 C 172.37 -0.468639 2.29872 0
M  V30 1694 C 173.386 -1.08067 1.36373 0
M  V30 1695 O 174.562 -1.08871 1.69438 0
M  V30 1696 C 171.627 -1.58594 3.083 0
M  V30 1697 C 170.688 -1.00007 4.17489 0
M  V30 1698 C 169.921 -2.06413 4.92168 0
M  V30 1699 O 170.144 -3.27751 4.66835 0
M  V30 1700 O 169.078 -1.68717 5.7777 0
M  V30 1701 H 172.904 0.157508 3.03291 0
M  V30 1702 H 170.489 0.143035 1.48714 0
M  V30 1703 H 172.371 -2.23525 3.57232 0
M  V30 1704 H 171.046 -2.19724 2.37703 0
M  V30 1705 H 169.953 -0.314299 3.72777 0
M  V30 1706 H 171.286 -0.433135 4.90291 0
M  V30 1707 N 172.938 -1.57226 0.108567 0
M  V30 1708 C 174.215 -1.86333 -0.594939 0
M  V30 1709 C 174.595 -1.00788 -1.85486 0
M  V30 1710 O 173.943 -0.0839293 -2.28346 0
M  V30 1711 C 174.153 -3.37265 -0.897405 0
M  V30 1712 C 175.501 -4.05629 -1.25501 0
M  V30 1713 O 176.525 -3.42224 -0.987998 0
M  V30 1714 O 175.384 -5.17531 -1.75567 0
M  V30 1715 H 172.478 -0.771018 -0.2991 0
M  V30 1716 H 175.024 -1.69102 0.142283 0
M  V30 1717 H 173.796 -3.913 -0.00413806 0
M  V30 1718 H 173.419 -3.59889 -1.69014 0
M  V30 1719 N 174.416 0.165178 -1.56732 0
M  V30 1720 C 175.379 1.18822 -1.95995 0
M  V30 1721 C 176.379 1.3685 -0.84431 0
M  V30 1722 O 177.569 1.34152 -1.11126 0
M  V30 1723 C 174.701 2.5521 -2.26011 0
M  V30 1724 H 175.894 0.851825 -2.87548 0
M  V30 1725 H 173.447 0.407857 -1.50885 0
M  V30 1726 H 174.182 2.93852 -1.37191 0
M  V30 1727 H 173.967 2.43489 -3.07336 0
M  V30 1728 H 175.457 3.28927 -2.57288 0
M  V30 1729 N 175.894 1.51508 0.433938 0
M  V30 1730 C 176.857 1.72473 1.50949 0
M  V30 1731 C 177.857 0.594725 1.49398 0
M  V30 1732 O 179.047 0.862315 1.5136 0
M  V30 1733 C 176.179 1.78431 2.90474 0
M  V30 1734 H 177.372 2.68467 1.33662 0
M  V30 1735 H 174.925 1.41549 0.662836 0
M  V30 1736 H 175.66 0.842645 3.13161 0
M  V30 1737 H 175.445 2.60558 2.93005 0
M  V30 1738 H 176.935 1.96479 3.68491 0
M  V30 1739 N 177.372 -0.689602 1.41712 0
M  V30 1740 C 178.597 -1.48329 1.44959 0
M  V30 1741 C 179.022 -1.8801 0.0581283 0
M  V30 1742 O 178.38 -1.55026 -0.940035 0
M  V30 1743 C 178.428 -2.71835 2.36935 0
M  V30 1744 O 177.532 -3.69549 1.8305 0
M  V30 1745 H 176.873 -0.446199 0.491734 0
M  V30 1746 H 179.403 -0.847127 1.86239 0
M  V30 1747 H 179.413 -3.20076 2.53013 0
M  V30 1748 H 178.088 -2.42291 3.38035 0
M  V30 1749 H 176.665 -3.2851 1.76452 0
M  V30 1750 N 178.85 -1.27639 -0.924453 0
M  V30 1751 C 180.127 -1.04887 -1.651 0
M  V30 1752 C 180.507 0.415327 -2.06974 0
M  V30 1753 O 179.855 1.39923 -1.80648 0
M  V30 1754 C 180.065 -2.01348 -2.85061 0
M  V30 1755 C 181.413 -2.30899 -3.56329 0
M  V30 1756 O 182.437 -1.99348 -2.95193 0
M  V30 1757 O 181.296 -2.84699 -4.66485 0
M  V30 1758 H 178.39 -0.400083 -0.723784 0
M  V30 1759 H 180.936 -1.38916 -0.974703 0
M  V30 1760 H 179.708 -3.0008 -2.51133 0
M  V30 1761 H 179.331 -1.679 -3.6041 0
M  V30 1762 N 180.328 1.1314 -1.09713 0
M  V30 1763 C 181.275 2.18642 -0.739196 0
M  V30 1764 C 182.245 1.63706 0.280978 0
M  V30 1765 O 183.43 1.90111 0.161946 0
M  V30 1766 C 180.57 3.44685 -0.169102 0
M  V30 1767 C 179.683 4.13711 -1.24367 0
M  V30 1768 C 178.818 5.27379 -0.636019 0
M  V30 1769 C 177.857 5.88259 -1.69169 0
M  V30 1770 N 176.994 6.93352 -1.10485 0
M  V30 1771 H 181.834 2.48607 -1.64312 0
M  V30 1772 H 179.371 1.22066 -0.820875 0
M  V30 1773 H 181.329 4.16815 0.179256 0
M  V30 1774 H 179.959 3.15161 0.698079 0
M  V30 1775 H 179.011 3.39835 -1.70927 0
M  V30 1776 H 180.323 4.55037 -2.04311 0
M  V30 1777 H 179.477 6.06238 -0.236677 0
M  V30 1778 H 178.216 4.8731 0.194928 0
M  V30 1779 H 177.221 5.08092 -2.10055 0
M  V30 1780 H 178.446 6.30399 -2.52536 0
M  V30 1781 H 176.392 6.55335 -0.295234 0
M  V30 1782 H 176.309 7.33236 -1.84121 0
M  V30 1783 H 177.577 7.76057 -0.73181 0
M  V30 1784 N 181.806 0.884767 1.30421 0
M  V30 1785 C 182.716 0.355398 2.31892 0
M  V30 1786 C 183.732 -0.542261 1.65335 0
M  V30 1787 O 184.908 -0.435432 1.96637 0
M  V30 1788 C 181.973 -0.421661 3.44126 0
M  V30 1789 C 181.034 0.505727 4.26311 0
M  V30 1790 C 180.267 -0.234343 5.33185 0
M  V30 1791 O 180.49 -1.46045 5.51386 0
M  V30 1792 O 179.424 0.415443 6.00465 0
M  V30 1793 H 183.25 1.19685 2.79122 0
M  V30 1794 H 180.835 0.648596 1.34587 0
M  V30 1795 H 182.717 -0.861641 4.12497 0
M  V30 1796 H 181.392 -1.23942 2.99032 0
M  V30 1797 H 180.299 0.994513 3.60639 0
M  V30 1798 H 181.632 1.28948 4.75009 0
M  V30 1799 N 183.284 -1.43765 0.645699 0
M  V30 1800 C 184.232 -2.32516 -0.0624849 0
M  V30 1801 C 185.226 -1.48183 -0.820855 0
M  V30 1802 O 186.432 -1.64439 -0.732106 0
M  V30 1803 H 182.807 -0.750989 -0.0389864 0
M  V30 1804 H 184.778 -2.89979 0.703892 0
M  V30 1805 C 183.527 -3.32389 -1.02044 0
M  V30 1806 H 182.85 -3.97301 -0.446312 0
M  V30 1807 H 184.29 -3.97138 -1.48517 0
M  V30 1808 C 182.749 -2.62416 -2.11281 0
M  V30 1809 O 183.279 -2.434 -3.19561 0
M  V30 1810 N 181.485 -2.21913 -1.87624 0
M  V30 1811 H 181.032 -2.37578 -0.995703 0
M  V30 1812 H 180.99 -1.75424 -2.6091 0
M  V30 1813 N 184.763 -0.387143 -1.52771 0
M  V30 1814 C 185.693 0.440551 -2.29306 0
M  V30 1815 C 186.674 1.06535 -1.32606 0
M  V30 1816 O 187.859 1.07853 -1.61497 0
M  V30 1817 C 184.989 1.56919 -3.09829 0
M  V30 1818 C 183.943 1.07054 -4.14395 0
M  V30 1819 C 183.269 2.29109 -4.83129 0
M  V30 1820 C 184.569 0.140015 -5.22112 0
M  V30 1821 H 186.263 -0.198026 -2.98744 0
M  V30 1822 H 183.809 -0.09668 -1.43675 0
M  V30 1823 H 185.762 2.15503 -3.62128 0
M  V30 1824 H 184.486 2.23532 -2.3812 0
M  V30 1825 H 183.145 0.507247 -3.63074 0
M  V30 1826 H 182.793 2.94227 -4.0797 0
M  V30 1827 H 182.493 1.96406 -5.53804 0
M  V30 1828 H 184.017 2.88339 -5.38231 0
M  V30 1829 H 185.431 0.633978 -5.69784 0
M  V30 1830 H 183.828 -0.0971485 -6.00021 0
M  V30 1831 H 184.898 -0.811711 -4.78058 0
M  V30 1832 N 186.241 1.57166 -0.116904 0
M  V30 1833 C 187.657 1.5779 0.239693 0
M  V30 1834 C 187.857 1.1295 1.66867 0
M  V30 1835 O 186.913 0.81592 2.38954 0
M  V30 1836 C 188.226 3.00699 0.00828202 0
M  V30 1837 C 189.774 3.12912 0.0743438 0
M  V30 1838 C 190.249 4.57817 -0.129348 0
M  V30 1839 N 191.74 4.63139 -0.075247 0
M  V30 1840 C 192.475 5.73023 -0.207788 0
M  V30 1841 N 191.971 6.91665 -0.396382 0
M  V30 1842 N 193.764 5.61906 -0.14751 0
M  V30 1843 H 185.915 1.84615 -1.05029 0
M  V30 1844 H 188.178 0.85311 -0.41341 0
M  V30 1845 H 187.884 3.37784 -0.979531 0
M  V30 1846 H 187.758 3.69848 0.741077 0
M  V30 1847 H 190.145 2.75686 1.05268 0
M  V30 1848 H 190.226 2.4631 -0.690297 0
M  V30 1849 H 189.87 4.95742 -1.10465 0
M  V30 1850 H 189.8 5.22507 0.655253 0
M  V30 1851 H 192.291 3.7784 0.0670898 0
M  V30 1852 H 192.604 7.71255 -0.488437 0
M  V30 1853 H 190.949 6.93654 -0.432329 0
M  V30 1854 H 194.14 4.681 -0.00115036 0
M  V30 1855 H 194.313 6.47501 -0.254247 0
M  V30 1856 N 187.719 -0.156864 1.56817 0
M  V30 1857 C 189.135 -0.50916 1.5126 0
M  V30 1858 C 189.335 -1.83897 0.823658 0
M  V30 1859 O 188.391 -2.49469 0.390055 0
M  V30 1860 C 189.704 -0.52857 2.96018 0
M  V30 1861 C 191.252 -0.614771 3.06903 0
M  V30 1862 C 191.727 -0.664938 4.53147 0
M  V30 1863 N 193.218 -0.727433 4.57452 0
M  V30 1864 C 193.953 -0.787067 5.67973 0
M  V30 1865 N 193.449 -0.806649 6.88088 0
M  V30 1866 N 195.242 -0.827195 5.5598 0
M  V30 1867 H 187.393 0.714935 2.00006 0
M  V30 1868 H 189.656 0.259526 0.911784 0
M  V30 1869 H 189.362 0.380154 3.49639 0
M  V30 1870 H 189.236 -1.36998 3.51442 0
M  V30 1871 H 191.623 -1.51392 2.53307 0
M  V30 1872 H 191.704 0.253597 2.5454 0
M  V30 1873 H 191.348 0.230011 5.07379 0
M  V30 1874 H 191.278 -1.54966 5.03282 0
M  V30 1875 H 193.769 -0.719998 3.70978 0
M  V30 1876 H 194.082 -0.853727 7.6807 0
M  V30 1877 H 192.427 -0.774687 6.90669 0
M  V30 1878 H 195.618 -0.808998 4.61056 0
M  V30 1879 H 195.791 -0.870206 6.4213 0
M  V30 1880 N 189.197 -1.51736 -0.425897 0
M  V30 1881 C 190.608 -1.5732 -1.00536 0
M  V30 1882 C 190.959 -0.403537 -1.92005 0
M  V30 1883 O 190.084 0.478256 -2.11049 0
M  V30 1884 C 190.679 -2.85119 -1.8301 0
M  V30 1885 C 189.238 -2.93236 -2.35987 0
M  V30 1886 C 188.385 -2.52098 -1.15508 0
M  V30 1887 H 191.336 -1.57348 -0.206739 0
M  V30 1888 H 191.357 -2.69526 -2.68581 0
M  V30 1889 H 190.869 -3.7023 -1.16411 0
M  V30 1890 H 188.97 -2.12581 -3.06007 0
M  V30 1891 H 189.083 -3.9713 -2.68001 0
M  V30 1892 H 187.447 -2.05558 -1.50393 0
M  V30 1893 H 188.23 -3.39565 -0.505014 0
M  V30 1894 N 190.675 0.682077 -1.42076 0
M  V30 1895 C 191.921 1.44428 -1.42367 0
M  V30 1896 C 192.254 1.94164 -0.0373056 0
M  V30 1897 O 191.529 1.70429 0.937239 0
M  V30 1898 C 191.812 2.64654 -2.44194 0
M  V30 1899 C 191.665 2.20596 -3.91991 0
M  V30 1900 C 192.984 3.66865 -2.431 0
M  V30 1901 H 190.103 0.523834 -0.518428 0
M  V30 1902 H 192.745 0.77576 -1.73442 0
M  V30 1903 H 190.895 3.2169 -2.17826 0
M  V30 1904 H 192.567 1.68783 -4.29313 0
M  V30 1905 H 190.81 1.52242 -4.06208 0
M  V30 1906 H 191.481 3.06921 -4.58807 0
M  V30 1907 H 193.957 3.19531 -2.66532 0
M  V30 1908 H 192.833 4.48577 -3.16339 0
M  V30 1909 H 193.094 4.17493 -1.45437 0
M  V30 1910 N 192.153 1.28127 0.917671 0
M  V30 1911 C 193.399 1.15223 1.66888 0
M  V30 1912 C 193.732 -0.299293 1.9188 0
M  V30 1913 O 193.007 -1.21805 1.51637 0
M  V30 1914 C 193.29 1.94706 3.02922 0
M  V30 1915 C 193.143 3.47898 2.85109 0
M  V30 1916 C 194.462 1.75939 4.03402 0
M  V30 1917 H 191.581 0.419946 0.605652 0
M  V30 1918 H 194.223 1.57398 1.06423 0
M  V30 1919 H 192.373 1.58864 3.54534 0
M  V30 1920 H 194.045 3.93624 2.40537 0
M  V30 1921 H 192.288 3.7373 2.20246 0
M  V30 1922 H 192.959 3.98765 3.81694 0
M  V30 1923 H 195.435 2.07209 3.60837 0
M  V30 1924 H 194.311 2.33931 4.96556 0
M  V30 1925 H 194.572 0.709877 4.36364 0
M  V30 1926 N 193.631 -1.12557 1.10312 0
M  V30 1927 C 195.042 -1.65574 0.862678 0
M  V30 1928 C 195.393 -1.86566 -0.607256 0
M  V30 1929 O 194.518 -1.59121 -1.46662 0
M  V30 1930 C 195.113 -3.00776 1.55947 0
M  V30 1931 C 193.672 -3.50748 1.36576 0
M  V30 1932 C 192.819 -2.25797 1.60968 0
M  V30 1933 H 195.77 -0.963552 1.26101 0
M  V30 1934 H 195.791 -3.67185 0.997753 0
M  V30 1935 H 195.303 -2.85465 2.62928 0
M  V30 1936 H 193.404 -3.71245 0.317531 0
M  V30 1937 H 193.517 -4.30289 2.10686 0
M  V30 1938 H 191.881 -2.32841 1.03234 0
M  V30 1939 H 192.664 -2.13043 2.69198 0
M  V30 1940 N 195.109 -0.891671 -1.2995 0
M  V30 1941 C 196.334 -0.527932 -2.00568 0
M  V30 1942 C 196.759 0.877969 -1.66353 0
M  V30 1943 O 196.117 1.58301 -0.883762 0
M  V30 1944 C 196.165 -0.717745 -3.53385 0
M  V30 1945 O 195.269 0.233376 -4.11739 0
M  V30 1946 H 194.61 -0.20722 -0.630837 0
M  V30 1947 H 197.14 -1.20105 -1.65638 0
M  V30 1948 H 197.15 -0.619307 -4.03272 0
M  V30 1949 H 195.825 -1.74276 -3.77625 0
M  V30 1950 H 194.402 0.0880706 -3.72796 0
M  V30 1951 N 196.587 1.43421 -0.653314 0
M  V30 1952 C 197.815 2.06163 -0.174491 0
M  V30 1953 C 198.23 1.48969 1.1599 0
M  V30 1954 O 197.587 0.621042 1.71608 0
M  V30 1955 C 197.638 3.61417 -0.0774865 0
M  V30 1956 O 197.359 4.16485 -1.35912 0
M  V30 1957 C 198.86 4.41235 0.427402 0
M  V30 1958 H 196.08 0.664946 -0.0899353 0
M  V30 1959 H 198.624 1.83924 -0.893988 0
M  V30 1960 H 196.779 3.82841 0.59257 0
M  V30 1961 H 197.193 5.10153 -1.21839 0
M  V30 1962 H 198.667 5.5021 0.44423 0
M  V30 1963 H 199.144 4.14268 1.45873 0
M  V30 1964 H 199.75 4.2478 -0.210167 0
M  V30 1965 N 198.065 0.39524 1.52563 0
M  V30 1966 C 199.29 -0.187456 2.06551 0
M  V30 1967 C 199.715 -1.39249 1.26457 0
M  V30 1968 O 199.073 -1.78947 0.291151 0
M  V30 1969 C 199.121 -0.529985 3.56684 0
M  V30 1970 O 198.225 -1.62307 3.79118 0
M  V30 1971 H 197.566 -0.0202537 0.663691 0
M  V30 1972 H 200.096 0.564426 1.96661 0
M  V30 1973 H 200.106 -0.792598 4.00227 0
M  V30 1974 H 198.781 0.350987 4.14416 0
M  V30 1975 H 197.358 -1.3537 3.47461 0
M  V30 1976 N 199.544 -1.57102 0.125237 0
M  V30 1977 C 200.769 -2.0019 -0.542101 0
M  V30 1978 C 201.194 -1.00449 -1.59034 0
M  V30 1979 O 200.552 0.0229423 -1.81285 0
M  V30 1980 C 200.6 -3.42129 -1.13929 0
M  V30 1981 O 199.704 -3.45307 -2.2547 0
M  V30 1982 H 199.045 -0.650171 -0.134812 0
M  V30 1983 H 201.575 -2.03461 0.215553 0
M  V30 1984 H 201.585 -3.80471 -1.4733 0
M  V30 1985 H 200.26 -4.14237 -0.371531 0
M  V30 1986 H 198.837 -3.1879 -1.93462 0
M  V30 1987 N 201.022 0.148545 -1.56898 0
M  V30 1988 C 202.438 0.501131 -1.51528 0
M  V30 1989 C 202.638 1.83458 -0.833399 0
M  V30 1990 O 201.694 2.49259 -0.40328 0
M  V30 1991 C 203.007 0.512864 -2.96294 0
M  V30 1992 C 204.555 0.598487 -3.07225 0
M  V30 1993 C 205.03 0.640897 -4.53494 0
M  V30 1994 N 206.521 0.703163 -4.57832 0
M  V30 1995 C 207.256 0.756935 -5.68382 0
M  V30 1996 N 206.752 0.770147 -6.88506 0
M  V30 1997 N 208.545 0.797698 -5.56411 0
M  V30 1998 H 200.696 -0.725532 -1.99624 0
M  V30 1999 H 202.959 -0.264358 -0.910395 0
M  V30 2000 H 202.665 -0.398691 -3.49433 0
M  V30 2001 H 202.539 1.35133 -3.52163 0
M  V30 2002 H 204.926 1.50046 -2.54106 0
M  V30 2003 H 205.007 -0.267093 -2.54402 0
M  V30 2004 H 204.651 -0.256915 -5.0725 0
M  V30 2005 H 204.581 1.52295 -5.04097 0
M  V30 2006 H 207.072 0.700314 -3.71354 0
M  V30 2007 H 207.385 0.812983 -7.68512 0
M  V30 2008 H 205.73 0.738049 -6.9107 0
M  V30 2009 H 208.921 0.784535 -4.61479 0
M  V30 2010 H 209.094 0.83614 -6.42583 0
M  V30 2011 N 202.5 1.5196 0.417844 0
M  V30 2012 C 203.748 1.65263 1.16329 0
M  V30 2013 C 204.069 0.380634 1.91249 0
M  V30 2014 O 203.339 -0.604214 1.86349 0
M  V30 2015 H 201.919 0.60912 0.432414 0
M  V30 2016 H 204.581 1.88969 0.477162 0
M  V30 2017 H 203.677 2.4896 1.88217 0
M  V30 2018 N 203.978 -0.674533 1.42435 0
M  V30 2019 C 205.203 -1.46784 1.46524 0
M  V30 2020 C 205.628 -1.87938 0.078066 0
M  V30 2021 O 204.986 -1.56014 -0.92354 0
M  V30 2022 C 205.034 -2.69307 2.39805 0
M  V30 2023 O 204.138 -3.67587 1.86959 0
M  V30 2024 H 203.479 -0.440959 0.496439 0
M  V30 2025 H 206.009 -0.827326 1.87127 0
M  V30 2026 H 206.019 -3.17374 2.56393 0
M  V30 2027 H 204.694 -2.38692 3.40586 0
M  V30 2028 H 203.271 -3.2662 1.79927 0
M  V30 2029 N 205.456 -1.28612 -0.910864 0
M  V30 2030 C 206.419 -1.12803 -1.9952 0
M  V30 2031 C 207.419 -0.0668264 -1.60661 0
M  V30 2032 O 208.609 -0.312847 -1.71368 0
M  V30 2033 C 205.741 -0.72254 -3.33155 0
M  V30 2034 H 206.934 -2.09109 -2.14973 0
M  V30 2035 H 204.487 -1.11639 -1.09391 0
M  V30 2036 H 205.222 0.241152 -3.23402 0
M  V30 2037 H 205.007 -1.48916 -3.62721 0
M  V30 2038 H 206.497 -0.634666 -4.12749 0
M  V30 2039 N 206.934 1.1197 -1.10907 0
M  V30 2040 C 207.897 2.16031 -0.765707 0
M  V30 2041 C 208.897 1.59393 0.212235 0
M  V30 2042 O 210.087 1.74196 -0.0115441 0
M  V30 2043 C 207.219 3.40632 -0.135053 0
M  V30 2044 H 208.412 2.47919 -1.68748 0
M  V30 2045 H 205.965 1.27061 -0.910226 0
M  V30 2046 H 206.7 3.14348 0.797218 0
M  V30 2047 H 206.485 3.8302 -0.838937 0
M  V30 2048 H 207.975 4.17505 0.0892469 0
M  V30 2049 N 208.412 0.89855 1.29475 0
M  V30 2050 C 209.637 0.538561 2.00285 0
M  V30 2051 C 210.062 -0.869135 1.66816 0
M  V30 2052 O 209.42 -1.57831 0.892145 0
M  V30 2053 C 209.468 0.736475 3.52999 0
M  V30 2054 O 208.572 -0.211537 4.11857 0
M  V30 2055 H 207.913 0.210563 0.62973 0
M  V30 2056 H 210.443 1.20982 1.64998 0
M  V30 2057 H 210.453 0.640685 4.02938 0
M  V30 2058 H 209.128 1.76276 3.76696 0
M  V30 2059 H 207.705 -0.0682991 3.72837 0
M  V30 2060 N 209.89 -1.43072 0.660911 0
M  V30 2061 C 211.138 -2.01323 0.177094 0
M  V30 2062 C 211.459 -1.5245 -1.2159 0
M  V30 2063 O 210.729 -0.740322 -1.81373 0
M  V30 2064 H 209.309 -0.744382 0.0624804 0
M  V30 2065 H 211.971 -1.75179 0.854305 0
M  V30 2066 H 211.067 -3.11649 0.167641 0
M  V30 2067 N 211.368 -0.403325 -1.52352 0
M  V30 2068 C 212.645 0.232611 -1.94212 0
M  V30 2069 C 213.025 1.63133 -1.33981 0
M  V30 2070 O 212.373 2.22659 -0.513344 0
M  V30 2071 C 212.583 0.244811 -3.4814 0
M  V30 2072 C 213.931 0.46698 -4.22024 0
M  V30 2073 O 214.955 0.324419 -3.5472 0
M  V30 2074 O 213.814 0.74747 -5.41364 0
M  V30 2075 H 210.908 0.148223 -0.813609 0
M  V30 2076 H 213.454 -0.458848 -1.63379 0
M  V30 2077 H 212.226 -0.734378 -3.84347 0
M  V30 2078 H 211.849 0.980611 -3.85318 0
M  V30 2079 N 212.846 1.57033 -0.133567 0
M  V30 2080 C 214.094 1.953 0.519848 0
M  V30 2081 C 214.415 1.01866 1.66278 0
M  V30 2082 O 213.685 0.0776513 1.95746 0
M  V30 2083 H 212.265 0.721091 0.195032 0
M  V30 2084 H 214.927 1.93809 -0.205921 0
M  V30 2085 H 214.023 2.98695 0.904854 0
M  V30 2086 N 214.325 -0.140222 1.56975 0
M  V30 2087 C 215.555 -0.865181 1.87612 0
M  V30 2088 C 215.963 -1.74942 0.72055 0
M  V30 2089 O 215.306 -1.80917 -0.318561 0
M  V30 2090 C 215.368 -1.76782 3.13031 0
M  V30 2091 C 215.032 -1.06005 4.44536 0
M  V30 2092 C 216.029 -0.410768 5.18275 0
M  V30 2093 C 213.714 -1.04754 4.91255 0
M  V30 2094 C 215.708 0.241572 6.36942 0
M  V30 2095 C 213.395 -0.391394 6.09845 0
M  V30 2096 C 214.393 0.252029 6.82535 0
M  V30 2097 O 214.081 0.897757 7.98871 0
M  V30 2098 H 213.813 -0.255188 0.625983 0
M  V30 2099 H 216.367 -0.135653 2.04952 0
M  V30 2100 H 214.597 -2.53846 2.91718 0
M  V30 2101 H 216.286 -2.36533 3.29859 0
M  V30 2102 H 217.052 -0.412195 4.83245 0
M  V30 2103 H 212.931 -1.53777 4.34596 0
M  V30 2104 H 216.475 0.744375 6.93617 0
M  V30 2105 H 212.372 -0.387656 6.44335 0
M  V30 2106 H 213.14 0.800102 8.1458 0
M  V30 2107 N 215.803 -1.52179 -0.40978 0
M  V30 2108 C 216.753 -1.71857 -1.49831 0
M  V30 2109 C 217.737 -0.572469 -1.50372 0
M  V30 2110 O 218.929 -0.829509 -1.56359 0
M  V30 2111 C 216.058 -1.87206 -2.87765 0
M  V30 2112 C 215.144 -3.07685 -2.91875 0
M  V30 2113 N 215.535 -4.30403 -2.65683 0
M  V30 2114 C 213.833 -3.07505 -3.23043 0
M  V30 2115 C 214.534 -5.11868 -2.76344 0
M  V30 2116 N 213.51 -4.47101 -3.09195 0
M  V30 2117 H 217.312 -2.64381 -1.28375 0
M  V30 2118 H 214.826 -1.50203 -0.617479 0
M  V30 2119 H 216.823 -1.99419 -3.66111 0
M  V30 2120 H 215.483 -0.958814 -3.10221 0
M  V30 2121 H 216.494 -4.58887 -2.4009 0
M  V30 2122 H 213.171 -2.25915 -3.51096 0
M  V30 2123 H 214.561 -6.19634 -2.59814 0
M  V30 2124 N 217.281 0.66697 -1.42791 0
M  V30 2125 C 218.529 1.42417 -1.43394 0
M  V30 2126 C 218.85 1.94925 -0.0542373 0
M  V30 2127 O 218.12 1.73564 0.908415 0
M  V30 2128 H 216.7 0.528515 -0.527902 0
M  V30 2129 H 219.362 0.787562 -1.78279 0
M  V30 2130 H 218.458 2.27333 -2.13837 0
M  V30 2131 N 218.759 1.29093 0.90403 0
M  V30 2132 C 219.689 1.16401 2.02418 0
M  V30 2133 C 220.67 0.0593085 1.69997 0
M  V30 2134 O 221.855 0.238021 1.92736 0
M  V30 2135 C 218.985 0.835233 3.37107 0
M  V30 2136 C 217.939 1.89578 3.83724 0
M  V30 2137 C 217.265 1.42041 5.15489 0
M  V30 2138 C 218.565 3.30394 4.04521 0
M  V30 2139 H 220.259 2.10109 2.13295 0
M  V30 2140 H 217.805 1.01157 1.02486 0
M  V30 2141 H 219.758 0.733169 4.14973 0
M  V30 2142 H 218.482 -0.137543 3.2631 0
M  V30 2143 H 217.141 1.98715 3.08071 0
M  V30 2144 H 216.789 0.436426 5.01103 0
M  V30 2145 H 216.489 2.12964 5.4765 0
M  V30 2146 H 218.013 1.33176 5.959 0
M  V30 2147 H 219.427 3.24123 4.72882 0
M  V30 2148 H 217.824 3.99237 4.48029 0
M  V30 2149 H 218.894 3.73692 3.09002 0
M  V30 2150 N 220.237 -1.11381 1.11499 0
M  V30 2151 C 221.653 -1.35143 0.849031 0
M  V30 2152 C 221.853 -1.94515 -0.525938 0
M  V30 2153 O 220.909 -2.1785 -1.27662 0
M  V30 2154 C 222.222 -2.28249 1.95762 0
M  V30 2155 C 223.77 -2.41812 1.98736 0
M  V30 2156 C 224.245 -3.3824 3.088 0
M  V30 2157 N 225.736 -3.45803 3.08179 0
M  V30 2158 C 226.471 -4.20358 3.89982 0
M  V30 2159 N 225.967 -4.97884 4.8175 0
M  V30 2160 N 227.76 -4.15877 3.78157 0
M  V30 2161 H 219.911 -0.712062 2.00109 0
M  V30 2162 H 222.174 -0.376025 0.870235 0
M  V30 2163 H 221.88 -1.91817 2.94787 0
M  V30 2164 H 221.754 -3.28473 1.85433 0
M  V30 2165 H 224.141 -2.77518 1.00338 0
M  V30 2166 H 224.222 -1.41437 2.13141 0
M  V30 2167 H 223.866 -3.03261 4.07425 0
M  V30 2168 H 223.796 -4.38471 2.91635 0
M  V30 2169 H 226.287 -2.90506 2.41691 0
M  V30 2170 H 226.6 -5.52142 5.40702 0
M  V30 2171 H 224.945 -4.97043 4.85771 0
M  V30 2172 H 228.136 -3.544 3.05808 0
M  V30 2173 H 228.309 -4.73723 4.42143 0
M  V30 2174 N 221.715 -0.905404 -1.28997 0
M  V30 2175 C 222.955 -0.541232 -1.97104 0
M  V30 2176 C 223.319 0.896841 -1.69767 0
M  V30 2177 O 224.52 1.36817 -2.31375 0
M  V30 2178 C 222.791 -0.832134 -3.47578 0
M  V30 2179 S 224.35 -0.573127 -4.35041 0
M  V30 2180 H 221.168 -0.200576 -0.682122 0
M  V30 2181 H 223.77 -1.16906 -1.56694 0
M  V30 2182 H 222.474 -1.87687 -3.64968 0
M  V30 2183 H 222.005 -0.192636 -3.92928 0
M  V30 2184 H 224.02 0.579297 -4.92807 0
M  V30 2185 N 223.193 1.4272 -0.668489 0
M  V30 2186 C 224.609 1.55992 -0.33745 0
M  V30 2187 C 224.809 1.64933 1.15756 0
M  V30 2188 O 223.865 1.61278 1.94282 0
M  V30 2189 C 225.178 2.81314 -1.06222 0
M  V30 2190 C 226.726 2.95078 -1.04394 0
M  V30 2191 C 227.201 4.23252 -1.74991 0
M  V30 2192 N 228.692 4.3015 -1.71829 0
M  V30 2193 C 229.427 5.28127 -2.23315 0
M  V30 2194 N 228.923 6.32293 -2.83156 0
M  V30 2195 N 230.716 5.19882 -2.13726 0
M  V30 2196 H 222.867 1.3516 -1.63846 0
M  V30 2197 H 225.13 0.650174 -0.689912 0
M  V30 2198 H 224.836 2.80823 -2.11734 0
M  V30 2199 H 224.71 3.72012 -0.62344 0
M  V30 2200 H 227.097 2.951 0.0028244 0
M  V30 2201 H 227.178 2.05627 -1.52155 0
M  V30 2202 H 226.822 4.2399 -2.79633 0
M  V30 2203 H 226.752 5.11626 -1.24685 0
M  V30 2204 H 229.243 3.55499 -1.28175 0
M  V30 2205 H 229.556 7.03398 -3.20079 0
M  V30 2206 H 227.901 6.32873 -2.87223 0
M  V30 2207 H 231.092 4.37423 -1.66669 0
M  V30 2208 H 231.265 5.96077 -2.54158 0
M  V30 2209 N 224.671 0.411399 1.52136 0
M  V30 2210 C 225.581 -0.419774 2.30814 0
M  V30 2211 C 226.597 -1.0515 1.38634 0
M  V30 2212 O 227.773 -1.05252 1.71709 0
M  V30 2213 C 224.838 -1.52019 3.11594 0
M  V30 2214 C 223.899 -0.91129 4.19516 0
M  V30 2215 C 223.132 -1.95927 4.96436 0
M  V30 2216 O 223.355 -3.17775 4.73683 0
M  V30 2217 O 222.289 -1.56423 5.81219 0
M  V30 2218 H 226.115 0.221805 3.02889 0
M  V30 2219 H 223.7 0.174547 1.48377 0
M  V30 2220 H 225.582 -2.15898 3.61892 0
M  V30 2221 H 224.257 -2.14633 2.42311 0
M  V30 2222 H 223.164 -0.235157 3.7336 0
M  V30 2223 H 224.497 -0.32904 4.91099 0
M  V30 2224 N 226.149 -1.5696 0.141893 0
M  V30 2225 C 227.377 -2.00322 -0.517579 0
M  V30 2226 C 227.792 -1.02193 -1.58752 0
M  V30 2227 O 227.149 -0.0181619 -1.82491 0
M  V30 2228 C 227.2 -3.43618 -1.12289 0
M  V30 2229 O 226.921 -4.37995 -0.0956929 0
M  V30 2230 C 228.422 -4.02231 -1.86347 0
M  V30 2231 H 225.642 -0.657243 -0.135177 0
M  V30 2232 H 228.186 -2.03146 0.234973 0
M  V30 2233 H 226.341 -3.41662 -1.82609 0
M  V30 2234 H 226.755 -5.21729 -0.538469 0
M  V30 2235 H 228.229 -5.04509 -2.23997 0
M  V30 2236 H 228.706 -3.42655 -2.74744 0
M  V30 2237 H 229.312 -4.07802 -1.20737 0
M  V30 2238 N 227.627 0.131896 -1.57047 0
M  V30 2239 C 228.852 0.860418 -1.8871 0
M  V30 2240 C 229.277 1.73251 -0.73251 0
M  V30 2241 O 228.635 1.785 0.317429 0
M  V30 2242 C 228.683 1.68047 -3.19049 0
M  V30 2243 O 227.787 2.7862 -3.04047 0
M  V30 2244 H 227.128 0.238743 -0.619595 0
M  V30 2245 H 229.658 0.118169 -2.04258 0
M  V30 2246 H 229.668 2.07238 -3.51449 0
M  V30 2247 H 228.343 1.04018 -4.02682 0
M  V30 2248 H 226.92 2.42726 -2.83088 0
M  V30 2249 N 229.106 1.52395 0.401703 0
M  V30 2250 C 230.069 1.75636 1.47257 0
M  V30 2251 C 231.069 0.62628 1.48103 0
M  V30 2252 O 232.259 0.894227 1.49497 0
M  V30 2253 C 229.391 1.84553 2.86624 0
M  V30 2254 H 230.584 2.71241 1.27938 0
M  V30 2255 H 228.137 1.42923 0.632662 0
M  V30 2256 H 228.872 0.908882 3.11303 0
M  V30 2257 H 228.657 2.66715 2.87412 0
M  V30 2258 H 230.147 2.04251 3.64241 0
M  V30 2259 N 230.584 -0.659388 1.43143 0
M  V30 2260 C 231.517 -1.78425 1.42267 0
M  V30 2261 C 232.495 -1.60085 0.284894 0
M  V30 2262 O 233.679 -1.82351 0.477527 0
M  V30 2263 C 230.806 -3.15642 1.22833 0
M  V30 2264 C 229.852 -3.52698 2.39806 0
M  V30 2265 S 230.685 -3.53372 4.02353 0
M  V30 2266 C 231.841 -4.93256 3.85291 0
M  V30 2267 H 232.074 -1.78897 2.37452 0
M  V30 2268 H 229.607 -0.831469 1.301 0
M  V30 2269 H 231.565 -3.94838 1.12308 0
M  V30 2270 H 230.226 -3.12739 0.29207 0
M  V30 2271 H 229.419 -4.52475 2.21996 0
M  V30 2272 H 229.021 -2.80899 2.46925 0
M  V30 2273 H 231.313 -5.81751 3.47235 0
M  V30 2274 H 232.256 -5.16115 4.84799 0
M  V30 2275 H 232.664 -4.665 3.17865 0
M  V30 2276 N 232.062 -1.29571 -0.897171 0
M  V30 2277 C 233.308 -1.18873 -1.65048 0
M  V30 2278 C 233.663 0.256707 -1.9068 0
M  V30 2279 O 232.956 1.18202 -1.50794 0
M  V30 2280 C 233.15 -1.9382 -3.00281 0
M  V30 2281 C 232.979 -3.45503 -2.8785 0
M  V30 2282 C 231.749 -4.14856 -2.88483 0
M  V30 2283 C 233.947 -4.40956 -2.64693 0
M  V30 2284 N 231.929 -5.52886 -2.66815 0
M  V30 2285 C 233.3 -5.66464 -2.5203 0
M  V30 2286 C 235.355 -4.3069 -2.49821 0
M  V30 2287 C 234.058 -6.82871 -2.26008 0
M  V30 2288 C 236.084 -5.46852 -2.25182 0
M  V30 2289 C 235.446 -6.71333 -2.13286 0
M  V30 2290 H 231.545 -0.489998 -0.609447 0
M  V30 2291 H 234.129 -1.63431 -1.05822 0
M  V30 2292 H 232.3 -1.51671 -3.57562 0
M  V30 2293 H 234.032 -1.75366 -3.64731 0
M  V30 2294 H 230.787 -3.66579 -2.99861 0
M  V30 2295 H 231.211 -6.25487 -2.59027 0
M  V30 2296 H 235.853 -3.35141 -2.5776 0
M  V30 2297 H 233.571 -7.78473 -2.16806 0
M  V30 2298 H 237.157 -5.40809 -2.14515 0
M  V30 2299 H 236.037 -7.59701 -1.94485 0
M  V30 2300 N 233.54 1.10788 -1.12088 0
M  V30 2301 C 234.765 1.87002 -0.896949 0
M  V30 2302 C 235.19 1.79933 0.548261 0
M  V30 2303 O 234.548 1.16662 1.38779 0
M  V30 2304 C 234.596 3.3349 -1.37174 0
M  V30 2305 O 233.7 4.08745 -0.547831 0
M  V30 2306 H 233.041 0.580397 -0.322545 0
M  V30 2307 H 235.571 1.39996 -1.49206 0
M  V30 2308 H 235.581 3.84339 -1.36922 0
M  V30 2309 H 234.256 3.37951 -2.42408 0
M  V30 2310 H 232.833 3.6776 -0.617034 0
M  V30 2311 N 235.018 0.912232 1.28515 0
M  V30 2312 C 236.265 0.544599 1.95039 0
M  V30 2313 C 236.593 -0.911435 1.71823 0
M  V30 2314 O 235.848 -1.66317 1.03137 0
M  V30 2315 C 236.147 0.798392 3.48368 0
M  V30 2316 C 235.813 2.23374 3.91682 0
M  V30 2317 C 234.475 2.62617 4.03219 0
M  V30 2318 C 236.827 3.16786 4.13879 0
M  V30 2319 C 234.155 3.94429 4.3433 0
M  V30 2320 C 236.507 4.48161 4.46469 0
M  V30 2321 C 235.171 4.8726 4.56217 0
M  V30 2322 H 234.441 0.199283 0.7137 0
M  V30 2323 H 237.088 1.15327 1.52879 0
M  V30 2324 H 235.393 0.106908 3.91654 0
M  V30 2325 H 237.09 0.493141 3.97956 0
M  V30 2326 H 233.68 1.91922 3.83228 0
M  V30 2327 H 237.864 2.87677 4.0442 0
M  V30 2328 H 233.12 4.24426 4.40082 0
M  V30 2329 H 237.294 5.20559 4.62592 0
M  V30 2330 H 234.921 5.89431 4.80078 0
M  V30 2331 N 236.496 -1.42363 0.676048 0
M  V30 2332 C 237.406 -2.346 -0.00153389 0
M  V30 2333 C 238.422 -1.5516 -0.787485 0
M  V30 2334 O 239.598 -1.87723 -0.729521 0
M  V30 2335 C 236.663 -3.33705 -0.940298 0
M  V30 2336 C 235.724 -4.29042 -0.148739 0
M  V30 2337 C 234.957 -5.23413 -1.04279 0
M  V30 2338 O 235.18 -5.22749 -2.28232 0
M  V30 2339 O 234.114 -5.99795 -0.502925 0
M  V30 2340 H 237.94 -2.94082 0.758268 0
M  V30 2341 H 235.525 -1.42888 0.436289 0
M  V30 2342 H 237.407 -3.94586 -1.47917 0
M  V30 2343 H 236.082 -2.76695 -1.67993 0
M  V30 2344 H 234.989 -3.71571 0.43427 0
M  V30 2345 H 236.322 -4.89097 0.551805 0
M  V30 2346 N 237.974 -0.419461 -1.51915 0
M  V30 2347 C 239.204 0.151915 -2.06041 0
M  V30 2348 C 239.612 1.38539 -1.28855 0
M  V30 2349 O 238.955 1.80592 -0.336463 0
M  V30 2350 C 239.017 0.557119 -3.55157 0
M  V30 2351 C 238.681 -0.567054 -4.53468 0
M  V30 2352 C 239.678 -1.43379 -4.99738 0
M  V30 2353 C 237.363 -0.742693 -4.96779 0
M  V30 2354 C 239.357 -2.46102 -5.87973 0
M  V30 2355 C 237.044 -1.77322 -5.84808 0
M  V30 2356 C 238.042 -2.63078 -6.30301 0
M  V30 2357 O 237.73 -3.64364 -7.16585 0
M  V30 2358 H 237.462 0.0193293 -0.675724 0
M  V30 2359 H 240.016 -0.592073 -1.96682 0
M  V30 2360 H 238.246 1.35355 -3.62238 0
M  V30 2361 H 239.935 1.05759 -3.9188 0
M  V30 2362 H 240.701 -1.30954 -4.66986 0
M  V30 2363 H 236.58 -0.0848307 -4.60922 0
M  V30 2364 H 240.124 -3.13071 -6.23404 0
M  V30 2365 H 236.021 -1.89773 -6.16974 0
M  V30 2366 H 236.789 -3.60731 -7.34721 0
M  V30 2367 N 239.452 1.56882 -0.150215 0
M  V30 2368 C 240.729 1.87844 0.545327 0
M  V30 2369 C 241.109 1.0567 1.82749 0
M  V30 2370 O 240.457 0.144442 2.28043 0
M  V30 2371 C 240.667 3.39526 0.80767 0
M  V30 2372 C 242.015 4.08814 1.14703 0
M  V30 2373 O 243.039 3.44723 0.896917 0
M  V30 2374 O 241.898 5.22004 1.61784 0
M  V30 2375 H 238.992 0.778677 0.278553 0
M  V30 2376 H 241.538 1.68666 -0.187068 0
M  V30 2377 H 240.31 3.91173 -0.0996096 0
M  V30 2378 H 239.933 3.64243 1.59413 0
M  V30 2379 N 240.93 -0.123565 1.57115 0
M  V30 2380 C 242.346 -0.476961 1.52306 0
M  V30 2381 C 242.546 -1.82109 0.86248 0
M  V30 2382 O 241.602 -2.48586 0.442884 0
M  V30 2383 C 242.915 -0.465661 2.97073 0
M  V30 2384 C 244.463 -0.549534 3.08138 0
M  V30 2385 C 244.938 -0.568669 4.54456 0
M  V30 2386 N 246.429 -0.630237 4.58892 0
M  V30 2387 C 247.164 -0.666415 5.69514 0
M  V30 2388 N 246.66 -0.660514 6.89644 0
M  V30 2389 N 248.453 -0.709077 5.5761 0
M  V30 2390 H 240.604 0.757198 1.98445 0
M  V30 2391 H 242.867 0.278808 0.906074 0
M  V30 2392 H 242.573 0.454232 3.48754 0
M  V30 2393 H 242.447 -1.29513 3.54269 0
M  V30 2394 H 244.834 -1.45985 2.56461 0
M  V30 2395 H 244.915 0.307532 2.53945 0
M  V30 2396 H 244.559 0.337581 5.06777 0
M  V30 2397 H 244.489 -1.44256 5.06456 0
M  V30 2398 H 246.98 -0.641146 3.72421 0
M  V30 2399 H 247.293 -0.690616 7.69708 0
M  V30 2400 H 245.638 -0.628012 6.92157 0
M  V30 2401 H 248.829 -0.711019 4.62668 0
M  V30 2402 H 249.002 -0.733804 6.43832 0
M  V30 2403 N 242.408 -1.52605 -0.393616 0
M  V30 2404 C 243.685 -1.58001 -1.15304 0
M  V30 2405 C 244.065 -0.370385 -2.07825 0
M  V30 2406 O 243.413 0.641638 -2.19306 0
M  V30 2407 C 243.623 -2.91652 -1.91677 0
M  V30 2408 C 244.971 -3.4522 -2.47201 0
M  V30 2409 O 245.995 -2.93495 -2.01839 0
M  V30 2410 O 244.854 -4.35579 -3.3005 0
M  V30 2411 H 241.948 -0.637068 -0.527327 0
M  V30 2412 H 244.494 -1.64939 -0.399141 0
M  V30 2413 H 243.266 -3.71136 -1.23992 0
M  V30 2414 H 242.889 -2.88077 -2.74039 0
M  V30 2415 N 243.887 0.651787 -1.4349 0
M  V30 2416 C 245.135 1.40888 -1.44897 0
M  V30 2417 C 245.456 1.94856 -0.0749086 0
M  V30 2418 O 244.726 1.74518 0.889956 0
M  V30 2419 H 243.306 0.522887 -0.533478 0
M  V30 2420 H 245.968 0.768609 -1.79104 0
M  V30 2421 H 245.064 2.25052 -2.16236 0
M  V30 2422 N 245.365 1.30045 0.890287 0
M  V30 2423 C 246.642 1.09227 1.62262 0
M  V30 2424 C 247.022 -0.360305 2.08002 0
M  V30 2425 O 246.37 -1.35084 1.84295 0
M  V30 2426 C 246.58 2.08835 2.79623 0
M  V30 2427 C 247.928 2.40266 3.50082 0
M  V30 2428 O 248.952 2.07104 2.89804 0
M  V30 2429 O 247.811 2.96967 4.58773 0
M  V30 2430 H 244.905 0.419132 0.712922 0
M  V30 2431 H 247.451 1.41451 0.937529 0
M  V30 2432 H 246.223 3.06633 2.43089 0
M  V30 2433 H 245.846 1.77397 3.55832 0
M  V30 2434 N 246.843 -1.10192 1.12674 0
M  V30 2435 C 248.089 -1.82475 0.884915 0
M  V30 2436 C 248.422 -1.85093 -0.58773 0
M  V30 2437 O 247.697 -1.3134 -1.43457 0
M  V30 2438 C 247.98 -3.29018 1.46353 0
M  V30 2439 C 247.833 -3.34718 3.00473 0
M  V30 2440 C 249.152 -4.25473 1.12519 0
M  V30 2441 H 246.271 -0.662492 0.322915 0
M  V30 2442 H 248.913 -1.2913 1.39375 0
M  V30 2443 H 247.063 -3.74576 1.03077 0
M  V30 2444 H 248.735 -2.97622 3.52447 0
M  V30 2445 H 246.978 -2.74541 3.35872 0
M  V30 2446 H 247.649 -4.37918 3.36053 0
M  V30 2447 H 250.125 -3.88161 1.499 0
M  V30 2448 H 249.001 -5.26365 1.55663 0
M  V30 2449 H 249.262 -4.42084 0.0377407 0
M  V30 2450 N 248.321 -0.919034 -1.28029 0
M  V30 2451 C 249.549 -0.570971 -1.98866 0
M  V30 2452 C 249.964 0.848996 -1.68634 0
M  V30 2453 O 249.321 1.56307 -0.942036 0
M  V30 2454 C 249.372 -0.776876 -3.53054 0
M  V30 2455 O 249.093 -2.14097 -3.82222 0
M  V30 2456 C 250.594 -0.436356 -4.41147 0
M  V30 2457 H 247.814 -0.217175 -0.634883 0
M  V30 2458 H 250.358 -1.23368 -1.63097 0
M  V30 2459 H 248.513 -0.161085 -3.87065 0
M  V30 2460 H 248.927 -2.18455 -4.76841 0
M  V30 2461 H 250.401 -0.63117 -5.4838 0
M  V30 2462 H 250.878 0.627686 -4.34692 0
M  V30 2463 H 251.484 -1.02991 -4.12641 0
M  V30 2464 N 249.799 1.42003 -0.683588 0
M  V30 2465 C 251.024 2.06265 -0.216647 0
M  V30 2466 C 251.449 1.51059 1.12083 0
M  V30 2467 O 250.807 0.632638 1.69904 0
M  V30 2468 C 250.855 3.60191 -0.171759 0
M  V30 2469 O 249.959 4.03396 0.857069 0
M  V30 2470 H 249.3 0.65502 -0.108834 0
M  V30 2471 H 251.83 1.81982 -0.935077 0
M  V30 2472 H 251.84 4.08 0.0014303 0
M  V30 2473 H 250.515 3.99743 -1.14796 0
M  V30 2474 H 249.092 3.67117 0.654208 0
M  V30 2475 N 251.277 0.427512 1.51691 0
M  V30 2476 C 252.523 -0.142439 2.02299 0
M  V30 2477 C 252.856 -1.43214 1.31162 0
M  V30 2478 O 252.131 -1.89833 0.423511 0
M  V30 2479 C 252.414 -0.371301 3.58181 0
M  V30 2480 C 252.267 0.936358 4.39946 0
M  V30 2481 C 253.586 -1.14542 4.24933 0
M  V30 2482 H 250.705 -0.0502937 0.735282 0
M  V30 2483 H 253.347 0.564584 1.81418 0
M  V30 2484 H 251.497 -0.973559 3.76104 0
M  V30 2485 H 253.169 1.57184 4.33694 0
M  V30 2486 H 251.412 1.5432 4.05423 0
M  V30 2487 H 252.083 0.730388 5.47147 0
M  V30 2488 H 254.559 -0.635362 4.11221 0
M  V30 2489 H 253.435 -1.27431 5.33903 0
M  V30 2490 H 253.696 -2.17093 3.85127 0
M  V30 2491 N 252.755 -1.56801 0.158532 0
M  V30 2492 C 254.171 -1.5837 -0.197774 0
M  V30 2493 C 254.371 -1.17334 -1.63814 0
M  V30 2494 O 253.427 -0.878988 -2.36707 0
M  V30 2495 C 254.74 -3.00615 0.0714459 0
M  V30 2496 C 256.288 -3.12999 0.00864533 0
M  V30 2497 C 256.763 -4.57313 0.250685 0
M  V30 2498 N 258.254 -4.62777 0.198014 0
M  V30 2499 C 258.989 -5.72271 0.359642 0
M  V30 2500 N 258.485 -6.90371 0.579625 0
M  V30 2501 N 260.278 -5.61318 0.296438 0
M  V30 2502 H 252.429 -1.81765 1.09887 0
M  V30 2503 H 254.692 -0.841849 0.435884 0
M  V30 2504 H 254.398 -3.35068 1.06874 0
M  V30 2505 H 254.272 -3.71683 -0.642757 0
M  V30 2506 H 256.659 -2.7838 -0.979217 0
M  V30 2507 H 256.74 -2.44393 0.755359 0
M  V30 2508 H 256.384 -4.92639 1.2357 0
M  V30 2509 H 256.314 -5.24061 -0.516489 0
M  V30 2510 H 258.805 -3.77885 0.0331115 0
M  V30 2511 H 259.118 -7.69689 0.69275 0
M  V30 2512 H 257.463 -6.92264 0.616087 0
M  V30 2513 H 260.654 -4.67932 0.125258 0
M  V30 2514 H 260.827 -6.46599 0.425831 0
M  V30 2515 N 254.233 0.115231 -1.57178 0
M  V30 2516 C 255.649 0.468877 -1.52557 0
M  V30 2517 C 255.849 1.81649 -0.872125 0
M  V30 2518 O 254.905 2.48347 -0.45606 0
M  V30 2519 C 256.218 0.4499 -2.97315 0
M  V30 2520 C 257.766 0.533185 -3.08425 0
M  V30 2521 C 258.241 0.54456 -4.54751 0
M  V30 2522 N 259.732 0.605892 -4.5922 0
M  V30 2523 C 260.467 0.636203 -5.6986 0
M  V30 2524 N 259.963 0.623931 -6.89985 0
M  V30 2525 N 261.756 0.679496 -5.57978 0
M  V30 2526 H 253.907 -0.767712 -1.9804 0
M  V30 2527 H 256.17 -0.283609 -0.904583 0
M  V30 2528 H 255.876 -0.472721 -3.48509 0
M  V30 2529 H 255.75 1.27632 -3.5495 0
M  V30 2530 H 258.137 1.44623 -2.57232 0
M  V30 2531 H 258.218 -0.320995 -2.53778 0
M  V30 2532 H 257.862 -0.364452 -5.06591 0
M  V30 2533 H 257.792 1.41568 -5.07214 0
M  V30 2534 H 260.283 0.621386 -3.72756 0
M  V30 2535 H 260.596 0.649787 -7.70063 0
M  V30 2536 H 258.941 0.591296 -6.9248 0
M  V30 2537 H 262.132 0.686472 -4.63039 0
M  V30 2538 H 262.305 0.69965 -6.44212 0
M  V30 2539 N 255.711 1.52812 0.385517 0
M  V30 2540 C 256.674 1.77188 1.45386 0
M  V30 2541 C 257.674 0.641953 1.4743 0
M  V30 2542 O 258.864 0.910033 1.4854 0
M  V30 2543 C 255.996 1.87582 2.8465 0
M  V30 2544 H 257.189 2.72583 1.25054 0
M  V30 2545 H 254.742 1.43586 0.617467 0
M  V30 2546 H 255.477 0.941849 3.10322 0
M  V30 2547 H 255.262 2.69748 2.84567 0
M  V30 2548 H 256.752 2.08102 3.62054 0
M  V30 2549 N 257.189 -0.644168 1.43834 0
M  V30 2550 C 258.119 -1.76814 1.52509 0
M  V30 2551 C 259.1 -1.65823 0.379052 0
M  V30 2552 O 260.285 -1.84781 0.597466 0
M  V30 2553 C 257.415 -3.15288 1.4564 0
M  V30 2554 C 256.369 -3.41053 2.58586 0
M  V30 2555 C 255.695 -4.79421 2.36769 0
M  V30 2556 C 256.995 -3.34902 4.00797 0
M  V30 2557 H 258.689 -1.69812 2.46586 0
M  V30 2558 H 256.235 -0.815542 1.1868 0
M  V30 2559 H 258.188 -3.93681 1.50311 0
M  V30 2560 H 256.912 -3.23043 0.480725 0
M  V30 2561 H 255.571 -2.65035 2.53282 0
M  V30 2562 H 255.219 -4.83863 1.37424 0
M  V30 2563 H 254.919 -4.9762 3.12487 0
M  V30 2564 H 256.443 -5.6006 2.43238 0
M  V30 2565 H 257.857 -4.03218 4.07539 0
M  V30 2566 H 256.254 -3.64637 4.76613 0
M  V30 2567 H 257.324 -2.32928 4.25291 0
M  V30 2568 N 258.668 -1.30515 -0.883378 0
M  V30 2569 C 259.915 -1.1943 -1.63532 0
M  V30 2570 C 260.243 0.250627 -1.92878 0
M  V30 2571 O 259.498 1.19556 -1.54935 0
M  V30 2572 C 259.797 -1.96994 -2.98209 0
M  V30 2573 C 259.463 -3.466 -2.88408 0
M  V30 2574 C 258.125 -3.87397 -2.85442 0
M  V30 2575 C 260.477 -4.41863 -2.76418 0
M  V30 2576 C 257.805 -5.21745 -2.68327 0
M  V30 2577 C 260.157 -5.7632 -2.60841 0
M  V30 2578 C 258.821 -6.16354 -2.56251 0
M  V30 2579 H 258.091 -0.437025 -0.598406 0
M  V30 2580 H 260.738 -1.61635 -1.02696 0
M  V30 2581 H 259.043 -1.47429 -3.63004 0
M  V30 2582 H 260.74 -1.85808 -3.55354 0
M  V30 2583 H 257.33 -3.14182 -2.91527 0
M  V30 2584 H 261.514 -4.11285 -2.77775 0
M  V30 2585 H 256.77 -5.51853 -2.63189 0
M  V30 2586 H 260.944 -6.49772 -2.50538 0
M  V30 2587 H 258.571 -7.20401 -2.42748 0
M  V30 2588 N 260.146 1.09593 -1.13257 0
M  V30 2589 C 261.374 1.855 -0.916378 0
M  V30 2590 C 261.789 1.81069 0.534738 0
M  V30 2591 O 261.146 1.20562 1.37007 0
M  V30 2592 C 261.197 3.33546 -1.39388 0
M  V30 2593 O 260.918 3.37927 -2.78813 0
M  V30 2594 C 262.419 4.26299 -1.21588 0
M  V30 2595 H 259.639 0.585991 -0.326887 0
M  V30 2596 H 262.183 1.38488 -1.5047 0
M  V30 2597 H 260.338 3.77992 -0.848597 0
M  V30 2598 H 260.752 4.30254 -2.9997 0
M  V30 2599 H 262.226 5.28341 -1.59876 0
M  V30 2600 H 262.703 4.38918 -0.157376 0
M  V30 2601 H 263.309 3.87668 -1.7491 0
M  V30 2602 N 261.624 0.925811 1.2754 0
M  V30 2603 C 262.872 0.564138 1.94067 0
M  V30 2604 C 263.193 -0.897188 1.73134 0
M  V30 2605 O 262.463 -1.63573 1.07799 0
M  V30 2606 H 261.043 0.205645 0.718136 0
M  V30 2607 H 263.705 1.1778 1.55287 0
M  V30 2608 H 262.801 0.76881 3.02483 0
M  V30 2609 N 263.102 -1.41638 0.69111 0
M  V30 2610 C 264.35 -2.00902 0.219758 0
M  V30 2611 C 264.671 -1.54994 -1.18329 0
M  V30 2612 O 263.941 -0.778628 -1.79762 0
M  V30 2613 H 262.521 -0.74289 0.0782558 0
M  V30 2614 H 265.183 -1.73327 0.891271 0
M  V30 2615 H 264.279 -3.11224 0.233708 0
M  V30 2616 N 264.58 -0.43555 -1.51462 0
M  V30 2617 C 265.805 0.132627 -2.06976 0
M  V30 2618 C 266.23 1.35848 -1.30104 0
M  V30 2619 O 265.588 1.78112 -0.338493 0
M  V30 2620 C 265.636 0.43523 -3.57964 0
M  V30 2621 O 264.74 1.52198 -3.83288 0
M  V30 2622 H 264.081 0.00265 -0.663995 0
M  V30 2623 H 266.611 -0.616369 -1.95095 0
M  V30 2624 H 266.621 0.686206 -4.02188 0
M  V30 2625 H 265.296 -0.460739 -4.1334 0
M  V30 2626 H 263.873 1.2611 -3.50928 0
M  V30 2627 N 266.058 1.56714 -0.166846 0
M  V30 2628 C 267.335 1.88412 0.525373 0
M  V30 2629 C 267.715 1.07602 1.81618 0
M  V30 2630 O 267.063 0.168621 2.27877 0
M  V30 2631 C 267.273 3.40363 0.771613 0
M  V30 2632 C 268.621 4.10007 1.1036 0
M  V30 2633 O 269.645 3.45655 0.860304 0
M  V30 2634 O 268.504 5.2369 1.56239 0
M  V30 2635 H 265.598 0.781587 0.270278 0
M  V30 2636 H 268.144 1.68458 -0.204946 0
M  V30 2637 H 266.916 3.91046 -0.141093 0
M  V30 2638 H 266.539 3.65914 1.55541 0
M  V30 2639 N 267.536 -0.106894 1.57237 0
M  V30 2640 C 268.947 -0.662723 1.74542 0
M  V30 2641 C 269.298 -1.7971 0.787319 0
M  V30 2642 O 268.423 -2.16368 -0.0369636 0
M  V30 2643 C 269.018 -1.20896 3.16496 0
M  V30 2644 C 267.577 -1.71096 3.35266 0
M  V30 2645 C 266.724 -0.615642 2.7038 0
M  V30 2646 H 269.675 0.119106 1.58252 0
M  V30 2647 H 269.696 -2.07847 3.18716 0
M  V30 2648 H 269.208 -0.383122 3.86204 0
M  V30 2649 H 267.309 -2.56119 2.70618 0
M  V30 2650 H 267.422 -1.81208 4.43509 0
M  V30 2651 H 265.786 -1.05222 2.31949 0
M  V30 2652 H 266.569 0.199419 3.4272 0
M  V30 2653 N 269.014 -1.53014 -0.377408 0
M  V30 2654 C 270.239 -1.72818 -1.14668 0
M  V30 2655 C 270.664 -0.450725 -1.8262 0
M  V30 2656 O 270.022 0.59439 -1.7128 0
M  V30 2657 C 270.07 -2.88627 -2.16164 0
M  V30 2658 O 269.174 -2.56409 -3.22998 0
M  V30 2659 H 268.515 -0.574301 -0.333278 0
M  V30 2660 H 271.045 -1.99853 -0.438152 0
M  V30 2661 H 271.055 -3.14455 -2.59966 0
M  V30 2662 H 269.73 -3.81294 -1.66095 0
M  V30 2663 H 268.307 -2.4136 -2.84253 0
M  V30 2664 N 270.492 0.636531 -1.44174 0
M  V30 2665 C 271.769 1.39463 -1.37148 0
M  V30 2666 C 272.149 2.11082 -0.027507 0
M  V30 2667 O 271.497 2.05954 0.989716 0
M  V30 2668 C 271.707 2.36552 -2.56601 0
M  V30 2669 C 273.055 3.00048 -3.00427 0
M  V30 2670 O 274.079 2.46878 -2.56767 0
M  V30 2671 O 272.938 3.96488 -3.76111 0
M  V30 2672 H 270.032 0.623903 -0.542839 0
M  V30 2673 H 272.578 0.662039 -1.56253 0
M  V30 2674 H 271.35 1.82692 -3.46034 0
M  V30 2675 H 270.973 3.17236 -2.39681 0
M  V30 2676 N 271.97 1.30982 0.876444 0
M  V30 2677 C 273.195 1.23373 1.66715 0
M  V30 2678 C 273.62 -0.19885 1.87046 0
M  V30 2679 O 272.978 -1.1427 1.40756 0
M  V30 2680 C 273.026 1.97644 3.01611 0
M  V30 2681 O 272.13 1.30935 3.91062 0
M  V30 2682 H 271.471 0.426279 0.509099 0
M  V30 2683 H 274.001 1.72944 1.09323 0
M  V30 2684 H 274.011 2.06992 3.51594 0
M  V30 2685 H 272.686 3.01829 2.86133 0
M  V30 2686 H 271.263 1.29996 3.49507 0
M  V30 2687 N 273.449 -1.08991 1.13837 0
M  V30 2688 C 274.695 -1.81526 0.90422 0
M  V30 2689 C 275.028 -1.85706 -0.568066 0
M  V30 2690 O 274.303 -1.32855 -1.42056 0
M  V30 2691 C 274.586 -3.27447 1.49835 0
M  V30 2692 C 274.439 -3.31512 3.04006 0
M  V30 2693 C 275.758 -4.24256 1.17025 0
M  V30 2694 H 272.877 -0.659029 0.329923 0
M  V30 2695 H 275.519 -1.27644 1.40737 0
M  V30 2696 H 273.669 -3.73462 1.07044 0
M  V30 2697 H 275.341 -2.93867 3.55584 0
M  V30 2698 H 273.584 -2.70963 3.38765 0
M  V30 2699 H 274.255 -4.34329 3.40679 0
M  V30 2700 H 276.731 -3.86549 1.54009 0
M  V30 2701 H 275.607 -5.24684 1.61237 0
M  V30 2702 H 275.868 -4.42019 0.0846274 0
M  V30 2703 N 274.927 -0.932562 -1.27047 0
M  V30 2704 C 276.152 -0.591474 -1.98787 0
M  V30 2705 C 276.577 0.824601 -1.69062 0
M  V30 2706 O 275.935 1.5541 -0.933677 0
M  V30 2707 C 275.983 -0.829808 -3.50922 0
M  V30 2708 O 275.087 0.102266 -4.12273 0
M  V30 2709 H 274.428 -0.227185 -0.623926 0
M  V30 2710 H 276.958 -1.25314 -1.61733 0
M  V30 2711 H 276.968 -0.747292 -4.01098 0
M  V30 2712 H 275.643 -1.86201 -3.7189 0
M  V30 2713 H 274.22 -0.0305761 -3.72887 0
M  V30 2714 N 276.405 1.4127 -0.698611 0
M  V30 2715 C 277.653 2.00782 -0.230409 0
M  V30 2716 C 277.974 1.5562 1.17505 0
M  V30 2717 O 277.244 0.78815 1.79346 0
M  V30 2718 H 275.824 0.742464 -0.0821944 0
M  V30 2719 H 278.486 1.72852 -0.90045 0
M  V30 2720 H 277.582 3.11095 -0.25021 0
M  V30 2721 N 277.883 0.443576 1.51229 0
M  V30 2722 C 279.129 -0.120975 2.02439 0
M  V30 2723 C 279.462 -1.41815 1.32674 0
M  V30 2724 O 278.737 -1.89373 0.443622 0
M  V30 2725 C 279.02 -0.333291 3.58554 0
M  V30 2726 C 278.873 0.982968 4.38928 0
M  V30 2727 C 280.192 -1.10028 4.26124 0
M  V30 2728 H 277.311 -0.0424923 0.735774 0
M  V30 2729 H 279.953 0.583794 1.80809 0
M  V30 2730 H 278.103 -0.933614 3.77115 0
M  V30 2731 H 279.775 1.61775 4.32003 0
M  V30 2732 H 278.018 1.58611 4.03763 0
M  V30 2733 H 278.689 0.788379 5.46341 0
M  V30 2734 H 281.165 -0.591711 4.11871 0
M  V30 2735 H 280.041 -1.21761 5.35225 0
M  V30 2736 H 280.302 -2.12996 3.87408 0
M  V30 2737 N 279.361 -1.56624 0.175154 0
M  V30 2738 C 280.777 -1.58571 -0.180966 0
M  V30 2739 C 280.977 -1.19065 -1.6256 0
M  V30 2740 O 280.033 -0.904044 -2.35761 0
M  V30 2741 C 281.346 -3.00522 0.103326 0
M  V30 2742 C 282.894 -3.12972 0.0418426 0
M  V30 2743 C 283.369 -4.57022 0.299175 0
M  V30 2744 N 284.86 -4.62541 0.247086 0
M  V30 2745 C 285.595 -5.71857 0.420318 0
M  V30 2746 N 285.091 -6.89717 0.652816 0
M  V30 2747 N 286.884 -5.60972 0.355957 0
M  V30 2748 H 279.035 -1.80589 1.11809 0
M  V30 2749 H 281.298 -0.837178 0.444788 0
M  V30 2750 H 281.004 -3.33916 1.10422 0
M  V30 2751 H 280.878 -3.72344 -0.603299 0
M  V30 2752 H 283.265 -2.79403 -0.949636 0
M  V30 2753 H 283.346 -2.43578 0.781238 0
M  V30 2754 H 282.99 -4.913 1.28788 0
M  V30 2755 H 282.92 -5.24579 -0.460876 0
M  V30 2756 H 285.411 -3.77829 0.0731895 0
M  V30 2757 H 285.724 -7.68911 0.774347 0
M  V30 2758 H 284.069 -6.91572 0.689476 0
M  V30 2759 H 287.26 -4.67773 0.174882 0
M  V30 2760 H 287.433 -6.46111 0.494388 0
M  V30 2761 N 280.839 0.0985539 -1.57292 0
M  V30 2762 C 282.087 0.801092 -1.85545 0
M  V30 2763 C 282.408 1.79438 -0.763353 0
M  V30 2764 O 281.678 1.94763 0.21073 0
M  V30 2765 H 280.258 0.29884 -0.684619 0
M  V30 2766 H 282.92 0.0810064 -1.94732 0
M  V30 2767 H 282.016 1.3338 -2.82163 0
M  V30 2768 N 282.317 1.53212 0.369288 0
M  V30 2769 C 283.565 1.68881 1.11012 0
M  V30 2770 C 283.886 0.441285 1.89941 0
M  V30 2771 O 283.156 -0.544623 1.88177 0
M  V30 2772 H 281.736 0.622569 0.412816 0
M  V30 2773 H 284.398 1.90391 0.416802 0
M  V30 2774 H 283.494 2.54822 1.80201 0
M  V30 2775 N 283.795 -0.628877 1.44509 0
M  V30 2776 C 285.211 -0.947305 1.28446 0
M  V30 2777 C 285.411 -2.00275 0.221872 0
M  V30 2778 O 284.467 -2.49447 -0.391471 0
M  V30 2779 C 285.78 -1.40843 2.65676 0
M  V30 2780 C 287.328 -1.52379 2.73404 0
M  V30 2781 C 287.803 -2.01875 4.11109 0
M  V30 2782 N 289.294 -2.09142 4.13296 0
M  V30 2783 C 290.029 -2.48615 5.16699 0
M  V30 2784 N 289.525 -2.87209 6.30462 0
M  V30 2785 N 291.318 -2.48768 5.04054 0
M  V30 2786 H 283.469 0.0690977 2.12288 0
M  V30 2787 H 285.732 -0.0317164 0.947469 0
M  V30 2788 H 285.438 -0.707206 3.44516 0
M  V30 2789 H 285.312 -2.37902 2.92716 0
M  V30 2790 H 287.699 -2.21598 1.9488 0
M  V30 2791 H 287.78 -0.536898 2.50102 0
M  V30 2792 H 287.424 -1.3325 4.90109 0
M  V30 2793 H 287.354 -3.0144 4.31789 0
M  V30 2794 H 289.845 -1.81991 3.31191 0
M  V30 2795 H 290.158 -3.16149 7.05174 0
M  V30 2796 H 288.503 -2.84955 6.33897 0
M  V30 2797 H 291.694 -2.18009 4.14234 0
M  V30 2798 H 291.867 -2.79207 5.84763 0
M  V30 2799 N 285.273 -1.31445 -0.869486 0
M  V30 2800 C 286.22 -1.19135 -1.97675 0
M  V30 2801 C 287.19 -0.0770266 -1.65921 0
M  V30 2802 O 288.375 -0.249972 -1.89155 0
M  V30 2803 C 285.515 -0.905149 -3.33018 0
M  V30 2804 C 284.628 -2.10285 -3.77365 0
M  V30 2805 C 283.763 -1.75339 -5.01427 0
M  V30 2806 C 282.802 -2.91515 -5.38224 0
M  V30 2807 N 281.939 -2.56762 -6.53466 0
M  V30 2808 H 286.779 -2.13853 -2.07535 0
M  V30 2809 H 284.316 -1.06379 -1.01597 0
M  V30 2810 H 286.274 -0.719765 -4.10944 0
M  V30 2811 H 284.904 0.00519624 -3.228 0
M  V30 2812 H 283.956 -2.39899 -2.95216 0
M  V30 2813 H 285.268 -2.97237 -4.00564 0
M  V30 2814 H 284.422 -1.53266 -5.87022 0
M  V30 2815 H 283.161 -0.855801 -4.80133 0
M  V30 2816 H 282.166 -3.14237 -4.51149 0
M  V30 2817 H 283.391 -3.81985 -5.61484 0
M  V30 2818 H 281.337 -1.69526 -6.33717 0
M  V30 2819 H 281.254 -3.37243 -6.76612 0
M  V30 2820 H 282.522 -2.38083 -7.42251 0
M  V30 2821 N 286.751 1.08385 -1.14413 0
M  V30 2822 C 288.167 1.32844 -0.884563 0
M  V30 2823 C 288.367 1.95841 0.474181 0
M  V30 2824 O 287.423 2.21158 1.21842 0
M  V30 2825 C 288.736 2.22978 -2.01745 0
M  V30 2826 C 290.284 2.36458 -2.05077 0
M  V30 2827 C 290.759 3.29934 -3.1766 0
M  V30 2828 N 292.25 3.37511 -3.17239 0
M  V30 2829 C 292.985 4.09871 -4.0099 0
M  V30 2830 N 292.481 4.84936 -4.94781 0
M  V30 2831 N 294.274 4.05704 -3.89051 0
M  V30 2832 H 286.425 0.658756 -2.01926 0
M  V30 2833 H 288.688 0.352821 -0.879899 0
M  V30 2834 H 288.394 1.83934 -2.99769 0
M  V30 2835 H 288.268 3.23441 -1.94077 0
M  V30 2836 H 290.655 2.7476 -1.0766 0
M  V30 2837 H 290.736 1.35736 -2.16816 0
M  V30 2838 H 290.38 2.92352 -4.15322 0
M  V30 2839 H 290.31 4.30584 -3.03158 0
M  V30 2840 H 292.801 2.83996 -2.49308 0
M  V30 2841 H 293.114 5.37612 -5.55151 0
M  V30 2842 H 291.459 4.83988 -4.98779 0
M  V30 2843 H 294.65 3.46167 -3.15097 0
M  V30 2844 H 294.823 4.61834 -4.54547 0
M  V30 2845 N 288.23 0.939286 1.26551 0
M  V30 2846 C 289.641 0.628782 1.75793 0
M  V30 2847 C 289.992 -0.856046 1.7654 0
M  V30 2848 O 289.117 -1.66994 1.3763 0
M  V30 2849 C 289.712 1.13465 3.19235 0
M  V30 2850 C 288.271 0.874601 3.66098 0
M  V30 2851 C 287.418 1.28667 2.45642 0
M  V30 2852 H 290.369 1.1178 1.12654 0
M  V30 2853 H 290.39 0.487609 3.77363 0
M  V30 2854 H 289.902 2.21535 3.1866 0
M  V30 2855 H 288.003 -0.191793 3.72106 0
M  V30 2856 H 288.116 1.50028 4.55004 0
M  V30 2857 H 286.48 0.705109 2.44745 0
M  V30 2858 H 287.263 2.37625 2.47769 0
M  V30 2859 N 289.708 -1.40897 0.706093 0
M  V30 2860 C 290.638 -2.33418 0.0620085 0
M  V30 2861 C 291.619 -1.52385 -0.755827 0
M  V30 2862 O 292.804 -1.80886 -0.706674 0
M  V30 2863 C 289.934 -3.36293 -0.867445 0
M  V30 2864 C 288.888 -4.27716 -0.155932 0
M  V30 2865 C 288.214 -5.2105 -1.20046 0
M  V30 2866 C 289.514 -5.12944 0.984149 0
M  V30 2867 H 291.208 -2.87527 0.83477 0
M  V30 2868 H 288.754 -1.38249 0.402875 0
M  V30 2869 H 290.707 -3.99949 -1.32735 0
M  V30 2870 H 289.431 -2.80556 -1.67199 0
M  V30 2871 H 288.09 -3.65498 0.284047 0
M  V30 2872 H 287.738 -4.61624 -1.99781 0
M  V30 2873 H 287.438 -5.83056 -0.729328 0
M  V30 2874 H 288.962 -5.87584 -1.66066 0
M  V30 2875 H 290.376 -5.70109 0.604048 0
M  V30 2876 H 288.773 -5.83945 1.38304 0
M  V30 2877 H 289.843 -4.49485 1.81911 0
M  V30 2878 N 291.186 -0.45159 -1.50991 0
M  V30 2879 C 292.602 -0.104647 -1.59257 0
M  V30 2880 C 292.802 1.38728 -1.4614 0
M  V30 2881 O 291.858 2.15866 -1.30989 0
M  V30 2882 C 293.171 -0.637468 -2.93865 0
M  V30 2883 C 294.719 -0.599166 -3.07212 0
M  V30 2884 C 295.194 -1.1092 -4.44366 0
M  V30 2885 N 296.685 -1.06778 -4.50725 0
M  V30 2886 C 297.42 -1.43314 -5.55201 0
M  V30 2887 N 296.916 -1.87204 -6.67028 0
M  V30 2888 N 298.709 -1.3504 -5.45638 0
M  V30 2889 H 290.86 -1.42214 -1.57762 0
M  V30 2890 H 293.123 -0.586921 -0.744465 0
M  V30 2891 H 292.829 -1.68187 -3.08879 0
M  V30 2892 H 292.703 -0.0702139 -3.77135 0
M  V30 2893 H 295.09 0.436277 -2.91857 0
M  V30 2894 H 295.171 -1.20299 -2.25747 0
M  V30 2895 H 294.815 -2.14318 -4.60467 0
M  V30 2896 H 294.745 -0.481773 -5.24392 0
M  V30 2897 H 297.236 -0.745643 -3.70471 0
M  V30 2898 H 297.549 -2.13282 -7.42786 0
M  V30 2899 H 295.894 -1.91142 -6.68199 0
M  V30 2900 H 299.085 -1.00607 -4.57161 0
M  V30 2901 H 299.258 -1.63841 -6.26945 0
M  V30 2902 N 292.664 1.56529 -0.183458 0
M  V30 2903 C 294.075 1.83739 0.331177 0
M  V30 2904 C 294.426 1.10373 1.62211 0
M  V30 2905 O 293.551 0.36071 2.13373 0
M  V30 2906 C 294.146 3.33306 0.607646 0
M  V30 2907 C 292.705 3.60969 1.06668 0
M  V30 2908 C 291.852 2.77086 0.109029 0
M  V30 2909 H 294.803 1.53379 -0.407484 0
M  V30 2910 H 294.824 3.51444 1.45832 0
M  V30 2911 H 294.336 3.86677 -0.332086 0
M  V30 2912 H 292.437 3.13021 2.0211 0
M  V30 2913 H 292.55 4.69231 0.967447 0
M  V30 2914 H 290.914 2.47319 0.608714 0
M  V30 2915 H 291.697 3.33241 -0.82494 0
M  V30 2916 N 294.142 -0.090211 1.57342 0
M  V30 2917 C 295.553 -0.644173 1.75235 0
M  V30 2918 C 295.904 -1.78865 0.806335 0
M  V30 2919 O 295.029 -2.16395 -0.0140128 0
M  V30 2920 C 295.624 -1.17532 3.1776 0
M  V30 2921 C 294.183 -1.67531 3.37061 0
M  V30 2922 C 293.33 -0.58693 2.71017 0
M  V30 2923 H 296.281 0.135884 1.58117 0
M  V30 2924 H 296.302 -2.04455 3.20902 0
M  V30 2925 H 295.814 -0.342138 3.86589 0
M  V30 2926 H 293.915 -2.53234 2.73319 0
M  V30 2927 H 294.028 -1.76493 4.45406 0
M  V30 2928 H 292.392 -1.02756 2.33052 0
M  V30 2929 H 293.175 0.235758 3.4249 0
M  V30 2930 N 295.62 -1.53406 -0.361157 0
M  V30 2931 C 296.55 -1.83136 -1.44857 0
M  V30 2932 C 297.531 -0.685174 -1.5569 0
M  V30 2933 O 298.716 -0.93544 -1.70186 0
M  V30 2934 C 295.846 -2.02522 -2.82138 0
M  V30 2935 C 294.8 -3.18302 -2.86126 0
M  V30 2936 C 294.126 -3.22989 -4.26125 0
M  V30 2937 C 295.426 -4.56796 -2.53248 0
M  V30 2938 H 297.12 -2.74201 -1.20226 0
M  V30 2939 H 294.666 -1.31938 -0.576922 0
M  V30 2940 H 296.619 -2.21904 -3.58241 0
M  V30 2941 H 295.343 -1.08172 -3.08166 0
M  V30 2942 H 294.002 -2.98747 -2.12475 0
M  V30 2943 H 293.65 -2.26267 -4.49235 0
M  V30 2944 H 293.35 -4.00781 -4.29708 0
M  V30 2945 H 294.874 -3.44559 -5.04094 0
M  V30 2946 H 296.288 -4.7631 -3.19064 0
M  V30 2947 H 294.685 -5.36862 -2.68141 0
M  V30 2948 H 295.755 -4.61606 -1.48484 0
M  V30 2949 N 297.098 0.621204 -1.44841 0
M  V30 2950 C 298.344 1.3826 -1.48365 0
M  V30 2951 C 298.677 1.93831 -0.119624 0
M  V30 2952 O 297.952 1.74251 0.864111 0
M  V30 2953 C 298.235 2.54058 -2.55199 0
M  V30 2954 C 298.088 2.03772 -4.00995 0
M  V30 2955 C 299.407 3.56225 -2.58442 0
M  V30 2956 H 296.526 0.501374 -0.540179 0
M  V30 2957 H 299.168 0.7015 -1.76576 0
M  V30 2958 H 297.318 3.12162 -2.31274 0
M  V30 2959 H 298.99 1.50423 -4.36086 0
M  V30 2960 H 297.233 1.34876 -4.12299 0
M  V30 2961 H 297.904 2.87185 -4.71411 0
M  V30 2962 H 300.38 3.07939 -2.79844 0
M  V30 2963 H 299.256 4.34756 -3.3508 0
M  V30 2964 H 299.517 4.10949 -1.63013 0
M  V30 2965 N 298.576 1.31904 0.862503 0
M  V30 2966 C 299.801 1.25135 1.65397 0
M  V30 2967 C 300.226 -0.179 1.87246 0
M  V30 2968 O 299.584 -1.1277 1.4196 0
M  V30 2969 C 299.632 2.00832 2.99498 0
M  V30 2970 O 298.736 1.35075 3.89652 0
M  V30 2971 H 298.077 0.431655 0.504549 0
M  V30 2972 H 300.607 1.74094 1.07483 0
M  V30 2973 H 300.617 2.10709 3.49379 0
M  V30 2974 H 299.292 3.04847 2.82916 0
M  V30 2975 H 297.869 1.33696 3.48109 0
M  V30 2976 N 300.054 -1.07777 1.14986 0
M  V30 2977 C 300.984 -2.16865 0.865557 0
M  V30 2978 C 301.965 -1.69123 -0.182083 0
M  V30 2979 O 303.15 -1.94164 -0.0373815 0
M  V30 2980 C 300.28 -3.45539 0.349313 0
M  V30 2981 C 299.234 -4.06708 1.33313 0
M  V30 2982 C 298.56 -5.30411 0.675918 0
M  V30 2983 C 299.86 -4.47241 2.69764 0
M  V30 2984 H 301.554 -2.40905 1.77778 0
M  V30 2985 H 299.1 -1.15781 0.856203 0
M  V30 2986 H 301.053 -4.21174 0.137983 0
M  V30 2987 H 299.777 -3.21072 -0.598362 0
M  V30 2988 H 298.436 -3.33112 1.53075 0
M  V30 2989 H 298.084 -5.02232 -0.277767 0
M  V30 2990 H 297.784 -5.72293 1.33244 0
M  V30 2991 H 299.308 -6.08755 0.474262 0
M  V30 2992 H 300.722 -5.14025 2.53873 0
M  V30 2993 H 299.119 -5.00062 3.3175 0
M  V30 2994 H 300.189 -3.58818 3.26156 0
M  V30 2995 N 301.532 -0.945985 -1.26051 0
M  V30 2996 C 302.495 -0.463897 -2.24456 0
M  V30 2997 C 303.495 0.427655 -1.55009 0
M  V30 2998 O 304.685 0.226157 -1.72726 0
M  V30 2999 C 301.817 0.330812 -3.39291 0
M  V30 3000 H 303.01 -1.33357 -2.68619 0
M  V30 3001 H 300.563 -0.728416 -1.38289 0
M  V30 3002 H 301.298 1.21852 -3.00537 0
M  V30 3003 H 301.083 -0.308679 -3.90883 0
M  V30 3004 H 302.573 0.657865 -4.12386 0
M  V30 3005 N 303.011 1.40521 -0.713556 0
M  V30 3006 C 304.427 1.54839 -0.386907 0
M  V30 3007 C 304.627 1.68532 1.1045 0
M  V30 3008 O 303.683 1.67377 1.89053 0
M  V30 3009 C 304.996 2.77792 -1.15118 0
M  V30 3010 C 306.544 2.91607 -1.13729 0
M  V30 3011 C 307.019 4.1747 -1.88368 0
M  V30 3012 N 308.51 4.24466 -1.85427 0
M  V30 3013 C 309.245 5.20755 -2.40004 0
M  V30 3014 N 308.741 6.22965 -3.03129 0
M  V30 3015 N 310.534 5.1282 -2.30158 0
M  V30 3016 H 302.685 1.29879 -1.68063 0
M  V30 3017 H 304.948 0.627896 -0.710247 0
M  V30 3018 H 304.654 2.73944 -2.20561 0
M  V30 3019 H 304.528 3.6984 -0.741477 0
M  V30 3020 H 306.915 2.94959 -0.0910608 0
M  V30 3021 H 306.996 2.00682 -1.5862 0
M  V30 3022 H 306.64 4.1488 -2.9298 0
M  V30 3023 H 306.57 5.074 -1.40898 0
M  V30 3024 H 309.061 3.51241 -1.3942 0
M  V30 3025 H 309.374 6.92859 -3.42295 0
M  V30 3026 H 307.719 6.23415 -3.07212 0
M  V30 3027 H 310.91 4.31899 -1.80501 0
M  V30 3028 H 311.083 5.87689 -2.72993 0
M  V30 3029 N 304.489 0.459591 1.5075 0
M  V30 3030 C 305.717 -0.0973749 2.06671 0
M  V30 3031 C 306.132 -1.34524 1.32472 0
M  V30 3032 O 305.489 -1.7827 0.390634 0
M  V30 3033 C 305.54 -0.39714 3.59312 0
M  V30 3034 O 305.261 0.801214 4.30711 0
M  V30 3035 C 306.762 -1.00234 4.31819 0
M  V30 3036 H 303.982 0.00195854 0.670997 0
M  V30 3037 H 306.526 0.645072 1.94059 0
M  V30 3038 H 304.681 -1.08951 3.71764 0
M  V30 3039 H 305.095 0.538857 5.21725 0
M  V30 3040 H 306.569 -1.16193 5.39632 0
M  V30 3041 H 307.046 -1.98939 3.91561 0
M  V30 3042 H 307.652 -0.348699 4.23868 0
M  V30 3043 N 305.967 -1.56429 0.191757 0
M  V30 3044 C 307.378 -1.83912 -0.321428 0
M  V30 3045 C 307.729 -1.11231 -1.61623 0
M  V30 3046 O 306.854 -0.37202 -2.13178 0
M  V30 3047 C 307.449 -3.33624 -0.589961 0
M  V30 3048 C 306.008 -3.6153 -1.04753 0
M  V30 3049 C 305.155 -2.7714 -0.0943327 0
M  V30 3050 H 308.106 -1.53161 0.415612 0
M  V30 3051 H 308.127 -3.52213 -1.43966 0
M  V30 3052 H 307.639 -3.86495 0.352588 0
M  V30 3053 H 305.74 -3.14089 -2.00447 0
M  V30 3054 H 305.853 -4.69737 -0.942549 0
M  V30 3055 H 304.217 -2.47638 -0.595589 0
M  V30 3056 H 305 -3.32799 0.842601 0
M  V30 3057 N 307.445 0.0818655 -1.57387 0
M  V30 3058 C 308.375 1.09885 -2.06028 0
M  V30 3059 C 309.356 1.4098 -0.951774 0
M  V30 3060 O 310.541 1.50781 -1.22387 0
M  V30 3061 C 307.671 2.4151 -2.4958 0
M  V30 3062 C 306.625 2.24792 -3.64215 0
M  V30 3063 C 305.951 3.61712 -3.93787 0
M  V30 3064 C 307.251 1.67749 -4.94629 0
M  V30 3065 H 308.945 0.694128 -2.91243 0
M  V30 3066 H 306.491 0.332448 -1.4011 0
M  V30 3067 H 308.444 3.12939 -2.82219 0
M  V30 3068 H 307.168 2.83943 -1.61381 0
M  V30 3069 H 305.827 1.55807 -3.31843 0
M  V30 3070 H 305.475 4.01697 -3.02735 0
M  V30 3071 H 305.175 3.51368 -4.70971 0
M  V30 3072 H 306.699 4.34587 -4.28913 0
M  V30 3073 H 308.113 2.29032 -5.25564 0
M  V30 3074 H 306.51 1.68128 -5.76067 0
M  V30 3075 H 307.58 0.638059 -4.80684 0
M  V30 3076 N 308.923 1.53595 0.353017 0
M  V30 3077 C 310.163 1.72094 1.10286 0
M  V30 3078 C 310.527 0.469217 1.86178 0
M  V30 3079 O 311.728 0.531083 2.63501 0
M  V30 3080 C 309.999 2.94386 2.02661 0
M  V30 3081 S 311.558 3.33651 2.84996 0
M  V30 3082 H 308.376 0.605433 0.372789 0
M  V30 3083 H 310.978 1.91722 0.38248 0
M  V30 3084 H 309.682 3.83669 1.45691 0
M  V30 3085 H 309.213 2.77197 2.79152 0
M  V30 3086 H 311.228 2.86645 4.0503 0
M  V30 3087 N 310.401 -0.613514 1.45168 0
M  V30 3088 C 311.817 -0.933629 1.29443 0
M  V30 3089 C 312.017 -2.00028 0.243101 0
M  V30 3090 O 311.073 -2.49848 -0.364992 0
M  V30 3091 C 312.386 -1.38018 2.67155 0
M  V30 3092 C 313.934 -1.49471 2.75004 0
M  V30 3093 C 314.409 -1.97503 4.13227 0
M  V30 3094 N 315.9 -2.04746 4.15491 0
M  V30 3095 C 316.635 -2.43121 5.19307 0
M  V30 3096 N 316.131 -2.80506 6.33473 0
M  V30 3097 N 317.924 -2.43408 5.06664 0
M  V30 3098 H 310.075 0.0916097 2.12202 0
M  V30 3099 H 312.338 -0.0216655 0.947752 0
M  V30 3100 H 312.044 -0.670625 3.45247 0
M  V30 3101 H 311.918 -2.34784 2.95222 0
M  V30 3102 H 314.305 -2.19519 1.9722 0
M  V30 3103 H 314.386 -0.510342 2.50657 0
M  V30 3104 H 314.03 -1.28045 4.91495 0
M  V30 3105 H 313.96 -2.96843 4.34962 0
M  V30 3106 H 316.451 -1.78468 3.33103 0
M  V30 3107 H 316.764 -3.08652 7.08487 0
M  V30 3108 H 315.109 -2.78216 6.36884 0
M  V30 3109 H 318.3 -2.13604 4.16523 0
M  V30 3110 H 318.473 -2.72989 5.87691 0
M  V30 3111 N 311.879 -1.3236 -0.855495 0
M  V30 3112 C 313.295 -1.11332 -1.14356 0
M  V30 3113 C 313.495 0.106751 -2.01217 0
M  V30 3114 O 312.551 0.791891 -2.39761 0
M  V30 3115 C 313.864 -2.39237 -1.82171 0
M  V30 3116 C 315.412 -2.44986 -1.9481 0
M  V30 3117 C 315.887 -3.7281 -2.66039 0
M  V30 3118 N 317.378 -3.73787 -2.73565 0
M  V30 3119 C 318.113 -4.69394 -3.29327 0
M  V30 3120 N 317.609 -5.75367 -3.85907 0
M  V30 3121 N 319.402 -4.56893 -3.27423 0
M  V30 3122 H 311.553 -2.10586 -0.277027 0
M  V30 3123 H 313.816 -0.929701 -0.185364 0
M  V30 3124 H 313.522 -3.28431 -1.25802 0
M  V30 3125 H 313.396 -2.50134 -2.82335 0
M  V30 3126 H 315.783 -1.56252 -2.50338 0
M  V30 3127 H 315.864 -2.38043 -0.936448 0
M  V30 3128 H 315.508 -4.61918 -2.11174 0
M  V30 3129 H 315.438 -3.77024 -3.67642 0
M  V30 3130 H 317.929 -2.97189 -2.33424 0
M  V30 3131 H 318.242 -6.44378 -4.26611 0
M  V30 3132 H 316.587 -5.79123 -3.84242 0
M  V30 3133 H 319.778 -3.73269 -2.82467 0
M  V30 3134 H 319.951 -5.31577 -3.7058 0
M  V30 3135 N 313.357 1.07166 -1.15556 0
M  V30 3136 C 314.773 1.31899 -0.898603 0
M  V30 3137 C 314.973 1.96333 0.453383 0
M  V30 3138 O 314.029 2.22438 1.19489 0
M  V30 3139 C 315.342 2.20826 -2.04099 0
M  V30 3140 C 316.89 2.34269 -2.07574 0
M  V30 3141 C 317.365 3.26546 -3.21141 0
M  V30 3142 N 318.856 3.34127 -3.20801 0
M  V30 3143 C 319.591 4.05595 -4.05315 0
M  V30 3144 N 319.087 4.79661 -4.99897 0
M  V30 3145 N 320.88 4.01555 -3.93332 0
M  V30 3146 H 313.031 0.637302 -2.02613 0
M  V30 3147 H 315.294 0.343468 -0.883591 0
M  V30 3148 H 315 1.80744 -3.01703 0
M  V30 3149 H 314.874 3.21364 -1.97496 0
M  V30 3150 H 317.261 2.73603 -1.10568 0
M  V30 3151 H 317.342 1.33429 -2.18244 0
M  V30 3152 H 316.986 2.87931 -4.184 0
M  V30 3153 H 316.916 4.27345 -3.07708 0
M  V30 3154 H 319.407 2.81336 -2.52306 0
M  V30 3155 H 319.72 5.31694 -5.60822 0
M  V30 3156 H 318.065 4.78671 -5.03884 0
M  V30 3157 H 321.256 3.42806 -3.18751 0
M  V30 3158 H 321.429 4.56987 -4.5942 0
M  V30 3159 N 314.835 0.952656 1.25548 0
M  V30 3160 C 316.081 0.607272 1.93494 0
M  V30 3161 C 316.414 -0.853245 1.74452 0
M  V30 3162 O 315.689 -1.61194 1.08843 0
M  V30 3163 C 315.972 0.96435 3.46947 0
M  V30 3164 C 315.825 2.48045 3.75225 0
M  V30 3165 C 317.144 0.487987 4.37386 0
M  V30 3166 H 314.263 0.222096 0.702739 0
M  V30 3167 H 316.905 1.18895 1.48203 0
M  V30 3168 H 315.055 0.469361 3.85654 0
M  V30 3169 H 316.727 3.04905 3.46166 0
M  V30 3170 H 314.97 2.919 3.209 0
M  V30 3171 H 315.641 2.6808 4.82532 0
M  V30 3172 H 318.117 0.912558 4.0597 0
M  V30 3173 H 316.993 0.766547 5.43521 0
M  V30 3174 H 317.254 -0.612063 4.37843 0
M  V30 3175 N 316.313 -1.40141 0.720998 0
M  V30 3176 C 317.561 -2.0039 0.262323 0
M  V30 3177 C 317.882 -1.57469 -1.15015 0
M  V30 3178 O 317.152 -0.816582 -1.78069 0
M  V30 3179 H 315.732 -0.741063 0.093996 0
M  V30 3180 H 318.394 -1.71398 0.927835 0
M  V30 3181 H 317.49 -3.10658 0.299671 0
M  V30 3182 N 317.792 -0.46758 -1.50504 0
M  V30 3183 C 319.04 0.0884469 -2.01906 0
M  V30 3184 C 319.361 1.40532 -1.35188 0
M  V30 3185 O 318.631 1.89515 -0.496079 0
M  V30 3186 H 317.211 0.0356765 -0.746148 0
M  V30 3187 H 319.873 -0.6172 -1.84869 0
M  V30 3188 H 318.969 0.2425 -3.11156 0
M  V30 3189 N 319.27 1.56325 -0.20005 0
M  V30 3190 C 320.516 1.98012 0.438059 0
M  V30 3191 C 320.849 1.08702 1.60927 0
M  V30 3192 O 320.124 0.140064 1.93995 0
M  V30 3193 C 320.407 3.48841 0.893419 0
M  V30 3194 C 320.26 4.48928 -0.279947 0
M  V30 3195 C 321.579 4.03498 1.75719 0
M  V30 3196 H 318.698 0.719918 0.157757 0
M  V30 3197 H 321.34 1.87743 -0.291968 0
M  V30 3198 H 319.49 3.57723 1.51547 0
M  V30 3199 H 321.162 4.52079 -0.91772 0
M  V30 3200 H 319.405 4.23694 -0.930919 0
M  V30 3201 H 320.076 5.5194 0.0812601 0
M  V30 3202 H 322.552 3.97427 1.23253 0
M  V30 3203 H 321.428 5.09393 2.04476 0
M  V30 3204 H 321.689 3.4906 2.71311 0
M  V30 3205 N 320.748 -0.0735177 1.57428 0
M  V30 3206 C 322.025 -0.805903 1.78226 0
M  V30 3207 C 322.405 -1.95874 0.787189 0
M  V30 3208 O 321.753 -2.2779 -0.180029 0
M  V30 3209 C 321.963 -1.28045 3.24662 0
M  V30 3210 C 323.311 -1.71453 3.88444 0
M  V30 3211 O 324.335 -1.37616 3.28543 0
M  V30 3212 O 323.194 -2.34093 4.93825 0
M  V30 3213 H 320.288 -0.386041 0.73137 0
M  V30 3214 H 322.834 -0.0537269 1.69615 0
M  V30 3215 H 321.606 -0.455476 3.8864 0
M  V30 3216 H 321.229 -2.094 3.37991 0
M  V30 3217 N 322.226 -1.5378 -0.344866 0
M  V30 3218 C 323.189 -1.80981 -1.40637 0
M  V30 3219 C 324.189 -0.680816 -1.45676 0
M  V30 3220 O 325.379 -0.949095 -1.46075 0
M  V30 3221 C 322.511 -1.95063 -2.79577 0
M  V30 3222 H 323.704 -2.75803 -1.17783 0
M  V30 3223 H 321.257 -1.45173 -0.579181 0
M  V30 3224 H 321.992 -1.02379 -3.07716 0
M  V30 3225 H 321.777 -2.77198 -2.77315 0
M  V30 3226 H 323.267 -2.17629 -3.56409 0
M  V30 3227 N 323.704 0.605807 -1.45491 0
M  V30 3228 C 324.95 1.36679 -1.49823 0
M  V30 3229 C 325.283 1.93693 -0.140175 0
M  V30 3230 O 324.558 1.75158 0.845581 0
M  V30 3231 C 324.841 2.51337 -2.57879 0
M  V30 3232 C 324.694 1.99508 -4.03134 0
M  V30 3233 C 326.013 3.53463 -2.62205 0
M  V30 3234 H 323.132 0.495617 -0.545466 0
M  V30 3235 H 325.774 0.682732 -1.7731 0
M  V30 3236 H 323.924 3.09691 -2.34571 0
M  V30 3237 H 325.596 1.45789 -4.37656 0
M  V30 3238 H 323.839 1.30496 -4.13707 0
M  V30 3239 H 324.51 2.82169 -4.74431 0
M  V30 3240 H 326.986 3.04953 -2.83095 0
M  V30 3241 H 325.862 4.31178 -3.39672 0
M  V30 3242 H 326.123 4.09197 -1.67363 0
M  V30 3243 N 325.182 1.32811 0.848464 0
M  V30 3244 C 326.112 1.24882 1.97299 0
M  V30 3245 C 327.093 0.131357 1.69592 0
M  V30 3246 O 328.278 0.319553 1.91553 0
M  V30 3247 C 325.408 0.97746 3.33261 0
M  V30 3248 C 324.362 2.05682 3.75338 0
M  V30 3249 C 323.688 1.63777 5.09 0
M  V30 3250 C 324.988 3.47254 3.90144 0
M  V30 3251 H 326.682 2.18966 2.04191 0
M  V30 3252 H 324.228 1.05413 0.981029 0
M  V30 3253 H 326.181 0.908513 4.1149 0
M  V30 3254 H 324.905 0.000980011 3.266 0
M  V30 3255 H 323.564 2.11603 2.99366 0
M  V30 3256 H 323.212 0.648569 4.98801 0
M  V30 3257 H 322.912 2.36 5.38124 0
M  V30 3258 H 324.436 1.5833 5.89715 0
M  V30 3259 H 325.85 3.43888 4.58709 0
M  V30 3260 H 324.247 4.1788 4.30693 0
M  V30 3261 H 325.317 3.86462 2.92874 0
M  V30 3262 N 326.66 -1.06551 1.16123 0
M  V30 3263 C 327.57 -2.17484 0.879662 0
M  V30 3264 C 328.586 -1.73377 -0.147104 0
M  V30 3265 O 329.762 -2.01379 0.0289128 0
M  V30 3266 C 326.827 -3.44591 0.381829 0
M  V30 3267 C 325.888 -4.0322 1.4735 0
M  V30 3268 C 325.121 -5.24261 0.999324 0
M  V30 3269 O 325.344 -5.70198 -0.151957 0
M  V30 3270 O 324.278 -5.74775 1.78653 0
M  V30 3271 H 328.104 -2.44075 1.80724 0
M  V30 3272 H 325.689 -1.16042 0.940992 0
M  V30 3273 H 327.571 -4.21254 0.111053 0
M  V30 3274 H 326.246 -3.19532 -0.51777 0
M  V30 3275 H 325.153 -3.2806 1.79798 0
M  V30 3276 H 326.486 -4.32568 2.34831 0
M  V30 3277 N 328.138 -0.959301 -1.25041 0
M  V30 3278 C 329.048 -0.489994 -2.29426 0
M  V30 3279 C 330.064 0.444944 -1.68215 0
M  V30 3280 O 331.24 0.320046 -1.98841 0
M  V30 3281 C 328.305 0.220309 -3.45999 0
M  V30 3282 C 327.366 -0.753418 -4.22637 0
M  V30 3283 C 326.599 -0.076918 -5.33645 0
M  V30 3284 O 326.822 1.13649 -5.58963 0
M  V30 3285 O 325.756 -0.764824 -5.97021 0
M  V30 3286 H 329.582 -1.35755 -2.71669 0
M  V30 3287 H 327.167 -0.725961 -1.30576 0
M  V30 3288 H 329.049 0.619677 -4.16819 0
M  V30 3289 H 327.724 1.06296 -3.0575 0
M  V30 3290 H 326.631 -1.20308 -3.54227 0
M  V30 3291 H 327.964 -1.56423 -4.66683 0
M  V30 3292 N 329.616 1.39756 -0.72842 0
M  V30 3293 C 330.564 2.32485 -0.0731849 0
M  V30 3294 C 331.558 1.52717 0.733063 0
M  V30 3295 O 332.764 1.68428 0.634988 0
M  V30 3296 H 329.139 0.751984 -0.00486469 0
M  V30 3297 H 331.11 2.85382 -0.871761 0
M  V30 3298 C 329.859 3.37773 0.824908 0
M  V30 3299 H 329.182 3.99227 0.213915 0
M  V30 3300 H 330.622 4.05121 1.25111 0
M  V30 3301 C 329.081 2.74287 1.95622 0
M  V30 3302 O 329.611 2.61618 3.04826 0
M  V30 3303 N 327.817 2.32475 1.74367 0
M  V30 3304 H 327.364 2.4298 0.855494 0
M  V30 3305 H 327.322 1.90337 2.50238 0
M  V30 3306 N 331.094 0.475555 1.50254 0
M  V30 3307 C 332.371 -0.139685 1.95101 0
M  V30 3308 C 332.751 -1.56555 1.41611 0
M  V30 3309 O 332.099 -2.19956 0.618993 0
M  V30 3310 C 332.309 -0.0784298 3.48912 0
M  V30 3311 C 333.657 -0.265095 4.23772 0
M  V30 3312 O 334.681 -0.154808 3.55863 0
M  V30 3313 O 333.54 -0.488327 5.44314 0
M  V30 3314 H 330.634 -0.109236 0.819754 0
M  V30 3315 H 333.18 0.536276 1.61004 0
M  V30 3316 H 331.952 0.916918 3.80405 0
M  V30 3317 H 331.575 -0.795655 3.89558 0
M  V30 3318 N 332.573 -1.56217 0.208337 0
M  V30 3319 C 333.819 -1.98242 -0.427552 0
M  V30 3320 C 334.152 -1.09554 -1.60348 0
M  V30 3321 O 333.427 -0.15035 -1.93918 0
M  V30 3322 C 333.71 -3.4931 -0.874907 0
M  V30 3323 C 333.563 -4.48773 0.303751 0
M  V30 3324 C 334.882 -4.04424 -1.73577 0
M  V30 3325 H 332.001 -0.720744 -0.153936 0
M  V30 3326 H 334.643 -1.87586 0.30192 0
M  V30 3327 H 332.793 -3.58522 -1.49648 0
M  V30 3328 H 334.465 -4.51586 0.941682 0
M  V30 3329 H 332.708 -4.23194 0.953375 0
M  V30 3330 H 333.379 -5.51976 -0.0519883 0
M  V30 3331 H 335.855 -3.98075 -1.21143 0
M  V30 3332 H 334.731 -5.1047 -2.01771 0
M  V30 3333 H 334.992 -3.50494 -2.69456 0
M  V30 3334 N 334.051 0.0651679 -1.57465 0
M  V30 3335 C 334.961 1.09448 -2.07505 0
M  V30 3336 C 335.977 1.41974 -1.00595 0
M  V30 3337 O 337.153 1.52018 -1.32107 0
M  V30 3338 C 334.218 2.38689 -2.51453 0
M  V30 3339 C 333.279 2.13073 -3.72691 0
M  V30 3340 C 332.512 3.36152 -4.14533 0
M  V30 3341 O 332.735 4.45517 -3.56189 0
M  V30 3342 O 331.669 3.23974 -5.07272 0
M  V30 3343 H 335.495 0.69935 -2.95538 0
M  V30 3344 H 333.08 0.279752 -1.46757 0
M  V30 3345 H 334.962 3.14736 -2.80212 0
M  V30 3346 H 333.637 2.77568 -1.66546 0
M  V30 3347 H 332.544 1.34709 -3.49005 0
M  V30 3348 H 333.877 1.79071 -4.5847 0
M  V30 3349 N 335.529 1.53961 0.336706 0
M  V30 3350 C 336.459 1.85417 1.41925 0
M  V30 3351 C 337.44 0.709856 1.5458 0
M  V30 3352 O 338.625 0.962396 1.68676 0
M  V30 3353 C 335.755 2.06985 2.78881 0
M  V30 3354 C 334.709 3.22813 2.81026 0
M  V30 3355 C 334.035 3.29727 4.20932 0
M  V30 3356 C 335.335 4.60767 2.45949 0
M  V30 3357 H 337.029 2.76079 1.15848 0
M  V30 3358 H 334.575 1.32839 0.555859 0
M  V30 3359 H 336.528 2.27575 3.54665 0
M  V30 3360 H 335.252 1.13061 3.06406 0
M  V30 3361 H 333.911 3.0209 2.07695 0
M  V30 3362 H 333.559 2.33385 4.45579 0
M  V30 3363 H 333.259 4.07566 4.23277 0
M  V30 3364 H 334.783 3.52536 4.98549 0
M  V30 3365 H 336.197 4.81325 3.11446 0
M  V30 3366 H 334.594 5.4106 2.59566 0
M  V30 3367 H 335.664 4.6391 1.41122 0
M  V30 3368 N 337.007 -0.598083 1.45811 0
M  V30 3369 C 338.423 -0.919847 1.30426 0
M  V30 3370 C 338.623 -1.99759 0.264303 0
M  V30 3371 O 337.679 -2.50221 -0.338472 0
M  V30 3372 C 338.992 -1.35176 2.68603 0
M  V30 3373 C 340.54 -1.46546 2.76574 0
M  V30 3374 C 341.015 -1.9311 4.15298 0
M  V30 3375 N 342.506 -2.00328 4.1764 0
M  V30 3376 C 343.241 -2.37599 5.21856 0
M  V30 3377 N 342.737 -2.73771 6.36413 0
M  V30 3378 N 344.53 -2.38021 5.09218 0
M  V30 3379 H 336.681 0.114111 2.12093 0
M  V30 3380 H 338.944 -0.0116121 0.947929 0
M  V30 3381 H 338.65 -0.633969 3.45939 0
M  V30 3382 H 338.524 -2.3164 2.97696 0
M  V30 3383 H 340.911 -2.17415 1.99537 0
M  V30 3384 H 340.992 -0.483727 2.51185 0
M  V30 3385 H 340.636 -1.22824 4.92825 0
M  V30 3386 H 340.566 -2.92213 4.38086 0
M  V30 3387 H 343.057 -1.74925 3.34977 0
M  V30 3388 H 343.37 -3.0112 7.11721 0
M  V30 3389 H 341.715 -2.71445 6.39799 0
M  V30 3390 H 344.906 -2.09174 4.18765 0
M  V30 3391 H 345.079 -2.66741 5.90554 0
M  V30 3392 N 338.485 -1.33259 -0.841409 0
M  V30 3393 C 339.448 -1.23221 -1.9326 0
M  V30 3394 C 340.448 -0.151895 -1.60081 0
M  V30 3395 O 341.638 -0.403246 -1.69468 0
M  V30 3396 C 338.77 -0.898123 -3.28856 0
M  V30 3397 H 339.963 -2.2021 -2.03587 0
M  V30 3398 H 337.516 -1.17281 -1.03319 0
M  V30 3399 H 338.251 0.0693841 -3.24226 0
M  V30 3400 H 338.036 -1.67934 -3.54317 0
M  V30 3401 H 339.526 -0.852563 -4.08805 0
M  V30 3402 N 339.963 1.05934 -1.16686 0
M  V30 3403 C 340.873 2.17014 -0.891183 0
M  V30 3404 C 341.889 1.73453 0.137907 0
M  V30 3405 O 343.065 2.01361 -0.039592 0
M  V30 3406 C 340.13 3.44384 -0.400099 0
M  V30 3407 C 339.191 4.02433 -1.49486 0
M  V30 3408 C 338.424 5.23723 -1.02711 0
M  V30 3409 O 338.647 5.7027 0.121716 0
M  V30 3410 O 337.581 5.7382 -1.81699 0
M  V30 3411 H 341.407 2.43113 -1.82015 0
M  V30 3412 H 338.992 1.15541 -0.947132 0
M  V30 3413 H 340.874 4.21189 -0.133392 0
M  V30 3414 H 339.549 3.19802 0.500817 0
M  V30 3415 H 338.456 3.27102 -1.81535 0
M  V30 3416 H 339.789 4.31317 -2.37121 0
M  V30 3417 N 341.441 0.965919 1.2453 0
M  V30 3418 C 342.666 0.643971 1.97149 0
M  V30 3419 C 343.091 -0.779487 1.71189 0
M  V30 3420 O 342.449 -1.5288 0.974553 0
M  V30 3421 C 342.497 0.922557 3.48599 0
M  V30 3422 O 341.601 0.00707672 4.12399 0
M  V30 3423 H 340.942 0.243647 0.617683 0
M  V30 3424 H 343.472 1.29558 1.58353 0
M  V30 3425 H 343.482 0.853373 3.98976 0
M  V30 3426 H 342.157 1.95996 3.66822 0
M  V30 3427 H 340.734 0.12943 3.72675 0
M  V30 3428 N 342.919 -1.39368 0.735821 0
M  V30 3429 C 343.851 -2.2913 0.0567723 0
M  V30 3430 C 344.864 -1.46859 -0.702589 0
M  V30 3431 O 346.053 -1.69925 -0.546616 0
M  V30 3432 C 343.153 -3.25492 -0.943823 0
M  V30 3433 C 342.326 -4.36709 -0.24581 0
M  V30 3434 C 341.385 -5.13376 -1.15463 0
M  V30 3435 O 340.411 -5.65683 -0.631803 0
M  V30 3436 N 341.613 -5.24656 -2.48427 0
M  V30 3437 H 344.378 -2.88047 0.827582 0
M  V30 3438 H 341.939 -1.50957 0.585112 0
M  V30 3439 H 343.931 -3.73657 -1.55443 0
M  V30 3440 H 342.501 -2.676 -1.61583 0
M  V30 3441 H 341.721 -3.9041 0.545286 0
M  V30 3442 H 343.009 -5.08244 0.237891 0
M  V30 3443 H 342.407 -4.83679 -2.93379 0
M  V30 3444 H 340.964 -5.76258 -3.04582 0
M  V30 3445 N 344.397 -0.483516 -1.5 0
M  V30 3446 C 345.674 0.129337 -1.95172 0
M  V30 3447 C 346.054 1.55802 -1.4244 0
M  V30 3448 O 345.402 2.19625 -0.630649 0
M  V30 3449 C 345.612 0.0599251 -3.48949 0
M  V30 3450 C 346.96 0.242617 -4.23906 0
M  V30 3451 O 347.984 0.135933 -3.55941 0
M  V30 3452 O 346.843 0.459454 -5.44565 0
M  V30 3453 H 343.937 0.104887 -0.820322 0
M  V30 3454 H 346.483 -0.544807 -1.60717 0
M  V30 3455 H 345.255 -0.937079 -3.79914 0
M  V30 3456 H 344.878 0.774984 -3.89974 0
M  V30 3457 N 345.875 1.56104 -0.216619 0
M  V30 3458 C 347.1 2.0301 0.424462 0
M  V30 3459 C 347.525 1.0955 1.52907 0
M  V30 3460 O 346.883 0.0827914 1.81111 0
M  V30 3461 C 346.931 3.4819 0.937883 0
M  V30 3462 O 346.035 3.57865 2.04955 0
M  V30 3463 H 345.376 0.656925 0.0966755 0
M  V30 3464 H 347.906 2.01859 -0.33381 0
M  V30 3465 H 347.916 3.88413 1.24897 0
M  V30 3466 H 346.591 4.15699 0.129387 0
M  V30 3467 H 345.168 3.29527 1.74546 0
M  V30 3468 N 347.353 -0.0568162 1.57498 0
M  V30 3469 C 348.316 -1.05038 2.03715 0
M  V30 3470 C 349.316 -1.30709 0.936577 0
M  V30 3471 O 350.506 -1.26178 1.20103 0
M  V30 3472 C 347.638 -2.39034 2.43055 0
M  V30 3473 H 348.831 -0.651715 2.92733 0
M  V30 3474 H 346.384 -0.302947 1.53336 0
M  V30 3475 H 347.119 -2.83703 1.57108 0
M  V30 3476 H 346.904 -2.21739 3.2338 0
M  V30 3477 H 348.394 -3.10421 2.79336 0
M  V30 3478 N 348.832 -1.54138 -0.328536 0
M  V30 3479 C 350.078 -1.7236 -1.06865 0
M  V30 3480 C 350.411 -0.493231 -1.87832 0
M  V30 3481 O 349.686 0.5098 -1.877 0
M  V30 3482 C 349.969 -2.99621 -1.99747 0
M  V30 3483 C 349.822 -4.32899 -1.22143 0
M  V30 3484 C 351.141 -3.22615 -2.99345 0
M  V30 3485 H 348.26 -0.627151 -0.387105 0
M  V30 3486 H 350.902 -1.86827 -0.345767 0
M  V30 3487 H 349.052 -2.87418 -2.61387 0
M  V30 3488 H 350.724 -4.56978 -0.630017 0
M  V30 3489 H 348.967 -4.30628 -0.523628 0
M  V30 3490 H 349.638 -5.18154 -1.90318 0
M  V30 3491 H 352.114 -3.34248 -2.47826 0
M  V30 3492 H 350.99 -4.13027 -3.61524 0
M  V30 3493 H 351.251 -2.3961 -3.71536 0
M  V30 3494 N 350.31 0.590341 -1.46126 0
M  V30 3495 C 351.273 1.68194 -1.55703 0
M  V30 3496 C 352.273 1.54808 -0.434868 0
M  V30 3497 O 353.463 1.59564 -0.698928 0
M  V30 3498 C 350.595 3.07575 -1.47005 0
M  V30 3499 H 351.788 1.61064 -2.52979 0
M  V30 3500 H 349.341 0.807541 -1.33823 0
M  V30 3501 H 350.076 3.20268 -0.509785 0
M  V30 3502 H 349.861 3.187 -2.28414 0
M  V30 3503 H 351.351 3.87055 -1.56776 0
M  V30 3504 N 351.788 1.33704 0.83433 0
M  V30 3505 C 353.013 1.28615 1.62705 0
M  V30 3506 C 353.438 -0.139242 1.87584 0
M  V30 3507 O 352.796 -1.09734 1.4432 0
M  V30 3508 C 352.844 2.07139 2.95171 0
M  V30 3509 O 351.948 1.4331 3.86699 0
M  V30 3510 H 351.289 0.44226 0.49528 0
M  V30 3511 H 353.819 1.76335 1.03766 0
M  V30 3512 H 353.829 2.18073 3.44831 0
M  V30 3513 H 352.504 3.10779 2.76386 0
M  V30 3514 H 351.081 1.4105 3.45195 0
M  V30 3515 N 353.266 -1.05314 1.17247 0
M  V30 3516 C 354.514 -1.77941 0.958194 0
M  V30 3517 C 354.835 -1.88089 -0.514556 0
M  V30 3518 O 354.105 -1.39676 -1.37359 0
M  V30 3519 H 352.685 -0.659116 0.351533 0
M  V30 3520 H 355.347 -1.27166 1.47699 0
M  V30 3521 H 354.443 -2.79663 1.38546 0
M  V30 3522 N 354.744 -0.972509 -1.24016 0
M  V30 3523 C 356.155 -0.67517 -1.74064 0
M  V30 3524 C 356.506 0.808939 -1.78747 0
M  V30 3525 O 355.631 1.63286 -1.42009 0
M  V30 3526 C 356.226 -1.21889 -3.16115 0
M  V30 3527 C 354.785 -0.971358 -3.6365 0
M  V30 3528 C 353.932 -1.35134 -2.42145 0
M  V30 3529 H 356.883 -1.14727 -1.09651 0
M  V30 3530 H 356.904 -0.587489 -3.75937 0
M  V30 3531 H 356.416 -2.29906 -3.12674 0
M  V30 3532 H 354.517 0.0930686 -3.72484 0
M  V30 3533 H 354.63 -1.62039 -4.50866 0
M  V30 3534 H 352.994 -0.769751 -2.4279 0
M  V30 3535 H 353.777 -2.4411 -2.41381 0
M  V30 3536 N 356.222 1.38976 -0.743202 0
M  V30 3537 C 357.47 1.99948 -0.29417 0
M  V30 3538 C 357.791 1.59279 1.12495 0
M  V30 3539 O 357.061 0.844808 1.76748 0
M  V30 3540 H 355.641 0.739473 -0.105774 0
M  V30 3541 H 358.303 1.699 -0.954986 0
M  V30 3542 H 357.399 3.10142 -0.349056 0
M  V30 3543 N 357.7 0.491464 1.49741 0
M  V30 3544 C 359.116 0.146835 1.58923 0
M  V30 3545 C 359.316 -1.34804 1.49767 0
M  V30 3546 O 358.372 -2.12317 1.36667 0
M  V30 3547 C 359.685 0.715157 2.92072 0
M  V30 3548 C 361.233 0.680407 3.05515 0
M  V30 3549 C 361.708 1.22663 4.41269 0
M  V30 3550 N 363.199 1.18691 4.47735 0
M  V30 3551 C 363.934 1.57984 5.51207 0
M  V30 3552 N 363.43 2.04824 6.6183 0
M  V30 3553 N 365.223 1.49459 5.41866 0
M  V30 3554 H 357.374 1.46347 1.53936 0
M  V30 3555 H 359.637 0.606453 0.728642 0
M  V30 3556 H 359.343 1.76317 3.04311 0
M  V30 3557 H 359.217 0.17018 3.76816 0
M  V30 3558 H 361.604 -0.358743 2.92911 0
M  V30 3559 H 361.685 1.26242 2.22478 0
M  V30 3560 H 361.329 2.26451 4.54623 0
M  V30 3561 H 361.259 0.620637 5.2293 0
M  V30 3562 H 363.75 0.843605 3.68364 0
M  V30 3563 H 364.063 2.32901 7.3687 0
M  V30 3564 H 362.408 2.08791 6.62896 0
M  V30 3565 H 365.599 1.12692 4.54333 0
M  V30 3566 H 365.772 1.80406 6.22381 0
M  V30 3567 N 359.178 -1.55987 0.224894 0
M  V30 3568 C 360.424 -1.98684 -0.406502 0
M  V30 3569 C 360.757 -1.11248 -1.59177 0
M  V30 3570 O 360.032 -0.170909 -1.93748 0
M  V30 3571 C 360.315 -3.50218 -0.837808 0
M  V30 3572 C 360.168 -4.48426 0.351332 0
M  V30 3573 C 361.487 -4.06243 -1.69278 0
M  V30 3574 H 358.606 -0.722337 -0.146283 0
M  V30 3575 H 361.248 -1.87255 0.321799 0
M  V30 3576 H 359.398 -3.60089 -1.45837 0
M  V30 3577 H 361.07 -4.50562 0.989526 0
M  V30 3578 H 359.313 -4.22159 0.998207 0
M  V30 3579 H 359.984 -5.52 0.00655905 0
M  V30 3580 H 362.46 -3.99337 -1.16914 0
M  V30 3581 H 361.336 -5.12581 -1.96346 0
M  V30 3582 H 361.597 -3.53332 -2.65723 0
M  V30 3583 N 360.656 0.0484629 -1.57525 0
M  V30 3584 C 362.067 0.597486 -1.76881 0
M  V30 3585 C 362.418 1.76664 -0.853475 0
M  V30 3586 O 361.543 2.16357 -0.0433656 0
M  V30 3587 C 362.138 1.09066 -3.20765 0
M  V30 3588 C 360.697 1.58535 -3.41385 0
M  V30 3589 C 359.844 0.514868 -2.72478 0
M  V30 3590 H 362.795 -0.177758 -1.57701 0
M  V30 3591 H 362.816 1.95875 -3.2621 0
M  V30 3592 H 362.328 0.239521 -3.8736 0
M  V30 3593 H 360.429 2.45898 -2.79937 0
M  V30 3594 H 360.542 1.64622 -4.49929 0
M  V30 3595 H 358.906 0.965407 -2.35695 0
M  V30 3596 H 359.689 -0.32648 -3.41744 0
M  V30 3597 N 362.134 1.5431 0.320358 0
M  V30 3598 C 363.066 1.80262 1.41556 0
M  V30 3599 C 364.079 0.684723 1.477 0
M  V30 3600 O 365.268 0.961886 1.50366 0
M  V30 3601 C 362.368 1.90825 2.8007 0
M  V30 3602 C 361.541 3.21023 2.97091 0
M  V30 3603 C 360.6 3.22247 4.15985 0
M  V30 3604 O 359.626 3.95871 4.08992 0
M  V30 3605 N 360.828 2.46258 5.25678 0
M  V30 3606 H 363.593 2.74778 1.19655 0
M  V30 3607 H 361.154 1.53646 0.510358 0
M  V30 3608 H 363.146 1.89067 3.57821 0
M  V30 3609 H 361.716 1.03392 2.95006 0
M  V30 3610 H 360.936 3.35715 2.06614 0
M  V30 3611 H 362.224 4.0698 3.05361 0
M  V30 3612 H 361.622 1.86037 5.34235 0
M  V30 3613 H 360.179 2.50275 6.01835 0
M  V30 3614 N 363.613 -0.582584 1.46437 0
M  V30 3615 C 365.024 -1.1647 1.45916 0
M  V30 3616 C 365.375 -1.95177 0.200077 0
M  V30 3617 O 364.5 -2.04874 -0.696819 0
M  V30 3618 C 365.095 -2.11885 2.64367 0
M  V30 3619 C 363.654 -2.65421 2.66887 0
M  V30 3620 C 362.801 -1.41294 2.38603 0
M  V30 3621 H 365.752 -0.370514 1.54314 0
M  V30 3622 H 365.773 -2.9535 2.39892 0
M  V30 3623 H 365.285 -1.54573 3.5599 0
M  V30 3624 H 363.386 -3.26602 1.79338 0
M  V30 3625 H 363.499 -3.08147 3.66854 0
M  V30 3626 H 361.863 -1.71109 1.88663 0
M  V30 3627 H 362.646 -0.858125 3.32402 0
M  V30 3628 N 365.091 -1.34144 -0.827227 0
M  V30 3629 C 366.021 -1.28005 -1.95287 0
M  V30 3630 C 367.002 -0.158321 -1.69362 0
M  V30 3631 O 368.187 -0.349987 -1.9102 0
M  V30 3632 C 365.317 -1.03036 -3.31664 0
M  V30 3633 C 364.271 -2.11628 -3.72019 0
M  V30 3634 C 363.597 -1.71854 -5.0633 0
M  V30 3635 C 364.897 -3.53417 -3.8457 0
M  V30 3636 H 366.591 -2.22187 -2.00682 0
M  V30 3637 H 364.137 -1.0696 -0.964135 0
M  V30 3638 H 366.09 -0.973863 -4.09993 0
M  V30 3639 H 364.814 -0.0529391 -3.26557 0
M  V30 3640 H 363.473 -2.16339 -2.95961 0
M  V30 3641 H 363.121 -0.727841 -4.97706 0
M  V30 3642 H 362.821 -2.44531 -5.34302 0
M  V30 3643 H 364.345 -1.67692 -5.87122 0
M  V30 3644 H 365.759 -3.51142 -4.5318 0
M  V30 3645 H 364.156 -4.24679 -4.2399 0
M  V30 3646 H 365.226 -3.91072 -2.86689 0
M  V30 3647 N 366.569 1.04691 -1.17803 0
M  V30 3648 C 367.794 1.81984 -0.994813 0
M  V30 3649 C 368.219 1.82586 0.452112 0
M  V30 3650 O 367.577 1.23854 1.324 0
M  V30 3651 C 367.625 3.2575 -1.54659 0
M  V30 3652 O 366.729 4.05267 -0.763728 0
M  V30 3653 H 366.07 0.562483 -0.352857 0
M  V30 3654 H 368.6 1.3189 -1.56417 0
M  V30 3655 H 368.61 3.76541 -1.57102 0
M  V30 3656 H 367.285 3.24627 -2.59981 0
M  V30 3657 H 365.862 3.63972 -0.811108 0
M  V30 3658 N 368.047 0.979072 1.23499 0
M  V30 3659 C 369.295 0.645941 1.91499 0
M  V30 3660 C 369.616 -0.822948 1.76784 0
M  V30 3661 O 368.886 -1.58854 1.14639 0
M  V30 3662 H 367.466 0.235919 0.708767 0
M  V30 3663 H 370.128 1.2426 1.50152 0
M  V30 3664 H 369.224 0.896411 2.9895 0
M  V30 3665 N 369.525 -1.3858 0.750561 0
M  V30 3666 C 370.75 -2.04997 0.314812 0
M  V30 3667 C 371.175 -1.56235 -1.04749 0
M  V30 3668 O 370.533 -0.712981 -1.66692 0
M  V30 3669 C 370.581 -3.58961 0.343415 0
M  V30 3670 O 369.685 -4.07025 -0.663628 0
M  V30 3671 H 369.026 -0.649081 0.139962 0
M  V30 3672 H 371.556 -1.77313 1.02084 0
M  V30 3673 H 371.566 -4.07542 0.193233 0
M  V30 3674 H 370.241 -3.93811 1.33738 0
M  V30 3675 H 368.818 -3.6982 -0.478307 0
M  V30 3676 N 371.003 -0.499398 -1.49478 0
M  V30 3677 C 372.228 0.044722 -2.07352 0
M  V30 3678 C 372.653 1.30207 -1.35749 0
M  V30 3679 O 372.011 1.76516 -0.413732 0
M  V30 3680 C 372.059 0.283013 -3.59488 0
M  V30 3681 O 371.163 1.35804 -3.89398 0
M  V30 3682 H 370.504 -0.0255147 -0.66351 0
M  V30 3683 H 373.034 -0.698561 -1.92305 0
M  V30 3684 H 373.044 0.515007 -4.04737 0
M  V30 3685 H 371.719 -0.635636 -4.11014 0
M  V30 3686 H 370.296 1.11113 -3.55961 0
M  V30 3687 N 372.481 1.55866 -0.233164 0
M  V30 3688 C 373.729 1.9821 0.394593 0
M  V30 3689 C 374.05 1.12234 1.59463 0
M  V30 3690 O 373.32 0.201981 1.94856 0
M  V30 3691 H 371.9 0.732034 0.148778 0
M  V30 3692 H 374.562 1.92107 -0.32876 0
M  V30 3693 H 373.658 3.03845 0.713063 0
M  V30 3694 N 373.959 -0.0401083 1.57549 0
M  V30 3695 C 374.869 -1.06133 2.0922 0
M  V30 3696 C 375.885 -1.40356 1.0284 0
M  V30 3697 O 377.061 -1.49897 1.34509 0
M  V30 3698 C 374.126 -2.34658 2.55218 0
M  V30 3699 C 373.187 -2.07117 3.76033 0
M  V30 3700 C 372.42 -3.29514 4.19829 0
M  V30 3701 O 372.643 -4.39794 3.63232 0
M  V30 3702 O 371.577 -3.15863 5.12362 0
M  V30 3703 H 375.403 -0.652244 2.96613 0
M  V30 3704 H 372.988 -0.256368 1.47184 0
M  V30 3705 H 374.87 -3.10239 2.85184 0
M  V30 3706 H 373.545 -2.74883 1.70941 0
M  V30 3707 H 372.452 -1.29139 3.51104 0
M  V30 3708 H 373.785 -1.71754 4.61261 0
M  V30 3709 N 375.437 -1.54477 -0.31217 0
M  V30 3710 C 376.347 -1.87695 -1.4074 0
M  V30 3711 C 377.363 -0.769975 -1.56036 0
M  V30 3712 O 378.539 -1.06537 -1.70915 0
M  V30 3713 C 375.604 -2.10755 -2.75287 0
M  V30 3714 C 374.665 -3.34514 -2.69071 0
M  V30 3715 C 373.898 -3.56465 -3.97201 0
M  V30 3716 O 374.121 -2.81637 -4.96021 0
M  V30 3717 O 373.055 -4.49964 -3.9977 0
M  V30 3718 H 376.881 -2.80849 -1.15574 0
M  V30 3719 H 374.466 -1.40526 -0.507228 0
M  V30 3720 H 376.348 -2.27188 -3.54913 0
M  V30 3721 H 375.023 -1.20788 -3.0032 0
M  V30 3722 H 373.93 -3.23456 -1.87955 0
M  V30 3723 H 375.263 -4.24575 -2.48992 0
M  V30 3724 N 376.915 0.57481 -1.46744 0
M  V30 3725 C 378.14 1.36341 -1.56288 0
M  V30 3726 C 378.565 1.86954 -0.207347 0
M  V30 3727 O 377.923 1.62006 0.813871 0
M  V30 3728 C 377.971 2.52147 -2.57787 0
M  V30 3729 O 377.075 3.53834 -2.11838 0
M  V30 3730 H 376.416 0.405713 -0.525636 0
M  V30 3731 H 378.946 0.696453 -1.92382 0
M  V30 3732 H 378.956 2.98958 -2.77648 0
M  V30 3733 H 377.631 2.14663 -3.5622 0
M  V30 3734 H 376.208 3.1345 -2.01999 0
M  V30 3735 N 378.394 1.34581 0.820102 0
M  V30 3736 C 379.357 1.2628 1.91275 0
M  V30 3737 C 380.357 0.177344 1.59819 0
M  V30 3738 O 381.547 0.430156 1.68806 0
M  V30 3739 C 378.679 0.950327 3.27386 0
M  V30 3740 H 379.872 2.23421 2.00057 0
M  V30 3741 H 377.425 1.1891 1.0144 0
M  V30 3742 H 378.16 -0.0177938 3.24295 0
M  V30 3743 H 377.945 1.73549 3.51601 0
M  V30 3744 H 379.435 0.917492 4.07396 0
M  V30 3745 N 379.872 -1.04064 1.18357 0
M  V30 3746 C 381.1 -1.80916 1.00384 0
M  V30 3747 C 381.515 -1.83414 -0.447738 0
M  V30 3748 O 380.872 -1.26962 -1.31099 0
M  V30 3749 C 380.923 -3.26516 1.55144 0
M  V30 3750 O 380.644 -3.2424 2.94618 0
M  V30 3751 C 382.145 -4.20013 1.41789 0
M  V30 3752 H 379.365 -0.569728 0.354474 0
M  V30 3753 H 381.909 -1.31151 1.56906 0
M  V30 3754 H 380.064 -3.73512 1.02798 0
M  V30 3755 H 380.478 -4.15452 3.20156 0
M  V30 3756 H 381.952 -5.20111 1.84901 0
M  V30 3757 H 382.429 -4.37667 0.36661 0
M  V30 3758 H 383.035 -3.78881 1.93207 0
M  V30 3759 N 381.35 -0.985608 -1.22978 0
M  V30 3760 C 382.313 -0.535071 -2.22867 0
M  V30 3761 C 383.313 0.378123 -1.56291 0
M  V30 3762 O 384.503 0.171092 -1.73358 0
M  V30 3763 C 381.635 0.222702 -3.40172 0
M  V30 3764 H 382.828 -1.41835 -2.6424 0
M  V30 3765 H 380.381 -0.772042 -1.35901 0
M  V30 3766 H 381.116 1.12229 -3.04262 0
M  V30 3767 H 380.901 -0.43288 -3.89703 0
M  V30 3768 H 382.391 0.526335 -4.1427 0
M  V30 3769 N 382.828 1.3818 -0.7579 0
M  V30 3770 C 384.074 2.00316 -0.316453 0
M  V30 3771 C 384.407 1.60026 1.10025 0
M  V30 3772 O 383.682 0.839835 1.75434 0
M  V30 3773 C 383.965 3.57349 -0.444245 0
M  V30 3774 C 383.818 4.07591 -1.90236 0
M  V30 3775 C 385.137 4.3981 0.1598 0
M  V30 3776 H 382.256 0.727741 -0.116459 0
M  V30 3777 H 384.898 1.6406 -0.958352 0
M  V30 3778 H 383.048 3.88365 0.102233 0
M  V30 3779 H 384.72 3.87199 -2.50748 0
M  V30 3780 H 382.963 3.60297 -2.41595 0
M  V30 3781 H 383.634 5.16677 -1.94291 0
M  V30 3782 H 386.11 4.14971 -0.306314 0
M  V30 3783 H 384.986 5.48885 0.0401675 0
M  V30 3784 H 385.247 4.24102 1.24859 0
M  V30 3785 N 384.306 0.507319 1.49211 0
M  V30 3786 C 385.216 -0.272136 2.33016 0
M  V30 3787 C 386.232 -0.961206 1.45041 0
M  V30 3788 O 387.408 -0.941191 1.78055 0
M  V30 3789 C 384.473 -1.31895 3.20631 0
M  V30 3790 C 383.534 -0.642648 4.24463 0
M  V30 3791 C 382.767 -1.63959 5.07891 0
M  V30 3792 O 382.99 -2.87007 4.92933 0
M  V30 3793 O 381.924 -1.19143 5.8999 0
M  V30 3794 H 385.75 0.413982 3.00865 0
M  V30 3795 H 383.335 0.268556 1.46966 0
M  V30 3796 H 385.217 -1.92446 3.7489 0
M  V30 3797 H 383.892 -1.98788 2.5547 0
M  V30 3798 H 382.799 0.00276252 3.741 0
M  V30 3799 H 384.132 -0.0160534 4.92197 0
M  V30 3800 N 385.784 -1.5574 0.241426 0
M  V30 3801 C 386.747 -2.19877 -0.647063 0
M  V30 3802 C 387.747 -1.16642 -1.10686 0
M  V30 3803 O 388.937 -1.41757 -1.01245 0
M  V30 3804 C 386.069 -2.83797 -1.88871 0
M  V30 3805 H 387.262 -2.99772 -0.087574 0
M  V30 3806 H 384.815 -1.56298 -0.00813574 0
M  V30 3807 H 385.55 -2.07824 -2.48957 0
M  V30 3808 H 385.335 -3.59414 -1.56728 0
M  V30 3809 H 386.825 -3.32898 -2.52129 0
M  V30 3810 N 387.262 0.0317525 -1.57568 0
M  V30 3811 C 388.539 0.758366 -1.803 0
M  V30 3812 C 388.919 1.93718 -0.838845 0
M  V30 3813 O 388.267 2.28187 0.119571 0
M  V30 3814 C 388.477 1.19392 -3.27943 0
M  V30 3815 C 389.825 1.61094 -3.92854 0
M  V30 3816 O 390.849 1.28857 -3.32076 0
M  V30 3817 O 389.708 2.20918 -4.99858 0
M  V30 3818 H 386.802 0.366514 -0.741348 0
M  V30 3819 H 389.348 0.00873765 -1.69698 0
M  V30 3820 H 388.12 0.352275 -3.89711 0
M  V30 3821 H 387.743 2.00365 -3.43424 0
M  V30 3822 N 388.74 1.54641 0.303973 0
M  V30 3823 C 389.965 1.78092 1.06292 0
M  V30 3824 C 390.39 0.537342 1.80262 0
M  V30 3825 O 389.748 -0.511993 1.7392 0
M  V30 3826 C 389.796 2.98612 2.02147 0
M  V30 3827 O 388.9 2.71528 3.10397 0
M  V30 3828 H 388.241 0.589548 0.305497 0
M  V30 3829 H 390.771 2.01716 0.3423 0
M  V30 3830 H 390.781 3.265 2.44667 0
M  V30 3831 H 389.456 3.88785 1.47714 0
M  V30 3832 H 388.033 2.54648 2.72413 0
M  V30 3833 N 390.218 -0.567019 1.47046 0
M  V30 3834 C 391.446 -1.35027 1.56765 0
M  V30 3835 C 391.861 -1.8758 0.214316 0
M  V30 3836 O 391.218 -1.64471 -0.790919 0
M  V30 3837 C 391.269 -2.52698 2.58507 0
M  V30 3838 O 390.99 -2.0232 3.88585 0
M  V30 3839 C 392.491 -3.45043 2.78316 0
M  V30 3840 H 389.711 -0.41195 0.529658 0
M  V30 3841 H 392.255 -0.687832 1.92585 0
M  V30 3842 H 390.41 -3.149 2.25648 0
M  V30 3843 H 390.824 -2.79068 4.44096 0
M  V30 3844 H 392.298 -4.2405 3.53391 0
M  V30 3845 H 392.775 -3.97971 1.85784 0
M  V30 3846 H 393.381 -2.88665 3.12334 0
M  V30 3847 N 391.696 -1.35014 -0.812953 0
M  V30 3848 C 392.921 -1.31187 -1.60639 0
M  V30 3849 C 393.346 0.109382 -1.87782 0
M  V30 3850 O 392.704 1.07424 -1.46047 0
M  V30 3851 C 392.752 -2.11809 -2.91838 0
M  V30 3852 O 391.856 -1.49444 -3.8437 0
M  V30 3853 H 391.197 -0.450084 -0.488181 0
M  V30 3854 H 393.727 -1.77963 -1.00947 0
M  V30 3855 H 393.737 -2.23531 -3.41318 0
M  V30 3856 H 392.412 -3.15137 -2.71407 0
M  V30 3857 H 390.989 -1.46524 -3.42907 0
M  V30 3858 N 393.175 1.03435 -1.18907 0
M  V30 3859 C 394.125 2.09924 -0.889706 0
M  V30 3860 C 395.109 1.60261 0.143216 0
M  V30 3861 O 396.301 1.76892 -0.0617122 0
M  V30 3862 C 393.43 3.40669 -0.424168 0
M  V30 3863 C 392.516 3.97082 -1.48952 0
M  V30 3864 N 392.907 4.27227 -2.70759 0
M  V30 3865 C 391.205 4.25029 -1.35152 0
M  V30 3866 C 391.906 4.7246 -3.39347 0
M  V30 3867 N 390.882 4.7366 -2.66735 0
M  V30 3868 H 394.684 2.31116 -1.81555 0
M  V30 3869 H 392.198 1.21246 -1.08042 0
M  V30 3870 H 394.195 4.16461 -0.191176 0
M  V30 3871 H 392.855 3.20901 0.495263 0
M  V30 3872 H 393.866 4.16678 -3.0757 0
M  V30 3873 H 390.543 4.14554 -0.495126 0
M  V30 3874 H 391.933 5.04751 -4.43481 0
M  V30 3875 N 394.653 0.992116 1.22453 0
M  V30 3876 C 395.93 0.583508 1.86694 0
M  V30 3877 C 396.31 -0.9392 1.89056 0
M  V30 3878 O 395.658 -1.82081 1.38053 0
M  V30 3879 C 395.868 1.20304 3.2761 0
M  V30 3880 C 397.216 1.30308 4.0411 0
M  V30 3881 O 398.24 1.15737 3.36873 0
M  V30 3882 O 397.099 1.53615 5.24466 0
M  V30 3883 H 394.193 0.198129 0.802916 0
M  V30 3884 H 396.739 1.08794 1.30238 0
M  V30 3885 H 395.511 2.24461 3.2052 0
M  V30 3886 H 395.134 0.684144 3.9167 0
M  V30 3887 N 396.131 -1.37776 0.765217 0
M  V30 3888 C 397.408 -1.93975 0.251596 0
M  V30 3889 C 397.788 -1.69949 -1.25222 0
M  V30 3890 O 397.136 -1.04457 -2.03226 0
M  V30 3891 C 397.346 -3.43487 0.617895 0
M  V30 3892 C 398.694 -4.20564 0.584029 0
M  V30 3893 O 399.718 -3.5182 0.556888 0
M  V30 3894 O 398.577 -5.43138 0.605291 0
M  V30 3895 H 395.671 -0.82509 0.0561806 0
M  V30 3896 H 398.217 -1.47101 0.846128 0
M  V30 3897 H 396.989 -3.5453 1.65602 0
M  V30 3898 H 396.612 -3.976 -0.00403411 0
M  V30 3899 N 397.609 -0.515225 -1.4894 0
M  V30 3900 C 398.855 0.0242508 -2.02785 0
M  V30 3901 C 399.188 1.35323 -1.39289 0
M  V30 3902 O 398.463 1.87041 -0.533469 0
M  V30 3903 C 398.746 0.16184 -3.59736 0
M  V30 3904 C 398.599 -1.19127 -4.33738 0
M  V30 3905 C 399.918 0.895719 -4.30888 0
M  V30 3906 H 397.037 0.00733914 -0.736963 0
M  V30 3907 H 399.679 -0.669395 -1.77818 0
M  V30 3908 H 397.829 0.752624 -3.8114 0
M  V30 3909 H 399.501 -1.82202 -4.23792 0
M  V30 3910 H 397.744 -1.77695 -3.95736 0
M  V30 3911 H 398.415 -1.04815 -5.41957 0
M  V30 3912 H 400.891 0.394528 -4.14225 0
M  V30 3913 H 399.767 0.960859 -5.40425 0
M  V30 3914 H 400.028 1.9427 -3.97129 0
M  V30 3915 N 399.087 1.5561 -0.249682 0
M  V30 3916 C 400.037 2.18157 0.662673 0
M  V30 3917 C 401.021 1.1383 1.13717 0
M  V30 3918 O 402.213 1.39731 1.08648 0
M  V30 3919 C 399.342 2.88672 1.85805 0
M  V30 3920 C 398.428 4.00258 1.40193 0
M  V30 3921 N 398.819 5.01473 0.660213 0
M  V30 3922 C 397.117 4.12864 1.68698 0
M  V30 3923 C 397.818 5.80155 0.423695 0
M  V30 3924 N 396.794 5.34533 0.988721 0
M  V30 3925 H 400.596 2.93769 0.0878688 0
M  V30 3926 H 398.11 1.62316 -0.0521183 0
M  V30 3927 H 400.107 3.31912 2.5227 0
M  V30 3928 H 398.767 2.14564 2.43705 0
M  V30 3929 H 399.778 5.16971 0.310047 0
M  V30 3930 H 396.455 3.4993 2.27717 0
M  V30 3931 H 397.845 6.71688 -0.168616 0
M  V30 3932 N 400.565 -0.0233959 1.57583 0
M  V30 3933 C 401.805 -0.71784 1.9138 0
M  V30 3934 C 402.169 -1.72216 0.848853 0
M  V30 3935 O 403.37 -2.46527 1.07134 0
M  V30 3936 C 401.641 -1.36489 3.30311 0
M  V30 3937 S 403.2 -2.0877 3.85954 0
M  V30 3938 H 400.018 -0.237676 0.670098 0
M  V30 3939 H 402.62 0.0276709 1.9548 0
M  V30 3940 H 401.324 -0.620782 4.05678 0
M  V30 3941 H 400.855 -2.14883 3.29528 0
M  V30 3942 H 402.87 -3.35988 3.65139 0
M  V30 3943 N 402.043 -1.548 -0.295768 0
M  V30 3944 C 403.271 -1.78327 -1.04914 0
M  V30 3945 C 403.686 -0.545316 -1.80753 0
M  V30 3946 O 403.043 0.485013 -1.75937 0
M  V30 3947 C 403.094 -2.99418 -2.02561 0
M  V30 3948 O 402.815 -4.18431 -1.29798 0
M  V30 3949 C 404.316 -3.35375 -2.89895 0
M  V30 3950 H 401.536 -0.594618 -0.310918 0
M  V30 3951 H 404.08 -2.01763 -0.333454 0
M  V30 3952 H 402.235 -2.78175 -2.69624 0
M  V30 3953 H 402.649 -4.86736 -1.95419 0
M  V30 3954 H 404.123 -4.23332 -3.54251 0
M  V30 3955 H 404.6 -2.53761 -3.58472 0
M  V30 3956 H 405.206 -3.58796 -2.28355 0
M  V30 3957 N 403.521 0.559213 -1.47345 0
M  V30 3958 C 404.761 1.32728 -1.55444 0
M  V30 3959 C 405.125 1.90838 -0.210895 0
M  V30 3960 O 406.326 2.68282 -0.166719 0
M  V30 3961 C 404.597 2.4092 -2.63993 0
M  V30 3962 S 406.156 3.2784 -2.91661 0
M  V30 3963 H 402.974 0.451883 -0.548929 0
M  V30 3964 H 405.576 0.640404 -1.84714 0
M  V30 3965 H 404.28 1.9666 -3.60212 0
M  V30 3966 H 403.811 3.14351 -2.36531 0
M  V30 3967 H 405.826 4.40341 -2.28722 0
M  V30 3968 N 404.999 1.35443 0.805782 0
M  V30 3969 C 406.224 1.32037 1.59941 0
M  V30 3970 C 406.649 -0.0994215 1.87837 0
M  V30 3971 O 406.007 -1.06648 1.46615 0
M  V30 3972 C 406.055 2.13354 2.90711 0
M  V30 3973 O 405.159 1.5148 3.83572 0
M  V30 3974 H 404.5 0.452666 0.485787 0
M  V30 3975 H 407.03 1.78496 1.00002 0
M  V30 3976 H 407.04 2.25338 3.40128 0
M  V30 3977 H 405.715 3.16572 2.69732 0
M  V30 3978 H 404.292 1.4834 3.42125 0
M  V30 3979 N 406.477 -1.02803 1.19454 0
M  V30 3980 C 407.425 -2.13213 0.929673 0
M  V30 3981 C 408.419 -1.69011 -0.114806 0
M  V30 3982 O 409.625 -1.79967 0.0345147 0
M  V30 3983 H 406 -0.69662 0.28324 0
M  V30 3984 H 407.971 -2.32744 1.86743 0
M  V30 3985 C 406.72 -3.4429 0.485797 0
M  V30 3986 H 406.043 -3.7872 1.28105 0
M  V30 3987 H 407.483 -4.22638 0.339582 0
M  V30 3988 C 405.942 -3.27258 -0.800244 0
M  V30 3989 O 406.472 -3.55967 -1.86146 0
M  V30 3990 N 404.678 -2.80545 -0.75781 0
M  V30 3991 H 404.225 -2.57382 0.106039 0
M  V30 3992 H 404.183 -2.6953 -1.61867 0
M  V30 3993 N 407.956 -0.998596 -1.21925 0
M  V30 3994 C 409.233 -0.593401 -1.86382 0
M  V30 3995 C 409.613 0.92916 -1.89552 0
M  V30 3996 O 408.961 1.81347 -1.39017 0
M  V30 3997 C 409.171 -1.22039 -3.26967 0
M  V30 3998 C 410.519 -1.32449 -4.03413 0
M  V30 3999 O 411.543 -1.17522 -3.36254 0
M  V30 4000 O 410.402 -1.56395 -5.23644 0
M  V30 4001 H 407.496 -0.202385 -0.801854 0
M  V30 4002 H 410.042 -1.09484 -1.29659 0
M  V30 4003 H 408.814 -2.26158 -3.19325 0
M  V30 4004 H 408.437 -0.704906 -3.91301 0
M  V30 4005 N 409.434 1.37368 -0.772513 0
M  V30 4006 C 410.366 2.28899 -0.117502 0
M  V30 4007 C 411.379 1.4867 0.663405 0
M  V30 4008 O 412.568 1.71314 0.501372 0
M  V30 4009 C 409.668 3.2788 0.857192 0
M  V30 4010 C 408.841 4.37207 0.129938 0
M  V30 4011 C 407.9 5.16257 1.01811 0
M  V30 4012 O 406.926 5.67159 0.481601 0
M  V30 4013 N 408.128 5.31058 2.3443 0
M  V30 4014 H 410.893 2.85752 -0.903662 0
M  V30 4015 H 408.454 1.49353 -0.62493 0
M  V30 4016 H 410.446 3.77647 1.45482 0
M  V30 4017 H 409.016 2.7179 1.54432 0
M  V30 4018 H 408.236 3.88827 -0.648605 0
M  V30 4019 H 409.524 5.07434 -0.372559 0
M  V30 4020 H 408.922 4.91287 2.80452 0
M  V30 4021 H 407.479 5.84131 2.89197 0
M  V30 4022 N 410.912 0.523116 1.48665 0
M  V30 4023 C 412.161 -0.01544 2.01694 0
M  V30 4024 C 412.474 -1.35975 1.40606 0
M  V30 4025 O 413.68 -1.98627 1.85093 0
M  V30 4026 C 412.136 -0.0779303 3.59816 0
M  V30 4027 C 411.744 1.26107 4.29885 0
M  V30 4028 C 413.488 -0.565678 4.20714 0
M  V30 4029 C 411.395 1.15954 5.79921 0
M  V30 4030 H 410.325 -0.00954163 0.75394 0
M  V30 4031 H 412.976 0.665865 1.70993 0
M  V30 4032 H 411.358 -0.824165 3.87329 0
M  V30 4033 H 412.532 2.02233 4.14051 0
M  V30 4034 H 410.847 1.68401 3.80828 0
M  V30 4035 H 413.444 -0.6595 5.30617 0
M  V30 4036 H 413.787 -1.56984 3.85567 0
M  V30 4037 H 414.32 0.12467 3.97605 0
M  V30 4038 H 411.059 2.13864 6.19631 0
M  V30 4039 H 410.579 0.439529 5.98187 0
M  V30 4040 H 412.258 0.847361 6.41427 0
M  V30 4041 N 412.39 -1.55475 0.257931 0
M  V30 4042 C 413.639 -1.98383 -0.364275 0
M  V30 4043 C 413.952 -1.14952 -1.58258 0
M  V30 4044 O 415.158 -1.47924 -2.27664 0
M  V30 4045 C 413.614 -3.53037 -0.699479 0
M  V30 4046 C 413.222 -4.45223 0.498046 0
M  V30 4047 C 414.966 -4.04575 -1.28526 0
M  V30 4048 C 412.873 -5.91238 0.138383 0
M  V30 4049 H 411.803 -0.740911 -0.13988 0
M  V30 4050 H 414.454 -1.79936 0.359883 0
M  V30 4051 H 412.836 -3.6722 -1.48207 0
M  V30 4052 H 414.01 -4.42803 1.27522 0
M  V30 4053 H 412.325 -4.04226 0.999503 0
M  V30 4054 H 414.922 -5.11196 -1.56788 0
M  V30 4055 H 415.265 -3.5258 -2.21344 0
M  V30 4056 H 415.798 -3.93762 -0.565337 0
M  V30 4057 H 412.537 -6.47294 1.03398 0
M  V30 4058 H 412.057 -5.96768 -0.602374 0
M  V30 4059 H 413.736 -6.46413 -0.27553 0
M  V30 4060 N 413.868 0.0150385 -1.57593 0
M  V30 4061 C 415.096 0.714395 -1.94175 0
M  V30 4062 C 415.511 1.68135 -0.858841 0
M  V30 4063 O 414.868 1.81766 0.163567 0
M  V30 4064 C 414.919 1.45933 -3.30735 0
M  V30 4065 O 414.64 0.531167 -4.34868 0
M  V30 4066 C 416.141 2.25456 -3.81686 0
M  V30 4067 H 413.361 0.199923 -0.640525 0
M  V30 4068 H 415.905 -0.0316096 -2.04476 0
M  V30 4069 H 414.06 2.15709 -3.21789 0
M  V30 4070 H 414.474 1.05509 -5.13778 0
M  V30 4071 H 415.948 2.731 -4.79709 0
M  V30 4072 H 416.425 3.07485 -3.13607 0
M  V30 4073 H 417.031 1.60727 -3.9376 0
M  V30 4074 N 415.346 1.54954 0.287554 0
M  V30 4075 C 416.574 1.78881 1.03967 0
M  V30 4076 C 416.989 0.554894 1.80462 0
M  V30 4077 O 416.346 -0.475676 1.76192 0
M  V30 4078 C 416.397 3.00488 2.0097 0
M  V30 4079 O 416.118 4.19113 1.27577 0
M  V30 4080 C 417.619 3.36907 2.88112 0
M  V30 4081 H 414.839 0.596259 0.307761 0
M  V30 4082 H 417.383 2.01937 0.322749 0
M  V30 4083 H 415.538 2.79601 2.68145 0
M  V30 4084 H 415.952 4.87765 1.92835 0
M  V30 4085 H 417.426 4.25205 3.52001 0
M  V30 4086 H 417.903 2.55659 3.57121 0
M  V30 4087 H 418.509 3.60001 2.26449 0
M  V30 4088 N 416.824 -0.551391 1.4764 0
M  V30 4089 C 418.049 -1.33837 1.58437 0
M  V30 4090 C 418.474 -1.866 0.237063 0
M  V30 4091 O 417.832 -1.6328 -0.787994 0
M  V30 4092 C 417.88 -2.48014 2.61766 0
M  V30 4093 O 416.984 -3.50419 2.1744 0
M  V30 4094 H 416.325 -0.397299 0.532024 0
M  V30 4095 H 418.855 -0.665759 1.93465 0
M  V30 4096 H 418.865 -2.94503 2.82369 0
M  V30 4097 H 417.54 -2.08969 3.5959 0
M  V30 4098 H 416.117 -3.10196 2.06961 0
M  V30 4099 N 418.302 -1.35869 -0.798587 0
M  V30 4100 C 419.551 -1.28921 -1.5512 0
M  V30 4101 C 419.864 0.13208 -1.95154 0
M  V30 4102 O 421.07 0.323879 -2.69561 0
M  V30 4103 C 419.526 -2.26141 -2.79979 0
M  V30 4104 C 419.134 -3.73658 -2.47151 0
M  V30 4105 C 420.878 -2.28152 -3.57976 0
M  V30 4106 C 418.785 -4.62679 -3.6835 0
M  V30 4107 H 417.715 -0.479031 -0.582276 0
M  V30 4108 H 420.366 -1.61179 -0.877125 0
M  V30 4109 H 418.748 -1.86865 -3.49138 0
M  V30 4110 H 419.922 -4.21616 -1.85947 0
M  V30 4111 H 418.237 -3.74333 -1.82383 0
M  V30 4112 H 420.834 -2.91875 -4.4801 0
M  V30 4113 H 421.177 -1.28748 -3.95891 0
M  V30 4114 H 421.71 -2.65998 -2.95787 0
M  V30 4115 H 418.449 -5.63111 -3.35538 0
M  V30 4116 H 417.969 -4.19442 -4.28752 0
M  V30 4117 H 419.648 -4.78498 -4.35487 0
M  V30 4118 N 419.78 1.02168 -1.19998 0
M  V30 4119 C 421.196 1.27969 -0.953737 0
M  V30 4120 C 421.396 1.98079 0.369703 0
M  V30 4121 O 420.452 2.27306 1.09947 0
M  V30 4122 C 421.765 2.11971 -2.13281 0
M  V30 4123 C 423.313 2.25255 -2.17323 0
M  V30 4124 C 423.788 3.12632 -3.34702 0
M  V30 4125 N 425.279 3.2022 -3.34684 0
M  V30 4126 C 426.014 3.88039 -4.22153 0
M  V30 4127 N 425.51 4.58027 -5.19791 0
M  V30 4128 N 427.303 3.84511 -4.10009 0
M  V30 4129 H 419.454 0.550794 -2.05134 0
M  V30 4130 H 421.717 0.305683 -0.897364 0
M  V30 4131 H 421.423 1.67785 -3.09097 0
M  V30 4132 H 421.297 3.12699 -2.10949 0
M  V30 4133 H 423.684 2.68667 -1.22073 0
M  V30 4134 H 423.765 1.24053 -2.23706 0
M  V30 4135 H 423.409 2.69926 -4.30235 0
M  V30 4136 H 423.339 4.13909 -3.25556 0
M  V30 4137 H 425.83 2.70382 -2.64012 0
M  V30 4138 H 426.143 5.07429 -5.82868 0
M  V30 4139 H 424.488 4.56869 -5.23733 0
M  V30 4140 H 427.679 3.28978 -3.33003 0
M  V30 4141 H 427.852 4.3709 -4.78389 0
M  V30 4142 N 421.258 1.00505 1.21394 0
M  V30 4143 C 422.506 0.686415 1.90086 0
M  V30 4144 C 422.827 -0.785264 1.7849 0
M  V30 4145 O 422.097 -1.56387 1.17983 0
M  V30 4146 H 420.677 0.2509 0.703604 0
M  V30 4147 H 423.339 1.27417 1.47482 0
M  V30 4148 H 422.435 0.959621 2.96981 0
M  V30 4149 N 422.737 -1.36956 0.779787 0
M  V30 4150 C 423.667 -2.32761 0.185651 0
M  V30 4151 C 424.648 -1.56177 -0.673989 0
M  V30 4152 O 425.833 -1.84378 -0.609797 0
M  V30 4153 C 422.963 -3.40418 -0.687964 0
M  V30 4154 C 421.917 -4.27941 0.0710102 0
M  V30 4155 C 421.243 -5.26681 -0.922573 0
M  V30 4156 C 422.543 -5.07006 1.25467 0
M  V30 4157 H 424.237 -2.82698 0.986008 0
M  V30 4158 H 421.783 -1.3592 0.475592 0
M  V30 4159 H 423.736 -4.06423 -1.11348 0
M  V30 4160 H 422.46 -2.89025 -1.52093 0
M  V30 4161 H 421.119 -3.63478 0.47739 0
M  V30 4162 H 420.767 -4.71565 -1.7503 0
M  V30 4163 H 420.467 -5.86103 -0.419237 0
M  V30 4164 H 421.991 -5.9556 -1.34686 0
M  V30 4165 H 423.405 -5.66105 0.905401 0
M  V30 4166 H 421.802 -5.75793 1.69063 0
M  V30 4167 H 422.872 -4.3921 2.05481 0
M  V30 4168 N 424.215 -0.530993 -1.48385 0
M  V30 4169 C 425.443 -0.00134122 -2.069 0
M  V30 4170 C 425.858 1.2805 -1.3874 0
M  V30 4171 O 425.215 1.76204 -0.475244 0
M  V30 4172 C 425.266 0.225256 -3.60798 0
M  V30 4173 O 424.987 -1.0058 -4.26398 0
M  V30 4174 C 426.488 0.795172 -4.3611 0
M  V30 4175 H 423.708 -0.0339704 -0.67014 0
M  V30 4176 H 426.252 -0.736926 -1.90761 0
M  V30 4177 H 424.407 0.910891 -3.76539 0
M  V30 4178 H 424.821 -0.787165 -5.1856 0
M  V30 4179 H 426.295 0.903143 -5.44562 0
M  V30 4180 H 426.772 1.80031 -4.00606 0
M  V30 4181 H 427.378 0.146069 -4.25049 0
M  V30 4182 N 425.693 1.55336 -0.266172 0
M  V30 4183 C 426.933 2.01303 0.354459 0
M  V30 4184 C 427.297 1.15046 1.53715 0
M  V30 4185 O 428.498 1.50554 2.22681 0
M  V30 4186 C 426.769 3.49748 0.735579 0
M  V30 4187 S 428.328 4.1771 1.34401 0
M  V30 4188 H 425.146 0.702333 0.110674 0
M  V30 4189 H 427.748 1.91653 -0.385916 0
M  V30 4190 H 426.452 4.10181 -0.134196 0
M  V30 4191 H 425.983 3.63364 1.50764 0
M  V30 4192 H 427.998 4.20594 2.63278 0
M  V30 4193 N 427.171 -0.0066808 1.57599 0
M  V30 4194 C 428.448 -0.729586 1.81484 0
M  V30 4195 C 428.828 -1.92359 0.869558 0
M  V30 4196 O 428.176 -2.28348 -0.0832533 0
M  V30 4197 C 428.386 -1.1416 3.29801 0
M  V30 4198 C 429.734 -1.54823 3.95367 0
M  V30 4199 O 430.758 -1.23558 3.34084 0
M  V30 4200 O 429.617 -2.12937 5.03309 0
M  V30 4201 H 426.711 -0.354674 0.747085 0
M  V30 4202 H 429.257 0.0182609 1.6969 0
M  V30 4203 H 428.029 -0.290231 3.90222 0
M  V30 4204 H 427.652 -1.94876 3.46568 0
M  V30 4205 N 428.649 -1.55105 -0.279332 0
M  V30 4206 C 430.06 -1.66186 -0.850832 0
M  V30 4207 C 430.411 -0.584707 -1.87285 0
M  V30 4208 O 429.536 0.274919 -2.14647 0
M  V30 4209 C 430.131 -3.01264 -1.55001 0
M  V30 4210 C 428.69 -3.14394 -2.06963 0
M  V30 4211 C 427.837 -2.61959 -0.909536 0
M  V30 4212 H 430.788 -1.58602 -0.0558235 0
M  V30 4213 H 430.809 -2.93899 -2.41669 0
M  V30 4214 H 430.321 -3.7964 -0.805931 0
M  V30 4215 H 428.422 -2.4078 -2.84352 0
M  V30 4216 H 428.535 -4.20867 -2.28928 0
M  V30 4217 H 426.899 -2.18957 -1.30116 0
M  V30 4218 H 427.682 -3.42833 -0.179062 0
M  V30 4219 N 430.127 0.543554 -1.4793 0
M  V30 4220 C 431.543 0.870806 -1.3375 0
M  V30 4221 C 431.743 1.9864 -0.338261 0
M  V30 4222 O 430.799 2.51305 0.245371 0
M  V30 4223 C 432.112 1.25114 -2.73435 0
M  V30 4224 C 433.66 1.3618 -2.81823 0
M  V30 4225 C 434.135 1.77563 -4.22179 0
M  V30 4226 N 435.626 1.8469 -4.24787 0
M  V30 4227 C 436.361 2.18067 -5.30315 0
M  V30 4228 N 435.857 2.49963 -6.46135 0
M  V30 4229 N 437.65 2.18958 -5.17701 0
M  V30 4230 H 429.801 -0.19275 -2.11524 0
M  V30 4231 H 432.064 -0.0235777 -0.947707 0
M  V30 4232 H 431.77 0.50514 -3.48053 0
M  V30 4233 H 431.644 2.20431 -3.06088 0
M  V30 4234 H 434.031 2.09859 -2.07468 0
M  V30 4235 H 434.112 0.390169 -2.52807 0
M  V30 4236 H 433.756 1.04449 -4.97044 0
M  V30 4237 H 433.686 2.75753 -4.48629 0
M  V30 4238 H 436.177 1.62372 -3.41239 0
M  V30 4239 H 436.49 2.74497 -7.22406 0
M  V30 4240 H 434.835 2.47513 -6.49432 0
M  V30 4241 H 438.026 1.93488 -4.2624 0
M  V30 4242 H 438.199 2.44639 -6.00047 0
M  V30 4243 N 431.605 1.3629 0.791371 0
M  V30 4244 C 432.538 1.24816 1.9104 0
M  V30 4245 C 433.516 0.132739 1.62057 0
M  V30 4246 O 434.7 0.303527 1.8604 0
M  V30 4247 C 431.827 0.925355 3.25814 0
M  V30 4248 C 430.873 2.05495 3.7373 0
M  V30 4249 S 431.706 3.67255 3.89723 0
M  V30 4250 C 432.862 3.37084 5.27376 0
M  V30 4251 H 433.095 2.19533 2.00481 0
M  V30 4252 H 430.628 1.21684 0.950393 0
M  V30 4253 H 432.586 0.745924 4.03666 0
M  V30 4254 H 431.247 -0.00400098 3.141 0
M  V30 4255 H 430.44 1.7836 4.71385 0
M  V30 4256 H 430.042 2.1935 3.02922 0
M  V30 4257 H 432.334 2.90856 6.1189 0
M  V30 4258 H 433.277 4.33995 5.59512 0
M  V30 4259 H 433.685 2.7248 4.94383 0
M  V30 4260 N 433.083 -1.0153 1.20538 0
M  V30 4261 C 434.33 -1.75149 1.01633 0
M  V30 4262 C 434.658 -1.89189 -0.451399 0
M  V30 4263 O 433.913 -1.41551 -1.35136 0
M  V30 4264 C 434.212 -3.17213 1.64654 0
M  V30 4265 C 433.878 -3.23146 3.14464 0
M  V30 4266 C 432.54 -3.24472 3.55347 0
M  V30 4267 C 434.892 -3.21207 4.10458 0
M  V30 4268 C 432.22 -3.21532 4.90748 0
M  V30 4269 C 434.572 -3.19808 5.45807 0
M  V30 4270 C 433.236 -3.19439 5.86102 0
M  V30 4271 H 432.506 -0.640914 0.3719 0
M  V30 4272 H 435.153 -1.19071 1.49981 0
M  V30 4273 H 433.458 -3.76457 1.08571 0
M  V30 4274 H 435.155 -3.72871 1.4754 0
M  V30 4275 H 431.745 -3.2285 2.81897 0
M  V30 4276 H 435.929 -3.19351 3.79906 0
M  V30 4277 H 431.185 -3.19578 5.21229 0
M  V30 4278 H 435.359 -3.1726 6.19935 0
M  V30 4279 H 432.986 -3.16915 6.90991 0
M  V30 4280 N 434.561 -1.01147 -1.20859 0
M  V30 4281 C 435.491 -0.597663 -2.25722 0
M  V30 4282 C 436.472 0.384744 -1.65692 0
M  V30 4283 O 437.657 0.271303 -1.92296 0
M  V30 4284 C 434.787 0.0700149 -3.47229 0
M  V30 4285 C 433.741 -0.832843 -4.19819 0
M  V30 4286 C 433.067 -0.0312202 -5.34691 0
M  V30 4287 C 434.367 -2.1385 -4.76514 0
M  V30 4288 H 436.061 -1.47423 -2.60589 0
M  V30 4289 H 433.607 -0.710301 -1.25263 0
M  V30 4290 H 435.56 0.37103 -4.19763 0
M  V30 4291 H 434.284 0.981259 -3.11511 0
M  V30 4292 H 432.943 -1.11778 -3.49144 0
M  V30 4293 H 432.591 0.881515 -4.95215 0
M  V30 4294 H 432.291 -0.632434 -5.84187 0
M  V30 4295 H 433.815 0.26346 -6.10031 0
M  V30 4296 H 435.229 -1.9002 -5.40893 0
M  V30 4297 H 433.626 -2.69012 -5.36426 0
M  V30 4298 H 434.696 -2.80495 -3.95538 0
M  V30 4299 N 436.039 1.36541 -0.78704 0
M  V30 4300 C 437.455 1.52571 -0.46844 0
M  V30 4301 C 437.655 1.7415 1.01361 0
M  V30 4302 O 436.711 1.77163 1.79915 0
M  V30 4303 C 438.024 2.71299 -1.29682 0
M  V30 4304 C 439.572 2.85169 -1.29027 0
M  V30 4305 C 440.047 4.06898 -2.10233 0
M  V30 4306 N 441.538 4.1404 -2.07666 0
M  V30 4307 C 442.273 5.07301 -2.67271 0
M  V30 4308 N 441.769 6.06021 -3.35724 0
M  V30 4309 N 443.562 4.99898 -2.57018 0
M  V30 4310 H 435.713 1.20788 -1.74711 0
M  V30 4311 H 437.976 0.589364 -0.742532 0
M  V30 4312 H 437.682 2.61868 -2.34773 0
M  V30 4313 H 437.556 3.6539 -0.936479 0
M  V30 4314 H 439.943 2.94062 -0.247284 0
M  V30 4315 H 440.024 1.91992 -1.69035 0
M  V30 4316 H 439.668 3.98766 -3.1456 0
M  V30 4317 H 439.598 4.99218 -1.67597 0
M  V30 4318 H 442.089 3.43357 -1.57843 0
M  V30 4319 H 442.402 6.73741 -3.78541 0
M  V30 4320 H 440.747 6.06253 -3.39826 0
M  V30 4321 H 443.938 4.21724 -2.03142 0
M  V30 4322 H 444.111 5.72392 -3.03761 0
M  V30 4323 N 437.518 0.538854 1.48102 0
M  V30 4324 C 438.448 -0.207654 2.32575 0
M  V30 4325 C 439.429 -0.926559 1.4265 0
M  V30 4326 O 440.614 -0.91061 1.71527 0
M  V30 4327 C 437.744 -1.24957 3.24042 0
M  V30 4328 C 436.698 -0.648263 4.23062 0
M  V30 4329 C 436.024 -1.79348 5.03725 0
M  V30 4330 C 437.324 0.385897 5.20872 0
M  V30 4331 H 439.018 0.497534 2.95237 0
M  V30 4332 H 436.564 0.240715 1.41974 0
M  V30 4333 H 438.517 -1.77983 3.81969 0
M  V30 4334 H 437.241 -1.98446 2.59397 0
M  V30 4335 H 435.9 -0.139452 3.66335 0
M  V30 4336 H 435.548 -2.51696 4.35498 0
M  V30 4337 H 435.248 -1.39702 5.70751 0
M  V30 4338 H 436.772 -2.32735 5.64506 0
M  V30 4339 H 438.186 -0.057607 5.73271 0
M  V30 4340 H 436.583 0.700227 5.96001 0
M  V30 4341 H 437.653 1.28848 4.67468 0
M  V30 4342 N 438.996 -1.55193 0.274407 0
M  V30 4343 C 440.224 -2.03987 -0.345943 0
M  V30 4344 C 440.639 -1.15279 -1.4952 0
M  V30 4345 O 439.996 -0.172759 -1.8168 0
M  V30 4346 C 440.047 -3.51898 -0.827631 0
M  V30 4347 O 439.768 -4.37231 0.275855 0
M  V30 4348 C 441.269 -4.16577 -1.51587 0
M  V30 4349 H 438.489 -0.666335 -0.0789892 0
M  V30 4350 H 441.033 -2.00423 0.406294 0
M  V30 4351 H 439.188 -3.55909 -1.52996 0
M  V30 4352 H 439.602 -5.24415 -0.0943638 0
M  V30 4353 H 441.076 -5.21678 -1.80433 0
M  V30 4354 H 441.553 -3.64707 -2.44716 0
M  V30 4355 H 442.159 -4.16568 -0.857409 0
M  V30 4356 N 440.474 -0.00167713 -1.576 0
M  V30 4357 C 441.424 0.997744 -2.0501 0
M  V30 4358 C 442.408 1.30214 -0.94515 0
M  V30 4359 O 443.6 1.29284 -1.20891 0
M  V30 4360 C 440.729 2.2892 -2.55833 0
M  V30 4361 C 439.815 2.01437 -3.73208 0
M  V30 4362 N 440.206 1.44119 -4.84833 0
M  V30 4363 C 438.504 2.31571 -3.8117 0
M  V30 4364 C 439.205 1.33145 -5.66257 0
M  V30 4365 N 438.181 1.81763 -5.12312 0
M  V30 4366 H 441.983 0.549098 -2.88725 0
M  V30 4367 H 439.497 0.20398 -1.61114 0
M  V30 4368 H 441.494 3.01361 -2.88075 0
M  V30 4369 H 440.154 2.74436 -1.73537 0
M  V30 4370 H 441.165 1.11978 -5.0565 0
M  V30 4371 H 437.842 2.7995 -3.09732 0
M  V30 4372 H 439.232 0.890567 -6.65972 0
M  V30 4373 N 441.952 1.55251 0.271103 0
M  V30 4374 C 443.363 1.66635 0.842007 0
M  V30 4375 C 443.714 0.594631 1.86972 0
M  V30 4376 O 442.839 -0.263532 2.14789 0
M  V30 4377 C 443.434 3.02082 1.53401 0
M  V30 4378 C 441.993 3.15487 2.05293 0
M  V30 4379 C 441.14 2.62438 0.895631 0
M  V30 4380 H 444.091 1.58629 0.0474117 0
M  V30 4381 H 444.112 2.95176 2.40107 0
M  V30 4382 H 443.624 3.80062 0.785786 0
M  V30 4383 H 441.725 2.42284 2.83071 0
M  V30 4384 H 441.838 4.22075 2.26693 0
M  V30 4385 H 440.202 2.19644 1.28953 0
M  V30 4386 H 440.985 3.42923 0.160878 0
M  V30 4387 N 443.43 -0.535701 1.48216 0
M  V30 4388 C 444.34 -1.66785 1.64985 0
M  V30 4389 C 445.356 -1.65654 0.532414 0
M  V30 4390 O 446.532 -1.8471 0.80275 0
M  V30 4391 C 443.597 -3.0326 1.68031 0
M  V30 4392 C 442.658 -3.1529 2.9136 0
M  V30 4393 C 441.891 -4.45255 2.94252 0
M  V30 4394 O 442.114 -5.32011 2.05719 0
M  V30 4395 O 441.048 -4.6153 3.86359 0
M  V30 4396 H 444.874 -1.55576 2.60825 0
M  V30 4397 H 442.459 -0.70815 1.31551 0
M  V30 4398 H 444.341 -3.84436 1.72589 0
M  V30 4399 H 443.016 -3.14805 0.753628 0
M  V30 4400 H 441.923 -2.3343 2.92337 0
M  V30 4401 H 443.256 -3.08658 3.83394 0
M  V30 4402 N 444.908 -1.36708 -0.784132 0
M  V30 4403 C 445.838 -1.34153 -1.91116 0
M  V30 4404 C 446.819 -0.212121 -1.68772 0
M  V30 4405 O 448.004 -0.410581 -1.8981 0
M  V30 4406 C 445.134 -1.13535 -3.28218 0
M  V30 4407 C 444.088 -2.23356 -3.65097 0
M  V30 4408 C 443.414 -1.87875 -5.00607 0
M  V30 4409 C 444.714 -3.65473 -3.73131 0
M  V30 4410 H 446.408 -2.28459 -1.93512 0
M  V30 4411 H 443.954 -1.09973 -0.929618 0
M  V30 4412 H 445.907 -1.10381 -4.06687 0
M  V30 4413 H 444.631 -0.156804 -3.26223 0
M  V30 4414 H 443.29 -2.25645 -2.88929 0
M  V30 4415 H 442.938 -0.885814 -4.95139 0
M  V30 4416 H 442.638 -2.61406 -5.26252 0
M  V30 4417 H 444.162 -1.86286 -5.81489 0
M  V30 4418 H 445.576 -3.65382 -4.41779 0
M  V30 4419 H 443.973 -4.37953 -4.10265 0
M  V30 4420 H 445.043 -3.99995 -2.74102 0
M  V30 4421 N 446.386 1.0089 -1.21074 0
M  V30 4422 C 447.626 1.76142 -1.03699 0
M  V30 4423 C 447.99 1.87292 0.422587 0
M  V30 4424 O 449.191 2.59068 0.716752 0
M  V30 4425 C 447.462 3.13805 -1.7106 0
M  V30 4426 S 449.021 4.04996 -1.68889 0
M  V30 4427 H 445.839 0.606113 -0.371683 0
M  V30 4428 H 448.441 1.20744 -1.53756 0
M  V30 4429 H 447.145 3.0332 -2.76451 0
M  V30 4430 H 446.676 3.74276 -1.21166 0
M  V30 4431 H 448.691 4.90842 -0.727211 0
M  V30 4432 N 447.864 1.01787 1.20321 0
M  V30 4433 C 448.774 0.598898 2.26827 0
M  V30 4434 C 449.79 -0.36418 1.70146 0
M  V30 4435 O 450.966 -0.224812 2.00141 0
M  V30 4436 C 448.031 -0.0549769 3.46656 0
M  V30 4437 C 447.092 0.954205 4.18561 0
M  V30 4438 C 446.325 0.331439 5.3267 0
M  V30 4439 O 446.548 -0.86851 5.63749 0
M  V30 4440 O 445.482 1.0488 5.92692 0
M  V30 4441 H 449.308 1.48562 2.64883 0
M  V30 4442 H 446.893 0.787434 1.26964 0
M  V30 4443 H 448.775 -0.420102 4.19301 0
M  V30 4444 H 447.45 -0.915876 3.10473 0
M  V30 4445 H 446.357 1.37072 3.48083 0
M  V30 4446 H 447.69 1.78511 4.58688 0
M  V30 4447 N 449.342 -1.36122 0.79427 0
M  V30 4448 C 450.272 -2.32551 0.210328 0
M  V30 4449 C 451.253 -1.56884 -0.657386 0
M  V30 4450 O 452.438 -1.85014 -0.590207 0
M  V30 4451 C 449.568 -3.41128 -0.651819 0
M  V30 4452 C 448.522 -4.27842 0.116395 0
M  V30 4453 C 447.848 -5.2763 -0.86666 0
M  V30 4454 C 449.148 -5.05647 1.30837 0
M  V30 4455 H 450.842 -2.81636 1.01594 0
M  V30 4456 H 448.388 -1.35407 0.489981 0
M  V30 4457 H 450.341 -4.07581 -1.07031 0
M  V30 4458 H 449.065 -2.90622 -1.49019 0
M  V30 4459 H 447.724 -3.62952 0.515915 0
M  V30 4460 H 447.372 -4.73395 -1.70019 0
M  V30 4461 H 447.072 -5.86514 -0.35705 0
M  V30 4462 H 448.596 -5.96955 -1.28361 0
M  V30 4463 H 450.01 -5.65113 0.965393 0
M  V30 4464 H 448.407 -5.73967 1.75161 0
M  V30 4465 H 449.477 -4.37006 2.10128 0
M  V30 4466 N 450.82 -0.546701 -1.47814 0
M  V30 4467 C 452.045 -0.021268 -2.07389 0
M  V30 4468 C 452.47 1.25822 -1.39822 0
M  V30 4469 O 451.828 1.75111 -0.46968 0
M  V30 4470 C 451.876 0.168502 -3.60206 0
M  V30 4471 O 450.98 1.23347 -3.93522 0
M  V30 4472 H 450.321 -0.0466108 -0.662362 0
M  V30 4473 H 452.851 -0.759387 -1.89985 0
M  V30 4474 H 452.861 0.385982 -4.0617 0
M  V30 4475 H 451.536 -0.766075 -4.08784 0
M  V30 4476 H 450.113 0.997319 -3.59316 0
M  V30 4477 N 452.299 1.55045 -0.282633 0
M  V30 4478 C 453.548 1.98938 0.332667 0
M  V30 4479 C 453.861 1.17455 1.56409 0
M  V30 4480 O 455.067 1.51527 2.25282 0
M  V30 4481 C 453.523 3.54105 0.643226 0
M  V30 4482 C 453.131 4.44374 -0.568814 0
M  V30 4483 C 454.875 4.06569 1.22074 0
M  V30 4484 C 452.782 5.90943 -0.232426 0
M  V30 4485 H 451.712 0.743043 0.128075 0
M  V30 4486 H 454.363 1.79341 -0.388464 0
M  V30 4487 H 452.745 3.69532 1.42346 0
M  V30 4488 H 453.919 4.40718 -1.34551 0
M  V30 4489 H 452.234 4.02585 -1.06369 0
M  V30 4490 H 454.831 5.13626 1.48635 0
M  V30 4491 H 455.174 3.56057 2.15707 0
M  V30 4492 H 455.707 3.94612 0.502621 0
M  V30 4493 H 452.446 6.45567 -1.13683 0
M  V30 4494 H 451.966 5.9765 0.507357 0
M  V30 4495 H 453.645 6.4677 0.172657 0
M  V30 4496 N 453.777 0.010035 1.57597 0
M  V30 4497 C 455.002 -0.687021 1.95691 0
M  V30 4498 C 455.427 -1.65952 0.885519 0
M  V30 4499 O 454.785 -1.80633 -0.15543 0
M  V30 4500 C 454.833 -1.3864 3.32884 0
M  V30 4501 O 453.937 -2.50115 3.27897 0
M  V30 4502 H 453.278 -0.181989 0.638573 0
M  V30 4503 H 455.808 0.0662122 2.04493 0
M  V30 4504 H 455.818 -1.74754 3.6868 0
M  V30 4505 H 454.493 -0.673411 4.10412 0
M  V30 4506 H 453.07 -2.16253 3.03791 0
M  V30 4507 N 455.255 -1.55392 -0.262866 0
M  V30 4508 C 456.485 -1.80251 -1.00961 0
M  V30 4509 C 456.893 -0.58117 -1.80053 0
M  V30 4510 O 456.236 0.459427 -1.77862 0
M  V30 4511 C 456.298 -2.98207 -2.00781 0
M  V30 4512 C 455.962 -4.34856 -1.40533 0
M  V30 4513 C 456.959 -5.13459 -0.815853 0
M  V30 4514 C 454.644 -4.8153 -1.42948 0
M  V30 4515 C 456.638 -6.36875 -0.258562 0
M  V30 4516 C 454.325 -6.04899 -0.868334 0
M  V30 4517 C 455.323 -6.8241 -0.283884 0
M  V30 4518 O 455.011 -8.03451 0.268644 0
M  V30 4519 H 454.743 -0.604049 -0.303482 0
M  V30 4520 H 457.297 -2.03257 -0.295926 0
M  V30 4521 H 455.527 -2.70917 -2.75936 0
M  V30 4522 H 457.216 -3.10299 -2.61667 0
M  V30 4523 H 457.982 -4.78526 -0.789812 0
M  V30 4524 H 453.861 -4.21201 -1.87378 0
M  V30 4525 H 457.405 -6.97318 0.198257 0
M  V30 4526 H 453.302 -6.39312 -0.891649 0
M  V30 4527 H 454.07 -8.18346 0.158974 0
M  V30 4528 N 456.733 0.527833 -1.48498 0
M  V30 4529 C 457.663 1.64136 -1.66077 0
M  V30 4530 C 458.644 1.62286 -0.509625 0
M  V30 4531 O 459.829 1.79449 -0.742413 0
M  V30 4532 C 456.959 3.02717 -1.70234 0
M  V30 4533 C 455.913 3.19426 -2.8487 0
M  V30 4534 C 455.239 4.5909 -2.74118 0
M  V30 4535 C 456.539 3.01993 -4.26142 0
M  V30 4536 H 458.233 1.4968 -2.593 0
M  V30 4537 H 455.779 0.718654 -1.24785 0
M  V30 4538 H 457.732 3.80491 -1.8112 0
M  V30 4539 H 456.456 3.18201 -0.735911 0
M  V30 4540 H 455.115 2.4407 -2.73542 0
M  V30 4541 H 454.763 4.71413 -1.7544 0
M  V30 4542 H 454.463 4.71214 -3.51042 0
M  V30 4543 H 455.987 5.3896 -2.86974 0
M  V30 4544 H 457.401 3.69558 -4.38292 0
M  V30 4545 H 455.798 3.2561 -5.04082 0
M  V30 4546 H 456.868 1.98396 -4.42456 0
M  V30 4547 N 458.211 1.37122 0.776871 0
M  V30 4548 C 459.141 1.35164 1.90402 0
M  V30 4549 C 460.122 0.221069 1.68657 0
M  V30 4550 O 461.307 0.420642 1.8959 0
M  V30 4551 C 458.437 1.15274 3.27611 0
M  V30 4552 C 457.391 2.25289 3.63908 0
M  V30 4553 C 456.717 1.90527 4.99603 0
M  V30 4554 C 458.017 3.67446 3.71188 0
M  V30 4555 H 459.711 2.29482 1.92297 0
M  V30 4556 H 457.257 1.10465 0.923773 0
M  V30 4557 H 459.21 1.12536 4.06096 0
M  V30 4558 H 457.934 0.174102 3.26136 0
M  V30 4559 H 456.593 2.27174 2.87728 0
M  V30 4560 H 456.241 0.91206 4.94662 0
M  V30 4561 H 455.941 2.64193 5.24858 0
M  V30 4562 H 457.465 1.89367 5.80493 0
M  V30 4563 H 458.879 3.67719 4.39836 0
M  V30 4564 H 457.276 4.40123 4.07936 0
M  V30 4565 H 458.346 4.01443 2.71977 0
M  V30 4566 N 459.689 -1.00246 1.21608 0
M  V30 4567 C 460.935 -1.74319 1.03638 0
M  V30 4568 C 461.268 -1.89408 -0.428749 0
M  V30 4569 O 460.543 -1.43026 -1.3181 0
M  V30 4570 C 460.826 -3.15431 1.73711 0
M  V30 4571 C 460.679 -3.08049 3.27759 0
M  V30 4572 C 461.998 -4.14407 1.48173 0
M  V30 4573 H 459.117 -0.632741 0.377899 0
M  V30 4574 H 461.759 -1.16853 1.49818 0
M  V30 4575 H 459.909 -3.64493 1.34452 0
M  V30 4576 H 461.581 -2.66681 3.76403 0
M  V30 4577 H 459.824 -2.45088 3.57931 0
M  V30 4578 H 460.495 -4.07862 3.71958 0
M  V30 4579 H 462.971 -3.74061 1.82258 0
M  V30 4580 H 461.847 -5.11279 1.99713 0
M  V30 4581 H 462.108 -4.40174 0.412273 0
M  V30 4582 N 461.167 -1.02423 -1.1978 0
M  V30 4583 C 462.397 -0.736387 -1.93031 0
M  V30 4584 C 462.805 0.708023 -1.75453 0
M  V30 4585 O 462.148 1.4927 -1.07071 0
M  V30 4586 C 462.21 -1.00194 -3.45255 0
M  V30 4587 C 461.874 -2.43698 -3.86601 0
M  V30 4588 C 462.871 -3.41814 -3.91738 0
M  V30 4589 C 460.556 -2.77975 -4.18372 0
M  V30 4590 C 462.55 -4.72265 -4.28071 0
M  V30 4591 C 460.237 -4.08636 -4.54378 0
M  V30 4592 C 461.235 -5.05592 -4.59201 0
M  V30 4593 O 460.923 -6.33914 -4.94376 0
M  V30 4594 H 460.655 -0.269116 -0.620123 0
M  V30 4595 H 463.209 -1.37043 -1.52998 0
M  V30 4596 H 461.439 -0.310747 -3.85449 0
M  V30 4597 H 463.128 -0.704488 -3.9974 0
M  V30 4598 H 463.894 -3.16671 -3.67348 0
M  V30 4599 H 459.773 -2.0319 -4.13805 0
M  V30 4600 H 463.317 -5.4794 -4.3175 0
M  V30 4601 H 459.214 -4.33556 -4.78226 0
M  V30 4602 H 459.982 -6.38317 -5.12341 0
M  V30 4603 N 462.645 1.35699 -0.801477 0
M  V30 4604 C 463.891 1.99208 -0.380022 0
M  V30 4605 C 464.224 1.63445 1.04878 0
M  V30 4606 O 463.499 0.895223 1.72673 0
M  V30 4607 C 463.782 3.55755 -0.557708 0
M  V30 4608 C 463.635 4.01332 -2.03107 0
M  V30 4609 C 464.954 4.40096 0.0197968 0
M  V30 4610 H 462.073 0.723667 -0.139552 0
M  V30 4611 H 464.715 1.60928 -1.01006 0
M  V30 4612 H 462.865 3.88494 -0.0213741 0
M  V30 4613 H 464.537 3.79026 -2.62939 0
M  V30 4614 H 462.78 3.52429 -2.52936 0
M  V30 4615 H 463.451 5.10234 -2.1063 0
M  V30 4616 H 465.927 4.13786 -0.438179 0
M  V30 4617 H 464.803 5.48735 -0.134477 0
M  V30 4618 H 465.064 4.2786 1.11303 0
M  V30 4619 N 464.123 0.554532 1.47522 0
M  V30 4620 C 465.534 0.120446 1.86311 0
M  V30 4621 C 465.885 -1.30904 1.46145 0
M  V30 4622 O 465.01 -1.98434 0.863294 0
M  V30 4623 C 465.605 0.211808 3.38137 0
M  V30 4624 C 464.164 -0.167224 3.76028 0
M  V30 4625 C 463.311 0.560576 2.71575 0
M  V30 4626 H 466.262 0.764408 1.39077 0
M  V30 4627 H 466.283 -0.570275 3.76202 0
M  V30 4628 H 465.795 1.25232 3.6734 0
M  V30 4629 H 463.896 -1.20894 3.52442 0
M  V30 4630 H 464.009 0.189473 4.78725 0
M  V30 4631 H 462.373 0.00396836 2.547 0
M  V30 4632 H 463.156 1.60219 3.0362 0
M  V30 4633 N 465.601 -1.54893 0.290851 0
M  V30 4634 C 466.548 -2.23138 -0.58974 0
M  V30 4635 C 467.518 -1.21036 -1.13752 0
M  V30 4636 O 468.703 -1.49626 -1.18392 0
M  V30 4637 C 465.843 -2.96811 -1.76061 0
M  V30 4638 C 464.956 -4.13665 -1.24519 0
M  V30 4639 C 464.091 -4.74944 -2.3791 0
M  V30 4640 C 463.13 -5.83963 -1.83451 0
M  V30 4641 N 462.267 -6.39239 -2.90376 0
M  V30 4642 H 467.107 -2.98 -0.00114915 0
M  V30 4643 H 464.644 -1.47096 0.0112006 0
M  V30 4644 H 466.602 -3.37751 -2.44909 0
M  V30 4645 H 465.232 -2.24344 -2.32098 0
M  V30 4646 H 464.284 -3.77737 -0.449288 0
M  V30 4647 H 465.596 -4.92238 -0.806424 0
M  V30 4648 H 464.75 -5.18684 -3.14724 0
M  V30 4649 H 463.489 -3.95682 -2.85109 0
M  V30 4650 H 462.494 -5.39657 -1.05122 0
M  V30 4651 H 463.719 -6.65103 -1.37169 0
M  V30 4652 H 461.665 -5.62864 -3.36927 0
M  V30 4653 H 461.582 -7.13129 -2.50965 0
M  V30 4654 H 462.85 -6.87637 -3.67118 0
M  V30 4655 N 467.08 -0.0183926 -1.57589 0
M  V30 4656 C 467.99 0.982943 -2.13015 0
M  V30 4657 C 469.006 1.36443 -1.07979 0
M  V30 4658 O 470.182 1.44802 -1.3998 0
M  V30 4659 C 467.247 2.25024 -2.63752 0
M  V30 4660 C 466.308 1.93018 -3.83461 0
M  V30 4661 C 465.541 3.13706 -4.31769 0
M  V30 4662 O 465.764 4.2601 -3.79305 0
M  V30 4663 O 464.698 2.96629 -5.23732 0
M  V30 4664 H 468.524 0.541709 -2.9883 0
M  V30 4665 H 466.109 0.201565 -1.48034 0
M  V30 4666 H 467.991 2.99441 -2.96502 0
M  V30 4667 H 466.666 2.68349 -1.81026 0
M  V30 4668 H 465.573 1.16019 -3.55655 0
M  V30 4669 H 466.906 1.54516 -4.67317 0
M  V30 4670 N 468.558 1.5553 0.254621 0
M  V30 4671 C 469.835 1.6774 1.00611 0
M  V30 4672 C 470.215 0.555993 2.03647 0
M  V30 4673 O 469.563 -0.441583 2.24193 0
M  V30 4674 C 469.773 3.07725 1.6464 0
M  V30 4675 C 471.121 3.66074 2.15116 0
M  V30 4676 O 472.145 3.10476 1.74595 0
M  V30 4677 O 471.004 4.63526 2.89493 0
M  V30 4678 H 468.098 0.681958 0.467828 0
M  V30 4679 H 470.644 1.67863 0.24902 0
M  V30 4680 H 469.416 3.80792 0.900734 0
M  V30 4681 H 469.039 3.1158 2.46989 0
M  V30 4682 N 470.036 -0.519951 1.48776 0
M  V30 4683 C 471.313 -1.28123 1.47797 0
M  V30 4684 C 471.693 -2.10196 0.195157 0
M  V30 4685 O 471.041 -2.13167 -0.822925 0
M  V30 4686 C 471.251 -2.15413 2.74587 0
M  V30 4687 C 472.599 -2.75225 3.23321 0
M  V30 4688 O 473.623 -2.25694 2.75574 0
M  V30 4689 O 472.482 -3.65346 4.06429 0
M  V30 4690 H 469.576 -0.578793 0.590701 0
M  V30 4691 H 472.122 -0.535779 1.6102 0
M  V30 4692 H 470.894 -1.54617 3.59457 0
M  V30 4693 H 470.517 -2.97186 2.64132 0
M  V30 4694 N 471.514 -1.37532 -0.769588 0
M  V30 4695 C 472.761 -1.3286 -1.52822 0
M  V30 4696 C 473.089 0.0862597 -1.94309 0
M  V30 4697 O 472.344 1.05995 -1.6451 0
M  V30 4698 C 472.643 -2.21558 -2.8044 0
M  V30 4699 C 472.309 -3.69796 -2.57996 0
M  V30 4700 C 470.971 -4.10194 -2.51583 0
M  V30 4701 C 473.323 -4.63699 -2.37976 0
M  V30 4702 C 470.651 -5.42608 -2.23144 0
M  V30 4703 C 473.003 -5.96353 -2.1106 0
M  V30 4704 C 471.667 -6.35853 -2.03093 0
M  V30 4705 H 470.937 -0.486168 -0.559215 0
M  V30 4706 H 473.584 -1.69757 -0.886277 0
M  V30 4707 H 471.889 -1.77663 -3.49204 0
M  V30 4708 H 473.586 -2.15256 -3.38328 0
M  V30 4709 H 470.176 -3.37759 -2.63851 0
M  V30 4710 H 474.36 -4.33346 -2.41919 0
M  V30 4711 H 469.616 -5.72173 -2.15472 0
M  V30 4712 H 473.79 -6.68667 -1.94568 0
M  V30 4713 H 471.417 -7.38382 -1.8082 0
M  V30 4714 N 472.992 0.995999 -1.22138 0
M  V30 4715 C 474.232 1.75032 -1.05561 0
M  V30 4716 C 474.596 1.87729 0.402698 0
M  V30 4717 O 475.797 2.59813 0.689234 0
M  V30 4718 C 474.068 3.11973 -1.74379 0
M  V30 4719 S 475.627 4.03182 -1.73175 0
M  V30 4720 H 472.445 0.602137 -0.37809 0
M  V30 4721 H 475.047 1.19107 -1.55028 0
M  V30 4722 H 473.751 3.00371 -2.79652 0
M  V30 4723 H 473.282 3.7297 -1.25128 0
M  V30 4724 H 475.297 4.90043 -0.77923 0
M  V30 4725 N 474.47 1.03057 1.19235 0
M  V30 4726 C 475.42 0.583386 2.2041 0
M  V30 4727 C 476.404 -0.368776 1.56617 0
M  V30 4728 O 477.596 -0.189471 1.75983 0
M  V30 4729 C 474.725 -0.0626534 3.43243 0
M  V30 4730 C 473.811 0.91205 4.14177 0
M  V30 4731 N 474.202 2.07514 4.61272 0
M  V30 4732 C 472.5 0.735859 4.39888 0
M  V30 4733 C 473.201 2.69003 5.15764 0
M  V30 4734 N 472.177 1.96954 5.06666 0
M  V30 4735 H 475.979 1.46988 2.54503 0
M  V30 4736 H 473.493 0.897785 1.35328 0
M  V30 4737 H 475.49 -0.400653 4.1497 0
M  V30 4738 H 474.15 -0.944813 3.1065 0
M  V30 4739 H 475.161 2.45448 4.56043 0
M  V30 4740 H 471.838 -0.0970656 4.17387 0
M  V30 4741 H 473.228 3.67514 5.6248 0
M  V30 4742 N 475.948 -1.35272 0.808662 0
M  V30 4743 C 476.895 -2.29764 0.218482 0
M  V30 4744 C 477.865 -1.52911 -0.648652 0
M  V30 4745 O 479.05 -1.81341 -0.593297 0
M  V30 4746 C 476.19 -3.39388 -0.625282 0
M  V30 4747 C 475.303 -4.31202 0.262516 0
M  V30 4748 C 474.438 -5.27919 -0.589451 0
M  V30 4749 C 473.477 -6.11371 0.298617 0
M  V30 4750 N 472.614 -7.0022 -0.513443 0
M  V30 4751 H 477.454 -2.79645 1.02968 0
M  V30 4752 H 474.991 -1.37629 0.519303 0
M  V30 4753 H 476.949 -4.01615 -1.12966 0
M  V30 4754 H 475.579 -2.90777 -1.40173 0
M  V30 4755 H 474.631 -3.69962 0.885013 0
M  V30 4756 H 475.943 -4.89748 0.945971 0
M  V30 4757 H 475.097 -5.95529 -1.15888 0
M  V30 4758 H 473.836 -4.69875 -1.30647 0
M  V30 4759 H 472.841 -5.42707 0.880301 0
M  V30 4760 H 474.066 -6.71494 1.01352 0
M  V30 4761 H 472.012 -6.44662 -1.21439 0
M  V30 4762 H 471.929 -7.55917 0.111922 0
M  V30 4763 H 473.197 -7.72175 -1.06608 0
M  V30 4764 N 477.426 -0.562348 -1.47226 0
M  V30 4765 C 478.675 -0.038041 -2.01664 0
M  V30 4766 C 478.988 1.32199 -1.44162 0
M  V30 4767 O 480.194 1.9365 -1.90294 0
M  V30 4768 C 478.65 -0.0174958 -3.59896 0
M  V30 4769 C 478.258 -1.3746 -4.2639 0
M  V30 4770 C 480.002 0.453934 -4.22066 0
M  V30 4771 C 477.909 -1.31289 -5.76643 0
M  V30 4772 H 476.839 -0.0104511 -0.753928 0
M  V30 4773 H 479.49 -0.710966 -1.69167 0
M  V30 4774 H 477.872 0.721182 -3.89378 0
M  V30 4775 H 479.046 -2.1314 -4.08544 0
M  V30 4776 H 477.361 -1.78438 -3.7623 0
M  V30 4777 H 479.958 0.518584 -5.32179 0
M  V30 4778 H 480.301 1.46706 -3.89594 0
M  V30 4779 H 480.834 -0.230044 -3.97134 0
M  V30 4780 H 477.573 -2.30217 -6.13743 0
M  V30 4781 H 477.093 -0.597973 -5.96812 0
M  V30 4782 H 478.772 -1.01713 -6.38955 0
M  V30 4783 N 478.904 1.54736 -0.299062 0
M  V30 4784 C 480.144 2.0201 0.31168 0
M  V30 4785 C 480.508 1.18281 1.5124 0
M  V30 4786 O 481.709 1.55243 2.19438 0
M  V30 4787 C 479.98 3.5123 0.661227 0
M  V30 4788 S 481.539 4.20467 1.2551 0
M  V30 4789 H 478.357 0.704523 0.0957517 0
M  V30 4790 H 480.959 1.90791 -0.426482 0
M  V30 4791 H 479.663 4.09804 -0.221171 0
M  V30 4792 H 479.194 3.66481 1.43023 0
M  V30 4793 H 481.209 4.26083 2.54298 0
M  V30 4794 N 480.382 0.0267497 1.57577 0
M  V30 4795 C 481.612 -0.6617 1.95717 0
M  V30 4796 C 482.02 -1.66331 0.901706 0
M  V30 4797 O 481.363 -1.83273 -0.125241 0
M  V30 4798 C 481.425 -1.42649 3.29987 0
M  V30 4799 C 481.089 -0.583482 4.5326 0
M  V30 4800 C 482.086 0.140221 5.19711 0
M  V30 4801 C 479.771 -0.521581 4.99585 0
M  V30 4802 C 481.765 0.914523 6.30805 0
M  V30 4803 C 479.452 0.256428 6.10562 0
M  V30 4804 C 480.45 0.973189 6.76031 0
M  V30 4805 O 480.138 1.73845 7.84878 0
M  V30 4806 H 479.87 -0.187483 0.649481 0
M  V30 4807 H 482.424 0.0820847 2.05236 0
M  V30 4808 H 480.654 -2.21536 3.16952 0
M  V30 4809 H 482.343 -2.00282 3.53047 0
M  V30 4810 H 483.109 0.101716 4.84893 0
M  V30 4811 H 478.988 -1.06904 4.48433 0
M  V30 4812 H 482.532 1.4745 6.81839 0
M  V30 4813 H 478.429 0.296657 6.44818 0
M  V30 4814 H 479.197 1.65797 8.01532 0
M  V30 4815 N 481.861 -1.55662 -0.24637 0
M  V30 4816 C 482.824 -1.89558 -1.28842 0
M  V30 4817 C 483.824 -0.772082 -1.41052 0
M  V30 4818 O 485.014 -1.04007 -1.39743 0
M  V30 4819 C 482.146 -2.12449 -2.66605 0
M  V30 4820 H 483.339 -2.82735 -1.00004 0
M  V30 4821 H 480.892 -1.48562 -0.485684 0
M  V30 4822 H 481.627 -1.21742 -3.00582 0
M  V30 4823 H 481.412 -2.94273 -2.59125 0
M  V30 4824 H 482.902 -2.39854 -3.41847 0
M  V30 4825 N 483.339 0.512053 -1.4905 0
M  V30 4826 C 484.585 1.26874 -1.58212 0
M  V30 4827 C 484.918 1.9241 -0.263073 0
M  V30 4828 O 484.193 1.80181 0.732476 0
M  V30 4829 C 484.476 2.34428 -2.73341 0
M  V30 4830 C 484.329 1.73466 -4.15006 0
M  V30 4831 C 485.648 3.36073 -2.84154 0
M  V30 4832 H 482.767 0.459924 -0.575881 0
M  V30 4833 H 485.409 0.568587 -1.81293 0
M  V30 4834 H 483.559 2.94146 -2.53792 0
M  V30 4835 H 485.231 1.17661 -4.46042 0
M  V30 4836 H 483.474 1.03921 -4.21168 0
M  V30 4837 H 484.145 2.51426 -4.91415 0
M  V30 4838 H 486.621 2.86332 -3.01916 0
M  V30 4839 H 485.497 4.08703 -3.66406 0
M  V30 4840 H 485.758 3.97725 -1.93048 0
M  V30 4841 N 484.817 1.37938 0.762283 0
M  V30 4842 C 486.094 1.24196 1.51112 0
M  V30 4843 C 486.474 -0.160409 2.1049 0
M  V30 4844 O 485.822 -1.16904 1.96331 0
M  V30 4845 C 486.032 2.34537 2.58445 0
M  V30 4846 C 487.38 2.7254 3.25588 0
M  V30 4847 O 488.404 2.33783 2.68745 0
M  V30 4848 O 487.263 3.39343 4.28379 0
M  V30 4849 H 484.357 0.485175 0.669727 0
M  V30 4850 H 486.903 1.49743 0.798438 0
M  V30 4851 H 485.675 3.28406 2.12756 0
M  V30 4852 H 485.298 2.10505 3.37303 0
M  V30 4853 N 486.295 -0.989507 1.22664 0
M  V30 4854 C 487.228 -2.07805 0.942985 0
M  V30 4855 C 488.206 -1.6219 -0.115356 0
M  V30 4856 O 489.39 -1.88492 0.0169565 0
M  V30 4857 C 486.517 -3.361 0.418898 0
M  V30 4858 C 485.563 -4.00643 1.46244 0
M  V30 4859 S 486.396 -4.41059 3.03689 0
M  V30 4860 C 487.552 -5.7252 2.52927 0
M  V30 4861 H 487.785 -2.31547 1.86476 0
M  V30 4862 H 485.318 -1.12446 1.05808 0
M  V30 4863 H 487.276 -4.10315 0.123114 0
M  V30 4864 H 485.937 -3.10383 -0.481818 0
M  V30 4865 H 485.13 -4.93033 1.04569 0
M  V30 4866 H 484.732 -3.32767 1.7071 0
M  V30 4867 H 487.024 -6.49017 1.94379 0
M  V30 4868 H 487.967 -6.19026 3.4382 0
M  V30 4869 H 488.375 -5.30083 1.94094 0
M  V30 4870 N 487.773 -1.03688 -1.18687 0
M  V30 4871 C 488.998 -0.757819 -1.93059 0
M  V30 4872 C 489.423 0.678353 -1.75442 0
M  V30 4873 O 488.781 1.46938 -1.06203 0
M  V30 4874 C 488.829 -1.12423 -3.42627 0
M  V30 4875 O 487.933 -0.247505 -4.11657 0
M  V30 4876 H 487.274 -0.279245 -0.602427 0
M  V30 4877 H 489.804 -1.3857 -1.5053 0
M  V30 4878 H 489.814 -1.08454 -3.93322 0
M  V30 4879 H 488.489 -2.17049 -3.54771 0
M  V30 4880 H 487.066 -0.34649 -3.71287 0
M  V30 4881 N 489.251 1.34841 -0.815825 0
M  V30 4882 C 490.528 1.92908 -0.323416 0
M  V30 4883 C 490.908 1.74479 1.18828 0
M  V30 4884 O 490.256 1.11928 1.99209 0
M  V30 4885 C 490.466 3.40957 -0.744952 0
M  V30 4886 C 491.814 4.18107 -0.739716 0
M  V30 4887 O 492.838 3.49511 -0.68708 0
M  V30 4888 O 491.697 5.40517 -0.806456 0
M  V30 4889 H 488.791 0.822436 -0.0867646 0
M  V30 4890 H 491.337 1.4386 -0.90014 0
M  V30 4891 H 490.109 3.4814 -1.78646 0
M  V30 4892 H 489.732 3.97341 -0.143535 0
M  V30 4893 N 490.729 0.570148 1.46925 0
M  V30 4894 C 491.639 -0.173061 2.33961 0
M  V30 4895 C 492.655 -0.898825 1.48987 0
M  V30 4896 O 493.831 -0.864825 1.81887 0
M  V30 4897 C 490.896 -1.18177 3.25937 0
M  V30 4898 C 489.957 -0.462041 4.26806 0
M  V30 4899 C 489.19 -1.4227 5.14388 0
M  V30 4900 O 489.413 -2.65842 5.04662 0
M  V30 4901 O 488.347 -0.940127 5.94513 0
M  V30 4902 H 492.173 0.541216 2.98839 0
M  V30 4903 H 489.758 0.330647 1.45695 0
M  V30 4904 H 491.64 -1.76372 3.82715 0
M  V30 4905 H 490.315 -1.87774 2.63671 0
M  V30 4906 H 489.222 0.161429 3.73752 0
M  V30 4907 H 490.555 0.192719 4.91823 0
M  V30 4908 N 492.207 -1.54576 0.307264 0
M  V30 4909 C 493.432 -2.05139 -0.305379 0
M  V30 4910 C 493.857 -1.18278 -1.46259 0
M  V30 4911 O 493.215 -0.188243 -1.8032 0
M  V30 4912 C 493.263 -3.53066 -0.733283 0
M  V30 4913 O 492.367 -3.69206 -1.83741 0
M  V30 4914 H 491.708 -0.661444 -0.0582105 0
M  V30 4915 H 494.238 -1.99569 0.450931 0
M  V30 4916 H 494.248 -3.95034 -1.02039 0
M  V30 4917 H 492.923 -4.15746 0.113198 0
M  V30 4918 H 491.5 -3.39143 -1.55037 0
M  V30 4919 N 493.685 -0.035106 -1.57561 0
M  V30 4920 C 494.915 0.651312 -1.96065 0
M  V30 4921 C 495.323 1.6585 -0.910514 0
M  V30 4922 O 494.666 1.83336 0.11552 0
M  V30 4923 C 494.728 1.40897 -3.30739 0
M  V30 4924 C 494.392 0.559436 -4.53563 0
M  V30 4925 C 495.389 -0.16778 -5.19629 0
M  V30 4926 C 493.074 0.495079 -4.99854 0
M  V30 4927 C 495.068 -0.947963 -6.30311 0
M  V30 4928 C 492.755 -0.288804 -6.10417 0
M  V30 4929 C 493.753 -1.00903 -6.75505 0
M  V30 4930 O 493.441 -1.78005 -7.83945 0
M  V30 4931 H 493.173 0.184036 -0.650467 0
M  V30 4932 H 495.727 -0.0929677 -2.05189 0
M  V30 4933 H 493.957 2.19852 -3.18123 0
M  V30 4934 H 495.646 1.98407 -3.54104 0
M  V30 4935 H 496.412 -0.12743 -4.84833 0
M  V30 4936 H 492.291 1.04524 -4.48994 0
M  V30 4937 H 495.835 -1.51064 -6.81047 0
M  V30 4938 H 491.732 -0.33085 -6.44652 0
M  V30 4939 H 492.5 -1.70046 -8.00641 0
M  V30 4940 N 495.163 1.55791 0.238111 0
M  V30 4941 C 496.579 1.48411 0.587045 0
M  V30 4942 C 496.779 0.72702 1.87927 0
M  V30 4943 O 495.835 0.259942 2.51158 0
M  V30 4944 C 497.148 2.92873 0.681623 0
M  V30 4945 C 498.696 3.03295 0.773363 0
M  V30 4946 C 499.171 4.49082 0.899428 0
M  V30 4947 N 500.662 4.53056 0.964075 0
M  V30 4948 C 501.397 5.63117 1.08104 0
M  V30 4949 N 500.893 6.82969 1.16299 0
M  V30 4950 N 502.686 5.50933 1.11488 0
M  V30 4951 H 494.837 2.0345 -0.610076 0
M  V30 4952 H 497.1 0.924034 -0.211813 0
M  V30 4953 H 496.806 3.51142 -0.19802 0
M  V30 4954 H 496.68 3.43851 1.55069 0
M  V30 4955 H 499.067 2.45101 1.64346 0
M  V30 4956 H 499.148 2.55513 -0.121034 0
M  V30 4957 H 498.792 5.07889 0.0338586 0
M  V30 4958 H 498.722 4.94553 1.809 0
M  V30 4959 H 501.213 3.66737 0.91173 0
M  V30 4960 H 501.526 7.62598 1.25155 0
M  V30 4961 H 499.871 6.85712 1.13241 0
M  V30 4962 H 503.062 4.56231 1.0474 0
M  V30 4963 H 503.235 6.36743 1.20259 0
M  V30 4964 N 496.642 -0.504142 1.49319 0
M  V30 4965 C 497.572 -1.61473 1.68667 0
M  V30 4966 C 498.553 -1.61455 0.535378 0
M  V30 4967 O 499.738 -1.78245 0.770868 0
M  V30 4968 C 496.868 -2.99971 1.75028 0
M  V30 4969 C 495.822 -3.14854 2.89916 0
M  V30 4970 C 495.148 -4.54671 2.81387 0
M  V30 4971 C 496.448 -2.95176 4.30893 0
M  V30 4972 H 498.142 -1.45535 2.61648 0
M  V30 4973 H 495.688 -0.698711 1.25913 0
M  V30 4974 H 497.641 -3.77562 1.8715 0
M  V30 4975 H 496.365 -3.1699 0.786441 0
M  V30 4976 H 495.024 -2.39687 2.77391 0
M  V30 4977 H 494.672 -4.68562 1.82917 0
M  V30 4978 H 494.372 -4.6557 3.58494 0
M  V30 4979 H 495.896 -5.34327 2.95512 0
M  V30 4980 H 497.31 -3.62538 4.44116 0
M  V30 4981 H 495.707 -3.17549 5.09198 0
M  V30 4982 H 496.777 -1.91332 4.45556 0
M  V30 4983 N 498.12 -1.38341 -0.754957 0
M  V30 4984 C 499.368 -1.34208 -1.51105 0
M  V30 4985 C 499.689 0.0677634 -1.94882 0
M  V30 4986 O 498.959 1.01517 -1.67544 0
M  V30 4987 H 497.539 -0.493819 -0.560493 0
M  V30 4988 H 500.201 -1.73005 -0.897507 0
M  V30 4989 H 499.297 -1.99203 -2.4026 0
M  V30 4990 N 499.598 0.982988 -1.23187 0
M  V30 4991 C 500.53 2.07729 -0.968572 0
M  V30 4992 C 501.543 1.62702 0.0564821 0
M  V30 4993 O 502.732 1.77603 -0.178733 0
M  V30 4994 C 499.832 3.36071 -0.436974 0
M  V30 4995 C 499.005 4.10081 -1.52159 0
M  V30 4996 C 498.064 5.16701 -0.99532 0
M  V30 4997 O 497.09 5.43727 -1.68373 0
M  V30 4998 N 498.292 5.80226 0.178192 0
M  V30 4999 H 501.057 2.30894 -1.9107 0
M  V30 5000 H 498.618 1.14949 -1.1401 0
M  V30 5001 H 500.61 4.04639 -0.0700051 0
M  V30 5002 H 499.18 3.09893 0.410509 0
M  V30 5003 H 498.4 3.36004 -2.06144 0
M  V30 5004 H 499.688 4.56295 -2.25105 0
M  V30 5005 H 499.086 5.60651 0.754096 0
M  V30 5006 H 497.643 6.49982 0.486449 0
M  V30 5007 N 501.076 1.04316 1.18135 0
M  V30 5008 C 502.324 0.746542 1.87806 0
M  V30 5009 C 502.645 -0.728082 1.80898 0
M  V30 5010 O 501.915 -1.52554 1.22899 0
M  V30 5011 H 500.495 0.273157 0.695265 0
M  V30 5012 H 503.157 1.32044 1.43354 0
M  V30 5013 H 502.253 1.05362 2.93778 0
M  V30 5014 N 502.554 -1.34406 0.822964 0
M  V30 5015 C 503.779 -2.0304 0.423034 0
M  V30 5016 C 504.204 -1.61568 -0.963196 0
M  V30 5017 O 503.562 -0.800339 -1.62678 0
M  V30 5018 C 503.61 -3.56636 0.53321 0
M  V30 5019 O 502.714 -4.09971 -0.446939 0
M  V30 5020 H 502.055 -0.64075 0.174171 0
M  V30 5021 H 504.585 -1.71653 1.11339 0
M  V30 5022 H 504.595 -4.05945 0.408991 0
M  V30 5023 H 503.27 -3.86168 1.54425 0
M  V30 5024 H 501.847 -3.71835 -0.281601 0
M  V30 5025 N 504.032 -0.577932 -1.46621 0
M  V30 5026 C 505.279 -0.0616879 -2.02406 0
M  V30 5027 C 505.607 1.29638 -1.44997 0
M  V30 5028 O 504.862 1.86176 -0.60308 0
M  V30 5029 C 505.161 0.0590832 -3.57351 0
M  V30 5030 C 504.827 -1.23077 -4.33777 0
M  V30 5031 C 503.489 -1.58416 -4.54376 0
M  V30 5032 C 505.841 -2.08457 -4.77698 0
M  V30 5033 C 503.169 -2.78943 -5.16147 0
M  V30 5034 C 505.521 -3.28204 -5.408 0
M  V30 5035 C 504.185 -3.63832 -5.59627 0
M  V30 5036 H 503.455 -0.0225732 -0.740656 0
M  V30 5037 H 506.102 -0.753609 -1.76048 0
M  V30 5038 H 504.407 0.834104 -3.82818 0
M  V30 5039 H 506.104 0.474202 -3.98186 0
M  V30 5040 H 502.694 -0.945652 -4.18038 0
M  V30 5041 H 506.878 -1.82459 -4.61544 0
M  V30 5042 H 502.134 -3.06689 -5.28916 0
M  V30 5043 H 506.308 -3.94634 -5.73792 0
M  V30 5044 H 503.935 -4.57315 -6.07262 0
M  V30 5045 N 505.51 1.54411 -0.315457 0
M  V30 5046 C 506.758 2.00023 0.288971 0
M  V30 5047 C 507.079 1.20529 1.5329 0
M  V30 5048 O 506.349 0.304986 1.93511 0
M  V30 5049 H 504.929 0.738891 0.109766 0
M  V30 5050 H 507.591 1.90094 -0.430129 0
M  V30 5051 H 506.687 3.07198 0.550999 0
M  V30 5052 N 506.988 0.0434614 1.5754 0
M  V30 5053 C 507.898 -0.94893 2.14552 0
M  V30 5054 C 508.914 -1.34707 1.10136 0
M  V30 5055 O 510.09 -1.42557 1.42266 0
M  V30 5056 C 507.155 -2.208 2.67298 0
M  V30 5057 C 506.216 -1.86893 3.86484 0
M  V30 5058 C 505.449 -3.06797 4.36705 0
M  V30 5059 O 505.672 -4.19921 3.86034 0
M  V30 5060 O 504.606 -2.8826 5.28384 0
M  V30 5061 H 508.432 -0.494099 2.99654 0
M  V30 5062 H 506.017 -0.177989 1.48336 0
M  V30 5063 H 507.899 -2.94686 3.01228 0
M  V30 5064 H 506.574 -2.65436 1.85272 0
M  V30 5065 H 505.481 -1.10347 3.57455 0
M  V30 5066 H 506.814 -1.47062 4.69716 0
M  V30 5067 N 508.466 -1.55915 -0.229846 0
M  V30 5068 C 509.712 -1.78807 -0.956868 0
M  V30 5069 C 510.045 -0.611687 -1.84315 0
M  V30 5070 O 509.32 0.389398 -1.90562 0
M  V30 5071 C 509.603 -3.11718 -1.80288 0
M  V30 5072 C 509.456 -4.3979 -0.943649 0
M  V30 5073 C 510.775 -3.40999 -2.78222 0
M  V30 5074 H 507.894 -0.6505 -0.346437 0
M  V30 5075 H 510.536 -1.88648 -0.226252 0
M  V30 5076 H 508.686 -3.03459 -2.42579 0
M  V30 5077 H 510.358 -4.60059 -0.338121 0
M  V30 5078 H 508.601 -4.33086 -0.248705 0
M  V30 5079 H 509.272 -5.29208 -1.5698 0
M  V30 5080 H 511.748 -3.49332 -2.26067 0
M  V30 5081 H 510.624 -4.35183 -3.34526 0
M  V30 5082 H 510.885 -2.62754 -3.55546 0
M  V30 5083 N 509.944 0.496216 -1.49584 0
M  V30 5084 C 511.19 1.24918 -1.60521 0
M  V30 5085 C 511.545 1.90197 -0.290352 0
M  V30 5086 O 510.838 1.77967 0.709813 0
M  V30 5087 C 511.032 2.3359 -2.705 0
M  V30 5088 C 510.861 1.78969 -4.12553 0
M  V30 5089 C 509.631 1.60057 -4.79281 0
M  V30 5090 C 511.829 1.29883 -4.97629 0
M  V30 5091 N 509.811 1.00415 -6.05632 0
M  V30 5092 C 511.182 0.824057 -6.14499 0
M  V30 5093 C 513.237 1.18501 -4.83593 0
M  V30 5094 C 511.94 0.246721 -7.18877 0
M  V30 5095 C 513.966 0.621634 -5.88124 0
M  V30 5096 C 513.328 0.157116 -7.04225 0
M  V30 5097 H 509.427 0.446896 -0.641722 0
M  V30 5098 H 512.011 0.555456 -1.86609 0
M  V30 5099 H 510.182 3.00418 -2.46178 0
M  V30 5100 H 511.914 3.00628 -2.70933 0
M  V30 5101 H 508.669 1.84562 -4.36158 0
M  V30 5102 H 509.093 0.725074 -6.73106 0
M  V30 5103 H 513.735 1.53012 -3.94141 0
M  V30 5104 H 511.453 -0.110651 -8.08024 0
M  V30 5105 H 515.039 0.536279 -5.79323 0
M  V30 5106 H 513.919 -0.272009 -7.83728 0
M  V30 5107 N 511.423 1.38739 0.74761 0
M  V30 5108 C 512.834 1.31507 1.32524 0
M  V30 5109 C 513.185 -0.0263963 1.96182 0
M  V30 5110 O 512.31 -0.92849 1.95469 0
M  V30 5111 C 512.905 2.38162 2.40966 0
M  V30 5112 C 511.464 2.34489 2.94434 0
M  V30 5113 C 510.611 2.20712 1.67873 0
M  V30 5114 H 513.562 1.4901 0.546043 0
M  V30 5115 H 513.583 2.04222 3.21051 0
M  V30 5116 H 513.095 3.35783 1.94605 0
M  V30 5117 H 511.196 1.40467 3.45108 0
M  V30 5118 H 511.309 3.28861 3.48407 0
M  V30 5119 H 509.673 1.67667 1.91729 0
M  V30 5120 H 510.456 3.20285 1.23582 0
M  V30 5121 N 512.901 -0.976442 1.23707 0
M  V30 5122 C 513.831 -2.08749 1.04624 0
M  V30 5123 C 514.812 -1.70057 -0.0380956 0
M  V30 5124 O 515.997 -1.93782 0.127308 0
M  V30 5125 C 513.127 -3.41335 0.640902 0
M  V30 5126 C 512.081 -3.93947 1.67302 0
M  V30 5127 C 511.407 -5.22774 1.12301 0
M  V30 5128 C 512.707 -4.22769 3.06697 0
M  V30 5129 H 514.401 -2.24972 1.97555 0
M  V30 5130 H 511.947 -1.08108 0.951247 0
M  V30 5131 H 513.9 -4.18489 0.494434 0
M  V30 5132 H 512.624 -3.24988 -0.324099 0
M  V30 5133 H 511.283 -3.18941 1.80755 0
M  V30 5134 H 510.931 -5.0278 0.148877 0
M  V30 5135 H 510.631 -5.58942 1.81267 0
M  V30 5136 H 512.155 -6.02546 0.988479 0
M  V30 5137 H 513.569 -4.90659 2.96524 0
M  V30 5138 H 511.966 -4.70147 3.72937 0
M  V30 5139 H 513.036 -3.29885 3.55392 0
M  V30 5140 N 514.379 -1.04941 -1.1758 0
M  V30 5141 C 515.656 -0.671918 -1.83697 0
M  V30 5142 C 516.036 0.847929 -1.93322 0
M  V30 5143 O 515.384 1.75287 -1.46583 0
M  V30 5144 C 515.594 -1.35797 -3.21497 0
M  V30 5145 C 516.942 -1.4944 -3.97433 0
M  V30 5146 O 517.966 -1.31678 -3.30967 0
M  V30 5147 O 516.825 -1.78463 -5.1654 0
M  V30 5148 H 513.919 -0.236212 -0.792548 0
M  V30 5149 H 516.465 -1.14884 -1.24899 0
M  V30 5150 H 515.237 -2.39498 -3.09446 0
M  V30 5151 H 514.86 -0.870236 -3.8796 0
M  V30 5152 N 515.857 1.33968 -0.830081 0
M  V30 5153 C 517.273 1.51003 -0.516742 0
M  V30 5154 C 517.473 1.77286 0.957694 0
M  V30 5155 O 516.529 1.82797 1.74188 0
M  V30 5156 C 517.842 2.67036 -1.38247 0
M  V30 5157 C 519.39 2.80919 -1.38034 0
M  V30 5158 C 519.865 4.00004 -2.23071 0
M  V30 5159 N 521.356 4.07224 -2.20733 0
M  V30 5160 C 522.091 4.98541 -2.83275 0
M  V30 5161 N 521.587 5.95033 -3.54835 0
M  V30 5162 N 523.38 4.91469 -2.72791 0
M  V30 5163 H 515.531 1.15168 -1.78466 0
M  V30 5164 H 517.794 0.565443 -0.760906 0
M  V30 5165 H 517.5 2.54266 -2.42985 0
M  V30 5166 H 517.374 3.62226 -1.05225 0
M  V30 5167 H 519.761 2.93127 -0.340713 0
M  V30 5168 H 519.842 1.86517 -1.75057 0
M  V30 5169 H 519.486 3.88557 -3.27087 0
M  V30 5170 H 519.416 4.93634 -1.83394 0
M  V30 5171 H 521.907 3.38162 -1.68687 0
M  V30 5172 H 522.22 6.61357 -3.99784 0
M  V30 5173 H 520.565 5.95135 -3.58942 0
M  V30 5174 H 523.756 4.15048 -2.16456 0
M  V30 5175 H 523.929 5.62439 -3.21818 0
M  V30 5176 N 517.335 0.585699 1.46312 0
M  V30 5177 C 518.565 0.0780166 2.06453 0
M  V30 5178 C 518.973 -1.2336 1.43454 0
M  V30 5179 O 518.316 -1.75734 0.535086 0
M  V30 5180 C 518.378 -0.158951 3.59148 0
M  V30 5181 C 518.042 1.06752 4.44357 0
M  V30 5182 C 519.039 1.98031 4.80708 0
M  V30 5183 C 516.724 1.2902 4.85447 0
M  V30 5184 C 518.718 3.09924 5.5698 0
M  V30 5185 C 516.405 2.41218 5.61478 0
M  V30 5186 C 517.403 3.31499 5.97158 0
M  V30 5187 O 517.091 4.41747 6.71651 0
M  V30 5188 H 516.823 0.0558894 0.673686 0
M  V30 5189 H 519.377 0.806994 1.88883 0
M  V30 5190 H 517.607 -0.942575 3.75037 0
M  V30 5191 H 519.296 -0.615513 4.01206 0
M  V30 5192 H 520.062 1.82043 4.49539 0
M  V30 5193 H 515.941 0.596567 4.57124 0
M  V30 5194 H 519.485 3.80415 5.84748 0
M  V30 5195 H 515.382 2.57167 5.9206 0
M  V30 5196 H 516.15 4.40152 6.90079 0
M  V30 5197 N 518.813 -1.54241 0.323641 0
M  V30 5198 C 520.229 -1.59574 -0.0290018 0
M  V30 5199 C 520.429 -1.34017 -1.50472 0
M  V30 5200 O 519.485 -1.12464 -2.26071 0
M  V30 5201 C 520.798 -2.98169 0.389295 0
M  V30 5202 C 522.346 -3.11148 0.339958 0
M  V30 5203 C 522.821 -4.5209 0.733418 0
M  V30 5204 N 524.312 -4.5808 0.686827 0
M  V30 5205 C 525.047 -5.65248 0.963464 0
M  V30 5206 N 524.543 -6.80355 1.30724 0
M  V30 5207 N 526.336 -5.55025 0.88902 0
M  V30 5208 H 518.487 -1.6911 1.28512 0
M  V30 5209 H 520.75 -0.790972 0.522558 0
M  V30 5210 H 520.456 -3.21871 1.41746 0
M  V30 5211 H 520.33 -3.76399 -0.245657 0
M  V30 5212 H 522.717 -2.87182 -0.679002 0
M  V30 5213 H 522.798 -2.35023 1.00985 0
M  V30 5214 H 522.442 -4.76788 1.75029 0
M  V30 5215 H 522.372 -5.26584 0.0412189 0
M  V30 5216 H 524.863 -3.75411 0.43298 0
M  V30 5217 H 525.176 -7.58029 1.5037 0
M  V30 5218 H 523.521 -6.81851 1.3455 0
M  V30 5219 H 526.712 -4.63977 0.619939 0
M  V30 5220 H 526.885 -6.38458 1.10797 0
M  V30 5221 N 520.291 -0.0518155 -1.57515 0
M  V30 5222 C 521.537 0.622745 -1.93002 0
M  V30 5223 C 521.87 1.70456 -0.930499 0
M  V30 5224 O 521.145 1.94452 0.0434086 0
M  V30 5225 C 521.428 1.21824 -3.38867 0
M  V30 5226 C 521.281 0.144434 -4.49568 0
M  V30 5227 C 522.6 2.12968 -3.8514 0
M  V30 5228 H 519.719 0.22491 -0.701844 0
M  V30 5229 H 522.361 -0.113711 -1.89659 0
M  V30 5230 H 520.511 1.8459 -3.41846 0
M  V30 5231 H 522.183 -0.48753 -4.58717 0
M  V30 5232 H 520.426 -0.527424 -4.30582 0
M  V30 5233 H 521.097 0.601127 -5.48717 0
M  V30 5234 H 523.573 1.60163 -3.8404 0
M  V30 5235 H 522.449 2.51578 -4.87852 0
M  V30 5236 H 522.71 3.03004 -3.21934 0
M  V30 5237 N 521.769 1.56035 0.221574 0
M  V30 5238 C 523.015 1.79312 0.947372 0
M  V30 5239 C 523.348 0.621453 1.83988 0
M  V30 5240 O 522.623 -0.379287 1.90766 0
M  V30 5241 C 522.906 3.1267 1.78633 0
M  V30 5242 C 522.759 4.40284 0.920312 0
M  V30 5243 C 524.078 3.4247 2.7641 0
M  V30 5244 H 521.197 0.652328 0.342982 0
M  V30 5245 H 523.839 1.88765 0.216244 0
M  V30 5246 H 521.989 3.04741 2.40967 0
M  V30 5247 H 523.661 4.60232 0.313718 0
M  V30 5248 H 521.904 4.33212 0.225734 0
M  V30 5249 H 522.575 5.30033 1.54171 0
M  V30 5250 H 525.051 3.50526 2.24211 0
M  V30 5251 H 523.927 4.3695 3.32213 0
M  V30 5252 H 524.188 2.64635 3.54148 0
M  V30 5253 N 523.247 -0.488276 1.49845 0
M  V30 5254 C 524.194 -1.58836 1.67451 0
M  V30 5255 C 525.164 -1.57886 0.515857 0
M  V30 5256 O 526.349 -1.75679 0.744403 0
M  V30 5257 C 523.489 -2.96915 1.75885 0
M  V30 5258 C 522.602 -3.07784 3.03138 0
M  V30 5259 C 521.737 -4.36673 3.02473 0
M  V30 5260 C 520.776 -4.41222 4.24252 0
M  V30 5261 N 519.913 -5.61557 4.21424 0
M  V30 5262 H 524.753 -1.43131 2.61376 0
M  V30 5263 H 522.29 -0.696186 1.29583 0
M  V30 5264 H 524.248 -3.76965 1.78755 0
M  V30 5265 H 522.878 -3.11295 0.85414 0
M  V30 5266 H 521.93 -2.20717 3.09819 0
M  V30 5267 H 523.242 -3.07005 3.93128 0
M  V30 5268 H 522.396 -5.25055 3.03977 0
M  V30 5269 H 521.135 -4.40037 2.10283 0
M  V30 5270 H 520.14 -3.5124 4.22978 0
M  V30 5271 H 521.365 -4.39564 5.17649 0
M  V30 5272 H 519.311 -5.65738 3.32078 0
M  V30 5273 H 519.228 -5.62447 5.05163 0
M  V30 5274 H 520.496 -6.52111 4.2705 0
M  V30 5275 N 524.725 -1.39134 -0.740242 0
M  V30 5276 C 525.971 -1.36273 -1.50192 0
M  V30 5277 C 526.304 0.0430136 -1.94152 0
M  V30 5278 O 525.579 1.00691 -1.66408 0
M  V30 5279 C 525.862 -2.33041 -2.74525 0
M  V30 5280 C 525.715 -3.82535 -2.36617 0
M  V30 5281 C 527.034 -2.27723 -3.76604 0
M  V30 5282 H 524.153 -0.496323 -0.544823 0
M  V30 5283 H 526.795 -1.70085 -0.846815 0
M  V30 5284 H 524.945 -2.04337 -3.30422 0
M  V30 5285 H 526.617 -4.21967 -1.86391 0
M  V30 5286 H 524.86 -3.99565 -1.68909 0
M  V30 5287 H 525.531 -4.45723 -3.2563 0
M  V30 5288 H 528.007 -2.53091 -3.30279 0
M  V30 5289 H 526.883 -2.97519 -4.61274 0
M  V30 5290 H 527.144 -1.28049 -4.2315 0
M  V30 5291 N 526.204 0.969867 -1.24223 0
M  V30 5292 C 527.167 2.04564 -1.03373 0
M  V30 5293 C 528.167 1.60798 0.00819206 0
M  V30 5294 O 529.357 1.72641 -0.232567 0
M  V30 5295 C 526.489 3.36163 -0.566343 0
M  V30 5296 H 527.682 2.24494 -1.98853 0
M  V30 5297 H 525.235 1.1448 -1.06415 0
M  V30 5298 H 525.97 3.21925 0.391751 0
M  V30 5299 H 525.755 3.69273 -1.31834 0
M  V30 5300 H 527.245 4.1526 -0.441435 0
M  V30 5301 N 527.682 1.05563 1.17022 0
M  V30 5302 C 529.098 0.777684 1.39371 0
M  V30 5303 C 529.298 -0.626269 1.91521 0
M  V30 5304 O 528.354 -1.38806 2.10924 0
M  V30 5305 C 529.667 1.83642 2.3811 0
M  V30 5306 C 531.215 1.85907 2.51809 0
M  V30 5307 C 531.69 2.90813 3.53824 0
M  V30 5308 N 533.181 2.898 3.61345 0
M  V30 5309 C 533.916 3.6762 4.40049 0
M  V30 5310 N 533.412 4.55237 5.22237 0
M  V30 5311 N 535.205 3.56044 4.34959 0
M  V30 5312 H 527.356 1.9614 0.815047 0
M  V30 5313 H 529.619 0.849527 0.420722 0
M  V30 5314 H 529.325 2.84425 2.06871 0
M  V30 5315 H 529.199 1.6812 3.37662 0
M  V30 5316 H 531.586 0.857865 2.82356 0
M  V30 5317 H 531.667 2.05506 1.52318 0
M  V30 5318 H 531.311 3.91122 3.24015 0
M  V30 5319 H 531.241 2.68465 4.53028 0
M  V30 5320 H 533.732 2.26274 3.02669 0
M  V30 5321 H 534.045 5.11291 5.79484 0
M  V30 5322 H 532.39 4.59296 5.21605 0
M  V30 5323 H 535.581 2.86986 3.69806 0
M  V30 5324 H 535.754 4.16938 4.96051 0
M  V30 5325 N 529.16 -1.33526 0.837174 0
M  V30 5326 C 530.107 -2.29248 0.267169 0
M  V30 5327 C 531.077 -1.54252 -0.616071 0
M  V30 5328 O 532.262 -1.82559 -0.554699 0
M  V30 5329 C 529.402 -3.40638 -0.553152 0
M  V30 5330 C 528.515 -4.30548 0.353921 0
M  V30 5331 C 527.65 -5.29051 -0.477339 0
M  V30 5332 C 526.689 -6.106 0.42823 0
M  V30 5333 N 525.826 -7.01152 -0.364801 0
M  V30 5334 H 530.666 -2.77398 1.08877 0
M  V30 5335 H 528.203 -1.36496 0.54838 0
M  V30 5336 H 530.161 -4.03921 -1.04422 0
M  V30 5337 H 528.791 -2.93685 -1.33973 0
M  V30 5338 H 527.843 -3.68001 0.963289 0
M  V30 5339 H 529.155 -4.87631 1.04964 0
M  V30 5340 H 528.309 -5.97853 -1.0323 0
M  V30 5341 H 527.048 -4.72541 -1.2065 0
M  V30 5342 H 526.053 -5.40718 0.995219 0
M  V30 5343 H 527.278 -6.69193 1.15573 0
M  V30 5344 H 525.224 -6.47092 -1.07738 0
M  V30 5345 H 525.141 -7.5551 0.272238 0
M  V30 5346 H 526.409 -7.74263 -0.902054 0
M  V30 5347 N 530.638 -0.59345 -1.46 0
M  V30 5348 C 531.588 0.154751 -2.27474 0
M  V30 5349 C 532.572 0.851849 -1.365 0
M  V30 5350 O 533.764 0.744171 -1.60596 0
M  V30 5351 C 530.893 1.16079 -3.2308 0
M  V30 5352 C 529.979 0.465256 -4.2154 0
M  V30 5353 N 530.37 -0.485197 -5.03467 0
M  V30 5354 C 528.668 0.714634 -4.40237 0
M  V30 5355 C 529.369 -0.892709 -5.74809 0
M  V30 5356 N 528.345 -0.239511 -5.43072 0
M  V30 5357 H 532.147 -0.57546 -2.88211 0
M  V30 5358 H 529.661 -0.416046 -1.5698 0
M  V30 5359 H 531.658 1.71108 -3.80168 0
M  V30 5360 H 530.318 1.89171 -2.63903 0
M  V30 5361 H 531.329 -0.861258 -5.10689 0
M  V30 5362 H 528.006 1.43131 -3.92199 0
M  V30 5363 H 529.396 -1.67581 -6.50666 0
M  V30 5364 N 532.116 1.54067 -0.331816 0
M  V30 5365 C 533.341 2.05599 0.272705 0
M  V30 5366 C 533.766 1.2059 1.44359 0
M  V30 5367 O 533.124 0.216907 1.79998 0
M  V30 5368 C 533.172 3.54188 0.677021 0
M  V30 5369 O 532.276 3.72082 1.77844 0
M  V30 5370 H 531.617 0.662286 0.0476801 0
M  V30 5371 H 534.147 1.98826 -0.482624 0
M  V30 5372 H 534.157 3.96608 0.957415 0
M  V30 5373 H 532.832 4.15513 -0.179325 0
M  V30 5374 H 531.409 3.41566 1.49622 0
M  V30 5375 N 533.594 0.0601682 1.57485 0
M  V30 5376 C 534.504 -0.926121 2.15546 0
M  V30 5377 C 535.52 -1.33532 1.11558 0
M  V30 5378 O 536.696 -1.4104 1.4377 0
M  V30 5379 C 533.761 -2.17952 2.69625 0
M  V30 5380 C 532.822 -1.82783 3.88444 0
M  V30 5381 C 532.055 -3.02148 4.39935 0
M  V30 5382 O 532.278 -4.15803 3.90466 0
M  V30 5383 O 531.212 -2.82639 5.31412 0
M  V30 5384 H 535.038 -0.462289 3.00161 0
M  V30 5385 H 532.623 -0.162246 1.48516 0
M  V30 5386 H 534.505 -2.91474 3.04337 0
M  V30 5387 H 533.18 -2.63456 1.88077 0
M  V30 5388 H 532.087 -1.06549 3.58606 0
M  V30 5389 H 533.42 -1.42072 4.7125 0
M  V30 5390 N 535.072 -1.5615 -0.213296 0
M  V30 5391 C 536.3 -1.83638 -0.953139 0
M  V30 5392 C 536.715 -0.640362 -1.77609 0
M  V30 5393 O 536.072 0.391071 -1.78261 0
M  V30 5394 C 536.123 -3.09735 -1.86405 0
M  V30 5395 O 535.844 -4.24723 -1.07435 0
M  V30 5396 C 537.345 -3.5027 -2.71709 0
M  V30 5397 H 534.565 -0.610263 -0.278962 0
M  V30 5398 H 537.109 -2.03247 -0.226035 0
M  V30 5399 H 535.264 -2.92077 -2.545 0
M  V30 5400 H 535.678 -4.9641 -1.69343 0
M  V30 5401 H 537.152 -4.41515 -3.31313 0
M  V30 5402 H 537.629 -2.72406 -3.44516 0
M  V30 5403 H 538.235 -3.70396 -2.09015 0
M  V30 5404 N 536.55 0.480323 -1.50102 0
M  V30 5405 C 537.796 1.23489 -1.60867 0
M  V30 5406 C 538.129 1.91809 -0.303827 0
M  V30 5407 O 537.404 1.81694 0.694092 0
M  V30 5408 C 537.687 2.28578 -2.78252 0
M  V30 5409 C 537.54 1.64624 -4.18592 0
M  V30 5410 C 538.859 3.2997 -2.91218 0
M  V30 5411 H 535.978 0.447605 -0.585507 0
M  V30 5412 H 538.62 0.530005 -1.82458 0
M  V30 5413 H 536.77 2.88697 -2.59974 0
M  V30 5414 H 538.442 1.08173 -4.48438 0
M  V30 5415 H 536.685 0.949645 -4.23278 0
M  V30 5416 H 537.356 2.40946 -4.96638 0
M  V30 5417 H 539.832 2.79864 -3.07921 0
M  V30 5418 H 538.708 4.00839 -3.74993 0
M  V30 5419 H 538.969 3.93541 -2.0144 0
M  V30 5420 N 538.028 1.39524 0.732853 0
M  V30 5421 C 538.958 1.41153 1.86005 0
M  V30 5422 C 539.939 0.274614 1.67869 0
M  V30 5423 O 541.124 0.480745 1.88155 0
M  V30 5424 C 538.254 1.25638 3.23778 0
M  V30 5425 C 537.208 2.36752 3.56556 0
M  V30 5426 C 536.534 2.06326 4.93289 0
M  V30 5427 C 537.834 3.79069 3.5931 0
M  V30 5428 H 539.528 2.35484 1.84899 0
M  V30 5429 H 537.074 1.13348 0.888162 0
M  V30 5430 H 539.027 1.25398 4.0231 0
M  V30 5431 H 537.751 0.277772 3.25417 0
M  V30 5432 H 536.41 2.36213 2.80355 0
M  V30 5433 H 536.058 1.06897 4.9151 0
M  V30 5434 H 535.758 2.80757 5.16187 0
M  V30 5435 H 537.282 2.07739 5.74175 0
M  V30 5436 H 538.696 3.81526 4.27914 0
M  V30 5437 H 537.093 4.52878 3.93728 0
M  V30 5438 H 538.163 4.09893 2.59068 0
M  V30 5439 N 539.506 -0.963266 1.24736 0
M  V30 5440 C 540.734 -1.74166 1.11686 0
M  V30 5441 C 541.149 -1.8589 -0.330187 0
M  V30 5442 O 540.506 -1.35042 -1.2276 0
M  V30 5443 C 540.557 -3.15989 1.75595 0
M  V30 5444 O 540.278 -3.04847 3.14642 0
M  V30 5445 C 541.779 -4.10145 1.68213 0
M  V30 5446 H 538.999 -0.546031 0.389989 0
M  V30 5447 H 541.543 -1.20907 1.64929 0
M  V30 5448 H 539.698 -3.66219 1.26343 0
M  V30 5449 H 540.112 -3.9425 3.4593 0
M  V30 5450 H 541.586 -5.07299 2.17604 0
M  V30 5451 H 542.063 -4.3445 0.644208 0
M  V30 5452 H 542.669 -3.65827 2.16912 0
M  V30 5453 N 540.985 -1.06182 -1.16461 0
M  V30 5454 C 542.231 -0.779015 -1.87241 0
M  V30 5455 C 542.564 0.692715 -1.81425 0
M  V30 5456 O 541.839 1.5074 -1.22913 0
M  V30 5457 C 542.122 -1.2728 -3.36856 0
M  V30 5458 C 541.975 -2.80821 -3.51368 0
M  V30 5459 C 543.294 -0.879799 -4.31216 0
M  V30 5460 H 540.413 -0.284464 -0.679889 0
M  V30 5461 H 543.055 -1.31755 -1.36896 0
M  V30 5462 H 541.205 -0.814673 -3.79862 0
M  V30 5463 H 542.877 -3.34833 -3.17308 0
M  V30 5464 H 541.12 -3.19606 -2.93316 0
M  V30 5465 H 541.791 -3.10435 -4.56436 0
M  V30 5466 H 544.267 -1.27436 -3.96105 0
M  V30 5467 H 543.143 -1.25278 -5.34412 0
M  V30 5468 H 543.404 0.215372 -4.41575 0
M  V30 5469 N 542.463 1.3308 -0.844243 0
M  V30 5470 C 543.709 1.98304 -0.452453 0
M  V30 5471 C 544.064 1.65645 0.978746 0
M  V30 5472 O 543.357 0.928849 1.6758 0
M  V30 5473 C 543.551 3.52045 -0.616354 0
M  V30 5474 C 543.38 3.99643 -2.06193 0
M  V30 5475 C 542.15 4.27224 -2.69829 0
M  V30 5476 C 544.348 4.15471 -3.03131 0
M  V30 5477 N 542.33 4.60998 -4.05406 0
M  V30 5478 C 543.701 4.52665 -4.23668 0
M  V30 5479 C 545.756 3.97776 -2.99465 0
M  V30 5480 C 544.459 4.74011 -5.41023 0
M  V30 5481 C 546.485 4.20301 -4.16055 0
M  V30 5482 C 545.847 4.57801 -5.35348 0
M  V30 5483 H 541.946 0.752122 -0.214096 0
M  V30 5484 H 544.53 1.61096 -1.09344 0
M  V30 5485 H 542.701 3.884 -0.00513205 0
M  V30 5486 H 544.433 4.04228 -0.19548 0
M  V30 5487 H 541.188 4.18911 -2.20931 0
M  V30 5488 H 541.612 4.82087 -4.75312 0
M  V30 5489 H 546.254 3.67893 -2.08362 0
M  V30 5490 H 543.972 5.02753 -6.32665 0
M  V30 5491 H 547.558 4.08122 -4.14641 0
M  V30 5492 H 546.438 4.74884 -6.24063 0
M  V30 5493 N 543.941 0.601185 1.45683 0
M  V30 5494 C 544.874 -0.17013 2.27565 0
M  V30 5495 C 545.852 -0.879661 1.36751 0
M  V30 5496 O 547.036 -0.889827 1.66176 0
M  V30 5497 C 544.163 -1.24568 3.14961 0
M  V30 5498 C 543.209 -0.639978 4.21671 0
M  V30 5499 S 544.042 0.547275 5.32696 0
M  V30 5500 C 545.198 -0.529019 6.2366 0
M  V30 5501 H 545.431 0.524583 2.92635 0
M  V30 5502 H 542.964 0.388537 1.49431 0
M  V30 5503 H 544.922 -1.86138 3.65873 0
M  V30 5504 H 543.583 -1.91243 2.49169 0
M  V30 5505 H 542.776 -1.44903 4.8272 0
M  V30 5506 H 542.378 -0.0995558 3.73867 0
M  V30 5507 H 544.67 -1.40981 6.62669 0
M  V30 5508 H 545.613 0.0451599 7.08086 0
M  V30 5509 H 546.021 -0.84147 5.58193 0
M  V30 5510 N 545.419 -1.53889 0.339982 0
M  V30 5511 C 546.644 -2.05741 -0.261798 0
M  V30 5512 C 547.069 -1.21354 -1.43718 0
M  V30 5513 O 546.427 -0.22645 -1.7988 0
M  V30 5514 C 546.475 -3.54542 -0.658228 0
M  V30 5515 O 545.579 -3.7302 -1.75869 0
M  V30 5516 H 544.92 -0.662529 -0.0441672 0
M  V30 5517 H 547.45 -1.98568 0.493161 0
M  V30 5518 H 547.46 -3.9711 -0.936368 0
M  V30 5519 H 546.135 -4.15412 0.201358 0
M  V30 5520 H 544.712 -3.42355 -1.47809 0
M  V30 5521 N 546.897 -0.0685191 -1.57451 0
M  V30 5522 C 548.145 0.60016 -1.92983 0
M  V30 5523 C 548.466 1.70348 -0.949028 0
M  V30 5524 O 547.736 1.959 0.00335647 0
M  V30 5525 H 546.316 0.224682 -0.712409 0
M  V30 5526 H 548.978 -0.125605 -1.94495 0
M  V30 5527 H 548.074 1.02759 -2.94698 0
M  V30 5528 N 548.375 1.56261 0.205012 0
M  V30 5529 C 549.305 1.96779 1.257 0
M  V30 5530 C 550.286 0.838309 1.48008 0
M  V30 5531 O 551.471 1.10189 1.59913 0
M  V30 5532 C 548.601 2.29876 2.60335 0
M  V30 5533 C 547.555 3.45469 2.52656 0
M  V30 5534 C 546.881 3.64215 3.91473 0
M  V30 5535 C 548.181 4.79954 2.06014 0
M  V30 5536 H 549.875 2.84904 0.920338 0
M  V30 5537 H 547.421 1.37072 0.441277 0
M  V30 5538 H 549.374 2.56814 3.34102 0
M  V30 5539 H 548.098 1.38622 2.95722 0
M  V30 5540 H 546.757 3.18605 1.81345 0
M  V30 5541 H 546.405 2.70309 4.24196 0
M  V30 5542 H 546.105 4.41973 3.87213 0
M  V30 5543 H 547.629 3.93519 4.66878 0
M  V30 5544 H 549.043 5.05989 2.69533 0
M  V30 5545 H 547.44 5.61111 2.12777 0
M  V30 5546 H 548.51 4.74201 1.01297 0
M  V30 5547 N 549.853 -0.472356 1.50355 0
M  V30 5548 C 551.102 -1.2213 1.60522 0
M  V30 5549 C 551.415 -1.9312 0.310466 0
M  V30 5550 O 552.621 -2.69936 0.291029 0
M  V30 5551 C 551.077 -2.21909 2.83345 0
M  V30 5552 C 550.685 -1.56727 4.19691 0
M  V30 5553 C 552.429 -2.97453 3.02856 0
M  V30 5554 C 550.336 -2.54785 5.33703 0
M  V30 5555 H 549.266 -0.459543 0.597776 0
M  V30 5556 H 551.917 -0.491922 1.76783 0
M  V30 5557 H 550.299 -2.98133 2.60639 0
M  V30 5558 H 551.473 -0.863007 4.52646 0
M  V30 5559 H 549.788 -0.934685 4.05774 0
M  V30 5560 H 552.385 -3.70838 3.85205 0
M  V30 5561 H 552.728 -3.56764 2.14534 0
M  V30 5562 H 553.261 -2.28342 3.25737 0
M  V30 5563 H 550 -2.00214 6.24175 0
M  V30 5564 H 549.52 -3.23367 5.05167 0
M  V30 5565 H 551.199 -3.16639 5.64224 0
M  V30 5566 N 551.331 -1.39911 -0.725443 0
M  V30 5567 C 552.747 -1.21725 -1.03224 0
M  V30 5568 C 552.947 -0.0855224 -2.01318 0
M  V30 5569 O 552.003 0.55976 -2.46217 0
M  V30 5570 C 553.316 -2.55511 -1.58539 0
M  V30 5571 C 554.864 -2.62439 -1.70572 0
M  V30 5572 C 555.339 -3.9647 -2.29294 0
M  V30 5573 N 556.83 -3.98159 -2.36692 0
M  V30 5574 C 557.565 -4.98647 -2.83088 0
M  V30 5575 N 557.061 -6.0953 -3.2931 0
M  V30 5576 N 558.854 -4.8602 -2.82384 0
M  V30 5577 H 551.005 -2.12267 -0.075048 0
M  V30 5578 H 553.268 -0.943136 -0.0959066 0
M  V30 5579 H 552.974 -3.38926 -0.939249 0
M  V30 5580 H 552.848 -2.75905 -2.57208 0
M  V30 5581 H 555.235 -1.79401 -2.34306 0
M  V30 5582 H 555.316 -2.45885 -0.705297 0
M  V30 5583 H 554.96 -4.79942 -1.66186 0
M  V30 5584 H 554.89 -4.10349 -3.30032 0
M  V30 5585 H 557.381 -3.18085 -2.04035 0
M  V30 5586 H 557.694 -6.82106 -3.6325 0
M  V30 5587 H 556.039 -6.1311 -3.27294 0
M  V30 5588 H 559.23 -3.98493 -2.45603 0
M  V30 5589 H 559.403 -5.64478 -3.18226 0
M  V30 5590 N 552.809 0.956637 -1.25245 0
M  V30 5591 C 554.037 1.73571 -1.12608 0
M  V30 5592 C 554.452 1.86063 0.320324 0
M  V30 5593 O 553.809 1.35691 1.22042 0
M  V30 5594 C 553.86 3.15053 -1.77268 0
M  V30 5595 O 553.581 3.03174 -3.16255 0
M  V30 5596 C 555.082 4.09248 -1.70386 0
M  V30 5597 H 552.302 0.543955 -0.392879 0
M  V30 5598 H 554.846 1.20031 -1.65568 0
M  V30 5599 H 553.001 3.65543 -1.28284 0
M  V30 5600 H 553.415 3.9241 -3.48015 0
M  V30 5601 H 554.889 5.06138 -2.20291 0
M  V30 5602 H 555.366 4.34102 -0.667239 0
M  V30 5603 H 555.972 3.64672 -2.18849 0
M  V30 5604 N 554.287 1.06798 1.15896 0
M  V30 5605 C 555.703 0.792423 1.38538 0
M  V30 5606 C 555.903 -0.60592 1.92174 0
M  V30 5607 O 554.959 -1.36561 2.12385 0
M  V30 5608 C 556.272 1.86157 2.36149 0
M  V30 5609 C 557.82 1.88567 2.49823 0
M  V30 5610 C 558.295 2.9455 3.5072 0
M  V30 5611 N 559.786 2.93616 3.58251 0
M  V30 5612 C 560.521 3.72267 4.36125 0
M  V30 5613 N 560.017 4.60751 5.17379 0
M  V30 5614 N 561.81 3.60637 4.31158 0
M  V30 5615 H 553.961 1.96993 0.794198 0
M  V30 5616 H 556.224 0.853942 0.411688 0
M  V30 5617 H 555.93 2.86603 2.03843 0
M  V30 5618 H 555.804 1.71692 3.3586 0
M  V30 5619 H 558.191 0.887765 2.8143 0
M  V30 5620 H 558.272 2.0711 1.5013 0
M  V30 5621 H 557.916 3.94537 3.19849 0
M  V30 5622 H 557.846 2.73255 4.50155 0
M  V30 5623 H 560.337 2.29472 3.00252 0
M  V30 5624 H 560.65 5.17408 5.74028 0
M  V30 5625 H 558.995 4.64803 5.16704 0
M  V30 5626 H 562.186 2.90892 3.66742 0
M  V30 5627 H 562.359 4.22176 4.91601 0
M  V30 5628 N 555.766 -1.3263 0.851289 0
M  V30 5629 C 556.729 -2.27247 0.298541 0
M  V30 5630 C 557.729 -1.51467 -0.539847 0
M  V30 5631 O 558.919 -1.7061 -0.351843 0
M  V30 5632 C 556.051 -3.35964 -0.578004 0
M  V30 5633 H 557.244 -2.7765 1.13359 0
M  V30 5634 H 554.797 -1.43245 0.625354 0
M  V30 5635 H 555.532 -2.90823 -1.435 0
M  V30 5636 H 555.317 -3.92094 0.0220539 0
M  V30 5637 H 556.807 -4.06472 -0.957626 0
M  V30 5638 N 557.244 -0.608902 -1.45362 0
M  V30 5639 C 558.207 0.0992563 -2.28985 0
M  V30 5640 C 559.207 0.793841 -1.39838 0
M  V30 5641 O 560.397 0.641804 -1.61946 0
M  V30 5642 C 557.529 1.15073 -3.20891 0
M  V30 5643 H 558.722 -0.635964 -2.93079 0
M  V30 5644 H 556.275 -0.368007 -1.51906 0
M  V30 5645 H 557.01 1.91667 -2.616 0
M  V30 5646 H 556.795 0.656867 -3.86559 0
M  V30 5647 H 558.285 1.64665 -3.83765 0
M  V30 5648 N 558.722 1.53707 -0.348139 0
M  V30 5649 C 559.97 2.00591 0.246478 0
M  V30 5650 C 560.291 1.23753 1.50699 0
M  V30 5651 O 559.561 0.345964 1.92821 0
M  V30 5652 H 558.141 0.741053 0.0940679 0
M  V30 5653 H 560.803 1.89139 -0.470354 0
M  V30 5654 H 559.899 3.08297 0.485714 0
M  V30 5655 N 560.2 0.0768682 1.57412 0
M  V30 5656 C 561.11 -0.903207 2.16516 0
M  V30 5657 C 562.126 -1.32341 1.12968 0
M  V30 5658 O 563.302 -1.39507 1.45258 0
M  V30 5659 C 560.367 -2.1508 2.71922 0
M  V30 5660 C 559.428 -1.78653 3.90361 0
M  V30 5661 C 558.661 -2.97465 4.43114 0
M  V30 5662 O 558.884 -4.11638 3.94854 0
M  V30 5663 O 557.818 -2.76987 5.3438 0
M  V30 5664 H 561.644 -0.430427 3.00634 0
M  V30 5665 H 559.229 -0.146485 1.4868 0
M  V30 5666 H 561.111 -2.8823 3.07411 0
M  V30 5667 H 559.786 -2.61446 1.9086 0
M  V30 5668 H 558.693 -1.0274 3.59716 0
M  V30 5669 H 560.026 -1.37066 4.7273 0
M  V30 5670 N 561.678 -1.56367 -0.196722 0
M  V30 5671 C 562.61 -1.90941 -1.26784 0
M  V30 5672 C 563.623 -0.799928 -1.41792 0
M  V30 5673 O 564.812 -1.07833 -1.42247 0
M  V30 5674 C 561.912 -2.12477 -2.6402 0
M  V30 5675 C 561.085 -3.43616 -2.70641 0
M  V30 5676 C 560.144 -3.54284 -3.89062 0
M  V30 5677 O 559.17 -4.2712 -3.76241 0
M  V30 5678 N 560.372 -2.87252 -5.04447 0
M  V30 5679 H 563.137 -2.83417 -0.974417 0
M  V30 5680 H 560.698 -1.57215 -0.386649 0
M  V30 5681 H 562.69 -2.16904 -3.41665 0
M  V30 5682 H 561.26 -1.26508 -2.85857 0
M  V30 5683 H 560.48 -3.51072 -1.79283 0
M  V30 5684 H 561.768 -4.29958 -2.72054 0
M  V30 5685 H 561.166 -2.27901 -5.17762 0
M  V30 5686 H 559.723 -2.97308 -5.80044 0
M  V30 5687 N 563.156 0.464375 -1.50603 0
M  V30 5688 C 564.088 1.57916 -1.66118 0
M  V30 5689 C 565.101 1.53497 -0.54246 0
M  V30 5690 O 566.29 1.58763 -0.815877 0
M  V30 5691 C 563.39 2.96809 -1.63577 0
M  V30 5692 C 562.563 3.26026 -2.91592 0
M  V30 5693 C 561.622 4.44506 -2.81604 0
M  V30 5694 O 560.648 4.44484 -3.55559 0
M  V30 5695 N 561.85 5.46549 -1.95614 0
M  V30 5696 H 564.615 1.45022 -2.62276 0
M  V30 5697 H 562.176 0.652903 -1.48151 0
M  V30 5698 H 564.168 3.74048 -1.54499 0
M  V30 5699 H 562.738 3.03438 -0.751262 0
M  V30 5700 H 561.958 2.37337 -3.14746 0
M  V30 5701 H 563.246 3.42361 -3.76386 0
M  V30 5702 H 562.644 5.49391 -1.34854 0
M  V30 5703 H 561.201 6.22746 -1.92435 0
M  V30 5704 N 564.634 1.40294 0.718013 0
M  V30 5705 C 565.566 1.36281 1.84283 0
M  V30 5706 C 566.579 0.268621 1.60569 0
M  V30 5707 O 567.768 0.528798 1.70487 0
M  V30 5708 C 564.868 1.09741 3.2064 0
M  V30 5709 C 564.041 2.30767 3.71571 0
M  V30 5710 C 563.1 2.00424 4.86535 0
M  V30 5711 O 562.126 2.73268 4.99313 0
M  V30 5712 N 563.328 0.980724 5.72156 0
M  V30 5713 H 566.093 2.3322 1.88225 0
M  V30 5714 H 563.654 1.34616 0.899453 0
M  V30 5715 H 565.646 0.874322 3.95143 0
M  V30 5716 H 564.216 0.214771 3.11861 0
M  V30 5717 H 563.436 2.68921 2.88228 0
M  V30 5718 H 564.724 3.11455 4.02335 0
M  V30 5719 H 564.122 0.377375 5.6444 0
M  V30 5720 H 562.679 0.817538 6.46653 0
M  V30 5721 N 566.112 -0.949982 1.2575 0
M  V30 5722 C 567.523 -1.50989 1.09815 0
M  V30 5723 C 567.874 -1.93497 -0.324556 0
M  V30 5724 O 566.999 -1.79068 -1.21506 0
M  V30 5725 C 567.594 -2.74394 1.98729 0
M  V30 5726 C 566.153 -3.26682 1.86965 0
M  V30 5727 C 565.3 -1.99498 1.92603 0
M  V30 5728 H 568.251 -0.766387 1.38968 0
M  V30 5729 H 568.272 -3.48383 1.53001 0
M  V30 5730 H 567.784 -2.43425 3.02268 0
M  V30 5731 H 565.885 -3.62461 0.863279 0
M  V30 5732 H 565.998 -3.94383 2.72027 0
M  V30 5733 H 564.362 -2.15005 1.36546 0
M  V30 5734 H 565.145 -1.70871 2.97755 0
M  V30 5735 N 567.59 -1.07411 -1.15328 0
M  V30 5736 C 569.001 -0.820261 -1.67716 0
M  V30 5737 C 569.352 0.654539 -1.8496 0
M  V30 5738 O 568.477 1.50664 -1.55337 0
M  V30 5739 C 569.072 -1.48242 -3.04647 0
M  V30 5740 C 567.631 -1.27606 -3.5411 0
M  V30 5741 C 566.778 -1.5517 -2.29821 0
M  V30 5742 H 569.729 -1.23608 -0.995332 0
M  V30 5743 H 569.75 -0.903984 -3.69606 0
M  V30 5744 H 569.262 -2.55578 -2.92064 0
M  V30 5745 H 567.363 -0.222948 -3.71932 0
M  V30 5746 H 567.476 -1.99667 -4.35511 0
M  V30 5747 H 565.84 -0.972747 -2.35393 0
M  V30 5748 H 566.623 -2.63689 -2.19824 0
M  V30 5749 N 569.068 1.32177 -0.85831 0
M  V30 5750 C 570.293 2.01847 -0.476718 0
M  V30 5751 C 570.718 1.64065 0.920021 0
M  V30 5752 O 570.076 0.843189 1.60499 0
M  V30 5753 C 570.124 3.55097 -0.627578 0
M  V30 5754 O 569.228 4.11012 0.338086 0
M  V30 5755 H 568.569 0.635907 -0.191099 0
M  V30 5756 H 571.099 1.68641 -1.15851 0
M  V30 5757 H 571.109 4.04718 -0.516476 0
M  V30 5758 H 569.784 3.81938 -1.64609 0
M  V30 5759 H 568.361 3.72451 0.182917 0
M  V30 5760 N 570.547 0.616602 1.45037 0
M  V30 5761 C 571.477 -0.0840787 2.33349 0
M  V30 5762 C 572.458 -0.849641 1.4736 0
M  V30 5763 O 573.643 -0.818407 1.76113 0
M  V30 5764 C 570.773 -1.07604 3.3021 0
M  V30 5765 C 569.727 -0.423096 4.25904 0
M  V30 5766 C 569.053 -1.52394 5.12523 0
M  V30 5767 C 570.353 0.661457 5.18095 0
M  V30 5768 H 572.047 0.653333 2.92185 0
M  V30 5769 H 569.593 0.315634 1.40498 0
M  V30 5770 H 571.546 -1.57485 3.90866 0
M  V30 5771 H 570.27 -1.84416 2.69552 0
M  V30 5772 H 568.929 0.05493 3.66559 0
M  V30 5773 H 568.577 -2.28257 4.48227 0
M  V30 5774 H 568.277 -1.09251 5.77354 0
M  V30 5775 H 569.801 -2.02485 5.76049 0
M  V30 5776 H 571.215 0.246353 5.7277 0
M  V30 5777 H 569.612 1.01517 5.91451 0
M  V30 5778 H 570.682 1.53446 4.59981 0
M  V30 5779 N 572.025 -1.5352 0.356285 0
M  V30 5780 C 573.271 -2.01414 -0.236653 0
M  V30 5781 C 573.604 -1.24339 -1.49176 0
M  V30 5782 O 572.879 -0.334496 -1.91602 0
M  V30 5783 C 573.162 -3.56059 -0.537982 0
M  V30 5784 C 573.015 -4.43835 0.730112 0
M  V30 5785 C 574.334 -4.19127 -1.34239 0
M  V30 5786 H 571.453 -0.732135 -0.0845386 0
M  V30 5787 H 574.095 -1.83854 0.479341 0
M  V30 5788 H 572.245 -3.71153 -1.14795 0
M  V30 5789 H 573.917 -4.40555 1.36782 0
M  V30 5790 H 572.16 -4.1218 1.3524 0
M  V30 5791 H 572.831 -5.49958 0.474358 0
M  V30 5792 H 575.307 -4.07809 -0.826498 0
M  V30 5793 H 574.183 -5.27378 -1.52198 0
M  V30 5794 H 574.444 -3.74581 -2.34822 0
M  V30 5795 N 573.503 -0.0852151 -1.57369 0
M  V30 5796 C 574.751 0.579658 -1.93609 0
M  V30 5797 C 575.072 1.69332 -0.967043 0
M  V30 5798 O 574.342 1.95892 -0.0174215 0
M  V30 5799 H 572.922 0.217113 -0.714752 0
M  V30 5800 H 575.584 -0.146226 -1.94351 0
M  V30 5801 H 574.68 0.996276 -2.95771 0
M  V30 5802 N 574.981 1.5647 0.188427 0
M  V30 5803 C 576.209 1.85131 0.923803 0
M  V30 5804 C 576.624 0.668537 1.76567 0
M  V30 5805 O 575.981 -0.362662 1.7886 0
M  V30 5806 C 576.032 3.12661 1.81453 0
M  V30 5807 O 575.753 4.26378 1.00665 0
M  V30 5808 C 577.254 3.54548 2.66103 0
M  V30 5809 H 574.474 0.614624 0.269218 0
M  V30 5810 H 577.018 2.03581 0.193671 0
M  V30 5811 H 575.173 2.96088 2.49821 0
M  V30 5812 H 575.587 4.99041 1.61425 0
M  V30 5813 H 577.061 4.4673 3.24247 0
M  V30 5814 H 577.538 2.77853 3.40139 0
M  V30 5815 H 578.144 3.73674 2.03096 0
M  V30 5816 N 576.459 -0.456382 1.50847 0
M  V30 5817 C 577.707 -1.20497 1.62249 0
M  V30 5818 C 578.028 -1.92156 0.331839 0
M  V30 5819 O 577.298 -1.84751 -0.651443 0
M  V30 5820 H 575.878 -0.447775 0.597918 0
M  V30 5821 H 578.54 -0.525099 1.87693 0
M  V30 5822 H 577.636 -1.94492 2.44089 0
M  V30 5823 N 577.937 -1.40673 -0.710563 0
M  V30 5824 C 579.183 -1.39428 -1.47267 0
M  V30 5825 C 579.516 0.00182129 -1.942 0
M  V30 5826 O 578.791 0.971387 -1.68506 0
M  V30 5827 C 579.074 -2.38812 -2.6952 0
M  V30 5828 C 578.927 -3.87467 -2.28449 0
M  V30 5829 C 580.246 -2.3566 -3.71689 0
M  V30 5830 H 577.365 -0.507768 -0.534173 0
M  V30 5831 H 580.007 -1.71843 -0.810547 0
M  V30 5832 H 578.157 -2.113 -3.26013 0
M  V30 5833 H 579.829 -4.25825 -1.77399 0
M  V30 5834 H 578.072 -4.03058 -1.60395 0
M  V30 5835 H 578.743 -4.5253 -3.16103 0
M  V30 5836 H 581.219 -2.6004 -3.24836 0
M  V30 5837 H 580.095 -3.07237 -4.54859 0
M  V30 5838 H 580.356 -1.36996 -4.20339 0
M  V30 5839 N 579.415 0.9433 -1.26252 0
M  V30 5840 C 580.365 2.02746 -1.04297 0
M  V30 5841 C 581.349 1.60882 0.0239435 0
M  V30 5842 O 582.541 1.75947 -0.192757 0
M  V30 5843 C 579.67 3.36585 -0.6757 0
M  V30 5844 C 578.756 3.84939 -1.77996 0
M  V30 5845 N 579.147 4.05966 -3.01704 0
M  V30 5846 C 577.445 4.13833 -1.66308 0
M  V30 5847 C 578.146 4.45987 -3.73458 0
M  V30 5848 N 577.122 4.52569 -3.01135 0
M  V30 5849 H 580.924 2.17012 -1.98199 0
M  V30 5850 H 578.438 1.12898 -1.16738 0
M  V30 5851 H 580.435 4.13896 -0.499571 0
M  V30 5852 H 579.095 3.2369 0.255863 0
M  V30 5853 H 580.106 3.92716 -3.37631 0
M  V30 5854 H 576.783 4.09739 -0.801267 0
M  V30 5855 H 578.173 4.70465 -4.79701 0
M  V30 5856 N 580.893 1.08022 1.14757 0
M  V30 5857 C 582.309 0.807072 1.3769 0
M  V30 5858 C 582.509 -0.585504 1.92806 0
M  V30 5859 O 581.565 -1.34301 2.13821 0
M  V30 5860 C 582.878 1.88651 2.34161 0
M  V30 5861 C 584.426 1.91206 2.47809 0
M  V30 5862 C 584.901 2.98253 3.47576 0
M  V30 5863 N 586.392 2.974 3.55117 0
M  V30 5864 C 587.127 3.76872 4.32152 0
M  V30 5865 N 586.623 4.66212 5.12463 0
M  V30 5866 N 588.416 3.6519 4.27309 0
M  V30 5867 H 580.567 1.97824 0.77326 0
M  V30 5868 H 582.83 0.85826 0.402608 0
M  V30 5869 H 582.536 2.88749 2.00791 0
M  V30 5870 H 582.41 1.75244 3.3402 0
M  V30 5871 H 584.797 0.917564 2.80472 0
M  V30 5872 H 584.878 2.08691 1.47925 0
M  V30 5873 H 584.522 3.97907 3.15646 0
M  V30 5874 H 584.452 2.78014 4.47231 0
M  V30 5875 H 586.943 2.32643 2.97801 0
M  V30 5876 H 587.256 5.23468 5.68508 0
M  V30 5877 H 585.601 4.70257 5.11745 0
M  V30 5878 H 588.792 2.94765 3.63636 0
M  V30 5879 H 588.965 4.27366 4.87095 0
M  V30 5880 N 582.371 -1.3172 0.865308 0
M  V30 5881 C 583.619 -1.96487 0.472995 0
M  V30 5882 C 583.94 -1.68761 -0.976975 0
M  V30 5883 O 583.21 -1.00051 -1.68424 0
M  V30 5884 H 581.79 -0.726947 0.171922 0
M  V30 5885 H 584.452 -1.60612 1.10407 0
M  V30 5886 H 583.548 -3.0574 0.62687 0
M  V30 5887 N 583.85 -0.624285 -1.44708 0
M  V30 5888 C 584.779 0.0717025 -2.3339 0
M  V30 5889 C 585.76 0.841814 -1.47809 0
M  V30 5890 O 586.946 0.809056 -1.76544 0
M  V30 5891 C 584.076 1.05852 -3.30776 0
M  V30 5892 C 583.029 0.400503 -4.26122 0
M  V30 5893 C 582.356 1.49674 -5.13324 0
M  V30 5894 C 583.656 -0.688924 -5.17737 0
M  V30 5895 H 585.35 -0.668819 -2.91834 0
M  V30 5896 H 582.896 -0.32308 -1.40329 0
M  V30 5897 H 584.849 1.5541 -3.91696 0
M  V30 5898 H 583.572 1.82984 -2.70526 0
M  V30 5899 H 582.231 -0.0743687 -3.66525 0
M  V30 5900 H 581.88 2.25877 -4.49431 0
M  V30 5901 H 581.58 1.06188 -5.77926 0
M  V30 5902 H 583.104 1.99427 -5.77115 0
M  V30 5903 H 584.518 -0.276724 -5.72632 0
M  V30 5904 H 582.915 -1.04652 -5.90904 0
M  V30 5905 H 583.985 -1.55884 -4.5916 0
M  V30 5906 N 585.328 1.53329 -0.364422 0
M  V30 5907 C 586.258 2.28627 0.474543 0
M  V30 5908 C 587.239 1.31009 1.08492 0
M  V30 5909 O 588.424 1.59878 1.10239 0
M  V30 5910 C 585.554 3.07465 1.61501 0
M  V30 5911 C 584.508 4.1276 1.13194 0
M  V30 5912 C 583.834 4.79674 2.36255 0
M  V30 5913 C 585.134 5.21847 0.217507 0
M  V30 5914 H 586.828 2.99005 -0.153656 0
M  V30 5915 H 584.374 1.43803 -0.0753406 0
M  V30 5916 H 586.327 3.58889 2.20855 0
M  V30 5917 H 585.051 2.34775 2.27042 0
M  V30 5918 H 583.71 3.62281 0.56109 0
M  V30 5919 H 583.358 4.03557 3.00251 0
M  V30 5920 H 583.058 5.50827 2.04606 0
M  V30 5921 H 584.582 5.33892 2.96297 0
M  V30 5922 H 585.996 5.6878 0.718493 0
M  V30 5923 H 584.393 6.00099 -0.00806408 0
M  V30 5924 H 585.463 4.7921 -0.740653 0
M  V30 5925 N 586.806 0.0935595 1.57322 0
M  V30 5926 C 588.034 -0.578934 1.98635 0
M  V30 5927 C 588.449 -1.61819 0.972626 0
M  V30 5928 O 587.806 -1.82461 -0.0379638 0
M  V30 5929 C 587.857 -1.22802 3.40003 0
M  V30 5930 O 587.578 -0.230334 4.37494 0
M  V30 5931 C 589.079 -1.98627 3.96311 0
M  V30 5932 H 586.299 -0.155324 0.652775 0
M  V30 5933 H 588.843 0.172393 2.03772 0
M  V30 5934 H 586.998 -1.93029 3.35885 0
M  V30 5935 H 587.412 -0.698649 5.19826 0
M  V30 5936 H 588.886 -2.39405 4.97382 0
M  V30 5937 H 589.363 -2.85151 3.34044 0
M  V30 5938 H 589.969 -1.3322 4.03897 0
M  V30 5939 N 588.284 -1.56567 -0.180126 0
M  V30 5940 C 589.247 -1.94852 -1.20686 0
M  V30 5941 C 590.247 -0.831212 -1.3765 0
M  V30 5942 O 591.437 -1.09841 -1.35206 0
M  V30 5943 C 588.569 -2.23565 -2.57355 0
M  V30 5944 H 589.762 -2.86722 -0.879225 0
M  V30 5945 H 587.315 -1.50489 -0.422237 0
M  V30 5946 H 588.05 -1.34381 -2.95148 0
M  V30 5947 H 587.835 -3.04999 -2.46411 0
M  V30 5948 H 589.325 -2.54137 -3.31367 0
M  V30 5949 N 589.762 0.448376 -1.51087 0
M  V30 5950 C 590.99 1.22143 -1.66999 0
M  V30 5951 C 591.405 1.85283 -0.362699 0
M  V30 5952 O 590.762 1.70236 0.65772 0
M  V30 5953 C 590.813 2.31357 -2.7777 0
M  V30 5954 O 590.534 1.70801 -4.03434 0
M  V30 5955 C 592.035 3.21836 -3.04855 0
M  V30 5956 H 589.255 0.368558 -0.560719 0
M  V30 5957 H 591.799 0.532618 -1.97442 0
M  V30 5958 H 589.954 2.95973 -2.49958 0
M  V30 5959 H 590.368 2.42895 -4.64868 0
M  V30 5960 H 591.842 3.94627 -3.85971 0
M  V30 5961 H 592.319 3.81949 -2.16821 0
M  V30 5962 H 592.925 2.62933 -3.34285 0
M  V30 5963 N 591.24 1.41047 0.703093 0
M  V30 5964 C 592.488 1.39723 1.4602 0
M  V30 5965 C 592.809 0.00461257 1.94999 0
M  V30 5966 O 592.079 -0.952292 1.71196 0
M  V30 5967 H 590.659 0.514281 0.541779 0
M  V30 5968 H 593.321 1.76217 0.832678 0
M  V30 5969 H 592.417 2.07982 2.32701 0
M  V30 5970 N 592.718 -0.936591 1.26751 0
M  V30 5971 C 593.958 -1.69796 1.13792 0
M  V30 5972 C 594.322 -1.89437 -0.312671 0
M  V30 5973 O 595.523 -2.62806 -0.564489 0
M  V30 5974 C 593.794 -3.03297 1.89065 0
M  V30 5975 S 595.353 -3.94461 1.92214 0
M  V30 5976 H 592.171 -0.583412 0.406389 0
M  V30 5977 H 594.773 -1.11575 1.60535 0
M  V30 5978 H 593.477 -2.86687 2.93665 0
M  V30 5979 H 593.008 -3.66575 1.42781 0
M  V30 5980 H 595.023 -4.85767 1.01215 0
M  V30 5981 N 594.196 -1.08629 -1.14182 0
M  V30 5982 C 595.436 -0.826884 -1.86928 0
M  V30 5983 C 595.8 0.635808 -1.81167 0
M  V30 5984 O 597.001 1.0108 -2.49071 0
M  V30 5985 C 595.272 -1.33721 -3.31442 0
M  V30 5986 S 596.831 -1.21045 -4.21774 0
M  V30 5987 H 593.649 -0.299286 -0.644941 0
M  V30 5988 H 596.251 -1.38802 -1.37674 0
M  V30 5989 H 594.955 -2.39617 -3.33184 0
M  V30 5990 H 594.486 -0.771839 -3.85754 0
M  V30 5991 H 596.501 -0.156168 -4.95954 0
M  V30 5992 N 595.674 1.31259 -0.872281 0
M  V30 5993 C 596.604 2.30929 -0.345554 0
M  V30 5994 C 597.585 1.60449 0.5648 0
M  V30 5995 O 598.77 1.8814 0.481335 0
M  V30 5996 C 595.9 3.44348 0.451823 0
M  V30 5997 C 594.854 4.26435 -0.365641 0
M  V30 5998 C 594.18 5.31785 0.557562 0
M  V30 5999 C 595.48 4.97159 -1.60095 0
M  V30 6000 H 597.174 2.75234 -1.17841 0
M  V30 6001 H 594.72 1.3232 -0.568094 0
M  V30 6002 H 596.673 4.13128 0.830854 0
M  V30 6003 H 595.397 2.98816 1.31821 0
M  V30 6004 H 594.056 3.59326 -0.726649 0
M  V30 6005 H 593.704 4.82502 1.4213 0
M  V30 6006 H 593.404 5.87598 0.0144878 0
M  V30 6007 H 594.928 6.03424 0.933387 0
M  V30 6008 H 596.342 5.58523 -1.29323 0
M  V30 6009 H 594.739 5.62779 -2.08327 0
M  V30 6010 H 595.809 4.24012 -2.35249 0
M  V30 6011 N 597.152 0.631951 1.44375 0
M  V30 6012 C 598.082 -0.0593243 2.33425 0
M  V30 6013 C 599.063 -0.833964 1.48253 0
M  V30 6014 O 600.248 -0.799682 1.76971 0
M  V30 6015 C 597.378 -1.04096 3.31333 0
M  V30 6016 C 596.332 -0.377899 4.26328 0
M  V30 6017 C 595.658 -1.4695 5.14111 0
M  V30 6018 C 596.958 0.716371 5.17364 0
M  V30 6019 H 598.652 0.684287 2.91475 0
M  V30 6020 H 596.198 0.330518 1.40156 0
M  V30 6021 H 598.151 -1.53331 3.92514 0
M  V30 6022 H 596.875 -1.81547 2.71493 0
M  V30 6023 H 595.534 0.0938054 3.6648 0
M  V30 6024 H 595.182 -2.2349 4.50623 0
M  V30 6025 H 594.882 -1.03121 5.78481 0
M  V30 6026 H 596.406 -1.96363 5.78164 0
M  V30 6027 H 597.82 0.307089 5.72477 0
M  V30 6028 H 596.217 1.07784 5.90341 0
M  V30 6029 H 597.287 1.58316 4.58327 0
M  V30 6030 N 598.631 -1.53133 0.372548 0
M  V30 6031 C 599.581 -2.22733 -0.487218 0
M  V30 6032 C 600.565 -1.22506 -1.04312 0
M  V30 6033 O 601.757 -1.47923 -0.972005 0
M  V30 6034 C 598.886 -3.02524 -1.62278 0
M  V30 6035 C 597.972 -4.10133 -1.07943 0
M  V30 6036 N 598.363 -5.05133 -0.259629 0
M  V30 6037 C 596.661 -4.24964 -1.35356 0
M  V30 6038 C 597.362 -5.81687 0.0386656 0
M  V30 6039 N 596.338 -5.40699 -0.560827 0
M  V30 6040 H 600.14 -2.93538 0.145853 0
M  V30 6041 H 597.654 -1.61389 0.180938 0
M  V30 6042 H 599.651 -3.50909 -2.25096 0
M  V30 6043 H 598.311 -2.33252 -2.25884 0
M  V30 6044 H 599.322 -5.178 0.101746 0
M  V30 6045 H 595.999 -3.66919 -1.9919 0
M  V30 6046 H 597.389 -6.68224 0.701841 0
M  V30 6047 N 600.109 -0.101901 -1.5727 0
M  V30 6048 C 601.057 0.872034 -2.15635 0
M  V30 6049 C 602.051 1.28742 -1.10099 0
M  V30 6050 O 603.257 1.26116 -1.28432 0
M  V30 6051 H 599.632 0.299269 -0.689886 0
M  V30 6052 H 601.603 0.355137 -2.96279 0
M  V30 6053 C 600.352 2.11886 -2.7568 0
M  V30 6054 H 599.675 1.80813 -3.56576 0
M  V30 6055 H 601.115 2.78077 -3.20077 0
M  V30 6056 C 599.574 2.89739 -1.7191 0
M  V30 6057 O 600.104 3.84522 -1.16213 0
M  V30 6058 N 598.31 2.53407 -1.42245 0
M  V30 6059 H 597.857 1.76398 -1.87727 0
M  V30 6060 H 597.815 3.05795 -0.730529 0
M  V30 6061 N 601.587 1.56661 0.17182 0
M  V30 6062 C 602.833 1.82235 0.889845 0
M  V30 6063 C 603.166 0.679673 1.81918 0
M  V30 6064 O 602.441 -0.318404 1.91876 0
M  V30 6065 C 602.724 3.18195 1.68595 0
M  V30 6066 C 602.577 4.42989 0.779773 0
M  V30 6067 C 603.896 3.5109 2.65375 0
M  V30 6068 H 601.015 0.66291 0.322056 0
M  V30 6069 H 603.657 1.89358 0.15608 0
M  V30 6070 H 601.807 3.12253 2.3115 0
M  V30 6071 H 603.479 4.60997 0.16714 0
M  V30 6072 H 601.722 4.33711 0.0877964 0
M  V30 6073 H 602.393 5.3467 1.3723 0
M  V30 6074 H 604.869 3.57482 2.12946 0
M  V30 6075 H 603.745 4.47298 3.18144 0
M  V30 6076 H 604.006 2.75768 3.45549 0
M  V30 6077 N 603.065 -0.440357 1.51323 0
M  V30 6078 C 604.293 -1.21255 1.67645 0
M  V30 6079 C 604.708 -1.85088 0.37252 0
M  V30 6080 O 604.065 -1.70582 -0.648683 0
M  V30 6081 C 604.116 -2.29881 2.78993 0
M  V30 6082 O 603.837 -1.68659 4.04334 0
M  V30 6083 C 605.338 -3.20214 3.06558 0
M  V30 6084 H 602.558 -0.36558 0.562666 0
M  V30 6085 H 605.102 -0.52214 1.97722 0
M  V30 6086 H 603.257 -2.94643 2.51524 0
M  V30 6087 H 603.671 -2.40426 4.6615 0
M  V30 6088 H 605.145 -3.92575 3.88058 0
M  V30 6089 H 605.622 -3.80794 2.18844 0
M  V30 6090 H 606.228 -2.61156 3.35675 0
M  V30 6091 N 604.543 -1.41418 -0.695603 0
M  V30 6092 C 605.789 -1.40982 -1.4578 0
M  V30 6093 C 606.122 -0.0187763 -1.94191 0
M  V30 6094 O 605.397 0.95346 -1.69527 0
M  V30 6095 C 605.68 -2.41657 -2.66972 0
M  V30 6096 C 605.533 -3.89869 -2.24327 0
M  V30 6097 C 606.852 -2.39589 -3.69168 0
M  V30 6098 H 603.971 -0.513405 -0.528757 0
M  V30 6099 H 606.613 -1.72693 -0.792275 0
M  V30 6100 H 604.763 -2.14746 -3.23754 0
M  V30 6101 H 606.435 -4.27683 -1.72872 0
M  V30 6102 H 604.678 -4.04737 -1.56111 0
M  V30 6103 H 605.349 -4.55857 -3.11285 0
M  V30 6104 H 607.825 -2.63471 -3.2206 0
M  V30 6105 H 606.701 -3.12044 -4.51575 0
M  V30 6106 H 606.962 -1.41447 -4.18862 0
M  V30 6107 N 606.021 0.929856 -1.27246 0
M  V30 6108 C 606.971 2.01629 -1.06442 0
M  V30 6109 C 607.955 1.60899 0.00687842 0
M  V30 6110 O 609.147 1.75733 -0.211407 0
M  V30 6111 C 606.276 3.35849 -0.711361 0
M  V30 6112 C 605.362 3.8303 -1.82069 0
M  V30 6113 N 605.753 4.02743 -3.05993 0
M  V30 6114 C 604.051 4.12046 -1.70687 0
M  V30 6115 C 604.752 4.42001 -3.78167 0
M  V30 6116 N 603.728 4.4935 -3.05918 0
M  V30 6117 H 607.53 2.14898 -2.00489 0
M  V30 6118 H 605.044 1.11654 -1.17929 0
M  V30 6119 H 607.041 4.13343 -0.543442 0
M  V30 6120 H 605.701 3.23944 0.221517 0
M  V30 6121 H 606.712 3.89112 -3.41778 0
M  V30 6122 H 603.389 4.08866 -0.844681 0
M  V30 6123 H 604.779 4.6535 -4.84664 0
M  V30 6124 N 607.499 1.09233 1.13605 0
M  V30 6125 C 608.915 0.82163 1.36826 0
M  V30 6126 C 609.115 -0.565021 1.93416 0
M  V30 6127 O 608.171 -1.32026 2.15234 0
M  V30 6128 C 609.484 1.91124 2.32147 0
M  V30 6129 C 611.032 1.93824 2.45767 0
M  V30 6130 C 611.507 3.01923 3.44393 0
M  V30 6131 N 612.998 3.01149 3.51942 0
M  V30 6132 C 613.733 3.81434 4.2813 0
M  V30 6133 N 613.229 4.71621 5.07489 0
M  V30 6134 N 615.022 3.69702 4.23411 0
M  V30 6135 H 607.173 1.98633 0.752234 0
M  V30 6136 H 609.436 0.862482 0.393482 0
M  V30 6137 H 609.142 2.90862 1.97717 0
M  V30 6138 H 609.016 1.78777 3.32142 0
M  V30 6139 H 611.403 0.94726 2.79483 0
M  V30 6140 H 611.484 2.10248 1.45703 0
M  V30 6141 H 611.128 4.01232 3.11408 0
M  V30 6142 H 611.058 2.82742 4.44257 0
M  V30 6143 H 613.549 2.35789 2.95317 0
M  V30 6144 H 613.862 5.29468 5.62924 0
M  V30 6145 H 612.207 4.75658 5.06729 0
M  V30 6146 H 615.398 2.98606 3.60489 0
M  V30 6147 H 615.571 4.32509 4.82535 0
M  V30 6148 N 608.977 -1.30795 0.87923 0
M  V30 6149 C 610.393 -1.48981 0.57243 0
M  V30 6150 C 610.593 -1.80719 -0.891236 0
M  V30 6151 O 609.649 -1.89136 -1.67283 0
M  V30 6152 C 610.962 -2.61721 1.48063 0
M  V30 6153 C 612.51 -2.75603 1.48365 0
M  V30 6154 C 612.985 -3.91449 2.37763 0
M  V30 6155 N 614.476 -3.98751 2.35695 0
M  V30 6156 C 615.211 -4.87684 3.01583 0
M  V30 6157 N 614.707 -5.81454 3.76674 0
M  V30 6158 N 616.5 -4.81005 2.90844 0
M  V30 6159 H 608.651 -1.08465 1.82617 0
M  V30 6160 H 610.914 -0.536813 0.781368 0
M  V30 6161 H 610.62 -2.45073 2.52254 0
M  V30 6162 H 610.494 -3.58071 1.18596 0
M  V30 6163 H 612.881 -2.9166 0.44927 0
M  V30 6164 H 612.962 -1.79891 1.81859 0
M  V30 6165 H 612.606 -3.76149 3.41283 0
M  V30 6166 H 612.536 -4.86487 2.01589 0
M  V30 6167 H 615.027 -3.31668 1.81121 0
M  V30 6168 H 615.34 -6.46063 4.24054 0
M  V30 6169 H 613.685 -5.81403 3.80782 0
M  V30 6170 H 616.876 -4.06728 2.31711 0
M  V30 6171 H 617.049 -5.50107 3.42471 0
M  V30 6172 N 610.455 -0.639598 -1.44038 0
M  V30 6173 C 611.702 -0.14748 -2.01962 0
M  V30 6174 C 612.03 1.23372 -1.50365 0
M  V30 6175 O 611.285 1.8345 -0.681501 0
M  V30 6176 C 611.584 -0.0925348 -3.5728 0
M  V30 6177 C 611.25 -1.41365 -4.28167 0
M  V30 6178 C 609.912 -1.77545 -4.47248 0
M  V30 6179 C 612.264 -2.2853 -4.68427 0
M  V30 6180 C 609.592 -3.00583 -5.03852 0
M  V30 6181 C 611.944 -3.50846 -5.26393 0
M  V30 6182 C 610.608 -3.8724 -5.43692 0
M  V30 6183 H 609.878 -0.0539666 -0.739032 0
M  V30 6184 H 612.525 -0.827599 -1.72694 0
M  V30 6185 H 610.83 0.670987 -3.86012 0
M  V30 6186 H 612.527 0.304891 -3.99839 0
M  V30 6187 H 609.117 -1.1221 -4.13651 0
M  V30 6188 H 613.301 -2.0187 -4.5339 0
M  V30 6189 H 608.557 -3.28846 -5.15432 0
M  V30 6190 H 612.731 -4.18616 -5.56537 0
M  V30 6191 H 610.358 -4.8266 -5.87319 0
M  V30 6192 N 611.933 1.52934 -0.380664 0
M  V30 6193 C 612.883 2.22989 0.475399 0
M  V30 6194 C 613.867 1.23058 1.03661 0
M  V30 6195 O 615.059 1.48436 0.964146 0
M  V30 6196 C 612.188 3.0338 1.60671 0
M  V30 6197 C 611.274 4.107 1.05766 0
M  V30 6198 N 611.665 5.05264 0.232837 0
M  V30 6199 C 609.963 4.25676 1.33101 0
M  V30 6200 C 610.664 5.81658 -0.0695134 0
M  V30 6201 N 609.64 5.40989 0.532144 0
M  V30 6202 H 613.442 2.93456 -0.161418 0
M  V30 6203 H 610.956 1.61291 -0.189495 0
M  V30 6204 H 612.953 3.52098 2.23232 0
M  V30 6205 H 611.613 2.34446 2.24644 0
M  V30 6206 H 612.624 5.17739 -0.129204 0
M  V30 6207 H 609.301 3.6797 1.97241 0
M  V30 6208 H 610.691 6.67843 -0.737269 0
M  V30 6209 N 613.412 0.11024 1.57214 0
M  V30 6210 C 614.64 -0.557834 1.99238 0
M  V30 6211 C 615.055 -1.60778 0.989734 0
M  V30 6212 O 614.412 -1.82491 -0.0186092 0
M  V30 6213 C 614.463 -1.19189 3.41286 0
M  V30 6214 O 614.184 -0.183919 4.37714 0
M  V30 6215 C 615.685 -1.94413 3.98395 0
M  V30 6216 H 612.905 -0.148392 0.654386 0
M  V30 6217 H 615.449 0.193996 2.03578 0
M  V30 6218 H 613.604 -1.89456 3.37913 0
M  V30 6219 H 614.018 -0.643475 5.20538 0
M  V30 6220 H 615.492 -2.34116 4.99894 0
M  V30 6221 H 615.969 -2.81592 3.3705 0
M  V30 6222 H 616.575 -1.28928 4.05287 0
M  V30 6223 N 614.89 -1.56749 -0.16351 0
M  V30 6224 C 616.167 -1.73321 -0.906599 0
M  V30 6225 C 616.547 -0.673779 -2.00059 0
M  V30 6226 O 615.895 0.310121 -2.26386 0
M  V30 6227 C 616.105 -3.168 -1.46419 0
M  V30 6228 C 617.453 -3.77993 -1.93407 0
M  V30 6229 O 618.477 -3.20127 -1.56196 0
M  V30 6230 O 617.336 -4.79615 -2.61976 0
M  V30 6231 H 614.43 -0.708073 -0.427272 0
M  V30 6232 H 616.976 -1.69029 -0.150727 0
M  V30 6233 H 615.748 -3.85396 -0.677189 0
M  V30 6234 H 615.371 -3.2545 -2.28403 0
M  V30 6235 N 616.368 0.432326 -1.51554 0
M  V30 6236 C 617.301 1.54525 -1.6792 0
M  V30 6237 C 618.279 1.53831 -0.526764 0
M  V30 6238 O 619.463 1.72884 -0.751233 0
M  V30 6239 C 616.59 2.931 -1.69736 0
M  V30 6240 C 615.636 3.11799 -2.91005 0
M  V30 6241 S 616.469 2.87565 -4.51737 0
M  V30 6242 C 617.625 4.28412 -4.56305 0
M  V30 6243 H 617.858 1.4041 -2.62054 0
M  V30 6244 H 615.391 0.622357 -1.41301 0
M  V30 6245 H 617.349 3.72974 -1.71467 0
M  V30 6246 H 616.01 3.04574 -0.767705 0
M  V30 6247 H 615.203 4.13127 -2.8869 0
M  V30 6248 H 614.805 2.39757 -2.87041 0
M  V30 6249 H 617.097 5.21692 -4.32254 0
M  V30 6250 H 618.04 4.35758 -5.58141 0
M  V30 6251 H 618.448 4.12301 -3.85576 0
M  V30 6252 N 617.846 1.41785 0.688094 0
M  V30 6253 C 619.093 1.41544 1.44816 0
M  V30 6254 C 619.421 0.0271746 1.94481 0
M  V30 6255 O 618.676 -0.962235 1.7041 0
M  V30 6256 C 618.975 2.37532 2.67046 0
M  V30 6257 C 618.641 3.84209 2.35996 0
M  V30 6258 C 617.303 4.24165 2.27239 0
M  V30 6259 C 619.655 4.76785 2.10536 0
M  V30 6260 C 616.983 5.54695 1.91128 0
M  V30 6261 C 619.335 6.07644 1.75931 0
M  V30 6262 C 617.999 6.46613 1.65675 0
M  V30 6263 H 617.269 0.517945 0.529919 0
M  V30 6264 H 619.916 1.74635 0.785797 0
M  V30 6265 H 618.221 1.9772 3.38251 0
M  V30 6266 H 619.918 2.34615 3.25203 0
M  V30 6267 H 616.508 3.52567 2.4371 0
M  V30 6268 H 620.692 4.46714 2.16242 0
M  V30 6269 H 615.948 5.83762 1.81746 0
M  V30 6270 H 620.122 6.78874 1.55252 0
M  V30 6271 H 617.749 7.47668 1.37463 0
M  V30 6272 N 619.324 -0.923095 1.27737 0
M  V30 6273 C 620.274 -2.01061 1.0751 0
M  V30 6274 C 621.258 -1.609 0.00165451 0
M  V30 6275 O 622.45 -1.75618 0.220724 0
M  V30 6276 C 619.579 -3.35467 0.729162 0
M  V30 6277 C 618.665 -3.82059 1.84098 0
M  V30 6278 N 619.056 -4.01115 3.08124 0
M  V30 6279 C 617.354 -4.11135 1.7287 0
M  V30 6280 C 618.055 -4.39989 3.80506 0
M  V30 6281 N 617.031 -4.47721 3.08297 0
M  V30 6282 H 620.833 -2.13832 2.01626 0
M  V30 6283 H 618.347 -1.11027 1.18519 0
M  V30 6284 H 620.344 -4.13049 0.565355 0
M  V30 6285 H 619.004 -3.24056 -0.204334 0
M  V30 6286 H 620.015 -3.87294 3.43836 0
M  V30 6287 H 616.692 -4.08412 0.866352 0
M  V30 6288 H 618.082 -4.62773 4.87125 0
M  V30 6289 N 620.802 -1.09834 -1.13024 0
M  V30 6290 C 621.752 -0.710899 -2.16634 0
M  V30 6291 C 622.736 0.276836 -1.58501 0
M  V30 6292 O 623.928 0.0865457 -1.76788 0
M  V30 6293 C 621.057 -0.137574 -3.43024 0
M  V30 6294 C 620.143 -1.15198 -4.08155 0
M  V30 6295 N 620.534 -2.34054 -4.48388 0
M  V30 6296 C 618.832 -0.991074 -4.34849 0
M  V30 6297 C 619.533 -2.98616 -4.99203 0
M  V30 6298 N 618.509 -2.26159 -4.94321 0
M  V30 6299 H 622.311 -1.61576 -2.455 0
M  V30 6300 H 619.825 -0.975158 -1.29863 0
M  V30 6301 H 621.822 0.158031 -4.166 0
M  V30 6302 H 620.482 0.762088 -3.1563 0
M  V30 6303 H 621.493 -2.7162 -4.40957 0
M  V30 6304 H 618.17 -0.146448 -4.17243 0
M  V30 6305 H 619.56 -3.99683 -5.40096 0
M  V30 6306 N 622.28 1.30327 -0.886154 0
M  V30 6307 C 623.557 1.90922 -0.425217 0
M  V30 6308 C 623.937 1.80533 1.09413 0
M  V30 6309 O 623.285 1.2233 1.92996 0
M  V30 6310 C 623.495 3.36529 -0.924638 0
M  V30 6311 C 624.843 4.13598 -0.960305 0
M  V30 6312 O 625.867 3.45377 -0.871382 0
M  V30 6313 O 624.726 5.35482 -1.09184 0
M  V30 6314 H 621.82 0.81668 -0.130238 0
M  V30 6315 H 624.366 1.38886 -0.975132 0
M  V30 6316 H 623.138 3.38181 -1.96849 0
M  V30 6317 H 622.761 3.96021 -0.353955 0
M  V30 6318 N 623.758 0.647228 1.43697 0
M  V30 6319 C 624.69 -0.0866232 2.29036 0
M  V30 6320 C 625.703 -0.793051 1.42178 0
M  V30 6321 O 626.892 -0.651807 1.66174 0
M  V30 6322 C 623.992 -1.14552 3.18953 0
M  V30 6323 C 623.165 -0.518422 4.34317 0
M  V30 6324 C 622.224 -1.4734 5.05151 0
M  V30 6325 O 621.25 -0.984312 5.60625 0
M  V30 6326 N 622.452 -2.8075 5.08094 0
M  V30 6327 H 625.217 0.645834 2.92659 0
M  V30 6328 H 622.778 0.489567 1.54321 0
M  V30 6329 H 624.77 -1.78505 3.63205 0
M  V30 6330 H 623.34 -1.78001 2.56971 0
M  V30 6331 H 622.56 0.300079 3.93056 0
M  V30 6332 H 623.848 -0.080401 5.08736 0
M  V30 6333 H 623.246 -3.23052 4.64386 0
M  V30 6334 H 621.803 -3.40022 5.56083 0
M  V30 6335 N 625.236 -1.5273 0.388769 0
M  V30 6336 C 626.482 -2.02545 -0.186351 0
M  V30 6337 C 626.837 -1.27017 -1.44514 0
M  V30 6338 O 626.13 -0.361948 -1.8815 0
M  V30 6339 C 626.324 -3.53765 -0.508445 0
M  V30 6340 C 626.153 -4.43938 0.71758 0
M  V30 6341 C 624.923 -4.89933 1.23668 0
M  V30 6342 C 627.121 -4.89113 1.58974 0
M  V30 6343 N 625.103 -5.64176 2.42031 0
M  V30 6344 C 626.474 -5.61931 2.61979 0
M  V30 6345 C 628.529 -4.71155 1.60989 0
M  V30 6346 C 627.232 -6.18698 3.66886 0
M  V30 6347 C 629.258 -5.28804 2.64803 0
M  V30 6348 C 628.62 -6.01527 3.6653 0
M  V30 6349 H 624.719 -0.781413 -0.0302921 0
M  V30 6350 H 627.303 -1.87104 0.538539 0
M  V30 6351 H 625.474 -3.6932 -1.20239 0
M  V30 6352 H 627.206 -3.9028 -1.07067 0
M  V30 6353 H 623.961 -4.66833 0.797763 0
M  V30 6354 H 624.385 -6.05949 3.01919 0
M  V30 6355 H 629.027 -4.14435 0.836881 0
M  V30 6356 H 626.745 -6.74501 4.45055 0
M  V30 6357 H 630.331 -5.1679 2.67245 0
M  V30 6358 H 629.211 -6.45339 4.45542 0
M  V30 6359 N 626.714 -0.118576 -1.57153 0
M  V30 6360 C 627.661 0.831789 -2.1529 0
M  V30 6361 C 628.631 1.26385 -1.07778 0
M  V30 6362 O 629.816 1.34144 -1.35684 0
M  V30 6363 C 626.956 2.07664 -2.75626 0
M  V30 6364 C 626.069 1.69298 -3.97444 0
M  V30 6365 C 625.204 2.88747 -4.45868 0
M  V30 6366 C 624.243 2.46619 -5.60219 0
M  V30 6367 N 623.38 3.5898 -6.03389 0
M  V30 6368 H 628.22 0.329183 -2.96176 0
M  V30 6369 H 625.757 0.150792 -1.46325 0
M  V30 6370 H 627.715 2.80601 -3.08738 0
M  V30 6371 H 626.345 2.55384 -1.97431 0
M  V30 6372 H 625.397 0.862374 -3.70496 0
M  V30 6373 H 626.709 1.34338 -4.80369 0
M  V30 6374 H 625.863 3.69909 -4.80887 0
M  V30 6375 H 624.602 3.26933 -3.61892 0
M  V30 6376 H 623.607 1.63889 -5.24805 0
M  V30 6377 H 624.832 2.0955 -6.45961 0
M  V30 6378 H 622.778 3.9684 -5.22354 0
M  V30 6379 H 622.695 3.27942 -6.81168 0
M  V30 6380 H 623.963 4.40583 -6.43045 0
M  V30 6381 N 628.193 1.56834 0.155195 0
M  V30 6382 C 629.123 2.00678 1.19376 0
M  V30 6383 C 630.104 0.884973 1.45266 0
M  V30 6384 O 631.289 1.1522 1.56326 0
M  V30 6385 C 628.419 2.38042 2.5289 0
M  V30 6386 C 627.373 3.53332 2.41538 0
M  V30 6387 C 626.699 3.76485 3.79688 0
M  V30 6388 C 627.999 4.86265 1.9064 0
M  V30 6389 H 629.693 2.87688 0.829232 0
M  V30 6390 H 627.239 1.38407 0.397445 0
M  V30 6391 H 629.192 2.67314 3.25763 0
M  V30 6392 H 627.916 1.4796 2.91162 0
M  V30 6393 H 626.575 3.24213 1.71117 0
M  V30 6394 H 626.223 2.83667 4.15382 0
M  V30 6395 H 625.923 4.54068 3.72956 0
M  V30 6396 H 627.447 4.08174 4.54122 0
M  V30 6397 H 628.861 5.14308 2.53299 0
M  V30 6398 H 627.258 5.67597 1.94818 0
M  V30 6399 H 628.328 4.77184 0.861596 0
M  V30 6400 N 629.671 -0.424282 1.51781 0
M  V30 6401 C 630.634 -1.49848 1.73431 0
M  V30 6402 C 631.634 -1.49016 0.604225 0
M  V30 6403 O 632.824 -1.50808 0.871935 0
M  V30 6404 C 629.956 -2.89332 1.80277 0
M  V30 6405 H 631.149 -1.3195 2.69312 0
M  V30 6406 H 628.702 -0.653809 1.41968 0
M  V30 6407 H 629.437 -3.12618 0.862568 0
M  V30 6408 H 629.222 -2.9134 2.62419 0
M  V30 6409 H 630.712 -3.67233 1.98821 0
M  V30 6410 N 631.149 -1.42148 -0.680565 0
M  V30 6411 C 632.389 -1.4379 -1.45271 0
M  V30 6412 C 632.753 -0.0504426 -1.91934 0
M  V30 6413 O 633.954 0.0583916 -2.68737 0
M  V30 6414 C 632.225 -2.42904 -2.62168 0
M  V30 6415 S 633.784 -2.63201 -3.51099 0
M  V30 6416 H 630.602 -0.509185 -0.496237 0
M  V30 6417 H 633.204 -1.78706 -0.792744 0
M  V30 6418 H 631.908 -3.4249 -2.26116 0
M  V30 6419 H 631.439 -2.09394 -3.33043 0
M  V30 6420 H 633.454 -1.91068 -4.57938 0
M  V30 6421 N 632.627 0.916307 -1.28225 0
M  V30 6422 C 633.876 1.65975 -1.14608 0
M  V30 6423 C 634.189 1.93204 0.305191 0
M  V30 6424 O 635.395 2.65611 0.562432 0
M  V30 6425 C 633.851 2.98989 -2.00333 0
M  V30 6426 C 633.459 2.79417 -3.50186 0
M  V30 6427 C 635.203 3.76856 -1.95397 0
M  V30 6428 C 633.11 4.08056 -4.28071 0
M  V30 6429 H 632.04 0.622587 -0.425324 0
M  V30 6430 H 634.691 1.01705 -1.52736 0
M  V30 6431 H 633.073 3.6438 -1.5506 0
M  V30 6432 H 634.247 2.22723 -4.034 0
M  V30 6433 H 632.562 2.14966 -3.56621 0
M  V30 6434 H 635.159 4.72203 -2.50856 0
M  V30 6435 H 635.502 4.05776 -0.930137 0
M  V30 6436 H 636.035 3.1828 -2.38626 0
M  V30 6437 H 632.774 3.8431 -5.31024 0
M  V30 6438 H 632.294 4.64371 -3.79631 0
M  V30 6439 H 633.973 4.76333 -4.37854 0
M  V30 6440 N 634.105 1.10431 1.1244 0
M  V30 6441 C 635.382 0.758797 1.80282 0
M  V30 6442 C 635.762 -0.754727 1.97147 0
M  V30 6443 O 635.11 -1.68094 1.54779 0
M  V30 6444 C 635.32 1.50982 3.14651 0
M  V30 6445 C 636.668 1.68232 3.8985 0
M  V30 6446 O 637.692 1.47319 3.24308 0
M  V30 6447 O 636.551 2.02905 5.07437 0
M  V30 6448 H 633.645 0.273756 0.780376 0
M  V30 6449 H 636.191 1.20713 1.19275 0
M  V30 6450 H 634.963 2.53989 2.97666 0
M  V30 6451 H 634.586 1.05435 3.83366 0
M  V30 6452 N 635.583 -1.29855 0.893053 0
M  V30 6453 C 636.808 -2.00512 0.530066 0
M  V30 6454 C 637.233 -1.66446 -0.876199 0
M  V30 6455 O 636.591 -0.885446 -1.58207 0
M  V30 6456 C 636.639 -3.53308 0.721505 0
M  V30 6457 O 635.743 -4.11764 -0.228994 0
M  V30 6458 H 635.084 -0.630617 0.207891 0
M  V30 6459 H 637.614 -1.6551 1.20282 0
M  V30 6460 H 637.624 -4.03206 0.623599 0
M  V30 6461 H 636.299 -3.77439 1.74678 0
M  V30 6462 H 634.876 -3.72805 -0.0841034 0
M  V30 6463 N 637.061 -0.65484 -1.43351 0
M  V30 6464 C 638.291 -0.176429 -2.05845 0
M  V30 6465 C 638.699 1.16375 -1.49176 0
M  V30 6466 O 638.042 1.72981 -0.618322 0
M  V30 6467 C 638.104 -0.0125844 -3.59498 0
M  V30 6468 C 637.768 -1.27831 -4.38758 0
M  V30 6469 C 638.765 -2.2074 -4.70712 0
M  V30 6470 C 636.45 -1.52035 -4.78739 0
M  V30 6471 C 638.444 -3.36145 -5.41558 0
M  V30 6472 C 636.131 -2.67732 -5.49329 0
M  V30 6473 C 637.129 -3.59612 -5.80662 0
M  V30 6474 O 636.817 -4.73289 -6.4981 0
M  V30 6475 H 636.549 -0.0879682 -0.670252 0
M  V30 6476 H 639.103 -0.896193 -1.84818 0
M  V30 6477 H 637.333 0.762567 -3.79107 0
M  V30 6478 H 639.022 0.423392 -4.03686 0
M  V30 6479 H 639.788 -2.03284 -4.40341 0
M  V30 6480 H 635.667 -0.813987 -4.53757 0
M  V30 6481 H 639.211 -4.07881 -5.65932 0
M  V30 6482 H 635.108 -2.85122 -5.79116 0
M  V30 6483 H 635.876 -4.72575 -6.68293 0
M  V30 6484 N 638.539 1.52521 -0.396863 0
M  V30 6485 C 639.955 1.5953 -0.0471659 0
M  V30 6486 C 640.155 1.41044 1.43906 0
M  V30 6487 O 639.211 1.23122 2.20448 0
M  V30 6488 C 640.524 2.95972 -0.531113 0
M  V30 6489 C 642.072 3.09172 -0.488024 0
M  V30 6490 C 642.547 4.48075 -0.948281 0
M  V30 6491 N 644.038 4.54281 -0.9046 0
M  V30 6492 C 644.773 5.60007 -1.23205 0
M  V30 6493 N 644.269 6.73343 -1.63036 0
M  V30 6494 N 646.062 5.50151 -1.15282 0
M  V30 6495 H 638.213 1.62786 -1.36435 0
M  V30 6496 H 640.476 0.76514 -0.559701 0
M  V30 6497 H 640.182 3.14741 -1.56942 0
M  V30 6498 H 640.056 3.77143 0.0657922 0
M  V30 6499 H 642.443 2.90095 0.541211 0
M  V30 6500 H 642.524 2.29937 -1.12083 0
M  V30 6501 H 642.168 4.67894 -1.97578 0
M  V30 6502 H 642.098 5.25788 -0.292412 0
M  V30 6503 H 644.589 3.72918 -0.6116 0
M  V30 6504 H 644.902 7.49992 -1.86365 0
M  V30 6505 H 643.247 6.74655 -1.66929 0
M  V30 6506 H 646.438 4.6049 -0.840602 0
M  V30 6507 H 646.611 6.32444 -1.41133 0
M  V30 6508 N 640.017 0.126909 1.57088 0
M  V30 6509 C 641.433 -0.229641 1.57939 0
M  V30 6510 C 641.633 -1.66145 1.1401 0
M  V30 6511 O 640.689 -2.3843 0.831119 0
M  V30 6512 C 642.002 0.0108648 3.00698 0
M  V30 6513 C 643.55 -0.054418 3.12953 0
M  V30 6514 C 644.025 0.158497 4.57726 0
M  V30 6515 N 645.516 0.104735 4.63082 0
M  V30 6516 C 646.251 0.24427 5.72879 0
M  V30 6517 N 645.747 0.440415 6.91399 0
M  V30 6518 N 647.54 0.183286 5.61801 0
M  V30 6519 H 639.691 1.06203 1.83942 0
M  V30 6520 H 641.954 0.418834 0.85046 0
M  V30 6521 H 641.66 1.00102 3.37154 0
M  V30 6522 H 641.534 -0.717512 3.70313 0
M  V30 6523 H 643.921 -1.0351 2.7635 0
M  V30 6524 H 644.002 0.705967 2.45865 0
M  V30 6525 H 643.646 1.13619 4.95028 0
M  V30 6526 H 643.576 -0.62197 5.22914 0
M  V30 6527 H 646.067 -0.0430298 3.77876 0
M  V30 6528 H 646.38 0.537536 7.70928 0
M  V30 6529 H 644.725 0.476488 6.93365 0
M  V30 6530 H 647.916 0.0309561 4.6809 0
M  V30 6531 H 648.089 0.295471 6.47326 0
M  V30 6532 N 641.495 -1.56914 -0.146875 0
M  V30 6533 C 642.458 -1.97368 -1.16526 0
M  V30 6534 C 643.458 -0.860223 -1.35856 0
M  V30 6535 O 644.648 -1.12684 -1.32846 0
M  V30 6536 C 641.78 -2.28974 -2.52555 0
M  V30 6537 H 642.973 -2.88523 -0.818209 0
M  V30 6538 H 640.526 -1.5135 -0.390221 0
M  V30 6539 H 641.261 -1.40611 -2.92231 0
M  V30 6540 H 641.046 -3.10157 -2.39886 0
M  V30 6541 H 642.536 -2.61109 -3.25902 0
M  V30 6542 N 642.974 0.416227 -1.52004 0
M  V30 6543 C 644.221 1.16383 -1.65714 0
M  V30 6544 C 644.549 1.9068 -0.383594 0
M  V30 6545 O 643.804 1.85174 0.633185 0
M  V30 6546 C 644.103 2.18923 -2.82502 0
M  V30 6547 C 643.769 1.61485 -4.20991 0
M  V30 6548 C 642.431 1.45545 -4.58661 0
M  V30 6549 C 644.783 1.19468 -5.07323 0
M  V30 6550 C 642.111 0.860937 -5.80349 0
M  V30 6551 C 644.463 0.614386 -6.29609 0
M  V30 6552 C 643.127 0.442056 -6.66035 0
M  V30 6553 H 642.397 0.425875 -0.606392 0
M  V30 6554 H 645.044 0.45199 -1.8609 0
M  V30 6555 H 643.349 2.96225 -2.56433 0
M  V30 6556 H 645.046 2.76628 -2.90307 0
M  V30 6557 H 641.636 1.74873 -3.91302 0
M  V30 6558 H 645.82 1.30596 -4.78809 0
M  V30 6559 H 641.076 0.715372 -6.072 0
M  V30 6560 H 645.25 0.280393 -6.95835 0
M  V30 6561 H 642.877 -0.0207218 -7.60197 0
M  V30 6562 N 644.452 1.42507 0.673017 0
M  V30 6563 C 645.692 1.44559 1.44507 0
M  V30 6564 C 646.056 0.0606206 1.91904 0
M  V30 6565 O 647.257 -0.044139 2.68764 0
M  V30 6566 C 645.528 2.44291 2.60877 0
M  V30 6567 S 647.087 2.65059 3.49699 0
M  V30 6568 H 643.905 0.51181 0.49353 0
M  V30 6569 H 646.507 1.79124 0.783256 0
M  V30 6570 H 645.211 3.43685 2.24297 0
M  V30 6571 H 644.742 2.11157 3.31928 0
M  V30 6572 H 646.757 1.93494 4.56919 0
M  V30 6573 N 645.93 -0.909495 1.28709 0
M  V30 6574 C 647.158 -1.69272 1.18973 0
M  V30 6575 C 647.573 -1.87123 -0.251048 0
M  V30 6576 O 646.93 -1.40127 -1.16922 0
M  V30 6577 C 646.981 -3.08257 1.88839 0
M  V30 6578 O 646.702 -2.91228 3.27289 0
M  V30 6579 C 648.203 -4.02642 1.85457 0
M  V30 6580 H 645.423 -0.528999 0.412797 0
M  V30 6581 H 647.967 -1.13803 1.69909 0
M  V30 6582 H 646.122 -3.6053 1.41762 0
M  V30 6583 H 646.536 -3.79223 3.6234 0
M  V30 6584 H 648.01 -4.97613 2.38925 0
M  V30 6585 H 648.487 -4.31327 0.827893 0
M  V30 6586 H 649.093 -3.56298 2.32233 0
M  V30 6587 N 647.408 -1.11026 -1.11852 0
M  V30 6588 C 648.338 -0.786812 -2.19844 0
M  V30 6589 C 649.319 0.242935 -1.68356 0
M  V30 6590 O 650.504 0.107355 -1.93903 0
M  V30 6591 C 647.634 -0.224516 -3.46574 0
M  V30 6592 C 646.588 -1.18564 -4.1125 0
M  V30 6593 C 645.914 -0.484261 -5.32503 0
M  V30 6594 C 647.214 -2.53465 -4.56676 0
M  V30 6595 H 648.908 -1.68978 -2.47158 0
M  V30 6596 H 646.454 -0.813906 -1.18792 0
M  V30 6597 H 648.407 0.0139435 -4.21398 0
M  V30 6598 H 647.131 0.713722 -3.18706 0
M  V30 6599 H 645.79 -1.40966 -3.38414 0
M  V30 6600 H 645.438 0.458646 -5.00905 0
M  V30 6601 H 645.138 -1.12526 -5.76725 0
M  V30 6602 H 646.662 -0.254492 -6.10069 0
M  V30 6603 H 648.076 -2.35177 -5.22843 0
M  V30 6604 H 646.473 -3.13507 -5.11697 0
M  V30 6605 H 647.543 -3.13008 -3.70343 0
M  V30 6606 N 648.886 1.2938 -0.899927 0
M  V30 6607 C 649.849 2.25983 -0.382677 0
M  V30 6608 C 650.849 1.53366 0.483259 0
M  V30 6609 O 652.039 1.71798 0.28828 0
M  V30 6610 C 649.171 3.37878 0.452915 0
M  V30 6611 H 650.364 2.73252 -1.23586 0
M  V30 6612 H 647.917 1.40825 -0.678088 0
M  V30 6613 H 648.652 2.95949 1.32608 0
M  V30 6614 H 648.437 3.91742 -0.167562 0
M  V30 6615 H 649.927 4.09746 0.806107 0
M  V30 6616 N 650.364 0.662433 1.43002 0
M  V30 6617 C 651.641 0.109096 1.95296 0
M  V30 6618 C 652.021 -1.37313 1.60338 0
M  V30 6619 O 651.369 -2.1032 0.893187 0
M  V30 6620 C 651.579 0.365096 3.47085 0
M  V30 6621 C 652.927 0.274964 4.23709 0
M  V30 6622 O 653.951 0.29816 3.5495 0
M  V30 6623 O 652.81 0.206549 5.4611 0
M  V30 6624 H 649.904 -0.00429724 0.826989 0
M  V30 6625 H 652.45 0.736308 1.52894 0
M  V30 6626 H 651.222 1.39237 3.65689 0
M  V30 6627 H 650.845 -0.294733 3.96506 0
M  V30 6628 N 651.842 -1.52309 0.404946 0
M  V30 6629 C 652.805 -2.25491 -0.410651 0
M  V30 6630 C 653.805 -1.27704 -0.977154 0
M  V30 6631 O 654.995 -1.51679 -0.856691 0
M  V30 6632 C 652.127 -3.02197 -1.57765 0
M  V30 6633 H 653.32 -2.99015 0.230277 0
M  V30 6634 H 650.873 -1.55506 0.157377 0
M  V30 6635 H 651.608 -2.33013 -2.25556 0
M  V30 6636 H 651.393 -3.73987 -1.17797 0
M  V30 6637 H 652.883 -3.57719 -2.15469 0
M  V30 6638 N 653.32 -0.135238 -1.57019 0
M  V30 6639 C 654.569 0.518694 -1.94917 0
M  V30 6640 C 654.882 1.66783 -1.0219 0
M  V30 6641 O 656.088 2.38561 -1.29619 0
M  V30 6642 C 654.544 0.974123 -3.46466 0
M  V30 6643 C 654.152 -0.147439 -4.47757 0
M  V30 6644 C 655.896 1.59851 -3.93253 0
M  V30 6645 C 653.803 0.325599 -5.90503 0
M  V30 6646 H 652.733 0.19754 -0.727663 0
M  V30 6647 H 655.384 -0.217698 -1.82204 0
M  V30 6648 H 653.766 1.76542 -3.5447 0
M  V30 6649 H 654.94 -0.924122 -4.51438 0
M  V30 6650 H 653.255 -0.679496 -4.10818 0
M  V30 6651 H 655.852 1.96385 -4.9733 0
M  V30 6652 H 656.195 2.48306 -3.3414 0
M  V30 6653 H 656.728 0.872323 -3.88118 0
M  V30 6654 H 653.467 -0.523295 -6.53408 0
M  V30 6655 H 652.987 1.06841 -5.90208 0
M  V30 6656 H 654.666 0.781498 -6.42263 0
M  V30 6657 N 654.798 1.5699 0.138552 0
M  V30 6658 C 655.745 1.98899 1.17081 0
M  V30 6659 C 656.715 0.857922 1.42228 0
M  V30 6660 O 657.9 1.12065 1.54422 0
M  V30 6661 C 655.04 2.38189 2.4972 0
M  V30 6662 C 654.153 3.64624 2.31674 0
M  V30 6663 C 653.288 3.9298 3.57407 0
M  V30 6664 C 652.327 5.1266 3.34435 0
M  V30 6665 N 651.464 5.36983 4.5232 0
M  V30 6666 H 656.304 2.86881 0.80642 0
M  V30 6667 H 653.841 1.41925 0.386727 0
M  V30 6668 H 655.799 2.59 3.2707 0
M  V30 6669 H 654.429 1.53275 2.84089 0
M  V30 6670 H 653.481 3.51542 1.45337 0
M  V30 6671 H 654.793 4.52131 2.10664 0
M  V30 6672 H 653.947 4.14335 4.43183 0
M  V30 6673 H 652.686 3.03912 3.8143 0
M  V30 6674 H 651.691 4.9117 2.47048 0
M  V30 6675 H 652.916 6.03288 3.11802 0
M  V30 6676 H 650.862 4.50871 4.76499 0
M  V30 6677 H 650.779 6.18775 4.34343 0
M  V30 6678 H 652.047 5.62842 5.39285 0
M  V30 6679 N 656.276 -0.40816 1.52223 0
M  V30 6680 C 657.523 -1.15502 1.66329 0
M  V30 6681 C 657.851 -1.90474 0.393701 0
M  V30 6682 O 657.106 -1.85507 -0.623356 0
M  V30 6683 C 657.405 -2.17422 2.83659 0
M  V30 6684 C 657.071 -1.5925 4.21841 0
M  V30 6685 C 655.733 -1.4311 4.59427 0
M  V30 6686 C 658.085 -1.16776 5.0795 0
M  V30 6687 C 655.413 -0.830148 5.80797 0
M  V30 6688 C 657.765 -0.580988 6.29926 0
M  V30 6689 C 656.429 -0.406729 6.6626 0
M  V30 6690 H 655.699 -0.422653 0.608642 0
M  V30 6691 H 658.346 -0.442114 1.86327 0
M  V30 6692 H 656.651 -2.94861 2.58001 0
M  V30 6693 H 658.348 -2.75084 2.9177 0
M  V30 6694 H 654.938 -1.72796 3.92224 0
M  V30 6695 H 659.122 -1.28055 4.79495 0
M  V30 6696 H 654.378 -0.68316 6.07571 0
M  V30 6697 H 658.552 -0.243488 6.95974 0
M  V30 6698 H 656.179 0.0610366 7.60175 0
M  V30 6699 N 657.755 -1.42862 -0.66545 0
M  V30 6700 C 658.685 -1.49867 -1.79059 0
M  V30 6701 C 659.666 -0.354394 -1.66367 0
M  V30 6702 O 660.851 -0.569969 -1.85647 0
M  V30 6703 C 657.981 -1.40943 -3.17415 0
M  V30 6704 C 656.935 -2.53495 -3.44854 0
M  V30 6705 C 656.261 -2.29626 -4.82883 0
M  V30 6706 C 657.561 -3.95781 -3.40815 0
M  V30 6707 H 659.255 -2.44037 -1.73453 0
M  V30 6708 H 656.801 -1.17456 -0.833071 0
M  V30 6709 H 658.754 -1.4445 -3.95869 0
M  V30 6710 H 657.478 -0.432716 -3.23721 0
M  V30 6711 H 656.137 -2.4932 -2.68766 0
M  V30 6712 H 655.785 -1.30226 -4.8585 0
M  V30 6713 H 655.485 -3.05065 -5.02204 0
M  V30 6714 H 657.009 -2.34897 -5.63609 0
M  V30 6715 H 658.423 -4.01508 -4.09224 0
M  V30 6716 H 656.82 -4.71148 -3.71672 0
M  V30 6717 H 657.89 -4.21786 -2.39216 0
M  V30 6718 N 659.233 0.902656 -1.29189 0
M  V30 6719 C 660.181 2.0278 -1.13943 0
M  V30 6720 C 661.175 1.69308 -0.055787 0
M  V30 6721 O 662.381 1.78707 -0.215371 0
M  V30 6722 H 658.756 0.664595 -0.351877 0
M  V30 6723 H 660.727 2.12778 -2.09208 0
M  V30 6724 C 659.476 3.37657 -0.82966 0
M  V30 6725 H 658.799 3.63913 -1.65551 0
M  V30 6726 H 660.239 4.17078 -0.762998 0
M  V30 6727 C 658.698 3.33648 0.466991 0
M  V30 6728 O 659.228 3.72886 1.49395 0
M  V30 6729 N 657.434 2.86745 0.471761 0
M  V30 6730 H 656.981 2.55009 -0.364406 0
M  V30 6731 H 656.939 2.84446 1.33933 0
M  V30 6732 N 660.711 1.11618 1.11262 0
M  V30 6733 C 661.661 0.745274 2.15475 0
M  V30 6734 C 662.645 -0.251585 1.58921 0
M  V30 6735 O 663.837 -0.0584093 1.76904 0
M  V30 6736 C 660.966 0.192128 3.42762 0
M  V30 6737 C 660.052 1.21676 4.0627 0
M  V30 6738 N 660.443 2.41158 4.44608 0
M  V30 6739 C 658.741 1.06013 4.33217 0
M  V30 6740 C 659.442 3.0652 4.94389 0
M  V30 6741 N 658.418 2.33994 4.9066 0
M  V30 6742 H 662.22 1.65462 2.42898 0
M  V30 6743 H 659.734 0.995695 1.28295 0
M  V30 6744 H 661.731 -0.0917339 4.16799 0
M  V30 6745 H 660.391 -0.711778 3.16802 0
M  V30 6746 H 661.402 2.786 4.3658 0
M  V30 6747 H 658.079 0.212809 4.16957 0
M  V30 6748 H 659.469 4.08225 5.33669 0
M  V30 6749 N 662.189 -1.289 0.906776 0
M  V30 6750 C 663.121 -2.26556 0.347159 0
M  V30 6751 C 664.134 -1.54589 -0.51049 0
M  V30 6752 O 665.323 -1.75489 -0.326501 0
M  V30 6753 C 662.423 -3.3484 -0.523024 0
M  V30 6754 C 661.596 -4.36296 0.310515 0
M  V30 6755 C 660.655 -5.23879 -0.493634 0
M  V30 6756 O 659.681 -5.69127 0.0913569 0
M  V30 6757 N 660.883 -5.51946 -1.7982 0
M  V30 6758 H 663.648 -2.75212 1.18652 0
M  V30 6759 H 661.209 -1.42309 0.771996 0
M  V30 6760 H 663.201 -3.90366 -1.06756 0
M  V30 6761 H 661.771 -2.85946 -1.26309 0
M  V30 6762 H 660.991 -3.80331 1.03644 0
M  V30 6763 H 662.279 -5.01113 0.881106 0
M  V30 6764 H 661.677 -5.17006 -2.2961 0
M  V30 6765 H 660.234 -6.10258 -2.28971 0
M  V30 6766 N 663.667 -0.670007 -1.42649 0
M  V30 6767 C 664.907 -0.194106 -2.03476 0
M  V30 6768 C 665.271 1.1755 -1.51809 0
M  V30 6769 O 666.472 1.74579 -2.04391 0
M  V30 6770 C 664.743 -0.221828 -3.56711 0
M  V30 6771 S 666.302 0.183772 -4.38415 0
M  V30 6772 H 663.12 -0.0802478 -0.706457 0
M  V30 6773 H 665.722 -0.882092 -1.74469 0
M  V30 6774 H 664.426 -1.22107 -3.91814 0
M  V30 6775 H 663.957 0.486149 -3.90385 0
M  V30 6776 H 665.972 1.41839 -4.75496 0
M  V30 6777 N 665.145 1.52092 -0.413018 0
M  V30 6778 C 666.561 1.59471 -0.0640836 0
M  V30 6779 C 666.761 1.42562 1.42402 0
M  V30 6780 O 665.817 1.25453 2.19129 0
M  V30 6781 C 667.13 2.95392 -0.562474 0
M  V30 6782 C 668.678 3.08637 -0.520788 0
M  V30 6783 C 669.153 4.47044 -0.995752 0
M  V30 6784 N 670.644 4.53296 -0.952732 0
M  V30 6785 C 671.379 5.58669 -1.29138 0
M  V30 6786 N 670.875 6.71576 -1.70168 0
M  V30 6787 N 672.668 5.48898 -1.2111 0
M  V30 6788 H 664.819 1.6133 -1.38153 0
M  V30 6789 H 667.082 0.75916 -0.567785 0
M  V30 6790 H 666.788 3.13059 -1.60271 0
M  V30 6791 H 666.662 3.77191 0.0257875 0
M  V30 6792 H 669.049 2.90652 0.510412 0
M  V30 6793 H 669.13 2.28735 -1.14515 0
M  V30 6794 H 668.774 4.65773 -2.0253 0
M  V30 6795 H 668.704 5.25448 -0.348162 0
M  V30 6796 H 671.195 3.72248 -0.651119 0
M  V30 6797 H 671.508 7.47973 -1.9431 0
M  V30 6798 H 669.853 6.72847 -1.74075 0
M  V30 6799 H 673.044 4.59573 -0.889396 0
M  V30 6800 H 673.217 6.30912 -1.47833 0
M  V30 6801 N 666.623 0.143563 1.56945 0
M  V30 6802 C 667.869 -0.50916 1.96304 0
M  V30 6803 C 668.202 -1.64741 1.0283 0
M  V30 6804 O 667.477 -1.94374 0.0700361 0
M  V30 6805 C 667.76 -1.0186 3.45393 0
M  V30 6806 C 667.613 0.117923 4.49645 0
M  V30 6807 C 668.932 -1.90151 3.96901 0
M  V30 6808 H 666.051 -0.183608 0.713763 0
M  V30 6809 H 668.693 0.224095 1.88674 0
M  V30 6810 H 666.843 -1.64345 3.52027 0
M  V30 6811 H 668.515 0.754145 4.55094 0
M  V30 6812 H 666.758 0.777568 4.26774 0
M  V30 6813 H 667.429 -0.280187 5.51288 0
M  V30 6814 H 669.905 -1.375 3.92725 0
M  V30 6815 H 668.781 -2.22707 5.0169 0
M  V30 6816 H 669.042 -2.83718 3.39052 0
M  V30 6817 N 668.101 -1.57061 -0.130224 0
M  V30 6818 C 669.341 -1.86071 -0.845993 0
M  V30 6819 C 669.705 -0.73009 -1.77577 0
M  V30 6820 O 670.906 -0.901663 -2.53226 0
M  V30 6821 C 669.177 -3.20293 -1.58579 0
M  V30 6822 S 670.736 -3.70905 -2.34467 0
M  V30 6823 H 667.554 -0.652434 -0.282579 0
M  V30 6824 H 670.156 -1.95218 -0.10498 0
M  V30 6825 H 668.86 -4.00533 -0.894509 0
M  V30 6826 H 668.391 -3.14195 -2.36739 0
M  V30 6827 H 670.406 -3.41509 -3.59981 0
M  V30 6828 N 669.579 0.400081 -1.52437 0
M  V30 6829 C 670.529 1.48734 -1.72807 0
M  V30 6830 C 671.513 1.50004 -0.582032 0
M  V30 6831 O 672.705 1.55828 -0.839449 0
M  V30 6832 C 669.834 2.86568 -1.89034 0
M  V30 6833 C 668.92 2.8991 -3.09537 0
M  V30 6834 N 669.311 2.62937 -4.32086 0
M  V30 6835 C 667.609 3.21078 -3.09556 0
M  V30 6836 C 668.31 2.73079 -5.13617 0
M  V30 6837 N 667.286 3.06342 -4.49061 0
M  V30 6838 H 671.088 1.26689 -2.65193 0
M  V30 6839 H 668.602 0.607902 -1.50593 0
M  V30 6840 H 670.599 3.64834 -2.01746 0
M  V30 6841 H 669.259 3.09604 -0.978547 0
M  V30 6842 H 670.27 2.37163 -4.60406 0
M  V30 6843 H 666.947 3.49651 -2.28146 0
M  V30 6844 H 668.337 2.55863 -6.21276 0
M  V30 6845 N 671.057 1.43213 0.657864 0
M  V30 6846 C 672.304 1.44584 1.41781 0
M  V30 6847 C 672.632 0.0684208 1.9438 0
M  V30 6848 O 671.887 -0.925872 1.72413 0
M  V30 6849 C 672.186 2.43143 2.61947 0
M  V30 6850 C 671.852 3.89128 2.27794 0
M  V30 6851 C 670.514 4.28889 2.18191 0
M  V30 6852 C 672.866 4.81144 2.00375 0
M  V30 6853 C 670.194 5.58625 1.79319 0
M  V30 6854 C 672.546 6.11239 1.63003 0
M  V30 6855 C 671.21 6.49981 1.51922 0
M  V30 6856 H 670.48 0.529069 0.518813 0
M  V30 6857 H 673.127 1.76263 0.748577 0
M  V30 6858 H 671.432 2.04851 3.33981 0
M  V30 6859 H 673.129 2.4146 3.20153 0
M  V30 6860 H 669.719 3.57657 2.36176 0
M  V30 6861 H 673.903 4.512 2.06718 0
M  V30 6862 H 669.159 5.87486 1.69323 0
M  V30 6863 H 673.333 6.82014 1.40817 0
M  V30 6864 H 670.96 7.50416 1.21572 0
M  V30 6865 N 672.536 -0.895792 1.29666 0
M  V30 6866 C 673.813 -1.62723 1.08538 0
M  V30 6867 C 674.193 -2.07848 -0.369119 0
M  V30 6868 O 673.541 -1.8372 -1.35864 0
M  V30 6869 C 673.751 -2.80505 2.07648 0
M  V30 6870 C 675.099 -3.51098 2.3878 0
M  V30 6871 O 676.123 -2.90679 2.05874 0
M  V30 6872 O 674.982 -4.60028 2.9502 0
M  V30 6873 H 672.076 -0.714692 0.416106 0
M  V30 6874 H 674.622 -0.943517 1.41053 0
M  V30 6875 H 673.394 -2.44386 3.05599 0
M  V30 6876 H 673.017 -3.5658 1.75887 0
M  V30 6877 N 674.014 -1.12206 -1.10668 0
M  V30 6878 C 675.263 -0.870595 -1.81944 0
M  V30 6879 C 675.576 0.605447 -1.85994 0
M  V30 6880 O 676.782 0.973433 -2.53449 0
M  V30 6881 C 675.238 -1.50783 -3.26791 0
M  V30 6882 C 674.846 -3.01849 -3.31046 0
M  V30 6883 C 676.59 -1.33653 -4.02911 0
M  V30 6884 C 674.497 -3.58518 -4.70339 0
M  V30 6885 H 673.427 -0.322043 -0.681765 0
M  V30 6886 H 676.078 -1.34827 -1.24475 0
M  V30 6887 H 674.46 -0.957825 -3.84242 0
M  V30 6888 H 675.634 -3.63321 -2.83433 0
M  V30 6889 H 673.949 -3.18346 -2.68411 0
M  V30 6890 H 676.546 -1.73416 -5.05797 0
M  V30 6891 H 676.889 -0.279949 -4.15358 0
M  V30 6892 H 677.422 -1.85562 -3.51868 0
M  V30 6893 H 674.161 -4.63925 -4.63091 0
M  V30 6894 H 673.681 -3.01819 -5.18329 0
M  V30 6895 H 675.36 -3.57434 -5.39305 0
M  V30 6896 N 675.492 1.28418 -0.913599 0
M  V30 6897 C 676.72 1.99106 -0.562536 0
M  V30 6898 C 677.135 1.68273 0.856137 0
M  V30 6899 O 676.492 0.935401 1.56705 0
M  V30 6900 C 676.543 3.5338 -0.761903 0
M  V30 6901 O 676.264 3.83127 -2.12475 0
M  V30 6902 C 677.765 4.41328 -0.417651 0
M  V30 6903 H 674.985 0.635798 -0.214481 0
M  V30 6904 H 677.529 1.63618 -1.22676 0
M  V30 6905 H 675.684 3.8713 -0.144676 0
M  V30 6906 H 676.098 4.77763 -2.16431 0
M  V30 6907 H 677.572 5.48642 -0.607919 0
M  V30 6908 H 678.049 4.34422 0.646108 0
M  V30 6909 H 678.655 4.13074 -1.01241 0
M  V30 6910 N 676.97 0.677563 1.42291 0
M  V30 6911 C 678.381 0.277912 1.8462 0
M  V30 6912 C 678.732 -1.18048 1.56714 0
M  V30 6913 O 677.857 -1.90404 1.02836 0
M  V30 6914 C 678.452 0.497619 3.35126 0
M  V30 6915 C 677.011 0.152063 3.76093 0
M  V30 6916 C 676.158 0.78872 2.65847 0
M  V30 6917 H 679.109 0.879527 1.32098 0
M  V30 6918 H 679.13 -0.24939 3.79682 0
M  V30 6919 H 678.642 1.55913 3.55405 0
M  V30 6920 H 676.743 -0.905896 3.6142 0
M  V30 6921 H 676.856 0.594514 4.75397 0
M  V30 6922 H 675.22 0.219813 2.5375 0
M  V30 6923 H 676.003 1.85374 2.88949 0
M  V30 6924 N 678.448 -1.51871 0.421078 0
M  V30 6925 C 679.381 -2.23851 -0.443369 0
M  V30 6926 C 680.359 -1.25142 -1.03818 0
M  V30 6927 O 681.543 -1.5423 -1.08377 0
M  V30 6928 C 678.67 -2.97637 -1.61648 0
M  V30 6929 C 677.716 -4.10873 -1.14391 0
M  V30 6930 S 678.549 -5.35408 -0.0992403 0
M  V30 6931 C 679.705 -6.12726 -1.27739 0
M  V30 6932 H 679.938 -2.96826 0.167786 0
M  V30 6933 H 677.471 -1.53027 0.205461 0
M  V30 6934 H 679.429 -3.40751 -2.28909 0
M  V30 6935 H 678.09 -2.24282 -2.199 0
M  V30 6936 H 677.283 -4.61718 -2.02069 0
M  V30 6937 H 676.885 -3.69937 -0.549775 0
M  V30 6938 H 679.177 -6.40827 -2.19881 0
M  V30 6939 H 680.12 -7.03461 -0.809239 0
M  V30 6940 H 680.528 -5.43968 -1.5086 0
M  V30 6941 N 679.926 -0.151884 -1.56866 0
M  V30 6942 C 680.874 0.80299 -2.183 0
M  V30 6943 C 681.868 1.25174 -1.14139 0
M  V30 6944 O 683.074 1.21966 -1.3238 0
M  V30 6945 H 679.449 0.277169 -0.699057 0
M  V30 6946 H 681.42 0.260699 -2.97259 0
M  V30 6947 C 680.169 2.03009 -2.82281 0
M  V30 6948 H 679.492 1.69377 -3.62148 0
M  V30 6949 H 680.932 2.67753 -3.28762 0
M  V30 6950 C 679.391 2.84123 -1.81041 0
M  V30 6951 O 679.921 3.8063 -1.28388 0
M  V30 6952 N 678.127 2.48753 -1.50234 0
M  V30 6953 H 677.674 1.70337 -1.93244 0
M  V30 6954 H 677.632 3.03316 -0.827445 0
M  V30 6955 N 681.404 1.57128 0.121893 0
M  V30 6956 C 682.65 1.84974 0.831418 0
M  V30 6957 C 682.983 0.737204 1.79663 0
M  V30 6958 O 682.258 -0.257199 1.92792 0
M  V30 6959 C 682.541 3.23397 1.58386 0
M  V30 6960 C 682.394 4.45246 0.638445 0
M  V30 6961 C 683.713 3.59355 2.54071 0
M  V30 6962 H 680.832 0.67282 0.300803 0
M  V30 6963 H 683.474 1.89759 0.0957587 0
M  V30 6964 H 681.624 3.19449 2.21098 0
M  V30 6965 H 683.296 4.61295 0.0203925 0
M  V30 6966 H 681.539 4.33771 -0.05023 0
M  V30 6967 H 682.21 5.38765 1.20151 0
M  V30 6968 H 684.686 3.64075 2.01465 0
M  V30 6969 H 683.562 4.57193 3.03752 0
M  V30 6970 H 683.823 2.86622 3.36601 0
M  V30 6971 N 682.882 -0.391992 1.52647 0
M  V30 6972 C 683.812 -1.48517 1.8018 0
M  V30 6973 C 684.793 -1.57039 0.653667 0
M  V30 6974 O 685.978 -1.72036 0.900962 0
M  V30 6975 C 683.108 -2.86161 1.96797 0
M  V30 6976 C 682.062 -2.92481 3.12472 0
M  V30 6977 C 681.388 -4.32546 3.14338 0
M  V30 6978 C 682.688 -2.624 4.51601 0
M  V30 6979 H 684.382 -1.25726 2.71723 0
M  V30 6980 H 681.928 -0.603387 1.30749 0
M  V30 6981 H 683.881 -3.62639 2.14641 0
M  V30 6982 H 682.605 -3.10283 1.01941 0
M  V30 6983 H 681.264 -2.18451 2.94406 0
M  V30 6984 H 680.912 -4.53703 2.1717 0
M  V30 6985 H 680.612 -4.37695 3.92042 0
M  V30 6986 H 682.136 -5.10934 3.34333 0
M  V30 6987 H 683.55 -3.28596 4.69785 0
M  V30 6988 H 681.947 -2.78903 5.3135 0
M  V30 6989 H 683.017 -1.57754 4.58521 0
M  V30 6990 N 684.36 -1.4356 -0.65026 0
M  V30 6991 C 685.609 -1.44619 -1.406 0
M  V30 6992 C 685.922 -0.0752645 -1.95455 0
M  V30 6993 O 687.128 0.0366832 -2.71475 0
M  V30 6994 C 685.584 -2.54511 -2.54465 0
M  V30 6995 C 685.192 -3.97723 -2.06204 0
M  V30 6996 C 686.936 -2.64768 -3.31811 0
M  V30 6997 C 684.843 -4.99075 -3.17298 0
M  V30 6998 H 683.773 -0.537983 -0.52829 0
M  V30 6999 H 686.424 -1.69559 -0.701561 0
M  V30 7000 H 684.806 -2.22777 -3.27393 0
M  V30 7001 H 685.98 -4.38932 -1.40267 0
M  V30 7002 H 684.295 -3.91538 -1.41729 0
M  V30 7003 H 686.892 -3.37664 -4.14593 0
M  V30 7004 H 687.235 -1.69936 -3.80036 0
M  V30 7005 H 687.768 -2.95817 -2.65964 0
M  V30 7006 H 684.507 -5.95469 -2.74038 0
M  V30 7007 H 684.027 -4.62476 -3.81937 0
M  V30 7008 H 685.706 -5.21913 -3.82382 0
M  V30 7009 N 685.838 0.888903 -1.30139 0
M  V30 7010 C 687.115 1.62145 -1.094 0
M  V30 7011 C 687.495 2.08041 0.358091 0
M  V30 7012 O 686.843 1.84438 1.34888 0
M  V30 7013 C 687.053 2.794 -2.09133 0
M  V30 7014 C 688.401 3.49826 -2.40638 0
M  V30 7015 O 689.425 2.89583 -2.07412 0
M  V30 7016 O 688.284 4.58457 -2.97455 0
M  V30 7017 H 685.378 0.712475 -0.41989 0
M  V30 7018 H 687.924 0.936023 -1.41551 0
M  V30 7019 H 686.696 2.42762 -3.06891 0
M  V30 7020 H 686.319 3.55643 -1.77776 0
M  V30 7021 N 687.317 1.12792 1.10072 0
M  V30 7022 C 688.563 0.886857 1.82381 0
M  V30 7023 C 688.896 -0.58576 1.85155 0
M  V30 7024 O 688.171 -1.43317 1.31493 0
M  V30 7025 C 688.454 1.46703 3.28862 0
M  V30 7026 C 688.307 3.00829 3.34398 0
M  V30 7027 C 689.626 1.12971 4.25353 0
M  V30 7028 H 686.745 0.32362 0.662148 0
M  V30 7029 H 689.387 1.39513 1.28982 0
M  V30 7030 H 687.537 1.03476 3.74466 0
M  V30 7031 H 689.209 3.52764 2.97247 0
M  V30 7032 H 687.452 3.36164 2.74183 0
M  V30 7033 H 688.123 3.36519 4.3756 0
M  V30 7034 H 690.599 1.50313 3.88001 0
M  V30 7035 H 689.475 1.56223 5.26199 0
M  V30 7036 H 689.736 0.0424452 4.4208 0
M  V30 7037 N 688.795 -1.27931 0.920396 0
M  V30 7038 C 689.743 -2.29061 0.404191 0
M  V30 7039 C 690.737 -1.61615 -0.507634 0
M  V30 7040 O 691.943 -1.75765 -0.388144 0
M  V30 7041 H 688.318 -0.743594 0.112123 0
M  V30 7042 H 690.289 -2.70021 1.27008 0
M  V30 7043 C 689.038 -3.46088 -0.334466 0
M  V30 7044 H 688.361 -3.98194 0.35797 0
M  V30 7045 H 689.801 -4.18829 -0.660196 0
M  V30 7046 C 688.26 -2.99396 -1.54479 0
M  V30 7047 O 688.79 -3.02439 -2.64374 0
M  V30 7048 N 686.996 -2.54978 -1.39408 0
M  V30 7049 H 686.543 -2.52701 -0.500009 0
M  V30 7050 H 686.501 -2.24098 -2.20516 0
M  V30 7051 N 690.273 -0.685099 -1.4193 0
M  V30 7052 C 691.684 -0.287699 -1.8447 0
M  V30 7053 C 692.035 1.17215 -1.57338 0
M  V30 7054 O 691.16 1.89856 -1.03845 0
M  V30 7055 C 691.755 -0.515385 -3.34857 0
M  V30 7056 C 690.314 -0.172006 -3.76007 0
M  V30 7057 C 689.461 -0.802808 -2.65425 0
M  V30 7058 H 692.412 -0.88652 -1.3163 0
M  V30 7059 H 692.433 0.229251 -3.79809 0
M  V30 7060 H 691.945 -1.57796 -3.54573 0
M  V30 7061 H 690.046 0.886716 -3.61895 0
M  V30 7062 H 690.159 -0.619717 -4.75075 0
M  V30 7063 H 688.523 -0.233267 -2.5363 0
M  V30 7064 H 689.306 -1.86904 -2.87961 0
M  V30 7065 N 691.751 1.51645 -0.429126 0
M  V30 7066 C 692.701 2.24388 0.404217 0
M  V30 7067 C 693.685 1.26294 0.996933 0
M  V30 7068 O 694.877 1.51428 0.916434 0
M  V30 7069 C 692.006 3.08338 1.50938 0
M  V30 7070 C 691.092 4.13857 0.926464 0
M  V30 7071 N 691.483 5.05749 0.0719732 0
M  V30 7072 C 689.781 4.29695 1.19491 0
M  V30 7073 C 690.482 5.81143 -0.254528 0
M  V30 7074 N 689.458 5.42408 0.359763 0
M  V30 7075 H 693.26 2.92794 -0.254697 0
M  V30 7076 H 690.774 1.60606 -0.240712 0
M  V30 7077 H 692.771 3.59022 2.11918 0
M  V30 7078 H 691.431 2.41475 2.17072 0
M  V30 7079 H 692.442 5.17066 -0.293854 0
M  V30 7080 H 689.119 3.74059 1.85434 0
M  V30 7081 H 690.509 6.65159 -0.949365 0
M  V30 7082 N 693.229 0.160201 1.56784 0
M  V30 7083 C 694.177 -0.791402 2.18723 0
M  V30 7084 C 695.171 -1.24567 1.14801 0
M  V30 7085 O 696.377 -1.21262 1.33025 0
M  V30 7086 H 692.752 -0.273458 0.700517 0
M  V30 7087 H 694.723 -0.244931 2.97393 0
M  V30 7088 C 693.472 -2.01509 2.83354 0
M  V30 7089 H 692.795 -1.67454 3.63041 0
M  V30 7090 H 694.235 -2.66006 3.30177 0
M  V30 7091 C 692.694 -2.83159 1.82545 0
M  V30 7092 O 693.224 -3.79944 1.30405 0
M  V30 7093 N 691.43 -2.47953 1.51552 0
M  V30 7094 H 690.977 -1.69309 1.94144 0
M  V30 7095 H 690.935 -3.02873 0.843519 0
M  V30 7096 N 694.707 -1.5719 -0.113559 0
M  V30 7097 C 696.118 -1.74259 -0.670116 0
M  V30 7098 C 696.469 -0.779694 -1.80042 0
M  V30 7099 O 695.594 0.0461353 -2.16351 0
M  V30 7100 C 696.189 -3.15981 -1.22236 0
M  V30 7101 C 694.748 -3.34537 -1.72516 0
M  V30 7102 C 693.895 -2.70116 -0.627098 0
M  V30 7103 H 696.846 -1.58301 0.112396 0
M  V30 7104 H 696.867 -3.17832 -2.09197 0
M  V30 7105 H 696.379 -3.86038 -0.39949 0
M  V30 7106 H 694.48 -2.6953 -2.57263 0
M  V30 7107 H 694.593 -4.42737 -1.83086 0
M  V30 7108 H 692.957 -2.31501 -1.06204 0
M  V30 7109 H 693.74 -3.42802 0.184889 0
M  V30 7110 N 696.185 0.383891 -1.52853 0
M  V30 7111 C 697.41 1.154 -1.7233 0
M  V30 7112 C 697.835 1.82809 -0.44298 0
M  V30 7113 O 697.193 1.71026 0.601645 0
M  V30 7114 C 697.241 2.17386 -2.87708 0
M  V30 7115 O 696.345 3.24082 -2.55038 0
M  V30 7116 H 695.686 0.335709 -0.572883 0
M  V30 7117 H 698.216 0.44662 -1.99666 0
M  V30 7118 H 698.226 2.61296 -3.1335 0
M  V30 7119 H 696.901 1.6771 -3.80587 0
M  V30 7120 H 695.478 2.85273 -2.40153 0
M  V30 7121 N 697.663 1.43903 0.642637 0
M  V30 7122 C 698.573 1.52349 1.78401 0
M  V30 7123 C 699.589 0.409869 1.69104 0
M  V30 7124 O 700.765 0.665548 1.90085 0
M  V30 7125 C 697.83 1.45408 3.14734 0
M  V30 7126 C 696.891 2.67528 3.35749 0
M  V30 7127 C 696.124 2.60909 4.65577 0
M  V30 7128 O 696.347 1.6627 5.45628 0
M  V30 7129 O 695.281 3.5158 4.88544 0
M  V30 7130 H 699.107 2.48752 1.7423 0
M  V30 7131 H 696.692 1.26021 0.802439 0
M  V30 7132 H 698.574 1.44019 3.96026 0
M  V30 7133 H 697.249 0.521437 3.19473 0
M  V30 7134 H 696.156 2.74487 2.5418 0
M  V30 7135 H 697.489 3.598 3.35864 0
M  V30 7136 N 699.141 -0.881989 1.30609 0
M  V30 7137 C 700.39 -1.62878 1.18969 0
M  V30 7138 C 700.703 -1.93946 -0.253859 0
M  V30 7139 O 701.909 -2.67008 -0.491813 0
M  V30 7140 C 700.365 -2.93573 2.0819 0
M  V30 7141 C 699.973 -2.70034 3.57471 0
M  V30 7142 C 701.717 -3.71543 2.0532 0
M  V30 7143 C 699.624 -3.96563 4.38739 0
M  V30 7144 H 698.554 -0.611092 0.441682 0
M  V30 7145 H 701.205 -0.976201 1.55379 0
M  V30 7146 H 699.587 -3.6014 1.64666 0
M  V30 7147 H 700.761 -2.11949 4.09163 0
M  V30 7148 H 699.076 -2.05435 3.62195 0
M  V30 7149 H 701.673 -4.65386 2.63288 0
M  V30 7150 H 702.016 -4.03167 1.03739 0
M  V30 7151 H 702.549 -3.11842 2.46981 0
M  V30 7152 H 699.288 -3.70095 5.41027 0
M  V30 7153 H 698.808 -4.54142 3.9181 0
M  V30 7154 H 700.487 -4.64557 4.50329 0
M  V30 7155 N 700.619 -1.13374 -1.09472 0
M  V30 7156 C 701.865 -0.896516 -1.81908 0
M  V30 7157 C 702.198 0.575933 -1.85463 0
M  V30 7158 O 701.473 1.42618 -1.32251 0
M  V30 7159 C 701.756 -1.48445 -3.28079 0
M  V30 7160 C 701.609 -3.02598 -3.32798 0
M  V30 7161 C 702.928 -1.15226 -4.24748 0
M  V30 7162 H 700.047 -0.327127 -0.660422 0
M  V30 7163 H 702.689 -1.40195 -1.2824 0
M  V30 7164 H 700.839 -1.0546 -3.73912 0
M  V30 7165 H 702.511 -3.54335 -2.95372 0
M  V30 7166 H 700.754 -3.37613 -2.72397 0
M  V30 7167 H 701.425 -3.38835 -4.3577 0
M  V30 7168 H 703.901 -1.52369 -3.87199 0
M  V30 7169 H 702.777 -1.59012 -5.25363 0
M  V30 7170 H 703.038 -0.0658891 -4.42051 0
M  V30 7171 N 702.098 1.27442 -0.927168 0
M  V30 7172 C 703.514 1.46754 -0.627329 0
M  V30 7173 C 703.714 1.83902 0.823549 0
M  V30 7174 O 702.77 1.95215 1.60148 0
M  V30 7175 C 704.083 2.56045 -1.57674 0
M  V30 7176 C 705.631 2.69906 -1.58491 0
M  V30 7177 C 706.106 3.82355 -2.52128 0
M  V30 7178 N 707.597 3.89728 -2.50332 0
M  V30 7179 C 708.332 4.76155 -3.19475 0
M  V30 7180 N 707.828 5.67073 -3.97995 0
M  V30 7181 N 709.621 4.6988 -3.08496 0
M  V30 7182 H 701.772 1.01613 -1.86517 0
M  V30 7183 H 704.035 0.507443 -0.800753 0
M  V30 7184 H 703.741 2.35542 -2.61176 0
M  V30 7185 H 703.615 3.53423 -1.31804 0
M  V30 7186 H 706.002 2.89792 -0.557208 0
M  V30 7187 H 706.083 1.73018 -1.8841 0
M  V30 7188 H 705.727 3.63224 -3.55008 0
M  V30 7189 H 705.657 4.7867 -2.19505 0
M  V30 7190 H 708.148 3.24717 -1.93306 0
M  V30 7191 H 708.461 6.2988 -4.4774 0
M  V30 7192 H 706.806 5.6687 -4.02098 0
M  V30 7193 H 709.997 3.97848 -2.46646 0
M  V30 7194 H 710.17 5.37017 -3.62652 0
M  V30 7195 N 703.576 0.692616 1.41565 0
M  V30 7196 C 704.539 0.0344174 2.29174 0
M  V30 7197 C 705.539 -0.710961 1.44229 0
M  V30 7198 O 706.729 -0.546293 1.65412 0
M  V30 7199 C 703.861 -0.961682 3.27054 0
M  V30 7200 H 705.054 0.805755 2.88873 0
M  V30 7201 H 702.607 0.455947 1.49502 0
M  V30 7202 H 703.342 -1.76089 2.72329 0
M  V30 7203 H 703.127 -0.430375 3.89731 0
M  V30 7204 H 704.617 -1.4201 3.92712 0
M  V30 7205 N 705.054 -1.51416 0.437162 0
M  V30 7206 C 706.017 -2.26312 -0.362729 0
M  V30 7207 C 707.017 -1.29748 -0.949847 0
M  V30 7208 O 708.207 -1.53462 -0.824325 0
M  V30 7209 C 705.339 -3.05475 -1.5132 0
M  V30 7210 H 706.532 -2.98459 0.29365 0
M  V30 7211 H 704.085 -1.55137 0.190327 0
M  V30 7212 H 704.82 -2.37744 -2.20563 0
M  V30 7213 H 704.605 -3.76401 -1.09838 0
M  V30 7214 H 706.095 -3.62209 -2.07833 0
M  V30 7215 N 706.532 -0.168513 -1.56696 0
M  V30 7216 C 707.462 0.758563 -2.20835 0
M  V30 7217 C 708.443 1.24121 -1.1631 0
M  V30 7218 O 709.628 1.29487 -1.4473 0
M  V30 7219 C 706.758 1.9892 -2.8469 0
M  V30 7220 C 705.712 1.64252 -3.95228 0
M  V30 7221 C 705.038 2.94757 -4.46119 0
M  V30 7222 C 706.338 0.872675 -5.14958 0
M  V30 7223 H 708.032 0.223953 -2.98561 0
M  V30 7224 H 705.578 0.106277 -1.43607 0
M  V30 7225 H 707.531 2.64275 -3.28233 0
M  V30 7226 H 706.255 2.5479 -2.04327 0
M  V30 7227 H 704.914 1.01266 -3.52336 0
M  V30 7228 H 704.562 3.48662 -3.62552 0
M  V30 7229 H 704.262 2.72316 -5.2069 0
M  V30 7230 H 705.786 3.61147 -4.92347 0
M  V30 7231 H 707.2 1.42875 -5.55211 0
M  V30 7232 H 705.597 0.747402 -5.95428 0
M  V30 7233 H 706.667 -0.131535 -4.84722 0
M  V30 7234 N 708.01 1.57248 0.105221 0
M  V30 7235 C 709.25 1.87393 0.816283 0
M  V30 7236 C 709.614 0.758249 1.76393 0
M  V30 7237 O 710.815 0.941835 2.5176 0
M  V30 7238 C 709.086 3.22775 1.53463 0
M  V30 7239 S 710.645 3.74588 2.28537 0
M  V30 7240 H 707.463 0.656847 0.272164 0
M  V30 7241 H 710.065 1.9536 0.073909 0
M  V30 7242 H 708.769 4.01905 0.830674 0
M  V30 7243 H 708.3 3.17921 2.3171 0
M  V30 7244 H 710.315 3.47193 3.54502 0
M  V30 7245 N 709.488 -0.375779 1.53054 0
M  V30 7246 C 710.765 -1.13453 1.59336 0
M  V30 7247 C 711.145 -2.07379 0.394614 0
M  V30 7248 O 710.493 -2.2004 -0.616 0
M  V30 7249 C 710.703 -1.8826 2.93869 0
M  V30 7250 C 712.051 -2.43155 3.48081 0
M  V30 7251 O 713.075 -1.984 2.95831 0
M  V30 7252 O 711.934 -3.24944 4.39401 0
M  V30 7253 H 709.028 -0.519856 0.643179 0
M  V30 7254 H 711.574 -0.379865 1.65394 0
M  V30 7255 H 710.346 -1.19652 3.72558 0
M  V30 7256 H 709.969 -2.70658 2.91256 0
M  V30 7257 N 710.966 -1.44241 -0.634997 0
M  V30 7258 C 712.196 -1.50078 -1.41987 0
M  V30 7259 C 712.604 -0.123072 -1.88799 0
M  V30 7260 O 711.947 0.880552 -1.6122 0
M  V30 7261 C 712.009 -2.40033 -2.67628 0
M  V30 7262 C 711.673 -3.87268 -2.42637 0
M  V30 7263 C 712.67 -4.77902 -2.04708 0
M  V30 7264 C 710.355 -4.31933 -2.56396 0
M  V30 7265 C 712.349 -6.11202 -1.80862 0
M  V30 7266 C 710.036 -5.65281 -2.32164 0
M  V30 7267 C 711.034 -6.54734 -1.94455 0
M  V30 7268 O 710.722 -7.85613 -1.7049 0
M  V30 7269 H 710.454 -0.51146 -0.442023 0
M  V30 7270 H 713.008 -1.89843 -0.784138 0
M  V30 7271 H 711.238 -1.95188 -3.33824 0
M  V30 7272 H 712.927 -2.36863 -3.29622 0
M  V30 7273 H 713.693 -4.44668 -1.93638 0
M  V30 7274 H 709.572 -3.62569 -2.84719 0
M  V30 7275 H 713.116 -6.80983 -1.51353 0
M  V30 7276 H 709.013 -5.98078 -2.42843 0
M  V30 7277 H 709.781 -7.97373 -1.84767 0
M  V30 7278 N 712.444 0.87505 -1.31075 0
M  V30 7279 C 713.669 1.66583 -1.23551 0
M  V30 7280 C 714.094 1.87067 0.19686 0
M  V30 7281 O 713.452 1.40877 1.1412 0
M  V30 7282 C 713.5 3.01401 -1.97965 0
M  V30 7283 O 712.604 3.90923 -1.31351 0
M  V30 7284 H 711.945 0.508645 -0.426821 0
M  V30 7285 H 714.475 1.09139 -1.7306 0
M  V30 7286 H 714.485 3.51374 -2.07366 0
M  V30 7287 H 713.16 2.85812 -3.02133 0
M  V30 7288 H 711.737 3.49369 -1.30368 0
M  V30 7289 N 713.922 1.13953 1.08869 0
M  V30 7290 C 714.852 0.844824 2.17681 0
M  V30 7291 C 715.833 -0.198213 1.68941 0
M  V30 7292 O 717.018 -0.0559073 1.9412 0
M  V30 7293 C 714.148 0.316325 3.45856 0
M  V30 7294 C 713.102 1.29426 4.07962 0
M  V30 7295 C 712.428 0.625275 5.31031 0
M  V30 7296 C 713.728 2.65484 4.49795 0
M  V30 7297 H 715.422 1.75471 2.42591 0
M  V30 7298 H 712.968 0.845116 1.16592 0
M  V30 7299 H 714.921 0.0977876 4.21287 0
M  V30 7300 H 713.645 -0.628972 3.20486 0
M  V30 7301 H 712.304 1.49889 3.34558 0
M  V30 7302 H 711.952 -0.325678 5.01945 0
M  V30 7303 H 711.652 1.27777 5.73539 0
M  V30 7304 H 713.176 0.416152 6.0918 0
M  V30 7305 H 714.59 2.48957 5.16424 0
M  V30 7306 H 712.987 3.26963 5.03205 0
M  V30 7307 H 714.057 3.22717 3.61914 0
M  V30 7308 N 715.4 -1.26948 0.933913 0
M  V30 7309 C 716.625 -1.98724 0.593589 0
M  V30 7310 C 717.05 -1.6915 -0.822801 0
M  V30 7311 O 716.408 -0.93533 -1.5531 0
M  V30 7312 C 716.456 -3.50834 0.833542 0
M  V30 7313 O 715.56 -4.12284 -0.0978788 0
M  V30 7314 H 714.901 -0.623683 0.227849 0
M  V30 7315 H 717.431 -1.61599 1.25486 0
M  V30 7316 H 717.441 -4.01018 0.75156 0
M  V30 7317 H 716.116 -3.71691 1.86597 0
M  V30 7318 H 714.693 -3.72884 0.0345443 0
M  V30 7319 N 716.879 -0.700114 -1.41195 0
M  V30 7320 C 717.789 -0.0382854 -2.34569 0
M  V30 7321 C 718.805 0.761036 -1.56474 0
M  V30 7322 O 719.981 0.697553 -1.88934 0
M  V30 7323 C 717.046 0.883522 -3.35253 0
M  V30 7324 C 716.107 0.0758957 -4.29233 0
M  V30 7325 C 715.34 0.9538 -5.25108 0
M  V30 7326 O 715.563 2.19326 -5.26547 0
M  V30 7327 O 714.497 0.401049 -6.00562 0
M  V30 7328 H 718.323 -0.808073 -2.92752 0
M  V30 7329 H 715.908 -0.460479 -1.42127 0
M  V30 7330 H 717.79 1.41199 -3.9704 0
M  V30 7331 H 716.465 1.63272 -2.79506 0
M  V30 7332 H 715.372 -0.497274 -3.7078 0
M  V30 7333 H 716.705 -0.634741 -4.8809 0
M  V30 7334 N 718.357 1.51182 -0.445186 0
M  V30 7335 C 719.768 1.86693 0.0160999 0
M  V30 7336 C 720.119 1.36183 1.4124 0
M  V30 7337 O 719.244 0.715895 2.04215 0
M  V30 7338 C 719.839 3.38781 0.0359918 0
M  V30 7339 C 718.398 3.73799 0.441715 0
M  V30 7340 C 717.545 2.74947 -0.360511 0
M  V30 7341 H 720.496 1.44294 -0.660674 0
M  V30 7342 H 720.517 3.71026 0.843813 0
M  V30 7343 H 720.029 3.75513 -0.980378 0
M  V30 7344 H 718.13 3.42659 1.4634 0
M  V30 7345 H 718.243 4.78829 0.16106 0
M  V30 7346 H 716.607 2.54047 0.182269 0
M  V30 7347 H 717.39 3.14521 -1.3759 0
M  V30 7348 N 719.835 0.176821 1.56605 0
M  V30 7349 C 721.065 -0.472142 2.01133 0
M  V30 7350 C 721.473 -1.56979 1.05614 0
M  V30 7351 O 720.816 -1.83632 0.0500137 0
M  V30 7352 C 720.878 -1.10547 3.42081 0
M  V30 7353 C 720.542 -0.148806 4.56758 0
M  V30 7354 C 721.539 0.634939 5.16008 0
M  V30 7355 C 719.224 -0.0430325 5.02282 0
M  V30 7356 C 721.218 1.5116 6.19217 0
M  V30 7357 C 718.905 0.83721 6.05338 0
M  V30 7358 C 719.903 1.61311 6.63677 0
M  V30 7359 O 719.591 2.47863 7.64735 0
M  V30 7360 H 719.323 -0.124725 0.664394 0
M  V30 7361 H 721.877 0.277329 2.03519 0
M  V30 7362 H 720.107 -1.90318 3.36625 0
M  V30 7363 H 721.796 -1.6572 3.70529 0
M  V30 7364 H 722.562 0.563424 4.81716 0
M  V30 7365 H 718.441 -0.636753 4.56581 0
M  V30 7366 H 721.985 2.11767 6.64681 0
M  V30 7367 H 717.882 0.909908 6.39055 0
M  V30 7368 H 718.65 2.4144 7.8208 0
M  V30 7369 N 721.313 -1.57302 -0.09688 0
M  V30 7370 C 722.724 -1.7496 -0.651595 0
M  V30 7371 C 723.075 -0.798746 -1.79205 0
M  V30 7372 O 722.2 0.0231858 -2.16388 0
M  V30 7373 C 722.795 -3.17259 -1.18878 0
M  V30 7374 C 721.354 -3.36348 -1.68958 0
M  V30 7375 C 720.501 -2.70766 -0.598413 0
M  V30 7376 H 723.452 -1.58173 0.12918 0
M  V30 7377 H 723.473 -3.20033 -2.05814 0
M  V30 7378 H 722.985 -3.8644 -0.358523 0
M  V30 7379 H 721.086 -2.72243 -2.5439 0
M  V30 7380 H 721.199 -4.44654 -1.7838 0
M  V30 7381 H 719.563 -2.32615 -1.03743 0
M  V30 7382 H 720.346 -3.42586 0.221238 0
M  V30 7383 N 722.791 0.367657 -1.53252 0
M  V30 7384 C 724.068 1.12606 -1.59935 0
M  V30 7385 C 724.448 2.07167 -0.405606 0
M  V30 7386 O 723.796 2.20364 0.604323 0
M  V30 7387 C 724.006 1.86699 -2.94863 0
M  V30 7388 C 725.354 2.41306 -3.49366 0
M  V30 7389 O 726.378 1.96828 -2.96879 0
M  V30 7390 O 725.237 3.2261 -4.41118 0
M  V30 7391 H 722.331 0.516438 -0.645926 0
M  V30 7392 H 724.877 0.371088 -1.65593 0
M  V30 7393 H 723.649 1.17674 -3.73187 0
M  V30 7394 H 723.272 2.6911 -2.92687 0
M  V30 7395 N 724.269 1.44576 0.627338 0
M  V30 7396 C 725.499 1.50829 1.41189 0
M  V30 7397 C 725.907 0.133083 1.88731 0
M  V30 7398 O 725.25 -0.87199 1.61685 0
M  V30 7399 C 725.312 2.41449 2.66351 0
M  V30 7400 C 724.976 3.88549 2.40579 0
M  V30 7401 C 725.973 4.78981 2.0217 0
M  V30 7402 C 723.658 4.33287 2.54102 0
M  V30 7403 C 725.652 6.12153 1.77618 0
M  V30 7404 C 723.339 5.66505 2.29163 0
M  V30 7405 C 724.337 6.55756 1.9098 0
M  V30 7406 O 724.025 7.86506 1.66321 0
M  V30 7407 H 723.757 0.513797 0.439304 0
M  V30 7408 H 726.311 1.90256 0.774059 0
M  V30 7409 H 724.541 1.96955 3.32784 0
M  V30 7410 H 726.23 2.38608 3.28361 0
M  V30 7411 H 726.996 4.45689 1.91277 0
M  V30 7412 H 722.875 3.64074 2.82792 0
M  V30 7413 H 726.419 6.81776 1.47739 0
M  V30 7414 H 722.316 5.99358 2.39668 0
M  V30 7415 H 723.084 7.98341 1.80536 0
M  V30 7416 N 725.747 -0.868086 1.31537 0
M  V30 7417 C 726.695 -1.99688 1.1928 0
M  V30 7418 C 727.689 -1.69101 0.100656 0
M  V30 7419 O 728.895 -1.78073 0.262677 0
M  V30 7420 H 725.27 -0.655032 0.369374 0
M  V30 7421 H 727.241 -2.07157 2.14776 0
M  V30 7422 C 725.99 -3.35338 0.918892 0
M  V30 7423 H 725.313 -3.59396 1.75142 0
M  V30 7424 H 726.753 -4.14909 0.873311 0
M  V30 7425 C 725.212 -3.34769 -0.378366 0
M  V30 7426 O 725.742 -3.76716 -1.39456 0
M  V30 7427 N 723.948 -2.87895 -0.39557 0
M  V30 7428 H 723.495 -2.53954 0.431889 0
M  V30 7429 H 723.453 -2.87897 -1.26344 0
M  V30 7430 N 727.225 -1.14528 -1.08264 0
M  V30 7431 C 728.135 -0.84728 -2.18765 0
M  V30 7432 C 729.151 0.172826 -1.7314 0
M  V30 7433 O 730.327 0.000985336 -2.014 0
M  V30 7434 C 727.392 -0.330633 -3.4512 0
M  V30 7435 C 726.453 -1.41348 -4.05363 0
M  V30 7436 C 725.686 -0.921387 -5.25686 0
M  V30 7437 O 725.909 0.236587 -5.69909 0
M  V30 7438 O 724.843 -1.70101 -5.77364 0
M  V30 7439 H 728.669 -1.7708 -2.46731 0
M  V30 7440 H 726.254 -0.923661 -1.17426 0
M  V30 7441 H 728.136 -0.0485053 -4.21372 0
M  V30 7442 H 726.811 0.565147 -3.18728 0
M  V30 7443 H 725.718 -1.74908 -3.30693 0
M  V30 7444 H 727.051 -2.28383 -4.36007 0
M  V30 7445 N 728.703 1.26451 -0.940633 0
M  V30 7446 C 730.119 1.4608 -0.642859 0
M  V30 7447 C 730.319 1.84765 0.803998 0
M  V30 7448 O 729.375 1.96902 1.58069 0
M  V30 7449 C 730.688 2.54359 -1.60381 0
M  V30 7450 C 732.236 2.6821 -1.61345 0
M  V30 7451 C 732.711 3.79659 -2.56169 0
M  V30 7452 N 734.202 3.87051 -2.54452 0
M  V30 7453 C 734.937 4.72739 -3.24507 0
M  V30 7454 N 734.433 5.6282 -4.03987 0
M  V30 7455 N 736.226 4.66581 -3.13462 0
M  V30 7456 H 728.377 0.996289 -1.87584 0
M  V30 7457 H 730.64 0.498921 -0.80609 0
M  V30 7458 H 730.346 2.32758 -2.6366 0
M  V30 7459 H 730.22 3.52005 -1.35545 0
M  V30 7460 H 732.607 2.89184 -0.587913 0
M  V30 7461 H 732.688 1.7101 -1.90235 0
M  V30 7462 H 732.332 3.59438 -3.58841 0
M  V30 7463 H 732.262 4.76315 -2.2457 0
M  V30 7464 H 734.753 3.22649 -1.96739 0
M  V30 7465 H 735.066 6.25095 -4.54396 0
M  V30 7466 H 733.411 5.62574 -4.08088 0
M  V30 7467 H 736.602 3.9521 -2.50852 0
M  V30 7468 H 736.775 5.33141 -3.68327 0
M  V30 7469 N 730.181 0.707592 1.40822 0
M  V30 7470 C 731.421 0.247986 2.0289 0
M  V30 7471 C 731.785 -1.13484 1.54872 0
M  V30 7472 O 732.986 -1.69098 2.08948 0
M  V30 7473 C 731.257 0.316326 3.55997 0
M  V30 7474 S 732.816 -0.0674698 4.38748 0
M  V30 7475 H 729.634 0.09895 0.704081 0
M  V30 7476 H 732.236 0.928039 1.72069 0
M  V30 7477 H 730.94 1.32453 3.88438 0
M  V30 7478 H 730.471 -0.382474 3.91536 0
M  V30 7479 H 732.486 -1.29182 4.79089 0
M  V30 7480 N 731.66 -1.50943 0.453197 0
M  V30 7481 C 732.906 -2.02512 -0.108082 0
M  V30 7482 C 733.239 -1.33574 -1.40967 0
M  V30 7483 O 732.514 -0.455671 -1.89087 0
M  V30 7484 C 732.797 -3.58759 -0.310453 0
M  V30 7485 C 732.65 -4.38293 1.0109 0
M  V30 7486 C 733.969 -4.26816 -1.07313 0
M  V30 7487 H 731.088 -0.73603 -0.0378064 0
M  V30 7488 H 733.73 -1.80433 0.595295 0
M  V30 7489 H 731.88 -3.77702 -0.909582 0
M  V30 7490 H 733.552 -4.30964 1.64523 0
M  V30 7491 H 731.795 -4.02745 1.61179 0
M  V30 7492 H 732.466 -5.45828 0.82315 0
M  V30 7493 H 734.942 -4.1224 -0.565473 0
M  V30 7494 H 733.818 -5.35989 -1.1835 0
M  V30 7495 H 734.079 -3.88757 -2.10525 0
M  V30 7496 N 733.138 -0.185124 -1.56509 0
M  V30 7497 C 734.101 0.72591 -2.17401 0
M  V30 7498 C 735.101 1.14819 -1.12575 0
M  V30 7499 O 736.291 1.0629 -1.38015 0
M  V30 7500 C 733.423 1.98979 -2.76803 0
M  V30 7501 H 734.616 0.195588 -2.99262 0
M  V30 7502 H 732.169 0.0644772 -1.56167 0
M  V30 7503 H 732.904 2.56287 -1.98714 0
M  V30 7504 H 732.689 1.69583 -3.53531 0
M  V30 7505 H 734.179 2.63966 -3.23592 0
M  V30 7506 N 734.616 1.57351 0.0885366 0
M  V30 7507 C 735.862 1.86696 0.791996 0
M  V30 7508 C 736.195 0.775148 1.78059 0
M  V30 7509 O 735.47 -0.216247 1.93294 0
M  V30 7510 C 735.753 3.26684 1.51491 0
M  V30 7511 C 735.606 4.465 0.543858 0
M  V30 7512 C 736.925 3.64664 2.46391 0
M  V30 7513 H 734.044 0.679049 0.286463 0
M  V30 7514 H 736.686 1.89919 0.0554866 0
M  V30 7515 H 734.836 3.24067 2.14273 0
M  V30 7516 H 736.508 4.61235 -0.0774597 0
M  V30 7517 H 734.751 4.33567 -0.142228 0
M  V30 7518 H 735.422 5.41192 1.08696 0
M  V30 7519 H 737.898 3.68267 1.93698 0
M  V30 7520 H 736.774 4.63534 2.93986 0
M  V30 7521 H 737.035 2.93698 3.30445 0
M  V30 7522 N 736.094 -0.359525 1.53444 0
M  V30 7523 C 737.341 -1.10152 1.6992 0
M  V30 7524 C 737.669 -1.89125 0.4541 0
M  V30 7525 O 736.924 -1.87396 -0.564023 0
M  V30 7526 C 737.223 -2.08287 2.90433 0
M  V30 7527 C 736.889 -1.45749 4.26694 0
M  V30 7528 C 735.551 -1.28421 4.63747 0
M  V30 7529 C 737.903 -1.00557 5.11408 0
M  V30 7530 C 735.231 -0.644951 5.83144 0
M  V30 7531 C 737.583 -0.380288 6.31456 0
M  V30 7532 C 736.247 -0.194557 6.67216 0
M  V30 7533 H 735.517 -0.403076 0.621781 0
M  V30 7534 H 738.164 -0.382612 1.87639 0
M  V30 7535 H 736.469 -2.86503 2.67251 0
M  V30 7536 H 738.166 -2.65662 3.00374 0
M  V30 7537 H 734.756 -1.6023 3.97523 0
M  V30 7538 H 738.94 -1.12735 4.83326 0
M  V30 7539 H 734.196 -0.48952 6.09437 0
M  V30 7540 H 738.37 -0.0219455 6.96397 0
M  V30 7541 H 735.997 0.30285 7.59597 0
M  V30 7542 N 737.572 -1.44907 -0.619662 0
M  V30 7543 C 738.504 -1.48652 -1.74457 0
M  V30 7544 C 739.517 -0.378596 -1.58337 0
M  V30 7545 O 740.706 -0.644987 -1.6644 0
M  V30 7546 C 737.806 -1.31568 -3.12319 0
M  V30 7547 C 736.979 -2.55816 -3.54792 0
M  V30 7548 C 736.038 -2.33465 -4.71573 0
M  V30 7549 O 735.064 -3.07015 -4.79302 0
M  V30 7550 N 736.266 -1.37254 -5.6404 0
M  V30 7551 H 739.031 -2.45632 -1.71712 0
M  V30 7552 H 736.592 -1.40492 -0.804582 0
M  V30 7553 H 738.584 -1.14445 -3.88181 0
M  V30 7554 H 737.154 -0.429095 -3.09641 0
M  V30 7555 H 736.374 -2.88137 -2.69018 0
M  V30 7556 H 737.662 -3.38431 -3.79924 0
M  V30 7557 H 737.06 -0.765309 -5.60499 0
M  V30 7558 H 735.617 -1.26106 -6.39485 0
M  V30 7559 N 739.05 0.861098 -1.31996 0
M  V30 7560 C 739.96 2.00154 -1.22374 0
M  V30 7561 C 740.976 1.73447 -0.138631 0
M  V30 7562 O 742.152 1.98191 -0.358104 0
M  V30 7563 C 739.217 3.33696 -0.940645 0
M  V30 7564 C 738.278 3.73668 -2.11355 0
M  V30 7565 C 737.511 5.00837 -1.84386 0
M  V30 7566 O 737.734 5.64996 -0.783287 0
M  V30 7567 O 736.668 5.37787 -2.70313 0
M  V30 7568 H 740.494 2.11207 -2.18233 0
M  V30 7569 H 738.079 0.990768 -1.11822 0
M  V30 7570 H 739.961 4.13756 -0.798987 0
M  V30 7571 H 738.636 3.23698 -0.0121636 0
M  V30 7572 H 737.543 2.94211 -2.31065 0
M  V30 7573 H 738.876 3.88303 -3.02459 0
M  V30 7574 N 740.528 1.15101 1.07655 0
M  V30 7575 C 741.756 0.947731 1.83918 0
M  V30 7576 C 742.171 -0.503927 1.81951 0
M  V30 7577 O 741.528 -1.34941 1.2287 0
M  V30 7578 C 741.579 1.4503 3.31132 0
M  V30 7579 O 741.3 2.84508 3.33146 0
M  V30 7580 C 742.801 1.28806 4.24174 0
M  V30 7581 H 740.021 0.336786 0.580358 0
M  V30 7582 H 742.565 1.52799 1.35914 0
M  V30 7583 H 740.72 0.912632 3.76497 0
M  V30 7584 H 741.134 3.0723 4.251 0
M  V30 7585 H 742.608 1.6882 5.25551 0
M  V30 7586 H 743.085 0.231851 4.38588 0
M  V30 7587 H 743.691 1.81465 3.84643 0
M  V30 7588 N 742.006 -1.2595 0.947325 0
M  V30 7589 C 743.254 -1.93081 0.596996 0
M  V30 7590 C 743.575 -1.74632 -0.867672 0
M  V30 7591 O 742.845 -1.1056 -1.6172 0
M  V30 7592 H 741.425 -0.714542 0.217805 0
M  V30 7593 H 744.087 -1.53265 1.20398 0
M  V30 7594 H 743.183 -3.01134 0.82004 0
M  V30 7595 N 743.484 -0.715051 -1.40445 0
M  V30 7596 C 744.712 -0.263959 -2.05209 0
M  V30 7597 C 745.127 1.09403 -1.53871 0
M  V30 7598 O 744.484 1.68746 -0.695064 0
M  V30 7599 C 744.535 -0.234545 -3.60738 0
M  V30 7600 O 744.256 -1.53891 -4.10182 0
M  V30 7601 C 745.757 0.235164 -4.42676 0
M  V30 7602 H 742.977 -0.11876 -0.660407 0
M  V30 7603 H 745.521 -0.973107 -1.79864 0
M  V30 7604 H 743.676 0.425563 -3.85055 0
M  V30 7605 H 744.09 -1.43903 -5.04373 0
M  V30 7606 H 745.564 0.204598 -5.51621 0
M  V30 7607 H 746.041 1.27724 -4.20218 0
M  V30 7608 H 746.647 -0.394649 -4.23465 0
M  V30 7609 N 744.962 1.50701 -0.461195 0
M  V30 7610 C 745.925 2.2686 0.326679 0
M  V30 7611 C 746.925 1.31243 0.929085 0
M  V30 7612 O 748.115 1.54754 0.799807 0
M  V30 7613 C 745.247 3.07844 1.46441 0
M  V30 7614 H 746.44 2.97954 -0.341095 0
M  V30 7615 H 743.993 1.54814 -0.214984 0
M  V30 7616 H 744.728 2.41223 2.16753 0
M  V30 7617 H 744.513 3.78101 1.03836 0
M  V30 7618 H 746.003 3.65469 2.02044 0
M  V30 7619 N 746.441 0.193421 1.56409 0
M  V30 7620 C 747.857 -0.162447 1.58771 0
M  V30 7621 C 748.057 -1.6116 1.20954 0
M  V30 7622 O 747.113 -2.3469 0.931497 0
M  V30 7623 C 748.426 0.138391 3.00381 0
M  V30 7624 C 749.974 0.0783649 3.12902 0
M  V30 7625 C 750.449 0.352491 4.56642 0
M  V30 7626 N 751.94 0.30105 4.62221 0
M  V30 7627 C 752.675 0.487028 5.71328 0
M  V30 7628 N 752.171 0.733265 6.88909 0
M  V30 7629 N 753.964 0.4214 5.60518 0
M  V30 7630 H 746.115 1.13909 1.79272 0
M  V30 7631 H 748.378 0.454528 0.83193 0
M  V30 7632 H 748.084 1.14312 3.32604 0
M  V30 7633 H 747.958 -0.559804 3.73023 0
M  V30 7634 H 750.345 -0.916963 2.80492 0
M  V30 7635 H 750.426 0.809611 2.4265 0
M  V30 7636 H 750.07 1.34513 4.89764 0
M  V30 7637 H 750 -0.399624 5.25081 0
M  V30 7638 H 752.491 0.117279 3.77718 0
M  V30 7639 H 752.804 0.86403 7.67955 0
M  V30 7640 H 751.149 0.770138 6.9072 0
M  V30 7641 H 754.34 0.229461 4.67537 0
M  V30 7642 H 754.513 0.569758 6.4549 0
M  V30 7643 N 747.919 -1.57396 -0.0801906 0
M  V30 7644 C 749.335 -1.53564 -0.434778 0
M  V30 7645 C 749.535 -0.912372 -1.79661 0
M  V30 7646 O 748.591 -0.511268 -2.4727 0
M  V30 7647 C 749.904 -2.98244 -0.383561 0
M  V30 7648 C 751.452 -3.09536 -0.46435 0
M  V30 7649 C 751.927 -4.55851 -0.443128 0
M  V30 7650 N 753.418 -4.60456 -0.503448 0
M  V30 7651 C 754.153 -5.71135 -0.509106 0
M  V30 7652 N 753.649 -6.91203 -0.47008 0
M  V30 7653 N 755.442 -5.59353 -0.555035 0
M  V30 7654 H 747.593 -1.96281 0.811635 0
M  V30 7655 H 749.856 -0.898041 0.303689 0
M  V30 7656 H 749.562 -3.47369 0.550236 0
M  V30 7657 H 749.436 -3.57705 -1.19694 0
M  V30 7658 H 751.823 -2.6039 -1.38857 0
M  V30 7659 H 751.904 -2.53 0.377445 0
M  V30 7660 H 751.548 -5.05653 0.477207 0
M  V30 7661 H 751.478 -5.10242 -1.30234 0
M  V30 7662 H 753.969 -3.74048 -0.538199 0
M  V30 7663 H 754.282 -7.7132 -0.478091 0
M  V30 7664 H 752.627 -6.93625 -0.436897 0
M  V30 7665 H 755.818 -4.64453 -0.583158 0
M  V30 7666 H 755.991 -6.4561 -0.555976 0
M  V30 7667 N 749.397 0.351382 -1.53633 0
M  V30 7668 C 750.646 1.08988 -1.69719 0
M  V30 7669 C 750.959 1.90043 -0.462948 0
M  V30 7670 O 752.165 2.66769 -0.504613 0
M  V30 7671 C 750.621 1.98691 -3.00083 0
M  V30 7672 C 750.229 1.22881 -4.30818 0
M  V30 7673 C 751.973 2.72446 -3.25536 0
M  V30 7674 C 749.88 2.11568 -5.52262 0
M  V30 7675 H 748.81 0.410588 -0.632403 0
M  V30 7676 H 751.461 0.349886 -1.80133 0
M  V30 7677 H 749.843 2.76478 -2.83506 0
M  V30 7678 H 751.017 0.500582 -4.58073 0
M  V30 7679 H 749.332 0.60928 -4.11918 0
M  V30 7680 H 751.929 3.39055 -4.13456 0
M  V30 7681 H 752.272 3.38588 -2.42206 0
M  V30 7682 H 752.805 2.01735 -3.42852 0
M  V30 7683 H 749.544 1.4998 -6.38111 0
M  V30 7684 H 749.064 2.82201 -5.29266 0
M  V30 7685 H 750.743 2.70802 -5.87601 0
M  V30 7686 N 750.875 1.45233 0.611969 0
M  V30 7687 C 752.286 1.4354 1.19387 0
M  V30 7688 C 752.637 0.160713 1.95541 0
M  V30 7689 O 751.762 -0.737954 2.03429 0
M  V30 7690 C 752.357 2.60045 2.17169 0
M  V30 7691 C 750.916 2.61486 2.70744 0
M  V30 7692 C 750.063 2.35708 1.46072 0
M  V30 7693 H 753.014 1.53536 0.401529 0
M  V30 7694 H 753.035 2.33893 3.00124 0
M  V30 7695 H 752.547 3.52803 1.61714 0
M  V30 7696 H 750.648 1.72721 3.30149 0
M  V30 7697 H 750.761 3.60572 3.15476 0
M  V30 7698 H 749.125 1.85178 1.74875 0
M  V30 7699 H 749.908 3.30606 0.924922 0
M  V30 7700 N 752.353 -0.854086 1.3245 0
M  V30 7701 C 753.301 -1.98411 1.21391 0
M  V30 7702 C 754.295 -1.68984 0.118586 0
M  V30 7703 O 755.501 -1.77784 0.281549 0
M  V30 7704 H 751.876 -0.651077 0.376301 0
M  V30 7705 H 753.847 -2.04867 2.16961 0
M  V30 7706 C 752.596 -3.34345 0.954407 0
M  V30 7707 H 751.919 -3.57518 1.78944 0
M  V30 7708 H 753.359 -4.13959 0.917269 0
M  V30 7709 C 751.818 -3.35151 -0.342838 0
M  V30 7710 O 752.348 -3.78174 -1.35452 0
M  V30 7711 N 750.554 -2.88298 -0.365012 0
M  V30 7712 H 750.101 -2.53481 0.4588 0
M  V30 7713 H 750.059 -2.8922 -1.23284 0
M  V30 7714 N 753.831 -1.1567 -1.07043 0
M  V30 7715 C 755.071 -0.944089 -1.81291 0
M  V30 7716 C 755.435 0.519305 -1.84844 0
M  V30 7717 O 756.636 0.850357 -2.54995 0
M  V30 7718 C 754.907 -1.54528 -3.22267 0
M  V30 7719 S 756.466 -1.47623 -4.13223 0
M  V30 7720 H 753.284 -0.339696 -0.624602 0
M  V30 7721 H 755.886 -1.47277 -1.28568 0
M  V30 7722 H 754.59 -2.60321 -3.17271 0
M  V30 7723 H 754.121 -1.0156 -3.80065 0
M  V30 7724 H 756.136 -0.471261 -4.93957 0
M  V30 7725 N 755.309 1.25446 -0.953992 0
M  V30 7726 C 756.534 1.97755 -0.625129 0
M  V30 7727 C 756.959 1.70437 0.795787 0
M  V30 7728 O 756.317 0.95992 1.53803 0
M  V30 7729 C 756.365 3.49463 -0.889251 0
M  V30 7730 O 755.469 4.12387 0.0322757 0
M  V30 7731 H 754.81 0.61998 -0.237742 0
M  V30 7732 H 757.34 1.59582 -1.28041 0
M  V30 7733 H 757.35 3.99772 -0.815263 0
M  V30 7734 H 756.025 3.68676 -1.92487 0
M  V30 7735 H 754.602 3.72782 -0.0938625 0
M  V30 7736 N 756.787 0.722489 1.40064 0
M  V30 7737 C 757.737 0.0506801 2.27944 0
M  V30 7738 C 758.721 -0.725493 1.43615 0
M  V30 7739 O 759.913 -0.596559 1.66644 0
M  V30 7740 C 757.042 -0.865195 3.32219 0
M  V30 7741 C 756.128 -0.0838393 4.24017 0
M  V30 7742 N 756.519 0.936516 4.97054 0
M  V30 7743 C 754.817 -0.315371 4.44884 0
M  V30 7744 C 755.518 1.4066 5.64437 0
M  V30 7745 N 754.494 0.727485 5.3871 0
M  V30 7746 H 758.296 0.832609 2.8186 0
M  V30 7747 H 755.81 0.555691 1.52597 0
M  V30 7748 H 757.807 -1.36186 3.94029 0
M  V30 7749 H 756.467 -1.64642 2.79862 0
M  V30 7750 H 757.478 1.31755 5.0086 0
M  V30 7751 H 754.155 -1.07238 4.03492 0
M  V30 7752 H 755.545 2.25482 6.32936 0
M  V30 7753 N 758.265 -1.50454 0.469181 0
M  V30 7754 C 759.681 -1.59124 0.123226 0
M  V30 7755 C 759.881 -1.47749 -1.37013 0
M  V30 7756 O 758.937 -1.335 -2.14322 0
M  V30 7757 C 760.25 -2.93101 0.67172 0
M  V30 7758 C 761.798 -3.06491 0.634978 0
M  V30 7759 C 762.273 -4.43041 1.16098 0
M  V30 7760 N 763.764 -4.49448 1.12031 0
M  V30 7761 C 764.499 -5.53491 1.49784 0
M  V30 7762 N 763.995 -6.64798 1.94976 0
M  V30 7763 N 765.788 -5.44025 1.41399 0
M  V30 7764 H 757.939 -1.56091 1.44046 0
M  V30 7765 H 760.202 -0.737564 0.59557 0
M  V30 7766 H 759.908 -3.06895 1.7178 0
M  V30 7767 H 759.782 -3.77027 0.114222 0
M  V30 7768 H 762.169 -2.92346 -0.402187 0
M  V30 7769 H 762.25 -2.24328 1.22926 0
M  V30 7770 H 761.894 -4.57935 2.19677 0
M  V30 7771 H 761.824 -5.23794 0.542939 0
M  V30 7772 H 764.315 -3.69575 0.788828 0
M  V30 7773 H 764.628 -7.40246 2.21936 0
M  V30 7774 H 762.973 -6.65923 1.98927 0
M  V30 7775 H 766.164 -4.55955 1.05935 0
M  V30 7776 H 766.337 -6.2499 1.71147 0
M  V30 7777 N 759.743 -0.201713 -1.56304 0
M  V30 7778 C 760.673 0.71155 -2.22394 0
M  V30 7779 C 761.654 1.21625 -1.18917 0
M  V30 7780 O 762.839 1.26388 -1.47444 0
M  V30 7781 C 759.969 1.92837 -2.88845 0
M  V30 7782 C 758.923 1.55831 -3.98623 0
M  V30 7783 C 758.249 2.85228 -4.52271 0
M  V30 7784 C 759.549 0.763249 -5.16693 0
M  V30 7785 H 761.243 0.160573 -2.98969 0
M  V30 7786 H 758.789 0.0757916 -1.438 0
M  V30 7787 H 760.742 2.57253 -3.33764 0
M  V30 7788 H 759.466 2.50398 -2.09686 0
M  V30 7789 H 758.125 0.9377 -3.54405 0
M  V30 7790 H 757.773 3.40893 -3.69866 0
M  V30 7791 H 757.473 2.6121 -5.26349 0
M  V30 7792 H 758.997 3.50622 -4.99897 0
M  V30 7793 H 760.411 1.31066 -5.58117 0
M  V30 7794 H 758.808 0.620935 -5.96879 0
M  V30 7795 H 759.878 -0.234322 -4.84334 0
M  V30 7796 N 761.222 1.57436 0.0718424 0
M  V30 7797 C 762.638 1.53792 0.426628 0
M  V30 7798 C 762.838 0.921887 1.79174 0
M  V30 7799 O 761.894 0.524374 2.46995 0
M  V30 7800 C 763.207 2.98443 0.367739 0
M  V30 7801 C 764.755 3.09778 0.447928 0
M  V30 7802 C 765.23 4.5608 0.418946 0
M  V30 7803 N 766.721 4.60716 0.479022 0
M  V30 7804 C 767.456 5.71397 0.47881 0
M  V30 7805 N 766.952 6.91443 0.433417 0
M  V30 7806 N 768.745 5.59639 0.525364 0
M  V30 7807 H 760.896 1.95848 -0.822033 0
M  V30 7808 H 763.159 0.896418 -0.308447 0
M  V30 7809 H 762.865 3.47072 -0.56865 0
M  V30 7810 H 762.739 3.58335 1.17795 0
M  V30 7811 H 765.126 2.61122 1.37474 0
M  V30 7812 H 765.207 2.52796 -0.390857 0
M  V30 7813 H 764.851 5.05393 -0.504016 0
M  V30 7814 H 764.781 5.10925 1.27526 0
M  V30 7815 H 767.272 3.74328 0.518355 0
M  V30 7816 H 767.585 7.71562 0.43718 0
M  V30 7817 H 765.93 6.93847 0.400106 0
M  V30 7818 H 769.121 4.64756 0.558519 0
M  V30 7819 H 769.294 6.45896 0.52173 0
M  V30 7820 N 762.7 -0.34323 1.53817 0
M  V30 7821 C 763.61 -1.44493 1.84821 0
M  V30 7822 C 764.626 -1.57556 0.738381 0
M  V30 7823 O 765.802 -1.73026 1.03072 0
M  V30 7824 C 762.867 -2.79478 2.05166 0
M  V30 7825 C 761.928 -2.75756 3.29025 0
M  V30 7826 C 761.161 -4.04302 3.4839 0
M  V30 7827 O 761.384 -5.01595 2.71586 0
M  V30 7828 O 760.318 -4.08754 4.41819 0
M  V30 7829 H 764.144 -1.21209 2.78464 0
M  V30 7830 H 761.729 -0.535437 1.39476 0
M  V30 7831 H 763.611 -3.59419 2.19991 0
M  V30 7832 H 762.286 -3.02692 1.14713 0
M  V30 7833 H 761.193 -1.94434 3.19603 0
M  V30 7834 H 762.526 -2.57495 4.19472 0
M  V30 7835 N 764.178 -1.45556 -0.604258 0
M  V30 7836 C 765.418 -1.51289 -1.37445 0
M  V30 7837 C 765.782 -0.152112 -1.91397 0
M  V30 7838 O 766.983 -0.0841419 -2.68668 0
M  V30 7839 C 765.254 -2.5646 -2.48924 0
M  V30 7840 S 766.813 -2.81442 -3.36654 0
M  V30 7841 H 763.631 -0.534774 -0.468549 0
M  V30 7842 H 766.233 -1.82657 -0.696902 0
M  V30 7843 H 764.937 -3.53995 -2.07644 0
M  V30 7844 H 764.468 -2.26753 -3.21476 0
M  V30 7845 H 766.483 -2.15074 -4.47166 0
M  V30 7846 N 765.656 0.84705 -1.32902 0
M  V30 7847 C 766.886 1.63166 -1.26729 0
M  V30 7848 C 767.294 1.88474 0.165595 0
M  V30 7849 O 766.637 1.45947 1.11558 0
M  V30 7850 C 766.699 3.0103 -1.96522 0
M  V30 7851 C 766.363 2.9873 -3.45846 0
M  V30 7852 C 767.36 2.75032 -4.41196 0
M  V30 7853 C 765.045 3.19125 -3.87898 0
M  V30 7854 C 767.039 2.71743 -5.76571 0
M  V30 7855 C 764.726 3.15462 -5.2338 0
M  V30 7856 C 765.724 2.91801 -6.17528 0
M  V30 7857 O 765.412 2.88027 -7.5053 0
M  V30 7858 H 765.144 0.51469 -0.438258 0
M  V30 7859 H 767.698 1.06383 -1.75704 0
M  V30 7860 H 765.928 3.59634 -1.42128 0
M  V30 7861 H 767.617 3.61821 -1.83958 0
M  V30 7862 H 768.383 2.59034 -4.10032 0
M  V30 7863 H 764.262 3.36565 -3.15032 0
M  V30 7864 H 767.806 2.53194 -6.5003 0
M  V30 7865 H 763.703 3.31006 -5.54171 0
M  V30 7866 H 764.471 3.03927 -7.59981 0
M  V30 7867 N 767.134 1.16236 1.06428 0
M  V30 7868 C 768.084 0.835994 2.12121 0
M  V30 7869 C 769.068 -0.183955 1.59845 0
M  V30 7870 O 770.26 0.0166741 1.76992 0
M  V30 7871 C 767.389 0.337333 3.41639 0
M  V30 7872 C 766.475 1.38798 4.00744 0
M  V30 7873 N 766.866 2.59799 4.3398 0
M  V30 7874 C 765.164 1.24292 4.28331 0
M  V30 7875 C 765.865 3.27213 4.80943 0
M  V30 7876 N 764.841 2.54594 4.80294 0
M  V30 7877 H 768.643 1.75615 2.35662 0
M  V30 7878 H 766.157 1.04921 1.23957 0
M  V30 7879 H 768.154 0.0851274 4.16813 0
M  V30 7880 H 766.814 -0.57677 3.19536 0
M  V30 7881 H 767.825 2.96867 4.24371 0
M  V30 7882 H 764.502 0.389464 4.15679 0
M  V30 7883 H 765.892 4.30492 5.15874 0
M  V30 7884 N 768.612 -1.24939 0.960631 0
M  V30 7885 C 770.023 -1.74701 0.658529 0
M  V30 7886 C 770.374 -1.77967 -0.825959 0
M  V30 7887 O 769.499 -1.40444 -1.64634 0
M  V30 7888 C 770.094 -3.17263 1.18867 0
M  V30 7889 C 768.653 -3.64561 0.936614 0
M  V30 7890 C 767.8 -2.43423 1.32817 0
M  V30 7891 H 770.751 -1.10741 1.13676 0
M  V30 7892 H 770.772 -3.76481 0.551589 0
M  V30 7893 H 770.284 -3.14854 2.26912 0
M  V30 7894 H 768.385 -3.72378 -0.128608 0
M  V30 7895 H 768.498 -4.52392 1.57729 0
M  V30 7896 H 766.862 -2.43513 0.746548 0
M  V30 7897 H 767.645 -2.437 2.41796 0
M  V30 7898 N 770.09 -0.729906 -1.39679 0
M  V30 7899 C 771.053 -0.0951668 -2.29002 0
M  V30 7900 C 772.053 0.672471 -1.46063 0
M  V30 7901 O 773.243 0.502245 -1.66803 0
M  V30 7902 C 770.375 0.874631 -3.29489 0
M  V30 7903 H 771.568 -0.882062 -2.86635 0
M  V30 7904 H 769.121 -0.495424 -1.4824 0
M  V30 7905 H 769.856 1.68807 -2.76902 0
M  V30 7906 H 769.641 0.326893 -3.90735 0
M  V30 7907 H 771.131 1.31548 -3.96339 0
M  V30 7908 N 771.568 1.50203 -0.477153 0
M  V30 7909 C 772.815 2.02358 0.0757385 0
M  V30 7910 C 773.143 1.3587 1.39174 0
M  V30 7911 O 772.398 0.475415 1.89838 0
M  V30 7912 C 772.697 3.56127 0.301325 0
M  V30 7913 C 772.363 4.41126 -0.933725 0
M  V30 7914 C 771.025 4.64075 -1.27233 0
M  V30 7915 C 773.377 4.90737 -1.75576 0
M  V30 7916 C 770.705 5.33878 -2.43292 0
M  V30 7917 C 773.057 5.61816 -2.90768 0
M  V30 7918 C 771.721 5.83016 -3.25036 0
M  V30 7919 H 770.991 0.740482 0.0277147 0
M  V30 7920 H 773.638 1.80754 -0.632467 0
M  V30 7921 H 771.943 3.76279 1.09183 0
M  V30 7922 H 773.64 3.94053 0.743184 0
M  V30 7923 H 770.23 4.23489 -0.659935 0
M  V30 7924 H 774.414 4.72856 -1.50734 0
M  V30 7925 H 769.67 5.48499 -2.70109 0
M  V30 7926 H 773.844 5.99237 -3.54807 0
M  V30 7927 H 771.471 6.36881 -4.15074 0
M  V30 7928 N 773.046 0.209999 1.56195 0
M  V30 7929 C 774.462 -0.145598 1.58934 0
M  V30 7930 C 774.662 -1.59868 1.22656 0
M  V30 7931 O 773.718 -2.33689 0.956336 0
M  V30 7932 C 775.031 0.170243 3.00218 0
M  V30 7933 C 776.579 0.111548 3.12801 0
M  V30 7934 C 777.054 0.400904 4.56242 0
M  V30 7935 N 778.545 0.350058 4.61875 0
M  V30 7936 C 779.28 0.547598 5.70779 0
M  V30 7937 N 778.776 0.806291 6.88092 0
M  V30 7938 N 780.569 0.480827 5.6004 0
M  V30 7939 H 772.72 1.15804 1.78054 0
M  V30 7940 H 774.983 0.463326 0.827063 0
M  V30 7941 H 774.689 1.17833 3.31373 0
M  V30 7942 H 774.563 -0.520208 3.73596 0
M  V30 7943 H 776.95 -0.887162 2.81449 0
M  V30 7944 H 777.031 0.835302 2.41777 0
M  V30 7945 H 776.675 1.397 4.8831 0
M  V30 7946 H 776.605 -0.34391 5.25476 0
M  V30 7947 H 779.096 0.157334 3.77572 0
M  V30 7948 H 779.409 0.945433 7.66995 0
M  V30 7949 H 777.754 0.843355 6.89864 0
M  V30 7950 H 780.945 0.279037 4.67268 0
M  V30 7951 H 781.118 0.638189 6.4485 0
M  V30 7952 N 774.524 -1.57472 -0.0634922 0
M  V30 7953 C 775.935 -1.76303 -0.614337 0
M  V30 7954 C 776.286 -0.836578 -1.77471 0
M  V30 7955 O 775.411 -0.0227184 -2.16388 0
M  V30 7956 C 776.006 -3.19709 -1.12122 0
M  V30 7957 C 774.565 -3.39856 -1.61786 0
M  V30 7958 C 773.712 -2.71975 -0.540845 0
M  V30 7959 H 776.663 -1.57864 0.162702 0
M  V30 7960 H 776.684 -3.24326 -1.98979 0
M  V30 7961 H 776.196 -3.87114 -0.276472 0
M  V30 7962 H 774.297 -2.77578 -2.48558 0
M  V30 7963 H 774.41 -4.48338 -1.68908 0
M  V30 7964 H 772.774 -2.34763 -0.987854 0
M  V30 7965 H 773.557 -3.4204 0.293856 0
M  V30 7966 N 776.003 0.335068 -1.53997 0
M  V30 7967 C 776.936 1.43533 -1.77407 0
M  V30 7968 C 777.914 1.5017 -0.623529 0
M  V30 7969 O 779.098 1.67756 -0.85966 0
M  V30 7970 C 776.225 2.81712 -1.88033 0
M  V30 7971 C 775.271 2.92661 -3.10245 0
M  V30 7972 S 776.104 2.58254 -4.69111 0
M  V30 7973 C 777.26 3.98525 -4.82627 0
M  V30 7974 H 777.493 1.2346 -2.70453 0
M  V30 7975 H 775.026 0.531234 -1.44973 0
M  V30 7976 H 776.984 3.61314 -1.9484 0
M  V30 7977 H 775.645 2.99075 -0.959849 0
M  V30 7978 H 774.838 3.93931 -3.14379 0
M  V30 7979 H 774.44 2.21017 -3.01708 0
M  V30 7980 H 776.732 4.93146 -4.64557 0
M  V30 7981 H 777.675 3.9938 -5.84723 0
M  V30 7982 H 778.083 3.86945 -4.11016 0
M  V30 7983 N 777.481 1.45874 0.596531 0
M  V30 7984 C 778.892 1.44798 1.17857 0
M  V30 7985 C 779.243 0.181443 1.95359 0
M  V30 7986 O 778.368 -0.716336 2.042 0
M  V30 7987 C 778.963 2.62333 2.14398 0
M  V30 7988 C 777.522 2.64342 2.67955 0
M  V30 7989 C 776.669 2.37244 1.43564 0
M  V30 7990 H 779.62 1.53954 0.385222 0
M  V30 7991 H 779.641 2.37063 2.97626 0
M  V30 7992 H 779.153 3.54499 1.57963 0
M  V30 7993 H 777.254 1.76213 3.28298 0
M  V30 7994 H 777.367 3.63897 3.11634 0
M  V30 7995 H 775.731 1.87022 1.72901 0
M  V30 7996 H 776.514 3.31568 0.889805 0
M  V30 7997 N 778.959 -0.83999 1.33349 0
M  V30 7998 C 779.889 -1.965 1.26135 0
M  V30 7999 C 780.87 -1.69505 0.142152 0
M  V30 8000 O 782.055 -1.91346 0.331743 0
M  V30 8001 C 779.185 -3.32632 0.99866 0
M  V30 8002 C 778.139 -3.74021 2.08068 0
M  V30 8003 C 777.465 -5.07947 1.67014 0
M  V30 8004 C 778.765 -3.87925 3.49731 0
M  V30 8005 H 780.459 -2.02793 2.20262 0
M  V30 8006 H 778.005 -0.974297 1.06035 0
M  V30 8007 H 779.958 -4.10903 0.934696 0
M  V30 8008 H 778.682 -3.26593 0.0217759 0
M  V30 8009 H 777.341 -2.98012 2.13505 0
M  V30 8010 H 776.989 -4.98378 0.680316 0
M  V30 8011 H 776.689 -5.36611 2.39422 0
M  V30 8012 H 778.213 -5.88695 1.62082 0
M  V30 8013 H 779.627 -4.5651 3.46802 0
M  V30 8014 H 778.024 -4.28023 4.20614 0
M  V30 8015 H 779.094 -2.90407 3.88319 0
M  V30 8016 N 780.437 -1.16799 -1.0581 0
M  V30 8017 C 781.369 -0.836774 -2.13379 0
M  V30 8018 C 782.382 0.158116 -1.6203 0
M  V30 8019 O 783.571 -0.0673211 -1.78373 0
M  V30 8020 C 780.671 -0.225959 -3.38146 0
M  V30 8021 C 779.844 -1.26217 -4.18794 0
M  V30 8022 C 778.903 -0.670257 -5.21914 0
M  V30 8023 O 777.929 -1.34042 -5.53192 0
M  V30 8024 N 779.131 0.540683 -5.77977 0
M  V30 8025 H 781.896 -1.76257 -2.42391 0
M  V30 8026 H 779.457 -1.06599 -1.21853 0
M  V30 8027 H 781.449 0.18317 -4.04285 0
M  V30 8028 H 780.019 0.603494 -3.06719 0
M  V30 8029 H 779.239 -1.84729 -3.48237 0
M  V30 8030 H 780.527 -1.9613 -4.69479 0
M  V30 8031 H 779.925 1.10322 -5.54838 0
M  V30 8032 H 778.482 0.891958 -6.45668 0
M  V30 8033 N 781.915 1.24427 -0.967243 0
M  V30 8034 C 782.862 2.25398 -0.496419 0
M  V30 8035 C 783.832 1.59667 0.457781 0
M  V30 8036 O 785.017 1.87213 0.368246 0
M  V30 8037 C 782.157 3.44474 0.207693 0
M  V30 8038 C 781.27 4.24804 -0.785221 0
M  V30 8039 C 780.405 5.31169 -0.0572631 0
M  V30 8040 C 779.444 6.03195 -1.04027 0
M  V30 8041 N 778.581 7.01265 -0.34235 0
M  V30 8042 H 783.421 2.65039 -1.36229 0
M  V30 8043 H 780.958 1.30288 -0.682902 0
M  V30 8044 H 782.916 4.12376 0.632612 0
M  V30 8045 H 781.546 3.05672 1.03752 0
M  V30 8046 H 780.598 3.56445 -1.32858 0
M  V30 8047 H 781.91 4.74599 -1.53483 0
M  V30 8048 H 781.064 6.05205 0.425674 0
M  V30 8049 H 779.803 4.8228 0.725047 0
M  V30 8050 H 778.808 5.27964 -1.53409 0
M  V30 8051 H 780.033 6.54173 -1.82302 0
M  V30 8052 H 777.979 6.54648 0.420993 0
M  V30 8053 H 777.896 7.48939 -1.03084 0
M  V30 8054 H 779.164 7.7941 0.118634 0
M  V30 8055 N 783.393 0.737304 1.3929 0
M  V30 8056 C 784.323 0.113988 2.33222 0
M  V30 8057 C 785.304 -0.721695 1.54031 0
M  V30 8058 O 786.489 -0.666206 1.82415 0
M  V30 8059 C 783.619 -0.792319 3.38141 0
M  V30 8060 C 782.573 -0.0606178 4.27957 0
M  V30 8061 C 781.899 -1.08409 5.23595 0
M  V30 8062 C 783.199 1.09817 5.10625 0
M  V30 8063 H 784.893 0.898611 2.85596 0
M  V30 8064 H 782.439 0.433571 1.37318 0
M  V30 8065 H 784.392 -1.23793 4.02807 0
M  V30 8066 H 783.116 -1.60908 2.84211 0
M  V30 8067 H 781.775 0.365393 3.64775 0
M  V30 8068 H 781.423 -1.89449 4.6596 0
M  V30 8069 H 781.123 -0.599269 5.84536 0
M  V30 8070 H 782.647 -1.52936 5.91137 0
M  V30 8071 H 784.061 0.730892 5.68622 0
M  V30 8072 H 782.458 1.51278 5.80719 0
M  V30 8073 H 783.528 1.91878 4.45321 0
M  V30 8074 N 784.871 -1.49948 0.485112 0
M  V30 8075 C 785.801 -2.31675 -0.291364 0
M  V30 8076 C 786.782 -1.39216 -0.977383 0
M  V30 8077 O 787.967 -1.68133 -0.971855 0
M  V30 8078 C 785.097 -3.19326 -1.36558 0
M  V30 8079 C 784.051 -4.2045 -0.800359 0
M  V30 8080 C 783.377 -4.96931 -1.97391 0
M  V30 8081 C 784.677 -5.21925 0.197867 0
M  V30 8082 H 786.371 -2.96839 0.390775 0
M  V30 8083 H 783.917 -1.42749 0.189375 0
M  V30 8084 H 785.87 -3.75304 -1.91638 0
M  V30 8085 H 784.594 -2.52074 -2.07668 0
M  V30 8086 H 783.253 -3.65594 -0.271428 0
M  V30 8087 H 782.901 -4.26141 -2.67232 0
M  V30 8088 H 782.601 -5.65344 -1.60187 0
M  V30 8089 H 784.125 -5.55749 -2.52935 0
M  V30 8090 H 785.539 -5.72691 -0.264239 0
M  V30 8091 H 783.936 -5.98138 0.484908 0
M  V30 8092 H 785.006 -4.71809 1.11912 0
M  V30 8093 N 786.349 -0.21828 -1.56081 0
M  V30 8094 C 787.598 0.414644 -1.97392 0
M  V30 8095 C 787.911 1.61132 -1.10887 0
M  V30 8096 O 789.117 2.31355 -1.42082 0
M  V30 8097 C 787.573 0.789099 -3.51143 0
M  V30 8098 C 787.181 -0.384578 -4.46346 0
M  V30 8099 C 788.925 1.38781 -4.01173 0
M  V30 8100 C 786.832 0.0121288 -5.91399 0
M  V30 8101 H 785.762 0.158691 -0.737111 0
M  V30 8102 H 788.413 -0.313974 -1.80794 0
M  V30 8103 H 786.795 1.57505 -3.6333 0
M  V30 8104 H 787.969 -1.16212 -4.45905 0
M  V30 8105 H 786.284 -0.896306 -4.06639 0
M  V30 8106 H 788.881 1.69746 -5.07041 0
M  V30 8107 H 789.224 2.30245 -3.46833 0
M  V30 8108 H 789.757 0.665364 -3.92196 0
M  V30 8109 H 786.496 -0.868917 -6.49715 0
M  V30 8110 H 786.016 0.754053 -5.95041 0
M  V30 8111 H 787.695 0.439949 -6.45502 0
M  V30 8112 N 787.827 1.57504 0.0551401 0
M  V30 8113 C 789.067 1.89895 0.756252 0
M  V30 8114 C 789.431 0.813983 1.73892 0
M  V30 8115 O 790.632 1.02145 2.48636 0
M  V30 8116 C 788.903 3.27494 1.43116 0
M  V30 8117 S 790.462 3.81669 2.16504 0
M  V30 8118 H 787.28 0.665173 0.251129 0
M  V30 8119 H 789.882 1.95496 0.0117193 0
M  V30 8120 H 788.586 4.04345 0.702391 0
M  V30 8121 H 788.117 3.25132 2.21479 0
M  V30 8122 H 790.132 3.58295 3.43277 0
M  V30 8123 N 789.305 -0.326896 1.54172 0
M  V30 8124 C 790.582 -1.08326 1.62864 0
M  V30 8125 C 790.962 -2.06018 0.46039 0
M  V30 8126 O 790.31 -2.21889 -0.545685 0
M  V30 8127 C 790.52 -1.78816 2.9971 0
M  V30 8128 C 791.868 -2.31958 3.55641 0
M  V30 8129 O 792.892 -1.88888 3.01993 0
M  V30 8130 O 791.751 -3.10801 4.49517 0
M  V30 8131 H 788.845 -0.499131 0.659392 0
M  V30 8132 H 791.391 -0.327054 1.66519 0
M  V30 8133 H 790.163 -1.07739 3.76176 0
M  V30 8134 H 789.786 -2.61255 2.99719 0
M  V30 8135 N 790.784 -1.46188 -0.588786 0
M  V30 8136 C 792.195 -1.45421 -1.17088 0
M  V30 8137 C 792.546 -0.191801 -1.9526 0
M  V30 8138 O 791.671 0.705497 -2.04577 0
M  V30 8139 C 792.266 -2.63467 -2.13004 0
M  V30 8140 C 790.825 -2.6576 -2.6655 0
M  V30 8141 C 789.972 -2.38002 -1.42304 0
M  V30 8142 H 792.923 -1.54156 -0.377052 0
M  V30 8143 H 792.944 -2.38638 -2.96365 0
M  V30 8144 H 792.456 -3.55331 -1.56081 0
M  V30 8145 H 790.557 -1.77952 -3.27359 0
M  V30 8146 H 790.67 -3.65545 -3.09699 0
M  V30 8147 H 789.034 -1.87936 -1.71907 0
M  V30 8148 H 789.817 -3.32035 -0.872209 0
M  V30 8149 N 792.262 0.832906 -1.33792 0
M  V30 8150 C 793.212 1.93178 -1.21105 0
M  V30 8151 C 794.196 1.60506 -0.112491 0
M  V30 8152 O 795.388 1.73681 -0.341179 0
M  V30 8153 C 792.517 3.29647 -0.958526 0
M  V30 8154 C 791.603 3.68469 -2.0998 0
M  V30 8155 N 791.994 3.78936 -3.35024 0
M  V30 8156 C 790.292 3.98249 -2.00782 0
M  V30 8157 C 790.993 4.12731 -4.09912 0
M  V30 8158 N 789.969 4.25419 -3.38407 0
M  V30 8159 H 793.771 1.99434 -2.15878 0
M  V30 8160 H 791.285 1.02598 -1.25886 0
M  V30 8161 H 793.282 4.08173 -0.848552 0
M  V30 8162 H 791.942 3.24694 -0.019387 0
M  V30 8163 H 792.953 3.62688 -3.69699 0
M  V30 8164 H 789.63 4.01474 -1.14564 0
M  V30 8165 H 791.02 4.28117 -5.17847 0
M  V30 8166 N 793.74 1.17359 1.05189 0
M  V30 8167 C 794.703 0.892604 2.11105 0
M  V30 8168 C 795.703 -0.117236 1.60372 0
M  V30 8169 O 796.893 0.114936 1.7382 0
M  V30 8170 C 794.025 0.337032 3.3923 0
M  V30 8171 H 795.218 1.83169 2.37464 0
M  V30 8172 H 792.771 0.984051 1.21434 0
M  V30 8173 H 793.506 -0.609198 3.18527 0
M  V30 8174 H 793.291 1.06484 3.77364 0
M  V30 8175 H 794.781 0.158763 4.17298 0
M  V30 8176 N 795.218 -1.23913 0.973828 0
M  V30 8177 C 796.634 -1.44325 0.681363 0
M  V30 8178 C 796.834 -1.86832 -0.754728 0
M  V30 8179 O 795.89 -2.01024 -1.52793 0
M  V30 8180 C 797.203 -2.50017 1.67069 0
M  V30 8181 C 798.751 -2.63838 1.68399 0
M  V30 8182 C 799.226 -3.72734 2.66145 0
M  V30 8183 N 800.717 -3.80169 2.64624 0
M  V30 8184 C 801.452 -4.6397 3.36927 0
M  V30 8185 N 800.948 -5.51911 4.18767 0
M  V30 8186 N 802.741 -4.58106 3.25722 0
M  V30 8187 H 794.892 -0.946204 1.9016 0
M  V30 8188 H 797.155 -0.477374 0.819035 0
M  V30 8189 H 796.861 -2.25686 2.69738 0
M  V30 8190 H 796.735 -3.48287 1.4483 0
M  V30 8191 H 799.122 -2.87524 0.664379 0
M  V30 8192 H 799.203 -1.65906 1.94702 0
M  V30 8193 H 798.847 -3.49797 3.68245 0
M  V30 8194 H 798.777 -4.70193 2.3712 0
M  V30 8195 H 801.268 -3.17319 2.05224 0
M  V30 8196 H 801.581 -6.12828 4.70809 0
M  V30 8197 H 799.926 -5.51556 4.2286 0
M  V30 8198 H 803.117 -3.8842 2.61242 0
M  V30 8199 H 803.29 -5.23188 3.82333 0
M  V30 8200 N 796.696 -0.74468 -1.38897 0
M  V30 8201 C 797.943 -0.296884 -2.00312 0
M  V30 8202 C 798.271 1.11878 -1.59102 0
M  V30 8203 O 797.526 1.7789 -0.815702 0
M  V30 8204 C 797.825 -0.357302 -3.55609 0
M  V30 8205 C 797.491 -1.72736 -4.16501 0
M  V30 8206 C 796.153 -2.10232 -4.32846 0
M  V30 8207 C 798.505 -2.62647 -4.50184 0
M  V30 8208 C 795.833 -3.3713 -4.80167 0
M  V30 8209 C 798.185 -3.88926 -4.98918 0
M  V30 8210 C 796.849 -4.26503 -5.1347 0
M  V30 8211 H 796.119 -0.108638 -0.732993 0
M  V30 8212 H 798.766 -0.953419 -1.66079 0
M  V30 8213 H 797.071 0.382805 -3.89925 0
M  V30 8214 H 798.768 0.0074596 -4.00999 0
M  V30 8215 H 795.358 -1.42585 -4.04187 0
M  V30 8216 H 799.542 -2.34945 -4.37166 0
M  V30 8217 H 794.798 -3.66174 -4.89619 0
M  V30 8218 H 798.972 -4.58745 -5.23952 0
M  V30 8219 H 796.599 -5.24896 -5.49898 0
M  V30 8220 N 798.174 1.49689 -0.493057 0
M  V30 8221 C 799.585 1.8665 -0.0433032 0
M  V30 8222 C 799.936 1.40607 1.36836 0
M  V30 8223 O 799.061 0.780503 2.01834 0
M  V30 8224 C 799.656 3.38724 -0.0718069 0
M  V30 8225 C 798.215 3.75015 0.32257 0
M  V30 8226 C 797.362 2.7366 -0.4478 0
M  V30 8227 H 800.313 1.42119 -0.706246 0
M  V30 8228 H 800.334 3.73522 0.725347 0
M  V30 8229 H 799.846 3.72204 -1.09935 0
M  V30 8230 H 797.947 3.47142 1.35364 0
M  V30 8231 H 798.06 4.79099 0.00864259 0
M  V30 8232 H 796.424 2.54498 0.101354 0
M  V30 8233 H 797.207 3.09985 -1.47527 0
M  V30 8234 N 799.652 0.226554 1.55963 0
M  V30 8235 C 800.898 -0.404387 1.98727 0
M  V30 8236 C 801.231 -1.59059 1.11418 0
M  V30 8237 O 800.506 -1.93729 0.172971 0
M  V30 8238 C 800.789 -0.834081 3.50307 0
M  V30 8239 C 800.642 0.356104 4.48388 0
M  V30 8240 C 801.961 -1.68845 4.06423 0
M  V30 8241 H 799.08 -0.145515 0.722492 0
M  V30 8242 H 801.722 0.323791 1.87221 0
M  V30 8243 H 799.872 -1.45454 3.60244 0
M  V30 8244 H 801.544 0.99432 4.50456 0
M  V30 8245 H 799.787 1.0027 4.22053 0
M  V30 8246 H 800.458 0.0124333 5.51999 0
M  V30 8247 H 802.934 -1.16489 3.99461 0
M  V30 8248 H 801.81 -1.958 5.1279 0
M  V30 8249 H 802.071 -2.65347 3.53615 0
M  V30 8250 N 801.13 -1.57531 -0.0467866 0
M  V30 8251 C 802.093 -2.04379 -1.03738 0
M  V30 8252 C 803.093 -0.944881 -1.3011 0
M  V30 8253 O 804.283 -1.20904 -1.25411 0
M  V30 8254 C 801.415 -2.44572 -2.37482 0
M  V30 8255 H 802.608 -2.93142 -0.633063 0
M  V30 8256 H 800.161 -1.53526 -0.293177 0
M  V30 8257 H 800.896 -1.58911 -2.82697 0
M  V30 8258 H 800.681 -3.24785 -2.19675 0
M  V30 8259 H 802.171 -2.81307 -3.08636 0
M  V30 8260 N 802.608 0.318715 -1.54344 0
M  V30 8261 C 803.856 1.054 -1.72439 0
M  V30 8262 C 804.177 1.88388 -0.503495 0
M  V30 8263 O 803.447 1.89866 0.48246 0
M  V30 8264 H 802.027 0.392124 -0.635805 0
M  V30 8265 H 804.689 0.35398 -1.91659 0
M  V30 8266 H 803.785 1.71726 -2.60608 0
M  V30 8267 N 804.086 1.46499 0.581025 0
M  V30 8268 C 805.016 1.60052 1.70017 0
M  V30 8269 C 805.997 0.450788 1.64018 0
M  V30 8270 O 807.182 0.677237 1.82009 0
M  V30 8271 C 804.312 1.5921 3.08658 0
M  V30 8272 C 803.266 2.73169 3.29488 0
M  V30 8273 C 802.592 2.57389 4.68674 0
M  V30 8274 C 803.892 4.14978 3.1716 0
M  V30 8275 H 805.586 2.53735 1.5893 0
M  V30 8276 H 803.132 1.22113 0.763173 0
M  V30 8277 H 805.085 1.67285 3.86773 0
M  V30 8278 H 803.809 0.620718 3.20647 0
M  V30 8279 H 802.468 2.64566 2.53773 0
M  V30 8280 H 802.116 1.58331 4.77431 0
M  V30 8281 H 801.816 3.33826 4.83564 0
M  V30 8282 H 803.34 2.67358 5.48956 0
M  V30 8283 H 804.754 4.24684 3.85119 0
M  V30 8284 H 803.151 4.92016 3.4357 0
M  V30 8285 H 804.221 4.35016 2.14218 0
M  V30 8286 N 805.565 -0.825799 1.34232 0
M  V30 8287 C 806.981 -1.11848 1.13851 0
M  V30 8288 C 807.181 -2.01405 -0.0619031 0
M  V30 8289 O 806.237 -2.41465 -0.738287 0
M  V30 8290 C 807.55 -1.76797 2.43235 0
M  V30 8291 C 809.098 -1.89304 2.49265 0
M  V30 8292 C 809.573 -2.57669 3.78643 0
M  V30 8293 N 811.064 -2.65171 3.79788 0
M  V30 8294 C 811.799 -3.1879 4.76614 0
M  V30 8295 N 811.295 -3.72995 5.83821 0
M  V30 8296 N 813.088 -3.17164 4.64073 0
M  V30 8297 H 805.239 -0.230049 2.11151 0
M  V30 8298 H 807.502 -0.164609 0.9336 0
M  V30 8299 H 807.208 -1.18455 3.31152 0
M  V30 8300 H 807.082 -2.76693 2.56361 0
M  V30 8301 H 809.469 -2.46796 1.6179 0
M  V30 8302 H 809.55 -0.883191 2.4007 0
M  V30 8303 H 809.194 -2.00833 4.66507 0
M  V30 8304 H 809.124 -3.59152 3.8512 0
M  V30 8305 H 811.615 -2.26746 3.02315 0
M  V30 8306 H 811.928 -4.12151 6.53721 0
M  V30 8307 H 810.273 -3.71246 5.87538 0
M  V30 8308 H 813.464 -2.74082 3.79469 0
M  V30 8309 H 813.637 -3.58647 5.397 0
M  V30 8310 N 807.043 -1.17915 -1.04565 0
M  V30 8311 C 808.459 -0.927761 -1.29864 0
M  V30 8312 C 808.659 0.409536 -1.97294 0
M  V30 8313 O 807.715 1.14505 -2.25044 0
M  V30 8314 C 809.028 -2.08967 -2.16225 0
M  V30 8315 C 810.576 -2.12741 -2.29587 0
M  V30 8316 C 811.051 -3.28335 -3.19312 0
M  V30 8317 N 812.542 -3.28164 -3.26898 0
M  V30 8318 C 813.277 -4.14249 -3.96466 0
M  V30 8319 N 812.773 -5.10457 -4.68407 0
M  V30 8320 N 814.566 -4.02179 -3.92694 0
M  V30 8321 H 806.717 -2.03983 -0.592011 0
M  V30 8322 H 808.98 -0.891023 -0.323701 0
M  V30 8323 H 808.686 -3.05654 -1.73979 0
M  V30 8324 H 808.56 -2.04606 -3.16885 0
M  V30 8325 H 810.947 -1.16636 -2.71072 0
M  V30 8326 H 811.028 -2.21162 -1.28535 0
M  V30 8327 H 810.672 -4.2471 -2.78539 0
M  V30 8328 H 810.602 -3.17151 -4.20384 0
M  V30 8329 H 813.093 -2.58511 -2.75646 0
M  V30 8330 H 813.406 -5.72526 -5.1907 0
M  V30 8331 H 811.751 -5.14422 -4.67328 0
M  V30 8332 H 814.942 -3.26308 -3.3562 0
M  V30 8333 H 815.115 -4.69486 -4.4664 0
M  V30 8334 N 808.521 1.23394 -0.980386 0
M  V30 8335 C 809.751 1.9556 -0.666319 0
M  V30 8336 C 810.159 1.72786 0.770815 0
M  V30 8337 O 809.502 1.0162 1.53033 0
M  V30 8338 C 809.564 3.48643 -0.876825 0
M  V30 8339 C 809.228 3.95135 -2.29602 0
M  V30 8340 C 810.225 4.03806 -3.2747 0
M  V30 8341 C 807.91 4.28122 -2.62711 0
M  V30 8342 C 809.904 4.44818 -4.56526 0
M  V30 8343 C 807.591 4.68814 -3.9199 0
M  V30 8344 C 808.589 4.77129 -4.88709 0
M  V30 8345 O 808.277 5.16908 -6.15679 0
M  V30 8346 H 808.009 0.629422 -0.246585 0
M  V30 8347 H 810.563 1.57839 -1.31438 0
M  V30 8348 H 808.793 3.86319 -0.171587 0
M  V30 8349 H 810.482 4.0202 -0.55992 0
M  V30 8350 H 811.248 3.78526 -3.03222 0
M  V30 8351 H 807.127 4.20861 -1.8814 0
M  V30 8352 H 810.671 4.51223 -5.32018 0
M  V30 8353 H 806.568 4.93545 -4.16033 0
M  V30 8354 H 807.336 5.3502 -6.19432 0
M  V30 8355 N 809.999 0.752036 1.385 0
M  V30 8356 C 811.239 0.312408 2.01998 0
M  V30 8357 C 811.603 -1.085 1.58404 0
M  V30 8358 O 812.804 -1.62365 2.14222 0
M  V30 8359 C 811.075 0.429423 3.54811 0
M  V30 8360 S 812.634 0.0721487 4.38741 0
M  V30 8361 H 809.452 0.1213 0.700576 0
M  V30 8362 H 812.054 0.982312 1.69029 0
M  V30 8363 H 810.758 1.44743 3.84028 0
M  V30 8364 H 810.289 -0.257716 3.92555 0
M  V30 8365 H 812.304 -1.13875 4.82957 0
M  V30 8366 N 811.477 -1.49425 0.500989 0
M  V30 8367 C 812.41 -2.25887 -0.324087 0
M  V30 8368 C 813.388 -1.30469 -0.970388 0
M  V30 8369 O 814.572 -1.59758 -1.00049 0
M  V30 8370 C 811.699 -3.05787 -1.45643 0
M  V30 8371 C 810.745 -4.16359 -0.924508 0
M  V30 8372 S 811.578 -5.35181 0.184707 0
M  V30 8373 C 812.734 -6.18636 -0.950806 0
M  V30 8374 H 812.967 -2.95519 0.324891 0
M  V30 8375 H 810.5 -1.51723 0.286289 0
M  V30 8376 H 812.458 -3.52405 -2.10525 0
M  V30 8377 H 811.119 -2.35624 -2.07703 0
M  V30 8378 H 810.312 -4.71781 -1.77311 0
M  V30 8379 H 809.914 -3.72331 -0.352907 0
M  V30 8380 H 812.206 -6.51581 -1.85603 0
M  V30 8381 H 813.149 -7.06761 -0.435212 0
M  V30 8382 H 813.557 -5.512 -1.21813 0
M  V30 8383 N 812.955 -0.234822 -1.55841 0
M  V30 8384 C 814.18 0.400741 -2.03492 0
M  V30 8385 C 814.605 1.51618 -1.11327 0
M  V30 8386 O 813.963 1.81002 -0.103922 0
M  V30 8387 C 814.011 0.897184 -3.49261 0
M  V30 8388 O 813.115 2.00764 -3.60233 0
M  V30 8389 H 812.456 0.0890023 -0.658008 0
M  V30 8390 H 814.986 -0.357345 -2.01455 0
M  V30 8391 H 814.996 1.20356 -3.89844 0
M  V30 8392 H 813.671 0.0808639 -4.15821 0
M  V30 8393 H 812.248 1.70689 -3.31541 0
M  V30 8394 N 814.433 1.57553 0.0384317 0
M  V30 8395 C 815.343 2.09333 1.0591 0
M  V30 8396 C 816.359 1.0299 1.40247 0
M  V30 8397 O 817.535 1.34669 1.49754 0
M  V30 8398 C 814.6 2.55468 2.34386 0
M  V30 8399 C 813.661 3.76254 2.06716 0
M  V30 8400 C 812.894 4.20179 3.29067 0
M  V30 8401 O 813.117 3.637 4.39407 0
M  V30 8402 O 812.051 5.12697 3.15317 0
M  V30 8403 H 815.877 2.96683 0.649087 0
M  V30 8404 H 813.462 1.47211 0.254802 0
M  V30 8405 H 815.344 2.85514 3.09935 0
M  V30 8406 H 814.019 1.71234 2.74701 0
M  V30 8407 H 812.926 3.51241 1.28766 0
M  V30 8408 H 814.259 4.61443 1.71263 0
M  V30 8409 N 815.911 -0.310526 1.54511 0
M  V30 8410 C 816.841 -1.38757 1.878 0
M  V30 8411 C 817.822 -1.53353 0.735991 0
M  V30 8412 O 819.007 -1.67018 0.990887 0
M  V30 8413 C 816.137 -2.75327 2.11689 0
M  V30 8414 C 815.091 -2.75506 3.27537 0
M  V30 8415 C 814.417 -4.15275 3.36824 0
M  V30 8416 C 815.717 -2.38093 4.64875 0
M  V30 8417 H 817.411 -1.11146 2.78005 0
M  V30 8418 H 814.957 -0.533232 1.33763 0
M  V30 8419 H 816.91 -3.50752 2.33562 0
M  V30 8420 H 815.634 -3.04443 1.18245 0
M  V30 8421 H 814.293 -2.02538 3.05572 0
M  V30 8422 H 813.941 -4.41553 2.40915 0
M  V30 8423 H 813.641 -4.16299 4.14692 0
M  V30 8424 H 815.165 -4.92493 3.60947 0
M  V30 8425 H 816.579 -3.03232 4.86542 0
M  V30 8426 H 814.976 -2.50345 5.45387 0
M  V30 8427 H 816.046 -1.33227 4.66239 0
M  V30 8428 N 817.389 -1.46805 -0.573248 0
M  V30 8429 C 818.614 -1.56433 -1.36175 0
M  V30 8430 C 819.039 -0.209336 -1.86932 0
M  V30 8431 O 818.397 0.812146 -1.62092 0
M  V30 8432 C 818.445 -2.58055 -2.51873 0
M  V30 8433 O 817.549 -2.12214 -3.53609 0
M  V30 8434 H 816.89 -0.526068 -0.405153 0
M  V30 8435 H 819.42 -1.92456 -0.694405 0
M  V30 8436 H 819.43 -2.77966 -2.98662 0
M  V30 8437 H 818.105 -3.56448 -2.14284 0
M  V30 8438 H 816.682 -2.02333 -3.13234 0
M  V30 8439 N 818.867 0.818669 -1.34668 0
M  V30 8440 C 819.83 1.9114 -1.26483 0
M  V30 8441 C 820.83 1.598 -0.179044 0
M  V30 8442 O 822.02 1.6876 -0.431952 0
M  V30 8443 C 819.152 3.27285 -0.95381 0
M  V30 8444 H 820.345 1.9982 -2.23634 0
M  V30 8445 H 817.898 1.01314 -1.19018 0
M  V30 8446 H 818.633 3.24297 0.0143428 0
M  V30 8447 H 818.418 3.51416 -1.73924 0
M  V30 8448 H 819.908 4.07299 -0.921827 0
M  V30 8449 N 820.346 1.18468 1.03938 0
M  V30 8450 C 821.276 0.936389 2.13902 0
M  V30 8451 C 822.257 -0.126381 1.6963 0
M  V30 8452 O 823.442 0.0264757 1.94182 0
M  V30 8453 C 820.572 0.462729 3.44204 0
M  V30 8454 C 819.526 1.46613 4.02105 0
M  V30 8455 C 818.852 0.84994 5.27902 0
M  V30 8456 C 820.152 2.84323 4.3813 0
M  V30 8457 H 821.846 1.85602 2.3493 0
M  V30 8458 H 819.392 0.893806 1.12903 0
M  V30 8459 H 821.345 0.276382 4.20493 0
M  V30 8460 H 820.069 -0.492477 3.22866 0
M  V30 8461 H 818.728 1.63944 3.27899 0
M  V30 8462 H 818.376 -0.112493 5.02874 0
M  V30 8463 H 818.076 1.51988 5.67603 0
M  V30 8464 H 819.6 0.674152 6.06867 0
M  V30 8465 H 821.014 2.70636 5.054 0
M  V30 8466 H 819.411 3.48012 4.88884 0
M  V30 8467 H 820.481 3.37776 3.47901 0
M  V30 8468 N 821.824 -1.22873 0.986916 0
M  V30 8469 C 823.072 -1.91084 0.658121 0
M  V30 8470 C 823.393 -1.77304 -0.811675 0
M  V30 8471 O 822.663 -1.15649 -1.58121 0
M  V30 8472 H 821.243 -0.707251 0.240427 0
M  V30 8473 H 823.905 -1.49357 1.25213 0
M  V30 8474 H 823.001 -2.98373 0.915428 0
M  V30 8475 N 823.302 -0.75937 -1.38099 0
M  V30 8476 C 824.25 -0.124954 -2.32264 0
M  V30 8477 C 825.244 0.698863 -1.54312 0
M  V30 8478 O 826.45 0.597312 -1.698 0
M  V30 8479 H 822.825 -0.0216142 -0.751689 0
M  V30 8480 H 824.796 -0.935115 -2.83369 0
M  V30 8481 C 823.545 0.749463 -3.39527 0
M  V30 8482 H 822.868 0.124932 -3.99605 0
M  V30 8483 H 824.308 1.16055 -4.07808 0
M  V30 8484 C 822.767 1.89464 -2.78577 0
M  V30 8485 O 823.297 2.98923 -2.68343 0
M  V30 8486 N 821.503 1.69145 -2.36301 0
M  V30 8487 H 821.05 0.801157 -2.44825 0
M  V30 8488 H 821.008 2.45936 -1.95864 0
M  V30 8489 N 824.78 1.49157 -0.508906 0
M  V30 8490 C 826.026 2.02773 0.0328469 0
M  V30 8491 C 826.359 1.38714 1.35912 0
M  V30 8492 O 825.634 0.525536 1.87266 0
M  V30 8493 C 825.917 3.59664 0.177088 0
M  V30 8494 C 825.77 4.34239 -1.17287 0
M  V30 8495 C 827.089 4.30505 0.913977 0
M  V30 8496 H 824.208 0.736926 0.0104631 0
M  V30 8497 H 826.85 1.781 -0.661851 0
M  V30 8498 H 825 3.80818 0.768774 0
M  V30 8499 H 826.672 4.24561 -1.80404 0
M  V30 8500 H 824.915 3.96486 -1.76016 0
M  V30 8501 H 825.586 5.42397 -1.02516 0
M  V30 8502 H 828.062 4.14054 0.412084 0
M  V30 8503 H 826.938 5.40012 0.983759 0
M  V30 8504 H 827.199 3.96302 1.95951 0
M  V30 8505 N 826.258 0.243083 1.55714 0
M  V30 8506 C 827.188 -0.652336 2.24203 0
M  V30 8507 C 828.169 -1.1843 1.221 0
M  V30 8508 O 829.354 -1.22435 1.50743 0
M  V30 8509 C 826.484 -1.85111 2.93856 0
M  V30 8510 C 825.438 -1.45208 4.02615 0
M  V30 8511 C 824.764 -2.73137 4.59674 0
M  V30 8512 C 826.064 -0.625988 5.18535 0
M  V30 8513 H 827.758 -0.0812504 2.9929 0
M  V30 8514 H 825.304 -0.0376388 1.43951 0
M  V30 8515 H 827.257 -2.48314 3.40468 0
M  V30 8516 H 825.981 -2.44751 2.16251 0
M  V30 8517 H 824.64 -0.843406 3.56766 0
M  V30 8518 H 824.288 -3.30967 3.78774 0
M  V30 8519 H 823.988 -2.47163 5.33089 0
M  V30 8520 H 825.512 -3.37245 5.09017 0
M  V30 8521 H 826.926 -1.16223 5.61396 0
M  V30 8522 H 825.323 -0.462465 5.98315 0
M  V30 8523 H 826.393 0.362652 4.83542 0
M  V30 8524 N 827.736 -1.57571 -0.0300757 0
M  V30 8525 C 828.984 -1.88852 -0.719666 0
M  V30 8526 C 829.305 -0.840645 -1.75949 0
M  V30 8527 O 828.575 0.125854 -1.95495 0
M  V30 8528 H 827.155 -0.696965 -0.268792 0
M  V30 8529 H 829.817 -1.949 0.00373285 0
M  V30 8530 H 828.913 -2.87695 -1.20987 0
M  V30 8531 N 829.214 0.302327 -1.54673 0
M  V30 8532 C 830.461 1.0377 -1.73891 0
M  V30 8533 C 830.789 1.87309 -0.523979 0
M  V30 8534 O 830.044 1.8936 0.494084 0
M  V30 8535 C 830.343 1.97365 -2.97963 0
M  V30 8536 C 830.009 1.29812 -4.3181 0
M  V30 8537 C 828.671 1.11121 -4.68194 0
M  V30 8538 C 831.023 0.815073 -5.14787 0
M  V30 8539 C 828.351 0.428077 -5.85136 0
M  V30 8540 C 830.703 0.145665 -6.32432 0
M  V30 8541 C 829.367 -0.0532098 -6.67479 0
M  V30 8542 H 828.637 0.379721 -0.636312 0
M  V30 8543 H 831.284 0.312708 -1.8893 0
M  V30 8544 H 829.589 2.76387 -2.777 0
M  V30 8545 H 831.286 2.54331 -3.10027 0
M  V30 8546 H 827.876 1.45366 -4.03196 0
M  V30 8547 H 832.06 0.947191 -4.87178 0
M  V30 8548 H 827.316 0.262995 -6.10834 0
M  V30 8549 H 831.49 -0.236533 -6.95998 0
M  V30 8550 H 829.117 -0.58456 -7.57949 0
M  V30 8551 N 830.692 1.47107 0.565454 0
M  V30 8552 C 831.932 1.5488 1.33385 0
M  V30 8553 C 832.296 0.202804 1.90926 0
M  V30 8554 O 833.497 0.155345 2.68351 0
M  V30 8555 C 831.768 2.62969 2.42037 0
M  V30 8556 S 833.327 2.90269 3.29074 0
M  V30 8557 H 830.145 0.547008 0.454206 0
M  V30 8558 H 832.747 1.8444 0.648228 0
M  V30 8559 H 831.451 3.59376 1.98185 0
M  V30 8560 H 830.982 2.35197 3.15351 0
M  V30 8561 H 832.997 2.26854 4.41307 0
M  V30 8562 N 832.17 -0.811516 1.35101 0
M  V30 8563 C 833.1 -1.9378 1.30275 0
M  V30 8564 C 834.081 -1.69165 0.178075 0
M  V30 8565 O 835.266 -1.90599 0.372256 0
M  V30 8566 C 832.396 -3.30439 1.06899 0
M  V30 8567 C 831.35 -3.69523 2.15955 0
M  V30 8568 C 830.676 -5.0429 1.77751 0
M  V30 8569 C 831.976 -3.80419 3.57881 0
M  V30 8570 H 833.67 -1.98075 2.24514 0
M  V30 8571 H 831.216 -0.951586 1.08078 0
M  V30 8572 H 833.169 -4.08828 1.02164 0
M  V30 8573 H 831.893 -3.26473 0.0910462 0
M  V30 8574 H 830.552 -2.93416 2.19778 0
M  V30 8575 H 830.2 -4.96823 0.785876 0
M  V30 8576 H 829.9 -5.31411 2.5075 0
M  V30 8577 H 831.424 -5.85125 1.74533 0
M  V30 8578 H 832.838 -4.49051 3.56407 0
M  V30 8579 H 831.235 -4.19005 4.29598 0
M  V30 8580 H 832.305 -2.82105 3.94391 0
M  V30 8581 N 833.648 -1.19017 -1.03309 0
M  V30 8582 C 834.581 -0.867457 -2.1107 0
M  V30 8583 C 835.559 0.173752 -1.61669 0
M  V30 8584 O 836.743 0.0510077 -1.88431 0
M  V30 8585 C 833.87 -0.297459 -3.37391 0
M  V30 8586 C 832.916 -1.31706 -4.05655 0
M  V30 8587 S 833.749 -2.87591 -4.51721 0
M  V30 8588 C 834.905 -2.32122 -5.81266 0
M  V30 8589 H 835.138 -1.78008 -2.38119 0
M  V30 8590 H 832.671 -1.01686 -1.16187 0
M  V30 8591 H 834.629 0.0248889 -4.10492 0
M  V30 8592 H 833.29 0.5934 -3.08444 0
M  V30 8593 H 832.483 -0.867264 -4.96482 0
M  V30 8594 H 832.085 -1.58603 -3.38705 0
M  V30 8595 H 834.377 -1.70855 -6.55603 0
M  V30 8596 H 835.32 -3.2128 -6.31019 0
M  V30 8597 H 835.728 -1.74858 -5.36736 0
M  V30 8598 N 835.127 1.22348 -0.993418 0
M  V30 8599 C 836.543 1.43222 -0.704238 0
M  V30 8600 C 836.743 1.88009 0.724909 0
M  V30 8601 O 835.799 2.03429 1.49575 0
M  V30 8602 C 837.112 2.47328 -1.71025 0
M  V30 8603 C 838.66 2.61126 -1.72576 0
M  V30 8604 C 839.135 3.68453 -2.72041 0
M  V30 8605 N 840.626 3.75911 -2.70639 0
M  V30 8606 C 841.361 4.58551 -3.44266 0
M  V30 8607 N 840.857 5.45179 -4.27495 0
M  V30 8608 N 842.65 4.52866 -3.32969 0
M  V30 8609 H 834.801 0.915832 -1.91641 0
M  V30 8610 H 837.064 0.464283 -0.826526 0
M  V30 8611 H 836.77 2.21366 -2.73295 0
M  V30 8612 H 836.644 3.45939 -1.50353 0
M  V30 8613 H 839.031 2.86431 -0.710037 0
M  V30 8614 H 839.112 1.62787 -1.97317 0
M  V30 8615 H 838.756 3.43895 -3.73763 0
M  V30 8616 H 838.686 4.66362 -2.4457 0
M  V30 8617 H 841.177 3.14014 -2.10247 0
M  V30 8618 H 841.49 6.0526 -4.80499 0
M  V30 8619 H 839.835 5.44759 -4.31582 0
M  V30 8620 H 843.026 3.84215 -2.67389 0
M  V30 8621 H 843.199 5.17039 -3.90608 0
M  V30 8622 N 836.605 0.766683 1.37694 0
M  V30 8623 C 837.535 0.163432 2.32927 0
M  V30 8624 C 838.516 -0.688861 1.55527 0
M  V30 8625 O 839.701 -0.627363 1.83787 0
M  V30 8626 C 836.831 -0.720416 3.39746 0
M  V30 8627 C 835.785 0.0301718 4.27989 0
M  V30 8628 C 835.111 -0.972788 5.25776 0
M  V30 8629 C 836.411 1.20623 5.0818 0
M  V30 8630 H 838.105 0.958988 2.83626 0
M  V30 8631 H 835.651 0.462601 1.36367 0
M  V30 8632 H 837.604 -1.15221 4.05342 0
M  V30 8633 H 836.328 -1.54844 2.8756 0
M  V30 8634 H 834.987 0.442685 3.63917 0
M  V30 8635 H 834.635 -1.79522 4.69873 0
M  V30 8636 H 834.335 -0.475145 5.85676 0
M  V30 8637 H 835.859 -1.40362 5.94248 0
M  V30 8638 H 837.273 0.851341 5.66944 0
M  V30 8639 H 835.67 1.63561 5.7738 0
M  V30 8640 H 836.74 2.01281 4.41151 0
M  V30 8641 N 838.083 -1.48885 0.516809 0
M  V30 8642 C 839.013 -2.32241 -0.242157 0
M  V30 8643 C 839.994 -1.41258 -0.947633 0
M  V30 8644 O 841.179 -1.70156 -0.935973 0
M  V30 8645 C 838.309 -3.22151 -1.29754 0
M  V30 8646 C 837.263 -4.22053 -0.710995 0
M  V30 8647 C 836.589 -5.01007 -1.86806 0
M  V30 8648 C 837.889 -5.21388 0.30853 0
M  V30 8649 H 839.583 -2.95943 0.453651 0
M  V30 8650 H 837.129 -1.42316 0.219612 0
M  V30 8651 H 839.082 -3.79284 -1.83634 0
M  V30 8652 H 837.806 -2.56423 -2.02274 0
M  V30 8653 H 836.465 -3.66087 -0.193819 0
M  V30 8654 H 836.113 -4.31713 -2.58133 0
M  V30 8655 H 835.813 -5.68615 -1.48159 0
M  V30 8656 H 837.337 -5.60989 -2.4109 0
M  V30 8657 H 838.751 -5.73122 -0.142703 0
M  V30 8658 H 837.148 -5.96975 0.611673 0
M  V30 8659 H 838.218 -4.69329 1.21894 0
M  V30 8660 N 839.561 -0.251338 -1.55583 0
M  V30 8661 C 840.838 0.422729 -1.90977 0
M  V30 8662 C 841.218 1.75534 -1.17265 0
M  V30 8663 O 840.566 2.26632 -0.291588 0
M  V30 8664 C 840.776 0.586448 -3.44037 0
M  V30 8665 C 842.124 0.880294 -4.15375 0
M  V30 8666 O 843.148 0.672148 -3.49801 0
M  V30 8667 O 842.007 1.27694 -5.31372 0
M  V30 8668 H 839.101 0.227622 -0.795058 0
M  V30 8669 H 841.647 -0.295733 -1.67103 0
M  V30 8670 H 840.419 -0.352327 -3.89711 0
M  V30 8671 H 840.042 1.35528 -3.73789 0
M  V30 8672 N 841.039 1.57585 0.0217189 0
M  V30 8673 C 842.455 1.55072 0.377484 0
M  V30 8674 C 842.655 0.978423 1.76151 0
M  V30 8675 O 841.711 0.602688 2.45202 0
M  V30 8676 C 843.024 2.99462 0.272605 0
M  V30 8677 C 844.572 3.11047 0.349148 0
M  V30 8678 C 845.047 4.57182 0.273636 0
M  V30 8679 N 846.538 4.62007 0.332206 0
M  V30 8680 C 847.273 5.72631 0.296782 0
M  V30 8681 N 846.769 6.92472 0.21322 0
M  V30 8682 N 848.562 5.61028 0.347053 0
M  V30 8683 H 840.713 1.93133 -0.883925 0
M  V30 8684 H 842.976 0.886151 -0.33681 0
M  V30 8685 H 842.682 3.45088 -0.67878 0
M  V30 8686 H 842.556 3.61901 1.06335 0
M  V30 8687 H 844.943 2.65364 1.29097 0
M  V30 8688 H 845.024 2.51425 -0.471085 0
M  V30 8689 H 844.668 5.03534 -0.664548 0
M  V30 8690 H 844.598 5.14724 1.11207 0
M  V30 8691 H 847.089 3.75788 0.399003 0
M  V30 8692 H 847.402 7.72563 0.191492 0
M  V30 8693 H 845.747 6.94769 0.179161 0
M  V30 8694 H 848.938 4.66298 0.410378 0
M  V30 8695 H 849.111 6.47229 0.315979 0
M  V30 8696 N 842.517 -0.29412 1.54831 0
M  V30 8697 C 843.933 -0.640167 1.46199 0
M  V30 8698 C 844.133 -1.90426 0.658798 0
M  V30 8699 O 843.189 -2.51932 0.169228 0
M  V30 8700 C 844.502 -0.786763 2.90225 0
M  V30 8701 C 846.05 -0.882201 3.0031 0
M  V30 8702 C 846.525 -1.06074 4.45547 0
M  V30 8703 N 848.016 -1.12678 4.49286 0
M  V30 8704 C 848.751 -1.28334 5.58854 0
M  V30 8705 N 848.247 -1.40845 6.78332 0
M  V30 8706 N 850.04 -1.31277 5.46555 0
M  V30 8707 H 842.191 0.536334 2.05517 0
M  V30 8708 H 844.454 0.178363 0.93107 0
M  V30 8709 H 844.16 0.0713018 3.51628 0
M  V30 8710 H 844.034 -1.67364 3.38037 0
M  V30 8711 H 846.421 -1.73075 2.39017 0
M  V30 8712 H 846.502 0.0288405 2.55784 0
M  V30 8713 H 846.146 -0.216935 5.07437 0
M  V30 8714 H 846.076 -1.98611 4.8771 0
M  V30 8715 H 848.567 -1.04335 3.63212 0
M  V30 8716 H 848.88 -1.52566 7.57591 0
M  V30 8717 H 847.225 -1.37888 6.81184 0
M  V30 8718 H 850.416 -1.2112 4.52159 0
M  V30 8719 H 850.589 -1.43136 6.31994 0
M  V30 8720 N 843.995 -1.47404 -0.557645 0
M  V30 8721 C 845.243 -1.53703 -1.31224 0
M  V30 8722 C 845.564 -0.200742 -1.93964 0
M  V30 8723 O 844.834 0.775253 -1.79907 0
M  V30 8724 H 843.414 -0.566171 -0.487299 0
M  V30 8725 H 846.076 -1.83699 -0.651195 0
M  V30 8726 H 845.172 -2.30335 -2.10599 0
M  V30 8727 N 845.473 0.80434 -1.35529 0
M  V30 8728 C 846.403 1.93086 -1.31301 0
M  V30 8729 C 847.384 1.69068 -0.187044 0
M  V30 8730 O 848.569 1.90399 -0.382359 0
M  V30 8731 C 845.699 3.29867 -1.0865 0
M  V30 8732 C 844.653 3.68373 -2.17911 0
M  V30 8733 C 843.979 5.0334 -1.80423 0
M  V30 8734 C 845.279 3.78516 -3.59893 0
M  V30 8735 H 846.973 1.96882 -2.25561 0
M  V30 8736 H 844.519 0.945841 -1.08581 0
M  V30 8737 H 846.472 4.08281 -1.04331 0
M  V30 8738 H 845.196 3.2642 -0.108359 0
M  V30 8739 H 843.855 2.92247 -2.21331 0
M  V30 8740 H 843.503 4.96399 -0.812213 0
M  V30 8741 H 843.203 5.30074 -2.53565 0
M  V30 8742 H 844.727 5.84191 -1.77633 0
M  V30 8743 H 846.141 4.47155 -3.58783 0
M  V30 8744 H 844.538 4.16721 -4.31814 0
M  V30 8745 H 845.608 2.8001 -3.95882 0
M  V30 8746 N 846.951 1.19563 1.02676 0
M  V30 8747 C 848.228 0.908857 1.73203 0
M  V30 8748 C 848.608 -0.584928 2.02834 0
M  V30 8749 O 847.956 -1.54372 1.68469 0
M  V30 8750 C 848.166 1.77105 3.00724 0
M  V30 8751 C 849.514 2.00667 3.7419 0
M  V30 8752 O 850.538 1.74274 3.10656 0
M  V30 8753 O 849.397 2.4518 4.88415 0
M  V30 8754 H 846.491 0.338909 0.754367 0
M  V30 8755 H 849.037 1.30387 1.08616 0
M  V30 8756 H 847.809 2.78303 2.7507 0
M  V30 8757 H 847.432 1.37546 3.73051 0
M  V30 8758 N 848.429 -1.21819 0.999893 0
M  V30 8759 C 849.339 -2.27691 0.565159 0
M  V30 8760 C 850.355 -1.69587 -0.389398 0
M  V30 8761 O 851.531 -1.99786 -0.254499 0
M  V30 8762 C 848.596 -3.46537 -0.106432 0
M  V30 8763 C 847.657 -4.19932 0.891964 0
M  V30 8764 C 846.89 -5.33103 0.252327 0
M  V30 8765 O 847.113 -5.62398 -0.952103 0
M  V30 8766 O 846.047 -5.94184 0.960698 0
M  V30 8767 H 849.873 -2.67059 1.44613 0
M  V30 8768 H 847.458 -1.28119 0.768499 0
M  V30 8769 H 849.34 -4.18631 -0.482301 0
M  V30 8770 H 848.015 -3.09079 -0.961865 0
M  V30 8771 H 846.922 -3.5008 1.3189 0
M  V30 8772 H 848.255 -4.61287 1.71682 0
M  V30 8773 N 849.908 -0.773975 -1.37286 0
M  V30 8774 C 851.154 -0.339809 -1.99933 0
M  V30 8775 C 851.487 1.0815 -1.61299 0
M  V30 8776 O 850.762 1.74442 -0.860252 0
M  V30 8777 C 851.045 -0.485919 -3.56806 0
M  V30 8778 C 850.898 -1.9498 -4.05343 0
M  V30 8779 C 852.217 0.108461 -4.39966 0
M  V30 8780 H 849.336 -0.124944 -0.726332 0
M  V30 8781 H 851.978 -0.977433 -1.6293 0
M  V30 8782 H 850.128 0.0569023 -3.88458 0
M  V30 8783 H 851.8 -2.5525 -3.84246 0
M  V30 8784 H 850.043 -2.45784 -3.57453 0
M  V30 8785 H 850.714 -2.00308 -5.14374 0
M  V30 8786 H 853.19 -0.354722 -4.14585 0
M  V30 8787 H 852.066 -0.0238926 -5.48895 0
M  V30 8788 H 852.327 1.19901 -4.25531 0
M  V30 8789 N 851.386 1.48609 -0.524698 0
M  V30 8790 C 852.802 1.58557 -0.182199 0
M  V30 8791 C 853.002 1.52732 1.31435 0
M  V30 8792 O 852.058 1.41362 2.0922 0
M  V30 8793 C 853.371 2.90406 -0.78004 0
M  V30 8794 C 854.919 3.03924 -0.748293 0
M  V30 8795 C 855.394 4.38427 -1.32462 0
M  V30 8796 N 856.885 4.4498 -1.28635 0
M  V30 8797 C 857.62 5.47551 -1.70223 0
M  V30 8798 N 857.116 6.57103 -2.19515 0
M  V30 8799 N 858.909 5.38402 -1.61493 0
M  V30 8800 H 851.06 1.50638 -1.4974 0
M  V30 8801 H 853.323 0.714952 -0.622533 0
M  V30 8802 H 853.029 3.00308 -1.83052 0
M  V30 8803 H 852.903 3.76343 -0.254075 0
M  V30 8804 H 855.29 2.93638 0.293407 0
M  V30 8805 H 855.371 2.19611 -1.31167 0
M  V30 8806 H 855.015 4.49466 -2.36522 0
M  V30 8807 H 854.945 5.21418 -0.736967 0
M  V30 8808 H 857.436 3.66393 -0.92545 0
M  V30 8809 H 857.749 7.31499 -2.49257 0
M  V30 8810 H 856.094 6.58081 -2.23506 0
M  V30 8811 H 859.285 4.5171 -1.22785 0
M  V30 8812 H 859.458 6.18208 -1.94225 0
M  V30 8813 N 852.864 0.259585 1.55447 0
M  V30 8814 C 853.797 -0.675542 2.17972 0
M  V30 8815 C 854.775 -1.16362 1.13572 0
M  V30 8816 O 855.959 -1.23944 1.42021 0
M  V30 8817 C 853.086 -1.91952 2.79056 0
M  V30 8818 C 852.132 -1.56824 3.96621 0
M  V30 8819 S 852.965 -0.659846 5.31419 0
M  V30 8820 C 854.121 -1.91255 5.95963 0
M  V30 8821 H 854.354 -0.144236 2.9695 0
M  V30 8822 H 851.887 0.0439448 1.54337 0
M  V30 8823 H 853.845 -2.63362 3.14882 0
M  V30 8824 H 852.506 -2.42196 2 0
M  V30 8825 H 851.699 -2.49348 4.37997 0
M  V30 8826 H 851.301 -0.934472 3.62138 0
M  V30 8827 H 853.593 -2.85834 6.14252 0
M  V30 8828 H 854.536 -1.54207 6.91105 0
M  V30 8829 H 854.944 -2.07042 5.25161 0
M  V30 8830 N 854.342 -1.57594 -0.0133615 0
M  V30 8831 C 855.59 -1.89605 -0.699596 0
M  V30 8832 C 855.911 -0.85926 -1.75048 0
M  V30 8833 O 855.181 0.105112 -1.95618 0
M  V30 8834 H 853.761 -0.699776 -0.261385 0
M  V30 8835 H 856.423 -1.94885 0.0244044 0
M  V30 8836 H 855.519 -2.88962 -1.17928 0
M  V30 8837 N 855.82 0.285905 -1.54985 0
M  V30 8838 C 857.048 1.03776 -1.78992 0
M  V30 8839 C 857.463 1.80402 -0.556814 0
M  V30 8840 O 856.82 1.76242 0.473801 0
M  V30 8841 C 856.871 2.0065 -3.00702 0
M  V30 8842 O 856.592 1.27131 -4.19249 0
M  V30 8843 C 858.093 2.87753 -3.37214 0
M  V30 8844 H 855.313 0.307126 -0.596586 0
M  V30 8845 H 857.857 0.3206 -2.01971 0
M  V30 8846 H 856.012 2.67847 -2.79887 0
M  V30 8847 H 856.426 1.92316 -4.8797 0
M  V30 8848 H 857.9 3.51548 -4.2558 0
M  V30 8849 H 858.377 3.56848 -2.56039 0
M  V30 8850 H 858.983 2.26065 -3.60242 0
M  V30 8851 N 857.298 1.47698 0.54982 0
M  V30 8852 C 858.208 1.63386 1.68351 0
M  V30 8853 C 859.224 0.516583 1.66155 0
M  V30 8854 O 860.4 0.785088 1.85468 0
M  V30 8855 C 857.465 1.6513 3.04849 0
M  V30 8856 C 856.526 2.88338 3.18056 0
M  V30 8857 C 855.759 2.8999 4.48042 0
M  V30 8858 O 855.982 2.00633 5.3395 0
M  V30 8859 O 854.916 3.81938 4.65196 0
M  V30 8860 H 858.742 2.59329 1.58057 0
M  V30 8861 H 856.327 1.30869 0.72067 0
M  V30 8862 H 858.209 1.68913 3.86065 0
M  V30 8863 H 856.884 0.723555 3.1551 0
M  V30 8864 H 855.791 2.90097 2.36209 0
M  V30 8865 H 857.124 3.80431 3.12302 0
M  V30 8866 N 858.776 -0.797141 1.35954 0
M  V30 8867 C 859.739 -1.89104 1.29508 0
M  V30 8868 C 860.739 -1.59495 0.204444 0
M  V30 8869 O 861.929 -1.68051 0.458746 0
M  V30 8870 C 859.061 -3.25726 1.00576 0
M  V30 8871 H 860.254 -1.96237 2.26785 0
M  V30 8872 H 857.807 -0.994075 1.20614 0
M  V30 8873 H 858.542 -3.24279 0.0372519 0
M  V30 8874 H 858.327 -3.48604 1.79492 0
M  V30 8875 H 859.817 -4.0578 0.986508 0
M  V30 8876 N 860.254 -1.20106 -1.0204 0
M  V30 8877 C 861.184 -0.970301 -2.12385 0
M  V30 8878 C 862.165 0.099378 -1.69809 0
M  V30 8879 O 863.35 -0.057365 -1.94115 0
M  V30 8880 C 860.48 -0.517431 -3.43424 0
M  V30 8881 C 859.434 -1.52992 -3.99722 0
M  V30 8882 C 858.76 -0.933817 -5.26483 0
M  V30 8883 C 860.06 -2.91257 -4.33551 0
M  V30 8884 H 861.754 -1.89316 -2.31948 0
M  V30 8885 H 859.3 -0.911655 -1.11467 0
M  V30 8886 H 861.253 -0.343243 -4.2 0
M  V30 8887 H 859.977 0.441049 -3.23608 0
M  V30 8888 H 858.636 -1.6914 -3.2525 0
M  V30 8889 H 858.284 0.0324763 -5.0299 0
M  V30 8890 H 857.984 -1.60999 -5.65113 0
M  V30 8891 H 859.508 -0.770614 -6.05718 0
M  V30 8892 H 860.922 -2.78642 -5.0103 0
M  V30 8893 H 859.319 -3.55745 -4.83286 0
M  V30 8894 H 860.389 -3.43269 -3.42483 0
M  V30 8895 N 861.732 1.21287 -1.00634 0
M  V30 8896 C 862.662 2.25973 -0.588089 0
M  V30 8897 C 863.643 1.65527 0.391764 0
M  V30 8898 O 864.828 1.92179 0.279452 0
M  V30 8899 C 861.958 3.47197 0.0847336 0
M  V30 8900 C 860.912 4.20168 -0.815039 0
M  V30 8901 C 860.238 5.34699 -0.00855393 0
M  V30 8902 C 861.538 4.77416 -2.11828 0
M  V30 8903 H 863.232 2.61212 -1.46317 0
M  V30 8904 H 860.778 1.25563 -0.704985 0
M  V30 8905 H 862.731 4.19602 0.388821 0
M  V30 8906 H 861.455 3.11092 0.994456 0
M  V30 8907 H 860.114 3.49614 -1.10297 0
M  V30 8908 H 859.762 4.94837 0.902499 0
M  V30 8909 H 859.462 5.84449 -0.607664 0
M  V30 8910 H 860.986 6.09914 0.289317 0
M  V30 8911 H 862.4 5.41694 -1.87725 0
M  V30 8912 H 860.797 5.37561 -2.66736 0
M  V30 8913 H 861.867 3.96724 -2.78816 0
M  V30 8914 N 863.21 0.781244 1.36873 0
M  V30 8915 C 864.457 0.349889 1.99454 0
M  V30 8916 C 864.785 -1.07621 1.62013 0
M  V30 8917 O 864.04 -1.75665 0.86258 0
M  V30 8918 C 864.339 0.45146 3.54537 0
M  V30 8919 C 864.005 1.83718 4.11775 0
M  V30 8920 C 862.667 2.21634 4.2712 0
M  V30 8921 C 865.019 2.7449 4.43063 0
M  V30 8922 C 862.347 3.49742 4.7106 0
M  V30 8923 C 864.699 4.02017 4.88431 0
M  V30 8924 C 863.363 4.39967 5.01982 0
M  V30 8925 H 862.633 0.128033 0.729855 0
M  V30 8926 H 865.28 0.997117 1.63493 0
M  V30 8927 H 863.585 -0.279288 3.90803 0
M  V30 8928 H 865.282 0.0988609 4.00878 0
M  V30 8929 H 861.872 1.53251 4.00265 0
M  V30 8930 H 866.056 2.46453 4.30783 0
M  V30 8931 H 861.312 3.79026 4.79738 0
M  V30 8932 H 865.486 4.72475 5.11605 0
M  V30 8933 H 863.113 5.39291 5.35788 0
M  V30 8934 N 864.689 -1.48329 0.532571 0
M  V30 8935 C 865.636 -2.29663 -0.228779 0
M  V30 8936 C 866.606 -1.37529 -0.931401 0
M  V30 8937 O 867.791 -1.66493 -0.931921 0
M  V30 8938 C 864.931 -3.20955 -1.26814 0
M  V30 8939 C 864.044 -4.28168 -0.574099 0
M  V30 8940 C 863.179 -5.06638 -1.59661 0
M  V30 8941 C 862.218 -6.05651 -0.88618 0
M  V30 8942 N 861.355 -6.77169 -1.85436 0
M  V30 8943 H 866.195 -2.94255 0.47098 0
M  V30 8944 H 863.732 -1.45061 0.2441 0
M  V30 8945 H 865.69 -3.72285 -1.88307 0
M  V30 8946 H 864.32 -2.58281 -1.93625 0
M  V30 8947 H 863.372 -3.80085 0.154827 0
M  V30 8948 H 864.684 -4.98797 -0.0163984 0
M  V30 8949 H 863.838 -5.61995 -2.28576 0
M  V30 8950 H 862.577 -4.35854 -2.18821 0
M  V30 8951 H 861.582 -5.49495 -0.182981 0
M  V30 8952 H 862.807 -6.78434 -0.300659 0
M  V30 8953 H 860.753 -6.09134 -2.43499 0
M  V30 8954 H 860.67 -7.43882 -1.34816 0
M  V30 8955 H 861.938 -7.37114 -2.53541 0
M  V30 8956 N 866.167 -0.267825 -1.55308 0
M  V30 8957 C 867.117 0.637168 -2.18916 0
M  V30 8958 C 868.101 1.12381 -1.15149 0
M  V30 8959 O 869.293 1.0701 -1.40989 0
M  V30 8960 C 866.422 1.82423 -2.90821 0
M  V30 8961 C 865.508 1.35512 -4.01867 0
M  V30 8962 N 865.899 0.601644 -5.02209 0
M  V30 8963 C 864.197 1.63868 -4.14805 0
M  V30 8964 C 864.898 0.35596 -5.8061 0
M  V30 8965 N 863.874 0.926271 -5.3565 0
M  V30 8966 H 867.676 0.0535787 -2.93851 0
M  V30 8967 H 865.19 -0.0710577 -1.62244 0
M  V30 8968 H 867.187 2.48379 -3.34834 0
M  V30 8969 H 865.847 2.41185 -2.17394 0
M  V30 8970 H 866.858 0.249693 -5.17298 0
M  V30 8971 H 863.535 2.23618 -3.52564 0
M  V30 8972 H 864.925 -0.246994 -6.71446 0
M  V30 8973 N 867.645 1.57599 0.00500368 0
M  V30 8974 C 868.608 2.07058 0.982832 0
M  V30 8975 C 869.608 0.979045 1.27559 0
M  V30 8976 O 870.798 1.24187 1.22161 0
M  V30 8977 C 867.93 2.50782 2.30914 0
M  V30 8978 H 869.123 2.94718 0.555119 0
M  V30 8979 H 866.676 1.54249 0.25237 0
M  V30 8980 H 867.411 1.66351 2.78385 0
M  V30 8981 H 867.196 3.30495 2.10987 0
M  V30 8982 H 868.686 2.89391 3.0107 0
M  V30 8983 N 869.123 -0.277682 1.55134 0
M  V30 8984 C 870.371 -1.00791 1.75173 0
M  V30 8985 C 870.692 -1.86987 0.553266 0
M  V30 8986 O 869.962 -1.91079 -0.43195 0
M  V30 8987 H 868.542 -0.375129 0.645978 0
M  V30 8988 H 871.204 -0.303041 1.9253 0
M  V30 8989 H 870.3 -1.64756 2.6507 0
M  V30 8990 N 870.601 -1.47988 -0.541979 0
M  V30 8991 C 871.564 -1.61148 -1.62984 0
M  V30 8992 C 872.564 -0.48553 -1.53295 0
M  V30 8993 O 873.754 -0.751012 -1.5718 0
M  V30 8994 C 870.886 -1.57038 -3.02576 0
M  V30 8995 H 872.079 -2.58138 -1.52659 0
M  V30 8996 H 869.632 -1.36405 -0.763106 0
M  V30 8997 H 870.367 -0.614807 -3.18419 0
M  V30 8998 H 870.152 -2.38769 -3.11018 0
M  V30 8999 H 871.642 -1.69416 -3.81691 0
M  V30 9000 N 872.079 0.78992 -1.36375 0
M  V30 9001 C 873.042 1.88414 -1.30509 0
M  V30 9002 C 874.042 1.59384 -0.2129 0
M  V30 9003 O 875.232 1.67805 -0.467651 0
M  V30 9004 C 872.364 3.25188 -1.02302 0
M  V30 9005 H 873.557 1.95031 -2.27822 0
M  V30 9006 H 871.11 0.987664 -1.2114 0
M  V30 9007 H 871.845 3.24254 -0.0544486 0
M  V30 9008 H 871.63 3.47647 -1.81338 0
M  V30 9009 H 873.12 4.05252 -1.00801 0
M  V30 9010 N 873.557 1.20646 1.01402 0
M  V30 9011 C 874.797 1.02951 1.7658 0
M  V30 9012 C 875.161 -0.430522 1.87111 0
M  V30 9013 O 876.362 -0.727727 2.58762 0
M  V30 9014 C 874.633 1.69728 3.14527 0
M  V30 9015 S 876.192 1.6717 4.05709 0
M  V30 9016 H 873.01 0.36911 0.607683 0
M  V30 9017 H 875.612 1.53243 1.21395 0
M  V30 9018 H 874.316 2.75162 3.0449 0
M  V30 9019 H 873.847 1.19578 3.74786 0
M  V30 9020 H 875.862 0.706397 4.91146 0
M  V30 9021 N 875.035 -1.20752 1.01276 0
M  V30 9022 C 876.451 -1.42084 0.726934 0
M  V30 9023 C 876.651 -1.89138 -0.694907 0
M  V30 9024 O 875.707 -2.05783 -1.4632 0
M  V30 9025 C 877.02 -2.44575 1.74938 0
M  V30 9026 C 878.568 -2.58347 1.76708 0
M  V30 9027 C 879.043 -3.64078 2.77869 0
M  V30 9028 N 880.534 -3.71558 2.76585 0
M  V30 9029 C 881.269 -4.53016 3.51517 0
M  V30 9030 N 880.765 -5.38309 4.36114 0
M  V30 9031 N 882.558 -4.47512 3.40132 0
M  V30 9032 H 874.709 -0.885228 1.93074 0
M  V30 9033 H 876.972 -0.451075 0.833808 0
M  V30 9034 H 876.678 -2.1699 2.76782 0
M  V30 9035 H 876.552 -3.43503 1.55838 0
M  V30 9036 H 878.939 -2.85265 0.755516 0
M  V30 9037 H 879.02 -1.59628 1.99882 0
M  V30 9038 H 878.664 -3.37905 3.79187 0
M  V30 9039 H 878.594 -4.62412 2.51958 0
M  V30 9040 H 881.085 -3.10629 2.15216 0
M  V30 9041 H 881.398 -5.9754 4.90068 0
M  V30 9042 H 879.743 -5.37824 4.40194 0
M  V30 9043 H 882.934 -3.79912 2.73467 0
M  V30 9044 H 883.107 -5.10759 3.98784 0
M  V30 9045 N 876.513 -0.788492 -1.36457 0
M  V30 9046 C 877.476 -0.192209 -2.28393 0
M  V30 9047 C 878.476 0.609916 -1.48784 0
M  V30 9048 O 879.666 0.431046 -1.68783 0
M  V30 9049 C 876.798 0.734096 -3.32902 0
M  V30 9050 H 877.991 -1.00284 -2.82636 0
M  V30 9051 H 875.544 -0.557852 -1.46006 0
M  V30 9052 H 876.279 1.5691 -2.83813 0
M  V30 9053 H 876.064 0.160875 -3.9177 0
M  V30 9054 H 877.554 1.1462 -4.01562 0
M  V30 9055 N 877.991 1.48044 -0.54043 0
M  V30 9056 C 878.921 2.32597 0.205178 0
M  V30 9057 C 879.902 1.42748 0.925041 0
M  V30 9058 O 881.087 1.71624 0.908784 0
M  V30 9059 C 878.217 3.24175 1.24612 0
M  V30 9060 C 877.171 4.23131 0.64376 0
M  V30 9061 C 876.497 5.03915 1.78812 0
M  V30 9062 C 877.797 5.20831 -0.39144 0
M  V30 9063 H 879.491 2.95184 -0.500676 0
M  V30 9064 H 877.037 1.41948 -0.242225 0
M  V30 9065 H 878.99 3.82158 1.77576 0
M  V30 9066 H 877.714 2.59608 1.98169 0
M  V30 9067 H 876.373 3.66349 0.135554 0
M  V30 9068 H 876.021 4.35765 2.51232 0
M  V30 9069 H 875.721 5.709 1.39094 0
M  V30 9070 H 877.245 5.64753 2.32134 0
M  V30 9071 H 878.659 5.73277 0.0515064 0
M  V30 9072 H 877.056 5.95926 -0.706569 0
M  V30 9073 H 878.126 4.6733 -1.29345 0
M  V30 9074 N 879.47 0.276058 1.55163 0
M  V30 9075 C 880.38 -0.621066 2.2623 0
M  V30 9076 C 881.396 -1.16931 1.28853 0
M  V30 9077 O 882.572 -1.1994 1.61791 0
M  V30 9078 C 879.637 -1.78824 2.97023 0
M  V30 9079 C 878.698 -1.27657 4.09881 0
M  V30 9080 C 877.931 -2.38812 4.77289 0
M  V30 9081 O 878.154 -3.58188 4.43912 0
M  V30 9082 O 877.088 -2.06915 5.65217 0
M  V30 9083 H 880.914 -0.0453346 3.03666 0
M  V30 9084 H 878.499 0.0434275 1.49337 0
M  V30 9085 H 880.381 -2.46877 3.41511 0
M  V30 9086 H 879.056 -2.35104 2.22503 0
M  V30 9087 H 877.963 -0.56248 3.69847 0
M  V30 9088 H 879.296 -0.759509 4.86305 0
M  V30 9089 N 880.948 -1.576 0.00335426 0
M  V30 9090 C 881.896 -2.09759 -1.00517 0
M  V30 9091 C 882.89 -1.01833 -1.35375 0
M  V30 9092 O 884.096 -1.20294 -1.339 0
M  V30 9093 H 880.471 -0.669821 -0.341825 0
M  V30 9094 H 882.442 -2.93478 -0.539718 0
M  V30 9095 C 881.191 -2.6189 -2.28711 0
M  V30 9096 H 880.514 -3.44571 -2.02758 0
M  V30 9097 H 881.954 -3.02061 -2.97548 0
M  V30 9098 C 880.413 -1.53455 -2.99922 0
M  V30 9099 O 880.943 -0.919402 -3.91037 0
M  V30 9100 N 879.149 -1.2612 -2.61806 0
M  V30 9101 H 878.696 -1.76329 -1.87792 0
M  V30 9102 H 878.654 -0.537872 -3.09765 0
M  V30 9103 N 882.426 0.269451 -1.5528 0
M  V30 9104 C 883.674 0.998604 -1.75705 0
M  V30 9105 C 883.995 1.86691 -0.563175 0
M  V30 9106 O 883.265 1.91305 0.421811 0
M  V30 9107 H 881.845 0.371698 -0.647958 0
M  V30 9108 H 884.507 0.292826 -1.92688 0
M  V30 9109 H 883.603 1.63348 -2.6594 0
M  V30 9110 N 883.904 1.48273 0.534124 0
M  V30 9111 C 884.851 1.62487 1.6391 0
M  V30 9112 C 885.821 0.467062 1.59398 0
M  V30 9113 O 887.006 0.690029 1.77885 0
M  V30 9114 C 884.146 1.66671 3.02183 0
M  V30 9115 C 883.259 2.9353 3.16961 0
M  V30 9116 C 882.394 2.88902 4.45768 0
M  V30 9117 C 881.433 4.10483 4.54059 0
M  V30 9118 N 880.57 4.03956 5.74251 0
M  V30 9119 H 885.41 2.56851 1.51101 0
M  V30 9120 H 882.947 1.27381 0.735704 0
M  V30 9121 H 884.905 1.67079 3.82283 0
M  V30 9122 H 883.535 0.758011 3.13774 0
M  V30 9123 H 882.587 3.02886 2.3014 0
M  V30 9124 H 883.899 3.83501 3.18949 0
M  V30 9125 H 883.053 2.87688 5.34154 0
M  V30 9126 H 881.792 1.96652 4.46295 0
M  V30 9127 H 880.797 4.11977 3.64081 0
M  V30 9128 H 882.022 5.03887 4.55274 0
M  V30 9129 H 879.968 3.14525 5.75682 0
M  V30 9130 H 879.885 4.87628 5.77715 0
M  V30 9131 H 881.153 4.06795 6.64935 0
M  V30 9132 N 885.382 -0.782676 1.36792 0
M  V30 9133 C 886.312 -1.90973 1.34356 0
M  V30 9134 C 887.293 -1.6875 0.213917 0
M  V30 9135 O 888.478 -1.89766 0.412601 0
M  V30 9136 C 885.608 -3.28097 1.13884 0
M  V30 9137 C 884.562 -3.6486 2.23744 0
M  V30 9138 C 883.888 -5.00406 1.88408 0
M  V30 9139 C 885.188 -3.72742 3.6587 0
M  V30 9140 H 886.882 -1.93268 2.28665 0
M  V30 9141 H 884.428 -0.928447 1.10072 0
M  V30 9142 H 886.381 -4.06569 1.10813 0
M  V30 9143 H 885.105 -3.26206 0.160275 0
M  V30 9144 H 883.764 -2.88689 2.25952 0
M  V30 9145 H 883.412 -4.95044 0.891083 0
M  V30 9146 H 883.112 -5.25973 2.61966 0
M  V30 9147 H 884.636 -5.81291 1.86905 0
M  V30 9148 H 886.05 -4.4139 3.65852 0
M  V30 9149 H 884.447 -4.09798 4.38389 0
M  V30 9150 H 885.517 -2.73676 4.00287 0
M  V30 9151 N 886.86 -1.21182 -1.00761 0
M  V30 9152 C 888.088 -1.05335 -1.78079 0
M  V30 9153 C 888.503 0.396988 -1.84579 0
M  V30 9154 O 887.86 1.27548 -1.30529 0
M  V30 9155 C 887.911 -1.64089 -3.22113 0
M  V30 9156 O 887.632 -3.03448 -3.15992 0
M  V30 9157 C 889.133 -1.53318 -4.15943 0
M  V30 9158 H 886.353 -0.37005 -0.559736 0
M  V30 9159 H 888.897 -1.60463 -1.26775 0
M  V30 9160 H 887.052 -1.13059 -3.70535 0
M  V30 9161 H 887.466 -3.31492 -4.06465 0
M  V30 9162 H 888.94 -1.99174 -5.14814 0
M  V30 9163 H 889.417 -0.487166 -4.3649 0
M  V30 9164 H 890.023 -2.03582 -3.73409 0
M  V30 9165 N 888.338 1.20213 -1.01915 0
M  V30 9166 C 889.288 2.20957 -0.562327 0
M  V30 9167 C 890.272 1.56258 0.383704 0
M  V30 9168 O 891.464 1.75794 0.206255 0
M  V30 9169 C 888.593 3.43167 0.0954035 0
M  V30 9170 C 887.679 4.15028 -0.872487 0
M  V30 9171 N 888.07 4.63231 -2.03103 0
M  V30 9172 C 886.368 4.4057 -0.69385 0
M  V30 9173 C 887.069 5.18307 -2.64069 0
M  V30 9174 N 886.045 5.08522 -1.9211 0
M  V30 9175 H 889.847 2.55894 -1.44553 0
M  V30 9176 H 887.361 1.36178 -0.884831 0
M  V30 9177 H 889.358 4.14569 0.440232 0
M  V30 9178 H 888.018 3.09734 0.974413 0
M  V30 9179 H 889.029 4.58365 -2.41086 0
M  V30 9180 H 885.706 4.17276 0.136889 0
M  V30 9181 H 887.096 5.65961 -3.6213 0
M  V30 9182 N 889.816 0.795718 1.36037 0
M  V30 9183 C 891.056 0.376514 2.00902 0
M  V30 9184 C 891.42 -1.03405 1.61776 0
M  V30 9185 O 892.621 -1.55468 2.19279 0
M  V30 9186 C 890.892 0.542086 3.53265 0
M  V30 9187 S 892.451 0.211694 4.38289 0
M  V30 9188 H 889.269 0.143527 0.696363 0
M  V30 9189 H 891.871 1.03559 1.65819 0
M  V30 9190 H 890.575 1.56888 3.79229 0
M  V30 9191 H 890.106 -0.132698 3.93176 0
M  V30 9192 H 892.121 -0.98452 4.86335 0
M  V30 9193 N 891.294 -1.47756 0.548274 0
M  V30 9194 C 892.519 -2.07387 0.023475 0
M  V30 9195 C 892.944 -1.39956 -1.25674 0
M  V30 9196 O 892.302 -0.471543 -1.7506 0
M  V30 9197 C 892.35 -3.60224 -0.164669 0
M  V30 9198 O 891.454 -3.93653 -1.22928 0
M  V30 9199 H 890.795 -0.662312 0.0473156 0
M  V30 9200 H 893.325 -1.89905 0.761409 0
M  V30 9201 H 893.335 -4.06211 -0.38166 0
M  V30 9202 H 892.01 -4.08702 0.770425 0
M  V30 9203 H 890.587 -3.59422 -0.993495 0
M  V30 9204 N 892.772 -0.284283 -1.55015 0
M  V30 9205 C 894.049 0.382125 -1.91831 0
M  V30 9206 C 894.429 1.73007 -1.20962 0
M  V30 9207 O 893.777 2.25962 -0.339594 0
M  V30 9208 C 893.987 0.513341 -3.45204 0
M  V30 9209 C 895.335 0.791989 -4.17148 0
M  V30 9210 O 896.359 0.597799 -3.51148 0
M  V30 9211 O 895.218 1.16394 -5.33961 0
M  V30 9212 H 892.312 0.210707 -0.799707 0
M  V30 9213 H 894.858 -0.331111 -1.66438 0
M  V30 9214 H 893.63 -0.434911 -3.88876 0
M  V30 9215 H 893.253 1.27569 -3.76579 0
M  V30 9216 N 894.251 1.57596 -0.0117121 0
M  V30 9217 C 895.214 2.08089 0.960816 0
M  V30 9218 C 896.214 0.992519 1.26514 0
M  V30 9219 O 897.404 1.25475 1.20837 0
M  V30 9220 C 894.536 2.53217 2.28241 0
M  V30 9221 H 895.729 2.9529 0.523829 0
M  V30 9222 H 893.282 1.54508 0.235995 0
M  V30 9223 H 894.017 1.69294 2.76604 0
M  V30 9224 H 893.802 3.32714 2.0747 0
M  V30 9225 H 895.292 2.92568 2.97983 0
M  V30 9226 N 895.729 -0.261212 1.5542 0
M  V30 9227 C 896.969 -0.998748 1.78338 0
M  V30 9228 C 897.333 -1.83064 0.578914 0
M  V30 9229 O 898.534 -2.59884 0.686575 0
M  V30 9230 C 896.805 -1.84828 3.05898 0
M  V30 9231 S 898.364 -2.64686 3.49981 0
M  V30 9232 H 895.182 -0.33619 0.626496 0
M  V30 9233 H 897.784 -0.26799 1.93655 0
M  V30 9234 H 896.488 -1.22658 3.91642 0
M  V30 9235 H 896.019 -2.62203 2.9328 0
M  V30 9236 H 898.034 -3.87299 3.10184 0
M  V30 9237 N 897.207 -1.48554 -0.526253 0
M  V30 9238 C 898.137 -1.66252 -1.63959 0
M  V30 9239 C 899.118 -0.511351 -1.62232 0
M  V30 9240 O 900.303 -0.744322 -1.7937 0
M  V30 9241 C 897.433 -1.70556 -3.02536 0
M  V30 9242 C 896.387 -2.8521 -3.19123 0
M  V30 9243 C 895.713 -2.74606 -4.58798 0
M  V30 9244 C 897.013 -4.26463 -3.0154 0
M  V30 9245 H 898.707 -2.59459 -1.49404 0
M  V30 9246 H 896.253 -1.24862 -0.717326 0
M  V30 9247 H 898.206 -1.81524 -3.80298 0
M  V30 9248 H 896.93 -0.739297 -3.18123 0
M  V30 9249 H 895.589 -2.73802 -2.43779 0
M  V30 9250 H 895.237 -1.75941 -4.71226 0
M  V30 9251 H 894.937 -3.51544 -4.70841 0
M  V30 9252 H 896.461 -2.87548 -5.38655 0
M  V30 9253 H 897.875 -4.38685 -3.69091 0
M  V30 9254 H 896.272 -5.04428 -3.25073 0
M  V30 9255 H 897.342 -4.42667 -1.97925 0
M  V30 9256 N 898.685 0.775411 -1.37205 0
M  V30 9257 C 899.615 1.90258 -1.35367 0
M  V30 9258 C 900.596 1.68634 -0.222864 0
M  V30 9259 O 901.781 1.89545 -0.422659 0
M  V30 9260 C 898.911 3.27488 -1.15623 0
M  V30 9261 C 897.865 3.63668 -2.25676 0
M  V30 9262 C 897.191 4.994 -1.91059 0
M  V30 9263 C 898.491 3.70797 -3.67841 0
M  V30 9264 H 900.185 1.92053 -2.29687 0
M  V30 9265 H 897.731 0.922597 -1.10563 0
M  V30 9266 H 899.684 4.05976 -1.12968 0
M  V30 9267 H 898.408 3.26117 -0.177573 0
M  V30 9268 H 897.067 2.87486 -2.2748 0
M  V30 9269 H 896.715 4.94565 -0.917324 0
M  V30 9270 H 896.415 5.24576 -2.64751 0
M  V30 9271 H 897.939 5.80291 -1.89985 0
M  V30 9272 H 899.353 4.39444 -3.68187 0
M  V30 9273 H 897.75 4.07468 -4.40556 0
M  V30 9274 H 898.82 2.71549 -4.01732 0
M  V30 9275 N 900.163 1.21714 1.00117 0
M  V30 9276 C 901.412 1.03087 1.73367 0
M  V30 9277 C 901.725 -0.435532 1.90689 0
M  V30 9278 O 902.931 -0.741291 2.61184 0
M  V30 9279 C 901.387 1.79593 3.11888 0
M  V30 9280 C 900.995 3.30428 3.02525 0
M  V30 9281 C 902.739 1.69386 3.89241 0
M  V30 9282 C 900.646 3.99408 4.3615 0
M  V30 9283 H 899.576 0.382117 0.650002 0
M  V30 9284 H 902.227 1.45486 1.11831 0
M  V30 9285 H 900.609 1.29988 3.74058 0
M  V30 9286 H 901.783 3.87364 2.49571 0
M  V30 9287 H 900.098 3.4122 2.38659 0
M  V30 9288 H 902.695 2.18251 4.8813 0
M  V30 9289 H 903.038 0.652773 4.1115 0
M  V30 9290 H 903.571 2.16489 3.33733 0
M  V30 9291 H 900.31 5.03735 4.19442 0
M  V30 9292 H 899.83 3.47261 4.8905 0
M  V30 9293 H 901.509 4.04537 5.04934 0
M  V30 9294 N 901.641 -1.19671 1.02551 0
M  V30 9295 C 902.571 -2.25009 0.623965 0
M  V30 9296 C 903.552 -1.66129 -0.36538 0
M  V30 9297 O 904.737 -1.92599 -0.248842 0
M  V30 9298 C 901.867 -3.47287 -0.0294869 0
M  V30 9299 C 900.821 -4.18818 0.881781 0
M  V30 9300 C 900.147 -5.34618 0.0936189 0
M  V30 9301 C 901.447 -4.73986 2.19396 0
M  V30 9302 H 903.141 -2.58851 1.50454 0
M  V30 9303 H 900.687 -1.24425 0.724872 0
M  V30 9304 H 902.64 -4.20168 -0.322016 0
M  V30 9305 H 901.364 -3.12635 -0.944838 0
M  V30 9306 H 900.023 -3.47815 1.15845 0
M  V30 9307 H 899.671 -4.9621 -0.823661 0
M  V30 9308 H 899.371 -5.83409 0.700568 0
M  V30 9309 H 900.895 -6.10297 -0.192249 0
M  V30 9310 H 902.309 -5.38639 1.96319 0
M  V30 9311 H 900.706 -5.3325 2.75254 0
M  V30 9312 H 901.776 -3.92238 2.85092 0
M  V30 9313 N 903.119 -0.802921 -1.35613 0
M  V30 9314 C 904.082 -0.216422 -2.28176 0
M  V30 9315 C 905.082 0.594101 -1.49422 0
M  V30 9316 O 906.272 0.41312 -1.6923 0
M  V30 9317 C 903.404 0.698746 -3.33662 0
M  V30 9318 H 904.597 -1.03276 -2.81557 0
M  V30 9319 H 902.15 -0.573307 -1.45406 0
M  V30 9320 H 902.885 1.53891 -2.85461 0
M  V30 9321 H 902.67 0.119314 -3.91918 0
M  V30 9322 H 904.16 1.10354 -4.02755 0
M  V30 9323 N 904.597 1.47463 -0.556102 0
M  V30 9324 C 905.56 2.28478 0.181743 0
M  V30 9325 C 906.56 1.36886 0.843738 0
M  V30 9326 O 907.75 1.59527 0.69977 0
M  V30 9327 C 904.882 3.16534 1.26566 0
M  V30 9328 H 906.075 2.95182 -0.529892 0
M  V30 9329 H 903.628 1.53134 -0.313005 0
M  V30 9330 H 904.363 2.5452 2.00973 0
M  V30 9331 H 904.148 3.83939 0.795798 0
M  V30 9332 H 905.638 3.77579 1.78393 0
M  V30 9333 N 906.075 0.2925 1.54862 0
M  V30 9334 C 907.007 -0.620889 2.2063 0
M  V30 9335 C 908.02 -1.10412 1.19637 0
M  V30 9336 O 909.209 -1.02304 1.46274 0
M  V30 9337 C 906.309 -1.861 2.83232 0
M  V30 9338 C 905.482 -1.52168 4.10078 0
M  V30 9339 C 904.541 -2.61605 4.56562 0
M  V30 9340 O 903.567 -2.27056 5.21952 0
M  V30 9341 N 904.769 -3.9199 4.28163 0
M  V30 9342 H 907.534 -0.0579028 2.99644 0
M  V30 9343 H 905.095 0.114333 1.61496 0
M  V30 9344 H 907.087 -2.58642 3.11266 0
M  V30 9345 H 905.657 -2.33259 2.08108 0
M  V30 9346 H 904.877 -0.629283 3.89145 0
M  V30 9347 H 906.165 -1.27023 4.92689 0
M  V30 9348 H 905.563 -4.22872 3.7576 0
M  V30 9349 H 904.12 -4.60857 4.60928 0
M  V30 9350 N 907.553 -1.57587 0.0200696 0
M  V30 9351 C 908.486 -2.05157 -0.999295 0
M  V30 9352 C 909.464 -0.945466 -1.32286 0
M  V30 9353 O 910.648 -1.21512 -1.44108 0
M  V30 9354 C 907.775 -2.46604 -2.32173 0
M  V30 9355 C 906.821 -3.68146 -2.15339 0
M  V30 9356 S 907.654 -5.15194 -1.46065 0
M  V30 9357 C 908.81 -5.59929 -2.79697 0
M  V30 9358 H 909.043 -2.91299 -0.59433 0
M  V30 9359 H 906.576 -1.53209 -0.191372 0
M  V30 9360 H 908.534 -2.7115 -3.08201 0
M  V30 9361 H 907.195 -1.60825 -2.69804 0
M  V30 9362 H 906.388 -3.94963 -3.13082 0
M  V30 9363 H 905.99 -3.43705 -1.47454 0
M  V30 9364 H 908.282 -5.63615 -3.75957 0
M  V30 9365 H 909.225 -6.59599 -2.57555 0
M  V30 9366 H 909.633 -4.87549 -2.84528 0
M  V30 9367 N 909.032 0.252966 -1.55557 0
M  V30 9368 C 910.257 1.0038 -1.8149 0
M  V30 9369 C 910.682 1.78397 -0.596318 0
M  V30 9370 O 910.04 1.7551 0.454535 0
M  V30 9371 C 910.088 1.9222 -3.05096 0
M  V30 9372 O 909.192 3.01302 -2.81587 0
M  V30 9373 H 908.533 0.285949 -0.599274 0
M  V30 9374 H 911.063 0.275795 -2.02733 0
M  V30 9375 H 911.073 2.338 -3.34368 0
M  V30 9376 H 909.748 1.34852 -3.93431 0
M  V30 9377 H 908.325 2.63894 -2.63466 0
M  V30 9378 N 910.51 1.48831 0.518367 0
M  V30 9379 C 911.74 1.60886 1.29612 0
M  V30 9380 C 912.148 0.272713 1.87224 0
M  V30 9381 O 911.491 -0.749653 1.67708 0
M  V30 9382 C 911.553 2.60541 2.47707 0
M  V30 9383 C 911.217 4.05324 2.11095 0
M  V30 9384 C 912.214 4.92658 1.66084 0
M  V30 9385 C 909.899 4.50942 2.21262 0
M  V30 9386 C 911.893 6.23641 1.3172 0
M  V30 9387 C 909.58 5.81943 1.8651 0
M  V30 9388 C 910.578 6.68116 1.41812 0
M  V30 9389 O 910.266 7.96677 1.07522 0
M  V30 9390 H 909.998 0.544968 0.399982 0
M  V30 9391 H 912.552 1.95474 0.630799 0
M  V30 9392 H 910.782 2.21098 3.17258 0
M  V30 9393 H 912.471 2.62308 3.09757 0
M  V30 9394 H 913.237 4.58649 1.5769 0
M  V30 9395 H 909.116 3.84048 2.55007 0
M  V30 9396 H 912.66 6.90857 0.967598 0
M  V30 9397 H 908.557 6.15484 1.94549 0
M  V30 9398 H 909.325 8.09534 1.2082 0
M  V30 9399 N 911.988 -0.768124 1.37614 0
M  V30 9400 C 913.236 -1.52379 1.3276 0
M  V30 9401 C 913.557 -1.94809 -0.0863564 0
M  V30 9402 O 912.827 -1.66568 -1.03112 0
M  V30 9403 H 911.407 -0.565179 0.488448 0
M  V30 9404 H 914.069 -0.913974 1.72141 0
M  V30 9405 H 913.165 -2.4215 1.96901 0
M  V30 9406 N 913.466 -1.22244 -0.994698 0
M  V30 9407 C 914.429 -0.992308 -2.06606 0
M  V30 9408 C 915.429 0.0405872 -1.60749 0
M  V30 9409 O 916.619 -0.197737 -1.73074 0
M  V30 9410 C 913.751 -0.498499 -3.37236 0
M  V30 9411 H 914.944 -1.9429 -2.28455 0
M  V30 9412 H 912.497 -1.04087 -1.166 0
M  V30 9413 H 913.232 0.456531 -3.21071 0
M  V30 9414 H 913.017 -1.24367 -3.71854 0
M  V30 9415 H 914.507 -0.35768 -4.16065 0
M  V30 9416 N 914.944 1.19125 -1.03184 0
M  V30 9417 C 916.184 1.90582 -0.738785 0
M  V30 9418 C 916.548 1.78004 0.719627 0
M  V30 9419 O 917.749 2.44084 1.12589 0
M  V30 9420 C 916.02 3.37319 -1.18114 0
M  V30 9421 S 917.579 4.26962 -1.01238 0
M  V30 9422 H 914.397 0.6582 -0.268875 0
M  V30 9423 H 916.999 1.43999 -1.32229 0
M  V30 9424 H 915.703 3.43999 -2.23814 0
M  V30 9425 H 915.234 3.88935 -0.591051 0
M  V30 9426 H 917.249 4.96143 0.0753558 0
M  V30 9427 N 916.422 0.810101 1.35185 0
M  V30 9428 C 917.352 0.237453 2.32289 0
M  V30 9429 C 918.333 -0.639032 1.5764 0
M  V30 9430 O 919.518 -0.568575 1.8569 0
M  V30 9431 C 916.648 -0.611964 3.41866 0
M  V30 9432 C 915.602 0.166318 4.27677 0
M  V30 9433 C 914.928 -0.805024 5.28605 0
M  V30 9434 C 916.228 1.36729 5.04086 0
M  V30 9435 H 917.922 1.04874 2.80432 0
M  V30 9436 H 915.468 0.505751 1.34826 0
M  V30 9437 H 917.421 -1.02267 4.08802 0
M  V30 9438 H 916.145 -1.45617 2.92341 0
M  V30 9439 H 914.804 0.558238 3.62325 0
M  V30 9440 H 914.452 -1.64483 4.75347 0
M  V30 9441 H 914.152 -0.288577 5.86891 0
M  V30 9442 H 915.676 -1.21386 5.98413 0
M  V30 9443 H 917.09 1.03128 5.63948 0
M  V30 9444 H 915.487 1.81848 5.71884 0
M  V30 9445 H 916.557 2.15214 4.34524 0
M  V30 9446 N 917.9 -1.47166 0.563914 0
M  V30 9447 C 918.83 -2.32894 -0.168148 0
M  V30 9448 C 919.811 -1.44202 -0.902214 0
M  V30 9449 O 920.996 -1.73048 -0.881365 0
M  V30 9450 C 918.126 -3.26116 -1.19439 0
M  V30 9451 C 917.08 -4.24101 -0.576363 0
M  V30 9452 C 916.406 -5.06696 -1.70772 0
M  V30 9453 C 917.706 -5.20142 0.47425 0
M  V30 9454 H 919.4 -2.9435 0.547573 0
M  V30 9455 H 916.946 -1.41545 0.264778 0
M  V30 9456 H 918.899 -3.84935 -1.71474 0
M  V30 9457 H 917.623 -2.62728 -1.94014 0
M  V30 9458 H 916.282 -3.66519 -0.0772534 0
M  V30 9459 H 915.93 -4.39707 -2.44268 0
M  V30 9460 H 915.63 -5.7304 -1.29994 0
M  V30 9461 H 917.154 -5.68375 -2.2312 0
M  V30 9462 H 918.568 -5.73286 0.0397035 0
M  V30 9463 H 916.965 -5.94726 0.801287 0
M  V30 9464 H 918.035 -4.65214 1.36764 0
M  V30 9465 N 919.378 -0.300708 -1.54705 0
M  V30 9466 C 920.626 0.308044 -1.99739 0
M  V30 9467 C 920.947 1.54433 -1.19061 0
M  V30 9468 O 920.217 1.93794 -0.286507 0
M  V30 9469 H 918.797 0.116811 -0.73781 0
M  V30 9470 H 921.459 -0.41197 -1.90496 0
M  V30 9471 H 920.555 0.580287 -3.06658 0
M  V30 9472 N 920.856 1.57574 -0.0284266 0
M  V30 9473 C 921.766 2.13637 0.96936 0
M  V30 9474 C 922.782 1.08845 1.35752 0
M  V30 9475 O 923.958 1.40899 1.43908 0
M  V30 9476 C 921.023 2.65179 2.2334 0
M  V30 9477 C 920.084 3.84683 1.90572 0
M  V30 9478 C 919.317 4.33758 3.1095 0
M  V30 9479 O 919.54 3.82009 4.23586 0
M  V30 9480 O 918.474 5.2561 2.93288 0
M  V30 9481 H 922.3 2.99169 0.52267 0
M  V30 9482 H 919.885 1.48159 0.192135 0
M  V30 9483 H 921.767 2.98402 2.97547 0
M  V30 9484 H 920.442 1.82731 2.67191 0
M  V30 9485 H 919.349 3.56386 1.13753 0
M  V30 9486 H 920.682 4.68292 1.51538 0
M  V30 9487 N 922.334 -0.244713 1.55689 0
M  V30 9488 C 923.284 -1.30596 1.86892 0
M  V30 9489 C 924.268 -1.43388 0.729972 0
M  V30 9490 O 925.46 -1.46593 0.99194 0
M  V30 9491 C 922.589 -2.66099 2.16902 0
M  V30 9492 C 921.675 -2.57302 3.37129 0
M  V30 9493 N 922.066 -2.18139 4.56343 0
M  V30 9494 C 920.364 -2.88311 3.40283 0
M  V30 9495 C 921.065 -2.20028 5.38482 0
M  V30 9496 N 920.041 -2.59616 4.77599 0
M  V30 9497 H 923.843 -0.993699 2.76591 0
M  V30 9498 H 921.357 -0.453334 1.55944 0
M  V30 9499 H 923.354 -3.4269 2.37422 0
M  V30 9500 H 922.014 -2.9819 1.28502 0
M  V30 9501 H 923.025 -1.89647 4.81928 0
M  V30 9502 H 919.702 -3.24928 2.62161 0
M  V30 9503 H 921.092 -1.9207 6.43862 0
M  V30 9504 N 923.813 -1.49104 -0.510467 0
M  V30 9505 C 925.061 -1.578 -1.26268 0
M  V30 9506 C 925.382 -0.262349 -1.93227 0
M  V30 9507 O 924.652 0.717624 -1.82283 0
M  V30 9508 H 923.232 -0.581387 -0.46904 0
M  V30 9509 H 925.894 -1.85678 -0.592423 0
M  V30 9510 H 924.99 -2.36919 -2.03165 0
M  V30 9511 N 925.291 0.760815 -1.38019 0
M  V30 9512 C 926.254 1.85604 -1.34476 0
M  V30 9513 C 927.254 1.58897 -0.24666 0
M  V30 9514 O 928.444 1.66776 -0.50314 0
M  V30 9515 C 925.576 3.22945 -1.09176 0
M  V30 9516 H 926.769 1.90155 -2.31908 0
M  V30 9517 H 924.322 0.961746 -1.23208 0
M  V30 9518 H 925.057 3.24066 -0.123216 0
M  V30 9519 H 924.842 3.43723 -1.88672 0
M  V30 9520 H 926.332 4.03022 -1.09375 0
M  V30 9521 N 926.769 1.22769 0.988202 0
M  V30 9522 C 927.732 1.00325 2.06076 0
M  V30 9523 C 928.732 -0.0320618 1.60768 0
M  V30 9524 O 929.922 0.206912 1.72967 0
M  V30 9525 C 927.054 0.516376 3.36966 0
M  V30 9526 H 928.247 1.95499 2.27421 0
M  V30 9527 H 925.8 1.04704 1.16047 0
M  V30 9528 H 926.535 -0.439498 3.21308 0
M  V30 9529 H 926.32 1.26337 3.71189 0
M  V30 9530 H 927.81 0.37974 4.1587 0
M  V30 9531 N 928.247 -1.18576 1.03814 0
M  V30 9532 C 929.177 -2.24334 0.647795 0
M  V30 9533 C 930.158 -1.66508 -0.34774 0
M  V30 9534 O 931.343 -1.92852 -0.228401 0
M  V30 9535 C 928.473 -3.47299 0.00734922 0
M  V30 9536 C 927.427 -4.17859 0.926152 0
M  V30 9537 C 926.753 -5.34489 0.150317 0
M  V30 9538 C 928.053 -4.71632 2.24411 0
M  V30 9539 H 929.747 -2.57241 1.53191 0
M  V30 9540 H 927.293 -1.23649 0.738028 0
M  V30 9541 H 929.246 -4.20486 -0.277434 0
M  V30 9542 H 927.97 -3.13619 -0.911626 0
M  V30 9543 H 926.629 -3.46567 1.19528 0
M  V30 9544 H 926.277 -4.97056 -0.770985 0
M  V30 9545 H 925.977 -5.82633 0.762407 0
M  V30 9546 H 927.501 -6.10467 -0.127508 0
M  V30 9547 H 928.915 -5.36526 2.02021 0
M  V30 9548 H 927.312 -5.303 2.80894 0
M  V30 9549 H 928.382 -3.89192 2.89236 0
M  V30 9550 N 929.725 -0.817259 -1.34754 0
M  V30 9551 C 930.971 -0.403244 -1.98751 0
M  V30 9552 C 931.304 1.02963 -1.64658 0
M  V30 9553 O 930.579 1.71617 -0.915314 0
M  V30 9554 C 930.862 -0.599188 -3.5508 0
M  V30 9555 C 930.715 -2.07777 -3.98934 0
M  V30 9556 C 932.034 -0.0315656 -4.40089 0
M  V30 9557 H 929.153 -0.147988 -0.721989 0
M  V30 9558 H 931.795 -1.02877 -1.59738 0
M  V30 9559 H 929.945 -0.0667116 -3.88443 0
M  V30 9560 H 931.617 -2.67345 -3.75931 0
M  V30 9561 H 929.86 -2.57031 -3.49453 0
M  V30 9562 H 930.531 -2.16571 -5.07741 0
M  V30 9563 H 933.007 -0.48644 -4.13247 0
M  V30 9564 H 931.883 -0.198507 -5.48541 0
M  V30 9565 H 932.144 1.06302 -4.2913 0
M  V30 9566 N 931.203 1.46865 -0.571711 0
M  V30 9567 C 932.428 2.07323 -0.0564655 0
M  V30 9568 C 932.853 1.41938 1.23431 0
M  V30 9569 O 932.211 0.499334 1.74288 0
M  V30 9570 C 932.259 3.6044 0.107339 0
M  V30 9571 O 931.363 3.95558 1.1665 0
M  V30 9572 H 930.704 0.661475 -0.0578465 0
M  V30 9573 H 933.234 1.88669 -0.791524 0
M  V30 9574 H 933.244 4.06767 0.316987 0
M  V30 9575 H 931.919 4.07425 -0.835348 0
M  V30 9576 H 930.496 3.60957 0.936189 0
M  V30 9577 N 932.681 0.308908 1.54543 0
M  V30 9578 C 933.631 -0.578902 2.20528 0
M  V30 9579 C 934.615 -1.09288 1.18088 0
M  V30 9580 O 935.807 -1.03234 1.43777 0
M  V30 9581 C 932.936 -1.74649 2.95555 0
M  V30 9582 C 932.022 -1.24809 4.05319 0
M  V30 9583 N 932.413 -0.46828 5.03628 0
M  V30 9584 C 930.711 -1.52813 4.19004 0
M  V30 9585 C 931.412 -0.201896 5.8135 0
M  V30 9586 N 930.388 -0.783927 5.37918 0
M  V30 9587 H 934.19 0.0243496 2.9389 0
M  V30 9588 H 931.704 0.114049 1.61999 0
M  V30 9589 H 933.701 -2.39414 3.41301 0
M  V30 9590 H 932.361 -2.35336 2.23712 0
M  V30 9591 H 933.372 -0.112453 5.17778 0
M  V30 9592 H 930.049 -2.14191 3.58369 0
M  V30 9593 H 931.439 0.424929 6.70555 0
M  V30 9594 N 934.159 -1.57557 0.0367827 0
M  V30 9595 C 935.387 -1.96419 -0.650168 0
M  V30 9596 C 935.802 -0.913656 -1.6522 0
M  V30 9597 O 935.159 0.103718 -1.82205 0
M  V30 9598 C 935.21 -3.35355 -1.3498 0
M  V30 9599 O 934.931 -4.36379 -0.387905 0
M  V30 9600 C 936.432 -3.88892 -2.12786 0
M  V30 9601 H 933.652 -0.646751 -0.178756 0
M  V30 9602 H 936.196 -2.04261 0.0988197 0
M  V30 9603 H 934.351 -3.28708 -2.05012 0
M  V30 9604 H 934.765 -5.16969 -0.885596 0
M  V30 9605 H 936.239 -4.88428 -2.5718 0
M  V30 9606 H 936.716 -3.23547 -2.97008 0
M  V30 9607 H 937.322 -3.98831 -1.47694 0
M  V30 9608 N 935.637 0.236453 -1.55816 0
M  V30 9609 C 936.567 1.29639 -1.94206 0
M  V30 9610 C 937.548 1.49667 -0.808319 0
M  V30 9611 O 938.733 1.621 -1.06945 0
M  V30 9612 C 935.863 2.64914 -2.24584 0
M  V30 9613 C 934.817 2.59565 -3.40308 0
M  V30 9614 C 934.143 3.98732 -3.56254 0
M  V30 9615 C 935.443 2.15642 -4.75706 0
M  V30 9616 H 937.137 0.977552 -2.82992 0
M  V30 9617 H 934.683 0.468804 -1.36155 0
M  V30 9618 H 936.636 3.39209 -2.50031 0
M  V30 9619 H 935.36 2.98455 -1.32636 0
M  V30 9620 H 934.019 1.87728 -3.14887 0
M  V30 9621 H 933.667 4.29556 -2.61707 0
M  V30 9622 H 933.367 3.96039 -4.34082 0
M  V30 9623 H 934.891 4.74711 -3.84033 0
M  V30 9624 H 936.305 2.79673 -5.00456 0
M  V30 9625 H 934.702 2.24039 -5.56711 0
M  V30 9626 H 935.772 1.10831 -4.72064 0
M  V30 9627 N 937.115 1.49373 0.502552 0
M  V30 9628 C 938.531 1.36101 0.833591 0
M  V30 9629 C 938.731 0.392911 1.97632 0
M  V30 9630 O 937.787 -0.175975 2.51886 0
M  V30 9631 C 939.1 2.76782 1.17526 0
M  V30 9632 C 940.648 2.85471 1.28356 0
M  V30 9633 C 941.123 4.26915 1.65853 0
M  V30 9634 N 942.614 4.29719 1.72905 0
M  V30 9635 C 943.349 5.36127 2.0336 0
M  V30 9636 N 942.845 6.52782 2.32049 0
M  V30 9637 N 944.638 5.23542 2.04598 0
M  V30 9638 H 936.789 2.10912 -0.251008 0
M  V30 9639 H 939.052 0.946696 -0.0497037 0
M  V30 9640 H 938.758 3.49314 0.408965 0
M  V30 9641 H 938.632 3.1205 2.11907 0
M  V30 9642 H 941.019 2.13177 2.04058 0
M  V30 9643 H 941.1 2.53787 0.320304 0
M  V30 9644 H 940.744 4.99735 0.907022 0
M  V30 9645 H 940.674 4.56063 2.63276 0
M  V30 9646 H 943.165 3.45586 1.529 0
M  V30 9647 H 943.478 7.29701 2.54471 0
M  V30 9648 H 941.823 6.56011 2.29509 0
M  V30 9649 H 945.014 4.31413 1.8166 0
M  V30 9650 H 945.187 6.06565 2.27998 0
M  V30 9651 N 938.594 -0.753485 1.38421 0
M  V30 9652 C 939.841 -1.51261 1.34634 0
M  V30 9653 C 940.169 -1.94396 -0.0635771 0
M  V30 9654 O 939.424 -1.65736 -1.04068 0
M  V30 9655 C 939.723 -2.77836 2.24816 0
M  V30 9656 C 939.389 -2.53662 3.72782 0
M  V30 9657 C 938.051 -2.46779 4.13103 0
M  V30 9658 C 940.403 -2.32548 4.66445 0
M  V30 9659 C 937.731 -2.16796 5.45176 0
M  V30 9660 C 940.083 -2.04085 5.98775 0
M  V30 9661 C 938.747 -1.95658 6.3818 0
M  V30 9662 H 938.017 -0.553503 0.492661 0
M  V30 9663 H 940.664 -0.866406 1.7078 0
M  V30 9664 H 938.969 -3.47106 1.81726 0
M  V30 9665 H 940.666 -3.35793 2.19189 0
M  V30 9666 H 937.256 -2.59891 3.40815 0
M  V30 9667 H 941.44 -2.36845 4.3614 0
M  V30 9668 H 936.696 -2.0878 5.74648 0
M  V30 9669 H 940.87 -1.86751 6.70893 0
M  V30 9670 H 938.497 -1.7219 7.40442 0
M  V30 9671 N 940.072 -1.23292 -0.981677 0
M  V30 9672 C 941.318 -1.06582 -1.72535 0
M  V30 9673 C 941.651 0.396538 -1.90108 0
M  V30 9674 O 940.926 1.29363 -1.45243 0
M  V30 9675 C 941.209 -1.7904 -3.12437 0
M  V30 9676 C 941.062 -3.32941 -3.02441 0
M  V30 9677 C 942.381 -1.55185 -4.11832 0
M  V30 9678 H 939.5 -0.388585 -0.626236 0
M  V30 9679 H 942.142 -1.51779 -1.14293 0
M  V30 9680 H 940.292 -1.40619 -3.62158 0
M  V30 9681 H 941.964 -3.80875 -2.60254 0
M  V30 9682 H 940.207 -3.62039 -2.38977 0
M  V30 9683 H 940.878 -3.78827 -4.0149 0
M  V30 9684 H 943.354 -1.88581 -3.70913 0
M  V30 9685 H 942.23 -2.08362 -5.07815 0
M  V30 9686 H 942.491 -0.486925 -4.3941 0
M  V30 9687 N 941.55 1.18024 -1.04442 0
M  V30 9688 C 942.46 2.25436 -0.649276 0
M  V30 9689 C 943.476 1.70915 0.326189 0
M  V30 9690 O 944.652 2.00592 0.180174 0
M  V30 9691 C 941.717 3.46693 -0.0222558 0
M  V30 9692 C 940.778 4.16332 -1.0472 0
M  V30 9693 C 940.011 5.31799 -0.450011 0
M  V30 9694 O 940.234 5.65544 0.742717 0
M  V30 9695 O 939.168 5.90209 -1.18056 0
M  V30 9696 H 942.994 2.61508 -1.54426 0
M  V30 9697 H 940.579 1.25178 -0.81552 0
M  V30 9698 H 942.461 4.20132 0.326597 0
M  V30 9699 H 941.136 3.12436 0.84649 0
M  V30 9700 H 940.043 3.44944 -1.44792 0
M  V30 9701 H 941.376 4.54598 -1.88684 0
M  V30 9702 N 943.028 0.824394 1.34319 0
M  V30 9703 C 943.991 0.252696 2.27803 0
M  V30 9704 C 944.991 -0.570254 1.50349 0
M  V30 9705 O 946.181 -0.386145 1.69866 0
M  V30 9706 C 943.313 -0.645575 3.34731 0
M  V30 9707 H 944.506 1.07742 2.79878 0
M  V30 9708 H 942.059 0.596367 1.44475 0
M  V30 9709 H 942.794 -1.4933 2.87873 0
M  V30 9710 H 942.579 -0.0569478 3.92059 0
M  V30 9711 H 944.069 -1.03933 4.0446 0
M  V30 9712 N 944.506 -1.46559 0.579492 0
M  V30 9713 C 945.453 -2.30275 -0.155598 0
M  V30 9714 C 946.423 -1.40422 -0.887175 0
M  V30 9715 O 947.608 -1.69373 -0.878481 0
M  V30 9716 C 944.748 -3.24827 -1.16539 0
M  V30 9717 C 943.861 -4.29778 -0.43759 0
M  V30 9718 C 942.996 -5.11461 -1.43462 0
M  V30 9719 C 942.035 -6.08164 -0.693048 0
M  V30 9720 N 941.172 -6.82726 -1.63799 0
M  V30 9721 H 946.012 -2.92607 0.564356 0
M  V30 9722 H 943.549 -1.44211 0.290126 0
M  V30 9723 H 945.507 -3.78088 -1.76368 0
M  V30 9724 H 944.137 -2.64311 -1.8531 0
M  V30 9725 H 943.189 -3.794 0.27567 0
M  V30 9726 H 944.501 -4.98597 0.142298 0
M  V30 9727 H 943.655 -5.68982 -2.1058 0
M  V30 9728 H 942.394 -4.42595 -2.04844 0
M  V30 9729 H 941.399 -5.49799 -0.00807093 0
M  V30 9730 H 942.624 -6.79047 -0.0846678 0
M  V30 9731 H 940.57 -6.16572 -2.23997 0
M  V30 9732 H 940.487 -7.47795 -1.11082 0
M  V30 9733 H 941.755 -7.44807 -2.29962 0
M  V30 9734 N 945.984 -0.3171 -1.54377 0
M  V30 9735 C 946.917 0.594178 -2.20329 0
M  V30 9736 C 947.895 1.12067 -1.17812 0
M  V30 9737 O 949.079 1.18588 -1.46524 0
M  V30 9738 C 946.206 1.81463 -2.85987 0
M  V30 9739 C 945.252 1.41996 -4.02168 0
M  V30 9740 S 946.085 0.462159 -5.33502 0
M  V30 9741 C 947.241 1.69004 -6.02651 0
M  V30 9742 H 947.474 0.0339261 -2.97281 0
M  V30 9743 H 945.007 -0.101196 -1.54068 0
M  V30 9744 H 946.965 2.51494 -3.2444 0
M  V30 9745 H 945.626 2.34606 -2.08851 0
M  V30 9746 H 944.819 2.32921 -4.4695 0
M  V30 9747 H 944.421 0.799423 -3.65356 0
M  V30 9748 H 946.713 2.62839 -6.24437 0
M  V30 9749 H 947.656 1.28451 -6.96352 0
M  V30 9750 H 948.064 1.87408 -5.32483 0
M  V30 9751 N 947.462 1.57535 -0.0451378 0
M  V30 9752 C 948.687 1.97172 0.64326 0
M  V30 9753 C 949.112 0.922266 1.63939 0
M  V30 9754 O 948.47 -0.115155 1.80934 0
M  V30 9755 C 948.518 3.35889 1.3119 0
M  V30 9756 O 947.622 3.33387 2.42748 0
M  V30 9757 H 946.963 0.642469 0.167719 0
M  V30 9758 H 949.493 2.04295 -0.111747 0
M  V30 9759 H 949.503 3.72481 1.66499 0
M  V30 9760 H 948.178 4.1181 0.581823 0
M  V30 9761 H 946.755 3.08533 2.09432 0
M  V30 9762 N 948.94 -0.228186 1.55939 0
M  V30 9763 C 950.165 -0.974795 1.83064 0
M  V30 9764 C 950.59 -1.77426 0.624624 0
M  V30 9765 O 949.948 -1.76211 -0.426556 0
M  V30 9766 C 949.996 -1.87342 3.08116 0
M  V30 9767 O 949.1 -2.96784 2.86344 0
M  V30 9768 H 948.441 -0.276379 0.603747 0
M  V30 9769 H 950.971 -0.243507 2.03146 0
M  V30 9770 H 950.981 -2.28451 3.38045 0
M  V30 9771 H 949.656 -1.28575 3.95526 0
M  V30 9772 H 948.233 -2.59669 2.67631 0
M  V30 9773 N 950.418 -1.49637 -0.494624 0
M  V30 9774 C 951.658 -1.61067 -1.25844 0
M  V30 9775 C 952.022 -0.293666 -1.89741 0
M  V30 9776 O 953.223 -0.283202 -2.67304 0
M  V30 9777 C 951.494 -2.74218 -2.29215 0
M  V30 9778 S 953.053 -3.05639 -3.1485 0
M  V30 9779 H 949.871 -0.568056 -0.42759 0
M  V30 9780 H 952.473 -1.87323 -0.559491 0
M  V30 9781 H 951.177 -3.68422 -1.80813 0
M  V30 9782 H 950.708 -2.49975 -3.0377 0
M  V30 9783 H 952.723 -2.47651 -4.29981 0
M  V30 9784 N 951.896 0.746133 -1.38819 0
M  V30 9785 C 953.312 1.0502 -1.20179 0
M  V30 9786 C 953.512 2.01423 -0.0556271 0
M  V30 9787 O 952.568 2.45359 0.59625 0
M  V30 9788 C 953.881 1.62315 -2.53129 0
M  V30 9789 C 955.429 1.74449 -2.59878 0
M  V30 9790 C 955.904 2.35155 -3.93022 0
M  V30 9791 N 957.395 2.42577 -3.94602 0
M  V30 9792 C 958.13 2.9046 -4.94389 0
M  V30 9793 N 957.626 3.38322 -6.04574 0
M  V30 9794 N 959.419 2.89568 -4.81775 0
M  V30 9795 H 951.57 0.106551 -2.12133 0
M  V30 9796 H 953.833 0.109897 -0.941609 0
M  V30 9797 H 953.539 0.98946 -3.37495 0
M  V30 9798 H 953.413 2.61276 -2.72057 0
M  V30 9799 H 955.8 2.36943 -1.75903 0
M  V30 9800 H 955.881 0.741721 -2.4481 0
M  V30 9801 H 955.525 1.73292 -4.77422 0
M  V30 9802 H 955.455 3.36088 -4.05404 0
M  V30 9803 H 957.946 2.08735 -3.15021 0
M  V30 9804 H 958.259 3.73336 -6.76639 0
M  V30 9805 H 956.604 3.3636 -6.08184 0
M  V30 9806 H 959.795 2.51492 -3.94803 0
M  V30 9807 H 959.968 3.26571 -5.59692 0
M  V30 9808 N 953.375 1.23811 0.975125 0
M  V30 9809 C 954.621 1.07495 1.71967 0
M  V30 9810 C 954.954 -0.386451 1.90316 0
M  V30 9811 O 954.229 -1.28591 1.45927 0
M  V30 9812 C 954.512 1.80694 3.11483 0
M  V30 9813 C 954.365 3.3454 3.00671 0
M  V30 9814 C 955.684 1.57367 4.11003 0
M  V30 9815 H 952.803 0.3919 0.624166 0
M  V30 9816 H 955.445 1.52383 1.13487 0
M  V30 9817 H 953.595 1.42538 3.61407 0
M  V30 9818 H 955.267 3.8225 2.5823 0
M  V30 9819 H 953.51 3.63301 2.37054 0
M  V30 9820 H 954.181 3.80951 3.99475 0
M  V30 9821 H 956.657 1.90545 3.69908 0
M  V30 9822 H 955.533 2.11052 5.06703 0
M  V30 9823 H 955.794 0.510221 4.39146 0
M  V30 9824 N 954.853 -1.17469 1.05066 0
M  V30 9825 C 956.269 -1.39699 0.771769 0
M  V30 9826 C 956.469 -1.91253 -0.634382 0
M  V30 9827 O 955.525 -2.10334 -1.39699 0
M  V30 9828 C 956.838 -2.38886 1.82631 0
M  V30 9829 C 958.386 -2.52595 1.84838 0
M  V30 9830 C 958.861 -3.55054 2.89311 0
M  V30 9831 N 960.352 -3.6257 2.88266 0
M  V30 9832 C 961.087 -4.41603 3.65752 0
M  V30 9833 N 960.583 -5.24162 4.53019 0
M  V30 9834 N 962.376 -4.36464 3.54197 0
M  V30 9835 H 954.527 -0.823355 1.95792 0
M  V30 9836 H 956.79 -0.42432 0.847736 0
M  V30 9837 H 956.496 -2.08075 2.83545 0
M  V30 9838 H 956.37 -3.38371 1.66687 0
M  V30 9839 H 958.757 -2.82717 0.845888 0
M  V30 9840 H 958.838 -1.53188 2.04859 0
M  V30 9841 H 958.482 -3.2567 3.89745 0
M  V30 9842 H 958.412 -4.54162 2.66542 0
M  V30 9843 H 960.903 -3.03625 2.24989 0
M  V30 9844 H 961.216 -5.81646 5.0883 0
M  V30 9845 H 959.561 -5.23547 4.57081 0
M  V30 9846 H 962.752 -3.7102 2.85416 0
M  V30 9847 H 962.925 -4.97814 4.14832 0
M  V30 9848 N 956.331 -0.831506 -1.3388 0
M  V30 9849 C 957.294 -0.264773 -2.27666 0
M  V30 9850 C 958.294 0.562273 -1.50649 0
M  V30 9851 O 959.484 0.377131 -1.70069 0
M  V30 9852 C 956.616 0.627814 -3.35069 0
M  V30 9853 H 957.809 -1.09225 -2.79303 0
M  V30 9854 H 955.362 -0.604021 -1.44157 0
M  V30 9855 H 956.097 1.47802 -2.88661 0
M  V30 9856 H 955.882 0.0361552 -3.92083 0
M  V30 9857 H 957.372 1.01786 -4.05005 0
M  V30 9858 N 957.809 1.4625 -0.587256 0
M  V30 9859 C 959.056 2.02363 -0.0745746 0
M  V30 9860 C 959.384 1.4582 1.28712 0
M  V30 9861 O 958.639 0.614922 1.85788 0
M  V30 9862 C 958.938 3.57382 0.036328 0
M  V30 9863 C 958.604 4.32985 -1.25837 0
M  V30 9864 C 957.266 4.53358 -1.61306 0
M  V30 9865 C 959.618 4.76361 -2.11494 0
M  V30 9866 C 956.946 5.14361 -2.82223 0
M  V30 9867 C 959.298 5.38699 -3.31641 0
M  V30 9868 C 957.962 5.57299 -3.67388 0
M  V30 9869 H 957.232 0.740497 -0.0272888 0
M  V30 9870 H 959.879 1.75565 -0.764804 0
M  V30 9871 H 958.184 3.83342 0.809712 0
M  V30 9872 H 959.881 3.9848 0.448838 0
M  V30 9873 H 956.471 4.17427 -0.972251 0
M  V30 9874 H 960.655 4.60372 -1.85394 0
M  V30 9875 H 955.911 5.26952 -3.10051 0
M  V30 9876 H 960.085 5.71267 -3.9828 0
M  V30 9877 H 957.712 6.04338 -4.61173 0
M  V30 9878 N 959.287 0.325282 1.54207 0
M  V30 9879 C 960.703 -0.0273036 1.59577 0
M  V30 9880 C 960.903 -1.50329 1.34177 0
M  V30 9881 O 959.959 -2.25951 1.12705 0
M  V30 9882 C 961.272 0.392468 2.98128 0
M  V30 9883 C 962.82 0.343269 3.11112 0
M  V30 9884 C 963.295 0.738229 4.52011 0
M  V30 9885 N 964.786 0.691701 4.58006 0
M  V30 9886 C 965.521 0.969479 5.65145 0
M  V30 9887 N 965.017 1.31448 6.80216 0
M  V30 9888 N 966.81 0.894926 5.5493 0
M  V30 9889 H 958.961 1.28692 1.68974 0
M  V30 9890 H 961.224 0.523399 0.790416 0
M  V30 9891 H 960.93 1.42089 3.2172 0
M  V30 9892 H 960.804 -0.241651 3.76425 0
M  V30 9893 H 963.191 -0.675946 2.87254 0
M  V30 9894 H 963.272 1.01235 2.34915 0
M  V30 9895 H 962.916 1.75537 4.76602 0
M  V30 9896 H 962.846 0.0468226 5.26579 0
M  V30 9897 H 965.337 0.436975 3.75365 0
M  V30 9898 H 965.65 1.51177 7.57869 0
M  V30 9899 H 963.995 1.35276 6.81708 0
M  V30 9900 H 967.186 0.624876 4.6391 0
M  V30 9901 H 967.359 1.11476 6.38339 0
M  V30 9902 N 960.765 -1.57509 0.0534917 0
M  V30 9903 C 962.181 -1.56696 -0.303067 0
M  V30 9904 C 962.381 -1.06135 -1.71282 0
M  V30 9905 O 961.437 -0.71899 -2.42047 0
M  V30 9906 C 962.75 -3.00421 -0.129418 0
M  V30 9907 C 964.298 -3.12358 -0.200346 0
M  V30 9908 C 964.773 -4.57967 -0.0551971 0
M  V30 9909 N 966.264 -4.63066 -0.111398 0
M  V30 9910 C 966.999 -5.73395 -0.0232344 0
M  V30 9911 N 966.495 -6.92701 0.11741 0
M  V30 9912 N 968.288 -5.62045 -0.078984 0
M  V30 9913 H 960.439 -1.88696 0.975064 0
M  V30 9914 H 962.702 -0.869072 0.378706 0
M  V30 9915 H 962.408 -3.41456 0.842653 0
M  V30 9916 H 962.282 -3.66563 -0.889476 0
M  V30 9917 H 964.669 -2.71221 -1.16289 0
M  V30 9918 H 964.75 -2.48891 0.590506 0
M  V30 9919 H 964.394 -4.9979 0.904034 0
M  V30 9920 H 964.324 -5.19443 -0.865223 0
M  V30 9921 H 966.815 -3.77263 -0.219256 0
M  V30 9922 H 967.128 -7.72597 0.177326 0
M  V30 9923 H 965.473 -6.94833 0.152526 0
M  V30 9924 H 968.664 -4.67725 -0.187434 0
M  V30 9925 H 968.837 -6.48 -0.00681731 0
M  V30 9926 N 962.243 0.219913 -1.56058 0
M  V30 9927 C 963.49 0.944064 -1.79147 0
M  V30 9928 C 963.818 1.84268 -0.622531 0
M  V30 9929 O 963.073 1.91713 0.393013 0
M  V30 9930 C 963.372 1.81293 -3.08006 0
M  V30 9931 C 963.038 1.0674 -4.38084 0
M  V30 9932 C 961.7 0.86147 -4.73426 0
M  V30 9933 C 964.052 0.541049 -5.18384 0
M  V30 9934 C 961.38 0.117307 -5.86583 0
M  V30 9935 C 963.732 -0.189779 -6.32315 0
M  V30 9936 C 962.396 -0.406951 -6.66258 0
M  V30 9937 H 961.666 0.345458 -0.655546 0
M  V30 9938 H 964.313 0.212121 -1.90322 0
M  V30 9939 H 962.618 2.61278 -2.9196 0
M  V30 9940 H 964.315 2.3754 -3.23072 0
M  V30 9941 H 960.905 1.23789 -4.10334 0
M  V30 9942 H 965.089 0.687617 -4.91514 0
M  V30 9943 H 960.345 -0.0611651 -6.11369 0
M  V30 9944 H 964.519 -0.605134 -6.93766 0
M  V30 9945 H 962.146 -0.985511 -7.53785 0
M  V30 9946 N 963.721 1.49897 0.486681 0
M  V30 9947 C 964.951 1.63599 1.2617 0
M  V30 9948 C 965.359 0.312365 1.86604 0
M  V30 9949 O 964.702 -0.713911 1.6926 0
M  V30 9950 C 964.764 2.65736 2.42125 0
M  V30 9951 C 964.428 4.09711 2.0245 0
M  V30 9952 C 965.425 4.9607 1.55596 0
M  V30 9953 C 963.11 4.55534 2.11647 0
M  V30 9954 C 965.104 6.26295 1.18462 0
M  V30 9955 C 962.791 5.85768 1.74124 0
M  V30 9956 C 963.789 6.70973 1.27608 0
M  V30 9957 O 963.477 7.98778 0.905991 0
M  V30 9958 H 963.209 0.55333 0.388332 0
M  V30 9959 H 965.763 1.96768 0.589195 0
M  V30 9960 H 963.993 2.27778 3.12497 0
M  V30 9961 H 965.682 2.68819 3.04123 0
M  V30 9962 H 966.448 4.61891 1.47925 0
M  V30 9963 H 962.327 3.8937 2.46803 0
M  V30 9964 H 965.871 6.92754 0.820839 0
M  V30 9965 H 961.768 6.19473 1.8145 0
M  V30 9966 H 962.536 8.11914 1.03621 0
M  V30 9967 N 965.199 -0.738761 1.39212 0
M  V30 9968 C 966.149 -1.84376 1.34125 0
M  V30 9969 C 967.133 -1.5935 0.222793 0
M  V30 9970 O 968.325 -1.70918 0.460014 0
M  V30 9971 C 965.454 -3.22261 1.18334 0
M  V30 9972 C 964.54 -3.53129 2.34864 0
M  V30 9973 N 964.931 -3.54957 3.60332 0
M  V30 9974 C 963.229 -3.83472 2.27739 0
M  V30 9975 C 963.93 -3.83513 4.3737 0
M  V30 9976 N 962.906 -4.01097 3.66909 0
M  V30 9977 H 966.708 -1.84089 2.29104 0
M  V30 9978 H 964.222 -0.936826 1.32655 0
M  V30 9979 H 966.219 -4.01358 1.12772 0
M  V30 9980 H 964.879 -3.23789 0.243016 0
M  V30 9981 H 965.89 -3.36359 3.93806 0
M  V30 9982 H 962.567 -3.92628 1.41949 0
M  V30 9983 H 963.957 -3.91427 5.46109 0
M  V30 9984 N 966.677 -1.24326 -0.968545 0
M  V30 9985 C 967.587 -1.05194 -2.09694 0
M  V30 9986 C 968.603 0.00701291 -1.73999 0
M  V30 9987 O 969.779 -0.190981 -2.00492 0
M  V30 9988 C 966.844 -0.658075 -3.40397 0
M  V30 9989 C 965.905 -1.79341 -3.90045 0
M  V30 9990 C 965.138 -1.41824 -5.14511 0
M  V30 9991 O 965.361 -0.307693 -5.69569 0
M  V30 9992 O 964.295 -2.24358 -5.58522 0
M  V30 9993 H 968.121 -1.99791 -2.2873 0
M  V30 9994 H 965.706 -1.03138 -1.08088 0
M  V30 9995 H 967.588 -0.449911 -4.18991 0
M  V30 9996 H 966.263 0.258782 -3.22664 0
M  V30 9997 H 965.17 -2.05632 -3.12516 0
M  V30 9998 H 966.503 -2.68901 -4.12254 0
M  V30 9999 N 968.156 1.1691 -1.05688 0
M  V30 10000 C 969.396 1.88972 -0.779044 0
M  V30 10001 C 969.76 1.7949 0.681708 0
M  V30 10002 O 970.961 2.46418 1.07386 0
M  V30 10003 C 969.232 3.34737 -1.25242 0
M  V30 10004 S 970.791 4.24718 -1.10272 0
M  V30 10005 H 967.609 0.652349 -0.282776 0
M  V30 10006 H 970.211 1.41162 -1.35254 0
M  V30 10007 H 968.915 3.39175 -2.3106 0
M  V30 10008 H 968.446 3.87593 -0.673417 0
M  V30 10009 H 970.461 4.96191 -0.0299004 0
M  V30 10010 N 969.634 0.838594 1.33437 0
M  V30 10011 C 970.859 0.446701 2.02532 0
M  V30 10012 C 971.284 -0.944275 1.62681 0
M  V30 10013 O 970.642 -1.61733 0.81927 0
M  V30 10014 C 970.69 0.574794 3.55989 0
M  V30 10015 O 969.794 -0.399063 4.10465 0
M  V30 10016 H 969.135 0.181637 0.638674 0
M  V30 10017 H 971.665 1.13335 1.70342 0
M  V30 10018 H 971.675 0.456339 4.0544 0
M  V30 10019 H 970.35 1.58921 3.8434 0
M  V30 10020 H 968.927 -0.238187 3.72139 0
M  V30 10021 N 971.112 -1.45937 0.595003 0
M  V30 10022 C 972.044 -2.28575 -0.169137 0
M  V30 10023 C 973.057 -1.39226 -0.843792 0
M  V30 10024 O 974.246 -1.63716 -0.711291 0
M  V30 10025 C 971.346 -3.14616 -1.25976 0
M  V30 10026 C 970.519 -4.32166 -0.67466 0
M  V30 10027 C 969.578 -4.99511 -1.65456 0
M  V30 10028 O 968.604 -5.56712 -1.18578 0
M  V30 10029 N 969.806 -4.97643 -2.98885 0
M  V30 10030 H 972.571 -2.94797 0.539908 0
M  V30 10031 H 970.132 -1.55985 0.433614 0
M  V30 10032 H 972.124 -3.56534 -1.91483 0
M  V30 10033 H 970.694 -2.50387 -1.8715 0
M  V30 10034 H 969.914 -3.93882 0.158184 0
M  V30 10035 H 971.202 -5.08116 -0.263753 0
M  V30 10036 H 970.6 -4.52438 -3.39583 0
M  V30 10037 H 969.157 -5.43463 -3.59848 0
M  V30 10038 N 972.59 -0.333456 -1.54032 0
M  V30 10039 C 973.818 0.267813 -2.05159 0
M  V30 10040 C 974.233 1.4501 -1.20903 0
M  V30 10041 O 973.59 1.80888 -0.241994 0
M  V30 10042 C 973.641 0.69268 -3.54802 0
M  V30 10043 O 973.362 -0.442579 -4.35859 0
M  V30 10044 C 974.863 1.35572 -4.2206 0
M  V30 10045 H 972.083 0.0534924 -0.668864 0
M  V30 10046 H 974.627 -0.482515 -1.98726 0
M  V30 10047 H 972.782 1.39297 -3.6149 0
M  V30 10048 H 973.196 -0.105915 -5.24393 0
M  V30 10049 H 974.67 1.60385 -5.28186 0
M  V30 10050 H 975.147 2.30614 -3.73783 0
M  V30 10051 H 975.753 0.697748 -4.19537 0
M  V30 10052 N 974.068 1.57479 -0.061844 0
M  V30 10053 C 975.001 2.07734 0.94455 0
M  V30 10054 C 975.979 0.980207 1.29733 0
M  V30 10055 O 977.163 1.2529 1.40836 0
M  V30 10056 C 974.29 2.52673 2.25553 0
M  V30 10057 C 973.336 3.73725 2.05503 0
M  V30 10058 S 974.169 5.18886 1.32354 0
M  V30 10059 C 975.325 5.67148 2.64753 0
M  V30 10060 H 975.558 2.92772 0.516888 0
M  V30 10061 H 973.091 1.53663 0.150684 0
M  V30 10062 H 975.049 2.79226 3.00904 0
M  V30 10063 H 973.71 1.67921 2.65445 0
M  V30 10064 H 972.903 4.03125 3.025 0
M  V30 10065 H 972.505 3.47494 1.3829 0
M  V30 10066 H 974.797 5.73385 3.60882 0
M  V30 10067 H 975.74 6.66196 2.39976 0
M  V30 10068 H 976.148 4.94921 2.71502 0
M  V30 10069 N 975.546 -0.211634 1.56173 0
M  V30 10070 C 976.476 -1.26533 1.96244 0
M  V30 10071 C 977.457 -1.48362 0.832028 0
M  V30 10072 O 978.642 -1.60378 1.0951 0
M  V30 10073 C 975.772 -2.61307 2.2877 0
M  V30 10074 C 974.726 -2.54119 3.44395 0
M  V30 10075 C 974.052 -3.93014 3.62552 0
M  V30 10076 C 975.352 -2.08046 4.79076 0
M  V30 10077 H 977.046 -0.932407 2.84511 0
M  V30 10078 H 974.592 -0.447084 1.36884 0
M  V30 10079 H 976.545 -3.35188 2.55396 0
M  V30 10080 H 975.269 -2.96307 1.37367 0
M  V30 10081 H 973.928 -1.82694 3.17834 0
M  V30 10082 H 973.576 -4.25338 2.68508 0
M  V30 10083 H 973.276 -3.89083 4.40327 0
M  V30 10084 H 974.8 -4.68542 3.91537 0
M  V30 10085 H 976.214 -2.71676 5.04842 0
M  V30 10086 H 974.611 -2.15154 5.60204 0
M  V30 10087 H 975.681 -1.03306 4.73768 0
M  V30 10088 N 977.024 -1.50153 -0.478725 0
M  V30 10089 C 977.974 -1.64848 -1.57509 0
M  V30 10090 C 978.958 -0.503327 -1.52825 0
M  V30 10091 O 980.15 -0.75737 -1.59978 0
M  V30 10092 C 977.279 -1.73893 -2.96 0
M  V30 10093 C 976.365 -2.9406 -3.05597 0
M  V30 10094 N 976.756 -4.17844 -2.85027 0
M  V30 10095 C 975.054 -2.92459 -3.36725 0
M  V30 10096 C 975.755 -4.98739 -2.9939 0
M  V30 10097 N 974.731 -4.32542 -3.29255 0
M  V30 10098 H 978.533 -2.58254 -1.40293 0
M  V30 10099 H 976.047 -1.47232 -0.685307 0
M  V30 10100 H 978.044 -1.82523 -3.74821 0
M  V30 10101 H 976.704 -0.816402 -3.14269 0
M  V30 10102 H 977.715 -4.47465 -2.60759 0
M  V30 10103 H 974.392 -2.09675 -3.6103 0
M  V30 10104 H 975.782 -6.07146 -2.8779 0
M  V30 10105 N 978.502 0.731368 -1.39602 0
M  V30 10106 C 979.412 1.87579 -1.40894 0
M  V30 10107 C 980.428 1.71336 -0.303319 0
M  V30 10108 O 981.604 1.93875 -0.545377 0
M  V30 10109 C 978.669 3.23211 -1.25442 0
M  V30 10110 C 977.73 3.51822 -2.46008 0
M  V30 10111 C 976.963 4.80982 -2.31284 0
M  V30 10112 O 977.186 5.54958 -1.31824 0
M  V30 10113 O 976.12 5.09574 -3.20341 0
M  V30 10114 H 979.946 1.89444 -2.3737 0
M  V30 10115 H 977.531 0.879675 -1.20756 0
M  V30 10116 H 979.413 4.04257 -1.18972 0
M  V30 10117 H 978.088 3.22108 -0.320637 0
M  V30 10118 H 976.995 2.70847 -2.58055 0
M  V30 10119 H 978.328 3.57707 -3.38093 0
M  V30 10120 N 979.98 1.24838 0.961938 0
M  V30 10121 C 981.21 1.11709 1.73795 0
M  V30 10122 C 981.618 -0.33263 1.86253 0
M  V30 10123 O 980.961 -1.24101 1.35443 0
M  V30 10124 C 981.023 1.68959 3.17322 0
M  V30 10125 C 980.687 3.17895 3.28316 0
M  V30 10126 C 981.684 4.14975 3.13196 0
M  V30 10127 C 979.369 3.57966 3.52372 0
M  V30 10128 C 981.363 5.50107 3.21965 0
M  V30 10129 C 979.05 4.93237 3.60778 0
M  V30 10130 C 980.048 5.89116 3.45588 0
M  V30 10131 O 979.736 7.21927 3.53662 0
M  V30 10132 H 979.468 0.390726 0.551642 0
M  V30 10133 H 982.022 1.65541 1.21594 0
M  V30 10134 H 980.252 1.09567 3.70853 0
M  V30 10135 H 981.941 1.51036 3.76753 0
M  V30 10136 H 982.707 3.85359 2.94489 0
M  V30 10137 H 978.586 2.83837 3.63259 0
M  V30 10138 H 982.13 6.24924 3.10025 0
M  V30 10139 H 978.027 5.22522 3.79 0
M  V30 10140 H 978.795 7.29925 3.7034 0
M  V30 10141 N 981.458 -1.16348 1.06306 0
M  V30 10142 C 982.704 -1.87158 0.781007 0
M  V30 10143 C 983.037 -1.81499 -0.690784 0
M  V30 10144 O 982.312 -1.23074 -1.50609 0
M  V30 10145 C 982.595 -3.3672 1.27639 0
M  V30 10146 C 982.448 -3.51069 2.81194 0
M  V30 10147 C 983.767 -4.31122 0.884388 0
M  V30 10148 H 980.886 -0.679586 0.285187 0
M  V30 10149 H 983.528 -1.36756 1.31901 0
M  V30 10150 H 981.678 -3.79775 0.818715 0
M  V30 10151 H 983.35 -3.16952 3.35171 0
M  V30 10152 H 981.593 -2.92976 3.19918 0
M  V30 10153 H 982.264 -4.56105 3.10921 0
M  V30 10154 H 984.74 -3.95969 1.27858 0
M  V30 10155 H 983.616 -5.34279 1.25847 0
M  V30 10156 H 983.877 -4.41598 -0.210673 0
M  V30 10157 N 982.937 -0.845659 -1.3299 0
M  V30 10158 C 984.353 -0.53433 -1.5039 0
M  V30 10159 C 984.553 0.936939 -1.78392 0
M  V30 10160 O 983.609 1.72043 -1.84818 0
M  V30 10161 C 984.922 -1.41354 -2.65404 0
M  V30 10162 C 986.47 -1.41303 -2.79289 0
M  V30 10163 C 986.945 -2.27724 -3.97373 0
M  V30 10164 N 988.436 -2.25471 -4.0462 0
M  V30 10165 C 989.171 -2.89074 -4.95201 0
M  V30 10166 N 988.667 -3.61755 -5.90851 0
M  V30 10167 N 990.46 -2.78508 -4.88251 0
M  V30 10168 H 982.611 -1.79798 -1.13078 0
M  V30 10169 H 984.874 -0.767454 -0.556524 0
M  V30 10170 H 984.58 -2.45936 -2.51413 0
M  V30 10171 H 984.454 -1.09445 -3.60973 0
M  V30 10172 H 986.841 -0.374899 -2.92709 0
M  V30 10173 H 986.922 -1.77222 -1.84461 0
M  V30 10174 H 986.566 -3.316 -3.84713 0
M  V30 10175 H 986.496 -1.89142 -4.9146 0
M  V30 10176 H 988.987 -1.72622 -3.3617 0
M  V30 10177 H 989.3 -4.07475 -6.56646 0
M  V30 10178 H 987.645 -3.65863 -5.90906 0
M  V30 10179 H 990.836 -2.21285 -4.12493 0
M  V30 10180 H 991.009 -3.2836 -5.58645 0
M  V30 10181 N 984.415 1.45619 -0.602734 0
M  V30 10182 C 985.362 2.30493 0.118944 0
M  V30 10183 C 986.332 1.41816 0.864723 0
M  V30 10184 O 987.517 1.7075 0.851424 0
M  V30 10185 C 984.657 3.2664 1.11356 0
M  V30 10186 C 983.77 4.3042 0.369161 0
M  V30 10187 C 982.905 5.13678 1.35307 0
M  V30 10188 C 981.944 6.09189 0.596207 0
M  V30 10189 N 981.081 6.85245 1.52916 0
M  V30 10190 H 985.921 2.91672 -0.610836 0
M  V30 10191 H 983.458 1.43731 -0.313032 0
M  V30 10192 H 985.416 3.80846 1.7033 0
M  V30 10193 H 984.046 2.67225 1.81081 0
M  V30 10194 H 983.098 3.78913 -0.335994 0
M  V30 10195 H 984.41 4.98307 -0.221603 0
M  V30 10196 H 983.564 5.7226 2.01502 0
M  V30 10197 H 982.303 4.45798 1.97777 0
M  V30 10198 H 981.308 5.49743 -0.0793984 0
M  V30 10199 H 982.533 6.79096 -0.0233734 0
M  V30 10200 H 980.479 6.20058 2.14159 0
M  V30 10201 H 980.396 7.49467 0.991713 0
M  V30 10202 H 981.664 7.48371 2.18083 0
M  V30 10203 N 985.893 0.34162 1.53853 0
M  V30 10204 C 986.841 -0.531412 2.26448 0
M  V30 10205 C 987.835 -1.10357 1.28521 0
M  V30 10206 O 989.041 -1.04953 1.46236 0
M  V30 10207 H 985.416 -0.190054 0.727588 0
M  V30 10208 H 987.387 0.102922 2.98222 0
M  V30 10209 C 986.136 -1.67154 3.04885 0
M  V30 10210 H 985.459 -1.24055 3.80066 0
M  V30 10211 H 986.899 -2.25762 3.58898 0
M  V30 10212 C 985.358 -2.59984 2.14266 0
M  V30 10213 O 985.888 -3.62181 1.73746 0
M  V30 10214 N 984.094 -2.28625 1.79385 0
M  V30 10215 H 983.641 -1.45559 2.12533 0
M  V30 10216 H 983.599 -2.90995 1.19035 0
M  V30 10217 N 987.371 -1.57444 0.0701946 0
M  V30 10218 C 988.617 -1.93716 -0.600178 0
M  V30 10219 C 988.95 -0.950329 -1.69359 0
M  V30 10220 O 988.225 0.0207123 -1.94489 0
M  V30 10221 C 988.508 -3.40266 -1.17861 0
M  V30 10222 C 988.361 -4.49706 -0.0919575 0
M  V30 10223 C 989.68 -3.87599 -2.08459 0
M  V30 10224 H 986.799 -0.704421 -0.216704 0
M  V30 10225 H 989.441 -1.89514 0.135838 0
M  V30 10226 H 987.591 -3.43977 -1.80587 0
M  V30 10227 H 989.263 -4.58116 0.541031 0
M  V30 10228 H 987.506 -4.29937 0.577639 0
M  V30 10229 H 988.177 -5.49381 -0.537048 0
M  V30 10230 H 990.653 -3.85883 -1.5567 0
M  V30 10231 H 989.529 -4.90755 -2.45867 0
M  V30 10232 H 989.79 -3.25448 -2.99226 0
M  V30 10233 N 988.849 0.203349 -1.56283 0
M  V30 10234 C 989.759 1.27266 -1.9708 0
M  V30 10235 C 990.775 1.50268 -0.877236 0
M  V30 10236 O 991.951 1.63044 -1.18231 0
M  V30 10237 C 989.016 2.59871 -2.29495 0
M  V30 10238 C 988.077 2.45012 -3.52516 0
M  V30 10239 C 987.31 3.71293 -3.83376 0
M  V30 10240 O 987.533 4.75106 -3.15643 0
M  V30 10241 O 986.467 3.67316 -4.76826 0
M  V30 10242 H 990.293 0.956461 -2.88246 0
M  V30 10243 H 987.878 0.407688 -1.4373 0
M  V30 10244 H 989.76 3.38152 -2.51458 0
M  V30 10245 H 988.435 2.91135 -1.415 0
M  V30 10246 H 987.342 1.6487 -3.35811 0
M  V30 10247 H 988.675 2.18683 -4.40952 0
M  V30 10248 N 990.327 1.50405 0.470755 0
M  V30 10249 C 991.743 1.37838 0.804534 0
M  V30 10250 C 991.943 0.434743 1.96754 0
M  V30 10251 O 990.999 -0.122507 2.52203 0
M  V30 10252 C 992.312 2.79212 1.11629 0
M  V30 10253 C 993.86 2.88129 1.22272 0
M  V30 10254 C 994.335 4.30337 1.5676 0
M  V30 10255 N 995.826 4.3329 1.63751 0
M  V30 10256 C 996.561 5.4032 1.91942 0
M  V30 10257 N 996.057 6.57558 2.18151 0
M  V30 10258 N 997.85 5.27764 1.93446 0
M  V30 10259 H 990.001 2.10332 -0.295689 0
M  V30 10260 H 992.264 0.945429 -0.0697733 0
M  V30 10261 H 991.97 3.50103 0.334778 0
M  V30 10262 H 991.844 3.16475 2.0524 0
M  V30 10263 H 994.231 2.17457 1.9949 0
M  V30 10264 H 994.312 2.54409 0.2664 0
M  V30 10265 H 993.956 5.01547 0.800817 0
M  V30 10266 H 993.886 4.61545 2.53543 0
M  V30 10267 H 996.377 3.48752 1.45535 0
M  V30 10268 H 996.69 7.34935 2.38936 0
M  V30 10269 H 995.035 6.60732 2.15542 0
M  V30 10270 H 998.226 4.35169 1.72468 0
M  V30 10271 H 998.399 6.11264 2.15081 0
M  V30 10272 N 991.805 -0.723954 1.39988 0
M  V30 10273 C 992.735 -1.85103 1.42335 0
M  V30 10274 C 993.716 -1.6769 0.285297 0
M  V30 10275 O 994.901 -1.87846 0.492716 0
M  V30 10276 C 992.031 -3.22972 1.27697 0
M  V30 10277 C 990.985 -3.55041 2.39018 0
M  V30 10278 C 990.311 -4.91965 2.09462 0
M  V30 10279 C 991.611 -3.56889 3.8135 0
M  V30 10280 H 993.305 -1.83396 2.36656 0
M  V30 10281 H 990.851 -0.880926 1.13911 0
M  V30 10282 H 992.804 -4.01503 1.27958 0
M  V30 10283 H 991.528 -3.25233 0.298487 0
M  V30 10284 H 990.187 -2.78845 2.37993 0
M  V30 10285 H 989.835 -4.90819 1.10025 0
M  V30 10286 H 989.535 -5.14389 2.84038 0
M  V30 10287 H 991.059 -5.7284 2.11391 0
M  V30 10288 H 992.473 -4.25476 3.84243 0
M  V30 10289 H 990.87 -3.90836 4.55376 0
M  V30 10290 H 991.94 -2.56452 4.11534 0
M  V30 10291 N 993.283 -1.25346 -0.955304 0
M  V30 10292 C 994.213 -1.08152 -2.06943 0
M  V30 10293 C 995.194 0.00922598 -1.70097 0
M  V30 10294 O 996.379 -0.160181 -1.93538 0
M  V30 10295 C 993.509 -0.698745 -3.40198 0
M  V30 10296 C 992.463 -1.73965 -3.9105 0
M  V30 10297 C 991.789 -1.21158 -5.20792 0
M  V30 10298 C 993.089 -3.13829 -4.17503 0
M  V30 10299 H 994.783 -2.01345 -2.21586 0
M  V30 10300 H 992.329 -0.969459 -1.06478 0
M  V30 10301 H 994.282 -0.565394 -4.1759 0
M  V30 10302 H 993.006 0.268892 -3.25491 0
M  V30 10303 H 991.665 -1.86143 -3.15827 0
M  V30 10304 H 991.313 -0.234193 -5.02455 0
M  V30 10305 H 991.013 -1.90728 -5.55785 0
M  V30 10306 H 992.537 -1.09061 -6.00781 0
M  V30 10307 H 993.951 -3.04809 -4.85556 0
M  V30 10308 H 992.348 -3.80863 -4.63749 0
M  V30 10309 H 993.418 -3.6094 -3.23806 0
M  V30 10310 N 994.761 1.15782 -1.06922 0
M  V30 10311 C 995.724 2.18578 -0.689654 0
M  V30 10312 C 996.724 1.58553 0.267872 0
M  V30 10313 O 997.914 1.7413 0.0494097 0
M  V30 10314 C 995.046 3.40896 -0.0157919 0
M  V30 10315 H 996.239 2.53672 -1.59971 0
M  V30 10316 H 993.792 1.30168 -0.865214 0
M  V30 10317 H 994.527 3.11367 0.906712 0
M  V30 10318 H 994.312 3.85721 -0.704415 0
M  V30 10319 H 995.802 4.16937 0.235266 0
M  V30 10320 N 996.239 0.8527 1.3254 0
M  V30 10321 C 997.467 0.469044 2.01513 0
M  V30 10322 C 997.882 -0.933701 1.64096 0
M  V30 10323 O 997.239 -1.60898 0.861283 0
M  V30 10324 C 997.29 0.596228 3.56549 0
M  V30 10325 O 997.011 1.94371 3.92621 0
M  V30 10326 C 998.512 0.211324 4.42796 0
M  V30 10327 H 995.732 0.184589 0.645111 0
M  V30 10328 H 998.276 1.1491 1.69163 0
M  V30 10329 H 996.431 -0.0360712 3.87383 0
M  V30 10330 H 996.845 1.93909 4.87339 0
M  V30 10331 H 998.319 0.351324 5.50881 0
M  V30 10332 H 998.796 -0.848055 4.30935 0
M  V30 10333 H 999.402 0.818617 4.17347 0
M  V30 10334 N 997.718 -1.45297 0.610449 0
M  V30 10335 C 998.943 -2.07101 0.111414 0
M  V30 10336 C 999.368 -1.45161 -1.19625 0
M  V30 10337 O 998.726 -0.545368 -1.72903 0
M  V30 10338 C 998.774 -3.60598 -0.0117372 0
M  V30 10339 O 997.878 -3.98512 -1.06122 0
M  V30 10340 H 997.219 -0.659709 0.075364 0
M  V30 10341 H 999.749 -1.86504 0.841269 0
M  V30 10342 H 999.759 -4.07464 -0.209028 0
M  V30 10343 H 998.434 -4.05067 0.943076 0
M  V30 10344 H 997.011 -3.63312 -0.840158 0
M  V30 10345 N 999.196 -0.349774 -1.5367 0
M  V30 10346 C 1000.47 0.300419 -1.93279 0
M  V30 10347 C 1000.85 1.67721 -1.28191 0
M  V30 10348 O 1000.2 2.24319 -0.435127 0
M  V30 10349 C 1000.41 0.366466 -3.47071 0
M  V30 10350 C 1001.76 0.614349 -4.20132 0
M  V30 10351 O 1002.78 0.448327 -3.53367 0
M  V30 10352 O 1001.64 0.936421 -5.38417 0
M  V30 10353 H 998.736 0.176599 -0.807924 0
M  V30 10354 H 1001.28 -0.401405 -1.64884 0
M  V30 10355 H 1000.05 -0.599455 -3.86681 0
M  V30 10356 H 999.677 1.11482 -3.81651 0
M  V30 10357 N 1000.67 1.57404 -0.0785433 0
M  V30 10358 C 1001.92 1.93361 0.58786 0
M  V30 10359 C 1002.24 0.959856 1.6974 0
M  V30 10360 O 1001.51 0.0091173 1.95898 0
M  V30 10361 H 1000.09 0.713825 0.220141 0
M  V30 10362 H 1002.75 1.94411 -0.137986 0
M  V30 10363 H 1001.85 2.95346 1.00881 0
M  V30 10364 N 1002.15 -0.195058 1.56388 0
M  V30 10365 C 1003.08 -1.24444 1.97575 0
M  V30 10366 C 1004.06 -1.47471 0.847717 0
M  V30 10367 O 1005.25 -1.59208 1.11205 0
M  V30 10368 C 1002.38 -2.58866 2.31529 0
M  V30 10369 C 1001.33 -2.50451 3.47071 0
M  V30 10370 C 1000.66 -3.89146 3.667 0
M  V30 10371 C 1001.96 -2.02953 4.81256 0
M  V30 10372 H 1003.65 -0.902178 2.85484 0
M  V30 10373 H 1001.2 -0.43254 1.3735 0
M  V30 10374 H 1003.15 -3.3246 2.58936 0
M  V30 10375 H 1001.87 -2.94833 1.40502 0
M  V30 10376 H 1000.53 -1.79313 3.19754 0
M  V30 10377 H 1000.18 -4.22466 2.73004 0
M  V30 10378 H 999.882 -3.84391 4.44429 0
M  V30 10379 H 1001.41 -4.64363 3.96484 0
M  V30 10380 H 1002.82 -2.66306 5.07695 0
M  V30 10381 H 1001.22 -2.092 5.62455 0
M  V30 10382 H 1002.29 -0.982757 4.74837 0
M  V30 10383 N 1003.63 -1.50653 -0.462772 0
M  V30 10384 C 1004.86 -1.65586 -1.23551 0
M  V30 10385 C 1005.27 -0.342012 -1.86083 0
M  V30 10386 O 1004.61 0.686893 -1.70374 0
M  V30 10387 C 1004.67 -2.69555 -2.37867 0
M  V30 10388 C 1004.34 -4.1288 -1.95906 0
M  V30 10389 C 1005.33 -4.98483 -1.47685 0
M  V30 10390 C 1003.02 -4.58843 -2.04373 0
M  V30 10391 C 1005.01 -6.281 -1.08484 0
M  V30 10392 C 1002.7 -5.88464 -1.64783 0
M  V30 10393 C 1003.7 -6.72918 -1.16918 0
M  V30 10394 O 1003.39 -8.00119 -0.778798 0
M  V30 10395 H 1003.12 -0.559438 -0.37948 0
M  V30 10396 H 1005.67 -1.9768 -0.557816 0
M  V30 10397 H 1003.9 -2.3272 -3.08834 0
M  V30 10398 H 1005.59 -2.73624 -2.99808 0
M  V30 10399 H 1006.36 -4.64186 -1.40558 0
M  V30 10400 H 1002.24 -3.93247 -2.40577 0
M  V30 10401 H 1005.78 -6.93972 -0.710524 0
M  V30 10402 H 1001.68 -6.22281 -1.71571 0
M  V30 10403 H 1002.44 -8.1346 -0.906911 0
M  V30 10404 N 1005.11 0.71652 -1.4037 0
M  V30 10405 C 1006.04 1.84345 -1.43315 0
M  V30 10406 C 1007.02 1.67537 -0.294186 0
M  V30 10407 O 1008.2 1.87582 -0.502671 0
M  V30 10408 C 1005.33 3.2229 -1.29408 0
M  V30 10409 C 1004.29 3.53769 -2.40897 0
M  V30 10410 C 1003.61 4.90847 -2.12068 0
M  V30 10411 C 1004.91 3.54862 -3.83237 0
M  V30 10412 H 1006.61 1.82138 -2.37626 0
M  V30 10413 H 1004.15 0.874873 -1.14376 0
M  V30 10414 H 1006.11 4.00819 -1.30085 0
M  V30 10415 H 1004.83 3.2507 -0.31573 0
M  V30 10416 H 1003.49 2.77579 -2.39469 0
M  V30 10417 H 1003.14 4.90229 -1.12626 0
M  V30 10418 H 1002.84 5.12875 -2.86762 0
M  V30 10419 H 1004.36 5.71711 -2.14426 0
M  V30 10420 H 1005.78 4.23432 -3.86494 0
M  V30 10421 H 1004.17 3.88416 -4.57442 0
M  V30 10422 H 1005.24 2.54266 -4.12888 0
M  V30 10423 N 1006.59 1.25851 0.948643 0
M  V30 10424 C 1007.82 1.13546 1.726 0
M  V30 10425 C 1008.22 -0.312857 1.86595 0
M  V30 10426 O 1007.57 -1.22657 1.36751 0
M  V30 10427 C 1007.63 1.72315 3.15512 0
M  V30 10428 C 1007.29 3.2136 3.24926 0
M  V30 10429 C 1008.29 4.18274 3.08777 0
M  V30 10430 C 1005.98 3.61683 3.48555 0
M  V30 10431 C 1007.97 5.53491 3.16112 0
M  V30 10432 C 1005.66 4.97035 3.55526 0
M  V30 10433 C 1006.65 5.92749 3.3932 0
M  V30 10434 O 1006.34 7.25637 3.45985 0
M  V30 10435 H 1006.07 0.396555 0.547467 0
M  V30 10436 H 1008.63 1.66822 1.19832 0
M  V30 10437 H 1006.86 1.13494 3.6967 0
M  V30 10438 H 1008.55 1.55024 3.7513 0
M  V30 10439 H 1009.31 3.88461 2.90385 0
M  V30 10440 H 1005.19 2.87674 3.60229 0
M  V30 10441 H 1008.74 6.28177 3.0338 0
M  V30 10442 H 1004.63 5.26512 3.73437 0
M  V30 10443 H 1005.4 7.33812 3.62577 0
M  V30 10444 N 1008.06 -1.15214 1.07534 0
M  V30 10445 C 1009.01 -2.22078 0.69168 0
M  V30 10446 C 1010.01 -1.66751 -0.298382 0
M  V30 10447 O 1011.21 -1.7927 -0.161897 0
M  V30 10448 H 1007.59 -0.723347 0.205604 0
M  V30 10449 H 1009.56 -2.51716 1.60256 0
M  V30 10450 C 1008.31 -3.47534 0.107546 0
M  V30 10451 H 1007.63 -3.90429 0.860522 0
M  V30 10452 H 1009.07 -4.23821 -0.123215 0
M  V30 10453 C 1007.53 -3.16583 -1.15226 0
M  V30 10454 O 1008.06 -3.33551 -2.23845 0
M  V30 10455 N 1006.27 -2.70611 -1.05915 0
M  V30 10456 H 1005.81 -2.57004 -0.175198 0
M  V30 10457 H 1005.77 -2.50277 -1.90287 0
M  V30 10458 N 1009.54 -0.859717 -1.32086 0
M  V30 10459 C 1010.51 -0.313005 -2.27053 0
M  V30 10460 C 1011.51 0.530191 -1.51808 0
M  V30 10461 O 1012.7 0.340972 -1.7083 0
M  V30 10462 C 1009.83 0.5566 -3.36325 0
M  V30 10463 H 1011.02 -1.15125 -2.76923 0
M  V30 10464 H 1008.57 -0.634463 -1.42843 0
M  V30 10465 H 1009.31 1.41645 -2.91731 0
M  V30 10466 H 1009.09 -0.0470197 -3.92072 0
M  V30 10467 H 1010.58 0.931725 -4.07073 0
M  V30 10468 N 1011.02 1.44971 -0.618145 0
M  V30 10469 C 1012.27 2.02159 -0.117482 0
M  V30 10470 C 1012.6 1.48517 1.2559 0
M  V30 10471 O 1011.85 0.654192 1.84442 0
M  V30 10472 C 1012.15 3.57378 -0.0394861 0
M  V30 10473 C 1011.82 4.30218 -1.34993 0
M  V30 10474 C 1010.48 4.49835 -1.70886 0
M  V30 10475 C 1012.83 4.71768 -2.21551 0
M  V30 10476 C 1010.16 5.08258 -2.9307 0
M  V30 10477 C 1012.51 5.31543 -3.42993 0
M  V30 10478 C 1011.17 5.49381 -3.79126 0
M  V30 10479 H 1010.44 0.739752 -0.0429897 0
M  V30 10480 H 1013.09 1.73903 -0.801871 0
M  V30 10481 H 1011.4 3.84973 0.728217 0
M  V30 10482 H 1013.09 3.99343 0.364213 0
M  V30 10483 H 1009.68 4.15271 -1.06057 0
M  V30 10484 H 1013.87 4.56336 -1.95117 0
M  V30 10485 H 1009.12 5.20257 -3.21158 0
M  V30 10486 H 1013.3 5.62691 -4.10308 0
M  V30 10487 H 1010.92 5.94419 -4.73888 0
M  V30 10488 N 1012.5 0.357919 1.53482 0
M  V30 10489 C 1013.91 0.00655107 1.59599 0
M  V30 10490 C 1014.11 -1.47449 1.37336 0
M  V30 10491 O 1013.17 -2.2351 1.17472 0
M  V30 10492 C 1014.48 0.455617 2.97228 0
M  V30 10493 C 1016.03 0.409183 3.10314 0
M  V30 10494 C 1016.51 0.833941 4.50344 0
M  V30 10495 N 1018 0.788695 4.56436 0
M  V30 10496 C 1018.73 1.08914 5.62961 0
M  V30 10497 N 1018.23 1.45847 6.77274 0
M  V30 10498 N 1020.02 1.01243 5.52907 0
M  V30 10499 H 1012.17 1.32248 1.66206 0
M  V30 10500 H 1014.44 0.540047 0.779136 0
M  V30 10501 H 1014.14 1.48881 3.18634 0
M  V30 10502 H 1014.02 -0.161751 3.76853 0
M  V30 10503 H 1016.4 -0.614863 2.88623 0
M  V30 10504 H 1016.48 1.06195 2.32715 0
M  V30 10505 H 1016.13 1.85607 4.72771 0
M  V30 10506 H 1016.06 0.158507 5.26361 0
M  V30 10507 H 1018.55 0.516497 3.74354 0
M  V30 10508 H 1018.86 1.67218 7.54492 0
M  V30 10509 H 1017.21 1.49705 6.78685 0
M  V30 10510 H 1020.4 0.723137 4.62481 0
M  V30 10511 H 1020.57 1.24991 6.35831 0
M  V30 10512 N 1013.98 -1.5736 0.0868897 0
M  V30 10513 C 1015.39 -1.57304 -0.269762 0
M  V30 10514 C 1015.59 -1.09745 -1.68992 0
M  V30 10515 O 1014.65 -0.77017 -2.40468 0
M  V30 10516 C 1015.96 -3.00628 -0.0656646 0
M  V30 10517 C 1017.51 -3.12713 -0.134045 0
M  V30 10518 C 1017.98 -4.57981 0.0419569 0
M  V30 10519 N 1019.48 -4.63198 -0.0131501 0
M  V30 10520 C 1020.21 -5.73316 0.0983964 0
M  V30 10521 N 1019.71 -6.92296 0.264315 0
M  V30 10522 N 1021.5 -5.62086 0.0402517 0
M  V30 10523 H 1013.65 -1.86585 1.01487 0
M  V30 10524 H 1015.91 -0.860843 0.397055 0
M  V30 10525 H 1015.62 -3.39592 0.914891 0
M  V30 10526 H 1015.49 -3.68367 -0.811522 0
M  V30 10527 H 1017.88 -2.73627 -1.1051 0
M  V30 10528 H 1017.96 -2.47582 0.643167 0
M  V30 10529 H 1017.61 -4.9776 1.00984 0
M  V30 10530 H 1017.54 -5.21162 -0.754847 0
M  V30 10531 H 1020.03 -3.77644 -0.139183 0
M  V30 10532 H 1020.34 -7.72047 0.341165 0
M  V30 10533 H 1018.68 -6.94353 0.299876 0
M  V30 10534 H 1021.88 -4.68017 -0.0881801 0
M  V30 10535 H 1022.05 -6.47868 0.130635 0
M  V30 10536 N 1015.45 0.186762 -1.56489 0
M  V30 10537 C 1016.68 0.921832 -1.85229 0
M  V30 10538 C 1017.1 1.76496 -0.670416 0
M  V30 10539 O 1016.45 1.78899 0.360758 0
M  V30 10540 C 1016.51 1.81121 -3.12854 0
M  V30 10541 O 1016.23 1.00211 -4.26485 0
M  V30 10542 C 1017.73 2.65725 -3.54831 0
M  V30 10543 H 1014.95 0.268563 -0.61491 0
M  V30 10544 H 1017.49 0.191505 -2.03601 0
M  V30 10545 H 1015.65 2.49506 -2.96354 0
M  V30 10546 H 1016.06 1.60893 -4.99213 0
M  V30 10547 H 1017.53 3.23771 -4.47075 0
M  V30 10548 H 1018.01 3.39843 -2.78215 0
M  V30 10549 H 1018.62 2.02698 -3.7389 0
M  V30 10550 N 1016.93 1.50896 0.454776 0
M  V30 10551 C 1018.16 1.6648 1.22849 0
M  V30 10552 C 1018.58 0.354841 1.85435 0
M  V30 10553 O 1017.93 -0.664931 1.69956 0
M  V30 10554 C 1017.98 2.76787 2.32532 0
M  V30 10555 O 1017.7 4.02706 1.72509 0
M  V30 10556 C 1019.21 3.03488 3.23125 0
M  V30 10557 H 1016.43 0.559152 0.370932 0
M  V30 10558 H 1018.97 1.97215 0.540983 0
M  V30 10559 H 1017.12 2.48701 2.9703 0
M  V30 10560 H 1017.54 4.63834 2.44863 0
M  V30 10561 H 1019.01 3.84294 3.9626 0
M  V30 10562 H 1019.49 2.152 3.82865 0
M  V30 10563 H 1020.1 3.33167 2.64347 0
M  V30 10564 N 1018.41 -0.709066 1.40748 0
M  V30 10565 C 1019.64 -1.50313 1.42901 0
M  V30 10566 C 1020.06 -1.88072 0.032213 0
M  V30 10567 O 1019.42 -1.53716 -0.96131 0
M  V30 10568 C 1019.47 -2.75074 2.33166 0
M  V30 10569 O 1018.57 -3.72036 1.7794 0
M  V30 10570 H 1017.91 -0.452934 0.485538 0
M  V30 10571 H 1020.44 -0.872712 1.85054 0
M  V30 10572 H 1020.45 -3.23532 2.48578 0
M  V30 10573 H 1019.13 -2.46927 3.34664 0
M  V30 10574 H 1017.7 -3.30911 1.71908 0
M  V30 10575 N 1019.89 -1.26353 -0.941956 0
M  V30 10576 C 1021.14 -1.11241 -1.68251 0
M  V30 10577 C 1021.45 0.344055 -1.9255 0
M  V30 10578 O 1022.66 0.615832 -2.64423 0
M  V30 10579 C 1021.11 -1.94269 -3.02965 0
M  V30 10580 C 1020.72 -3.44485 -2.86415 0
M  V30 10581 C 1022.47 -1.87764 -3.80716 0
M  V30 10582 C 1020.37 -4.19763 -4.16597 0
M  V30 10583 H 1019.3 -0.412694 -0.63103 0
M  V30 10584 H 1021.95 -1.50656 -1.04762 0
M  V30 10585 H 1020.34 -1.47687 -3.6743 0
M  V30 10586 H 1021.51 -3.9883 -2.30805 0
M  V30 10587 H 1019.82 -3.52218 -2.22107 0
M  V30 10588 H 1022.42 -2.41292 -4.77161 0
M  V30 10589 H 1022.76 -0.848195 -4.07568 0
M  V30 10590 H 1023.3 -2.32165 -3.23024 0
M  V30 10591 H 1020.04 -5.23173 -3.9493 0
M  V30 10592 H 1019.56 -3.70198 -4.71925 0
M  V30 10593 H 1021.24 -4.28168 -4.85058 0
M  V30 10594 N 1021.37 1.14642 -1.08144 0
M  V30 10595 C 1022.62 1.84964 -0.804437 0
M  V30 10596 C 1022.93 1.8369 0.672106 0
M  V30 10597 O 1024.14 2.49775 1.06417 0
M  V30 10598 C 1022.59 3.32015 -1.38904 0
M  V30 10599 C 1022.2 3.41713 -2.89718 0
M  V30 10600 C 1023.94 4.07467 -1.19041 0
M  V30 10601 C 1021.85 4.82958 -3.41329 0
M  V30 10602 H 1020.78 0.692932 -0.297256 0
M  V30 10603 H 1023.43 1.29255 -1.30251 0
M  V30 10604 H 1021.81 3.87445 -0.818679 0
M  V30 10605 H 1022.99 2.96347 -3.52867 0
M  V30 10606 H 1021.3 2.79713 -3.08463 0
M  V30 10607 H 1023.9 5.1172 -1.55069 0
M  V30 10608 H 1024.24 4.16097 -0.130027 0
M  V30 10609 H 1024.78 3.58329 -1.72757 0
M  V30 10610 H 1021.51 4.79515 -4.46929 0
M  V30 10611 H 1021.03 5.28873 -2.82937 0
M  V30 10612 H 1022.71 5.51841 -3.37759 0
M  V30 10613 N 1022.85 0.866709 1.31628 0
M  V30 10614 C 1024.09 0.482479 1.98624 0
M  V30 10615 C 1024.45 -0.946844 1.6703 0
M  V30 10616 O 1025.65 -1.43626 2.27212 0
M  V30 10617 C 1023.92 0.728582 3.49895 0
M  V30 10618 S 1025.48 0.443724 4.36551 0
M  V30 10619 H 1022.3 0.180238 0.687776 0
M  V30 10620 H 1024.9 1.12203 1.60096 0
M  V30 10621 H 1023.6 1.76769 3.70379 0
M  V30 10622 H 1023.14 0.075903 3.93327 0
M  V30 10623 H 1025.15 -0.72534 4.9087 0
M  V30 10624 N 1024.32 -1.44642 0.625825 0
M  V30 10625 C 1025.23 -2.34451 -0.0836134 0
M  V30 10626 C 1026.25 -1.5231 -0.841289 0
M  V30 10627 O 1027.43 -1.85056 -0.794754 0
M  V30 10628 C 1024.49 -3.30211 -1.05648 0
M  V30 10629 C 1023.55 -4.28259 -0.298759 0
M  V30 10630 C 1022.78 -5.19444 -1.22528 0
M  V30 10631 O 1023.01 -5.14444 -2.46382 0
M  V30 10632 O 1021.94 -5.97668 -0.71247 0
M  V30 10633 H 1025.77 -2.96555 0.654912 0
M  V30 10634 H 1023.35 -1.44327 0.386029 0
M  V30 10635 H 1025.23 -3.8917 -1.61632 0
M  V30 10636 H 1023.91 -2.70648 -1.77571 0
M  V30 10637 H 1022.82 -3.72863 0.304001 0
M  V30 10638 H 1024.15 -4.90728 0.380345 0
M  V30 10639 N 1025.8 -0.366053 -1.5329 0
M  V30 10640 C 1026.71 0.488111 -2.29466 0
M  V30 10641 C 1027.73 1.09219 -1.35452 0
M  V30 10642 O 1028.9 1.10303 -1.68509 0
M  V30 10643 C 1025.97 1.61202 -3.06944 0
M  V30 10644 C 1025.03 1.03543 -4.16626 0
M  V30 10645 C 1024.26 2.10578 -4.904 0
M  V30 10646 O 1024.49 3.31697 -4.6404 0
M  V30 10647 O 1023.42 1.73609 -5.76319 0
M  V30 10648 H 1027.25 -0.131789 -3.03414 0
M  V30 10649 H 1024.83 -0.130421 -1.4883 0
M  V30 10650 H 1026.71 2.26546 -3.55324 0
M  V30 10651 H 1025.39 2.21732 -2.35832 0
M  V30 10652 H 1024.29 0.345892 -3.72498 0
M  V30 10653 H 1025.63 0.474687 -4.89906 0
M  V30 10654 N 1027.28 1.57312 -0.0952337 0
M  V30 10655 C 1028.56 1.85822 0.610715 0
M  V30 10656 C 1028.94 0.992114 1.86334 0
M  V30 10657 O 1028.28 0.0645669 2.28409 0
M  V30 10658 C 1028.49 3.36492 0.925967 0
M  V30 10659 C 1029.84 4.0455 1.28936 0
M  V30 10660 O 1030.87 3.41374 1.01698 0
M  V30 10661 O 1029.73 5.16024 1.79949 0
M  V30 10662 H 1026.82 0.768454 0.305626 0
M  V30 10663 H 1029.37 1.69217 -0.127941 0
M  V30 10664 H 1028.14 3.91282 0.0373127 0
M  V30 10665 H 1027.76 3.58443 1.7206 0
M  V30 10666 N 1028.76 -0.17846 1.56586 0
M  V30 10667 C 1029.69 -1.22342 1.98884 0
M  V30 10668 C 1030.67 -1.46564 0.86331 0
M  V30 10669 O 1031.85 -1.58019 1.12887 0
M  V30 10670 C 1028.98 -2.56396 2.34261 0
M  V30 10671 C 1027.94 -2.46756 3.49708 0
M  V30 10672 C 1027.26 -3.85235 3.70807 0
M  V30 10673 C 1028.56 -1.97838 4.83381 0
M  V30 10674 H 1030.26 -0.871848 2.86425 0
M  V30 10675 H 1027.8 -0.417948 1.37801 0
M  V30 10676 H 1029.76 -3.29695 2.62448 0
M  V30 10677 H 1028.48 -2.93327 1.43621 0
M  V30 10678 H 1027.14 -1.75912 3.21637 0
M  V30 10679 H 1026.79 -4.19547 2.7747 0
M  V30 10680 H 1026.49 -3.79655 4.48481 0
M  V30 10681 H 1028.01 -4.60131 4.01387 0
M  V30 10682 H 1029.43 -2.60906 5.10491 0
M  V30 10683 H 1027.82 -2.03223 5.64642 0
M  V30 10684 H 1028.89 -0.932339 4.75852 0
M  V30 10685 N 1030.24 -1.51135 -0.446768 0
M  V30 10686 C 1031.51 -1.5387 -1.20762 0
M  V30 10687 C 1031.89 -0.297446 -2.08994 0
M  V30 10688 O 1031.24 0.717975 -2.16927 0
M  V30 10689 C 1031.45 -2.84767 -2.01764 0
M  V30 10690 C 1032.8 -3.3636 -2.59128 0
M  V30 10691 O 1033.82 -2.86254 -2.11984 0
M  V30 10692 O 1032.68 -4.23765 -3.45088 0
M  V30 10693 H 1029.78 -0.618228 -0.549293 0
M  V30 10694 H 1032.32 -1.63442 -0.456605 0
M  V30 10695 H 1031.09 -3.6657 -1.36901 0
M  V30 10696 H 1030.72 -2.78313 -2.8395 0
M  V30 10697 N 1031.71 0.701592 -1.41122 0
M  V30 10698 C 1032.96 1.45871 -1.39879 0
M  V30 10699 C 1033.28 1.94999 -0.00668769 0
M  V30 10700 O 1032.55 1.71298 0.95047 0
M  V30 10701 H 1031.13 0.541231 -0.514857 0
M  V30 10702 H 1033.79 0.830803 -1.76306 0
M  V30 10703 H 1032.89 2.32479 -2.0823 0
M  V30 10704 N 1033.19 1.2685 0.935242 0
M  V30 10705 C 1034.47 1.03483 1.65984 0
M  V30 10706 C 1034.85 -0.432859 2.06614 0
M  V30 10707 O 1034.2 -1.4145 1.79455 0
M  V30 10708 C 1034.41 1.98924 2.86758 0
M  V30 10709 C 1035.75 2.2787 3.58274 0
M  V30 10710 O 1036.78 1.96838 2.96873 0
M  V30 10711 O 1035.64 2.80734 4.68882 0
M  V30 10712 H 1032.73 0.393932 0.72715 0
M  V30 10713 H 1035.28 1.38085 0.986445 0
M  V30 10714 H 1034.05 2.9794 2.53668 0
M  V30 10715 H 1033.67 1.64839 3.6182 0
M  V30 10716 N 1034.67 -1.14067 1.0875 0
M  V30 10717 C 1035.91 -1.8684 0.828873 0
M  V30 10718 C 1036.27 -1.81235 -0.633879 0
M  V30 10719 O 1037.48 -2.49178 -1.00815 0
M  V30 10720 C 1035.75 -3.31299 1.34073 0
M  V30 10721 S 1037.31 -4.21645 1.21494 0
M  V30 10722 H 1034.12 -0.644622 0.299972 0
M  V30 10723 H 1036.73 -1.37526 1.38949 0
M  V30 10724 H 1035.43 -3.32929 2.39972 0
M  V30 10725 H 1034.96 -3.85672 0.775944 0
M  V30 10726 H 1036.98 -4.95937 0.161446 0
M  V30 10727 N 1036.15 -0.873678 -1.31166 0
M  V30 10728 C 1037.56 -0.566109 -1.49223 0
M  V30 10729 C 1037.76 0.898889 -1.80339 0
M  V30 10730 O 1036.82 1.68084 -1.88425 0
M  V30 10731 C 1038.13 -1.46952 -2.62346 0
M  V30 10732 C 1039.68 -1.47195 -2.76229 0
M  V30 10733 C 1040.16 -2.36102 -3.92454 0
M  V30 10734 N 1041.65 -2.34003 -3.99746 0
M  V30 10735 C 1042.38 -2.99513 -4.88958 0
M  V30 10736 N 1041.88 -3.74206 -5.83045 0
M  V30 10737 N 1043.67 -2.88802 -4.82234 0
M  V30 10738 H 1035.82 -1.82156 -1.09239 0
M  V30 10739 H 1038.09 -0.779086 -0.54012 0
M  V30 10740 H 1037.79 -2.51213 -2.4614 0
M  V30 10741 H 1037.67 -1.17077 -3.5857 0
M  V30 10742 H 1040.05 -0.436902 -2.91848 0
M  V30 10743 H 1040.13 -1.81095 -1.80661 0
M  V30 10744 H 1039.78 -3.39685 -3.77593 0
M  V30 10745 H 1039.71 -1.99524 -4.87337 0
M  V30 10746 H 1042.2 -1.79713 -3.32433 0
M  V30 10747 H 1042.51 -4.21312 -6.47855 0
M  V30 10748 H 1040.86 -3.78314 -5.83012 0
M  V30 10749 H 1044.05 -2.29984 -4.07707 0
M  V30 10750 H 1044.22 -3.40136 -5.51554 0
M  V30 10751 N 1037.63 1.44308 -0.633487 0
M  V30 10752 C 1038.56 2.28943 0.108474 0
M  V30 10753 C 1039.57 1.41415 0.806582 0
M  V30 10754 O 1040.76 1.65544 0.667634 0
M  V30 10755 C 1037.86 3.17845 1.1759 0
M  V30 10756 C 1037.03 4.33802 0.559842 0
M  V30 10757 C 1036.09 5.03722 1.52154 0
M  V30 10758 O 1035.12 5.5966 1.03776 0
M  V30 10759 N 1036.32 5.05392 2.85586 0
M  V30 10760 H 1039.09 2.93262 -0.617879 0
M  V30 10761 H 1036.65 1.54781 -0.474819 0
M  V30 10762 H 1038.64 3.61485 1.81963 0
M  V30 10763 H 1037.21 2.55261 1.80445 0
M  V30 10764 H 1036.43 3.93325 -0.262559 0
M  V30 10765 H 1037.72 5.08637 0.128942 0
M  V30 10766 H 1037.11 4.61282 3.27468 0
M  V30 10767 H 1035.67 5.52813 3.45313 0
M  V30 10768 N 1039.1 0.374177 1.53094 0
M  V30 10769 C 1040.03 -0.459976 2.28925 0
M  V30 10770 C 1041.02 -1.07656 1.31698 0
M  V30 10771 O 1042.2 -1.09219 1.60577 0
M  V30 10772 C 1039.33 -1.5954 3.08487 0
M  V30 10773 C 1038.28 -1.10563 4.13473 0
M  V30 10774 C 1037.61 -2.33196 4.81169 0
M  V30 10775 C 1038.91 -0.184275 5.21975 0
M  V30 10776 H 1040.6 0.172692 2.98902 0
M  V30 10777 H 1038.15 0.0844956 1.43752 0
M  V30 10778 H 1040.1 -2.18565 3.60288 0
M  V30 10779 H 1038.83 -2.25543 2.36216 0
M  V30 10780 H 1037.49 -0.53801 3.62631 0
M  V30 10781 H 1037.13 -2.97675 4.05461 0
M  V30 10782 H 1036.83 -2.01094 5.52119 0
M  V30 10783 H 1038.36 -2.92892 5.35767 0
M  V30 10784 H 1039.77 -0.682262 5.69226 0
M  V30 10785 H 1038.17 0.0462746 6.00082 0
M  V30 10786 H 1039.24 0.771152 4.78729 0
M  V30 10787 N 1040.58 -1.57259 0.103575 0
M  V30 10788 C 1041.83 -1.94657 -0.558126 0
M  V30 10789 C 1042.16 -0.985886 -1.67662 0
M  V30 10790 O 1041.41 -0.0069745 -1.95699 0
M  V30 10791 C 1041.71 -3.38549 -1.14538 0
M  V30 10792 C 1041.38 -4.50651 -0.149818 0
M  V30 10793 C 1040.04 -4.8104 0.12398 0
M  V30 10794 C 1042.39 -5.18503 0.529497 0
M  V30 10795 C 1039.72 -5.76606 1.08364 0
M  V30 10796 C 1042.07 -6.15099 1.47769 0
M  V30 10797 C 1040.74 -6.43889 1.75963 0
M  V30 10798 H 1040.01 -0.712299 -0.204233 0
M  V30 10799 H 1042.65 -1.90641 0.181208 0
M  V30 10800 H 1040.96 -3.39185 -1.96115 0
M  V30 10801 H 1042.65 -3.6479 -1.66521 0
M  V30 10802 H 1039.24 -4.2697 -0.373404 0
M  V30 10803 H 1043.43 -4.95194 0.331121 0
M  V30 10804 H 1038.68 -5.97223 1.30899 0
M  V30 10805 H 1042.86 -6.66767 2.00983 0
M  V30 10806 H 1040.49 -7.17749 2.50481 0
M  V30 10807 N 1042.06 0.170153 -1.56679 0
M  V30 10808 C 1043.47 0.732502 -1.7173 0
M  V30 10809 C 1043.82 1.82736 -0.71428 0
M  V30 10810 O 1042.95 2.16044 0.124102 0
M  V30 10811 C 1043.54 1.33548 -3.11368 0
M  V30 10812 C 1042.1 1.84464 -3.281 0
M  V30 10813 C 1041.25 0.724069 -2.6768 0
M  V30 10814 H 1044.2 -0.0552543 -1.58604 0
M  V30 10815 H 1044.22 2.20519 -3.10083 0
M  V30 10816 H 1043.73 0.5384 -3.84347 0
M  V30 10817 H 1041.83 2.66813 -2.6008 0
M  V30 10818 H 1041.95 1.98928 -4.35849 0
M  V30 10819 H 1040.31 1.14481 -2.27522 0
M  V30 10820 H 1041.09 -0.0611861 -3.43245 0
M  V30 10821 N 1043.54 1.5137 0.438746 0
M  V30 10822 C 1044.45 1.75424 1.55768 0
M  V30 10823 C 1045.46 0.638409 1.61865 0
M  V30 10824 O 1046.64 0.9205 1.79133 0
M  V30 10825 C 1043.71 1.87288 2.9176 0
M  V30 10826 C 1042.77 3.11137 2.95791 0
M  V30 10827 C 1042 3.22425 4.25297 0
M  V30 10828 O 1042.22 2.39688 5.17596 0
M  V30 10829 O 1041.16 4.15393 4.35583 0
M  V30 10830 H 1044.98 2.70339 1.38386 0
M  V30 10831 H 1042.57 1.35854 0.621609 0
M  V30 10832 H 1044.45 1.97085 3.72472 0
M  V30 10833 H 1043.12 0.955599 3.09273 0
M  V30 10834 H 1042.03 3.06819 2.1404 0
M  V30 10835 H 1043.36 4.02549 2.83223 0
M  V30 10836 O 1045.06 -0.584496 1.50552 0
M  V30 10837 H 1045.75 -1.23942 1.48856 0
M  V30 END ATOM
M  V30 BEGIN BOND
M  V30 END BOND
M  V30 END CTAB
M  END
$$$$
