drugbank_target|Q69600 HBsAg (DB05276)
 OpenBabel12092120153D

  0  0  0     0  0            999 V3000
M  V30 BEGIN CTAB
M  V30 COUNTS 3575 3644 0 0 0
M  V30 BEGIN ATOM
M  V30 1 H -0.908 1.98254 -0.117106 0
M  V30 2 N 0 1.576 0 0
M  V30 3 C 0.933 2.03868 1.02534 0
M  V30 4 C 1.911 0.928543 1.3348 0
M  V30 5 O 3.095 1.19667 1.45644 0
M  V30 6 C 0.222 2.43627 2.35294 0
M  V30 7 C -0.732 3.65373 2.2001 0
M  V30 8 S 0.101 5.13292 1.52614 0
M  V30 9 C 1.257 5.56322 2.86805 0
M  V30 10 H 1.49 2.90518 0.631377 0
M  V30 11 H -0.977 1.52953 0.210867 0
M  V30 12 H 0.981 2.67203 3.11629 0
M  V30 13 H -0.358 1.57376 2.7183 0
M  V30 14 H -1.165 3.90944 3.18086 0
M  V30 15 H -1.563 3.418 1.51819 0
M  V30 16 H 0.729 5.58782 3.83104 0
M  V30 17 H 1.672 6.56266 2.65933 0
M  V30 18 H 2.08 4.83886 2.90714 0
M  V30 19 N 1.4781 -0.272755 1.55222 0
M  V30 20 C 2.3881 -1.35918 1.91216 0
M  V30 21 C 3.4041 -1.54026 0.809436 0
M  V30 22 O 4.5801 -1.68148 1.10852 0
M  V30 23 C 1.6451 -2.69834 2.17693 0
M  V30 24 C 0.7061 -2.6047 3.41253 0
M  V30 25 C -0.0609 -3.88 3.66458 0
M  V30 26 O 0.1621 -4.88693 2.94169 0
M  V30 27 O -0.9039 -3.88189 4.59992 0
M  V30 28 H 2.9221 -1.0839 2.83699 0
M  V30 29 H 0.5071 -0.471301 1.41771 0
M  V30 30 H 2.3891 -3.49017 2.36147 0
M  V30 31 H 1.0641 -2.97148 1.28392 0
M  V30 32 H -0.0289 -1.79663 3.28134 0
M  V30 33 H 1.3041 -2.38106 4.30774 0
M  V30 34 N 2.9562 -1.48159 -0.537278 0
M  V30 35 C 3.9042 -1.62573 -1.66352 0
M  V30 36 C 4.8982 -0.492366 -1.62087 0
M  V30 37 O 6.1042 -0.670847 -1.67032 0
M  V30 38 H 2.4792 -0.511992 -0.550789 0
M  V30 39 H 4.4502 -2.57176 -1.51337 0
M  V30 40 C 3.1992 -1.67583 -3.04649 0
M  V30 41 H 2.5222 -2.54151 -3.08622 0
M  V30 42 H 3.9622 -1.81713 -3.83088 0
M  V30 43 C 2.4212 -0.413039 -3.34358 0
M  V30 44 O 2.9512 0.477259 -3.98855 0
M  V30 45 N 1.1572 -0.286961 -2.8918 0
M  V30 46 H 0.7042 -1.01241 -2.36871 0
M  V30 47 H 0.6622 0.556963 -3.09427 0
M  V30 48 N 4.4343 0.785586 -1.36625 0
M  V30 49 C 5.6833 1.53883 -1.30396 0
M  V30 50 C 5.9963 1.95271 0.113452 0
M  V30 51 O 7.2023 2.69858 0.298142 0
M  V30 52 C 5.6583 2.77808 -2.28802 0
M  V30 53 C 5.2663 2.43574 -3.75999 0
M  V30 54 C 7.0103 3.55783 -2.31558 0
M  V30 55 C 4.9173 3.63919 -4.66173 0
M  V30 56 H 3.8473 0.577678 -0.484566 0
M  V30 57 H 6.4983 0.861705 -1.62009 0
M  V30 58 H 4.8803 3.47339 -1.90188 0
M  V30 59 H 6.0543 1.81916 -4.23371 0
M  V30 60 H 4.3693 1.78803 -3.76056 0
M  V30 61 H 6.9663 4.45205 -2.96137 0
M  V30 62 H 7.3093 3.94644 -1.3252 0
M  V30 63 H 7.8423 2.93235 -2.68809 0
M  V30 64 H 4.5813 3.3015 -5.66287 0
M  V30 65 H 4.1013 4.2473 -4.23515 0
M  V30 66 H 5.7803 4.30901 -4.82632 0
M  V30 67 N 5.9124 1.20967 1.01018 0
M  V30 68 C 7.1404 1.04956 1.78303 0
M  V30 69 C 7.5554 -0.400915 1.84494 0
M  V30 70 O 6.9124 -1.27826 1.30257 0
M  V30 71 C 6.9634 1.63403 3.22462 0
M  V30 72 O 6.6844 3.02775 3.16637 0
M  V30 73 C 8.1854 1.52432 4.16268 0
M  V30 74 H 5.4054 0.368858 0.560522 0
M  V30 75 H 7.9494 1.60193 1.27116 0
M  V30 76 H 6.1044 1.1227 3.70775 0
M  V30 77 H 6.5184 3.30626 4.07169 0
M  V30 78 H 7.9924 1.98078 5.15237 0
M  V30 79 H 8.4694 0.477875 4.36592 0
M  V30 80 H 9.0754 2.02787 3.73841 0
M  V30 81 N 7.3905 -1.2043 1.01659 0
M  V30 82 C 8.6155 -1.94318 0.724942 0
M  V30 83 C 9.0405 -1.74266 -0.708034 0
M  V30 84 O 8.3985 -1.03694 -1.48719 0
M  V30 85 C 8.4465 -3.44486 1.06591 0
M  V30 86 O 7.5505 -4.12017 0.177599 0
M  V30 87 H 6.8915 -0.60708 0.26898 0
M  V30 88 H 9.4215 -1.52861 1.35995 0
M  V30 89 H 9.4315 -3.95106 1.01762 0
M  V30 90 H 8.1065 -3.58404 2.10997 0
M  V30 91 H 6.6835 -3.71821 0.283421 0
M  V30 92 N 8.8686 -0.792821 -1.36206 0
M  V30 93 C 10.1166 -0.366062 -1.98757 0
M  V30 94 C 10.4376 1.0668 -1.63231 0
M  V30 95 O 9.7076 1.73587 -0.907978 0
M  V30 96 H 8.2876 -0.132364 -0.735179 0
M  V30 97 H 10.9496 -1.01562 -1.66347 0
M  V30 98 H 10.0456 -0.460638 -3.08682 0
M  V30 99 N 10.3467 1.47872 -0.545128 0
M  V30 100 C 11.5937 2.02493 -0.0165858 0
M  V30 101 C 11.9217 1.42073 1.32836 0
M  V30 102 O 11.1767 0.561459 1.87473 0
M  V30 103 C 11.4757 3.57131 0.13867 0
M  V30 104 C 11.1417 4.36411 -1.13384 0
M  V30 105 C 9.8037 4.57792 -1.48256 0
M  V30 106 C 12.1557 4.82223 -1.97764 0
M  V30 107 C 9.4837 5.22233 -2.67376 0
M  V30 108 C 11.8357 5.47977 -3.16076 0
M  V30 109 C 10.4997 5.67593 -3.51275 0
M  V30 110 H 9.7697 0.740975 -0.00606918 0
M  V30 111 H 12.4167 1.77683 -0.714207 0
M  V30 112 H 10.7217 3.80865 0.919172 0
M  V30 113 H 12.4187 3.97031 0.562782 0
M  V30 114 H 9.0087 4.2004 -0.852297 0
M  V30 115 H 13.1927 4.65493 -1.72132 0
M  V30 116 H 8.4487 5.35616 -2.94831 0
M  V30 117 H 12.6227 5.8244 -3.81755 0
M  V30 118 H 10.2497 6.17298 -4.43675 0
M  V30 119 N 11.8248 0.280983 1.55075 0
M  V30 120 C 12.7548 -0.597469 2.25727 0
M  V30 121 C 13.7358 -1.15417 1.24952 0
M  V30 122 O 14.9208 -1.18722 1.53684 0
M  V30 123 C 12.0508 -1.7789 2.98283 0
M  V30 124 C 11.0048 -1.35347 4.06036 0
M  V30 125 C 10.3308 -2.61846 4.66198 0
M  V30 126 C 11.6308 -0.499354 5.19907 0
M  V30 127 H 13.3248 -0.00824265 2.99399 0
M  V30 128 H 10.8708 -0.0025244 1.44 0
M  V30 129 H 12.8238 -2.39937 3.46422 0
M  V30 130 H 11.5478 -2.39405 2.22155 0
M  V30 131 H 10.2068 -0.756156 3.58717 0
M  V30 132 H 9.8548 -3.21632 3.86732 0
M  V30 133 H 9.5548 -2.3409 5.38958 0
M  V30 134 H 11.0788 -3.24732 5.1709 0
M  V30 135 H 12.4928 -1.02498 5.64063 0
M  V30 136 H 10.8898 -0.316424 5.99265 0
M  V30 137 H 11.9598 0.480459 4.82514 0
M  V30 138 N 13.3029 -1.57598 0.00835791 0
M  V30 139 C 14.5509 -1.90551 -0.6734 0
M  V30 140 C 14.8719 -0.883301 -1.73847 0
M  V30 141 O 14.1419 0.0781442 -1.95744 0
M  V30 142 H 12.7219 -0.703312 -0.251717 0
M  V30 143 H 15.3839 -1.94833 0.0512592 0
M  V30 144 H 14.4799 -2.9056 -1.13935 0
M  V30 145 N 14.781 0.264519 -1.55364 0
M  V30 146 C 16.192 0.834936 -1.6699 0
M  V30 147 C 16.543 1.86718 -0.602552 0
M  V30 148 O 15.668 2.14899 0.254425 0
M  V30 149 C 16.263 1.5212 -3.02729 0
M  V30 150 C 14.822 2.03954 -3.16354 0
M  V30 151 C 13.969 0.884498 -2.62815 0
M  V30 152 H 16.92 0.0406869 -1.58648 0
M  V30 153 H 16.941 2.38853 -2.96191 0
M  V30 154 H 16.453 0.769668 -3.80392 0
M  V30 155 H 14.554 2.82041 -2.43482 0
M  V30 156 H 14.667 2.24902 -4.23032 0
M  V30 157 H 13.031 1.2802 -2.20188 0
M  V30 158 H 13.814 0.14634 -3.42988 0
M  V30 159 N 16.2591 1.48442 0.529413 0
M  V30 160 C 17.1891 1.65902 1.64313 0
M  V30 161 C 18.1701 0.507897 1.6234 0
M  V30 162 O 19.3551 0.740503 1.79528 0
M  V30 163 C 16.4851 1.69911 3.02898 0
M  V30 164 C 15.4391 2.8453 3.19729 0
M  V30 165 C 14.7651 2.73629 4.59381 0
M  V30 166 C 16.0651 4.25821 3.02447 0
M  V30 167 H 17.7591 2.5914 1.49955 0
M  V30 168 H 15.3051 1.24709 0.719982 0
M  V30 169 H 17.2581 1.80715 3.80684 0
M  V30 170 H 15.9821 0.732524 3.18279 0
M  V30 171 H 14.6411 2.73283 2.44361 0
M  V30 172 H 14.2891 1.74938 4.71599 0
M  V30 173 H 13.9891 3.50541 4.71588 0
M  V30 174 H 15.5131 2.86401 5.39265 0
M  V30 175 H 16.9271 4.37898 3.70024 0
M  V30 176 H 15.3241 5.03735 3.26146 0
M  V30 177 H 16.3941 4.42244 1.98867 0
M  V30 178 N 17.7372 -0.778329 1.37039 0
M  V30 179 C 18.6672 -1.90546 1.34962 0
M  V30 180 C 19.6482 -1.68681 0.219274 0
M  V30 181 O 20.8332 -1.89634 0.418624 0
M  V30 182 C 17.9632 -3.27734 1.14925 0
M  V30 183 C 16.9172 -3.64147 2.24902 0
M  V30 184 C 16.2432 -4.99806 1.89996 0
M  V30 185 C 17.5432 -3.71579 3.67051 0
M  V30 186 H 19.2372 -1.92541 2.29277 0
M  V30 187 H 16.7832 -0.924948 1.10366 0
M  V30 188 H 18.7362 -4.06215 1.12104 0
M  V30 189 H 17.4602 -3.26154 0.170631 0
M  V30 190 H 16.1192 -2.8797 2.26868 0
M  V30 191 H 15.7672 -4.94759 0.906796 0
M  V30 192 H 15.4672 -5.25139 2.63634 0
M  V30 193 H 16.9912 -5.80694 1.88749 0
M  V30 194 H 18.4052 -4.40227 3.67251 0
M  V30 195 H 16.8022 -4.08405 4.39688 0
M  V30 196 H 17.8722 -2.72404 4.01154 0
M  V30 197 N 19.2153 -1.21501 -1.00376 0
M  V30 198 C 20.4613 -1.03452 -1.74429 0
M  V30 199 C 20.7943 0.430764 -1.89362 0
M  V30 200 O 20.0693 1.31962 -1.42886 0
M  V30 201 C 20.3523 -1.73375 -3.15615 0
M  V30 202 C 20.2053 -3.27431 -3.08397 0
M  V30 203 C 21.5243 -1.47732 -4.14564 0
M  V30 204 H 18.6433 -0.377226 -0.633143 0
M  V30 205 H 21.2853 -1.49693 -1.17013 0
M  V30 206 H 19.4353 -1.34064 -3.64636 0
M  V30 207 H 21.1073 -3.76119 -2.67081 0
M  V30 208 H 19.3503 -3.5767 -2.45468 0
M  V30 209 H 20.0213 -3.71524 -4.08258 0
M  V30 210 H 22.4973 -1.8186 -3.74254 0
M  V30 211 H 21.3733 -1.99169 -5.11491 0
M  V30 212 H 21.6343 -0.407589 -4.40217 0
M  V30 213 N 20.6934 1.19889 -1.02296 0
M  V30 214 C 21.6234 2.25141 -0.619174 0
M  V30 215 C 22.6044 1.66051 0.368915 0
M  V30 216 O 23.7894 1.92546 0.252941 0
M  V30 217 C 20.9194 3.4728 0.0368783 0
M  V30 218 C 19.8734 4.19005 -0.872865 0
M  V30 219 C 19.1994 5.34637 -0.0822402 0
M  V30 220 C 20.4994 4.74452 -2.18387 0
M  V30 221 H 22.1934 2.59171 -1.49903 0
M  V30 222 H 19.7394 1.24579 -0.722222 0
M  V30 223 H 21.6924 4.20098 0.330958 0
M  V30 224 H 20.4164 3.12433 0.95149 0
M  V30 225 H 19.0754 3.48061 -1.15105 0
M  V30 226 H 18.7234 4.96034 0.83422 0
M  V30 227 H 18.4234 5.83557 -0.688149 0
M  V30 228 H 19.9474 6.10255 0.205238 0
M  V30 229 H 21.3614 5.39055 -1.95172 0
M  V30 230 H 19.7584 5.33834 -2.74119 0
M  V30 231 H 20.8284 3.92844 -2.84257 0
M  V30 232 N 22.1715 0.800033 1.35784 0
M  V30 233 C 23.1035 0.163596 2.28615 0
M  V30 234 C 24.1165 -0.633317 1.49976 0
M  V30 235 O 25.3055 -0.466754 1.72289 0
M  V30 236 C 22.4055 -0.790958 3.29541 0
M  V30 237 C 21.5785 -0.0418255 4.3738 0
M  V30 238 C 20.6375 -0.91389 5.18203 0
M  V30 239 O 19.6635 -0.367234 5.68014 0
M  V30 240 N 20.8655 -2.23682 5.35674 0
M  V30 241 H 23.6305 0.96105 2.83873 0
M  V30 242 H 21.1915 0.654894 1.48063 0
M  V30 243 H 23.1835 -1.37844 3.80501 0
M  V30 244 H 21.7535 -1.48925 2.74846 0
M  V30 245 H 20.9735 0.726813 3.87442 0
M  V30 246 H 22.2615 0.474719 5.06581 0
M  V30 247 H 21.6595 -2.70497 4.96838 0
M  V30 248 H 20.2165 -2.77369 5.89839 0
M  V30 249 N 23.6496 -1.47581 0.552962 0
M  V30 250 C 24.6126 -2.28439 -0.186605 0
M  V30 251 C 25.6126 -1.36706 -0.84665 0
M  V30 252 O 26.8026 -1.59378 -0.703164 0
M  V30 253 C 23.9346 -3.16264 -1.2724 0
M  V30 254 H 25.1276 -2.95294 0.523609 0
M  V30 255 H 22.6806 -1.532 0.309745 0
M  V30 256 H 23.4156 -2.54091 -2.01514 0
M  V30 257 H 23.2006 -3.83769 -0.803968 0
M  V30 258 H 24.6906 -3.77198 -1.79196 0
M  V30 259 N 25.1277 -0.289203 -1.54924 0
M  V30 260 C 26.3757 0.322879 -1.99504 0
M  V30 261 C 26.6967 1.55313 -1.1791 0
M  V30 262 O 25.9667 1.94001 -0.272097 0
M  V30 263 H 24.5467 0.122291 -0.736922 0
M  V30 264 H 27.2087 -0.397802 -1.90797 0
M  V30 265 H 26.3047 0.603061 -3.06218 0
M  V30 266 N 26.6058 1.57591 -0.0167156 0
M  V30 267 C 27.8528 1.91283 0.664597 0
M  V30 268 C 28.1808 0.891949 1.72842 0
M  V30 269 O 27.4358 -0.100931 1.9544 0
M  V30 270 C 27.7348 3.3172 1.33029 0
M  V30 271 C 27.4008 4.4914 0.398047 0
M  V30 272 C 26.0628 4.80992 0.141421 0
M  V30 273 C 28.4148 5.20634 -0.242825 0
M  V30 274 C 25.7428 5.81703 -0.764092 0
M  V30 275 C 28.0948 6.22311 -1.13632 0
M  V30 276 C 26.7588 6.52611 -1.40196 0
M  V30 277 H 26.0288 0.699956 0.243193 0
M  V30 278 H 28.6758 1.9135 -0.0758267 0
M  V30 279 H 26.9808 3.27856 2.14517 0
M  V30 280 H 28.6778 3.55055 1.86379 0
M  V30 281 H 25.2678 4.24262 0.608238 0
M  V30 282 H 29.4518 4.96267 -0.0576019 0
M  V30 283 H 24.7078 6.03532 -0.977732 0
M  V30 284 H 28.8818 6.76834 -1.63917 0
M  V30 285 H 26.5088 7.30467 -2.10529 0
M  V30 286 N 28.0839 -0.256276 1.55502 0
M  V30 287 C 29.3309 -0.985619 1.76895 0
M  V30 288 C 29.6589 -1.85671 0.579355 0
M  V30 289 O 28.9139 -1.90744 -0.437651 0
M  V30 290 C 29.2129 -1.88432 3.03691 0
M  V30 291 C 28.8789 -1.16936 4.35473 0
M  V30 292 C 27.5409 -0.97173 4.71286 0
M  V30 293 C 29.8929 -0.661889 5.1698 0
M  V30 294 C 27.2209 -0.254179 5.86149 0
M  V30 295 C 29.5729 0.042149 6.32586 0
M  V30 296 C 28.2369 0.25134 6.67027 0
M  V30 297 H 27.5069 -0.360663 0.647304 0
M  V30 298 H 30.1539 -0.256483 1.89775 0
M  V30 299 H 28.4589 -2.68021 2.85783 0
M  V30 300 H 30.1559 -2.45015 3.1744 0
M  V30 301 H 26.7459 -1.33332 4.07333 0
M  V30 302 H 30.9299 -0.802145 4.89775 0
M  V30 303 H 26.1859 -0.0815408 6.11346 0
M  V30 304 H 30.3599 0.443049 6.94989 0
M  V30 305 H 27.9869 0.809314 7.5588 0
M  V30 306 N 29.562 -1.4872 -0.521534 0
M  V30 307 C 30.492 -1.66771 -1.63431 0
M  V30 308 C 31.473 -0.516499 -1.62069 0
M  V30 309 O 32.658 -0.750013 -1.79132 0
M  V30 310 C 29.788 -1.71515 -3.01993 0
M  V30 311 C 28.742 -2.86222 -3.18216 0
M  V30 312 C 28.068 -2.76061 -4.57924 0
M  V30 313 C 29.368 -4.27419 -3.00184 0
M  V30 314 H 31.062 -2.59932 -1.48579 0
M  V30 315 H 28.608 -1.25089 -0.713358 0
M  V30 316 H 30.561 -1.82731 -3.7972 0
M  V30 317 H 29.285 -0.749393 -3.17886 0
M  V30 318 H 27.944 -2.74575 -2.42908 0
M  V30 319 H 27.592 -1.77437 -4.70665 0
M  V30 320 H 27.292 -3.53037 -4.69722 0
M  V30 321 H 28.816 -2.89256 -5.37739 0
M  V30 322 H 30.23 -4.39855 -3.67697 0
M  V30 323 H 28.627 -5.05458 -3.2347 0
M  V30 324 H 29.697 -4.43293 -1.96518 0
M  V30 325 N 31.0401 0.771051 -1.3745 0
M  V30 326 C 31.9701 1.89827 -1.3597 0
M  V30 327 C 32.9511 1.68562 -0.228216 0
M  V30 328 O 34.1361 1.8941 -0.428675 0
M  V30 329 C 31.2661 3.2712 -1.16662 0
M  V30 330 C 30.2201 3.6295 -2.2683 0
M  V30 331 C 29.5461 4.98791 -1.92644 0
M  V30 332 C 30.8461 3.69627 -3.69017 0
M  V30 333 H 32.5401 1.91323 -2.30295 0
M  V30 334 H 30.0861 0.919082 -1.10855 0
M  V30 335 H 32.0391 4.05615 -1.14256 0
M  V30 336 H 30.7631 3.26059 -0.187926 0
M  V30 337 H 29.4221 2.86763 -2.28392 0
M  V30 338 H 29.0701 4.94271 -0.933021 0
M  V30 339 H 28.7701 5.23733 -2.66416 0
M  V30 340 H 30.2941 5.79685 -1.91826 0
M  V30 341 H 31.7081 4.38273 -3.69581 0
M  V30 342 H 30.1051 4.06067 -4.41848 0
M  V30 343 H 31.1751 2.70273 -4.02592 0
M  V30 344 N 32.5182 1.22032 0.997298 0
M  V30 345 C 33.7462 1.06841 1.7718 0
M  V30 346 C 34.1612 -0.381325 1.84909 0
M  V30 347 O 33.5182 -1.26437 1.31605 0
M  V30 348 C 33.5692 1.66814 3.20711 0
M  V30 349 O 33.2902 3.06116 3.13408 0
M  V30 350 C 34.7912 1.56838 4.14628 0
M  V30 351 H 32.0112 0.374782 0.556578 0
M  V30 352 H 34.5552 1.61532 1.2541 0
M  V30 353 H 32.7102 1.16196 3.69564 0
M  V30 354 H 33.1242 3.34926 4.0364 0
M  V30 355 H 34.5982 2.03532 5.13107 0
M  V30 356 H 35.0752 0.524155 4.36061 0
M  V30 357 H 35.6812 2.06741 3.7167 0
M  V30 358 N 33.9963 -1.19345 1.0293 0
M  V30 359 C 35.4123 -1.41069 0.746446 0
M  V30 360 C 35.6123 -1.90078 -0.668776 0
M  V30 361 O 34.6683 -2.0778 -1.4347 0
M  V30 362 C 35.9813 -2.42141 1.78292 0
M  V30 363 C 37.5293 -2.55887 1.80252 0
M  V30 364 C 38.0043 -3.60214 2.8286 0
M  V30 365 N 39.4953 -3.67711 2.81679 0
M  V30 366 C 40.2303 -4.48128 3.57727 0
M  V30 367 N 39.7263 -5.32248 4.43491 0
M  V30 368 N 41.5193 -4.42782 3.46267 0
M  V30 369 H 33.6703 -0.858536 1.94275 0
M  V30 370 H 35.9333 -0.439541 0.839945 0
M  V30 371 H 35.6393 -2.13155 2.79746 0
M  V30 372 H 35.5133 -3.41323 1.60557 0
M  V30 373 H 37.9003 -2.84196 0.794757 0
M  V30 374 H 37.9813 -1.56858 2.02062 0
M  V30 375 H 37.6253 -3.32647 3.83807 0
M  V30 376 H 37.5553 -4.58895 2.58307 0
M  V30 377 H 40.0463 -3.07634 2.19476 0
M  V30 378 H 40.3593 -5.90729 4.98256 0
M  V30 379 H 38.7043 -5.31707 4.47564 0
M  V30 380 H 41.8953 -3.76107 2.78677 0
M  V30 381 H 42.0683 -5.05215 4.05785 0
M  V30 382 N 35.4744 -0.807222 -1.35358 0
M  V30 383 C 36.7234 -0.384376 -1.98004 0
M  V30 384 C 37.0364 1.0543 -1.64754 0
M  V30 385 O 38.2424 1.58029 -2.20769 0
M  V30 386 C 36.6984 -0.636326 -3.5423 0
M  V30 387 C 36.3064 -2.08759 -3.96388 0
M  V30 388 C 38.0504 -0.278869 -4.23583 0
M  V30 389 C 35.9574 -2.28525 -5.45463 0
M  V30 390 H 34.8874 -0.139986 -0.740891 0
M  V30 391 H 37.5384 -0.991369 -1.54415 0
M  V30 392 H 35.9204 0.0406256 -3.95979 0
M  V30 393 H 37.0944 -2.8024 -3.6579 0
M  V30 394 H 35.4094 -2.40497 -3.39926 0
M  V30 395 H 38.0064 -0.404599 -5.33167 0
M  V30 396 H 38.3494 0.775012 -4.09022 0
M  V30 397 H 38.8824 -0.909764 -3.87257 0
M  V30 398 H 35.6214 -3.32361 -5.64992 0
M  V30 399 H 35.1414 -1.61569 -5.77629 0
M  V30 400 H 36.8204 -2.10109 -6.11934 0
M  V30 401 N 36.9525 1.47285 -0.560781 0
M  V30 402 C 37.8825 2.32857 0.173105 0
M  V30 403 C 38.8635 1.44009 0.905281 0
M  V30 404 O 40.0485 1.7286 0.885046 0
M  V30 405 C 37.1785 3.25861 1.20133 0
M  V30 406 C 36.1325 4.23978 0.585388 0
M  V30 407 C 35.4585 5.06332 1.7185 0
M  V30 408 C 36.7585 5.20242 -0.463178 0
M  V30 409 H 38.4525 2.94466 -0.541307 0
M  V30 410 H 35.9985 1.41601 -0.261764 0
M  V30 411 H 37.9515 3.84569 1.72293 0
M  V30 412 H 36.6755 2.62315 1.94573 0
M  V30 413 H 35.3345 3.66501 0.085054 0
M  V30 414 H 34.9825 4.39186 2.45203 0
M  V30 415 H 34.6825 5.72762 1.31213 0
M  V30 416 H 36.2065 5.67899 2.24329 0
M  V30 417 H 37.6205 5.73293 -0.027502 0
M  V30 418 H 36.0175 5.94896 -0.788627 0
M  V30 419 H 37.0875 4.65504 -1.35773 0
M  V30 420 N 38.4306 0.297415 1.54768 0
M  V30 421 C 39.6586 -0.315623 2.04478 0
M  V30 422 C 40.0736 -1.47792 1.17486 0
M  V30 423 O 39.4306 -1.81404 0.19971 0
M  V30 424 C 39.4816 -0.7753 3.53088 0
M  V30 425 O 39.2026 0.340732 4.36773 0
M  V30 426 C 40.7036 -1.45386 4.18781 0
M  V30 427 H 37.9236 -0.0690887 0.667434 0
M  V30 428 H 40.4676 0.436003 1.99798 0
M  V30 429 H 38.6226 -1.47696 3.58141 0
M  V30 430 H 39.0366 -0.0165035 5.24497 0
M  V30 431 H 40.5106 -1.72669 5.24299 0
M  V30 432 H 40.9876 -2.39275 3.68299 0
M  V30 433 H 41.5936 -0.795475 4.17795 0
M  V30 434 N 39.9087 -1.5758 0.0250728 0
M  V30 435 C 41.1577 -1.90811 -0.653767 0
M  V30 436 C 41.4707 -0.90273 -1.73523 0
M  V30 437 O 42.6767 -1.12614 -2.47043 0
M  V30 438 C 41.1327 -3.38804 -1.21409 0
M  V30 439 C 40.7407 -4.47692 -0.166126 0
M  V30 440 C 42.4847 -3.81108 -1.86967 0
M  V30 441 C 40.3917 -5.86779 -0.737856 0
M  V30 442 H 39.3217 -0.712063 -0.247956 0
M  V30 443 H 41.9727 -1.83281 0.0897137 0
M  V30 444 H 40.3547 -3.41252 -2.00905 0
M  V30 445 H 41.5287 -4.56797 0.606079 0
M  V30 446 H 39.8437 -4.14565 0.390466 0
M  V30 447 H 42.4407 -4.82375 -2.30692 0
M  V30 448 H 42.7837 -3.15953 -2.71071 0
M  V30 449 H 43.3167 -3.81065 -1.14167 0
M  V30 450 H 40.0557 -6.55468 0.0649577 0
M  V30 451 H 39.5757 -5.81288 -1.47864 0
M  V30 452 H 41.2547 -6.35223 -1.22884 0
M  V30 453 N 41.3868 0.248026 -1.55636 0
M  V30 454 C 42.7978 0.817177 -1.67866 0
M  V30 455 C 43.1488 1.86069 -0.622322 0
M  V30 456 O 42.2738 2.15157 0.231618 0
M  V30 457 C 42.8688 1.489 -3.04326 0
M  V30 458 C 41.4278 2.00587 -3.185 0
M  V30 459 C 40.5748 0.856573 -2.63739 0
M  V30 460 H 43.5258 0.0238579 -1.58682 0
M  V30 461 H 43.5468 2.35698 -2.98708 0
M  V30 462 H 43.0588 0.729279 -3.81186 0
M  V30 463 H 41.1598 2.79443 -2.4646 0
M  V30 464 H 41.2728 2.20402 -4.25393 0
M  V30 465 H 39.6368 1.25678 -2.21534 0
M  V30 466 H 40.4198 0.109953 -3.43124 0
M  V30 467 N 42.8649 1.48995 0.513639 0
M  V30 468 C 43.7969 1.60836 1.63293 0
M  V30 469 C 44.8099 0.491701 1.55197 0
M  V30 470 O 45.9989 0.763238 1.6136 0
M  V30 471 C 43.0989 1.53731 3.02027 0
M  V30 472 C 42.2719 2.80715 3.35437 0
M  V30 473 C 41.3309 2.66837 4.53525 0
M  V30 474 O 40.3569 3.40753 4.55934 0
M  V30 475 N 41.5589 1.77539 5.52684 0
M  V30 476 H 44.3239 2.57366 1.53566 0
M  V30 477 H 41.8849 1.45925 0.701259 0
M  V30 478 H 43.8769 1.42118 3.78926 0
M  V30 479 H 42.4469 0.651092 3.05744 0
M  V30 480 H 41.6669 3.06772 2.47557 0
M  V30 481 H 42.9549 3.64927 3.54551 0
M  V30 482 H 42.3529 1.16719 5.53528 0
M  V30 483 H 40.9099 1.71856 6.28736 0
M  V30 484 N 44.343 -0.763751 1.37857 0
M  V30 485 C 45.568 -1.55805 1.36893 0
M  V30 486 C 45.993 -1.88054 -0.0416135 0
M  V30 487 O 45.351 -1.49825 -1.02089 0
M  V30 488 C 45.399 -2.84012 2.22192 0
M  V30 489 O 44.503 -3.78732 1.63204 0
M  V30 490 H 43.844 -0.471638 0.46739 0
M  V30 491 H 46.374 -0.944657 1.81487 0
M  V30 492 H 46.384 -3.33037 2.35691 0
M  V30 493 H 45.059 -2.59869 3.24716 0
M  V30 494 H 43.636 -3.37402 1.58791 0
M  V30 495 N 45.8211 -1.22559 -0.990812 0
M  V30 496 C 46.7511 -1.0218 -2.09956 0
M  V30 497 C 47.7321 0.0579394 -1.70001 0
M  V30 498 O 48.9171 -0.104684 -1.93918 0
M  V30 499 C 46.0471 -0.601023 -3.4206 0
M  V30 500 C 45.0011 -1.62694 -3.95872 0
M  V30 501 C 44.3271 -1.06193 -5.24049 0
M  V30 502 C 45.6271 -3.01743 -4.2632 0
M  V30 503 H 47.3211 -1.94916 -2.27262 0
M  V30 504 H 44.8671 -0.938566 -1.09211 0
M  V30 505 H 46.8201 -0.445561 -4.19038 0
M  V30 506 H 45.5441 0.362005 -3.24588 0
M  V30 507 H 44.2031 -1.77021 -3.21028 0
M  V30 508 H 43.8511 -0.0901903 -5.02919 0
M  V30 509 H 43.5511 -1.74732 -5.61019 0
M  V30 510 H 45.0751 -0.918092 -6.03658 0
M  V30 511 H 46.4891 -2.90777 -4.94087 0
M  V30 512 H 44.8861 -3.67425 -4.74467 0
M  V30 513 H 45.9561 -3.51518 -3.34011 0
M  V30 514 N 47.2992 1.18797 -1.03562 0
M  V30 515 C 48.5762 1.84469 -0.650434 0
M  V30 516 C 48.9562 1.92319 0.870433 0
M  V30 517 O 48.3042 1.44528 1.76986 0
M  V30 518 C 48.5142 3.2306 -1.32036 0
M  V30 519 C 49.8622 3.9915 -1.44792 0
M  V30 520 O 50.8862 3.32481 -1.27806 0
M  V30 521 O 49.7452 5.18587 -1.72423 0
M  V30 522 H 46.8392 0.795251 -0.226946 0
M  V30 523 H 49.3852 1.26231 -1.13419 0
M  V30 524 H 48.1572 3.1222 -2.3587 0
M  V30 525 H 47.7802 3.88949 -0.8249 0
M  V30 526 N 48.7773 0.814389 1.34928 0
M  V30 527 C 50.0023 0.410097 2.03305 0
M  V30 528 C 50.4273 -0.973464 1.60951 0
M  V30 529 O 49.7853 -1.63185 0.789964 0
M  V30 530 C 49.8333 0.51049 3.56968 0
M  V30 531 O 48.9373 -0.473035 4.09678 0
M  V30 532 H 48.2783 0.170088 0.641846 0
M  V30 533 H 50.8083 1.10244 1.72358 0
M  V30 534 H 50.8183 0.383135 4.06197 0
M  V30 535 H 49.4933 1.51963 3.87144 0
M  V30 536 H 48.0703 -0.305272 3.71648 0
M  V30 537 N 50.2554 -1.46986 0.568584 0
M  V30 538 C 51.5014 -2.0332 0.0571487 0
M  V30 539 C 51.8564 -1.43384 -1.28291 0
M  V30 540 O 51.1494 -0.584304 -1.82473 0
M  V30 541 C 51.3434 -3.57306 -0.081836 0
M  V30 542 C 51.1724 -4.32174 1.24321 0
M  V30 543 C 49.9424 -4.71633 1.81358 0
M  V30 544 C 52.1404 -4.66598 2.16312 0
M  V30 545 N 50.1224 -5.31191 3.07748 0
M  V30 546 C 51.4934 -5.26578 3.27285 0
M  V30 547 C 53.5484 -4.48527 2.16166 0
M  V30 548 C 52.2514 -5.70395 4.38226 0
M  V30 549 C 54.2774 -4.93351 3.26127 0
M  V30 550 C 53.6394 -5.5339 4.3582 0
M  V30 551 H 49.7384 -0.77943 0.063351 0
M  V30 552 H 52.3224 -1.79323 0.758378 0
M  V30 553 H 50.4934 -3.81046 -0.752207 0
M  V30 554 H 52.2254 -4.00282 -0.59637 0
M  V30 555 H 48.9804 -4.53946 1.35019 0
M  V30 556 H 49.4044 -5.65505 3.72201 0
M  V30 557 H 54.0464 -4.01456 1.32638 0
M  V30 558 H 51.7644 -6.16452 5.22506 0
M  V30 559 H 55.3504 -4.81131 3.27115 0
M  V30 560 H 54.2304 -5.87441 5.19503 0
M  V30 561 N 51.7335 -0.305618 -1.54608 0
M  V30 562 C 52.9795 0.295595 -2.01241 0
M  V30 563 C 53.3345 1.51171 -1.19018 0
M  V30 564 O 52.6275 1.89832 -0.259684 0
M  V30 565 C 52.8215 0.698983 -3.50498 0
M  V30 566 C 52.6505 -0.476491 -4.47168 0
M  V30 567 C 51.4205 -0.969963 -4.95903 0
M  V30 568 C 53.6185 -1.32294 -4.96994 0
M  V30 569 N 51.6005 -2.11172 -5.76437 0
M  V30 570 C 52.9715 -2.31212 -5.75275 0
M  V30 571 C 55.0265 -1.35278 -4.7917 0
M  V30 572 C 53.7295 -3.32896 -6.37631 0
M  V30 573 C 55.7555 -2.35823 -5.42348 0
M  V30 574 C 55.1175 -3.33469 -6.20466 0
M  V30 575 H 51.2165 0.0724992 -0.778632 0
M  V30 576 H 53.8005 -0.436583 -1.89742 0
M  V30 577 H 51.9715 1.40032 -3.62278 0
M  V30 578 H 53.7035 1.28013 -3.8392 0
M  V30 579 H 50.4585 -0.544178 -4.70463 0
M  V30 580 H 50.8825 -2.68714 -6.21387 0
M  V30 581 H 55.5245 -0.61157 -4.18354 0
M  V30 582 H 53.2425 -4.07933 -6.97579 0
M  V30 583 H 56.8285 -2.38911 -5.30484 0
M  V30 584 H 55.7085 -4.09996 -6.68485 0
M  V30 585 N 53.2116 1.57565 -0.0334293 0
M  V30 586 C 54.4396 1.9628 0.654347 0
M  V30 587 C 54.8546 0.910138 1.65414 0
M  V30 588 O 54.2116 -0.107595 1.82183 0
M  V30 589 C 54.2626 3.35067 1.35693 0
M  V30 590 O 53.9836 4.36296 0.397191 0
M  V30 591 C 55.4846 3.88439 2.13613 0
M  V30 592 H 52.7046 0.646369 0.180132 0
M  V30 593 H 55.2486 2.04282 -0.0944721 0
M  V30 594 H 53.4036 3.2827 2.05712 0
M  V30 595 H 53.8176 5.1678 0.896597 0
M  V30 596 H 55.2916 4.8788 2.58219 0
M  V30 597 H 55.7686 3.22914 2.97696 0
M  V30 598 H 56.3746 3.98516 1.48543 0
M  V30 599 N 54.6897 -0.239769 1.55765 0
M  V30 600 C 55.9147 -0.988373 1.82335 0
M  V30 601 C 56.3397 -1.77886 0.611421 0
M  V30 602 O 55.6977 -1.75889 -0.439639 0
M  V30 603 C 55.7457 -1.89627 3.06715 0
M  V30 604 O 54.8497 -2.98904 2.84131 0
M  V30 605 H 54.1907 -0.280858 0.601677 0
M  V30 606 H 56.7207 -0.258597 2.02959 0
M  V30 607 H 56.7307 -2.30957 3.36338 0
M  V30 608 H 55.4057 -1.31511 3.9456 0
M  V30 609 H 53.9827 -2.61651 2.65694 0
M  V30 610 N 56.1678 -1.49265 -0.50573 0
M  V30 611 C 57.0978 -1.68495 -1.61653 0
M  V30 612 C 58.0788 -0.53366 -1.61512 0
M  V30 613 O 59.2638 -0.76897 -1.78327 0
M  V30 614 C 56.3938 -1.74709 -3.00157 0
M  V30 615 C 55.3478 -2.89581 -3.15162 0
M  V30 616 C 54.6738 -2.80903 -4.5497 0
M  V30 617 C 55.9738 -4.30578 -2.95634 0
M  V30 618 H 57.6678 -2.61493 -1.45814 0
M  V30 619 H 55.2138 -1.25838 -0.70005 0
M  V30 620 H 57.1668 -1.86748 -3.77761 0
M  V30 621 H 55.8908 -0.783067 -3.17074 0
M  V30 622 H 54.5498 -2.77136 -2.39982 0
M  V30 623 H 54.1978 -1.82419 -4.68756 0
M  V30 624 H 53.8978 -3.57999 -4.65951 0
M  V30 625 H 55.4218 -2.94944 -5.34641 0
M  V30 626 H 56.8358 -4.4373 -3.63011 0
M  V30 627 H 55.2328 -5.0886 -3.18091 0
M  V30 628 H 56.3028 -4.45352 -1.91806 0
M  V30 629 N 57.6459 0.756429 -1.3826 0
M  V30 630 C 58.5939 1.89149 -1.35372 0
M  V30 631 C 59.5879 1.67691 -0.24004 0
M  V30 632 O 60.7939 1.75294 -0.408919 0
M  V30 633 H 57.1689 0.622271 -0.422236 0
M  V30 634 H 59.1399 1.88701 -2.31159 0
M  V30 635 C 57.8889 3.26599 -1.19284 0
M  V30 636 H 57.2119 3.43695 -2.0424 0
M  V30 637 H 58.6519 4.06274 -1.21316 0
M  V30 638 C 57.1109 3.3675 0.100454 0
M  V30 639 O 57.6409 3.86951 1.07851 0
M  V30 640 N 55.8469 2.90179 0.15633 0
M  V30 641 H 55.3939 2.49517 -0.640253 0
M  V30 642 H 55.3519 2.97352 1.02123 0
M  V30 643 N 59.124 1.23083 0.984299 0
M  V30 644 C 60.371 1.06057 1.72505 0
M  V30 645 C 60.699 -0.403105 1.90277 0
M  V30 646 O 59.954 -1.3149 1.44944 0
M  V30 647 C 60.253 1.72673 3.1292 0
M  V30 648 C 59.919 3.22586 3.15038 0
M  V30 649 C 58.581 3.63489 3.15324 0
M  V30 650 C 60.933 4.185 3.10657 0
M  V30 651 C 58.261 4.98772 3.08939 0
M  V30 652 C 60.613 5.53769 3.05814 0
M  V30 653 C 59.277 5.94041 3.04419 0
M  V30 654 H 58.547 0.388091 0.631242 0
M  V30 655 H 61.194 1.52963 1.15215 0
M  V30 656 H 59.499 1.18116 3.73572 0
M  V30 657 H 61.196 1.56982 3.68996 0
M  V30 658 H 57.786 2.90022 3.15571 0
M  V30 659 H 61.97 3.87911 3.09579 0
M  V30 660 H 57.226 5.29193 3.0621 0
M  V30 661 H 61.4 6.27808 3.0138 0
M  V30 662 H 59.027 6.98833 2.99227 0
M  V30 663 N 60.6021 -1.18246 1.0419 0
M  V30 664 C 61.5321 -2.24127 0.654914 0
M  V30 665 C 62.5131 -1.66617 -0.342451 0
M  V30 666 O 63.6981 -1.92924 -0.222277 0
M  V30 667 C 60.8281 -3.47295 0.0183757 0
M  V30 668 C 59.7821 -4.17563 0.939414 0
M  V30 669 C 59.1081 -5.34438 0.167286 0
M  V30 670 C 60.4081 -4.70917 2.25908 0
M  V30 671 H 62.1021 -2.56753 1.54007 0
M  V30 672 H 59.6481 -1.23414 0.74195 0
M  V30 673 H 61.6011 -4.20572 -0.264082 0
M  V30 674 H 60.3251 -3.13907 -0.901664 0
M  V30 675 H 58.9841 -3.46186 1.20628 0
M  V30 676 H 58.6321 -4.97298 -0.7552 0
M  V30 677 H 58.3321 -5.82388 0.780901 0
M  V30 678 H 59.8561 -6.10504 -0.108125 0
M  V30 679 H 61.2701 -5.35882 2.03724 0
M  V30 680 H 59.6671 -5.29406 2.82577 0
M  V30 681 H 60.7371 -3.88272 2.9047 0
M  V30 682 N 62.0802 -0.821533 -1.34494 0
M  V30 683 C 63.3282 -0.408139 -1.97936 0
M  V30 684 C 63.6492 1.03193 -1.65457 0
M  V30 685 O 62.9192 1.71622 -0.944595 0
M  V30 686 H 61.4992 -0.147928 -0.732206 0
M  V30 687 H 64.1612 -1.05067 -1.64155 0
M  V30 688 H 63.2572 -0.52601 -3.07635 0
M  V30 689 N 63.5583 1.46682 -0.576371 0
M  V30 690 C 64.8063 2.02013 -0.0594163 0
M  V30 691 C 65.1273 1.45101 1.30271 0
M  V30 692 O 64.3973 0.633317 1.8538 0
M  V30 693 H 62.9773 0.746759 -0.0189745 0
M  V30 694 H 65.6393 1.79862 -0.750717 0
M  V30 695 H 64.7353 3.12097 0.014345 0
M  V30 696 N 65.0364 0.313813 1.54444 0
M  V30 697 C 66.2644 -0.293918 2.04802 0
M  V30 698 C 66.6794 -1.46537 1.19047 0
M  V30 699 O 66.0364 -1.81182 0.218939 0
M  V30 700 C 66.0874 -0.737806 3.53891 0
M  V30 701 O 65.8084 0.387038 4.36387 0
M  V30 702 C 67.3094 -1.40936 4.203 0
M  V30 703 H 64.5294 -0.0620057 0.668129 0
M  V30 704 H 67.0734 0.457169 1.99324 0
M  V30 705 H 65.2284 -1.43889 3.59687 0
M  V30 706 H 65.6424 0.0391274 5.24485 0
M  V30 707 H 67.1164 -1.67099 5.26101 0
M  V30 708 H 67.5934 -2.35355 3.70816 0
M  V30 709 H 68.1994 -0.751117 4.18615 0
M  V30 710 N 66.5145 -1.57545 0.0417849 0
M  V30 711 C 67.7425 -1.96624 -0.643928 0
M  V30 712 C 68.1575 -0.918897 -1.64929 0
M  V30 713 O 67.5145 0.0979323 -1.82237 0
M  V30 714 C 67.5655 -3.35781 -1.33914 0
M  V30 715 O 67.2865 -4.365 -0.374048 0
M  V30 716 C 68.7875 -3.89566 -2.1155 0
M  V30 717 H 66.0075 -0.647316 -0.176702 0
M  V30 718 H 68.5515 -2.04229 0.105304 0
M  V30 719 H 66.7065 -3.29357 -2.03968 0
M  V30 720 H 67.1205 -5.17248 -0.869179 0
M  V30 721 H 68.5945 -4.89242 -2.55628 0
M  V30 722 H 69.0715 -3.24488 -2.9598 0
M  V30 723 H 69.6775 -3.99298 -1.46427 0
M  V30 724 N 67.9926 0.231505 -1.5589 0
M  V30 725 C 69.2386 0.95877 -1.78705 0
M  V30 726 C 69.5716 1.8438 -0.609725 0
M  V30 727 O 68.8466 1.90521 0.391426 0
M  V30 728 C 69.1296 1.8062 -3.11526 0
M  V30 729 C 68.9826 0.948328 -4.39689 0
M  V30 730 C 70.3016 2.78585 -3.40703 0
M  V30 731 H 67.4206 0.347129 -0.650131 0
M  V30 732 H 70.0626 0.228259 -1.88624 0
M  V30 733 H 68.2126 2.42902 -3.03201 0
M  V30 734 H 69.8846 0.343016 -4.60023 0
M  V30 735 H 68.1276 0.253314 -4.3306 0
M  V30 736 H 68.7986 1.57543 -5.29041 0
M  V30 737 H 71.2746 2.26439 -3.49091 0
M  V30 738 H 70.1506 3.34988 -4.34826 0
M  V30 739 H 70.4116 3.55825 -2.62375 0
M  V30 740 N 69.4707 1.49531 0.497807 0
M  V30 741 C 70.7107 1.60799 1.26187 0
M  V30 742 C 71.0747 0.289627 1.89803 0
M  V30 743 O 72.2757 0.277512 2.67364 0
M  V30 744 C 70.5467 2.73729 2.29798 0
M  V30 745 S 72.1057 3.04968 3.155 0
M  V30 746 H 68.9237 0.567145 0.428798 0
M  V30 747 H 71.5257 1.87204 0.563477 0
M  V30 748 H 70.2297 3.68036 1.81597 0
M  V30 749 H 69.7607 2.49328 3.04301 0
M  V30 750 H 71.7757 2.46735 4.30507 0
M  V30 751 N 70.9488 -0.749086 1.3866 0
M  V30 752 C 71.8788 -1.8764 1.38973 0
M  V30 753 C 72.8598 -1.68178 0.255004 0
M  V30 754 O 74.0448 -1.88704 0.458754 0
M  V30 755 C 71.1748 -3.25222 1.21851 0
M  V30 756 C 70.1288 -3.59295 2.32575 0
M  V30 757 C 69.4548 -4.95663 2.00555 0
M  V30 758 C 70.7548 -3.63709 3.7485 0
M  V30 759 H 72.4488 -1.87635 2.3331 0
M  V30 760 H 69.9948 -0.901329 1.12303 0
M  V30 761 H 71.9478 -4.03746 1.20695 0
M  V30 762 H 70.6718 -3.25719 0.239775 0
M  V30 763 H 69.3308 -2.83093 2.32925 0
M  V30 764 H 68.9788 -4.92724 1.01154 0
M  V30 765 H 68.6788 -5.19429 2.74714 0
M  V30 766 H 70.2028 -5.7656 2.01024 0
M  V30 767 H 71.6168 -4.32338 3.76506 0
M  V30 768 H 70.0138 -3.98986 4.48252 0
M  V30 769 H 71.0838 -2.63834 4.06841 0
M  V30 770 N 72.4269 -1.23603 -0.977757 0
M  V30 771 C 73.6749 -1.06759 -1.71601 0
M  V30 772 C 73.9959 0.395929 -1.90938 0
M  V30 773 O 73.2659 1.28356 -1.47992 0
M  V30 774 H 71.8459 -0.392062 -0.635843 0
M  V30 775 H 74.5079 -1.55362 -1.1768 0
M  V30 776 H 73.6039 -1.55763 -2.70452 0
M  V30 777 N 73.905 1.17692 -1.04816 0
M  V30 778 C 74.837 2.21103 -0.603822 0
M  V30 779 C 75.85 1.59411 0.33046 0
M  V30 780 O 77.039 1.7807 0.12379 0
M  V30 781 C 74.139 3.38623 0.136898 0
M  V30 782 C 73.312 4.29888 -0.807137 0
M  V30 783 C 72.371 5.26088 -0.10836 0
M  V30 784 O 71.397 5.64353 -0.741232 0
M  V30 785 N 72.599 5.68882 1.15558 0
M  V30 786 H 75.364 2.59848 -1.49329 0
M  V30 787 H 72.925 1.32553 -0.929587 0
M  V30 788 H 74.917 4.00009 0.614401 0
M  V30 789 H 73.487 2.98508 0.927993 0
M  V30 790 H 72.707 3.65993 -1.46434 0
M  V30 791 H 73.995 4.87759 -1.44807 0
M  V30 792 H 73.393 5.39861 1.69015 0
M  V30 793 H 71.95 6.32429 1.57722 0
M  V30 794 N 75.3831 0.828654 1.34056 0
M  V30 795 C 76.3311 0.242973 2.31327 0
M  V30 796 C 77.3251 -0.61944 1.57668 0
M  V30 797 O 78.5311 -0.51014 1.7262 0
M  V30 798 H 74.9061 0.059834 0.749616 0
M  V30 799 H 76.8771 1.07809 2.78244 0
M  V30 800 C 75.6261 -0.575733 3.429 0
M  V30 801 H 74.9491 0.0785582 3.99723 0
M  V30 802 H 76.3891 -0.951547 4.13185 0
M  V30 803 C 74.8481 -1.75044 2.87856 0
M  V30 804 O 75.3781 -2.84882 2.83205 0
M  V30 805 N 73.5841 -1.56903 2.44602 0
M  V30 806 H 73.1311 -0.675547 2.48584 0
M  V30 807 H 73.0891 -2.35652 2.08124 0
M  V30 808 N 76.8612 -1.46375 0.584142 0
M  V30 809 C 78.0862 -2.07268 0.0740405 0
M  V30 810 C 78.5112 -1.42979 -1.22223 0
M  V30 811 O 77.8692 -0.514092 -1.73859 0
M  V30 812 C 77.9172 -3.60518 -0.0767769 0
M  V30 813 O 77.0212 -3.96533 -1.13292 0
M  V30 814 H 76.3622 -0.660961 0.0634524 0
M  V30 815 H 78.8922 -1.87991 0.807492 0
M  V30 816 H 78.9022 -4.07021 -0.282489 0
M  V30 817 H 77.5772 -4.06702 0.86986 0
M  V30 818 H 76.1542 -3.61738 -0.905553 0
M  V30 819 N 78.3393 -0.321999 -1.54275 0
M  V30 820 C 79.2713 0.578671 -2.21775 0
M  V30 821 C 80.2843 1.08109 -1.21722 0
M  V30 822 O 81.4733 0.994938 -1.482 0
M  V30 823 C 78.5733 1.80661 -2.86731 0
M  V30 824 C 77.7463 1.44314 -4.12907 0
M  V30 825 C 76.8053 2.52845 -4.61472 0
M  V30 826 O 75.8313 2.17054 -5.2619 0
M  V30 827 N 77.0333 3.83748 -4.35566 0
M  V30 828 H 79.7983 0.000709447 -2.997 0
M  V30 829 H 77.3593 -0.145132 -1.61248 0
M  V30 830 H 79.3513 2.52655 -3.16145 0
M  V30 831 H 77.9213 2.29245 -2.12521 0
M  V30 832 H 77.1413 0.554906 -3.90275 0
M  V30 833 H 78.4293 1.17598 -4.95023 0
M  V30 834 H 77.8273 4.15625 -3.83761 0
M  V30 835 H 76.3843 4.51977 -4.69638 0
M  V30 836 N 79.8174 1.5752 -0.0501392 0
M  V30 837 C 81.0424 1.97376 0.636997 0
M  V30 838 C 81.4674 0.927466 1.63645 0
M  V30 839 O 80.8254 -0.10941 1.8097 0
M  V30 840 C 80.8734 3.36304 1.30123 0
M  V30 841 O 79.9774 3.34156 2.41689 0
M  V30 842 H 79.3184 0.642998 0.165679 0
M  V30 843 H 81.8484 2.04258 -0.118233 0
M  V30 844 H 81.8584 3.73008 1.65315 0
M  V30 845 H 80.5334 4.11993 0.568746 0
M  V30 846 H 79.1104 3.09196 2.08451 0
M  V30 847 N 81.2955 -0.223234 1.56011 0
M  V30 848 C 82.7065 -0.790368 1.69145 0
M  V30 849 C 83.0575 -1.85055 0.651845 0
M  V30 850 O 82.1825 -2.15498 -0.197359 0
M  V30 851 C 82.7775 -1.4404 3.06656 0
M  V30 852 C 81.3365 -1.95494 3.2165 0
M  V30 853 C 80.4835 -0.814506 2.65068 0
M  V30 854 H 83.4345 0.00139011 1.587 0
M  V30 855 H 83.4555 -2.30916 3.0242 0
M  V30 856 H 82.9675 -0.668543 3.82298 0
M  V30 857 H 81.0685 -2.75487 2.50874 0
M  V30 858 H 81.1815 -2.13607 4.28846 0
M  V30 859 H 79.5455 -1.22137 2.23505 0
M  V30 860 H 80.3285 -0.0553515 3.43255 0
M  V30 861 N 82.7736 -1.49793 -0.48987 0
M  V30 862 C 84.0016 -1.63568 -1.26701 0
M  V30 863 C 84.4166 -0.311465 -1.86213 0
M  V30 864 O 83.7736 0.704416 -1.68357 0
M  V30 865 C 83.8246 -2.71284 -2.38929 0
M  V30 866 O 83.5456 -3.9857 -1.81861 0
M  V30 867 C 85.0466 -2.95864 -3.3012 0
M  V30 868 H 82.2666 -0.550342 -0.383881 0
M  V30 869 H 84.8106 -1.95898 -0.586864 0
M  V30 870 H 82.9656 -2.417 -3.02753 0
M  V30 871 H 83.3796 -4.57993 -2.55622 0
M  V30 872 H 84.8536 -3.74941 -4.05121 0
M  V30 873 H 85.3306 -2.06206 -3.87783 0
M  V30 874 H 85.9366 -3.26907 -2.72051 0
M  V30 875 N 84.2517 0.741722 -1.39055 0
M  V30 876 C 85.4767 1.53607 -1.39354 0
M  V30 877 C 85.9017 1.88096 0.0116905 0
M  V30 878 O 85.2597 1.5143 0.996924 0
M  V30 879 C 85.3077 2.80441 -2.26682 0
M  V30 880 O 84.4117 3.76088 -1.69208 0
M  V30 881 H 83.7527 0.464142 -0.474835 0
M  V30 882 H 86.2827 0.915665 -1.82967 0
M  V30 883 H 86.2927 3.29246 -2.40959 0
M  V30 884 H 84.9677 2.5467 -3.2881 0
M  V30 885 H 83.5447 3.34833 -1.64138 0
M  V30 886 N 85.7298 1.2412 0.971189 0
M  V30 887 C 86.6778 1.02812 2.08644 0
M  V30 888 C 87.6718 -0.0358403 1.69362 0
M  V30 889 O 88.8778 0.118429 1.7961 0
M  V30 890 H 85.2528 0.315428 0.682649 0
M  V30 891 H 87.2238 1.97397 2.23779 0
M  V30 892 C 85.9728 0.645874 3.41649 0
M  V30 893 H 85.2958 1.45632 3.72332 0
M  V30 894 H 86.7358 0.536366 4.20594 0
M  V30 895 C 85.1948 -0.646713 3.30635 0
M  V30 896 O 85.7248 -1.69338 3.64263 0
M  V30 897 N 83.9308 -0.626115 2.83775 0
M  V30 898 H 83.4778 0.225988 2.56607 0
M  V30 899 H 83.4358 -1.49117 2.76788 0
M  V30 900 N 87.2079 -1.17134 1.05439 0
M  V30 901 C 88.1579 -2.1919 0.627675 0
M  V30 902 C 89.1419 -1.57328 -0.337147 0
M  V30 903 O 90.3339 -1.76329 -0.153976 0
M  V30 904 C 87.4629 -3.43299 0.00651435 0
M  V30 905 C 86.5489 -4.12255 0.995312 0
M  V30 906 N 86.9399 -4.56997 2.16765 0
M  V30 907 C 85.2379 -4.38316 0.824336 0
M  V30 908 C 85.9389 -5.10239 2.7934 0
M  V30 909 N 84.9149 -5.02595 2.07122 0
M  V30 910 H 88.7169 -2.5149 1.52086 0
M  V30 911 H 86.2309 -1.33491 0.924868 0
M  V30 912 H 88.2279 -4.15693 -0.316965 0
M  V30 913 H 86.8879 -3.1249 -0.882033 0
M  V30 914 H 87.8989 -4.51006 2.54587 0
M  V30 915 H 84.5759 -4.17498 -0.0129526 0
M  V30 916 H 85.9659 -5.54961 3.78772 0
M  V30 917 N 88.686 -0.835752 -1.33615 0
M  V30 918 C 89.911 -0.442389 -2.02627 0
M  V30 919 C 90.336 0.947735 -1.62479 0
M  V30 920 O 89.694 1.61907 -0.815826 0
M  V30 921 C 89.742 -0.567216 -3.56111 0
M  V30 922 O 88.846 0.407799 -4.10379 0
M  V30 923 H 88.187 -0.180278 -0.639059 0
M  V30 924 H 90.717 -1.12972 -1.70583 0
M  V30 925 H 90.727 -0.447708 -4.05536 0
M  V30 926 H 89.402 -1.58103 -3.84677 0
M  V30 927 H 87.979 0.246107 -3.72087 0
M  V30 928 N 90.1641 1.46063 -0.591896 0
M  V30 929 C 91.5751 1.85944 -0.167822 0
M  V30 930 C 91.9261 1.49429 1.27143 0
M  V30 931 O 91.0511 0.913515 1.96173 0
M  V30 932 C 91.6461 3.37489 -0.297794 0
M  V30 933 C 90.2051 3.76332 0.0714732 0
M  V30 934 C 89.3521 2.7006 -0.629509 0
M  V30 935 H 92.3031 1.37087 -0.799555 0
M  V30 936 H 92.3241 3.77532 0.474349 0
M  V30 937 H 91.8361 3.64034 -1.3454 0
M  V30 938 H 89.9371 3.55405 1.11886 0
M  V30 939 H 90.0501 4.78088 -0.311245 0
M  V30 940 H 88.4141 2.54607 -0.0687867 0
M  V30 941 H 89.1971 2.99444 -1.67894 0
M  V30 942 N 91.6422 0.330177 1.54103 0
M  V30 943 C 92.8702 -0.272179 2.05102 0
M  V30 944 C 93.2852 -1.45267 1.20595 0
M  V30 945 O 92.6422 -1.8094 0.238144 0
M  V30 946 C 92.6932 -0.70023 3.54653 0
M  V30 947 O 92.4142 0.433301 4.35952 0
M  V30 948 C 93.9152 -1.3647 4.21771 0
M  V30 949 H 91.1352 -0.0549159 0.668749 0
M  V30 950 H 93.6792 0.478285 1.98828 0
M  V30 951 H 91.8342 -1.40066 3.61193 0
M  V30 952 H 92.2482 0.0947539 5.24414 0
M  V30 953 H 93.7222 -1.61509 5.27843 0
M  V30 954 H 94.1992 -2.31409 3.73292 0
M  V30 955 H 94.8052 -0.706675 4.19388 0
M  V30 956 N 93.1203 -1.57491 0.0584922 0
M  V30 957 C 94.3453 -1.97711 -0.62652 0
M  V30 958 C 94.7703 -0.936132 -1.63151 0
M  V30 959 O 94.1283 0.099811 -1.81025 0
M  V30 960 C 94.1763 -3.36989 -1.28338 0
M  V30 961 O 93.2803 -3.35433 -2.39913 0
M  V30 962 H 92.6213 -0.643868 -0.162266 0
M  V30 963 H 95.1513 -2.04193 0.129064 0
M  V30 964 H 95.1613 -3.73879 -1.63335 0
M  V30 965 H 93.8363 -4.12289 -0.546889 0
M  V30 966 H 92.4133 -3.10298 -2.06809 0
M  V30 967 N 94.5984 0.214957 -1.56127 0
M  V30 968 C 95.8384 0.945364 -1.81224 0
M  V30 969 C 96.2024 1.81265 -0.633005 0
M  V30 970 O 97.4034 2.57731 -0.763423 0
M  V30 971 C 95.6744 1.75665 -3.1125 0
M  V30 972 S 97.2334 2.54179 -3.57685 0
M  V30 973 H 94.0514 0.317443 -0.6362 0
M  V30 974 H 96.6534 0.210381 -1.94365 0
M  V30 975 H 95.3574 1.10977 -3.9511 0
M  V30 976 H 94.8884 2.53381 -3.00934 0
M  V30 977 H 96.9034 3.7792 -3.21545 0
M  V30 978 N 96.0765 1.50051 0.48192 0
M  V30 979 C 97.4875 1.5348 1.06305 0
M  V30 980 C 97.8385 0.331997 1.93371 0
M  V30 981 O 96.9635 -0.556256 2.09129 0
M  V30 982 C 97.5585 2.7813 1.93466 0
M  V30 983 C 96.1175 2.84275 2.46707 0
M  V30 984 C 95.2645 2.47637 1.24785 0
M  V30 985 H 98.2155 1.56472 0.264995 0
M  V30 986 H 98.2365 2.59372 2.78399 0
M  V30 987 H 97.7485 3.65654 1.30072 0
M  V30 988 H 95.8495 2.01077 3.13686 0
M  V30 989 H 95.9625 3.8691 2.82555 0
M  V30 990 H 94.3265 1.99835 1.57918 0
M  V30 991 H 95.1095 3.37457 0.630694 0
M  V30 992 N 97.5546 -0.734337 1.39446 0
M  V30 993 C 98.9656 -1.31264 1.32766 0
M  V30 994 C 99.3166 -1.96198 -0.00767497 0
M  V30 995 O 98.4416 -1.96346 -0.909796 0
M  V30 996 C 99.0366 -2.38682 2.4045 0
M  V30 997 C 97.5956 -2.92184 2.37288 0
M  V30 998 C 96.7426 -1.6576 2.22304 0
M  V30 999 H 99.6936 -0.531799 1.49525 0
M  V30 1000 H 99.7146 -3.19087 2.07276 0
M  V30 1001 H 99.2266 -1.91392 3.37625 0
M  V30 1002 H 97.3276 -3.43752 1.43754 0
M  V30 1003 H 97.4406 -3.45253 3.3217 0
M  V30 1004 H 95.8046 -1.9012 1.69489 0
M  V30 1005 H 96.5876 -1.20521 3.21449 0
M  V30 1006 N 99.0327 -1.24633 -0.964593 0
M  V30 1007 C 100.261 -1.11501 -1.74285 0
M  V30 1008 C 100.676 0.332165 -1.85855 0
M  V30 1009 O 100.033 1.22903 -1.34911 0
M  V30 1010 C 100.084 -1.75258 -3.16175 0
M  V30 1011 O 99.8047 -3.14318 -3.05182 0
M  V30 1012 C 101.306 -1.67776 -4.10324 0
M  V30 1013 H 98.5257 -0.389407 -0.546446 0
M  V30 1014 H 101.07 -1.64801 -1.21083 0
M  V30 1015 H 99.2247 -1.25954 -3.66353 0
M  V30 1016 H 99.6387 -3.4551 -3.94618 0
M  V30 1017 H 101.113 -2.17064 -5.0753 0
M  V30 1018 H 101.59 -0.639584 -4.34518 0
M  V30 1019 H 102.196 -2.16522 -3.66058 0
M  V30 1020 N 100.511 1.16574 -1.06058 0
M  V30 1021 C 101.751 1.88723 -0.78504 0
M  V30 1022 C 102.115 1.79706 0.676006 0
M  V30 1023 O 103.316 2.46757 1.06603 0
M  V30 1024 C 101.587 3.34338 -1.26304 0
M  V30 1025 S 103.146 4.24366 -1.1162 0
M  V30 1026 H 99.9638 0.651448 -0.284846 0
M  V30 1027 H 102.566 1.40732 -1.35701 0
M  V30 1028 H 101.27 3.38439 -2.32136 0
M  V30 1029 H 100.801 3.87378 -0.685719 0
M  V30 1030 H 102.816 4.96179 -0.0456539 0
M  V30 1031 N 101.989 0.842826 1.3317 0
M  V30 1032 C 103.4 0.496651 1.79973 0
M  V30 1033 C 103.751 -0.984641 1.69703 0
M  V30 1034 O 102.876 -1.76743 1.24863 0
M  V30 1035 C 103.471 0.894727 3.26772 0
M  V30 1036 C 102.03 0.600629 3.71577 0
M  V30 1037 C 101.177 1.10091 2.5451 0
M  V30 1038 H 104.128 1.03116 1.20635 0
M  V30 1039 H 104.149 0.206347 3.7994 0
M  V30 1040 H 103.661 1.97287 3.34215 0
M  V30 1041 H 101.762 -0.467284 3.69658 0
M  V30 1042 H 101.875 1.15863 4.64879 0
M  V30 1043 H 100.239 0.52162 2.49301 0
M  V30 1044 H 101.022 2.18591 2.64713 0
M  V30 1045 N 103.467 -1.45747 0.599634 0
M  V30 1046 C 104.715 -2.01893 0.0915472 0
M  V30 1047 C 105.036 -1.47155 -1.27946 0
M  V30 1048 O 104.306 -0.66273 -1.84349 0
M  V30 1049 H 102.886 -0.746363 0.0308524 0
M  V30 1050 H 105.548 -1.78645 0.779237 0
M  V30 1051 H 104.644 -3.1208 0.0353086 0
M  V30 1052 N 104.945 -0.338344 -1.53925 0
M  V30 1053 C 106.175 0.260919 -2.04946 0
M  V30 1054 C 106.583 1.45174 -1.2133 0
M  V30 1055 O 105.926 1.82122 -0.240262 0
M  V30 1056 C 105.988 0.744596 -3.51704 0
M  V30 1057 C 105.652 -0.325883 -4.55837 0
M  V30 1058 C 106.649 -1.16687 -5.06636 0
M  V30 1059 C 104.334 -0.478317 -5.00017 0
M  V30 1060 C 106.328 -2.14588 -6.00192 0
M  V30 1061 C 104.015 -1.46073 -5.93385 0
M  V30 1062 C 105.013 -2.29297 -6.4336 0
M  V30 1063 O 104.701 -3.25867 -7.34892 0
M  V30 1064 H 104.433 0.0551207 -0.673749 0
M  V30 1065 H 106.987 -0.486984 -1.99544 0
M  V30 1066 H 105.217 1.54366 -3.54553 0
M  V30 1067 H 106.906 1.26383 -3.85723 0
M  V30 1068 H 107.672 -1.06016 -4.73271 0
M  V30 1069 H 103.551 0.159613 -4.60724 0
M  V30 1070 H 107.095 -2.79585 -6.39123 0
M  V30 1071 H 102.992 -1.56802 -6.26166 0
M  V30 1072 H 103.76 -3.21278 -7.5281 0
M  V30 1073 N 106.423 1.57458 -0.0668435 0
M  V30 1074 C 107.839 1.56947 0.289772 0
M  V30 1075 C 108.039 1.07584 1.70376 0
M  V30 1076 O 107.095 0.739486 2.41429 0
M  V30 1077 C 108.408 3.0052 0.103943 0
M  V30 1078 C 109.956 3.12517 0.173857 0
M  V30 1079 C 110.431 4.57997 0.0163682 0
M  V30 1080 N 111.922 4.63144 0.0721352 0
M  V30 1081 C 112.657 5.73394 -0.0253794 0
M  V30 1082 N 112.153 6.92576 -0.176133 0
M  V30 1083 N 113.946 5.62091 0.0313305 0
M  V30 1084 H 106.097 1.87863 -0.991027 0
M  V30 1085 H 108.36 0.86583 -0.38606 0
M  V30 1086 H 108.066 3.40729 -0.871572 0
M  V30 1087 H 107.94 3.67304 0.858366 0
M  V30 1088 H 110.327 2.72197 1.13985 0
M  V30 1089 H 110.408 2.48381 -0.611586 0
M  V30 1090 H 110.052 4.99005 -0.946374 0
M  V30 1091 H 109.982 5.20158 0.821153 0
M  V30 1092 H 112.473 3.77436 0.187263 0
M  V30 1093 H 112.786 7.72418 -0.242821 0
M  V30 1094 H 111.131 6.94678 -0.211429 0
M  V30 1095 H 114.322 4.67867 0.147773 0
M  V30 1096 H 114.495 6.47982 -0.048121 0
M  V30 1097 N 107.901 -0.206675 1.56239 0
M  V30 1098 C 109.147 -0.925733 1.81113 0
M  V30 1099 C 109.502 -1.81368 0.642135 0
M  V30 1100 O 108.795 -1.88126 -0.363211 0
M  V30 1101 C 108.989 -1.78675 3.09532 0
M  V30 1102 C 108.818 -0.98365 4.3881 0
M  V30 1103 C 107.588 -0.672661 5.00803 0
M  V30 1104 C 109.786 -0.341847 5.13163 0
M  V30 1105 N 107.768 0.150283 6.13716 0
M  V30 1106 C 109.139 0.343815 6.19046 0
M  V30 1107 C 111.194 -0.256392 4.97239 0
M  V30 1108 C 109.897 1.10678 7.10734 0
M  V30 1109 C 111.923 0.493142 5.8934 0
M  V30 1110 C 111.285 1.16729 6.94661 0
M  V30 1111 H 107.384 -0.318524 0.714189 0
M  V30 1112 H 109.968 -0.195378 1.93717 0
M  V30 1113 H 108.139 -2.4888 2.98183 0
M  V30 1114 H 109.871 -2.44441 3.22538 0
M  V30 1115 H 106.626 -0.994294 4.63045 0
M  V30 1116 H 107.05 0.551026 6.74754 0
M  V30 1117 H 111.692 -0.763249 4.15854 0
M  V30 1118 H 109.41 1.6251 7.91591 0
M  V30 1119 H 112.996 0.560465 5.79094 0
M  V30 1120 H 111.876 1.738 7.64698 0
M  V30 1121 N 109.379 -1.50304 -0.473955 0
M  V30 1122 C 110.312 -1.63595 -1.59097 0
M  V30 1123 C 111.29 -0.484142 -1.55225 0
M  V30 1124 O 112.474 -0.703271 -1.7489 0
M  V30 1125 C 109.601 -1.61589 -2.97669 0
M  V30 1126 C 108.647 -2.82295 -3.19705 0
M  V30 1127 S 109.48 -4.43635 -2.99913 0
M  V30 1128 C 110.636 -4.44317 -4.40832 0
M  V30 1129 H 110.869 -2.58082 -1.47583 0
M  V30 1130 H 108.402 -1.39531 -0.661087 0
M  V30 1131 H 110.36 -1.61116 -3.7756 0
M  V30 1132 H 109.021 -0.683421 -3.06575 0
M  V30 1133 H 108.214 -2.77188 -4.20931 0
M  V30 1134 H 107.816 -2.8032 -2.47582 0
M  V30 1135 H 110.108 -4.17703 -5.33414 0
M  V30 1136 H 111.051 -5.45911 -4.50984 0
M  V30 1137 H 111.459 -3.74059 -4.22777 0
M  V30 1138 N 110.857 0.726932 -1.39834 0
M  V30 1139 C 112.097 1.4992 -1.38936 0
M  V30 1140 C 112.461 1.91996 0.0126883 0
M  V30 1141 O 113.662 2.68399 0.146715 0
M  V30 1142 C 111.933 2.70013 -2.34153 0
M  V30 1143 S 113.492 3.59563 -2.51515 0
M  V30 1144 H 110.31 0.51271 -0.492595 0
M  V30 1145 H 112.912 0.85107 -1.76003 0
M  V30 1146 H 111.616 2.37254 -3.34871 0
M  V30 1147 H 111.147 3.39748 -1.98331 0
M  V30 1148 H 113.162 4.63973 -1.75909 0
M  V30 1149 N 112.336 1.25143 0.95797 0
M  V30 1150 C 113.266 1.07711 2.07173 0
M  V30 1151 C 114.247 -0.0128462 1.70095 0
M  V30 1152 O 115.432 0.156061 1.93572 0
M  V30 1153 C 112.562 0.691503 3.40346 0
M  V30 1154 C 111.516 1.73132 3.9142 0
M  V30 1155 C 110.842 1.20049 5.21049 0
M  V30 1156 C 112.142 3.1294 4.1817 0
M  V30 1157 H 113.836 2.00873 2.22014 0
M  V30 1158 H 111.382 0.967191 1.06684 0
M  V30 1159 H 113.335 0.556505 4.17709 0
M  V30 1160 H 112.059 -0.275819 3.25433 0
M  V30 1161 H 110.718 1.8547 3.16222 0
M  V30 1162 H 110.366 0.223499 5.02503 0
M  V30 1163 H 110.066 1.89545 5.56189 0
M  V30 1164 H 111.59 1.07782 6.01012 0
M  V30 1165 H 113.004 3.03775 4.86203 0
M  V30 1166 H 111.401 3.79875 4.64559 0
M  V30 1167 H 112.471 3.6025 3.24573 0
M  V30 1168 N 113.814 -1.1601 1.06675 0
M  V30 1169 C 115.23 -1.38622 0.790948 0
M  V30 1170 C 115.43 -1.92109 -0.607965 0
M  V30 1171 O 114.486 -2.12239 -1.36787 0
M  V30 1172 C 115.799 -2.36347 1.85905 0
M  V30 1173 C 117.347 -2.50023 1.88301 0
M  V30 1174 C 117.822 -3.51033 2.94176 0
M  V30 1175 N 119.313 -3.58563 2.93235 0
M  V30 1176 C 120.048 -4.36521 3.71803 0
M  V30 1177 N 119.544 -5.17869 4.602 0
M  V30 1178 N 121.337 -4.31541 3.60178 0
M  V30 1179 H 113.488 -0.796294 1.96908 0
M  V30 1180 H 115.751 -0.412597 0.853503 0
M  V30 1181 H 115.457 -2.04147 2.86386 0
M  V30 1182 H 115.331 -3.36042 1.71334 0
M  V30 1183 H 117.718 -2.81524 0.884769 0
M  V30 1184 H 117.799 -1.5035 2.06951 0
M  V30 1185 H 117.443 -3.20268 3.94196 0
M  V30 1186 H 117.373 -4.50445 2.72776 0
M  V30 1187 H 119.864 -3.00496 2.29152 0
M  V30 1188 H 120.177 -5.74578 5.16797 0
M  V30 1189 H 118.522 -5.17199 4.64253 0
M  V30 1190 H 121.713 -3.67051 2.90502 0
M  V30 1191 H 121.886 -4.9205 4.21653 0
M  V30 1192 N 115.292 -0.849877 -1.32721 0
M  V30 1193 C 116.708 -0.539102 -1.50219 0
M  V30 1194 C 116.908 0.931271 -1.78689 0
M  V30 1195 O 115.964 1.71455 -1.85363 0
M  V30 1196 C 117.277 -1.42196 -2.64954 0
M  V30 1197 C 118.825 -1.42189 -2.78839 0
M  V30 1198 C 119.3 -2.28985 -3.96648 0
M  V30 1199 N 120.791 -2.26754 -4.03902 0
M  V30 1200 C 121.526 -2.90644 -4.94281 0
M  V30 1201 N 121.022 -3.63629 -5.897 0
M  V30 1202 N 122.815 -2.80057 -4.87365 0
M  V30 1203 H 114.966 -1.80156 -1.12506 0
M  V30 1204 H 117.229 -0.769217 -0.554085 0
M  V30 1205 H 116.935 -2.46733 -2.50631 0
M  V30 1206 H 116.809 -1.10591 -3.60624 0
M  V30 1207 H 119.196 -0.38419 -2.92588 0
M  V30 1208 H 119.277 -1.77807 -1.83898 0
M  V30 1209 H 118.921 -3.32819 -3.83658 0
M  V30 1210 H 118.851 -1.90702 -4.90857 0
M  V30 1211 H 121.342 -1.73688 -3.3562 0
M  V30 1212 H 121.655 -4.09558 -6.55349 0
M  V30 1213 H 120 -3.67737 -5.89741 0
M  V30 1214 H 123.191 -2.22593 -4.11789 0
M  V30 1215 H 123.364 -3.30132 -5.57599 0
M  V30 1216 N 116.77 1.45427 -0.607355 0
M  V30 1217 C 118.017 2.02241 -0.102455 0
M  V30 1218 C 118.345 1.4758 1.26691 0
M  V30 1219 O 117.6 0.640468 1.84923 0
M  V30 1220 C 117.899 3.57398 -0.0129263 0
M  V30 1221 C 117.565 4.3121 -1.31792 0
M  V30 1222 C 116.227 4.51092 -1.67539 0
M  V30 1223 C 118.579 4.73401 -2.18039 0
M  V30 1224 C 115.907 5.10422 -2.89285 0
M  V30 1225 C 118.259 5.34078 -3.39034 0
M  V30 1226 C 116.923 5.52184 -3.75033 0
M  V30 1227 H 116.193 0.740051 -0.037491 0
M  V30 1228 H 118.84 1.74494 -0.788926 0
M  V30 1229 H 117.145 3.84421 0.756806 0
M  V30 1230 H 118.842 3.99061 0.393881 0
M  V30 1231 H 115.432 4.16047 -1.02968 0
M  V30 1232 H 119.616 4.57774 -1.91721 0
M  V30 1233 H 114.872 5.22629 -3.17283 0
M  V30 1234 H 119.046 5.65724 -4.06115 0
M  V30 1235 H 116.673 5.97925 -4.69457 0
M  V30 1236 N 118.248 0.346503 1.53744 0
M  V30 1237 C 119.497 -0.250122 2.00143 0
M  V30 1238 C 119.81 -1.51418 1.23822 0
M  V30 1239 O 121.016 -2.18823 1.60713 0
M  V30 1240 C 119.472 -0.496252 3.56462 0
M  V30 1241 C 119.08 0.752077 4.41642 0
M  V30 1242 C 120.824 -1.05157 4.11269 0
M  V30 1243 C 118.731 0.476583 5.89477 0
M  V30 1244 H 117.661 -0.0972409 0.747703 0
M  V30 1245 H 120.312 0.46229 1.77581 0
M  V30 1246 H 118.694 -1.26944 3.75102 0
M  V30 1247 H 119.868 1.5266 4.34778 0
M  V30 1248 H 118.183 1.22925 3.97842 0
M  V30 1249 H 120.78 -1.27269 5.19333 0
M  V30 1250 H 121.123 -2.00799 3.64672 0
M  V30 1251 H 121.656 -0.339019 3.96353 0
M  V30 1252 H 118.395 1.4028 6.40314 0
M  V30 1253 H 117.915 -0.259794 5.99237 0
M  V30 1254 H 119.594 0.0949315 6.4693 0
M  V30 1255 N 119.726 -1.57421 0.075193 0
M  V30 1256 C 120.975 -1.92794 -0.592731 0
M  V30 1257 C 121.288 -0.957478 -1.70563 0
M  V30 1258 O 122.494 -1.20417 -2.43335 0
M  V30 1259 C 120.95 -3.42495 -1.10569 0
M  V30 1260 C 120.558 -4.47994 -0.0236121 0
M  V30 1261 C 122.302 -3.86864 -1.74748 0
M  V30 1262 C 120.209 -5.88829 -0.550803 0
M  V30 1263 H 119.139 -0.719591 -0.225177 0
M  V30 1264 H 121.79 -1.82902 0.147978 0
M  V30 1265 H 120.172 -3.47471 -1.89947 0
M  V30 1266 H 121.346 -4.54637 0.751099 0
M  V30 1267 H 119.661 -4.13113 0.522159 0
M  V30 1268 H 122.258 -4.8947 -2.15229 0
M  V30 1269 H 122.601 -3.24417 -2.60882 0
M  V30 1270 H 123.134 -3.84504 -1.01986 0
M  V30 1271 H 119.873 -6.54929 0.273457 0
M  V30 1272 H 119.393 -5.85698 -1.29296 0
M  V30 1273 H 121.072 -6.38811 -1.02613 0
M  V30 1274 N 121.204 0.198386 -1.56346 0
M  V30 1275 C 122.451 0.919286 -1.80431 0
M  V30 1276 C 122.779 1.83393 -0.647866 0
M  V30 1277 O 122.034 1.92236 0.366556 0
M  V30 1278 C 122.333 1.77031 -3.10475 0
M  V30 1279 C 121.999 1.00693 -4.39513 0
M  V30 1280 C 120.661 0.796145 -4.74568 0
M  V30 1281 C 123.013 0.469559 -5.19081 0
M  V30 1282 C 120.341 0.0364588 -5.86689 0
M  V30 1283 C 122.693 -0.2769 -6.31994 0
M  V30 1284 C 121.357 -0.49873 -6.65634 0
M  V30 1285 H 120.627 0.336391 -0.660244 0
M  V30 1286 H 123.274 0.185872 -1.90596 0
M  V30 1287 H 121.579 2.5723 -2.95533 0
M  V30 1288 H 123.276 2.33065 -3.26315 0
M  V30 1289 H 119.866 1.18122 -4.12001 0
M  V30 1290 H 124.05 0.619816 -4.92414 0
M  V30 1291 H 119.306 -0.145412 -6.11227 0
M  V30 1292 H 123.48 -0.700684 -6.92866 0
M  V30 1293 H 121.107 -1.0893 -7.52355 0
M  V30 1294 N 122.682 1.50554 0.465978 0
M  V30 1295 C 123.612 1.72722 1.57128 0
M  V30 1296 C 124.593 0.576294 1.6004 0
M  V30 1297 O 125.778 0.81598 1.76225 0
M  V30 1298 C 122.908 1.82605 2.95419 0
M  V30 1299 C 121.862 2.97835 3.07373 0
M  V30 1300 C 121.188 2.92867 4.47363 0
M  V30 1301 C 122.488 4.38265 2.84114 0
M  V30 1302 H 124.182 2.65267 1.38829 0
M  V30 1303 H 121.728 1.2765 0.666441 0
M  V30 1304 H 123.681 1.96698 3.72677 0
M  V30 1305 H 122.405 0.866858 3.14886 0
M  V30 1306 H 121.064 2.83401 2.3255 0
M  V30 1307 H 120.712 1.94783 4.63755 0
M  V30 1308 H 120.412 3.70227 4.56296 0
M  V30 1309 H 121.936 3.09015 5.26633 0
M  V30 1310 H 123.35 4.53198 3.51118 0
M  V30 1311 H 121.747 5.17115 3.04487 0
M  V30 1312 H 122.817 4.50281 1.7993 0
M  V30 1313 N 124.16 -0.719506 1.40217 0
M  V30 1314 C 125.407 -1.47933 1.38283 0
M  V30 1315 C 125.735 -1.94493 -0.0161536 0
M  V30 1316 O 124.99 -1.68224 -0.999956 0
M  V30 1317 C 125.289 -2.72271 2.31524 0
M  V30 1318 C 124.955 -2.44496 3.78857 0
M  V30 1319 C 123.617 -2.36631 4.18998 0
M  V30 1320 C 125.969 -2.21104 4.71977 0
M  V30 1321 C 123.297 -2.03437 5.503 0
M  V30 1322 C 125.649 -1.89423 6.03574 0
M  V30 1323 C 124.313 -1.80038 6.42762 0
M  V30 1324 H 123.583 -0.541325 0.506012 0
M  V30 1325 H 126.23 -0.824502 1.72842 0
M  V30 1326 H 124.535 -3.42572 1.90137 0
M  V30 1327 H 126.232 -3.30348 2.27313 0
M  V30 1328 H 122.822 -2.51503 3.47051 0
M  V30 1329 H 127.006 -2.26139 4.41786 0
M  V30 1330 H 122.262 -1.94705 5.79569 0
M  V30 1331 H 126.436 -1.70336 6.75247 0
M  V30 1332 H 124.063 -1.54083 7.44421 0
M  V30 1333 N 125.638 -1.25649 -0.95132 0
M  V30 1334 C 126.887 -1.09988 -1.69073 0
M  V30 1335 C 127.2 0.358355 -1.92289 0
M  V30 1336 O 128.406 0.635466 -2.63958 0
M  V30 1337 C 126.862 -1.92012 -3.044 0
M  V30 1338 C 126.47 -3.42347 -2.88968 0
M  V30 1339 C 128.214 -1.8493 -3.82101 0
M  V30 1340 C 126.121 -4.16655 -4.19705 0
M  V30 1341 H 125.051 -0.407993 -0.63408 0
M  V30 1342 H 127.702 -1.49873 -1.05879 0
M  V30 1343 H 126.084 -1.44952 -3.68517 0
M  V30 1344 H 127.258 -3.97104 -2.33762 0
M  V30 1345 H 125.573 -3.50557 -2.24719 0
M  V30 1346 H 128.17 -2.37739 -4.78941 0
M  V30 1347 H 128.513 -0.817883 -4.08187 0
M  V30 1348 H 129.046 -2.29758 -3.2474 0
M  V30 1349 H 125.785 -5.20224 -3.98807 0
M  V30 1350 H 125.305 -3.66681 -4.74663 0
M  V30 1351 H 126.984 -4.24551 -4.88227 0
M  V30 1352 N 127.117 1.15442 -1.07289 0
M  V30 1353 C 128.047 2.22312 -0.714107 0
M  V30 1354 C 129.028 1.67467 0.298155 0
M  V30 1355 O 130.213 1.93445 0.171048 0
M  V30 1356 C 127.343 3.47124 -0.110448 0
M  V30 1357 C 126.297 4.14926 -1.04979 0
M  V30 1358 C 125.623 5.33807 -0.308924 0
M  V30 1359 C 126.923 4.64762 -2.38314 0
M  V30 1360 H 128.617 2.5258 -1.6076 0
M  V30 1361 H 126.163 1.21404 -0.77441 0
M  V30 1362 H 128.116 4.21124 0.152482 0
M  V30 1363 H 126.84 3.16187 0.81812 0
M  V30 1364 H 125.499 3.42866 -1.29764 0
M  V30 1365 H 125.147 4.99126 0.623084 0
M  V30 1366 H 124.847 5.80113 -0.935036 0
M  V30 1367 H 126.371 6.10576 -0.0537771 0
M  V30 1368 H 127.785 5.30292 -2.1786 0
M  V30 1369 H 126.182 5.21728 -2.96514 0
M  V30 1370 H 127.252 3.80434 -3.00663 0
M  V30 1371 N 128.595 0.856903 1.32268 0
M  V30 1372 C 129.525 0.31858 2.31316 0
M  V30 1373 C 130.506 -0.583487 1.59779 0
M  V30 1374 O 131.691 -0.503259 1.87566 0
M  V30 1375 C 128.821 -0.491979 3.43798 0
M  V30 1376 C 127.775 0.315849 4.26833 0
M  V30 1377 C 127.101 -0.619586 5.31098 0
M  V30 1378 C 128.401 1.54282 4.98993 0
M  V30 1379 H 130.095 1.14621 2.76591 0
M  V30 1380 H 127.641 0.552613 1.32974 0
M  V30 1381 H 129.594 -0.879012 4.1213 0
M  V30 1382 H 128.318 -1.35299 2.97257 0
M  V30 1383 H 126.977 0.684664 3.6015 0
M  V30 1384 H 126.625 -1.47751 4.8081 0
M  V30 1385 H 126.325 -0.0830621 5.87541 0
M  V30 1386 H 127.849 -1.00375 6.02293 0
M  V30 1387 H 129.263 1.22796 5.59995 0
M  V30 1388 H 127.66 2.01745 5.65172 0
M  V30 1389 H 128.73 2.30285 4.26728 0
M  V30 1390 N 130.073 -1.45103 0.615059 0
M  V30 1391 C 131.003 -2.33339 -0.0865619 0
M  V30 1392 C 131.984 -1.4727 -0.851209 0
M  V30 1393 O 133.169 -1.76026 -0.820281 0
M  V30 1394 C 130.299 -3.30095 -1.07956 0
M  V30 1395 C 129.253 -4.25858 -0.427628 0
M  V30 1396 C 128.579 -5.12361 -1.5294 0
M  V30 1397 C 129.879 -5.18165 0.655944 0
M  V30 1398 H 131.573 -2.92254 0.650224 0
M  V30 1399 H 129.119 -1.40532 0.314138 0
M  V30 1400 H 131.072 -3.90698 -1.57901 0
M  V30 1401 H 129.796 -2.69355 -1.84703 0
M  V30 1402 H 128.455 -3.66564 0.0510292 0
M  V30 1403 H 128.103 -4.47984 -2.28734 0
M  V30 1404 H 127.803 -5.77238 -1.09865 0
M  V30 1405 H 129.327 -5.75833 -2.03098 0
M  V30 1406 H 130.741 -5.72796 0.240257 0
M  V30 1407 H 129.138 -5.91559 1.00888 0
M  V30 1408 H 130.208 -4.60144 1.52957 0
M  V30 1409 N 131.551 -0.354651 -1.53558 0
M  V30 1410 C 132.791 0.238651 -2.03002 0
M  V30 1411 C 133.155 1.46878 -1.23656 0
M  V30 1412 O 134.356 2.13699 -1.63053 0
M  V30 1413 C 132.627 0.534175 -3.53386 0
M  V30 1414 S 134.186 1.10271 -4.24719 0
M  V30 1415 H 131.004 0.0702908 -0.707517 0
M  V30 1416 H 133.606 -0.494987 -1.8913 0
M  V30 1417 H 132.31 -0.368765 -4.0874 0
M  V30 1418 H 131.841 1.29718 -3.71398 0
M  V30 1419 H 133.856 2.38772 -4.34974 0
M  V30 1420 N 133.029 1.57378 -0.0835403 0
M  V30 1421 C 133.959 2.1641 0.87686 0
M  V30 1422 C 134.94 1.09429 1.30228 0
M  V30 1423 O 136.125 1.37516 1.37124 0
M  V30 1424 C 133.255 2.73517 2.14022 0
M  V30 1425 C 132.209 3.85769 1.85381 0
M  V30 1426 C 131.535 4.29529 3.18448 0
M  V30 1427 C 132.835 5.09486 1.14984 0
M  V30 1428 H 134.529 2.96914 0.385059 0
M  V30 1429 H 132.075 1.42823 0.18377 0
M  V30 1430 H 134.028 3.13463 2.81636 0
M  V30 1431 H 132.752 1.90252 2.65465 0
M  V30 1432 H 131.411 3.46345 1.20169 0
M  V30 1433 H 131.059 3.43169 3.67755 0
M  V30 1434 H 130.759 5.05204 3.00071 0
M  V30 1435 H 132.283 4.72099 3.8724 0
M  V30 1436 H 133.697 5.46674 1.72687 0
M  V30 1437 H 132.094 5.90515 1.06826 0
M  V30 1438 H 133.164 4.84724 0.130749 0
M  V30 1439 N 134.507 -0.190092 1.56449 0
M  V30 1440 C 135.756 -0.907912 1.80111 0
M  V30 1441 C 136.069 -1.84214 0.657619 0
M  V30 1442 O 137.275 -2.60094 0.778663 0
M  V30 1443 C 135.731 -1.66485 3.19078 0
M  V30 1444 C 135.339 -0.7752 4.41242 0
M  V30 1445 C 137.083 -2.37201 3.52045 0
M  V30 1446 C 134.99 -1.53129 5.71231 0
M  V30 1447 H 133.92 -0.34276 0.671589 0
M  V30 1448 H 136.571 -0.161109 1.82791 0
M  V30 1449 H 134.953 -2.45572 3.10661 0
M  V30 1450 H 136.127 -0.0226298 4.60794 0
M  V30 1451 H 134.442 -0.178627 4.16017 0
M  V30 1452 H 137.039 -2.94329 4.46402 0
M  V30 1453 H 137.382 -3.11632 2.76028 0
M  V30 1454 H 137.915 -1.65075 3.61932 0
M  V30 1455 H 134.654 -0.82967 6.50228 0
M  V30 1456 H 134.174 -2.25767 5.55688 0
M  V30 1457 H 135.853 -2.08377 6.12526 0
M  V30 1458 N 135.985 -1.50799 -0.457987 0
M  V30 1459 C 137.232 -1.62442 -1.20908 0
M  V30 1460 C 137.56 -0.330865 -1.91665 0
M  V30 1461 O 136.815 0.68401 -1.83357 0
M  V30 1462 C 137.114 -2.76358 -2.2663 0
M  V30 1463 C 136.78 -4.16378 -1.73033 0
M  V30 1464 C 135.442 -4.54473 -1.58138 0
M  V30 1465 C 137.794 -5.03836 -1.33413 0
M  V30 1466 C 135.122 -5.77754 -1.02065 0
M  V30 1467 C 137.474 -6.27676 -0.78778 0
M  V30 1468 C 136.138 -6.64562 -0.625561 0
M  V30 1469 H 135.408 -0.594417 -0.442435 0
M  V30 1470 H 138.055 -1.84772 -0.503136 0
M  V30 1471 H 136.36 -2.48167 -3.03184 0
M  V30 1472 H 138.057 -2.82568 -2.84528 0
M  V30 1473 H 134.647 -3.86331 -1.85598 0
M  V30 1474 H 138.831 -4.75026 -1.4375 0
M  V30 1475 H 134.087 -6.04997 -0.882547 0
M  V30 1476 H 138.261 -6.94797 -0.472177 0
M  V30 1477 H 135.888 -7.59965 -0.188926 0
M  V30 1478 N 137.463 0.71206 -1.40597 0
M  V30 1479 C 138.393 1.83889 -1.43899 0
M  V30 1480 C 139.374 1.67442 -0.299504 0
M  V30 1481 O 140.559 1.87421 -0.508624 0
M  V30 1482 C 137.689 3.21877 -1.30431 0
M  V30 1483 C 136.643 3.53002 -2.42019 0
M  V30 1484 C 135.969 4.90172 -2.13626 0
M  V30 1485 C 137.269 3.53643 -3.84362 0
M  V30 1486 H 138.963 1.81383 -2.38203 0
M  V30 1487 H 136.509 0.871237 -1.14654 0
M  V30 1488 H 138.462 4.00404 -1.31357 0
M  V30 1489 H 137.186 3.24968 -0.326049 0
M  V30 1490 H 135.845 2.76818 -2.40349 0
M  V30 1491 H 135.493 4.89869 -1.14182 0
M  V30 1492 H 135.193 5.11962 -2.88389 0
M  V30 1493 H 136.717 5.71028 -2.1624 0
M  V30 1494 H 138.131 4.22203 -3.87837 0
M  V30 1495 H 136.528 3.86961 -4.58673 0
M  V30 1496 H 137.598 2.52954 -4.13693 0
M  V30 1497 N 138.941 1.26152 0.944643 0
M  V30 1498 C 139.871 1.09902 2.06019 0
M  V30 1499 C 140.852 0.00519538 1.70099 0
M  V30 1500 O 142.037 0.176583 1.93396 0
M  V30 1501 C 139.167 0.727562 3.39594 0
M  V30 1502 C 138.121 1.77274 3.89561 0
M  V30 1503 C 137.447 1.25569 5.19747 0
M  V30 1504 C 138.747 3.17357 4.14827 0
M  V30 1505 H 140.441 2.03217 2.19871 0
M  V30 1506 H 137.987 0.978452 1.05652 0
M  V30 1507 H 139.94 0.600777 4.17095 0
M  V30 1508 H 138.664 -0.241287 3.25707 0
M  V30 1509 H 137.323 1.88814 3.14237 0
M  V30 1510 H 136.971 0.276783 5.02238 0
M  V30 1511 H 136.671 1.95433 5.54148 0
M  V30 1512 H 138.195 1.1415 5.99835 0
M  V30 1513 H 139.609 3.08914 4.82954 0
M  V30 1514 H 138.006 3.84781 4.60504 0
M  V30 1515 H 139.076 3.63673 3.20734 0
M  V30 1516 N 140.419 -1.14872 1.07899 0
M  V30 1517 C 141.665 -1.86064 0.806725 0
M  V30 1518 C 141.998 -1.82434 -0.665706 0
M  V30 1519 O 141.273 -1.25138 -1.48899 0
M  V30 1520 C 141.556 -3.34929 1.32267 0
M  V30 1521 C 141.409 -3.47161 2.86006 0
M  V30 1522 C 142.728 -4.29863 0.943717 0
M  V30 1523 H 139.847 -0.675591 0.294526 0
M  V30 1524 H 142.489 -1.34925 1.33773 0
M  V30 1525 H 140.639 -3.78611 0.870974 0
M  V30 1526 H 142.311 -3.12302 3.39507 0
M  V30 1527 H 140.554 -2.88539 3.23925 0
M  V30 1528 H 141.225 -4.51777 3.17177 0
M  V30 1529 H 143.701 -3.9417 1.33302 0
M  V30 1530 H 142.577 -5.32494 1.33198 0
M  V30 1531 H 142.838 -4.41846 -0.149796 0
M  V30 1532 N 141.898 -0.863906 -1.31812 0
M  V30 1533 C 142.828 -0.330843 -2.31144 0
M  V30 1534 C 143.809 0.575005 -1.60087 0
M  V30 1535 O 144.994 0.493304 -1.8783 0
M  V30 1536 C 142.124 0.47374 -3.44054 0
M  V30 1537 C 141.078 -0.338481 -4.26659 0
M  V30 1538 C 140.404 0.591412 -5.31419 0
M  V30 1539 C 141.704 -1.56926 -4.98168 0
M  V30 1540 H 143.398 -1.16086 -2.75979 0
M  V30 1541 H 140.944 -0.559657 -1.32679 0
M  V30 1542 H 142.897 0.857143 -4.12591 0
M  V30 1543 H 141.621 1.33721 -2.9797 0
M  V30 1544 H 140.28 -0.703754 -3.59782 0
M  V30 1545 H 139.928 1.45199 -4.81587 0
M  V30 1546 H 139.628 0.0519022 -5.87577 0
M  V30 1547 H 141.152 0.97179 -6.02817 0
M  V30 1548 H 142.566 -1.25764 -5.59336 0
M  V30 1549 H 140.963 -2.04739 -5.64094 0
M  V30 1550 H 142.033 -2.32544 -4.25501 0
M  V30 1551 N 143.376 1.44774 -0.622745 0
M  V30 1552 C 144.306 2.33382 0.0741861 0
M  V30 1553 C 145.287 1.47719 0.843387 0
M  V30 1554 O 146.472 1.76458 0.810934 0
M  V30 1555 C 143.602 3.30663 1.06204 0
M  V30 1556 C 142.556 4.26079 0.405037 0
M  V30 1557 C 141.882 5.13165 1.5022 0
M  V30 1558 C 143.182 5.1781 -0.683414 0
M  V30 1559 H 144.876 2.91905 -0.665713 0
M  V30 1560 H 142.422 1.40363 -0.321587 0
M  V30 1561 H 144.375 3.9153 1.55827 0
M  V30 1562 H 143.099 2.70331 1.83272 0
M  V30 1563 H 141.758 3.66532 -0.0704683 0
M  V30 1564 H 141.406 4.49191 2.26355 0
M  V30 1565 H 141.106 5.77812 1.06803 0
M  V30 1566 H 142.63 5.76902 2.00041 0
M  V30 1567 H 144.044 5.72661 -0.270631 0
M  V30 1568 H 142.441 5.91015 -1.04023 0
M  V30 1569 H 143.511 4.59326 -1.55395 0
M  V30 1570 N 144.854 0.36279 1.53368 0
M  V30 1571 C 146.131 -0.284021 1.93527 0
M  V30 1572 C 146.511 -1.66628 1.29608 0
M  V30 1573 O 145.859 -2.23942 0.45413 0
M  V30 1574 C 146.069 -0.337028 3.47369 0
M  V30 1575 C 147.417 -0.578708 4.20638 0
M  V30 1576 O 148.441 -0.418352 3.53735 0
M  V30 1577 O 147.3 -0.89074 5.39192 0
M  V30 1578 H 144.394 -0.169743 0.809393 0
M  V30 1579 H 146.94 0.41537 1.64538 0
M  V30 1580 H 145.712 0.632217 3.86159 0
M  V30 1581 H 145.335 -1.08243 3.82582 0
M  V30 1582 N 146.332 -1.57332 0.0918853 0
M  V30 1583 C 147.562 -1.98286 -0.580205 0
M  V30 1584 C 147.97 -0.969713 -1.6246 0
M  V30 1585 O 147.313 0.0493501 -1.83634 0
M  V30 1586 C 147.375 -3.35603 -1.28882 0
M  V30 1587 C 147.039 -4.55285 -0.395559 0
M  V30 1588 C 148.036 -5.18687 0.355002 0
M  V30 1589 C 145.721 -5.01314 -0.314556 0
M  V30 1590 C 147.715 -6.26484 1.17458 0
M  V30 1591 C 145.402 -6.08979 0.508677 0
M  V30 1592 C 146.4 -6.71429 1.2519 0
M  V30 1593 O 146.088 -7.77018 2.06151 0
M  V30 1594 H 145.82 -0.656678 -0.160466 0
M  V30 1595 H 148.374 -2.04721 0.16688 0
M  V30 1596 H 146.604 -3.25842 -2.08241 0
M  V30 1597 H 148.293 -3.61026 -1.85512 0
M  V30 1598 H 149.059 -4.84058 0.302134 0
M  V30 1599 H 144.938 -4.5247 -0.882697 0
M  V30 1600 H 148.482 -6.75159 1.75518 0
M  V30 1601 H 144.379 -6.4304 0.563037 0
M  V30 1602 H 145.147 -7.93991 1.98799 0
M  V30 1603 N 147.81 0.181792 -1.56548 0
M  V30 1604 C 148.742 1.24956 -1.92142 0
M  V30 1605 C 149.755 1.41022 -0.813422 0
M  V30 1606 O 150.944 1.41212 -1.09186 0
M  V30 1607 C 148.044 2.61981 -2.14987 0
M  V30 1608 C 147.217 2.6735 -3.46183 0
M  V30 1609 C 146.276 3.85664 -3.5798 0
M  V30 1610 O 145.302 3.72148 -4.30691 0
M  V30 1611 N 146.504 5.01683 -2.92053 0
M  V30 1612 H 149.269 0.947329 -2.84334 0
M  V30 1613 H 146.83 0.371629 -1.57577 0
M  V30 1614 H 148.822 3.3958 -2.20154 0
M  V30 1615 H 147.392 2.84637 -1.2923 0
M  V30 1616 H 146.612 1.75925 -3.52766 0
M  V30 1617 H 147.9 2.67939 -4.32534 0
M  V30 1618 H 147.298 5.15564 -2.32832 0
M  V30 1619 H 145.855 5.77181 -3.0283 0
M  V30 1620 N 149.288 1.51039 0.449983 0
M  V30 1621 C 150.536 1.62759 1.19808 0
M  V30 1622 C 150.857 0.339981 1.92013 0
M  V30 1623 O 150.127 -0.643606 1.85026 0
M  V30 1624 H 148.707 0.599811 0.445237 0
M  V30 1625 H 151.369 1.87914 0.517138 0
M  V30 1626 H 150.465 2.44911 1.93455 0
M  V30 1627 N 150.766 -0.704594 1.40972 0
M  V30 1628 C 151.699 -1.82861 1.36518 0
M  V30 1629 C 152.677 -1.6091 0.23382 0
M  V30 1630 O 153.861 -1.83778 0.419271 0
M  V30 1631 C 150.988 -3.1939 1.12729 0
M  V30 1632 C 150.034 -3.60148 2.28463 0
M  V30 1633 S 150.867 -3.65994 3.90907 0
M  V30 1634 C 152.023 -5.05264 3.69403 0
M  V30 1635 H 152.256 -1.86361 2.3164 0
M  V30 1636 H 149.789 -0.872439 1.27389 0
M  V30 1637 H 151.747 -3.98211 0.996893 0
M  V30 1638 H 150.408 -3.1351 0.192427 0
M  V30 1639 H 149.601 -4.59309 2.07489 0
M  V30 1640 H 149.203 -2.88612 2.37863 0
M  V30 1641 H 151.495 -5.92504 3.28551 0
M  V30 1642 H 152.438 -5.31278 4.68134 0
M  V30 1643 H 152.846 -4.76377 3.02862 0
M  V30 1644 N 152.244 -1.26651 -0.937939 0
M  V30 1645 C 153.174 -1.10993 -2.05433 0
M  V30 1646 C 154.155 -0.0142161 -1.70094 0
M  V30 1647 O 155.34 -0.186837 -1.93299 0
M  V30 1648 C 152.47 -0.745561 -3.39203 0
M  V30 1649 C 151.424 -1.79337 -3.88616 0
M  V30 1650 C 150.75 -1.28324 -5.19073 0
M  V30 1651 C 152.05 -3.19553 -4.13138 0
M  V30 1652 H 153.744 -2.0438 -2.1879 0
M  V30 1653 H 151.29 -0.984041 -1.05131 0
M  V30 1654 H 153.243 -0.622888 -4.16771 0
M  V30 1655 H 151.967 0.22401 -3.25831 0
M  V30 1656 H 150.626 -1.90477 -3.13231 0
M  V30 1657 H 150.274 -0.303414 -5.02084 0
M  V30 1658 H 149.974 -1.98369 -5.53103 0
M  V30 1659 H 151.498 -1.1733 -5.99221 0
M  V30 1660 H 152.912 -3.11471 -4.81309 0
M  V30 1661 H 151.309 -3.87218 -4.58457 0
M  V30 1662 H 152.379 -3.65368 -3.18801 0
M  V30 1663 N 153.722 1.14298 -1.08507 0
M  V30 1664 C 155.133 1.66926 -0.836227 0
M  V30 1665 C 155.484 1.85576 0.63686 0
M  V30 1666 O 154.609 1.56767 1.49175 0
M  V30 1667 C 155.204 3.03219 -1.51142 0
M  V30 1668 C 153.763 3.52876 -1.30979 0
M  V30 1669 C 152.91 2.2833 -1.57356 0
M  V30 1670 H 155.861 0.983491 -1.24552 0
M  V30 1671 H 155.882 3.68726 -0.939211 0
M  V30 1672 H 155.394 2.89612 -2.58353 0
M  V30 1673 H 153.495 3.71703 -0.258429 0
M  V30 1674 H 153.608 4.33586 -2.03814 0
M  V30 1675 H 151.972 2.34454 -0.995164 0
M  V30 1676 H 152.755 2.17298 -2.65775 0
M  V30 1677 N 155.201 0.870884 1.31352 0
M  V30 1678 C 156.447 0.482987 1.96965 0
M  V30 1679 C 156.78 -0.962462 1.68672 0
M  V30 1680 O 156.055 -1.6779 0.98371 0
M  V30 1681 C 156.338 0.741752 3.52378 0
M  V30 1682 C 156.191 2.2368 3.9024 0
M  V30 1683 C 157.51 0.208838 4.39604 0
M  V30 1684 H 154.629 0.176955 0.715441 0
M  V30 1685 H 157.271 1.09229 1.55464 0
M  V30 1686 H 155.421 0.223149 3.87859 0
M  V30 1687 H 157.093 2.82273 3.64856 0
M  V30 1688 H 155.336 2.70901 3.38814 0
M  V30 1689 H 156.007 2.3685 4.98604 0
M  V30 1690 H 158.483 0.652529 4.10952 0
M  V30 1691 H 157.359 0.419336 5.47296 0
M  V30 1692 H 157.62 -0.889275 4.33064 0
M  V30 1693 N 156.679 -1.44442 0.630414 0
M  V30 1694 C 157.919 -2.03934 0.137919 0
M  V30 1695 C 158.283 -1.48509 -1.21692 0
M  V30 1696 O 159.484 -1.99499 -1.80149 0
M  V30 1697 C 157.755 -3.57187 0.123373 0
M  V30 1698 S 159.314 -4.37741 -0.304604 0
M  V30 1699 H 156.132 -0.708401 0.0607353 0
M  V30 1700 H 158.734 -1.76835 0.833643 0
M  V30 1701 H 157.438 -3.95032 1.11256 0
M  V30 1702 H 156.969 -3.88895 -0.59362 0
M  V30 1703 H 158.984 -4.71403 -1.54897 0
M  V30 1704 N 158.157 -0.370918 -1.53173 0
M  V30 1705 C 159.568 0.107139 -1.86392 0
M  V30 1706 C 159.919 1.47714 -1.29132 0
M  V30 1707 O 159.044 2.07464 -0.615439 0
M  V30 1708 C 159.639 0.201187 -3.38202 0
M  V30 1709 C 158.198 0.623507 -3.712 0
M  V30 1710 C 157.345 -0.225978 -2.76378 0
M  V30 1711 H 160.296 -0.58951 -1.47345 0
M  V30 1712 H 160.317 1.02377 -3.66468 0
M  V30 1713 H 159.829 -0.796058 -3.79848 0
M  V30 1714 H 157.93 1.62879 -3.35114 0
M  V30 1715 H 158.043 0.394414 -4.77474 0
M  V30 1716 H 156.407 0.305962 -2.52856 0
M  V30 1717 H 157.19 -1.22086 -3.20858 0
M  V30 1718 N 159.635 1.57281 -0.100228 0
M  V30 1719 C 160.565 2.17328 0.853857 0
M  V30 1720 C 161.546 1.10804 1.2906 0
M  V30 1721 O 162.731 1.38963 1.35657 0
M  V30 1722 C 159.861 2.75772 2.11109 0
M  V30 1723 C 158.815 3.87713 1.81279 0
M  V30 1724 C 158.141 4.32882 3.13874 0
M  V30 1725 C 159.441 5.10677 1.09574 0
M  V30 1726 H 161.135 2.97305 0.353545 0
M  V30 1727 H 158.681 1.43009 0.168612 0
M  V30 1728 H 160.634 3.16433 2.78296 0
M  V30 1729 H 159.358 1.93057 2.63432 0
M  V30 1730 H 158.017 3.476 1.16489 0
M  V30 1731 H 157.665 3.47051 3.64095 0
M  V30 1732 H 157.365 5.08358 2.94696 0
M  V30 1733 H 158.889 4.7618 3.82211 0
M  V30 1734 H 160.303 5.48474 1.66879 0
M  V30 1735 H 158.7 5.91615 1.00557 0
M  V30 1736 H 159.77 4.84835 0.0793299 0
M  V30 1737 N 161.113 -0.173488 1.56642 0
M  V30 1738 C 162.362 -0.888758 1.81063 0
M  V30 1739 C 162.675 -1.83506 0.67712 0
M  V30 1740 O 163.881 -2.59254 0.806206 0
M  V30 1741 C 162.337 -1.63091 3.20826 0
M  V30 1742 C 161.945 -0.728357 4.4204 0
M  V30 1743 C 163.689 -2.33454 3.54541 0
M  V30 1744 C 161.596 -1.47062 5.72823 0
M  V30 1745 H 160.526 -0.335618 0.675186 0
M  V30 1746 H 163.177 -0.141712 1.82952 0
M  V30 1747 H 161.559 -2.42263 3.13248 0
M  V30 1748 H 162.733 0.0262449 4.60793 0
M  V30 1749 H 161.048 -0.134492 4.16183 0
M  V30 1750 H 163.645 -2.89578 4.49498 0
M  V30 1751 H 163.988 -3.08687 2.79317 0
M  V30 1752 H 164.521 -1.61227 3.63663 0
M  V30 1753 H 161.26 -0.760658 6.51072 0
M  V30 1754 H 160.78 -2.1986 5.58052 0
M  V30 1755 H 162.459 -2.01868 6.14702 0
M  V30 1756 N 162.591 -1.51276 -0.441967 0
M  V30 1757 C 164.002 -1.56244 -1.02199 0
M  V30 1758 C 164.353 -0.383149 -1.92422 0
M  V30 1759 O 163.478 0.500613 -2.1053 0
M  V30 1760 C 164.073 -2.83162 -1.86024 0
M  V30 1761 C 162.632 -2.90716 -2.39084 0
M  V30 1762 C 161.779 -2.50858 -1.18175 0
M  V30 1763 H 164.73 -1.5712 -0.223416 0
M  V30 1764 H 164.751 -2.66663 -2.71425 0
M  V30 1765 H 164.263 -3.68974 -1.20331 0
M  V30 1766 H 162.364 -2.09323 -3.08244 0
M  V30 1767 H 162.477 -3.94266 -2.72198 0
M  V30 1768 H 160.841 -2.03951 -1.52565 0
M  V30 1769 H 161.624 -3.3901 -0.541001 0
M  V30 1770 N 164.069 0.697108 -1.41344 0
M  V30 1771 C 165.317 1.45426 -1.40341 0
M  V30 1772 C 165.638 1.94996 -0.0128787 0
M  V30 1773 O 164.908 1.71599 0.945027 0
M  V30 1774 H 163.488 0.539594 -0.516573 0
M  V30 1775 H 166.15 0.825201 -1.76569 0
M  V30 1776 H 165.246 2.31817 -2.08967 0
M  V30 1777 N 165.547 1.27147 0.931209 0
M  V30 1778 C 166.772 1.16191 1.71797 0
M  V30 1779 C 167.197 -0.278004 1.86034 0
M  V30 1780 O 166.555 -1.20137 1.35782 0
M  V30 1781 C 166.603 1.84673 3.09723 0
M  V30 1782 O 165.707 1.14231 3.96264 0
M  V30 1783 H 165.048 0.404303 0.526721 0
M  V30 1784 H 167.578 1.68152 1.1656 0
M  V30 1785 H 167.588 1.91893 3.60057 0
M  V30 1786 H 166.263 2.89421 2.98677 0
M  V30 1787 H 164.84 1.15056 3.54706 0
M  V30 1788 N 167.025 -1.13721 1.09112 0
M  V30 1789 C 168.25 -1.89314 0.847053 0
M  V30 1790 C 168.675 -1.78416 -0.595774 0
M  V30 1791 O 168.033 -1.12942 -1.41823 0
M  V30 1792 C 168.081 -3.3701 1.28284 0
M  V30 1793 O 167.185 -4.10054 0.439267 0
M  V30 1794 H 166.526 -0.588745 0.307044 0
M  V30 1795 H 169.056 -1.43902 1.45442 0
M  V30 1796 H 169.066 -3.87834 1.26683 0
M  V30 1797 H 167.741 -3.4426 2.33363 0
M  V30 1798 H 166.318 -3.69266 0.519312 0
M  V30 1799 N 168.503 -0.877838 -1.30888 0
M  V30 1800 C 169.731 -0.507414 -2.00581 0
M  V30 1801 C 170.146 0.902216 -1.65848 0
M  V30 1802 O 169.503 1.59225 -0.891831 0
M  V30 1803 C 169.554 -0.664162 -3.55347 0
M  V30 1804 O 169.275 -2.01829 -3.8884 0
M  V30 1805 C 170.776 -0.295787 -4.42312 0
M  V30 1806 H 167.996 -0.196866 -0.641471 0
M  V30 1807 H 170.54 -1.18117 -1.66939 0
M  V30 1808 H 168.695 -0.0378619 -3.87381 0
M  V30 1809 H 169.109 -2.03174 -4.8355 0
M  V30 1810 H 170.583 -0.456388 -5.5011 0
M  V30 1811 H 171.06 0.765663 -4.32475 0
M  V30 1812 H 171.666 -0.898113 -4.15709 0
M  V30 1813 N 169.982 1.44106 -0.638065 0
M  V30 1814 C 171.21 2.06336 -0.152615 0
M  V30 1815 C 171.625 1.47731 1.17563 0
M  V30 1816 O 170.982 0.602806 1.72257 0
M  V30 1817 C 171.033 3.61479 -0.0391491 0
M  V30 1818 O 170.754 4.17903 -1.31487 0
M  V30 1819 C 172.255 4.40757 0.474176 0
M  V30 1820 H 169.475 0.665862 -0.0828776 0
M  V30 1821 H 172.019 1.84862 -0.87443 0
M  V30 1822 H 170.174 3.82191 0.633142 0
M  V30 1823 H 170.588 5.11416 -1.16421 0
M  V30 1824 H 172.062 5.49707 0.502562 0
M  V30 1825 H 172.539 4.12697 1.50258 0
M  V30 1826 H 173.145 4.24979 -0.165102 0
M  V30 1827 N 171.46 0.379036 1.52974 0
M  V30 1828 C 172.685 -0.209353 2.06341 0
M  V30 1829 C 173.11 -1.40583 1.24972 0
M  V30 1830 O 172.468 -1.79246 0.272155 0
M  V30 1831 C 172.516 -0.567786 3.56102 0
M  V30 1832 O 171.62 -1.66318 3.77375 0
M  V30 1833 H 170.961 -0.0272919 0.663439 0
M  V30 1834 H 173.491 0.543536 1.97248 0
M  V30 1835 H 173.501 -0.835003 3.99364 0
M  V30 1836 H 172.176 0.307013 4.14765 0
M  V30 1837 H 170.753 -1.39048 3.46006 0
M  V30 1838 N 172.938 -1.57226 0.108567 0
M  V30 1839 C 174.166 -1.99179 -0.559954 0
M  V30 1840 C 174.581 -0.988022 -1.60884 0
M  V30 1841 O 173.938 0.0205512 -1.82488 0
M  V30 1842 C 173.989 -3.41159 -1.19552 0
M  V30 1843 O 173.71 -4.37694 -0.188577 0
M  V30 1844 C 175.211 -3.98188 -1.94837 0
M  V30 1845 H 172.431 -0.654228 -0.149088 0
M  V30 1846 H 174.975 -2.03598 0.19183 0
M  V30 1847 H 173.13 -3.37711 -1.89815 0
M  V30 1848 H 173.544 -5.20469 -0.649014 0
M  V30 1849 H 175.018 -4.99644 -2.34648 0
M  V30 1850 H 175.495 -3.3675 -2.81951 0
M  V30 1851 H 176.101 -4.0515 -1.2936 0
M  V30 1852 N 174.416 0.165178 -1.56732 0
M  V30 1853 C 175.664 0.879068 -1.8198 0
M  V30 1854 C 175.985 1.82514 -0.686561 0
M  V30 1855 O 175.255 1.93694 0.293146 0
M  V30 1856 H 173.835 0.327608 -0.671329 0
M  V30 1857 H 176.497 0.163526 -1.94213 0
M  V30 1858 H 175.593 1.45228 -2.76252 0
M  V30 1859 N 175.894 1.51508 0.433938 0
M  V30 1860 C 177.305 1.56784 1.01369 0
M  V30 1861 C 177.656 0.393349 1.92217 0
M  V30 1862 O 176.781 -0.489441 2.10792 0
M  V30 1863 C 177.376 2.84144 1.8452 0
M  V30 1864 C 175.935 2.9198 2.37539 0
M  V30 1865 C 175.082 2.51482 1.16843 0
M  V30 1866 H 178.033 1.57236 0.215081 0
M  V30 1867 H 178.054 2.68098 2.70007 0
M  V30 1868 H 177.566 3.69607 1.18373 0
M  V30 1869 H 175.667 2.10955 3.0713 0
M  V30 1870 H 175.78 3.95704 2.70103 0
M  V30 1871 H 174.144 2.04758 1.51481 0
M  V30 1872 H 174.927 3.39293 0.523015 0
M  V30 1873 N 177.372 -0.689602 1.41712 0
M  V30 1874 C 178.612 -1.46184 1.42862 0
M  V30 1875 C 178.976 -1.91962 0.0382204 0
M  V30 1876 O 180.177 -2.68694 -0.0755019 0
M  V30 1877 C 178.448 -2.6371 2.4123 0
M  V30 1878 S 180.007 -3.52768 2.6096 0
M  V30 1879 H 176.825 -0.49947 0.506015 0
M  V30 1880 H 179.427 -0.804107 1.78198 0
M  V30 1881 H 178.131 -2.28293 3.41044 0
M  V30 1882 H 177.662 -3.3437 2.07269 0
M  V30 1883 H 179.677 -4.59146 1.88148 0
M  V30 1884 N 178.85 -1.27639 -0.924453 0
M  V30 1885 C 180.266 -1.05113 -1.20097 0
M  V30 1886 C 180.466 0.213262 -2.00368 0
M  V30 1887 O 179.522 0.91787 -2.35226 0
M  V30 1888 C 180.835 -2.29244 -1.94596 0
M  V30 1889 C 182.383 -2.34315 -2.07522 0
M  V30 1890 C 182.858 -3.58183 -2.85427 0
M  V30 1891 N 184.349 -3.5876 -2.92994 0
M  V30 1892 C 185.084 -4.51277 -3.53746 0
M  V30 1893 N 184.58 -5.54102 -4.15863 0
M  V30 1894 N 186.373 -4.38894 -3.51181 0
M  V30 1895 H 178.524 -2.08821 -0.388264 0
M  V30 1896 H 180.787 -0.918568 -0.234385 0
M  V30 1897 H 180.493 -3.21301 -1.43034 0
M  V30 1898 H 180.367 -2.34816 -2.95197 0
M  V30 1899 H 182.754 -1.42762 -2.58269 0
M  V30 1900 H 182.835 -2.32744 -1.06131 0
M  V30 1901 H 182.479 -4.50074 -2.35363 0
M  V30 1902 H 182.409 -3.57006 -3.8711 0
M  V30 1903 H 184.9 -2.84398 -2.4885 0
M  V30 1904 H 185.213 -6.20859 -4.60168 0
M  V30 1905 H 183.558 -5.57941 -4.144 0
M  V30 1906 H 186.749 -3.57772 -3.01856 0
M  V30 1907 H 186.922 -5.11186 -3.98237 0
M  V30 1908 N 180.328 1.1314 -1.09713 0
M  V30 1909 C 181.556 1.88321 -0.856898 0
M  V30 1910 C 181.971 1.79276 0.592073 0
M  V30 1911 O 181.328 1.16142 1.40774 0
M  V30 1912 C 181.379 3.37812 -1.28706 0
M  V30 1913 O 181.1 3.46627 -2.67921 0
M  V30 1914 C 182.601 4.29952 -1.07964 0
M  V30 1915 H 179.821 0.596094 -0.308079 0
M  V30 1916 H 182.365 1.43205 -1.45988 0
M  V30 1917 H 180.52 3.805 -0.727912 0
M  V30 1918 H 180.934 4.39579 -2.8613 0
M  V30 1919 H 182.408 5.33159 -1.42986 0
M  V30 1920 H 182.885 4.39196 -0.0176577 0
M  V30 1921 H 183.491 3.93036 -1.62489 0
M  V30 1922 N 181.806 0.884767 1.30421 0
M  V30 1923 C 183.046 0.509806 1.9794 0
M  V30 1924 C 183.41 -0.923736 1.68319 0
M  V30 1925 O 184.611 -1.40481 2.29169 0
M  V30 1926 C 182.882 0.776732 3.48858 0
M  V30 1927 S 184.441 0.503843 4.35898 0
M  V30 1928 H 181.259 0.189699 0.685227 0
M  V30 1929 H 183.861 1.14399 1.58535 0
M  V30 1930 H 182.565 1.81857 3.67908 0
M  V30 1931 H 182.096 0.1301 3.93185 0
M  V30 1932 H 184.111 -0.657625 4.91823 0
M  V30 1933 N 183.284 -1.43765 0.645699 0
M  V30 1934 C 184.217 -2.2798 -0.100072 0
M  V30 1935 C 185.195 -1.39391 -0.837194 0
M  V30 1936 O 186.379 -1.68833 -0.838306 0
M  V30 1937 C 183.506 -3.18643 -1.14823 0
M  V30 1938 C 182.552 -4.2344 -0.510009 0
M  V30 1939 S 183.385 -5.30761 0.710824 0
M  V30 1940 C 184.541 -6.24992 -0.33699 0
M  V30 1941 H 184.774 -2.90884 0.614322 0
M  V30 1942 H 182.307 -1.48166 0.434304 0
M  V30 1943 H 184.265 -3.71424 -1.74799 0
M  V30 1944 H 182.926 -2.54932 -1.8349 0
M  V30 1945 H 182.119 -4.86948 -1.29991 0
M  V30 1946 H 181.721 -3.73997 0.0154577 0
M  V30 1947 H 184.013 -6.66691 -1.20537 0
M  V30 1948 H 184.956 -7.07612 0.262879 0
M  V30 1949 H 185.364 -5.60517 -0.669425 0
M  V30 1950 N 184.763 -0.387143 -1.52771 0
M  V30 1951 C 185.991 0.195869 -2.05971 0
M  V30 1952 C 186.406 1.40691 -1.25903 0
M  V30 1953 O 185.763 1.79931 -0.305134 0
M  V30 1954 C 185.814 0.56812 -3.57008 0
M  V30 1955 O 185.535 -0.594803 -4.34043 0
M  V30 1956 C 187.036 1.20723 -4.26545 0
M  V30 1957 H 184.256 0.0300578 -0.670326 0
M  V30 1958 H 186.8 -0.551749 -1.96916 0
M  V30 1959 H 184.955 1.26564 -3.66143 0
M  V30 1960 H 185.369 -0.289322 -5.23701 0
M  V30 1961 H 186.843 1.41807 -5.33474 0
M  V30 1962 H 187.32 2.17395 -3.81623 0
M  V30 1963 H 187.926 0.550535 -4.21722 0
M  V30 1964 N 186.241 1.57166 -0.116904 0
M  V30 1965 C 187.469 1.99473 0.549383 0
M  V30 1966 C 187.884 0.996541 1.60357 0
M  V30 1967 O 187.241 -0.0108731 1.82497 0
M  V30 1968 C 187.292 3.41788 1.17741 0
M  V30 1969 O 187.013 4.37788 0.165362 0
M  V30 1970 C 188.514 3.99216 1.92722 0
M  V30 1971 H 185.734 0.655009 0.145616 0
M  V30 1972 H 188.278 2.03494 -0.202625 0
M  V30 1973 H 186.433 3.38713 1.88021 0
M  V30 1974 H 186.847 5.20806 0.621403 0
M  V30 1975 H 188.321 5.00882 2.31995 0
M  V30 1976 H 188.798 3.3824 2.80161 0
M  V30 1977 H 189.404 4.0583 1.27209 0
M  V30 1978 N 187.719 -0.156864 1.56817 0
M  V30 1979 C 188.682 -1.17781 1.96622 0
M  V30 1980 C 189.682 -1.36401 0.851555 0
M  V30 1981 O 190.872 -1.33561 1.11836 0
M  V30 1982 C 188.004 -2.54008 2.27361 0
M  V30 1983 H 189.197 -0.836564 2.87996 0
M  V30 1984 H 186.75 -0.39985 1.51099 0
M  V30 1985 H 187.485 -2.9312 1.38748 0
M  V30 1986 H 187.27 -2.41856 3.08623 0
M  V30 1987 H 188.76 -3.27558 2.59029 0
M  V30 1988 N 189.197 -1.51736 -0.425897 0
M  V30 1989 C 190.129 -1.70083 -1.53638 0
M  V30 1990 C 191.142 -0.581349 -1.52066 0
M  V30 1991 O 192.331 -0.856017 -1.56635 0
M  V30 1992 C 189.431 -1.71078 -2.9255 0
M  V30 1993 C 188.604 -2.99795 -3.185 0
M  V30 1994 C 187.663 -2.92825 -4.37196 0
M  V30 1995 O 186.689 -3.66756 -4.35291 0
M  V30 1996 N 187.891 -2.0946 -5.41393 0
M  V30 1997 H 190.656 -2.65882 -1.383 0
M  V30 1998 H 188.217 -1.49765 -0.614988 0
M  V30 1999 H 190.209 -1.63969 -3.69995 0
M  V30 2000 H 188.779 -0.828242 -3.01428 0
M  V30 2001 H 187.999 -3.20684 -2.2925 0
M  V30 2002 H 189.287 -3.84977 -3.32671 0
M  V30 2003 H 188.685 -1.48792 -5.45781 0
M  V30 2004 H 187.242 -2.08221 -6.17647 0
M  V30 2005 N 190.675 0.682077 -1.42076 0
M  V30 2006 C 191.923 1.4393 -1.41876 0
M  V30 2007 C 192.244 1.94971 -0.0335599 0
M  V30 2008 O 191.514 1.72591 0.926773 0
M  V30 2009 H 190.094 0.534085 -0.522267 0
M  V30 2010 H 192.756 0.806427 -1.77434 0
M  V30 2011 H 191.852 2.29588 -2.11414 0
M  V30 2012 N 192.153 1.28127 0.917671 0
M  V30 2013 C 193.381 1.17892 1.70026 0
M  V30 2014 C 193.796 -0.262958 1.8696 0
M  V30 2015 O 193.153 -1.17811 1.3938 0
M  V30 2016 C 193.204 1.86872 3.09453 0
M  V30 2017 O 192.925 3.25428 2.93306 0
M  V30 2018 C 194.426 1.8289 4.03815 0
M  V30 2019 H 191.646 0.40942 0.531617 0
M  V30 2020 H 194.19 1.69181 1.14883 0
M  V30 2021 H 192.345 1.39464 3.61426 0
M  V30 2022 H 192.759 3.59918 3.81523 0
M  V30 2023 H 194.233 2.35751 4.99125 0
M  V30 2024 H 194.71 0.800412 4.31845 0
M  V30 2025 H 195.316 2.29959 3.57769 0
M  V30 2026 N 193.631 -1.12557 1.10312 0
M  V30 2027 C 194.856 -1.88405 0.867085 0
M  V30 2028 C 195.281 -1.79038 -0.576817 0
M  V30 2029 O 194.639 -1.14439 -1.40618 0
M  V30 2030 C 194.687 -3.3563 1.31851 0
M  V30 2031 O 193.791 -4.09565 0.482734 0
M  V30 2032 H 193.132 -0.585455 0.313271 0
M  V30 2033 H 195.662 -1.42352 1.4696 0
M  V30 2034 H 195.672 -3.86469 1.3079 0
M  V30 2035 H 194.347 -3.41765 2.37001 0
M  V30 2036 H 192.924 -3.68695 0.558448 0
M  V30 2037 N 195.109 -0.891671 -1.2995 0
M  V30 2038 C 196.042 -0.307994 -2.26112 0
M  V30 2039 C 197.02 0.575262 -1.52084 0
M  V30 2040 O 198.204 0.523864 -1.81074 0
M  V30 2041 C 195.331 0.561734 -3.34009 0
M  V30 2042 C 194.377 -0.253107 -4.25748 0
M  V30 2043 S 195.21 -1.64572 -5.09584 0
M  V30 2044 C 196.366 -0.782699 -6.20987 0
M  V30 2045 H 196.599 -1.12309 -2.75271 0
M  V30 2046 H 194.132 -0.691509 -1.38049 0
M  V30 2047 H 196.09 1.05777 -3.96638 0
M  V30 2048 H 194.751 1.35099 -2.83561 0
M  V30 2049 H 193.944 0.410908 -5.02322 0
M  V30 2050 H 193.546 -0.682004 -3.67729 0
M  V30 2051 H 195.838 -0.00257476 -6.775 0
M  V30 2052 H 196.781 -1.52026 -6.91588 0
M  V30 2053 H 197.189 -0.340638 -5.63471 0
M  V30 2054 N 196.587 1.43421 -0.653314 0
M  V30 2055 C 197.817 2.05864 -0.174238 0
M  V30 2056 C 198.225 1.49052 1.16534 0
M  V30 2057 O 197.568 0.616481 1.73047 0
M  V30 2058 C 197.63 3.59499 -0.00875873 0
M  V30 2059 C 197.294 4.38893 -1.27364 0
M  V30 2060 C 198.291 4.70947 -2.20239 0
M  V30 2061 C 195.976 4.789 -1.51525 0
M  V30 2062 C 197.97 5.41916 -3.35568 0
M  V30 2063 C 195.657 5.49614 -2.67147 0
M  V30 2064 C 196.655 5.81044 -3.58994 0
M  V30 2065 O 196.343 6.50313 -4.72597 0
M  V30 2066 H 196.075 0.670345 -0.0872549 0
M  V30 2067 H 198.629 1.84913 -0.894226 0
M  V30 2068 H 196.859 3.79025 0.7666 0
M  V30 2069 H 198.548 4.0364 0.427687 0
M  V30 2070 H 199.314 4.40558 -2.02815 0
M  V30 2071 H 195.193 4.53843 -0.809158 0
M  V30 2072 H 198.737 5.66365 -4.07279 0
M  V30 2073 H 194.634 5.79419 -2.84505 0
M  V30 2074 H 195.402 6.68795 -4.71864 0
M  V30 2075 N 198.065 0.39524 1.52563 0
M  V30 2076 C 199.476 -0.0774719 1.86539 0
M  V30 2077 C 199.827 -1.45641 1.31466 0
M  V30 2078 O 198.952 -2.06459 0.648367 0
M  V30 2079 C 199.547 -0.147356 3.38479 0
M  V30 2080 C 198.106 -0.564373 3.72145 0
M  V30 2081 C 197.253 0.269919 2.75983 0
M  V30 2082 H 200.204 0.612876 1.46388 0
M  V30 2083 H 200.225 -0.965343 3.68051 0
M  V30 2084 H 199.737 0.856387 3.78534 0
M  V30 2085 H 197.838 -1.57527 3.37663 0
M  V30 2086 H 197.951 -0.318402 4.78041 0
M  V30 2087 H 196.315 -0.265696 2.5331 0
M  V30 2088 H 197.098 1.27175 3.18875 0
M  V30 2089 N 199.544 -1.57102 0.125237 0
M  V30 2090 C 200.769 -2.0019 -0.542101 0
M  V30 2091 C 201.194 -1.00449 -1.59034 0
M  V30 2092 O 200.552 0.0229423 -1.81285 0
M  V30 2093 C 200.6 -3.42129 -1.13929 0
M  V30 2094 O 199.704 -3.45307 -2.2547 0
M  V30 2095 H 199.045 -0.650171 -0.134812 0
M  V30 2096 H 201.575 -2.03461 0.215553 0
M  V30 2097 H 201.585 -3.80471 -1.4733 0
M  V30 2098 H 200.26 -4.14237 -0.371531 0
M  V30 2099 H 198.837 -3.1879 -1.93462 0
M  V30 2100 N 201.022 0.148545 -1.56898 0
M  V30 2101 C 202.262 0.86765 -1.85071 0
M  V30 2102 C 202.626 1.78417 -0.709317 0
M  V30 2103 O 203.827 2.54261 -0.872049 0
M  V30 2104 C 202.098 1.62306 -3.1842 0
M  V30 2105 S 203.657 2.3878 -3.68143 0
M  V30 2106 H 200.475 0.290174 -0.649092 0
M  V30 2107 H 203.077 0.127755 -1.95082 0
M  V30 2108 H 201.781 0.941192 -3.99462 0
M  V30 2109 H 201.312 2.4039 -3.1141 0
M  V30 2110 H 203.327 3.63942 -3.37285 0
M  V30 2111 N 202.5 1.5196 0.417844 0
M  V30 2112 C 203.74 1.67262 1.17486 0
M  V30 2113 C 204.104 0.38983 1.88001 0
M  V30 2114 O 205.305 0.418845 2.65517 0
M  V30 2115 C 203.576 2.85526 2.14965 0
M  V30 2116 S 205.135 3.21263 2.98891 0
M  V30 2117 H 201.953 0.589077 0.398132 0
M  V30 2118 H 204.555 1.89927 0.463452 0
M  V30 2119 H 203.259 3.77145 1.61833 0
M  V30 2120 H 202.79 2.65107 2.90657 0
M  V30 2121 H 204.805 2.69208 4.16823 0
M  V30 2122 N 203.978 -0.674533 1.42435 0
M  V30 2123 C 205.218 -1.4466 1.44405 0
M  V30 2124 C 205.582 -1.91911 0.0585784 0
M  V30 2125 O 206.783 -2.68759 -0.0469991 0
M  V30 2126 C 205.054 -2.61136 2.44013 0
M  V30 2127 S 206.613 -3.49981 2.64687 0
M  V30 2128 H 203.431 -0.494074 0.511284 0
M  V30 2129 H 206.033 -0.785162 1.7904 0
M  V30 2130 H 204.737 -2.24662 3.43446 0
M  V30 2131 H 204.268 -3.32153 2.10803 0
M  V30 2132 H 206.283 -4.57124 1.93007 0
M  V30 2133 N 205.456 -1.28612 -0.910864 0
M  V30 2134 C 206.684 -1.18792 -1.69399 0
M  V30 2135 C 207.099 0.253039 -1.87097 0
M  V30 2136 O 206.456 1.17071 -1.40003 0
M  V30 2137 C 206.507 -1.88511 -3.08457 0
M  V30 2138 O 206.228 -3.26979 -2.91576 0
M  V30 2139 C 207.729 -1.85029 -4.02839 0
M  V30 2140 H 204.949 -0.412233 -0.529438 0
M  V30 2141 H 207.493 -1.69788 -1.13984 0
M  V30 2142 H 205.648 -1.41379 -3.60681 0
M  V30 2143 H 206.062 -3.61936 -3.79608 0
M  V30 2144 H 207.536 -2.38395 -4.97867 0
M  V30 2145 H 208.013 -0.823303 -4.31414 0
M  V30 2146 H 208.619 -2.31853 -3.56545 0
M  V30 2147 N 206.934 1.1197 -1.10907 0
M  V30 2148 C 207.881 2.17846 -0.762345 0
M  V30 2149 C 208.851 1.63995 0.263599 0
M  V30 2150 O 210.036 1.90273 0.141773 0
M  V30 2151 C 207.176 3.44487 -0.205651 0
M  V30 2152 C 206.289 4.12369 -1.28748 0
M  V30 2153 C 205.424 5.26674 -0.691919 0
M  V30 2154 C 204.463 5.86431 -1.75399 0
M  V30 2155 N 203.6 6.92142 -1.17833 0
M  V30 2156 H 208.44 2.46851 -1.6694 0
M  V30 2157 H 205.977 1.21188 -0.833776 0
M  V30 2158 H 207.935 4.16981 0.135037 0
M  V30 2159 H 206.565 3.15884 0.664613 0
M  V30 2160 H 205.617 3.38003 -1.74522 0
M  V30 2161 H 206.929 4.52844 -2.09125 0
M  V30 2162 H 206.083 6.05953 -0.300963 0
M  V30 2163 H 204.822 4.8749 0.143232 0
M  V30 2164 H 203.827 5.05835 -2.15432 0
M  V30 2165 H 205.052 6.27685 -2.59208 0
M  V30 2166 H 202.998 6.54985 -0.364725 0
M  V30 2167 H 202.915 7.31242 -1.91887 0
M  V30 2168 H 204.183 7.75237 -0.81408 0
M  V30 2169 N 208.412 0.89855 1.29475 0
M  V30 2170 C 209.823 0.572537 1.77705 0
M  V30 2171 C 210.174 -0.911778 1.73727 0
M  V30 2172 O 209.299 -1.71288 1.32247 0
M  V30 2173 C 209.894 1.03252 3.22683 0
M  V30 2174 C 208.453 0.757687 3.68695 0
M  V30 2175 C 207.6 1.20787 2.49612 0
M  V30 2176 H 210.551 1.08139 1.16153 0
M  V30 2177 H 210.572 0.367307 3.78723 0
M  V30 2178 H 210.084 2.11285 3.25546 0
M  V30 2179 H 208.185 -0.310079 3.71308 0
M  V30 2180 H 208.298 1.35476 4.59547 0
M  V30 2181 H 206.662 0.626888 2.46865 0
M  V30 2182 H 207.445 2.29622 2.55203 0
M  V30 2183 N 209.89 -1.43072 0.660911 0
M  V30 2184 C 211.115 -2.06584 0.183805 0
M  V30 2185 C 211.54 -1.49257 -1.14472 0
M  V30 2186 O 210.898 -0.605528 -1.70889 0
M  V30 2187 C 210.946 -3.60418 0.114434 0
M  V30 2188 O 210.05 -4.01981 -0.921137 0
M  V30 2189 H 209.391 -0.656669 0.0983994 0
M  V30 2190 H 211.921 -1.83447 0.906006 0
M  V30 2191 H 211.931 -4.07946 -0.0663394 0
M  V30 2192 H 210.606 -4.01519 1.08422 0
M  V30 2193 H 209.183 -3.66029 -0.71253 0
M  V30 2194 N 211.368 -0.403325 -1.52352 0
M  V30 2195 C 212.645 0.232611 -1.94212 0
M  V30 2196 C 213.025 1.63133 -1.33981 0
M  V30 2197 O 212.373 2.22659 -0.513344 0
M  V30 2198 C 212.583 0.244811 -3.4814 0
M  V30 2199 C 213.931 0.46698 -4.22024 0
M  V30 2200 O 214.955 0.324419 -3.5472 0
M  V30 2201 O 213.814 0.74747 -5.41364 0
M  V30 2202 H 210.908 0.148223 -0.813609 0
M  V30 2203 H 213.454 -0.458848 -1.63379 0
M  V30 2204 H 212.226 -0.734378 -3.84347 0
M  V30 2205 H 211.849 0.980611 -3.85318 0
M  V30 2206 N 212.846 1.57033 -0.133567 0
M  V30 2207 C 214.094 1.953 0.519848 0
M  V30 2208 C 214.415 1.01866 1.66278 0
M  V30 2209 O 213.685 0.0776513 1.95746 0
M  V30 2210 H 212.265 0.721091 0.195032 0
M  V30 2211 H 214.927 1.93809 -0.205921 0
M  V30 2212 H 214.023 2.98695 0.904854 0
M  V30 2213 N 214.325 -0.140222 1.56975 0
M  V30 2214 C 215.273 -1.19207 1.99731 0
M  V30 2215 C 216.267 -1.44089 0.890777 0
M  V30 2216 O 217.473 -1.44301 1.07597 0
M  V30 2217 H 213.848 -0.40142 0.635898 0
M  V30 2218 H 215.819 -0.804813 2.87342 0
M  V30 2219 C 214.568 -2.51617 2.39967 0
M  V30 2220 H 213.891 -2.33303 3.24669 0
M  V30 2221 H 215.331 -3.23827 2.73701 0
M  V30 2222 C 213.79 -3.12654 1.25496 0
M  V30 2223 O 214.32 -3.97786 0.559371 0
M  V30 2224 N 212.526 -2.72206 1.01746 0
M  V30 2225 H 212.073 -2.03074 1.58489 0
M  V30 2226 H 212.031 -3.13377 0.253461 0
M  V30 2227 N 215.803 -1.52179 -0.40978 0
M  V30 2228 C 217.043 -1.67882 -1.16597 0
M  V30 2229 C 217.407 -0.399795 -1.87791 0
M  V30 2230 O 218.608 -0.43292 -2.65291 0
M  V30 2231 C 216.879 -2.86662 -2.13448 0
M  V30 2232 S 218.438 -3.22843 -2.97183 0
M  V30 2233 H 215.256 -0.59118 -0.395002 0
M  V30 2234 H 217.858 -1.9017 -0.453373 0
M  V30 2235 H 216.562 -3.77998 -1.59831 0
M  V30 2236 H 216.093 -2.66645 -2.89247 0
M  V30 2237 H 218.108 -2.71415 -4.15389 0
M  V30 2238 N 217.281 0.66697 -1.42791 0
M  V30 2239 C 218.509 1.45505 -1.47091 0
M  V30 2240 C 218.924 1.8861 -0.0845873 0
M  V30 2241 O 218.281 1.58632 0.90234 0
M  V30 2242 C 218.332 2.69906 -2.40485 0
M  V30 2243 O 218.053 2.28608 -3.73725 0
M  V30 2244 C 219.554 3.63396 -2.53886 0
M  V30 2245 H 216.774 0.447459 -0.500022 0
M  V30 2246 H 219.318 0.818866 -1.8739 0
M  V30 2247 H 217.473 3.29696 -2.03419 0
M  V30 2248 H 217.887 3.08997 -4.23817 0
M  V30 2249 H 219.361 4.47387 -3.2334 0
M  V30 2250 H 219.838 4.09824 -1.57927 0
M  V30 2251 H 220.444 3.09495 -2.91706 0
M  V30 2252 N 218.759 1.29093 0.90403 0
M  V30 2253 C 219.999 1.18076 1.66845 0
M  V30 2254 C 220.363 -0.26436 1.90171 0
M  V30 2255 O 221.564 -0.497423 2.64157 0
M  V30 2256 C 219.835 1.96722 2.98388 0
M  V30 2257 S 221.394 2.0219 3.89441 0
M  V30 2258 H 218.212 0.421104 0.572881 0
M  V30 2259 H 220.814 1.63322 1.07453 0
M  V30 2260 H 219.518 3.00866 2.7912 0
M  V30 2261 H 219.049 1.52064 3.62823 0
M  V30 2262 H 221.064 1.13545 4.83034 0
M  V30 2263 N 220.237 -1.11381 1.11499 0
M  V30 2264 C 221.486 -1.82494 0.858993 0
M  V30 2265 C 221.799 -1.85605 -0.617278 0
M  V30 2266 O 223.005 -2.52824 -0.989552 0
M  V30 2267 C 221.461 -3.27745 1.48699 0
M  V30 2268 C 221.069 -3.32961 2.99735 0
M  V30 2269 C 222.813 -4.03754 1.31085 0
M  V30 2270 C 220.72 -4.72612 3.55516 0
M  V30 2271 H 219.65 -0.683802 0.317696 0
M  V30 2272 H 222.301 -1.25331 1.34031 0
M  V30 2273 H 220.683 -3.84844 0.933339 0
M  V30 2274 H 221.857 -2.85741 3.61509 0
M  V30 2275 H 220.172 -2.70433 3.16631 0
M  V30 2276 H 222.769 -5.06891 1.70192 0
M  V30 2277 H 223.112 -4.15527 0.253496 0
M  V30 2278 H 223.645 -3.53043 1.83318 0
M  V30 2279 H 220.384 -4.66036 4.60967 0
M  V30 2280 H 219.904 -5.2024 2.98513 0
M  V30 2281 H 221.583 -5.4157 3.53992 0
M  V30 2282 N 221.715 -0.905404 -1.28997 0
M  V30 2283 C 223.126 -0.581953 -1.77398 0
M  V30 2284 C 223.477 0.902552 -1.74208 0
M  V30 2285 O 222.602 1.70584 -1.33154 0
M  V30 2286 C 223.197 -1.04961 -3.22131 0
M  V30 2287 C 221.756 -0.777229 -3.68288 0
M  V30 2288 C 220.903 -1.22109 -2.48967 0
M  V30 2289 H 223.854 -1.08754 -1.15578 0
M  V30 2290 H 223.875 -0.387387 -3.78523 0
M  V30 2291 H 223.387 -2.13008 -3.24421 0
M  V30 2292 H 221.488 0.290383 -3.71467 0
M  V30 2293 H 221.601 -1.37911 -4.58822 0
M  V30 2294 H 219.965 -0.639971 -2.46529 0
M  V30 2295 H 220.748 -2.30972 -2.53982 0
M  V30 2296 N 223.193 1.4272 -0.668489 0
M  V30 2297 C 224.442 2.00846 -0.185389 0
M  V30 2298 C 224.755 1.53442 1.21305 0
M  V30 2299 O 225.961 2.03944 1.79218 0
M  V30 2300 C 224.417 3.58805 -0.280591 0
M  V30 2301 C 224.025 4.15198 -1.68268 0
M  V30 2302 C 225.769 4.24255 0.14412 0
M  V30 2303 C 223.676 5.655 -1.73099 0
M  V30 2304 H 222.606 0.751145 -0.0655475 0
M  V30 2305 H 225.257 1.63516 -0.832752 0
M  V30 2306 H 223.639 3.93608 0.434553 0
M  V30 2307 H 224.813 3.91866 -2.42441 0
M  V30 2308 H 223.128 3.62176 -2.05469 0
M  V30 2309 H 225.725 5.34547 0.128086 0
M  V30 2310 H 226.068 3.99277 1.17827 0
M  V30 2311 H 226.601 3.94389 -0.519798 0
M  V30 2312 H 223.34 5.95268 -2.74475 0
M  V30 2313 H 222.86 5.90842 -1.03274 0
M  V30 2314 H 224.539 6.29808 -1.48158 0
M  V30 2315 N 224.671 0.411399 1.52136 0
M  V30 2316 C 226.082 -0.0576826 1.86611 0
M  V30 2317 C 226.433 -1.44238 1.33003 0
M  V30 2318 O 225.558 -2.05759 0.670228 0
M  V30 2319 C 226.153 -0.111448 3.38617 0
M  V30 2320 C 224.712 -0.52487 3.72723 0
M  V30 2321 C 223.859 0.299176 2.75681 0
M  V30 2322 H 226.81 0.628368 1.4573 0
M  V30 2323 H 226.831 -0.926252 3.69054 0
M  V30 2324 H 226.343 0.896488 3.77604 0
M  V30 2325 H 224.444 -1.53936 3.39315 0
M  V30 2326 H 224.557 -0.267681 4.78352 0
M  V30 2327 H 222.921 -0.238814 2.53578 0
M  V30 2328 H 223.704 1.3055 3.17508 0
M  V30 2329 N 226.149 -1.5696 0.141893 0
M  V30 2330 C 227.374 -2.00754 -0.520838 0
M  V30 2331 C 227.799 -1.0213 -1.57959 0
M  V30 2332 O 227.157 0.00371324 -1.813 0
M  V30 2333 C 227.205 -3.43318 -1.10294 0
M  V30 2334 O 226.309 -3.47679 -2.21795 0
M  V30 2335 H 225.65 -0.651564 -0.127908 0
M  V30 2336 H 228.18 -2.03221 0.23712 0
M  V30 2337 H 228.19 -3.82012 -1.43287 0
M  V30 2338 H 226.865 -4.14608 -0.327574 0
M  V30 2339 H 225.442 -3.20824 -1.9007 0
M  V30 2340 N 227.627 0.131896 -1.57047 0
M  V30 2341 C 228.852 0.860418 -1.8871 0
M  V30 2342 C 229.277 1.73251 -0.73251 0
M  V30 2343 O 228.635 1.785 0.317429 0
M  V30 2344 C 228.683 1.68047 -3.19049 0
M  V30 2345 O 227.787 2.7862 -3.04047 0
M  V30 2346 H 227.128 0.238743 -0.619595 0
M  V30 2347 H 229.658 0.118169 -2.04258 0
M  V30 2348 H 229.668 2.07238 -3.51449 0
M  V30 2349 H 228.343 1.04018 -4.02682 0
M  V30 2350 H 226.92 2.42726 -2.83088 0
M  V30 2351 N 229.106 1.52395 0.401703 0
M  V30 2352 C 230.352 1.68019 1.14635 0
M  V30 2353 C 230.707 0.408722 1.88009 0
M  V30 2354 O 230 -0.597133 1.82057 0
M  V30 2355 C 230.194 2.84578 2.16217 0
M  V30 2356 C 230.023 4.22938 1.5282 0
M  V30 2357 C 228.793 4.88352 1.29772 0
M  V30 2358 C 230.991 5.04778 0.985094 0
M  V30 2359 N 228.973 6.10726 0.623455 0
M  V30 2360 C 230.344 6.1845 0.438172 0
M  V30 2361 C 232.399 4.90057 0.880275 0
M  V30 2362 C 231.102 7.19013 -0.203306 0
M  V30 2363 C 233.128 5.9086 0.252639 0
M  V30 2364 C 232.49 7.03829 -0.283573 0
M  V30 2365 H 228.589 0.668413 0.405892 0
M  V30 2366 H 231.173 1.89717 0.437674 0
M  V30 2367 H 229.344 2.64483 2.84435 0
M  V30 2368 H 231.076 2.89202 2.83098 0
M  V30 2369 H 227.831 4.46846 1.56926 0
M  V30 2370 H 228.255 6.76323 0.302733 0
M  V30 2371 H 232.897 4.02938 1.28065 0
M  V30 2372 H 230.615 8.05751 -0.615726 0
M  V30 2373 H 234.201 5.81543 0.172954 0
M  V30 2374 H 233.081 7.80493 -0.761575 0
M  V30 2375 N 230.584 -0.659388 1.43143 0
M  V30 2376 C 231.547 -1.75432 1.47501 0
M  V30 2377 C 232.547 -1.56707 0.360512 0
M  V30 2378 O 233.737 -1.62717 0.622002 0
M  V30 2379 C 230.869 -3.14239 1.32162 0
M  V30 2380 H 232.062 -1.7295 2.45006 0
M  V30 2381 H 229.615 -0.870469 1.29817 0
M  V30 2382 H 230.35 -3.22336 0.356401 0
M  V30 2383 H 230.135 -3.29235 2.12948 0
M  V30 2384 H 231.625 -3.94094 1.3813 0
M  V30 2385 N 232.062 -1.29571 -0.897171 0
M  V30 2386 C 233.309 -1.17689 -1.6479 0
M  V30 2387 C 233.637 0.27107 -1.92602 0
M  V30 2388 O 232.892 1.21193 -1.53658 0
M  V30 2389 C 233.191 -1.9382 -3.00281 0
M  V30 2390 C 232.857 -3.43522 -2.92068 0
M  V30 2391 C 231.519 -3.84348 -2.89535 0
M  V30 2392 C 233.871 -4.38906 -2.81089 0
M  V30 2393 C 231.199 -5.18869 -2.73846 0
M  V30 2394 C 233.551 -5.73521 -2.66939 0
M  V30 2395 C 232.215 -6.13601 -2.62774 0
M  V30 2396 H 231.485 -0.430654 -0.603008 0
M  V30 2397 H 234.132 -1.60536 -1.04404 0
M  V30 2398 H 232.437 -1.4357 -3.64547 0
M  V30 2399 H 234.134 -1.82028 -3.57305 0
M  V30 2400 H 230.724 -3.11072 -2.94842 0
M  V30 2401 H 234.908 -4.08315 -2.82121 0
M  V30 2402 H 230.164 -5.4903 -2.69027 0
M  V30 2403 H 234.338 -6.47078 -2.57416 0
M  V30 2404 H 231.965 -7.17786 -2.50375 0
M  V30 2405 N 233.54 1.10788 -1.12088 0
M  V30 2406 C 234.788 1.8231 -0.872205 0
M  V30 2407 C 235.109 1.85419 0.603709 0
M  V30 2408 O 234.379 1.32963 1.43867 0
M  V30 2409 H 232.959 0.675137 -0.319686 0
M  V30 2410 H 235.621 1.34068 -1.41463 0
M  V30 2411 H 234.717 2.85955 -1.25045 0
M  V30 2412 N 235.018 0.912232 1.28515 0
M  V30 2413 C 235.965 0.397954 2.27343 0
M  V30 2414 C 236.935 -0.526766 1.57526 0
M  V30 2415 O 238.12 -0.449292 1.85435 0
M  V30 2416 C 235.26 -0.357263 3.43246 0
M  V30 2417 C 234.373 0.599788 4.27816 0
M  V30 2418 C 233.508 -0.173725 5.30916 0
M  V30 2419 C 232.547 0.777039 6.07148 0
M  V30 2420 N 231.684 0.0371398 7.0209 0
M  V30 2421 H 236.524 1.24577 2.70711 0
M  V30 2422 H 234.061 0.625612 1.33133 0
M  V30 2423 H 236.019 -0.8113 4.09236 0
M  V30 2424 H 234.649 -1.16943 3.00872 0
M  V30 2425 H 233.701 1.17235 3.61884 0
M  V30 2426 H 235.013 1.32704 4.80823 0
M  V30 2427 H 234.167 -0.688394 6.02782 0
M  V30 2428 H 232.906 -0.934041 4.78672 0
M  V30 2429 H 231.911 1.3031 5.34134 0
M  V30 2430 H 233.136 1.53689 6.61481 0
M  V30 2431 H 231.082 -0.705213 6.52198 0
M  V30 2432 H 230.999 0.704249 7.52713 0
M  V30 2433 H 232.267 -0.457383 7.78157 0
M  V30 2434 N 236.496 -1.42363 0.676048 0
M  V30 2435 C 237.743 -2.01522 0.19883 0
M  V30 2436 C 238.071 -1.53456 -1.19505 0
M  V30 2437 O 237.326 -0.727967 -1.81657 0
M  V30 2438 C 237.625 -3.56929 0.183431 0
M  V30 2439 C 237.291 -4.24431 1.52215 0
M  V30 2440 C 235.953 -4.42585 1.8887 0
M  V30 2441 C 238.305 -4.62459 2.40377 0
M  V30 2442 C 235.633 -4.96039 3.13309 0
M  V30 2443 C 237.985 -5.17294 3.64129 0
M  V30 2444 C 236.649 -5.33661 4.00951 0
M  V30 2445 H 235.919 -0.737419 0.0727571 0
M  V30 2446 H 238.566 -1.70531 0.871281 0
M  V30 2447 H 236.871 -3.87594 -0.572532 0
M  V30 2448 H 238.568 -4.00486 -0.203035 0
M  V30 2449 H 235.158 -4.10661 1.22701 0
M  V30 2450 H 239.342 -4.48105 2.13343 0
M  V30 2451 H 234.598 -5.06896 3.41857 0
M  V30 2452 H 238.772 -5.45704 4.32644 0
M  V30 2453 H 236.399 -5.74845 4.9745 0
M  V30 2454 N 237.974 -0.419461 -1.51915 0
M  V30 2455 C 238.904 0.391813 -2.30189 0
M  V30 2456 C 239.885 1.03699 -1.34836 0
M  V30 2457 O 241.07 1.04403 -1.63748 0
M  V30 2458 C 238.2 1.50312 -3.13087 0
M  V30 2459 C 237.154 0.9824 -4.16573 0
M  V30 2460 C 236.48 2.18809 -4.8788 0
M  V30 2461 C 237.78 0.0292356 -5.22292 0
M  V30 2462 H 239.474 -0.26135 -2.98257 0
M  V30 2463 H 237.02 -0.127134 -1.43438 0
M  V30 2464 H 238.973 2.07773 -3.66617 0
M  V30 2465 H 237.697 2.18431 -2.42807 0
M  V30 2466 H 236.356 0.430119 -3.64068 0
M  V30 2467 H 236.004 2.85507 -4.14119 0
M  V30 2468 H 235.704 1.84615 -5.57845 0
M  V30 2469 H 237.228 2.76858 -5.44226 0
M  V30 2470 H 238.642 0.512976 -5.71 0
M  V30 2471 H 237.039 -0.2244 -5.9968 0
M  V30 2472 H 238.109 -0.912931 -4.76228 0
M  V30 2473 N 239.452 1.56882 -0.150215 0
M  V30 2474 C 240.698 1.97299 0.494427 0
M  V30 2475 C 241.053 1.0338 1.62266 0
M  V30 2476 O 240.346 0.0694497 1.91474 0
M  V30 2477 C 240.54 3.41801 1.04437 0
M  V30 2478 C 240.369 4.49691 -0.0290451 0
M  V30 2479 C 239.139 5.03095 -0.47156 0
M  V30 2480 C 241.337 5.07693 -0.821703 0
M  V30 2481 N 239.319 5.94593 -1.52749 0
M  V30 2482 C 240.69 5.95431 -1.72805 0
M  V30 2483 C 242.745 4.90256 -0.869134 0
M  V30 2484 C 241.448 6.67599 -2.67777 0
M  V30 2485 C 243.474 5.63127 -1.8067 0
M  V30 2486 C 242.836 6.50576 -2.70057 0
M  V30 2487 H 238.935 0.76755 0.149639 0
M  V30 2488 H 241.519 1.93145 -0.24556 0
M  V30 2489 H 239.69 3.46541 1.75396 0
M  V30 2490 H 241.422 3.69272 1.6559 0
M  V30 2491 H 238.177 4.73543 -0.0732101 0
M  V30 2492 H 238.601 6.45047 -2.05531 0
M  V30 2493 H 243.243 4.22363 -0.192134 0
M  V30 2494 H 240.961 7.34717 -3.36476 0
M  V30 2495 H 244.547 5.51629 -1.84924 0
M  V30 2496 H 243.427 7.05974 -3.41424 0
M  V30 2497 N 240.93 -0.123565 1.57115 0
M  V30 2498 C 241.84 -1.17074 2.033 0
M  V30 2499 C 242.856 -1.4561 0.952559 0
M  V30 2500 O 244.032 -1.56817 1.26374 0
M  V30 2501 C 241.097 -2.47857 2.42421 0
M  V30 2502 C 240.158 -2.26758 3.64526 0
M  V30 2503 C 239.391 -3.51305 4.01771 0
M  V30 2504 O 239.614 -4.5843 3.39409 0
M  V30 2505 O 238.548 -3.42578 4.94898 0
M  V30 2506 H 242.374 -0.808555 2.92739 0
M  V30 2507 H 239.959 -0.334027 1.45618 0
M  V30 2508 H 241.841 -3.2492 2.68338 0
M  V30 2509 H 240.516 -2.83558 1.5613 0
M  V30 2510 H 239.423 -1.47569 3.43765 0
M  V30 2511 H 240.756 -1.95963 4.51508 0
M  V30 2512 N 242.408 -1.52605 -0.393616 0
M  V30 2513 C 243.654 -1.68624 -1.13743 0
M  V30 2514 C 244.009 -0.418687 -1.87789 0
M  V30 2515 O 243.302 0.58747 -1.82371 0
M  V30 2516 C 243.496 -2.85721 -2.14705 0
M  V30 2517 C 243.325 -4.23742 -1.50575 0
M  V30 2518 C 242.095 -4.89033 -1.2718 0
M  V30 2519 C 244.293 -5.05293 -0.958311 0
M  V30 2520 N 242.275 -6.11048 -0.591058 0
M  V30 2521 C 243.646 -6.18673 -0.405367 0
M  V30 2522 C 245.701 -4.90517 -0.854274 0
M  V30 2523 C 244.404 -7.18895 0.241434 0
M  V30 2524 C 246.43 -5.90986 -0.221301 0
M  V30 2525 C 245.792 -7.03669 0.320894 0
M  V30 2526 H 241.891 -0.670556 -0.402342 0
M  V30 2527 H 244.475 -1.89946 -0.427607 0
M  V30 2528 H 242.646 -2.65987 -2.83029 0
M  V30 2529 H 244.378 -2.90699 -2.8156 0
M  V30 2530 H 241.133 -4.47672 -1.54554 0
M  V30 2531 H 241.557 -6.76474 -0.266862 0
M  V30 2532 H 246.199 -4.03612 -1.25926 0
M  V30 2533 H 243.917 -8.05413 0.658448 0
M  V30 2534 H 247.503 -5.81626 -0.142111 0
M  V30 2535 H 246.383 -7.80078 0.802956 0
M  V30 2536 N 243.887 0.651787 -1.4349 0
M  V30 2537 C 244.85 1.74647 -1.48429 0
M  V30 2538 C 245.85 1.56513 -0.368817 0
M  V30 2539 O 247.04 1.62385 -0.630623 0
M  V30 2540 C 244.172 3.13533 -1.33827 0
M  V30 2541 H 245.365 1.71649 -2.4592 0
M  V30 2542 H 242.918 0.863573 -1.30277 0
M  V30 2543 H 243.653 3.22142 -0.37349 0
M  V30 2544 H 243.438 3.28101 -2.14691 0
M  V30 2545 H 244.928 3.93356 -1.40218 0
M  V30 2546 N 245.365 1.30045 0.890287 0
M  V30 2547 C 246.59 1.21598 1.68014 0
M  V30 2548 C 247.015 -0.218678 1.86825 0
M  V30 2549 O 246.373 -1.15756 1.39536 0
M  V30 2550 C 246.421 1.94434 3.03691 0
M  V30 2551 O 245.525 1.2678 3.92429 0
M  V30 2552 H 244.866 0.420856 0.513592 0
M  V30 2553 H 247.396 1.71775 1.11151 0
M  V30 2554 H 247.406 2.03251 3.5377 0
M  V30 2555 H 246.081 2.98777 2.89318 0
M  V30 2556 H 244.658 1.26282 3.50866 0
M  V30 2557 N 246.843 -1.10192 1.12674 0
M  V30 2558 C 247.806 -2.14786 0.799979 0
M  V30 2559 C 248.806 -1.59711 -0.18685 0
M  V30 2560 O 249.996 -1.74156 0.0392558 0
M  V30 2561 C 247.128 -3.40374 0.189228 0
M  V30 2562 H 248.321 -2.45203 1.72671 0
M  V30 2563 H 245.874 -1.25597 0.930326 0
M  V30 2564 H 246.609 -3.15577 -0.747107 0
M  V30 2565 H 246.394 -3.81637 0.899766 0
M  V30 2566 H 247.884 -4.17594 -0.0228143 0
M  V30 2567 N 248.321 -0.919034 -1.28029 0
M  V30 2568 C 249.737 -0.617972 -1.4715 0
M  V30 2569 C 249.937 0.835242 -1.83374 0
M  V30 2570 O 248.993 1.61388 -1.94191 0
M  V30 2571 C 250.306 -1.56041 -2.57044 0
M  V30 2572 C 251.854 -1.56769 -2.7091 0
M  V30 2573 C 252.329 -2.49688 -3.83953 0
M  V30 2574 N 253.82 -2.47845 -3.91314 0
M  V30 2575 C 254.555 -3.16437 -4.78179 0
M  V30 2576 N 254.051 -3.94376 -5.69596 0
M  V30 2577 N 255.844 -3.05498 -4.71834 0
M  V30 2578 H 247.995 -1.85866 -1.02798 0
M  V30 2579 H 250.258 -0.797506 -0.512531 0
M  V30 2580 H 249.964 -2.59671 -2.372 0
M  V30 2581 H 249.838 -1.29551 -3.54255 0
M  V30 2582 H 252.225 -0.538745 -2.90141 0
M  V30 2583 H 252.306 -1.87305 -1.74214 0
M  V30 2584 H 251.95 -3.52688 -3.65477 0
M  V30 2585 H 251.88 -2.16453 -4.80058 0
M  V30 2586 H 254.371 -1.91234 -3.25941 0
M  V30 2587 H 254.684 -4.43721 -6.32718 0
M  V30 2588 H 253.029 -3.98481 -5.69419 0
M  V30 2589 H 256.22 -2.44108 -3.99411 0
M  V30 2590 H 256.393 -3.59225 -5.39316 0
M  V30 2591 N 249.799 1.42003 -0.683588 0
M  V30 2592 C 251.046 2.01413 -0.209514 0
M  V30 2593 C 251.374 1.54088 1.1869 0
M  V30 2594 O 250.629 0.737591 1.81268 0
M  V30 2595 C 250.928 3.56827 -0.202357 0
M  V30 2596 C 250.594 4.23617 -1.54464 0
M  V30 2597 C 249.256 4.41577 -1.91215 0
M  V30 2598 C 251.608 4.61178 -2.42826 0
M  V30 2599 C 248.936 4.9437 -3.15935 0
M  V30 2600 C 251.288 5.15355 -3.66867 0
M  V30 2601 C 249.952 5.31528 -4.03776 0
M  V30 2602 H 249.222 0.737023 -0.0766668 0
M  V30 2603 H 251.869 1.70067 -0.880312 0
M  V30 2604 H 250.174 3.87892 0.551969 0
M  V30 2605 H 251.871 4.00588 0.181793 0
M  V30 2606 H 248.461 4.10004 -1.24877 0
M  V30 2607 H 252.645 4.46968 -2.15717 0
M  V30 2608 H 247.901 5.05076 -3.44541 0
M  V30 2609 H 252.075 5.43402 -4.35531 0
M  V30 2610 H 249.702 5.72199 -5.00492 0
M  V30 2611 N 251.277 0.427512 1.51691 0
M  V30 2612 C 252.502 -0.143601 2.06902 0
M  V30 2613 C 252.927 -1.36536 1.29382 0
M  V30 2614 O 252.285 -1.78289 0.329043 0
M  V30 2615 C 252.333 -0.454207 3.57728 0
M  V30 2616 O 251.437 -1.54228 3.82475 0
M  V30 2617 H 250.778 -0.00617128 0.663971 0
M  V30 2618 H 253.308 0.606014 1.95419 0
M  V30 2619 H 253.318 -0.707525 4.01818 0
M  V30 2620 H 251.993 0.438812 4.13579 0
M  V30 2621 H 250.57 -1.2797 3.50254 0
M  V30 2622 N 252.755 -1.56801 0.158532 0
M  V30 2623 C 254.001 -1.97559 -0.483957 0
M  V30 2624 C 254.356 -1.04239 -1.61716 0
M  V30 2625 O 253.649 -0.079603 -1.91435 0
M  V30 2626 C 253.843 -3.4235 -1.02623 0
M  V30 2627 C 253.672 -4.49669 0.0528929 0
M  V30 2628 C 252.442 -5.02838 0.498234 0
M  V30 2629 C 254.64 -5.0725 0.848616 0
M  V30 2630 N 252.622 -5.93775 1.559 0
M  V30 2631 C 253.993 -5.94506 1.7596 0
M  V30 2632 C 256.048 -4.89788 0.895121 0
M  V30 2633 C 254.751 -6.66169 2.71314 0
M  V30 2634 C 256.777 -5.62161 1.83654 0
M  V30 2635 C 256.139 -6.49134 2.73503 0
M  V30 2636 H 252.238 -0.768332 -0.145566 0
M  V30 2637 H 254.822 -1.93012 0.255799 0
M  V30 2638 H 252.993 -3.47467 -1.73555 0
M  V30 2639 H 254.725 -3.70145 -1.63629 0
M  V30 2640 H 251.48 -4.73498 0.0983222 0
M  V30 2641 H 251.904 -6.43948 2.08949 0
M  V30 2642 H 256.546 -4.22255 0.21453 0
M  V30 2643 H 254.264 -7.32923 3.40367 0
M  V30 2644 H 257.85 -5.5064 1.87847 0
M  V30 2645 H 256.73 -7.04153 3.45163 0
M  V30 2646 N 254.233 0.115231 -1.57178 0
M  V30 2647 C 255.163 1.1423 -2.03651 0
M  V30 2648 C 256.144 1.42967 -0.921655 0
M  V30 2649 O 257.329 1.53343 -1.19162 0
M  V30 2650 C 254.459 2.4675 -2.44401 0
M  V30 2651 C 253.413 2.32467 -3.59365 0
M  V30 2652 C 252.739 3.69984 -3.86026 0
M  V30 2653 C 254.039 1.78203 -4.90959 0
M  V30 2654 H 255.733 0.755749 -2.89705 0
M  V30 2655 H 253.279 0.362093 -1.39373 0
M  V30 2656 H 255.232 3.18854 -2.75517 0
M  V30 2657 H 253.956 2.87302 -1.55322 0
M  V30 2658 H 252.615 1.62811 -3.28463 0
M  V30 2659 H 252.263 4.08028 -2.94147 0
M  V30 2660 H 251.963 3.61279 -4.63412 0
M  V30 2661 H 253.487 4.43587 -4.19599 0
M  V30 2662 H 254.901 2.40128 -5.20587 0
M  V30 2663 H 253.298 1.8031 -5.72371 0
M  V30 2664 H 254.368 0.739876 -4.79222 0
M  V30 2665 N 255.711 1.52812 0.385517 0
M  V30 2666 C 256.936 1.72207 1.15583 0
M  V30 2667 C 257.361 0.441034 1.82857 0
M  V30 2668 O 256.719 -0.603465 1.70962 0
M  V30 2669 C 256.767 2.87476 2.17692 0
M  V30 2670 O 255.871 2.54693 3.24354 0
M  V30 2671 H 255.212 0.572526 0.336319 0
M  V30 2672 H 257.742 1.99618 0.448744 0
M  V30 2673 H 257.752 3.13072 2.6163 0
M  V30 2674 H 256.427 3.80408 1.68115 0
M  V30 2675 H 255.004 2.3985 2.85529 0
M  V30 2676 N 257.189 -0.644168 1.43834 0
M  V30 2677 C 258.119 -1.76814 1.52509 0
M  V30 2678 C 259.1 -1.65823 0.379052 0
M  V30 2679 O 260.285 -1.84781 0.597466 0
M  V30 2680 C 257.415 -3.15288 1.4564 0
M  V30 2681 C 256.369 -3.41053 2.58586 0
M  V30 2682 C 255.695 -4.79421 2.36769 0
M  V30 2683 C 256.995 -3.34902 4.00797 0
M  V30 2684 H 258.689 -1.69812 2.46586 0
M  V30 2685 H 256.235 -0.815542 1.1868 0
M  V30 2686 H 258.188 -3.93681 1.50311 0
M  V30 2687 H 256.912 -3.23043 0.480725 0
M  V30 2688 H 255.571 -2.65035 2.53282 0
M  V30 2689 H 255.219 -4.83863 1.37424 0
M  V30 2690 H 254.919 -4.9762 3.12487 0
M  V30 2691 H 256.443 -5.6006 2.43238 0
M  V30 2692 H 257.857 -4.03218 4.07539 0
M  V30 2693 H 256.254 -3.64637 4.76613 0
M  V30 2694 H 257.324 -2.32928 4.25291 0
M  V30 2695 N 258.668 -1.30515 -0.883378 0
M  V30 2696 C 259.598 -1.19607 -2.00541 0
M  V30 2697 C 260.579 -0.086346 -1.69881 0
M  V30 2698 O 261.764 -0.268654 -1.92333 0
M  V30 2699 C 258.894 -0.888758 -3.35736 0
M  V30 2700 C 257.848 -1.95659 -3.8066 0
M  V30 2701 C 257.174 -1.50224 -5.13164 0
M  V30 2702 C 258.474 -3.36788 -3.99213 0
M  V30 2703 H 260.168 -2.13476 -2.09925 0
M  V30 2704 H 257.714 -1.02775 -1.00863 0
M  V30 2705 H 259.667 -0.799094 -4.13754 0
M  V30 2706 H 258.391 0.0856125 -3.26488 0
M  V30 2707 H 257.05 -2.03591 -3.04871 0
M  V30 2708 H 256.698 -0.516092 -5.00345 0
M  V30 2709 H 256.398 -2.2165 -5.44192 0
M  V30 2710 H 257.922 -1.42639 -5.93706 0
M  V30 2711 H 259.336 -3.31605 -4.67665 0
M  V30 2712 H 257.733 -4.06314 -4.41621 0
M  V30 2713 H 258.803 -3.78561 -3.03017 0
M  V30 2714 N 260.146 1.09593 -1.13257 0
M  V30 2715 C 261.392 1.82003 -0.89458 0
M  V30 2716 C 261.725 1.85402 0.577906 0
M  V30 2717 O 261 1.32099 1.42759 0
M  V30 2718 C 261.283 3.28237 -1.48096 0
M  V30 2719 C 261.136 3.3312 -3.02244 0
M  V30 2720 C 262.455 4.24871 -1.14774 0
M  V30 2721 H 259.574 0.66077 -0.326424 0
M  V30 2722 H 262.216 1.28389 -1.40058 0
M  V30 2723 H 260.366 3.74024 -1.05062 0
M  V30 2724 H 262.038 2.95748 -3.54021 0
M  V30 2725 H 260.281 2.72756 -3.37323 0
M  V30 2726 H 260.952 4.3613 -3.38371 0
M  V30 2727 H 263.428 3.87361 -1.51957 0
M  V30 2728 H 262.304 5.25532 -1.58452 0
M  V30 2729 H 262.565 4.42058 -0.0611849 0
M  V30 2730 N 261.624 0.925811 1.2754 0
M  V30 2731 C 263.035 0.610102 1.7645 0
M  V30 2732 C 263.386 -0.874723 1.75622 0
M  V30 2733 O 262.511 -1.68444 1.35851 0
M  V30 2734 C 263.106 1.10073 3.20421 0
M  V30 2735 C 261.665 0.835723 3.67005 0
M  V30 2736 C 260.812 1.26054 2.46993 0
M  V30 2737 H 263.763 1.10579 1.13833 0
M  V30 2738 H 263.784 0.447557 3.77859 0
M  V30 2739 H 263.296 2.18143 3.20991 0
M  V30 2740 H 261.397 -0.231249 3.71882 0
M  V30 2741 H 261.51 1.45193 4.56569 0
M  V30 2742 H 259.874 0.679111 2.45479 0
M  V30 2743 H 260.657 2.34984 2.50275 0
M  V30 2744 N 263.102 -1.41638 0.69111 0
M  V30 2745 C 264.349 -2.01299 0.220193 0
M  V30 2746 C 264.677 -1.54715 -1.17871 0
M  V30 2747 O 263.932 -0.747193 -1.80874 0
M  V30 2748 C 264.231 -3.56714 0.221277 0
M  V30 2749 C 263.897 -4.22792 1.56709 0
M  V30 2750 C 262.559 -4.40557 1.93554 0
M  V30 2751 C 264.911 -4.59883 2.45268 0
M  V30 2752 C 262.239 -4.92688 3.18552 0
M  V30 2753 C 264.591 -5.13403 3.69595 0
M  V30 2754 C 263.255 -5.29379 4.06589 0
M  V30 2755 H 262.525 -0.736606 0.0805743 0
M  V30 2756 H 265.172 -1.69598 0.889319 0
M  V30 2757 H 263.477 -3.8818 -0.531391 0
M  V30 2758 H 265.174 -4.00678 -0.160547 0
M  V30 2759 H 261.764 -4.09336 1.2705 0
M  V30 2760 H 265.948 -4.45817 2.18084 0
M  V30 2761 H 261.204 -5.03242 3.47214 0
M  V30 2762 H 265.378 -5.41084 4.38407 0
M  V30 2763 H 263.005 -5.69537 5.03519 0
M  V30 2764 N 264.58 -0.43555 -1.51462 0
M  V30 2765 C 265.826 0.131709 -2.02372 0
M  V30 2766 C 266.159 1.42516 -1.3192 0
M  V30 2767 O 265.434 1.89606 -0.433573 0
M  V30 2768 C 265.717 0.352301 -3.58373 0
M  V30 2769 C 265.57 -0.959676 -4.39443 0
M  V30 2770 C 266.889 1.12286 -4.25535 0
M  V30 2771 H 264.008 0.0463936 -0.735538 0
M  V30 2772 H 266.65 -0.574197 -1.81116 0
M  V30 2773 H 264.8 0.9536 -3.76615 0
M  V30 2774 H 266.472 -1.59482 -4.32855 0
M  V30 2775 H 264.715 -1.56468 -4.04599 0
M  V30 2776 H 265.386 -0.759394 -5.46752 0
M  V30 2777 H 267.862 0.613545 -4.11552 0
M  V30 2778 H 266.738 1.24598 -5.34571 0
M  V30 2779 H 266.999 2.15048 -3.86273 0
M  V30 2780 N 266.058 1.56714 -0.166846 0
M  V30 2781 C 266.99 2.14914 0.796537 0
M  V30 2782 C 268.003 1.10357 1.19688 0
M  V30 2783 O 269.192 1.37561 1.13751 0
M  V30 2784 C 266.292 2.67326 2.08303 0
M  V30 2785 C 265.465 3.96493 1.84696 0
M  V30 2786 C 264.524 4.34014 2.97521 0
M  V30 2787 O 263.55 5.01973 2.6835 0
M  V30 2788 N 264.752 3.95208 4.25196 0
M  V30 2789 H 267.517 2.98205 0.299006 0
M  V30 2790 H 265.078 1.61892 0.0160839 0
M  V30 2791 H 267.07 2.89428 2.82867 0
M  V30 2792 H 265.64 1.88649 2.4926 0
M  V30 2793 H 264.86 3.82814 0.940602 0
M  V30 2794 H 266.148 4.8086 1.66285 0
M  V30 2795 H 265.546 3.40487 4.51758 0
M  V30 2796 H 264.103 4.2232 4.96477 0
M  V30 2797 N 267.536 -0.106894 1.57237 0
M  V30 2798 C 268.782 -0.808678 1.86633 0
M  V30 2799 C 269.137 -1.76917 0.756178 0
M  V30 2800 O 268.43 -1.90055 -0.242834 0
M  V30 2801 C 268.624 -1.58628 3.20268 0
M  V30 2802 C 268.453 -0.702592 4.44178 0
M  V30 2803 C 267.223 -0.352808 5.04067 0
M  V30 2804 C 269.421 -0.0148031 5.14298 0
M  V30 2805 N 267.403 0.540279 6.11518 0
M  V30 2806 C 268.774 0.736809 6.15606 0
M  V30 2807 C 270.829 0.0603524 4.97863 0
M  V30 2808 C 269.532 1.55654 7.02257 0
M  V30 2809 C 271.558 0.866942 5.85011 0
M  V30 2810 C 270.92 1.60671 6.85831 0
M  V30 2811 H 267.019 -0.27246 0.733001 0
M  V30 2812 H 269.603 -0.0717858 1.94568 0
M  V30 2813 H 267.774 -2.29413 3.13408 0
M  V30 2814 H 269.506 -2.23434 3.3743 0
M  V30 2815 H 266.261 -0.697802 4.68431 0
M  V30 2816 H 266.685 0.979029 6.69884 0
M  V30 2817 H 271.327 -0.497236 4.19866 0
M  V30 2818 H 269.045 2.12524 7.79653 0
M  V30 2819 H 272.631 0.927612 5.74358 0
M  V30 2820 H 271.511 2.2208 7.52097 0
M  V30 2821 N 269.014 -1.53014 -0.377408 0
M  V30 2822 C 270.261 -1.68623 -1.12128 0
M  V30 2823 C 270.589 -0.431997 -1.89642 0
M  V30 2824 O 269.844 0.585855 -1.86725 0
M  V30 2825 C 270.143 -2.87982 -2.11663 0
M  V30 2826 C 269.809 -4.24964 -1.50719 0
M  V30 2827 C 268.471 -4.62217 -1.33825 0
M  V30 2828 C 270.823 -5.10199 -1.06519 0
M  V30 2829 C 268.151 -5.82352 -0.712963 0
M  V30 2830 C 270.503 -6.30969 -0.453955 0
M  V30 2831 C 269.167 -6.66944 -0.272411 0
M  V30 2832 H 268.437 -0.617034 -0.410305 0
M  V30 2833 H 271.084 -1.8718 -0.404484 0
M  V30 2834 H 269.389 -2.63889 -2.89603 0
M  V30 2835 H 271.086 -2.97253 -2.6915 0
M  V30 2836 H 267.676 -3.95626 -1.64858 0
M  V30 2837 H 271.86 -4.81978 -1.18368 0
M  V30 2838 H 267.116 -6.08824 -0.560611 0
M  V30 2839 H 271.29 -6.96324 -0.103217 0
M  V30 2840 H 268.917 -7.59898 0.214181 0
M  V30 2841 N 270.492 0.636531 -1.44174 0
M  V30 2842 C 271.738 1.39826 -1.4689 0
M  V30 2843 C 272.071 1.93947 -0.0990585 0
M  V30 2844 O 271.346 1.73325 0.882544 0
M  V30 2845 C 271.629 2.56751 -2.5249 0
M  V30 2846 C 271.482 2.08014 -3.98811 0
M  V30 2847 C 272.801 3.58946 -2.54649 0
M  V30 2848 H 269.92 0.507075 -0.53483 0
M  V30 2849 H 272.562 0.720188 -1.75822 0
M  V30 2850 H 270.712 3.14597 -2.2795 0
M  V30 2851 H 272.384 1.5504 -4.34466 0
M  V30 2852 H 270.627 1.39242 -4.10846 0
M  V30 2853 H 271.298 2.92169 -4.68339 0
M  V30 2854 H 273.774 3.1089 -2.76563 0
M  V30 2855 H 272.65 4.38286 -3.3045 0
M  V30 2856 H 272.911 4.12655 -1.58646 0
M  V30 2857 N 271.97 1.30982 0.876444 0
M  V30 2858 C 273.218 1.20058 1.62575 0
M  V30 2859 C 273.539 -0.242947 1.93481 0
M  V30 2860 O 272.809 -1.1619 1.57724 0
M  V30 2861 H 271.389 0.44135 0.602677 0
M  V30 2862 H 274.051 1.64222 1.04962 0
M  V30 2863 H 273.147 1.76762 2.57219 0
M  V30 2864 N 273.449 -1.08991 1.13837 0
M  V30 2865 C 274.379 -2.17771 0.842507 0
M  V30 2866 C 275.36 -1.6892 -0.20001 0
M  V30 2867 O 276.545 -1.94113 -0.0579731 0
M  V30 2868 C 273.675 -3.4589 0.312644 0
M  V30 2869 C 272.629 -4.08099 1.28992 0
M  V30 2870 C 271.955 -5.31098 0.619623 0
M  V30 2871 C 273.255 -4.50077 2.65005 0
M  V30 2872 H 274.949 -2.42777 1.75213 0
M  V30 2873 H 272.495 -1.16682 0.843875 0
M  V30 2874 H 274.448 -4.21297 0.0933043 0
M  V30 2875 H 273.172 -3.20419 -0.632382 0
M  V30 2876 H 271.831 -3.34717 1.49533 0
M  V30 2877 H 271.479 -5.0191 -0.33102 0
M  V30 2878 H 271.179 -5.73674 1.27167 0
M  V30 2879 H 272.703 -6.09224 0.409669 0
M  V30 2880 H 274.117 -5.16688 2.48407 0
M  V30 2881 H 272.514 -5.03553 3.26427 0
M  V30 2882 H 273.584 -3.62257 3.22332 0
M  V30 2883 N 274.927 -0.932562 -1.27047 0
M  V30 2884 C 276.152 -0.591474 -1.98787 0
M  V30 2885 C 276.577 0.824601 -1.69062 0
M  V30 2886 O 275.935 1.5541 -0.933677 0
M  V30 2887 C 275.983 -0.829808 -3.50922 0
M  V30 2888 O 275.087 0.102266 -4.12273 0
M  V30 2889 H 274.428 -0.227185 -0.623926 0
M  V30 2890 H 276.958 -1.25314 -1.61733 0
M  V30 2891 H 276.968 -0.747292 -4.01098 0
M  V30 2892 H 275.643 -1.86201 -3.7189 0
M  V30 2893 H 274.22 -0.0305761 -3.72887 0
M  V30 2894 N 276.405 1.4127 -0.698611 0
M  V30 2895 C 277.816 1.84187 -0.305289 0
M  V30 2896 C 278.167 1.58449 1.15708 0
M  V30 2897 O 277.292 1.05651 1.88856 0
M  V30 2898 C 277.887 3.3435 -0.547314 0
M  V30 2899 C 276.446 3.75826 -0.207878 0
M  V30 2900 C 275.593 2.64647 -0.828099 0
M  V30 2901 H 278.544 1.30778 -0.89904 0
M  V30 2902 H 278.565 3.8001 0.192998 0
M  V30 2903 H 278.077 3.53051 -1.61172 0
M  V30 2904 H 276.178 3.62725 0.852143 0
M  V30 2905 H 276.291 4.74462 -0.665021 0
M  V30 2906 H 274.655 2.53395 -0.257458 0
M  V30 2907 H 275.438 2.86165 -1.89643 0
M  V30 2908 N 277.883 0.443576 1.51229 0
M  V30 2909 C 279.111 -0.11929 2.06556 0
M  V30 2910 C 279.526 -1.35921 1.31038 0
M  V30 2911 O 278.883 -1.78675 0.371704 0
M  V30 2912 C 278.934 -0.435228 3.5887 0
M  V30 2913 O 278.655 0.755486 4.31537 0
M  V30 2914 C 280.156 -1.04808 4.30732 0
M  V30 2915 H 277.376 -0.0051584 0.67098 0
M  V30 2916 H 279.92 0.624453 1.94733 0
M  V30 2917 H 278.075 -1.12887 3.70588 0
M  V30 2918 H 278.489 0.483491 5.22267 0
M  V30 2919 H 279.963 -1.2191 5.3837 0
M  V30 2920 H 280.44 -2.03081 3.89429 0
M  V30 2921 H 281.046 -0.393637 4.23474 0
M  V30 2922 N 279.361 -1.56624 0.175154 0
M  V30 2923 C 280.607 -1.9729 -0.469506 0
M  V30 2924 C 280.94 -1.06128 -1.62636 0
M  V30 2925 O 280.215 -0.109183 -1.94193 0
M  V30 2926 C 280.498 -3.47375 -0.948804 0
M  V30 2927 C 280.351 -4.49317 0.208491 0
M  V30 2928 C 281.67 -4.00652 -1.82116 0
M  V30 2929 H 278.789 -0.717317 -0.16919 0
M  V30 2930 H 281.431 -1.88184 0.262062 0
M  V30 2931 H 279.581 -3.55267 -1.57219 0
M  V30 2932 H 281.253 -4.53482 0.845682 0
M  V30 2933 H 279.496 -4.25121 0.863395 0
M  V30 2934 H 280.167 -5.51741 -0.169059 0
M  V30 2935 H 282.643 -3.95416 -1.2956 0
M  V30 2936 H 281.519 -5.06075 -2.12554 0
M  V30 2937 H 281.78 -3.44699 -2.7683 0
M  V30 2938 N 280.839 0.0985539 -1.57292 0
M  V30 2939 C 282.085 0.798769 -1.87059 0
M  V30 2940 C 282.44 1.76514 -0.76555 0
M  V30 2941 O 281.733 1.90181 0.232752 0
M  V30 2942 C 281.927 1.56927 -3.21105 0
M  V30 2943 C 281.756 0.679026 -4.44544 0
M  V30 2944 C 280.526 0.326071 -5.04247 0
M  V30 2945 C 282.724 -0.0124715 -5.14298 0
M  V30 2946 N 280.706 -0.572702 -6.11223 0
M  V30 2947 C 282.077 -0.769446 -6.15207 0
M  V30 2948 C 284.132 -0.0867545 -4.97824 0
M  V30 2949 C 282.835 -1.59376 -7.01421 0
M  V30 2950 C 284.861 -0.897955 -5.84543 0
M  V30 2951 C 284.223 -1.64306 -6.84969 0
M  V30 2952 H 280.322 0.268568 -0.734435 0
M  V30 2953 H 282.906 0.0614664 -1.94603 0
M  V30 2954 H 281.077 2.27748 -3.1462 0
M  V30 2955 H 282.809 2.21641 -3.38611 0
M  V30 2956 H 279.564 0.67295 -4.68795 0
M  V30 2957 H 279.988 -1.01454 -6.69355 0
M  V30 2958 H 284.63 0.474963 -4.20124 0
M  V30 2959 H 282.348 -2.16655 -7.78515 0
M  V30 2960 H 285.934 -0.958059 -5.73858 0
M  V30 2961 H 284.814 -2.26065 -7.50909 0
M  V30 2962 N 282.317 1.53212 0.369288 0
M  V30 2963 C 283.247 1.82365 1.45826 0
M  V30 2964 C 284.228 0.676907 1.56051 0
M  V30 2965 O 285.413 0.926401 1.70679 0
M  V30 2966 C 282.543 2.01023 2.83208 0
M  V30 2967 C 281.497 3.1678 2.8781 0
M  V30 2968 C 280.823 3.20724 4.27832 0
M  V30 2969 C 282.123 4.55447 2.55667 0
M  V30 2970 H 283.817 2.73559 1.21678 0
M  V30 2971 H 281.363 1.3163 0.583911 0
M  V30 2972 H 283.316 2.20001 3.59413 0
M  V30 2973 H 282.04 1.06536 3.08736 0
M  V30 2974 H 280.699 2.97616 2.14056 0
M  V30 2975 H 280.347 2.23882 4.50429 0
M  V30 2976 H 280.047 3.98496 4.31827 0
M  V30 2977 H 281.571 3.41881 5.05915 0
M  V30 2978 H 282.985 4.74611 3.21586 0
M  V30 2979 H 281.382 5.35432 2.70984 0
M  V30 2980 H 282.452 4.60812 1.5093 0
M  V30 2981 N 283.795 -0.628877 1.44509 0
M  V30 2982 C 285.02 -1.42048 1.5112 0
M  V30 2983 C 285.445 -1.87594 0.137818 0
M  V30 2984 O 284.803 -1.58873 -0.873437 0
M  V30 2985 C 284.851 -2.61541 2.48251 0
M  V30 2986 O 283.955 -3.61453 1.98559 0
M  V30 2987 H 283.296 -0.424942 0.510216 0
M  V30 2988 H 285.826 -0.767374 1.89664 0
M  V30 2989 H 285.836 -3.09057 2.66361 0
M  V30 2990 H 284.511 -2.27736 3.48007 0
M  V30 2991 H 283.088 -3.20731 1.90227 0
M  V30 2992 N 285.273 -1.31445 -0.869486 0
M  V30 2993 C 286.519 -1.21337 -1.62496 0
M  V30 2994 C 286.852 0.227872 -1.92858 0
M  V30 2995 O 286.127 1.16094 -1.56053 0
M  V30 2996 C 286.41 -2.05814 -2.95487 0
M  V30 2997 C 286.263 -3.5824 -2.72 0
M  V30 2998 C 287.582 -1.9079 -3.96594 0
M  V30 2999 H 284.701 -0.442135 -0.589649 0
M  V30 3000 H 287.343 -1.6124 -1.00507 0
M  V30 3001 H 285.493 -1.71913 -3.48394 0
M  V30 3002 H 287.165 -4.0228 -2.25762 0
M  V30 3003 H 285.408 -3.81647 -2.06224 0
M  V30 3004 H 286.079 -4.12657 -3.66631 0
M  V30 3005 H 288.555 -2.20459 -3.52898 0
M  V30 3006 H 287.431 -2.52199 -4.87531 0
M  V30 3007 H 287.692 -0.871341 -4.33428 0
M  V30 3008 N 286.751 1.08385 -1.14413 0
M  V30 3009 C 288 1.80153 -0.907076 0
M  V30 3010 C 288.313 1.87176 0.567851 0
M  V30 3011 O 289.519 2.55359 0.922172 0
M  V30 3012 C 287.975 3.23687 -1.57336 0
M  V30 3013 C 287.583 3.24897 -3.08457 0
M  V30 3014 C 289.327 4.00136 -1.41744 0
M  V30 3015 C 287.234 4.6302 -3.67921 0
M  V30 3016 H 286.164 0.675139 -0.335714 0
M  V30 3017 H 288.815 1.21733 -1.37307 0
M  V30 3018 H 287.197 3.82234 -1.03505 0
M  V30 3019 H 288.371 2.76055 -3.68958 0
M  V30 3020 H 286.686 2.61943 -3.2369 0
M  V30 3021 H 289.283 5.02201 -1.83572 0
M  V30 3022 H 289.626 4.14709 -0.363576 0
M  V30 3023 H 290.159 3.48058 -1.92614 0
M  V30 3024 H 286.898 4.5365 -4.73161 0
M  V30 3025 H 286.418 5.12143 -3.12201 0
M  V30 3026 H 288.097 5.31994 -3.68227 0
M  V30 3027 N 288.23 0.939286 1.26551 0
M  V30 3028 C 289.476 0.596234 1.94465 0
M  V30 3029 C 289.831 -0.855013 1.72358 0
M  V30 3030 O 289.124 -1.6034 1.04889 0
M  V30 3031 C 289.318 0.872106 3.46596 0
M  V30 3032 C 289.147 2.34862 3.83497 0
M  V30 3033 C 287.917 3.00344 4.06352 0
M  V30 3034 C 290.115 3.32697 3.92195 0
M  V30 3035 N 288.097 4.38027 4.30123 0
M  V30 3036 C 289.468 4.55631 4.20476 0
M  V30 3037 C 291.523 3.27747 3.74815 0
M  V30 3038 C 290.226 5.74233 4.33185 0
M  V30 3039 C 292.252 4.45672 3.88755 0
M  V30 3040 C 291.614 5.67388 4.17433 0
M  V30 3041 H 287.713 0.268515 0.734455 0
M  V30 3042 H 290.297 1.2083 1.5267 0
M  V30 3043 H 288.468 0.289102 3.87323 0
M  V30 3044 H 290.2 0.490513 4.01716 0
M  V30 3045 H 286.955 2.50969 4.01636 0
M  V30 3046 H 287.379 5.09288 4.46044 0
M  V30 3047 H 292.021 2.34703 3.51673 0
M  V30 3048 H 289.739 6.67731 4.55149 0
M  V30 3049 H 293.325 4.43372 3.76713 0
M  V30 3050 H 292.205 6.57115 4.27983 0
M  V30 3051 N 289.708 -1.40897 0.706093 0
M  V30 3052 C 290.641 -2.282 -0.00328781 0
M  V30 3053 C 291.619 -1.42816 -0.77732 0
M  V30 3054 O 292.803 -1.72237 -0.765944 0
M  V30 3055 C 289.93 -3.23226 -1.01205 0
M  V30 3056 C 288.976 -4.25222 -0.329955 0
M  V30 3057 S 289.809 -5.27269 0.935298 0
M  V30 3058 C 290.965 -6.25859 -0.0716061 0
M  V30 3059 H 291.198 -2.88016 0.737143 0
M  V30 3060 H 288.731 -1.46191 0.496756 0
M  V30 3061 H 290.689 -3.78503 -1.58888 0
M  V30 3062 H 289.35 -2.62485 -1.72513 0
M  V30 3063 H 288.543 -4.92023 -1.09221 0
M  V30 3064 H 288.145 -3.73595 0.174069 0
M  V30 3065 H 290.437 -6.71204 -0.921521 0
M  V30 3066 H 291.38 -7.0586 0.562765 0
M  V30 3067 H 291.788 -5.62852 -0.431088 0
M  V30 3068 N 291.186 -0.45159 -1.50991 0
M  V30 3069 C 292.119 0.398179 -2.24699 0
M  V30 3070 C 293.097 1.01276 -1.27208 0
M  V30 3071 O 294.281 1.05247 -1.56382 0
M  V30 3072 C 291.408 1.55618 -3.00833 0
M  V30 3073 C 290.454 1.0609 -4.13095 0
M  V30 3074 S 291.287 -0.00865136 -5.35499 0
M  V30 3075 C 292.443 1.15369 -6.15175 0
M  V30 3076 H 292.676 -0.227555 -2.96428 0
M  V30 3077 H 290.209 -0.236251 -1.52582 0
M  V30 3078 H 292.167 2.21997 -3.45293 0
M  V30 3079 H 290.828 2.15337 -2.28667 0
M  V30 3080 H 290.021 1.92726 -4.65696 0
M  V30 3081 H 289.623 0.47513 -3.7097 0
M  V30 3082 H 291.915 2.06925 -6.45126 0
M  V30 3083 H 292.858 0.667344 -7.04948 0
M  V30 3084 H 293.266 1.3987 -5.46897 0
M  V30 3085 N 292.664 1.56529 -0.183458 0
M  V30 3086 C 293.91 1.98304 0.452466 0
M  V30 3087 C 294.265 1.06799 1.60037 0
M  V30 3088 O 293.558 0.110049 1.91284 0
M  V30 3089 C 293.752 3.43939 0.971637 0
M  V30 3090 C 293.581 4.49528 -0.124425 0
M  V30 3091 C 292.351 5.01981 -0.578168 0
M  V30 3092 C 294.549 5.05836 -0.929207 0
M  V30 3093 N 292.531 5.91219 -1.65327 0
M  V30 3094 C 293.902 5.91632 -1.85396 0
M  V30 3095 C 295.957 4.88302 -0.972929 0
M  V30 3096 C 294.66 6.61768 -2.81878 0
M  V30 3097 C 296.686 5.59168 -1.92574 0
M  V30 3098 C 296.048 6.44701 -2.83795 0
M  V30 3099 H 292.147 0.770551 0.133324 0
M  V30 3100 H 294.731 1.92581 -0.286473 0
M  V30 3101 H 292.902 3.50184 1.68006 0
M  V30 3102 H 294.634 3.72702 1.5772 0
M  V30 3103 H 291.389 4.73282 -0.173639 0
M  V30 3104 H 291.813 6.40543 -2.19167 0
M  V30 3105 H 296.455 4.21861 -0.28168 0
M  V30 3106 H 294.173 7.27415 -3.51984 0
M  V30 3107 H 297.759 5.47582 -1.96583 0
M  V30 3108 H 296.639 6.98573 -3.56322 0
M  V30 3109 N 294.142 -0.090211 1.57342 0
M  V30 3110 C 295.372 -0.805055 1.90269 0
M  V30 3111 C 295.78 -1.72561 0.775842 0
M  V30 3112 O 295.123 -1.81839 -0.260843 0
M  V30 3113 C 295.185 -1.66734 3.18497 0
M  V30 3114 C 294.849 -0.918092 4.47683 0
M  V30 3115 C 295.846 -0.245674 5.19319 0
M  V30 3116 C 293.531 -0.890724 4.94339 0
M  V30 3117 C 295.525 0.444088 6.35851 0
M  V30 3118 C 293.212 -0.197179 6.10782 0
M  V30 3119 C 294.21 0.469044 6.81388 0
M  V30 3120 O 293.898 1.15146 7.95611 0
M  V30 3121 H 293.63 -0.235143 0.633785 0
M  V30 3122 H 296.184 -0.0703805 2.05279 0
M  V30 3123 H 294.414 -2.44437 2.99646 0
M  V30 3124 H 296.103 -2.25919 3.37217 0
M  V30 3125 H 296.869 -0.258246 4.84312 0
M  V30 3126 H 292.748 -1.39873 4.39268 0
M  V30 3127 H 296.292 0.964667 6.90898 0
M  V30 3128 H 292.189 -0.18247 6.45242 0
M  V30 3129 H 292.957 1.05885 8.11622 0
M  V30 3130 N 295.62 -1.53406 -0.361157 0
M  V30 3131 C 296.866 -1.70999 -1.1014 0
M  V30 3132 C 297.221 -0.458425 -1.86859 0
M  V30 3133 O 296.514 0.548654 -1.83577 0
M  V30 3134 C 296.708 -2.90211 -2.08596 0
M  V30 3135 C 296.537 -4.26841 -1.41553 0
M  V30 3136 C 295.307 -4.91621 -1.16778 0
M  V30 3137 C 297.505 -5.07212 -0.850915 0
M  V30 3138 N 295.487 -6.12164 -0.461312 0
M  V30 3139 C 296.858 -6.19394 -0.274046 0
M  V30 3140 C 298.913 -4.92218 -0.750036 0
M  V30 3141 C 297.616 -7.18221 0.393868 0
M  V30 3142 C 299.642 -5.91322 -0.095894 0
M  V30 3143 C 299.004 -7.0283 0.470081 0
M  V30 3144 H 295.103 -0.678939 -0.388028 0
M  V30 3145 H 297.687 -1.90811 -0.38722 0
M  V30 3146 H 295.858 -2.71931 -2.77323 0
M  V30 3147 H 297.59 -2.96606 -2.7533 0
M  V30 3148 H 294.345 -4.50849 -1.45024 0
M  V30 3149 H 294.769 -6.76888 -0.123312 0
M  V30 3150 H 299.411 -4.06192 -1.17337 0
M  V30 3151 H 297.129 -8.03835 0.82914 0
M  V30 3152 H 300.715 -5.81797 -0.0187075 0
M  V30 3153 H 299.595 -7.782 0.968241 0
M  V30 3154 N 297.098 0.621204 -1.44841 0
M  V30 3155 C 298.346 1.37783 -1.47852 0
M  V30 3156 C 298.667 1.94653 -0.116224 0
M  V30 3157 O 297.937 1.76367 0.852737 0
M  V30 3158 H 296.517 0.511453 -0.544449 0
M  V30 3159 H 299.179 0.730446 -1.80694 0
M  V30 3160 H 298.275 2.20414 -2.20961 0
M  V30 3161 N 298.576 1.31904 0.862503 0
M  V30 3162 C 299.987 1.19803 1.43193 0
M  V30 3163 C 300.338 -0.192567 1.95253 0
M  V30 3164 O 299.463 -1.09081 1.86896 0
M  V30 3165 C 300.058 2.16883 2.60283 0
M  V30 3166 C 298.617 2.08692 3.13248 0
M  V30 3167 C 297.764 2.05691 1.85975 0
M  V30 3168 H 300.715 1.43846 0.670365 0
M  V30 3169 H 300.736 1.76278 3.37204 0
M  V30 3170 H 300.248 3.18083 2.22363 0
M  V30 3171 H 298.349 1.10713 3.55771 0
M  V30 3172 H 298.462 2.9815 3.75025 0
M  V30 3173 H 296.826 1.50814 2.05249 0
M  V30 3174 H 297.609 3.08659 1.50282 0
M  V30 3175 N 300.054 -1.07777 1.14986 0
M  V30 3176 C 301.279 -1.84558 0.946213 0
M  V30 3177 C 301.704 -1.81323 -0.500362 0
M  V30 3178 O 301.062 -1.20301 -1.35637 0
M  V30 3179 C 301.11 -3.29736 1.45968 0
M  V30 3180 O 300.214 -4.07149 0.65601 0
M  V30 3181 H 299.555 -0.571641 0.33782 0
M  V30 3182 H 302.085 -1.35991 1.52865 0
M  V30 3183 H 302.095 -3.80574 1.47063 0
M  V30 3184 H 300.77 -3.31406 2.51283 0
M  V30 3185 H 299.347 -3.65994 0.714322 0
M  V30 3186 N 301.532 -0.945985 -1.26051 0
M  V30 3187 C 302.462 -0.477172 -2.28572 0
M  V30 3188 C 303.443 0.472032 -1.63419 0
M  V30 3189 O 304.628 0.372853 -1.90587 0
M  V30 3190 C 301.758 0.253975 -3.4637 0
M  V30 3191 C 300.712 -0.609135 -4.23643 0
M  V30 3192 C 300.038 0.252252 -5.34105 0
M  V30 3193 C 301.338 -1.8829 -4.8718 0
M  V30 3194 H 303.032 -1.33402 -2.68038 0
M  V30 3195 H 300.578 -0.642904 -1.28852 0
M  V30 3196 H 302.531 0.593016 -4.17207 0
M  V30 3197 H 301.255 1.145 -3.05871 0
M  V30 3198 H 299.914 -0.931138 -3.54578 0
M  V30 3199 H 299.562 1.14278 -4.89846 0
M  V30 3200 H 299.262 -0.32188 -5.86718 0
M  V30 3201 H 300.786 0.586454 -6.07777 0
M  V30 3202 H 302.2 -1.61081 -5.50205 0
M  V30 3203 H 300.597 -2.40199 -5.49931 0
M  V30 3204 H 301.667 -2.59134 -4.09851 0
M  V30 3205 N 303.011 1.40521 -0.713556 0
M  V30 3206 C 304.241 2.0494 -0.261395 0
M  V30 3207 C 304.649 1.53861 1.10107 0
M  V30 3208 O 303.992 0.689321 1.70276 0
M  V30 3209 C 304.054 3.59138 -0.161227 0
M  V30 3210 C 303.718 4.33096 -1.45865 0
M  V30 3211 C 304.715 4.61182 -2.40016 0
M  V30 3212 C 302.4 4.72043 -1.71701 0
M  V30 3213 C 304.394 5.27196 -3.58251 0
M  V30 3214 C 302.081 5.37789 -2.90218 0
M  V30 3215 C 303.079 5.65295 -3.83315 0
M  V30 3216 O 302.767 6.29683 -4.99754 0
M  V30 3217 H 302.499 0.666041 -0.115608 0
M  V30 3218 H 305.053 1.80954 -0.971849 0
M  V30 3219 H 303.283 3.81936 0.605153 0
M  V30 3220 H 304.972 4.05091 0.256105 0
M  V30 3221 H 305.738 4.31559 -2.21318 0
M  V30 3222 H 301.617 4.50003 -1.00092 0
M  V30 3223 H 305.161 5.48582 -4.30934 0
M  V30 3224 H 301.058 5.66831 -3.08825 0
M  V30 3225 H 301.826 6.4818 -4.99805 0
M  V30 3226 N 304.489 0.459591 1.5075 0
M  V30 3227 C 305.714 -0.0996819 2.0716 0
M  V30 3228 C 306.139 -1.33761 1.32249 0
M  V30 3229 O 305.497 -1.77551 0.366786 0
M  V30 3230 C 305.545 -0.378226 3.58611 0
M  V30 3231 O 304.649 -1.46081 3.85661 0
M  V30 3232 H 303.99 0.00791392 0.663953 0
M  V30 3233 H 306.52 0.647329 1.9409 0
M  V30 3234 H 306.53 -0.622135 4.03229 0
M  V30 3235 H 305.205 0.526439 4.12555 0
M  V30 3236 H 303.782 -1.20511 3.5289 0
M  V30 3237 N 305.967 -1.56429 0.191757 0
M  V30 3238 C 307.216 -1.9666 -0.448088 0
M  V30 3239 C 307.529 -1.08136 -1.62991 0
M  V30 3240 O 308.735 -1.38135 -2.33733 0
M  V30 3241 C 307.191 -3.49753 -0.848585 0
M  V30 3242 C 306.799 -4.46935 0.308764 0
M  V30 3243 C 308.543 -3.9876 -1.4557 0
M  V30 3244 C 306.45 -5.91293 -0.112506 0
M  V30 3245 H 305.38 -0.734312 -0.171179 0
M  V30 3246 H 308.031 -1.81301 0.283242 0
M  V30 3247 H 306.413 -3.60604 -1.63649 0
M  V30 3248 H 307.587 -4.47813 1.08627 0
M  V30 3249 H 305.902 -4.08102 0.827158 0
M  V30 3250 H 308.499 -5.04086 -1.78328 0
M  V30 3251 H 308.842 -3.42875 -2.36099 0
M  V30 3252 H 309.375 -3.9101 -0.731836 0
M  V30 3253 H 306.114 -6.51097 0.758514 0
M  V30 3254 H 305.634 -5.93676 -0.854941 0
M  V30 3255 H 307.313 -6.44663 -0.549448 0
M  V30 3256 N 307.445 0.0818655 -1.57387 0
M  V30 3257 C 308.375 1.09885 -2.06028 0
M  V30 3258 C 309.356 1.4098 -0.951774 0
M  V30 3259 O 310.541 1.50781 -1.22387 0
M  V30 3260 C 307.671 2.4151 -2.4958 0
M  V30 3261 C 306.625 2.24792 -3.64215 0
M  V30 3262 C 305.951 3.61712 -3.93787 0
M  V30 3263 C 307.251 1.67749 -4.94629 0
M  V30 3264 H 308.945 0.694128 -2.91243 0
M  V30 3265 H 306.491 0.332448 -1.4011 0
M  V30 3266 H 308.444 3.12939 -2.82219 0
M  V30 3267 H 307.168 2.83943 -1.61381 0
M  V30 3268 H 305.827 1.55807 -3.31843 0
M  V30 3269 H 305.475 4.01697 -3.02735 0
M  V30 3270 H 305.175 3.51368 -4.70971 0
M  V30 3271 H 306.699 4.34587 -4.28913 0
M  V30 3272 H 308.113 2.29032 -5.25564 0
M  V30 3273 H 306.51 1.68128 -5.76067 0
M  V30 3274 H 307.58 0.638059 -4.80684 0
M  V30 3275 N 308.923 1.53595 0.353017 0
M  V30 3276 C 310.148 1.7462 1.11904 0
M  V30 3277 C 310.573 0.479721 1.8188 0
M  V30 3278 O 309.931 -0.567066 1.72204 0
M  V30 3279 C 309.979 2.92029 2.11545 0
M  V30 3280 O 309.083 2.61516 3.18878 0
M  V30 3281 H 308.424 0.579531 0.324099 0
M  V30 3282 H 310.954 2.00525 0.406301 0
M  V30 3283 H 310.964 3.18551 2.5493 0
M  V30 3284 H 309.639 3.83888 1.60008 0
M  V30 3285 H 308.216 2.45852 2.80377 0
M  V30 3286 N 310.401 -0.613514 1.45168 0
M  V30 3287 C 311.812 -1.19539 1.43413 0
M  V30 3288 C 312.163 -1.95558 0.158632 0
M  V30 3289 O 311.288 -2.0335 -0.740119 0
M  V30 3290 C 311.883 -2.17445 2.59813 0
M  V30 3291 C 310.442 -2.71022 2.61197 0
M  V30 3292 C 309.589 -1.46323 2.35552 0
M  V30 3293 H 312.54 -0.403163 1.53494 0
M  V30 3294 H 312.561 -3.00373 2.33574 0
M  V30 3295 H 312.073 -1.62089 3.52631 0
M  V30 3296 H 310.174 -3.30332 1.7237 0
M  V30 3297 H 310.287 -3.15859 3.60236 0
M  V30 3298 H 308.651 -1.75072 1.84992 0
M  V30 3299 H 309.434 -0.92844 3.30507 0
M  V30 3300 N 311.879 -1.3236 -0.855495 0
M  V30 3301 C 313.126 -1.22872 -1.60962 0
M  V30 3302 C 313.454 0.209658 -1.93367 0
M  V30 3303 O 312.709 1.16243 -1.57436 0
M  V30 3304 C 313.008 -2.03275 -2.93963 0
M  V30 3305 C 312.674 -3.5264 -2.80991 0
M  V30 3306 C 311.336 -3.93364 -2.7716 0
M  V30 3307 C 313.688 -4.47626 -2.66983 0
M  V30 3308 C 311.016 -5.27319 -2.572 0
M  V30 3309 C 313.368 -5.81723 -2.48558 0
M  V30 3310 C 312.032 -6.2165 -2.4312 0
M  V30 3311 H 311.302 -0.44962 -0.589001 0
M  V30 3312 H 313.949 -1.63777 -0.992442 0
M  V30 3313 H 312.254 -1.55095 -3.59795 0
M  V30 3314 H 313.951 -1.93303 -3.51333 0
M  V30 3315 H 310.541 -3.20295 -2.84797 0
M  V30 3316 H 314.725 -4.17084 -2.68988 0
M  V30 3317 H 309.981 -5.57311 -2.51424 0
M  V30 3318 H 314.155 -6.5494 -2.36699 0
M  V30 3319 H 311.782 -7.25388 -2.27412 0
M  V30 3320 N 313.357 1.07166 -1.15556 0
M  V30 3321 C 314.287 2.16403 -0.877046 0
M  V30 3322 C 315.268 1.69217 0.173111 0
M  V30 3323 O 316.453 1.94181 0.027084 0
M  V30 3324 C 313.583 3.45349 -0.367632 0
M  V30 3325 C 312.537 4.05995 -1.35468 0
M  V30 3326 C 311.863 5.30045 -0.704038 0
M  V30 3327 C 313.163 4.45804 -2.72132 0
M  V30 3328 H 314.857 2.39959 -1.79053 0
M  V30 3329 H 312.403 1.15325 -0.862331 0
M  V30 3330 H 314.356 4.21095 -0.160317 0
M  V30 3331 H 313.08 3.21385 0.581326 0
M  V30 3332 H 311.739 3.32296 -1.54839 0
M  V30 3333 H 311.387 5.02373 0.251128 0
M  V30 3334 H 311.087 5.71579 -1.36277 0
M  V30 3335 H 312.611 6.08495 -0.50654 0
M  V30 3336 H 314.025 5.12671 -2.56595 0
M  V30 3337 H 312.422 4.98296 -3.34397 0
M  V30 3338 H 313.492 3.57083 -3.28054 0
M  V30 3339 N 314.835 0.952656 1.25548 0
M  V30 3340 C 316.246 0.647392 1.75116 0
M  V30 3341 C 316.597 -0.837274 1.77438 0
M  V30 3342 O 315.722 -1.65525 1.39393 0
M  V30 3343 C 316.317 1.16845 3.18014 0
M  V30 3344 C 314.876 0.913382 3.6515 0
M  V30 3345 C 314.023 1.31265 2.44264 0
M  V30 3346 H 316.974 1.12968 1.11462 0
M  V30 3347 H 316.995 0.527606 3.76824 0
M  V30 3348 H 316.507 2.24902 3.16292 0
M  V30 3349 H 314.608 -0.152316 3.72289 0
M  V30 3350 H 314.721 1.54845 4.53387 0
M  V30 3351 H 313.085 0.731028 2.43984 0
M  V30 3352 H 313.868 2.40239 2.45234 0
M  V30 3353 N 316.313 -1.40141 0.720998 0
M  V30 3354 C 317.243 -2.33339 0.0867621 0
M  V30 3355 C 318.224 -1.53178 -0.739622 0
M  V30 3356 O 319.409 -1.81625 -0.687449 0
M  V30 3357 C 316.539 -3.37194 -0.831728 0
M  V30 3358 C 315.493 -4.27857 -0.110558 0
M  V30 3359 C 314.819 -5.22294 -1.14513 0
M  V30 3360 C 316.119 -5.11872 1.0385 0
M  V30 3361 H 317.813 -2.86626 0.865219 0
M  V30 3362 H 315.359 -1.37814 0.417516 0
M  V30 3363 H 317.312 -4.01335 -1.28485 0
M  V30 3364 H 316.036 -2.82314 -1.64214 0
M  V30 3365 H 314.695 -3.65176 0.322797 0
M  V30 3366 H 314.343 -4.63717 -1.94874 0
M  V30 3367 H 314.043 -5.83797 -0.667446 0
M  V30 3368 H 315.567 -5.89312 -1.59824 0
M  V30 3369 H 316.981 -5.69436 0.664482 0
M  V30 3370 H 315.378 -5.82445 1.4449 0
M  V30 3371 H 316.448 -4.4753 1.86668 0
M  V30 3372 N 317.792 -0.46758 -1.50504 0
M  V30 3373 C 318.722 0.318381 -2.31319 0
M  V30 3374 C 319.703 0.993564 -1.38066 0
M  V30 3375 O 320.888 0.991411 -1.66987 0
M  V30 3376 C 318.018 1.40275 -3.17711 0
M  V30 3377 C 316.972 0.849373 -4.19487 0
M  V30 3378 C 316.298 2.03177 -4.94594 0
M  V30 3379 C 317.598 -0.136942 -5.2212 0
M  V30 3380 H 319.292 -0.356106 -2.97275 0
M  V30 3381 H 316.838 -0.172703 -1.42961 0
M  V30 3382 H 318.791 1.96004 -3.73042 0
M  V30 3383 H 317.515 2.10596 -2.49634 0
M  V30 3384 H 316.174 0.314076 -3.65252 0
M  V30 3385 H 315.822 2.72187 -4.22993 0
M  V30 3386 H 315.522 1.66774 -5.63436 0
M  V30 3387 H 317.046 2.59403 -5.52759 0
M  V30 3388 H 318.46 0.331056 -5.72343 0
M  V30 3389 H 316.857 -0.41507 -5.98663 0
M  V30 3390 H 317.927 -1.06398 -4.73083 0
M  V30 3391 N 319.27 1.56325 -0.20005 0
M  V30 3392 C 320.681 1.8408 0.31167 0
M  V30 3393 C 321.032 1.12087 1.61031 0
M  V30 3394 O 320.157 0.38332 2.12978 0
M  V30 3395 C 320.752 3.33932 0.57226 0
M  V30 3396 C 319.311 3.6208 1.02834 0
M  V30 3397 C 318.458 2.77186 0.079634 0
M  V30 3398 H 321.409 1.52939 -0.423729 0
M  V30 3399 H 321.43 3.52971 1.42096 0
M  V30 3400 H 320.942 3.86303 -0.37308 0
M  V30 3401 H 319.043 3.15147 1.98778 0
M  V30 3402 H 319.156 4.7023 0.917624 0
M  V30 3403 H 317.52 2.47951 0.582448 0
M  V30 3404 H 318.303 3.32347 -0.860238 0
M  V30 3405 N 320.748 -0.0735177 1.57428 0
M  V30 3406 C 321.997 -0.771809 1.86349 0
M  V30 3407 C 322.31 -1.78828 0.792452 0
M  V30 3408 O 323.516 -2.53602 0.96945 0
M  V30 3409 C 321.972 -1.42358 3.30548 0
M  V30 3410 C 321.58 -0.445761 4.45777 0
M  V30 3411 C 323.324 -2.10434 3.6867 0
M  V30 3412 C 321.231 -1.10335 5.81016 0
M  V30 3413 H 320.161 -0.291999 0.695164 0
M  V30 3414 H 322.812 -0.0250749 1.83483 0
M  V30 3415 H 321.194 -2.21852 3.28021 0
M  V30 3416 H 322.368 0.319239 4.59693 0
M  V30 3417 H 320.683 0.130457 4.16196 0
M  V30 3418 H 323.28 -2.60405 4.67004 0
M  V30 3419 H 323.623 -2.90298 2.98383 0
M  V30 3420 H 324.156 -1.37773 3.7318 0
M  V30 3421 H 320.895 -0.345061 6.54591 0
M  V30 3422 H 320.415 -1.83925 5.70904 0
M  V30 3423 H 322.094 -1.62367 6.26295 0
M  V30 3424 N 322.226 -1.5378 -0.344866 0
M  V30 3425 C 323.473 -1.70963 -1.08526 0
M  V30 3426 C 323.801 -0.472126 -1.88683 0
M  V30 3427 O 323.056 0.546116 -1.87926 0
M  V30 3428 C 323.355 -2.92407 -2.05506 0
M  V30 3429 C 323.021 -4.28066 -1.41671 0
M  V30 3430 C 321.683 -4.64951 -1.2399 0
M  V30 3431 C 324.035 -5.12344 -0.956726 0
M  V30 3432 C 321.363 -5.83733 -0.589277 0
M  V30 3433 C 323.715 -6.3179 -0.320015 0
M  V30 3434 C 322.379 -6.67372 -0.130881 0
M  V30 3435 H 321.649 -0.625598 -0.397124 0
M  V30 3436 H 324.296 -1.87995 -0.36469 0
M  V30 3437 H 322.601 -2.69973 -2.8394 0
M  V30 3438 H 324.298 -3.02895 -2.62784 0
M  V30 3439 H 320.888 -3.99034 -1.56429 0
M  V30 3440 H 325.072 -4.8438 -1.08118 0
M  V30 3441 H 320.328 -6.09877 -0.431344 0
M  V30 3442 H 324.502 -6.96386 0.0445072 0
M  V30 3443 H 322.129 -7.59273 0.375318 0
M  V30 3444 N 323.704 0.605807 -1.45491 0
M  V30 3445 C 324.951 1.36476 -1.49601 0
M  V30 3446 C 325.279 1.94007 -0.138452 0
M  V30 3447 O 324.534 1.75638 0.863114 0
M  V30 3448 C 324.833 2.53012 -2.52428 0
M  V30 3449 C 324.499 2.13617 -3.97087 0
M  V30 3450 C 323.161 2.02587 -4.36477 0
M  V30 3451 C 325.513 1.82899 -4.88055 0
M  V30 3452 C 322.841 1.59064 -5.64726 0
M  V30 3453 C 325.193 1.40861 -6.16718 0
M  V30 3454 C 323.857 1.28391 -6.55036 0
M  V30 3455 H 323.127 0.499402 -0.547429 0
M  V30 3456 H 325.774 0.684546 -1.78847 0
M  V30 3457 H 324.079 3.26379 -2.16758 0
M  V30 3458 H 325.776 3.1124 -2.52845 0
M  V30 3459 H 322.366 2.23129 -3.65939 0
M  V30 3460 H 326.55 1.90317 -4.58359 0
M  V30 3461 H 321.806 1.48034 -5.93208 0
M  V30 3462 H 325.98 1.16138 -6.86648 0
M  V30 3463 H 323.607 0.944403 -7.54311 0
M  V30 3464 N 325.182 1.32811 0.848464 0
M  V30 3465 C 326.422 1.25046 1.61687 0
M  V30 3466 C 326.786 -0.183464 1.91121 0
M  V30 3467 O 327.987 -0.384937 2.66029 0
M  V30 3468 C 326.258 2.09201 2.89775 0
M  V30 3469 S 327.817 2.18526 3.80515 0
M  V30 3470 H 324.635 0.445023 0.554505 0
M  V30 3471 H 327.237 1.67733 1.00429 0
M  V30 3472 H 325.941 3.12433 2.66108 0
M  V30 3473 H 325.472 1.67315 3.56047 0
M  V30 3474 H 327.487 1.3393 4.77784 0
M  V30 3475 N 326.66 -1.06551 1.16123 0
M  V30 3476 C 327.59 -2.15935 0.88851 0
M  V30 3477 C 328.571 -1.69306 -0.164135 0
M  V30 3478 O 329.756 -1.94193 -0.0167857 0
M  V30 3479 C 326.886 -3.45149 0.385942 0
M  V30 3480 C 325.84 -4.05271 1.3762 0
M  V30 3481 C 325.166 -5.29664 0.732137 0
M  V30 3482 C 326.466 -4.44355 2.74493 0
M  V30 3483 H 328.16 -2.39006 1.80323 0
M  V30 3484 H 325.706 -1.14866 0.868435 0
M  V30 3485 H 327.659 -4.21004 0.182647 0
M  V30 3486 H 326.383 -3.21689 -0.564274 0
M  V30 3487 H 325.042 -3.3147 1.56599 0
M  V30 3488 H 324.69 -5.02499 -0.224483 0
M  V30 3489 H 324.39 -5.70848 1.39307 0
M  V30 3490 H 325.914 -6.08218 0.538802 0
M  V30 3491 H 327.328 -5.11303 2.59311 0
M  V30 3492 H 325.725 -4.96515 3.37035 0
M  V30 3493 H 326.795 -3.55339 3.29943 0
M  V30 3494 N 328.138 -0.959301 -1.25041 0
M  V30 3495 C 329.384 -0.627096 -1.93492 0
M  V30 3496 C 329.739 0.827484 -1.73696 0
M  V30 3497 O 329.032 1.58651 -1.07427 0
M  V30 3498 C 329.226 -0.927136 -3.45165 0
M  V30 3499 C 329.055 -2.40933 -3.79712 0
M  V30 3500 C 327.825 -3.0677 -4.01522 0
M  V30 3501 C 330.023 -3.38894 -3.86853 0
M  V30 3502 N 328.005 -4.44815 -4.231 0
M  V30 3503 C 329.376 -4.62263 -4.13174 0
M  V30 3504 C 331.431 -3.33668 -3.69554 0
M  V30 3505 C 330.134 -5.81052 -4.23995 0
M  V30 3506 C 332.16 -4.518 -3.81616 0
M  V30 3507 C 331.522 -5.73957 -4.08354 0
M  V30 3508 H 327.621 -0.280166 -0.73009 0
M  V30 3509 H 330.205 -1.23244 -1.50729 0
M  V30 3510 H 328.376 -0.350685 -3.86814 0
M  V30 3511 H 330.108 -0.554361 -4.00885 0
M  V30 3512 H 326.863 -2.57327 -3.97593 0
M  V30 3513 H 327.287 -5.16319 -4.37885 0
M  V30 3514 H 331.929 -2.40268 -3.47895 0
M  V30 3515 H 329.647 -6.74888 -4.44468 0
M  V30 3516 H 333.233 -4.49309 -3.69612 0
M  V30 3517 H 332.113 -6.6384 -4.17475 0
M  V30 3518 N 329.616 1.39756 -0.72842 0
M  V30 3519 C 330.862 2.00942 -0.273892 0
M  V30 3520 C 331.195 1.57656 1.13394 0
M  V30 3521 O 330.47 0.802434 1.77176 0
M  V30 3522 C 330.753 3.58211 -0.368346 0
M  V30 3523 C 330.606 4.11534 -1.81548 0
M  V30 3524 C 331.925 4.39372 0.253054 0
M  V30 3525 H 329.044 0.730047 -0.100996 0
M  V30 3526 H 331.686 1.66056 -0.923337 0
M  V30 3527 H 329.836 3.88061 0.184588 0
M  V30 3528 H 331.508 3.92431 -2.42478 0
M  V30 3529 H 329.751 3.65341 -2.33898 0
M  V30 3530 H 330.422 5.20682 -1.83288 0
M  V30 3531 H 332.898 4.15527 -0.218224 0
M  V30 3532 H 331.774 5.48677 0.156585 0
M  V30 3533 H 332.035 4.21358 1.33826 0
M  V30 3534 N 331.094 0.475555 1.50254 0
M  V30 3535 C 332.324 -0.0753399 2.06463 0
M  V30 3536 C 332.732 -1.33661 1.33908 0
M  V30 3537 O 332.075 -1.79219 0.403257 0
M  V30 3538 C 332.137 -0.424921 3.5698 0
M  V30 3539 C 331.801 0.734965 4.51051 0
M  V30 3540 C 332.798 1.61827 4.94073 0
M  V30 3541 C 330.483 0.926557 4.9368 0
M  V30 3542 C 332.477 2.67754 5.78434 0
M  V30 3543 C 330.164 1.98904 5.77824 0
M  V30 3544 C 331.162 2.8629 6.20103 0
M  V30 3545 O 330.85 3.90708 7.02568 0
M  V30 3546 H 330.582 0.00576308 0.675975 0
M  V30 3547 H 333.136 0.664662 1.94349 0
M  V30 3548 H 331.366 -1.21817 3.67012 0
M  V30 3549 H 333.055 -0.911422 3.95535 0
M  V30 3550 H 333.821 1.48196 4.61804 0
M  V30 3551 H 329.7 0.25584 4.6029 0
M  V30 3552 H 333.244 3.35992 6.11355 0
M  V30 3553 H 329.141 2.12541 6.09505 0
M  V30 3554 H 329.909 3.87751 7.20827 0
M  V30 3555 N 332.573 -1.56217 0.208337 0
M  V30 3556 C 333.822 -1.97124 -0.427204 0
M  V30 3557 C 334.135 -1.09859 -1.61835 0
M  V30 3558 O 335.341 -1.40606 -2.32255 0
M  V30 3559 C 333.797 -3.50633 -0.811442 0
M  V30 3560 C 333.405 -4.46582 0.35615 0
M  V30 3561 C 335.149 -4.00282 -1.41332 0
M  V30 3562 C 333.056 -5.91379 -0.0497852 0
M  V30 3563 H 331.986 -0.736086 -0.163381 0
M  V30 3564 H 334.637 -1.8099 0.302456 0
M  V30 3565 H 333.019 -3.62319 -1.59815 0
M  V30 3566 H 334.193 -4.46636 1.1337 0
M  V30 3567 H 332.508 -4.07202 0.870396 0
M  V30 3568 H 335.105 -5.0595 -1.72972 0
M  V30 3569 H 335.448 -3.45359 -2.32449 0
M  V30 3570 H 335.981 -3.91764 -0.690323 0
M  V30 3571 H 332.72 -6.50255 0.827529 0
M  V30 3572 H 332.24 -5.94549 -0.791926 0
M  V30 3573 H 333.919 -6.45209 -0.481042 0
M  V30 3574 O 334.09 -0.071647 -1.61341 0
M  V30 3575 H 334.781 0.534597 -1.86177 0
M  V30 END ATOM
M  V30 BEGIN BOND
M  V30 END BOND
M  V30 END CTAB
M  END
$$$$
